IWR-1(endo-IWR 1).cdx


 33 38  0  0  0  0  0  0  0  0999 V2000
    5.5181   19.5821   47.4420 C   0  0  0  0  0  0  0  0  0  0  0  0
    5.1532   19.5658   46.1093 C   0  0  0  0  0  0  0  0  0  0  0  0
    5.0086   18.4041   45.3794 C   0  0  0  0  0  0  0  0  0  0  0  0
    5.2240   17.1903   45.9523 C   0  0  0  0  0  0  0  0  0  0  0  0
    5.5910   17.1592   47.2842 C   0  0  0  0  0  0  0  0  0  0  0  0
    5.7370   18.3376   48.0225 C   0  0  0  0  0  0  0  0  0  0  0  0
    5.1886   22.3000   49.9595 C   0  0  0  0  0  0  0  0  0  0  0  0
    6.6886   22.2450   49.7388 C   0  0  0  0  0  0  0  0  0  0  0  0
    6.8646   21.4784   48.4972 C   0  0  0  0  0  0  0  0  0  0  0  0
    5.6697   20.7649   48.2022 N   0  0  0  0  0  0  0  0  0  0  0  0
    4.6154   21.4813   48.8328 C   0  0  0  0  0  0  0  0  0  0  0  0
    4.9663   21.6758   51.3008 C   0  0  0  0  0  0  0  0  0  0  0  0
    5.3358   20.2366   51.1727 C   0  0  0  0  0  0  0  0  0  0  0  0
    6.6588   20.1760   50.9874 C   0  0  0  0  0  0  0  0  0  0  0  0
    7.1697   21.5577   50.9733 C   0  0  0  0  0  0  0  0  0  0  0  0
    3.3883   21.5007   48.5761 O   0  0  0  0  0  0  0  0  0  0  0  0
    7.9233   21.4748   47.8215 O   0  0  0  0  0  0  0  0  0  0  0  0
    4.6568   23.7071   49.8485 C   0  0  0  0  0  0  0  0  0  0  0  0
    6.2316   22.1723   52.0219 C   0  0  0  0  0  0  0  0  0  0  0  0
    5.0952   15.9166   45.2600 C   0  0  0  0  0  0  0  0  0  0  0  0
    4.2757   15.0138   45.6427 O   0  0  0  0  0  0  0  0  0  0  0  0
    5.8707   15.5961   44.1165 N   0  0  0  0  0  0  0  0  0  0  0  0
    6.5677   16.2691   43.7281 H   0  0  0  0  0  0  0  0  0  0  0  0
    5.7563   14.3483   43.4242 C   0  0  0  0  0  0  0  0  0  0  0  0
    6.2898   13.1914   43.9736 C   0  0  0  0  0  0  0  0  0  0  0  0
    6.1701   11.9944   43.2911 C   0  0  0  0  0  0  0  0  0  0  0  0
    5.5335   11.9358   42.0830 C   0  0  0  0  0  0  0  0  0  0  0  0
    4.9972   13.0931   41.5289 C   0  0  0  0  0  0  0  0  0  0  0  0
    5.1060   14.3088   42.1981 C   0  0  0  0  0  0  0  0  0  0  0  0
    4.3631   12.9810   40.3048 C   0  0  0  0  0  0  0  0  0  0  0  0
    3.8292   14.1324   39.7527 C   0  0  0  0  0  0  0  0  0  0  0  0
    3.9497   15.3431   40.4420 C   0  0  0  0  0  0  0  0  0  0  0  0
    4.5751   15.4076   41.6314 N   0  0  0  0  0  0  0  0  0  0  0  0
  7  8  1  0  0  0
  7 12  1  0  0  0
  7 18  1  0  0  0
  8  9  1  0  0  0
  9 10  1  0  0  0
  9 17  2  0  0  0
 10 11  1  0  0  0
 10  1  1  0  0  0
 11  7  1  0  0  0
 11 16  2  0  0  0
 12 13  1  0  0  0
 12 19  1  0  0  0
 13 14  2  0  0  0
 15 14  1  0  0  0
 15  8  1  0  0  0
 15 19  1  0  0  0
  1  2  2  0  0  0
  2  3  1  0  0  0
  3  4  2  0  0  0
  4  5  1  0  0  0
  4 20  1  0  0  0
  5  6  2  0  0  0
  6  1  1  0  0  0
 20 21  2  0  0  0
 20 22  1  0  0  0
 22 24  1  0  0  0
 24 25  2  0  0  0
 25 26  1  0  0  0
 26 27  2  0  0  0
 27 28  1  0  0  0
 28 29  2  0  0  0
 28 30  1  0  0  0
 29 24  1  0  0  0
 30 31  2  0  0  0
 31 32  1  0  0  0
 32 33  2  0  0  0
 33 29  2  0  0  0
 22 23  1  0  0  0
M  END
> <minimizedAffinity>
-11.64600

$$$$
IWR-1(endo-IWR 1).cdx


 33 38  0  0  0  0  0  0  0  0999 V2000
    5.2429   19.1366   47.8355 C   0  0  0  0  0  0  0  0  0  0  0  0
    5.9086   19.0607   46.6270 C   0  0  0  0  0  0  0  0  0  0  0  0
    5.8566   17.9549   45.8037 C   0  0  0  0  0  0  0  0  0  0  0  0
    5.1294   16.8606   46.1522 C   0  0  0  0  0  0  0  0  0  0  0  0
    4.4470   16.8928   47.3534 C   0  0  0  0  0  0  0  0  0  0  0  0
    4.5007   18.0144   48.1867 C   0  0  0  0  0  0  0  0  0  0  0  0
    6.0631   21.5819   50.5153 C   0  0  0  0  0  0  0  0  0  0  0  0
    5.7760   22.4856   49.3309 C   0  0  0  0  0  0  0  0  0  0  0  0
    5.0809   21.6313   48.3576 C   0  0  0  0  0  0  0  0  0  0  0  0
    5.2870   20.2633   48.6892 N   0  0  0  0  0  0  0  0  0  0  0  0
    5.5555   20.2307   50.0853 C   0  0  0  0  0  0  0  0  0  0  0  0
    7.5492   21.6161   50.6837 C   0  0  0  0  0  0  0  0  0  0  0  0
    8.1342   20.9571   49.4804 C   0  0  0  0  0  0  0  0  0  0  0  0
    7.8952   21.7509   48.4310 C   0  0  0  0  0  0  0  0  0  0  0  0
    7.1435   22.9199   48.9197 C   0  0  0  0  0  0  0  0  0  0  0  0
    5.4275   19.2940   50.9087 O   0  0  0  0  0  0  0  0  0  0  0  0
    4.4137   22.0735   47.3898 O   0  0  0  0  0  0  0  0  0  0  0  0
    5.3023   22.0107   51.7451 C   0  0  0  0  0  0  0  0  0  0  0  0
    7.8130   23.0805   50.2921 C   0  0  0  0  0  0  0  0  0  0  0  0
    5.0181   15.6533   45.3473 C   0  0  0  0  0  0  0  0  0  0  0  0
    4.2013   14.7144   45.6380 O   0  0  0  0  0  0  0  0  0  0  0  0
    5.8088   15.4416   44.1890 N   0  0  0  0  0  0  0  0  0  0  0  0
    6.5048   16.1513   43.8706 H   0  0  0  0  0  0  0  0  0  0  0  0
    5.7116   14.2600   43.3865 C   0  0  0  0  0  0  0  0  0  0  0  0
    6.2644   13.0665   43.8281 C   0  0  0  0  0  0  0  0  0  0  0  0
    6.1612   11.9346   43.0400 C   0  0  0  0  0  0  0  0  0  0  0  0
    5.5223   11.9758   41.8324 C   0  0  0  0  0  0  0  0  0  0  0  0
    4.9668   13.1701   41.3861 C   0  0  0  0  0  0  0  0  0  0  0  0
    5.0587   14.3217   42.1627 C   0  0  0  0  0  0  0  0  0  0  0  0
    4.3312   13.1596   40.1578 C   0  0  0  0  0  0  0  0  0  0  0  0
    3.7781   14.3478   39.7131 C   0  0  0  0  0  0  0  0  0  0  0  0
    3.8819   15.4929   40.5092 C   0  0  0  0  0  0  0  0  0  0  0  0
    4.5094   15.4590   41.6987 N   0  0  0  0  0  0  0  0  0  0  0  0
  7  8  1  0  0  0
  7 12  1  0  0  0
  7 18  1  0  0  0
  8  9  1  0  0  0
  9 10  1  0  0  0
  9 17  2  0  0  0
 10 11  1  0  0  0
 10  1  1  0  0  0
 11  7  1  0  0  0
 11 16  2  0  0  0
 12 13  1  0  0  0
 12 19  1  0  0  0
 13 14  2  0  0  0
 15 14  1  0  0  0
 15  8  1  0  0  0
 15 19  1  0  0  0
  1  2  2  0  0  0
  2  3  1  0  0  0
  3  4  2  0  0  0
  4  5  1  0  0  0
  4 20  1  0  0  0
  5  6  2  0  0  0
  6  1  1  0  0  0
 20 21  2  0  0  0
 20 22  1  0  0  0
 22 24  1  0  0  0
 24 25  2  0  0  0
 25 26  1  0  0  0
 26 27  2  0  0  0
 27 28  1  0  0  0
 28 29  2  0  0  0
 28 30  1  0  0  0
 29 24  1  0  0  0
 30 31  2  0  0  0
 31 32  1  0  0  0
 32 33  2  0  0  0
 33 29  2  0  0  0
 22 23  1  0  0  0
M  END
> <minimizedAffinity>
-11.17470

$$$$
IWR-1(endo-IWR 1).cdx


 33 38  0  0  0  0  0  0  0  0999 V2000
    6.2545   19.1894   47.7773 C   0  0  0  0  0  0  0  0  0  0  0  0
    6.2724   19.2865   46.3990 C   0  0  0  0  0  0  0  0  0  0  0  0
    5.9850   18.2274   45.5630 C   0  0  0  0  0  0  0  0  0  0  0  0
    5.6627   17.0078   46.0694 C   0  0  0  0  0  0  0  0  0  0  0  0
    5.6326   16.8651   47.4436 C   0  0  0  0  0  0  0  0  0  0  0  0
    5.9240   17.9396   48.2896 C   0  0  0  0  0  0  0  0  0  0  0  0
    6.4537   22.5114   49.4381 C   0  0  0  0  0  0  0  0  0  0  0  0
    6.4216   21.5612   50.6205 C   0  0  0  0  0  0  0  0  0  0  0  0
    6.7286   20.2389   50.0569 C   0  0  0  0  0  0  0  0  0  0  0  0
    6.5465   20.2664   48.6462 N   0  0  0  0  0  0  0  0  0  0  0  0
    6.7172   21.6219   48.2517 C   0  0  0  0  0  0  0  0  0  0  0  0
    5.0961   23.1387   49.4020 C   0  0  0  0  0  0  0  0  0  0  0  0
    4.1294   22.0544   49.0639 C   0  0  0  0  0  0  0  0  0  0  0  0
    4.0859   21.2156   50.1045 C   0  0  0  0  0  0  0  0  0  0  0  0
    5.0247   21.7198   51.1218 C   0  0  0  0  0  0  0  0  0  0  0  0
    7.0308   22.1033   47.1373 O   0  0  0  0  0  0  0  0  0  0  0  0
    7.0942   19.2533   50.7442 O   0  0  0  0  0  0  0  0  0  0  0  0
    7.5806   23.5077   49.5500 C   0  0  0  0  0  0  0  0  0  0  0  0
    4.8197   23.2271   50.9131 C   0  0  0  0  0  0  0  0  0  0  0  0
    5.3459   15.8376   45.2644 C   0  0  0  0  0  0  0  0  0  0  0  0
    4.3232   15.1075   45.4975 O   0  0  0  0  0  0  0  0  0  0  0  0
    6.1518   15.4326   44.1697 N   0  0  0  0  0  0  0  0  0  0  0  0
    7.0084   15.9650   43.9010 H   0  0  0  0  0  0  0  0  0  0  0  0
    5.8543   14.2845   43.3680 C   0  0  0  0  0  0  0  0  0  0  0  0
    6.3272   13.0329   43.7350 C   0  0  0  0  0  0  0  0  0  0  0  0
    6.0303   11.9343   42.9488 C   0  0  0  0  0  0  0  0  0  0  0  0
    5.2776   12.0651   41.8155 C   0  0  0  0  0  0  0  0  0  0  0  0
    4.8015   13.3179   41.4441 C   0  0  0  0  0  0  0  0  0  0  0  0
    5.0881   14.4374   42.2202 C   0  0  0  0  0  0  0  0  0  0  0  0
    4.0447   13.3973   40.2891 C   0  0  0  0  0  0  0  0  0  0  0  0
    3.5706   14.6438   39.9189 C   0  0  0  0  0  0  0  0  0  0  0  0
    3.8703   15.7551   40.7132 C   0  0  0  0  0  0  0  0  0  0  0  0
    4.6107   15.6332   41.8298 N   0  0  0  0  0  0  0  0  0  0  0  0
  7  8  1  0  0  0
  7 12  1  0  0  0
  7 18  1  0  0  0
  8  9  1  0  0  0
  9 10  1  0  0  0
  9 17  2  0  0  0
 10 11  1  0  0  0
 10  1  1  0  0  0
 11  7  1  0  0  0
 11 16  2  0  0  0
 12 13  1  0  0  0
 12 19  1  0  0  0
 13 14  2  0  0  0
 15 14  1  0  0  0
 15  8  1  0  0  0
 15 19  1  0  0  0
  1  2  2  0  0  0
  2  3  1  0  0  0
  3  4  2  0  0  0
  4  5  1  0  0  0
  4 20  1  0  0  0
  5  6  2  0  0  0
  6  1  1  0  0  0
 20 21  2  0  0  0
 20 22  1  0  0  0
 22 24  1  0  0  0
 24 25  2  0  0  0
 25 26  1  0  0  0
 26 27  2  0  0  0
 27 28  1  0  0  0
 28 29  2  0  0  0
 28 30  1  0  0  0
 29 24  1  0  0  0
 30 31  2  0  0  0
 31 32  1  0  0  0
 32 33  2  0  0  0
 33 29  2  0  0  0
 22 23  1  0  0  0
M  END
> <minimizedAffinity>
-10.31777

$$$$
IWR-1(endo-IWR 1).cdx


 33 38  0  0  0  0  0  0  0  0999 V2000
    5.5813   15.5452   44.5687 C   0  0  0  0  0  0  0  0  0  0  0  0
    4.4688   15.2686   45.3404 C   0  0  0  0  0  0  0  0  0  0  0  0
    4.1145   16.0099   46.4485 C   0  0  0  0  0  0  0  0  0  0  0  0
    4.8624   17.0743   46.8428 C   0  0  0  0  0  0  0  0  0  0  0  0
    5.9847   17.3874   46.0997 C   0  0  0  0  0  0  0  0  0  0  0  0
    6.3424   16.6350   44.9767 C   0  0  0  0  0  0  0  0  0  0  0  0
    5.6377   13.2760   41.6223 C   0  0  0  0  0  0  0  0  0  0  0  0
    6.5286   14.4170   41.1677 C   0  0  0  0  0  0  0  0  0  0  0  0
    6.8635   15.1530   42.3951 C   0  0  0  0  0  0  0  0  0  0  0  0
    5.9563   14.7942   43.4305 N   0  0  0  0  0  0  0  0  0  0  0  0
    5.4759   13.4963   43.1033 C   0  0  0  0  0  0  0  0  0  0  0  0
    4.3585   13.4522   40.8670 C   0  0  0  0  0  0  0  0  0  0  0  0
    3.7367   14.7145   41.3613 C   0  0  0  0  0  0  0  0  0  0  0  0
    4.5095   15.7285   40.9574 C   0  0  0  0  0  0  0  0  0  0  0  0
    5.6458   15.1539   40.2162 C   0  0  0  0  0  0  0  0  0  0  0  0
    4.9837   12.6098   43.8408 O   0  0  0  0  0  0  0  0  0  0  0  0
    7.8141   15.9690   42.4839 O   0  0  0  0  0  0  0  0  0  0  0  0
    6.2913   11.9340   41.4058 C   0  0  0  0  0  0  0  0  0  0  0  0
    4.9228   13.9820   39.5371 C   0  0  0  0  0  0  0  0  0  0  0  0
    4.5643   17.9105   47.9960 C   0  0  0  0  0  0  0  0  0  0  0  0
    3.4108   18.4286   48.1810 O   0  0  0  0  0  0  0  0  0  0  0  0
    5.5346   18.2035   48.9882 N   0  0  0  0  0  0  0  0  0  0  0  0
    6.5057   17.8260   48.9249 H   0  0  0  0  0  0  0  0  0  0  0  0
    5.2577   19.0238   50.1282 C   0  0  0  0  0  0  0  0  0  0  0  0
    4.7123   18.4666   51.2758 C   0  0  0  0  0  0  0  0  0  0  0  0
    4.4512   19.2739   52.3681 C   0  0  0  0  0  0  0  0  0  0  0  0
    4.7229   20.6129   52.3322 C   0  0  0  0  0  0  0  0  0  0  0  0
    5.2696   21.1755   51.1839 C   0  0  0  0  0  0  0  0  0  0  0  0
    5.5406   20.3821   50.0727 C   0  0  0  0  0  0  0  0  0  0  0  0
    5.5261   22.5345   51.1979 C   0  0  0  0  0  0  0  0  0  0  0  0
    6.0702   23.0951   50.0554 C   0  0  0  0  0  0  0  0  0  0  0  0
    6.3346   22.2796   48.9505 C   0  0  0  0  0  0  0  0  0  0  0  0
    6.0695   20.9610   48.9794 N   0  0  0  0  0  0  0  0  0  0  0  0
  7  8  1  0  0  0
  7 12  1  0  0  0
  7 18  1  0  0  0
  8  9  1  0  0  0
  9 10  1  0  0  0
  9 17  2  0  0  0
 10 11  1  0  0  0
 10  1  1  0  0  0
 11  7  1  0  0  0
 11 16  2  0  0  0
 12 13  1  0  0  0
 12 19  1  0  0  0
 13 14  2  0  0  0
 15 14  1  0  0  0
 15  8  1  0  0  0
 15 19  1  0  0  0
  1  2  2  0  0  0
  2  3  1  0  0  0
  3  4  2  0  0  0
  4  5  1  0  0  0
  4 20  1  0  0  0
  5  6  2  0  0  0
  6  1  1  0  0  0
 20 21  2  0  0  0
 20 22  1  0  0  0
 22 24  1  0  0  0
 24 25  2  0  0  0
 25 26  1  0  0  0
 26 27  2  0  0  0
 27 28  1  0  0  0
 28 29  2  0  0  0
 28 30  1  0  0  0
 29 24  1  0  0  0
 30 31  2  0  0  0
 31 32  1  0  0  0
 32 33  2  0  0  0
 33 29  2  0  0  0
 22 23  1  0  0  0
M  END
> <minimizedAffinity>
-8.95296

$$$$
IWR-1(endo-IWR 1).cdx


 33 38  0  0  0  0  0  0  0  0999 V2000
    5.7968   19.4463   47.8040 C   0  0  0  0  0  0  0  0  0  0  0  0
    5.1798   18.2665   48.1741 C   0  0  0  0  0  0  0  0  0  0  0  0
    4.8452   17.2745   47.2757 C   0  0  0  0  0  0  0  0  0  0  0  0
    5.1140   17.4152   45.9507 C   0  0  0  0  0  0  0  0  0  0  0  0
    5.7308   18.5801   45.5356 C   0  0  0  0  0  0  0  0  0  0  0  0
    6.0693   19.5846   46.4475 C   0  0  0  0  0  0  0  0  0  0  0  0
    5.7606   22.1055   50.4042 C   0  0  0  0  0  0  0  0  0  0  0  0
    7.0872   21.4170   50.6654 C   0  0  0  0  0  0  0  0  0  0  0  0
    7.3485   20.6198   49.4586 C   0  0  0  0  0  0  0  0  0  0  0  0
    6.1455   20.4714   48.7139 N   0  0  0  0  0  0  0  0  0  0  0  0
    5.3257   21.5801   49.0615 C   0  0  0  0  0  0  0  0  0  0  0  0
    4.8638   21.6643   51.5174 C   0  0  0  0  0  0  0  0  0  0  0  0
    4.6391   20.2012   51.3353 C   0  0  0  0  0  0  0  0  0  0  0  0
    5.8010   19.5832   51.5730 C   0  0  0  0  0  0  0  0  0  0  0  0
    6.7984   20.6191   51.8933 C   0  0  0  0  0  0  0  0  0  0  0  0
    4.3788   22.1102   48.4335 O   0  0  0  0  0  0  0  0  0  0  0  0
    8.4756   20.1540   49.1585 O   0  0  0  0  0  0  0  0  0  0  0  0
    5.9158   23.6026   50.3060 C   0  0  0  0  0  0  0  0  0  0  0  0
    5.8941   21.5961   52.6582 C   0  0  0  0  0  0  0  0  0  0  0  0
    4.7971   16.4228   44.9345 C   0  0  0  0  0  0  0  0  0  0  0  0
    4.2666   15.2969   45.2248 O   0  0  0  0  0  0  0  0  0  0  0  0
    5.0567   16.6416   43.5574 N   0  0  0  0  0  0  0  0  0  0  0  0
    5.4883   17.5307   43.2217 H   0  0  0  0  0  0  0  0  0  0  0  0
    4.7511   15.6761   42.5456 C   0  0  0  0  0  0  0  0  0  0  0  0
    3.8465   15.9799   41.5384 C   0  0  0  0  0  0  0  0  0  0  0  0
    3.5630   15.0351   40.5688 C   0  0  0  0  0  0  0  0  0  0  0  0
    4.1617   13.8066   40.5895 C   0  0  0  0  0  0  0  0  0  0  0  0
    5.0692   13.4981   41.5971 C   0  0  0  0  0  0  0  0  0  0  0  0
    5.3695   14.4335   42.5833 C   0  0  0  0  0  0  0  0  0  0  0  0
    5.6476   12.2420   41.5737 C   0  0  0  0  0  0  0  0  0  0  0  0
    6.5507   11.9343   42.5763 C   0  0  0  0  0  0  0  0  0  0  0  0
    6.8380   12.8889   43.5571 C   0  0  0  0  0  0  0  0  0  0  0  0
    6.2522   14.0998   43.5425 N   0  0  0  0  0  0  0  0  0  0  0  0
  7  8  1  0  0  0
  7 12  1  0  0  0
  7 18  1  0  0  0
  8  9  1  0  0  0
  9 10  1  0  0  0
  9 17  2  0  0  0
 10 11  1  0  0  0
 10  1  1  0  0  0
 11  7  1  0  0  0
 11 16  2  0  0  0
 12 13  1  0  0  0
 12 19  1  0  0  0
 13 14  2  0  0  0
 15 14  1  0  0  0
 15  8  1  0  0  0
 15 19  1  0  0  0
  1  2  2  0  0  0
  2  3  1  0  0  0
  3  4  2  0  0  0
  4  5  1  0  0  0
  4 20  1  0  0  0
  5  6  2  0  0  0
  6  1  1  0  0  0
 20 21  2  0  0  0
 20 22  1  0  0  0
 22 24  1  0  0  0
 24 25  2  0  0  0
 25 26  1  0  0  0
 26 27  2  0  0  0
 27 28  1  0  0  0
 28 29  2  0  0  0
 28 30  1  0  0  0
 29 24  1  0  0  0
 30 31  2  0  0  0
 31 32  1  0  0  0
 32 33  2  0  0  0
 33 29  2  0  0  0
 22 23  1  0  0  0
M  END
> <minimizedAffinity>
-8.61117

$$$$
