BI 01383298


 27 29  0  0  0  0  0  0  0  0999 V2000
    4.0908   18.7775   47.1619 N   0  0  0  0  0  0  0  0  0  0  0  0
    4.1064   17.4885   47.8118 C   0  0  0  0  0  0  0  0  0  0  0  0
    5.2773   19.0433   46.4014 C   0  0  0  0  0  0  0  0  0  0  0  0
    4.1049   16.3882   46.7751 C   0  0  0  0  0  0  0  0  0  0  0  0
    5.9746   17.7327   46.0127 C   0  0  0  0  0  0  0  0  0  0  0  0
    4.8883   16.7940   45.5437 C   0  0  0  0  0  0  0  0  0  0  0  0
    5.4420   15.6132   44.8351 C   0  0  0  0  0  0  0  0  0  0  0  0
    6.4073   15.8237   43.8252 N   0  0  0  0  0  0  0  0  0  0  0  0
    5.0180   14.4888   45.1762 O   0  0  0  0  0  0  0  0  0  0  0  0
    6.6919   16.8191   43.6252 H   0  0  0  0  0  0  0  0  0  0  0  0
    7.0246   14.7625   43.0528 C   0  0  0  0  0  0  0  0  0  0  0  0
    3.2609   12.3547   39.6046 F   0  0  0  0  0  0  0  0  0  0  0  0
    6.0177   14.2066   42.1162 C   0  0  0  0  0  0  0  0  0  0  0  0
    5.8491   12.8316   42.1203 C   0  0  0  0  0  0  0  0  0  0  0  0
    5.2544   14.9646   41.2624 C   0  0  0  0  0  0  0  0  0  0  0  0
    4.9390   12.2203   41.2915 C   0  0  0  0  0  0  0  0  0  0  0  0
    4.3320   14.3426   40.4223 C   0  0  0  0  0  0  0  0  0  0  0  0
    4.1646   12.9739   40.4267 C   0  0  0  0  0  0  0  0  0  0  0  0
    3.5193   20.0337   48.1308 S   0  0  0  0  0  0  0  0  0  0  0  0
    3.2395   21.2469   47.2938 O   0  0  0  0  0  0  0  0  0  0  0  0
    2.1673   19.5977   48.6745 O   0  0  0  0  0  0  0  0  0  0  0  0
    4.5518   20.4812   49.4460 C   0  0  0  0  0  0  0  0  0  0  0  0
    4.4028   19.7996   50.6520 C   0  0  0  0  0  0  0  0  0  0  0  0
    5.4881   21.4879   49.2837 C   0  0  0  0  0  0  0  0  0  0  0  0
    5.2160   20.1445   51.7109 C   0  0  0  0  0  0  0  0  0  0  0  0
    6.2887   21.8236   50.3352 C   0  0  0  0  0  0  0  0  0  0  0  0
    6.1580   21.1565   51.5505 C   0  0  0  0  0  0  0  0  0  0  0  0
 19 20  2  0  0  0
 19 21  2  0  0  0
 19 22  1  0  0  0
 19  1  1  0  0  0
  7  8  1  0  0  0
  7  9  2  0  0  0
  7  6  1  0  0  0
  8 11  1  0  0  0
 11 13  1  0  0  0
 12 18  1  0  0  0
 22 23  2  0  0  0
 22 24  1  0  0  0
 23 25  1  0  0  0
 24 26  2  0  0  0
 25 27  2  0  0  0
 26 27  1  0  0  0
  1  2  1  0  0  0
  1  3  1  0  0  0
  2  4  1  0  0  0
  3  5  1  0  0  0
  4  6  1  0  0  0
  5  6  1  0  0  0
 13 14  2  0  0  0
 13 15  1  0  0  0
 14 16  1  0  0  0
 15 17  2  0  0  0
 16 18  2  0  0  0
 17 18  1  0  0  0
  8 10  1  0  0  0
M  END
> <minimizedAffinity>
-9.37693

$$$$
BI 01383298


 27 29  0  0  0  0  0  0  0  0999 V2000
    6.2324   20.9758   50.1418 N   0  0  0  0  0  0  0  0  0  0  0  0
    5.1766   20.2582   50.8159 C   0  0  0  0  0  0  0  0  0  0  0  0
    7.0088   20.1493   49.2638 C   0  0  0  0  0  0  0  0  0  0  0  0
    4.1583   19.7731   49.8092 C   0  0  0  0  0  0  0  0  0  0  0  0
    6.2079   18.9112   48.8388 C   0  0  0  0  0  0  0  0  0  0  0  0
    4.8189   19.3974   48.4988 C   0  0  0  0  0  0  0  0  0  0  0  0
    4.0349   18.3717   47.7664 C   0  0  0  0  0  0  0  0  0  0  0  0
    4.7151   17.2505   47.2410 N   0  0  0  0  0  0  0  0  0  0  0  0
    2.8052   18.5610   47.6555 O   0  0  0  0  0  0  0  0  0  0  0  0
    5.7561   17.1956   47.3997 H   0  0  0  0  0  0  0  0  0  0  0  0
    4.0738   16.1797   46.5020 C   0  0  0  0  0  0  0  0  0  0  0  0
    7.5047   14.0447   42.5620 F   0  0  0  0  0  0  0  0  0  0  0  0
    5.0079   15.6960   45.4562 C   0  0  0  0  0  0  0  0  0  0  0  0
    4.9723   14.3431   45.1607 C   0  0  0  0  0  0  0  0  0  0  0  0
    5.8884   16.4997   44.7743 C   0  0  0  0  0  0  0  0  0  0  0  0
    5.7963   13.7980   44.2052 C   0  0  0  0  0  0  0  0  0  0  0  0
    6.7235   15.9448   43.8057 C   0  0  0  0  0  0  0  0  0  0  0  0
    6.6878   14.5980   43.5119 C   0  0  0  0  0  0  0  0  0  0  0  0
    7.0901   22.0365   51.1331 S   0  0  0  0  0  0  0  0  0  0  0  0
    7.0963   21.5335   52.5465 O   0  0  0  0  0  0  0  0  0  0  0  0
    8.5422   21.9923   50.6825 O   0  0  0  0  0  0  0  0  0  0  0  0
    6.5325   23.6751   51.1195 C   0  0  0  0  0  0  0  0  0  0  0  0
    5.2241   23.9212   51.5306 C   0  0  0  0  0  0  0  0  0  0  0  0
    7.3755   24.6933   50.7083 C   0  0  0  0  0  0  0  0  0  0  0  0
    4.7629   25.2207   51.5244 C   0  0  0  0  0  0  0  0  0  0  0  0
    6.9125   25.9758   50.7047 C   0  0  0  0  0  0  0  0  0  0  0  0
    5.6084   26.2463   51.1111 C   0  0  0  0  0  0  0  0  0  0  0  0
 19 20  2  0  0  0
 19 21  2  0  0  0
 19 22  1  0  0  0
 19  1  1  0  0  0
  7  8  1  0  0  0
  7  9  2  0  0  0
  7  6  1  0  0  0
  8 11  1  0  0  0
 11 13  1  0  0  0
 12 18  1  0  0  0
 22 23  2  0  0  0
 22 24  1  0  0  0
 23 25  1  0  0  0
 24 26  2  0  0  0
 25 27  2  0  0  0
 26 27  1  0  0  0
  1  2  1  0  0  0
  1  3  1  0  0  0
  2  4  1  0  0  0
  3  5  1  0  0  0
  4  6  1  0  0  0
  5  6  1  0  0  0
 13 14  2  0  0  0
 13 15  1  0  0  0
 14 16  1  0  0  0
 15 17  2  0  0  0
 16 18  2  0  0  0
 17 18  1  0  0  0
  8 10  1  0  0  0
M  END
> <minimizedAffinity>
-9.12063

$$$$
BI 01383298


 27 29  0  0  0  0  0  0  0  0999 V2000
    5.9482   15.4405   44.4796 N   0  0  0  0  0  0  0  0  0  0  0  0
    4.5375   15.2048   44.6763 C   0  0  0  0  0  0  0  0  0  0  0  0
    6.3044   16.8284   44.5370 C   0  0  0  0  0  0  0  0  0  0  0  0
    4.1383   15.6054   46.0783 C   0  0  0  0  0  0  0  0  0  0  0  0
    5.2556   17.6232   45.3264 C   0  0  0  0  0  0  0  0  0  0  0  0
    4.9339   16.8036   46.5536 C   0  0  0  0  0  0  0  0  0  0  0  0
    4.1852   17.5896   47.5660 C   0  0  0  0  0  0  0  0  0  0  0  0
    4.3007   18.9975   47.5479 N   0  0  0  0  0  0  0  0  0  0  0  0
    3.4883   16.9538   48.3849 O   0  0  0  0  0  0  0  0  0  0  0  0
    4.9167   19.4248   46.8063 H   0  0  0  0  0  0  0  0  0  0  0  0
    3.6296   19.8832   48.4800 C   0  0  0  0  0  0  0  0  0  0  0  0
    6.7362   20.0640   53.1885 F   0  0  0  0  0  0  0  0  0  0  0  0
    4.3833   19.8906   49.7576 C   0  0  0  0  0  0  0  0  0  0  0  0
    5.6489   20.4535   49.7358 C   0  0  0  0  0  0  0  0  0  0  0  0
    3.9049   19.3827   50.9405 C   0  0  0  0  0  0  0  0  0  0  0  0
    6.4255   20.5109   50.8683 C   0  0  0  0  0  0  0  0  0  0  0  0
    4.6943   19.4417   52.0880 C   0  0  0  0  0  0  0  0  0  0  0  0
    5.9541   20.0021   52.0659 C   0  0  0  0  0  0  0  0  0  0  0  0
    6.6327   14.5374   43.2309 S   0  0  0  0  0  0  0  0  0  0  0  0
    7.7851   15.2826   42.6246 O   0  0  0  0  0  0  0  0  0  0  0  0
    7.2424   13.2948   43.8616 O   0  0  0  0  0  0  0  0  0  0  0  0
    5.5399   14.0678   41.9733 C   0  0  0  0  0  0  0  0  0  0  0  0
    5.2816   12.7085   41.8089 C   0  0  0  0  0  0  0  0  0  0  0  0
    4.9532   15.0283   41.1672 C   0  0  0  0  0  0  0  0  0  0  0  0
    4.4147   12.3166   40.8107 C   0  0  0  0  0  0  0  0  0  0  0  0
    4.0971   14.6332   40.1822 C   0  0  0  0  0  0  0  0  0  0  0  0
    3.8237   13.2802   39.9986 C   0  0  0  0  0  0  0  0  0  0  0  0
 19 20  2  0  0  0
 19 21  2  0  0  0
 19 22  1  0  0  0
 19  1  1  0  0  0
  7  8  1  0  0  0
  7  9  2  0  0  0
  7  6  1  0  0  0
  8 11  1  0  0  0
 11 13  1  0  0  0
 12 18  1  0  0  0
 22 23  2  0  0  0
 22 24  1  0  0  0
 23 25  1  0  0  0
 24 26  2  0  0  0
 25 27  2  0  0  0
 26 27  1  0  0  0
  1  2  1  0  0  0
  1  3  1  0  0  0
  2  4  1  0  0  0
  3  5  1  0  0  0
  4  6  1  0  0  0
  5  6  1  0  0  0
 13 14  2  0  0  0
 13 15  1  0  0  0
 14 16  1  0  0  0
 15 17  2  0  0  0
 16 18  2  0  0  0
 17 18  1  0  0  0
  8 10  1  0  0  0
M  END
> <minimizedAffinity>
-8.93322

$$$$
BI 01383298


 27 29  0  0  0  0  0  0  0  0999 V2000
    5.8964   15.5391   44.6423 N   0  0  0  0  0  0  0  0  0  0  0  0
    4.4903   15.2753   44.8357 C   0  0  0  0  0  0  0  0  0  0  0  0
    6.2167   16.9369   44.6463 C   0  0  0  0  0  0  0  0  0  0  0  0
    4.0670   15.7218   46.2167 C   0  0  0  0  0  0  0  0  0  0  0  0
    5.1402   17.7356   45.3933 C   0  0  0  0  0  0  0  0  0  0  0  0
    4.8272   16.9583   46.6500 C   0  0  0  0  0  0  0  0  0  0  0  0
    4.0487   17.7650   47.6228 C   0  0  0  0  0  0  0  0  0  0  0  0
    3.9392   19.1574   47.4103 N   0  0  0  0  0  0  0  0  0  0  0  0
    3.5294   17.1596   48.5841 O   0  0  0  0  0  0  0  0  0  0  0  0
    4.4180   19.5582   46.5606 H   0  0  0  0  0  0  0  0  0  0  0  0
    3.2148   20.0614   48.2832 C   0  0  0  0  0  0  0  0  0  0  0  0
    6.4235   24.3832   49.9801 F   0  0  0  0  0  0  0  0  0  0  0  0
    4.1247   21.1582   48.6946 C   0  0  0  0  0  0  0  0  0  0  0  0
    3.5531   22.2319   49.3576 C   0  0  0  0  0  0  0  0  0  0  0  0
    5.4782   21.1682   48.4622 C   0  0  0  0  0  0  0  0  0  0  0  0
    4.3118   23.2963   49.7821 C   0  0  0  0  0  0  0  0  0  0  0  0
    6.2461   22.2490   48.8934 C   0  0  0  0  0  0  0  0  0  0  0  0
    5.6766   23.3175   49.5533 C   0  0  0  0  0  0  0  0  0  0  0  0
    6.6161   14.6042   43.4374 S   0  0  0  0  0  0  0  0  0  0  0  0
    7.8072   15.3184   42.8701 O   0  0  0  0  0  0  0  0  0  0  0  0
    7.1745   13.3605   44.1119 O   0  0  0  0  0  0  0  0  0  0  0  0
    5.5689   14.1354   42.1413 C   0  0  0  0  0  0  0  0  0  0  0  0
    5.0386   15.1413   41.3361 C   0  0  0  0  0  0  0  0  0  0  0  0
    5.2796   12.7982   41.9298 C   0  0  0  0  0  0  0  0  0  0  0  0
    4.2011   14.7858   40.3000 C   0  0  0  0  0  0  0  0  0  0  0  0
    4.4506   12.4542   40.9034 C   0  0  0  0  0  0  0  0  0  0  0  0
    3.9083   13.4420   40.0854 C   0  0  0  0  0  0  0  0  0  0  0  0
 19 20  2  0  0  0
 19 21  2  0  0  0
 19 22  1  0  0  0
 19  1  1  0  0  0
  7  8  1  0  0  0
  7  9  2  0  0  0
  7  6  1  0  0  0
  8 11  1  0  0  0
 11 13  1  0  0  0
 12 18  1  0  0  0
 22 23  2  0  0  0
 22 24  1  0  0  0
 23 25  1  0  0  0
 24 26  2  0  0  0
 25 27  2  0  0  0
 26 27  1  0  0  0
  1  2  1  0  0  0
  1  3  1  0  0  0
  2  4  1  0  0  0
  3  5  1  0  0  0
  4  6  1  0  0  0
  5  6  1  0  0  0
 13 14  2  0  0  0
 13 15  1  0  0  0
 14 16  1  0  0  0
 15 17  2  0  0  0
 16 18  2  0  0  0
 17 18  1  0  0  0
  8 10  1  0  0  0
M  END
> <minimizedAffinity>
-8.83662

$$$$
BI 01383298


 27 29  0  0  0  0  0  0  0  0999 V2000
    6.3918   20.8812   50.0160 N   0  0  0  0  0  0  0  0  0  0  0  0
    6.3193   21.4021   48.6715 C   0  0  0  0  0  0  0  0  0  0  0  0
    5.1783   20.2488   50.4451 C   0  0  0  0  0  0  0  0  0  0  0  0
    6.1554   20.2669   47.6867 C   0  0  0  0  0  0  0  0  0  0  0  0
    4.3501   19.7928   49.2364 C   0  0  0  0  0  0  0  0  0  0  0  0
    5.3193   19.1483   48.2737 C   0  0  0  0  0  0  0  0  0  0  0  0
    4.6209   18.3758   47.2161 C   0  0  0  0  0  0  0  0  0  0  0  0
    4.6050   16.9662   47.3093 N   0  0  0  0  0  0  0  0  0  0  0  0
    4.0815   19.0236   46.2943 O   0  0  0  0  0  0  0  0  0  0  0  0
    5.0921   16.5285   48.1357 H   0  0  0  0  0  0  0  0  0  0  0  0
    3.9653   16.0920   46.3446 C   0  0  0  0  0  0  0  0  0  0  0  0
    7.7303   14.0536   42.6673 F   0  0  0  0  0  0  0  0  0  0  0  0
    4.9829   15.6353   45.3668 C   0  0  0  0  0  0  0  0  0  0  0  0
    5.0471   14.2740   45.1181 C   0  0  0  0  0  0  0  0  0  0  0  0
    5.8477   16.4709   44.7035 C   0  0  0  0  0  0  0  0  0  0  0  0
    5.9538   13.7519   44.2269 C   0  0  0  0  0  0  0  0  0  0  0  0
    6.7669   15.9393   43.8002 C   0  0  0  0  0  0  0  0  0  0  0  0
    6.8304   14.5842   43.5529 C   0  0  0  0  0  0  0  0  0  0  0  0
    7.1331   21.9178   51.1203 S   0  0  0  0  0  0  0  0  0  0  0  0
    7.0655   21.3367   52.5017 O   0  0  0  0  0  0  0  0  0  0  0  0
    8.6129   21.9572   50.7708 O   0  0  0  0  0  0  0  0  0  0  0  0
    6.5065   23.5310   51.1552 C   0  0  0  0  0  0  0  0  0  0  0  0
    7.3422   24.5635   50.7347 C   0  0  0  0  0  0  0  0  0  0  0  0
    5.2140   23.7658   51.5919 C   0  0  0  0  0  0  0  0  0  0  0  0
    6.8598   25.8551   50.7576 C   0  0  0  0  0  0  0  0  0  0  0  0
    4.7438   25.0455   51.6119 C   0  0  0  0  0  0  0  0  0  0  0  0
    5.5607   26.0939   51.1965 C   0  0  0  0  0  0  0  0  0  0  0  0
 19 20  2  0  0  0
 19 21  2  0  0  0
 19 22  1  0  0  0
 19  1  1  0  0  0
  7  8  1  0  0  0
  7  9  2  0  0  0
  7  6  1  0  0  0
  8 11  1  0  0  0
 11 13  1  0  0  0
 12 18  1  0  0  0
 22 23  2  0  0  0
 22 24  1  0  0  0
 23 25  1  0  0  0
 24 26  2  0  0  0
 25 27  2  0  0  0
 26 27  1  0  0  0
  1  2  1  0  0  0
  1  3  1  0  0  0
  2  4  1  0  0  0
  3  5  1  0  0  0
  4  6  1  0  0  0
  5  6  1  0  0  0
 13 14  2  0  0  0
 13 15  1  0  0  0
 14 16  1  0  0  0
 15 17  2  0  0  0
 16 18  2  0  0  0
 17 18  1  0  0  0
  8 10  1  0  0  0
M  END
> <minimizedAffinity>
-8.74263

$$$$
