3-Pyridineacetic acid


 11 11  0  0  0  0  0  0  0  0999 V2000
    4.2588   24.1539   50.8264 C   0  0  0  0  0  0  0  0  0  0  0  0
    4.8454   23.7536   51.9910 C   0  0  0  0  0  0  0  0  0  0  0  0
    4.2390   23.2196   49.7494 C   0  0  0  0  0  0  0  0  0  0  0  0
    5.4012   22.4960   52.1449 C   0  0  0  0  0  0  0  0  0  0  0  0
    4.7793   21.9929   49.8820 N   0  0  0  0  0  0  0  0  0  0  0  0
    5.3382   21.6452   51.0367 C   0  0  0  0  0  0  0  0  0  0  0  0
    3.5922   25.4472   50.6269 C   0  0  0  0  0  0  0  0  0  0  0  0
    4.0660   26.4810   51.5846 C   0  0  0  0  0  0  0  0  0  0  0  0
    5.3809   26.9308   51.3519 O   0  0  0  0  0  0  0  0  0  0  0  0
    3.3614   26.9340   52.5399 O   0  0  0  0  0  0  0  0  0  0  0  0
    5.9190   27.4321   52.0732 H   0  0  0  0  0  0  0  0  0  0  0  0
  7  8  1  0  0  0
  7  1  1  0  0  0
  8  9  1  0  0  0
  8 10  2  0  0  0
  1  2  2  0  0  0
  1  3  1  0  0  0
  2  4  1  0  0  0
  3  5  2  0  0  0
  4  6  2  0  0  0
  5  6  2  0  0  0
  9 11  1  0  0  0
M  END
> <minimizedAffinity>
-5.17148

$$$$
3-Pyridineacetic acid


 11 11  0  0  0  0  0  0  0  0999 V2000
    4.9255   18.6594   48.1672 C   0  0  0  0  0  0  0  0  0  0  0  0
    5.3240   17.3750   47.9383 C   0  0  0  0  0  0  0  0  0  0  0  0
    4.7037   19.4879   47.0281 C   0  0  0  0  0  0  0  0  0  0  0  0
    5.5078   16.8741   46.6617 C   0  0  0  0  0  0  0  0  0  0  0  0
    4.8820   19.0164   45.7790 N   0  0  0  0  0  0  0  0  0  0  0  0
    5.2687   17.7569   45.6038 C   0  0  0  0  0  0  0  0  0  0  0  0
    4.6472   19.2251   49.4935 C   0  0  0  0  0  0  0  0  0  0  0  0
    3.3051   18.8384   50.0027 C   0  0  0  0  0  0  0  0  0  0  0  0
    3.3214   17.8031   50.9584 O   0  0  0  0  0  0  0  0  0  0  0  0
    2.2219   19.3819   49.6212 O   0  0  0  0  0  0  0  0  0  0  0  0
    2.4740   17.2659   51.1917 H   0  0  0  0  0  0  0  0  0  0  0  0
  7  8  1  0  0  0
  7  1  1  0  0  0
  8  9  1  0  0  0
  8 10  2  0  0  0
  1  2  2  0  0  0
  1  3  1  0  0  0
  2  4  1  0  0  0
  3  5  2  0  0  0
  4  6  2  0  0  0
  5  6  2  0  0  0
  9 11  1  0  0  0
M  END
> <minimizedAffinity>
-5.02700

$$$$
3-Pyridineacetic acid


 11 11  0  0  0  0  0  0  0  0999 V2000
    5.5644   18.5516   48.1396 C   0  0  0  0  0  0  0  0  0  0  0  0
    5.8802   19.1478   46.9540 C   0  0  0  0  0  0  0  0  0  0  0  0
    6.3370   18.9165   49.2812 C   0  0  0  0  0  0  0  0  0  0  0  0
    6.9014   20.0745   46.8412 C   0  0  0  0  0  0  0  0  0  0  0  0
    7.3370   19.8140   49.1870 N   0  0  0  0  0  0  0  0  0  0  0  0
    7.6074   20.3717   48.0112 C   0  0  0  0  0  0  0  0  0  0  0  0
    4.4494   17.6159   48.3345 C   0  0  0  0  0  0  0  0  0  0  0  0
    3.4031   18.1636   49.2376 C   0  0  0  0  0  0  0  0  0  0  0  0
    3.3927   17.5963   50.5273 O   0  0  0  0  0  0  0  0  0  0  0  0
    2.5774   19.0664   48.8952 O   0  0  0  0  0  0  0  0  0  0  0  0
    2.5783   17.6832   51.1522 H   0  0  0  0  0  0  0  0  0  0  0  0
  7  8  1  0  0  0
  7  1  1  0  0  0
  8  9  1  0  0  0
  8 10  2  0  0  0
  1  2  2  0  0  0
  1  3  1  0  0  0
  2  4  1  0  0  0
  3  5  2  0  0  0
  4  6  2  0  0  0
  5  6  2  0  0  0
  9 11  1  0  0  0
M  END
> <minimizedAffinity>
-5.00972

$$$$
3-Pyridineacetic acid


 11 11  0  0  0  0  0  0  0  0999 V2000
    4.2935   18.8700   50.4216 C   0  0  0  0  0  0  0  0  0  0  0  0
    5.0919   18.2851   49.4829 C   0  0  0  0  0  0  0  0  0  0  0  0
    3.0049   19.3121   50.0002 C   0  0  0  0  0  0  0  0  0  0  0  0
    4.6873   18.1135   48.1710 C   0  0  0  0  0  0  0  0  0  0  0  0
    2.5978   19.1559   48.7258 N   0  0  0  0  0  0  0  0  0  0  0  0
    3.4088   18.5778   47.8457 C   0  0  0  0  0  0  0  0  0  0  0  0
    4.6401   19.0159   51.8412 C   0  0  0  0  0  0  0  0  0  0  0  0
    5.6353   20.0960   52.0720 C   0  0  0  0  0  0  0  0  0  0  0  0
    6.7182   19.7237   52.8930 O   0  0  0  0  0  0  0  0  0  0  0  0
    5.5364   21.2636   51.5808 O   0  0  0  0  0  0  0  0  0  0  0  0
    7.3243   20.4244   53.3433 H   0  0  0  0  0  0  0  0  0  0  0  0
  7  8  1  0  0  0
  7  1  1  0  0  0
  8  9  1  0  0  0
  8 10  2  0  0  0
  1  2  2  0  0  0
  1  3  1  0  0  0
  2  4  1  0  0  0
  3  5  2  0  0  0
  4  6  2  0  0  0
  5  6  2  0  0  0
  9 11  1  0  0  0
M  END
> <minimizedAffinity>
-4.95346

$$$$
3-Pyridineacetic acid


 11 11  0  0  0  0  0  0  0  0999 V2000
    4.9802   18.3972   49.3151 C   0  0  0  0  0  0  0  0  0  0  0  0
    4.4584   18.4081   50.5754 C   0  0  0  0  0  0  0  0  0  0  0  0
    6.3191   18.8619   49.1578 C   0  0  0  0  0  0  0  0  0  0  0  0
    5.1816   18.8439   51.6715 C   0  0  0  0  0  0  0  0  0  0  0  0
    7.0349   19.2931   50.2142 N   0  0  0  0  0  0  0  0  0  0  0  0
    6.4861   19.2833   51.4247 C   0  0  0  0  0  0  0  0  0  0  0  0
    4.2872   17.8821   48.1273 C   0  0  0  0  0  0  0  0  0  0  0  0
    3.7039   18.9691   47.2974 C   0  0  0  0  0  0  0  0  0  0  0  0
    2.4298   19.4011   47.7163 O   0  0  0  0  0  0  0  0  0  0  0  0
    4.2876   19.4790   46.2907 O   0  0  0  0  0  0  0  0  0  0  0  0
    1.8093   19.9425   47.0974 H   0  0  0  0  0  0  0  0  0  0  0  0
  7  8  1  0  0  0
  7  1  1  0  0  0
  8  9  1  0  0  0
  8 10  2  0  0  0
  1  2  2  0  0  0
  1  3  1  0  0  0
  2  4  1  0  0  0
  3  5  2  0  0  0
  4  6  2  0  0  0
  5  6  2  0  0  0
  9 11  1  0  0  0
M  END
> <minimizedAffinity>
-4.95154

$$$$
