Aconine


 40 45  0  0  0  0  0  0  0  0999 V2000
    3.3536   17.9018   48.4169 O   0  0  0  0  0  0  0  0  0  0  0  0
    4.6008   24.1497   49.0731 O   0  0  0  0  0  0  0  0  0  0  0  0
    4.8376   23.4509   52.7363 O   0  0  0  0  0  0  0  0  0  0  0  0
    7.8893   23.6078   53.3285 O   0  0  0  0  0  0  0  0  0  0  0  0
    6.9272   25.6441   48.7752 O   0  0  0  0  0  0  0  0  0  0  0  0
    5.9393   20.3033   49.3766 C   0  0  0  0  0  0  0  0  0  0  0  0
    6.4348   20.0358   47.9104 C   0  0  0  0  0  0  0  0  0  0  0  0
    4.8975   21.3133   48.7647 C   0  0  0  0  0  0  0  0  0  0  0  0
    6.6093   21.1662   50.6186 C   0  0  0  0  0  0  0  0  0  0  0  0
    5.3830   19.0455   50.1594 C   0  0  0  0  0  0  0  0  0  0  0  0
    5.3736   18.9808   47.2276 C   0  0  0  0  0  0  0  0  0  0  0  0
    6.3157   21.4725   47.0830 C   0  0  0  0  0  0  0  0  0  0  0  0
    6.1101   22.4888   48.1659 C   0  0  0  0  0  0  0  0  0  0  0  0
    3.8310   20.9091   47.7752 N   0  0  0  0  0  0  0  0  0  0  0  0
    5.8061   22.4740   50.6438 C   0  0  0  0  0  0  0  0  0  0  0  0
    8.0276   21.8995   51.2796 C   0  0  0  0  0  0  0  0  0  0  0  0
    5.4630   17.7307   49.4151 C   0  0  0  0  0  0  0  0  0  0  0  0
    4.1799   19.8607   46.7613 C   0  0  0  0  0  0  0  0  0  0  0  0
    4.7477   17.8340   48.1136 C   0  0  0  0  0  0  0  0  0  0  0  0
    5.7956   23.4290   49.3561 C   0  0  0  0  0  0  0  0  0  0  0  0
    5.9112   22.7918   52.1378 C   0  0  0  0  0  0  0  0  0  0  0  0
    7.3444   23.3687   52.0475 C   0  0  0  0  0  0  0  0  0  0  0  0
    7.0065   24.5080   49.6240 C   0  0  0  0  0  0  0  0  0  0  0  0
    7.1061   24.7969   51.1740 C   0  0  0  0  0  0  0  0  0  0  0  0
    2.8196   17.9763   47.6140 H   0  0  0  0  0  0  0  0  0  0  0  0
    4.8633   24.7721   48.3690 H   0  0  0  0  0  0  0  0  0  0  0  0
    4.8920   24.3932   52.4630 H   0  0  0  0  0  0  0  0  0  0  0  0
    7.2170   24.1263   53.8116 H   0  0  0  0  0  0  0  0  0  0  0  0
    7.8086   25.7681   48.3748 H   0  0  0  0  0  0  0  0  0  0  0  0
    7.0875   21.8023   45.9452 O   0  0  0  0  0  0  0  0  0  0  0  0
    8.4656   21.9814   45.9113 C   0  0  0  0  0  0  0  0  0  0  0  0
    2.5070   20.7740   48.4103 C   0  0  0  0  0  0  0  0  0  0  0  0
    2.2157   21.7652   49.5556 C   0  0  0  0  0  0  0  0  0  0  0  0
    4.1309   19.4144   50.7410 O   0  0  0  0  0  0  0  0  0  0  0  0
    3.9428   19.1214   52.1156 C   0  0  0  0  0  0  0  0  0  0  0  0
    5.9175   25.4117   51.7659 O   0  0  0  0  0  0  0  0  0  0  0  0
    5.3388   26.6143   51.2677 C   0  0  0  0  0  0  0  0  0  0  0  0
    6.2654   18.2866   46.1477 C   0  0  0  0  0  0  0  0  0  0  0  0
    5.9011   16.9555   45.7913 O   0  0  0  0  0  0  0  0  0  0  0  0
    5.1661   16.8562   44.5928 C   0  0  0  0  0  0  0  0  0  0  0  0
 34 35  1  0  0  0
 38 39  1  0  0  0
 39 40  1  0  0  0
 30 31  1  0  0  0
 32 33  1  0  0  0
 32 14  1  0  0  0
  1 25  1  0  0  0
  2 26  1  0  0  0
  3 27  1  0  0  0
  4 28  1  0  0  0
  5 29  1  0  0  0
 36 37  1  0  0  0
  6  7  1  0  0  0
  6  8  1  0  0  0
  6  9  1  0  0  0
  6 10  1  0  0  0
  7 11  1  0  0  0
  7 12  1  0  0  0
  8 13  1  0  0  0
  8 14  1  0  0  0
  9 16  1  0  0  0
 10 34  1  0  0  0
 10 17  1  0  0  0
 11 38  1  0  0  0
 11 18  1  0  0  0
 11 19  1  0  0  0
 12 30  1  0  0  0
 13 12  1  0  0  0
 13 20  1  0  0  0
 14 18  1  0  0  0
 15  9  1  0  0  0
 15 20  1  0  0  0
 15 21  1  0  0  0
 17 19  1  0  0  0
 19  1  1  0  0  0
 20  2  1  0  0  0
 20 23  1  0  0  0
 21  3  1  0  0  0
 21 22  1  0  0  0
 22  4  1  0  0  0
 22 16  1  0  0  0
 22 24  1  0  0  0
 23  5  1  0  0  0
 23 24  1  0  0  0
 24 36  1  0  0  0
M  END
> <minimizedAffinity>
-7.29624

$$$$
Aconine


 40 45  0  0  0  0  0  0  0  0999 V2000
    8.7928   23.5284   51.8900 O   0  0  0  0  0  0  0  0  0  0  0  0
    5.6539   21.1108   46.8576 O   0  0  0  0  0  0  0  0  0  0  0  0
    5.9008   17.8222   48.6148 O   0  0  0  0  0  0  0  0  0  0  0  0
    3.0072   17.3062   49.6391 O   0  0  0  0  0  0  0  0  0  0  0  0
    2.9566   21.0310   46.1853 O   0  0  0  0  0  0  0  0  0  0  0  0
    5.6440   21.9893   50.8459 C   0  0  0  0  0  0  0  0  0  0  0  0
    5.1630   23.4843   50.8281 C   0  0  0  0  0  0  0  0  0  0  0  0
    6.2630   22.2455   49.4208 C   0  0  0  0  0  0  0  0  0  0  0  0
    4.8176   20.5707   50.6435 C   0  0  0  0  0  0  0  0  0  0  0  0
    6.6256   21.5920   52.0218 C   0  0  0  0  0  0  0  0  0  0  0  0
    6.4582   24.4124   51.2362 C   0  0  0  0  0  0  0  0  0  0  0  0
    4.7589   23.8506   49.2579 C   0  0  0  0  0  0  0  0  0  0  0  0
    4.6999   22.5116   48.5860 C   0  0  0  0  0  0  0  0  0  0  0  0
    7.3337   23.2759   49.1531 N   0  0  0  0  0  0  0  0  0  0  0  0
    5.1585   20.1384   49.2107 C   0  0  0  0  0  0  0  0  0  0  0  0
    3.2869   19.7688   50.6354 C   0  0  0  0  0  0  0  0  0  0  0  0
    6.9219   22.6909   53.0188 C   0  0  0  0  0  0  0  0  0  0  0  0
    7.2722   24.5628   49.9205 C   0  0  0  0  0  0  0  0  0  0  0  0
    7.4770   23.8820   52.3190 C   0  0  0  0  0  0  0  0  0  0  0  0
    4.7754   21.0890   47.9778 C   0  0  0  0  0  0  0  0  0  0  0  0
    5.0577   18.6209   49.3871 C   0  0  0  0  0  0  0  0  0  0  0  0
    3.5125   18.5833   49.3093 C   0  0  0  0  0  0  0  0  0  0  0  0
    3.3032   20.5550   47.4778 C   0  0  0  0  0  0  0  0  0  0  0  0
    3.2207   18.9923   47.6946 C   0  0  0  0  0  0  0  0  0  0  0  0
    9.2193   24.2571   51.4184 H   0  0  0  0  0  0  0  0  0  0  0  0
    5.1588   21.6096   46.1808 H   0  0  0  0  0  0  0  0  0  0  0  0
    5.5286   17.8091   47.7054 H   0  0  0  0  0  0  0  0  0  0  0  0
    3.5084   16.6716   49.0912 H   0  0  0  0  0  0  0  0  0  0  0  0
    2.0571   21.4050   46.2464 H   0  0  0  0  0  0  0  0  0  0  0  0
    3.8475   24.8655   48.8864 O   0  0  0  0  0  0  0  0  0  0  0  0
    4.1544   26.2022   48.6596 C   0  0  0  0  0  0  0  0  0  0  0  0
    8.6706   22.6670   49.0249 C   0  0  0  0  0  0  0  0  0  0  0  0
    8.7432   21.4047   48.1415 C   0  0  0  0  0  0  0  0  0  0  0  0
    7.7294   20.8889   51.4477 O   0  0  0  0  0  0  0  0  0  0  0  0
    7.6398   19.4748   51.3930 C   0  0  0  0  0  0  0  0  0  0  0  0
    4.1862   18.2093   46.9227 O   0  0  0  0  0  0  0  0  0  0  0  0
    3.8688   16.9509   46.3353 C   0  0  0  0  0  0  0  0  0  0  0  0
    5.7658   25.6758   51.8429 C   0  0  0  0  0  0  0  0  0  0  0  0
    4.3775   25.5512   52.1403 O   0  0  0  0  0  0  0  0  0  0  0  0
    3.6553   26.7586   52.0557 C   0  0  0  0  0  0  0  0  0  0  0  0
 34 35  1  0  0  0
 38 39  1  0  0  0
 39 40  1  0  0  0
 30 31  1  0  0  0
 32 33  1  0  0  0
 32 14  1  0  0  0
  1 25  1  0  0  0
  2 26  1  0  0  0
  3 27  1  0  0  0
  4 28  1  0  0  0
  5 29  1  0  0  0
 36 37  1  0  0  0
  6  7  1  0  0  0
  6  8  1  0  0  0
  6  9  1  0  0  0
  6 10  1  0  0  0
  7 11  1  0  0  0
  7 12  1  0  0  0
  8 13  1  0  0  0
  8 14  1  0  0  0
  9 16  1  0  0  0
 10 34  1  0  0  0
 10 17  1  0  0  0
 11 38  1  0  0  0
 11 18  1  0  0  0
 11 19  1  0  0  0
 12 30  1  0  0  0
 13 12  1  0  0  0
 13 20  1  0  0  0
 14 18  1  0  0  0
 15  9  1  0  0  0
 15 20  1  0  0  0
 15 21  1  0  0  0
 17 19  1  0  0  0
 19  1  1  0  0  0
 20  2  1  0  0  0
 20 23  1  0  0  0
 21  3  1  0  0  0
 21 22  1  0  0  0
 22  4  1  0  0  0
 22 16  1  0  0  0
 22 24  1  0  0  0
 23  5  1  0  0  0
 23 24  1  0  0  0
 24 36  1  0  0  0
M  END
> <minimizedAffinity>
-6.79001

$$$$
Aconine


 40 45  0  0  0  0  0  0  0  0999 V2000
    6.3737   23.9693   53.2085 O   0  0  0  0  0  0  0  0  0  0  0  0
    7.2350   19.1885   49.0343 O   0  0  0  0  0  0  0  0  0  0  0  0
    3.6244   18.4019   49.5894 O   0  0  0  0  0  0  0  0  0  0  0  0
    2.2427   19.3581   46.9694 O   0  0  0  0  0  0  0  0  0  0  0  0
    7.2655   19.1019   46.2548 O   0  0  0  0  0  0  0  0  0  0  0  0
    5.4473   22.7608   49.8836 C   0  0  0  0  0  0  0  0  0  0  0  0
    6.5611   23.7737   49.4361 C   0  0  0  0  0  0  0  0  0  0  0  0
    6.6025   21.7359   50.1915 C   0  0  0  0  0  0  0  0  0  0  0  0
    4.3722   21.8583   49.0083 C   0  0  0  0  0  0  0  0  0  0  0  0
    4.5290   23.2281   51.0846 C   0  0  0  0  0  0  0  0  0  0  0  0
    7.1843   24.4406   50.8043 C   0  0  0  0  0  0  0  0  0  0  0  0
    7.7687   22.8875   48.7155 C   0  0  0  0  0  0  0  0  0  0  0  0
    7.1382   21.5457   48.4921 C   0  0  0  0  0  0  0  0  0  0  0  0
    7.6965   21.9953   51.1993 N   0  0  0  0  0  0  0  0  0  0  0  0
    4.9645   20.4424   49.0308 C   0  0  0  0  0  0  0  0  0  0  0  0
    3.5712   21.6148   47.4966 C   0  0  0  0  0  0  0  0  0  0  0  0
    4.8004   24.6228   51.6043 C   0  0  0  0  0  0  0  0  0  0  0  0
    8.2132   23.3976   51.3242 C   0  0  0  0  0  0  0  0  0  0  0  0
    6.2247   24.7470   52.0197 C   0  0  0  0  0  0  0  0  0  0  0  0
    6.4194   20.1759   48.4123 C   0  0  0  0  0  0  0  0  0  0  0  0
    3.6652   19.6371   48.9430 C   0  0  0  0  0  0  0  0  0  0  0  0
    3.4988   19.8250   47.4159 C   0  0  0  0  0  0  0  0  0  0  0  0
    6.1377   19.7189   46.8586 C   0  0  0  0  0  0  0  0  0  0  0  0
    4.7805   18.9125   46.7963 C   0  0  0  0  0  0  0  0  0  0  0  0
    7.2824   23.9972   53.5383 H   0  0  0  0  0  0  0  0  0  0  0  0
    7.9818   19.0776   48.4161 H   0  0  0  0  0  0  0  0  0  0  0  0
    4.1325   17.7710   49.0332 H   0  0  0  0  0  0  0  0  0  0  0  0
    2.1493   18.4560   47.3321 H   0  0  0  0  0  0  0  0  0  0  0  0
    7.4100   19.5413   45.3953 H   0  0  0  0  0  0  0  0  0  0  0  0
    8.6771   23.4057   47.7640 O   0  0  0  0  0  0  0  0  0  0  0  0
    9.3955   22.6698   46.8287 C   0  0  0  0  0  0  0  0  0  0  0  0
    7.4637   21.2806   52.4679 C   0  0  0  0  0  0  0  0  0  0  0  0
    6.6768   19.9592   52.3507 C   0  0  0  0  0  0  0  0  0  0  0  0
    4.4710   22.1575   52.0295 O   0  0  0  0  0  0  0  0  0  0  0  0
    4.0808   22.4815   53.3536 C   0  0  0  0  0  0  0  0  0  0  0  0
    4.7664   17.6661   47.5628 O   0  0  0  0  0  0  0  0  0  0  0  0
    4.6255   16.3855   46.9551 C   0  0  0  0  0  0  0  0  0  0  0  0
    7.7064   25.8169   50.2783 C   0  0  0  0  0  0  0  0  0  0  0  0
    6.9757   26.3974   49.2010 O   0  0  0  0  0  0  0  0  0  0  0  0
    7.7810   26.9331   48.1758 C   0  0  0  0  0  0  0  0  0  0  0  0
 34 35  1  0  0  0
 38 39  1  0  0  0
 39 40  1  0  0  0
 30 31  1  0  0  0
 32 33  1  0  0  0
 32 14  1  0  0  0
  1 25  1  0  0  0
  2 26  1  0  0  0
  3 27  1  0  0  0
  4 28  1  0  0  0
  5 29  1  0  0  0
 36 37  1  0  0  0
  6  7  1  0  0  0
  6  8  1  0  0  0
  6  9  1  0  0  0
  6 10  1  0  0  0
  7 11  1  0  0  0
  7 12  1  0  0  0
  8 13  1  0  0  0
  8 14  1  0  0  0
  9 16  1  0  0  0
 10 34  1  0  0  0
 10 17  1  0  0  0
 11 38  1  0  0  0
 11 18  1  0  0  0
 11 19  1  0  0  0
 12 30  1  0  0  0
 13 12  1  0  0  0
 13 20  1  0  0  0
 14 18  1  0  0  0
 15  9  1  0  0  0
 15 20  1  0  0  0
 15 21  1  0  0  0
 17 19  1  0  0  0
 19  1  1  0  0  0
 20  2  1  0  0  0
 20 23  1  0  0  0
 21  3  1  0  0  0
 21 22  1  0  0  0
 22  4  1  0  0  0
 22 16  1  0  0  0
 22 24  1  0  0  0
 23  5  1  0  0  0
 23 24  1  0  0  0
 24 36  1  0  0  0
M  END
> <minimizedAffinity>
-5.93942

$$$$
Aconine


 40 45  0  0  0  0  0  0  0  0999 V2000
    7.4164   24.6017   51.4623 O   0  0  0  0  0  0  0  0  0  0  0  0
    5.8386   18.5442   50.1060 O   0  0  0  0  0  0  0  0  0  0  0  0
    2.3296   19.7970   49.8222 O   0  0  0  0  0  0  0  0  0  0  0  0
    1.7757   19.7727   46.7594 O   0  0  0  0  0  0  0  0  0  0  0  0
    5.9475   17.0528   47.7613 O   0  0  0  0  0  0  0  0  0  0  0  0
    6.1490   22.4092   48.8240 C   0  0  0  0  0  0  0  0  0  0  0  0
    7.6476   22.4563   48.3561 C   0  0  0  0  0  0  0  0  0  0  0  0
    6.5809   21.3040   49.8592 C   0  0  0  0  0  0  0  0  0  0  0  0
    4.8023   21.7549   48.1207 C   0  0  0  0  0  0  0  0  0  0  0  0
    5.5571   23.7643   49.3875 C   0  0  0  0  0  0  0  0  0  0  0  0
    8.4638   23.3806   49.4445 C   0  0  0  0  0  0  0  0  0  0  0  0
    8.2442   20.9087   48.4655 C   0  0  0  0  0  0  0  0  0  0  0  0
    7.0155   20.0670   48.6377 C   0  0  0  0  0  0  0  0  0  0  0  0
    7.6009   21.5383   50.9476 N   0  0  0  0  0  0  0  0  0  0  0  0
    4.5637   20.4558   48.9026 C   0  0  0  0  0  0  0  0  0  0  0  0
    4.0631   21.1499   46.6807 C   0  0  0  0  0  0  0  0  0  0  0  0
    6.4943   24.9511   49.3402 C   0  0  0  0  0  0  0  0  0  0  0  0
    8.7689   22.4242   50.6314 C   0  0  0  0  0  0  0  0  0  0  0  0
    7.7518   24.6409   50.0744 C   0  0  0  0  0  0  0  0  0  0  0  0
    5.6905   19.3154   48.9184 C   0  0  0  0  0  0  0  0  0  0  0  0
    3.0408   20.3711   48.7688 C   0  0  0  0  0  0  0  0  0  0  0  0
    3.0681   19.8062   47.3282 C   0  0  0  0  0  0  0  0  0  0  0  0
    5.2833   18.3060   47.6865 C   0  0  0  0  0  0  0  0  0  0  0  0
    3.7093   18.2584   47.5577 C   0  0  0  0  0  0  0  0  0  0  0  0
    8.1888   24.3985   52.0076 H   0  0  0  0  0  0  0  0  0  0  0  0
    6.4443   17.8252   49.8448 H   0  0  0  0  0  0  0  0  0  0  0  0
    2.4570   18.8248   49.7572 H   0  0  0  0  0  0  0  0  0  0  0  0
    1.2072   19.3251   47.4155 H   0  0  0  0  0  0  0  0  0  0  0  0
    6.3401   16.8808   46.8844 H   0  0  0  0  0  0  0  0  0  0  0  0
    9.3321   20.4194   47.7068 O   0  0  0  0  0  0  0  0  0  0  0  0
    9.3455   20.2057   46.3332 C   0  0  0  0  0  0  0  0  0  0  0  0
    6.9700   21.7512   52.2633 C   0  0  0  0  0  0  0  0  0  0  0  0
    5.8201   20.7844   52.6124 C   0  0  0  0  0  0  0  0  0  0  0  0
    4.9035   23.4720   50.6243 O   0  0  0  0  0  0  0  0  0  0  0  0
    4.0416   24.4660   51.1532 C   0  0  0  0  0  0  0  0  0  0  0  0
    3.0093   17.7255   48.7269 O   0  0  0  0  0  0  0  0  0  0  0  0
    3.6370   16.8788   49.6852 C   0  0  0  0  0  0  0  0  0  0  0  0
    9.6529   23.9137   48.5811 C   0  0  0  0  0  0  0  0  0  0  0  0
    9.5581   23.6953   47.1759 O   0  0  0  0  0  0  0  0  0  0  0  0
   10.7491   23.2356   46.5785 C   0  0  0  0  0  0  0  0  0  0  0  0
 34 35  1  0  0  0
 38 39  1  0  0  0
 39 40  1  0  0  0
 30 31  1  0  0  0
 32 33  1  0  0  0
 32 14  1  0  0  0
  1 25  1  0  0  0
  2 26  1  0  0  0
  3 27  1  0  0  0
  4 28  1  0  0  0
  5 29  1  0  0  0
 36 37  1  0  0  0
  6  7  1  0  0  0
  6  8  1  0  0  0
  6  9  1  0  0  0
  6 10  1  0  0  0
  7 11  1  0  0  0
  7 12  1  0  0  0
  8 13  1  0  0  0
  8 14  1  0  0  0
  9 16  1  0  0  0
 10 34  1  0  0  0
 10 17  1  0  0  0
 11 38  1  0  0  0
 11 18  1  0  0  0
 11 19  1  0  0  0
 12 30  1  0  0  0
 13 12  1  0  0  0
 13 20  1  0  0  0
 14 18  1  0  0  0
 15  9  1  0  0  0
 15 20  1  0  0  0
 15 21  1  0  0  0
 17 19  1  0  0  0
 19  1  1  0  0  0
 20  2  1  0  0  0
 20 23  1  0  0  0
 21  3  1  0  0  0
 21 22  1  0  0  0
 22  4  1  0  0  0
 22 16  1  0  0  0
 22 24  1  0  0  0
 23  5  1  0  0  0
 23 24  1  0  0  0
 24 36  1  0  0  0
M  END
> <minimizedAffinity>
-4.35150

$$$$
Aconine


 40 45  0  0  0  0  0  0  0  0999 V2000
    5.2856   18.7942   46.9430 O   0  0  0  0  0  0  0  0  0  0  0  0
    7.7066   23.6811   50.3014 O   0  0  0  0  0  0  0  0  0  0  0  0
    5.6386   25.8789   48.0976 O   0  0  0  0  0  0  0  0  0  0  0  0
    3.3177   26.8162   49.9477 O   0  0  0  0  0  0  0  0  0  0  0  0
    7.0309   24.7901   52.7606 O   0  0  0  0  0  0  0  0  0  0  0  0
    4.4299   21.4612   49.2943 C   0  0  0  0  0  0  0  0  0  0  0  0
    4.5251   20.2875   50.3336 C   0  0  0  0  0  0  0  0  0  0  0  0
    5.9987   21.5690   49.3790 C   0  0  0  0  0  0  0  0  0  0  0  0
    3.9392   23.0324   49.4587 C   0  0  0  0  0  0  0  0  0  0  0  0
    3.7848   21.0969   47.8960 C   0  0  0  0  0  0  0  0  0  0  0  0
    4.9548   18.9374   49.4982 C   0  0  0  0  0  0  0  0  0  0  0  0
    5.7707   20.6521   51.3720 C   0  0  0  0  0  0  0  0  0  0  0  0
    6.0550   22.0970   51.0904 C   0  0  0  0  0  0  0  0  0  0  0  0
    6.9302   20.4396   49.0096 N   0  0  0  0  0  0  0  0  0  0  0  0
    5.2481   23.8336   49.4888 C   0  0  0  0  0  0  0  0  0  0  0  0
    3.0806   24.1953   50.4055 C   0  0  0  0  0  0  0  0  0  0  0  0
    3.2802   19.6766   47.7646 C   0  0  0  0  0  0  0  0  0  0  0  0
    6.4974   19.0416   49.3370 C   0  0  0  0  0  0  0  0  0  0  0  0
    4.3804   18.7136   48.0450 C   0  0  0  0  0  0  0  0  0  0  0  0
    6.3293   23.5530   50.6388 C   0  0  0  0  0  0  0  0  0  0  0  0
    4.7437   25.1411   48.8721 C   0  0  0  0  0  0  0  0  0  0  0  0
    4.0925   25.6578   50.1775 C   0  0  0  0  0  0  0  0  0  0  0  0
    5.9769   24.6401   51.8204 C   0  0  0  0  0  0  0  0  0  0  0  0
    5.4368   25.9676   51.1554 C   0  0  0  0  0  0  0  0  0  0  0  0
    6.0363   18.1952   47.0568 H   0  0  0  0  0  0  0  0  0  0  0  0
    8.1645   23.6313   51.1615 H   0  0  0  0  0  0  0  0  0  0  0  0
    6.2512   26.3298   48.7198 H   0  0  0  0  0  0  0  0  0  0  0  0
    3.8943   27.4283   49.4508 H   0  0  0  0  0  0  0  0  0  0  0  0
    6.6395   24.7023   53.6504 H   0  0  0  0  0  0  0  0  0  0  0  0
    5.8769   20.1580   52.6924 O   0  0  0  0  0  0  0  0  0  0  0  0
    4.8203   19.8528   53.5427 C   0  0  0  0  0  0  0  0  0  0  0  0
    7.5336   20.6306   47.6777 C   0  0  0  0  0  0  0  0  0  0  0  0
    8.1766   22.0109   47.4319 C   0  0  0  0  0  0  0  0  0  0  0  0
    4.6475   21.6015   46.8745 O   0  0  0  0  0  0  0  0  0  0  0  0
    4.8292   20.7953   45.7223 C   0  0  0  0  0  0  0  0  0  0  0  0
    6.3909   26.6553   50.2849 O   0  0  0  0  0  0  0  0  0  0  0  0
    7.7326   26.9335   50.6744 C   0  0  0  0  0  0  0  0  0  0  0  0
    4.3660   17.8044   50.3999 C   0  0  0  0  0  0  0  0  0  0  0  0
    3.4538   18.2171   51.4144 O   0  0  0  0  0  0  0  0  0  0  0  0
    2.2123   18.6734   50.9276 C   0  0  0  0  0  0  0  0  0  0  0  0
 34 35  1  0  0  0
 38 39  1  0  0  0
 39 40  1  0  0  0
 30 31  1  0  0  0
 32 33  1  0  0  0
 32 14  1  0  0  0
  1 25  1  0  0  0
  2 26  1  0  0  0
  3 27  1  0  0  0
  4 28  1  0  0  0
  5 29  1  0  0  0
 36 37  1  0  0  0
  6  7  1  0  0  0
  6  8  1  0  0  0
  6  9  1  0  0  0
  6 10  1  0  0  0
  7 11  1  0  0  0
  7 12  1  0  0  0
  8 13  1  0  0  0
  8 14  1  0  0  0
  9 16  1  0  0  0
 10 34  1  0  0  0
 10 17  1  0  0  0
 11 38  1  0  0  0
 11 18  1  0  0  0
 11 19  1  0  0  0
 12 30  1  0  0  0
 13 12  1  0  0  0
 13 20  1  0  0  0
 14 18  1  0  0  0
 15  9  1  0  0  0
 15 20  1  0  0  0
 15 21  1  0  0  0
 17 19  1  0  0  0
 19  1  1  0  0  0
 20  2  1  0  0  0
 20 23  1  0  0  0
 21  3  1  0  0  0
 21 22  1  0  0  0
 22  4  1  0  0  0
 22 16  1  0  0  0
 22 24  1  0  0  0
 23  5  1  0  0  0
 23 24  1  0  0  0
 24 36  1  0  0  0
M  END
> <minimizedAffinity>
-4.04765

$$$$
