Apararenone


 26 28  0  0  0  0  0  0  0  0999 V2000
    5.9185   18.4390   48.0460 O   0  0  0  0  0  0  0  0  0  0  0  0
    3.3677   20.4787   47.8782 C   0  0  0  0  0  0  0  0  0  0  0  0
    3.4030   18.4138   49.2632 C   0  0  0  0  0  0  0  0  0  0  0  0
    6.3288   20.6794   48.5705 N   0  0  0  0  0  0  0  0  0  0  0  0
    5.9732   21.7381   49.4659 C   0  0  0  0  0  0  0  0  0  0  0  0
    5.5634   19.5053   48.5497 C   0  0  0  0  0  0  0  0  0  0  0  0
    4.8440   21.5918   50.2868 C   0  0  0  0  0  0  0  0  0  0  0  0
    6.7571   22.8930   49.6318 C   0  0  0  0  0  0  0  0  0  0  0  0
    4.1137   19.7505   49.0183 C   0  0  0  0  0  0  0  0  0  0  0  0
    4.4928   22.5769   51.2211 C   0  0  0  0  0  0  0  0  0  0  0  0
    4.0020   20.5090   50.2239 O   0  0  0  0  0  0  0  0  0  0  0  0
    6.3842   23.8985   50.5303 C   0  0  0  0  0  0  0  0  0  0  0  0
    5.2402   23.7496   51.3054 C   0  0  0  0  0  0  0  0  0  0  0  0
   10.2862   21.5673   44.7756 F   0  0  0  0  0  0  0  0  0  0  0  0
    7.3242   20.8814   47.5748 C   0  0  0  0  0  0  0  0  0  0  0  0
    8.6645   20.5489   47.8495 C   0  0  0  0  0  0  0  0  0  0  0  0
    7.0166   21.5023   46.3578 C   0  0  0  0  0  0  0  0  0  0  0  0
    9.6639   20.7784   46.9046 C   0  0  0  0  0  0  0  0  0  0  0  0
    8.0175   21.7247   45.4077 C   0  0  0  0  0  0  0  0  0  0  0  0
    9.3284   21.3548   45.6876 C   0  0  0  0  0  0  0  0  0  0  0  0
    4.8384   24.8251   52.1524 N   0  0  0  0  0  0  0  0  0  0  0  0
    5.5956   25.2595   52.6829 H   0  0  0  0  0  0  0  0  0  0  0  0
    3.8755   26.0498   51.5011 S   0  0  0  0  0  0  0  0  0  0  0  0
    5.0372   26.9262   50.4703 C   0  0  0  0  0  0  0  0  0  0  0  0
    2.9423   25.3754   50.6243 O   0  0  0  0  0  0  0  0  0  0  0  0
    3.4132   26.9268   52.5538 O   0  0  0  0  0  0  0  0  0  0  0  0
  1  6  2  0  0  0
  2  9  1  0  0  0
  3  9  1  0  0  0
 21 23  1  0  0  0
 21 13  1  0  0  0
 21 22  1  0  0  0
 23 24  1  0  0  0
 23 25  2  0  0  0
 23 26  2  0  0  0
 14 20  1  0  0  0
  4  5  1  0  0  0
  4  6  1  0  0  0
  4 15  1  0  0  0
  5  7  2  0  0  0
  5  8  1  0  0  0
  6  9  1  0  0  0
  7 10  1  0  0  0
  7 11  1  0  0  0
  8 12  2  0  0  0
  9 11  1  0  0  0
 10 13  2  0  0  0
 12 13  1  0  0  0
 15 16  2  0  0  0
 15 17  1  0  0  0
 16 18  1  0  0  0
 17 19  2  0  0  0
 18 20  2  0  0  0
 19 20  1  0  0  0
M  END
> <minimizedAffinity>
-8.98229

$$$$
Apararenone


 26 28  0  0  0  0  0  0  0  0999 V2000
    8.1470   20.9988   46.1786 O   0  0  0  0  0  0  0  0  0  0  0  0
    9.0845   21.4693   49.2762 C   0  0  0  0  0  0  0  0  0  0  0  0
    9.7614   22.9348   47.3849 C   0  0  0  0  0  0  0  0  0  0  0  0
    6.4484   21.1895   47.7727 N   0  0  0  0  0  0  0  0  0  0  0  0
    5.8800   22.0636   48.7534 C   0  0  0  0  0  0  0  0  0  0  0  0
    7.6924   21.5011   47.2071 C   0  0  0  0  0  0  0  0  0  0  0  0
    6.5951   23.2035   49.1530 C   0  0  0  0  0  0  0  0  0  0  0  0
    4.5880   21.8852   49.2775 C   0  0  0  0  0  0  0  0  0  0  0  0
    8.5520   22.3756   48.1441 C   0  0  0  0  0  0  0  0  0  0  0  0
    6.0516   24.1190   50.0657 C   0  0  0  0  0  0  0  0  0  0  0  0
    7.8622   23.4918   48.7094 O   0  0  0  0  0  0  0  0  0  0  0  0
    4.0611   22.7719   50.2228 C   0  0  0  0  0  0  0  0  0  0  0  0
    4.8031   23.8732   50.6331 C   0  0  0  0  0  0  0  0  0  0  0  0
    4.2926   16.1790   46.7249 F   0  0  0  0  0  0  0  0  0  0  0  0
    5.8606   19.9212   47.5105 C   0  0  0  0  0  0  0  0  0  0  0  0
    6.1706   18.8235   48.3359 C   0  0  0  0  0  0  0  0  0  0  0  0
    5.0564   19.7141   46.3828 C   0  0  0  0  0  0  0  0  0  0  0  0
    5.6403   17.5612   48.0724 C   0  0  0  0  0  0  0  0  0  0  0  0
    4.5184   18.4502   46.1236 C   0  0  0  0  0  0  0  0  0  0  0  0
    4.8099   17.3893   46.9738 C   0  0  0  0  0  0  0  0  0  0  0  0
    4.2763   24.7145   51.6579 N   0  0  0  0  0  0  0  0  0  0  0  0
    4.7007   24.5869   52.5783 H   0  0  0  0  0  0  0  0  0  0  0  0
    4.1487   26.3711   51.3568 S   0  0  0  0  0  0  0  0  0  0  0  0
    3.2208   26.4008   49.8342 C   0  0  0  0  0  0  0  0  0  0  0  0
    3.2853   26.8828   52.3995 O   0  0  0  0  0  0  0  0  0  0  0  0
    5.4610   26.9338   51.1286 O   0  0  0  0  0  0  0  0  0  0  0  0
  1  6  2  0  0  0
  2  9  1  0  0  0
  3  9  1  0  0  0
 21 23  1  0  0  0
 21 13  1  0  0  0
 21 22  1  0  0  0
 23 24  1  0  0  0
 23 25  2  0  0  0
 23 26  2  0  0  0
 14 20  1  0  0  0
  4  5  1  0  0  0
  4  6  1  0  0  0
  4 15  1  0  0  0
  5  7  2  0  0  0
  5  8  1  0  0  0
  6  9  1  0  0  0
  7 10  1  0  0  0
  7 11  1  0  0  0
  8 12  2  0  0  0
  9 11  1  0  0  0
 10 13  2  0  0  0
 12 13  1  0  0  0
 15 16  2  0  0  0
 15 17  1  0  0  0
 16 18  1  0  0  0
 17 19  2  0  0  0
 18 20  2  0  0  0
 19 20  1  0  0  0
M  END
> <minimizedAffinity>
-8.82058

$$$$
Apararenone


 26 28  0  0  0  0  0  0  0  0999 V2000
    4.3285   21.2547   48.6434 O   0  0  0  0  0  0  0  0  0  0  0  0
    4.8534   18.3244   49.9973 C   0  0  0  0  0  0  0  0  0  0  0  0
    2.6092   19.3756   49.7935 C   0  0  0  0  0  0  0  0  0  0  0  0
    5.4385   19.6735   47.3279 N   0  0  0  0  0  0  0  0  0  0  0  0
    5.3138   18.3792   46.7292 C   0  0  0  0  0  0  0  0  0  0  0  0
    4.4929   20.0912   48.2744 C   0  0  0  0  0  0  0  0  0  0  0  0
    4.2610   17.5392   47.1246 C   0  0  0  0  0  0  0  0  0  0  0  0
    6.1485   17.9360   45.6887 C   0  0  0  0  0  0  0  0  0  0  0  0
    3.8283   18.8990   48.9945 C   0  0  0  0  0  0  0  0  0  0  0  0
    4.0649   16.2879   46.5225 C   0  0  0  0  0  0  0  0  0  0  0  0
    3.3761   17.8599   48.1244 O   0  0  0  0  0  0  0  0  0  0  0  0
    5.9837   16.6695   45.1176 C   0  0  0  0  0  0  0  0  0  0  0  0
    4.9577   15.8386   45.5520 C   0  0  0  0  0  0  0  0  0  0  0  0
   10.0308   22.6496   46.3774 F   0  0  0  0  0  0  0  0  0  0  0  0
    6.6082   20.4549   47.1181 C   0  0  0  0  0  0  0  0  0  0  0  0
    6.6954   21.2928   45.9900 C   0  0  0  0  0  0  0  0  0  0  0  0
    7.7225   20.3316   47.9573 C   0  0  0  0  0  0  0  0  0  0  0  0
    7.8492   22.0350   45.7407 C   0  0  0  0  0  0  0  0  0  0  0  0
    8.8761   21.0820   47.7116 C   0  0  0  0  0  0  0  0  0  0  0  0
    8.9253   21.9302   46.6109 C   0  0  0  0  0  0  0  0  0  0  0  0
    4.8632   14.5218   45.0109 N   0  0  0  0  0  0  0  0  0  0  0  0
    3.9136   14.2141   44.7940 H   0  0  0  0  0  0  0  0  0  0  0  0
    5.8649   14.1067   43.7165 S   0  0  0  0  0  0  0  0  0  0  0  0
    5.6134   12.3449   43.6032 C   0  0  0  0  0  0  0  0  0  0  0  0
    5.2510   14.7071   42.5515 O   0  0  0  0  0  0  0  0  0  0  0  0
    7.2453   14.3723   44.0557 O   0  0  0  0  0  0  0  0  0  0  0  0
  1  6  2  0  0  0
  2  9  1  0  0  0
  3  9  1  0  0  0
 21 23  1  0  0  0
 21 13  1  0  0  0
 21 22  1  0  0  0
 23 24  1  0  0  0
 23 25  2  0  0  0
 23 26  2  0  0  0
 14 20  1  0  0  0
  4  5  1  0  0  0
  4  6  1  0  0  0
  4 15  1  0  0  0
  5  7  2  0  0  0
  5  8  1  0  0  0
  6  9  1  0  0  0
  7 10  1  0  0  0
  7 11  1  0  0  0
  8 12  2  0  0  0
  9 11  1  0  0  0
 10 13  2  0  0  0
 12 13  1  0  0  0
 15 16  2  0  0  0
 15 17  1  0  0  0
 16 18  1  0  0  0
 17 19  2  0  0  0
 18 20  2  0  0  0
 19 20  1  0  0  0
M  END
> <minimizedAffinity>
-8.30148

$$$$
Apararenone


 26 28  0  0  0  0  0  0  0  0999 V2000
    4.9347   22.4177   52.3442 O   0  0  0  0  0  0  0  0  0  0  0  0
    6.7133   19.7818   51.5803 C   0  0  0  0  0  0  0  0  0  0  0  0
    4.6227   19.7019   52.9243 C   0  0  0  0  0  0  0  0  0  0  0  0
    5.3471   22.0510   50.0731 N   0  0  0  0  0  0  0  0  0  0  0  0
    5.1515   21.1235   49.0004 C   0  0  0  0  0  0  0  0  0  0  0  0
    5.0755   21.6529   51.3893 C   0  0  0  0  0  0  0  0  0  0  0  0
    4.7189   19.8202   49.2910 C   0  0  0  0  0  0  0  0  0  0  0  0
    5.2858   21.4816   47.6478 C   0  0  0  0  0  0  0  0  0  0  0  0
    5.2073   20.1261   51.5715 C   0  0  0  0  0  0  0  0  0  0  0  0
    4.4568   18.8969   48.2684 C   0  0  0  0  0  0  0  0  0  0  0  0
    4.5454   19.3515   50.5700 O   0  0  0  0  0  0  0  0  0  0  0  0
    5.0694   20.5497   46.6270 C   0  0  0  0  0  0  0  0  0  0  0  0
    4.6790   19.2531   46.9400 C   0  0  0  0  0  0  0  0  0  0  0  0
    7.9389   26.9015   49.2951 F   0  0  0  0  0  0  0  0  0  0  0  0
    5.9918   23.2971   49.8398 C   0  0  0  0  0  0  0  0  0  0  0  0
    7.3935   23.3462   49.7164 C   0  0  0  0  0  0  0  0  0  0  0  0
    5.2694   24.4969   49.8325 C   0  0  0  0  0  0  0  0  0  0  0  0
    8.0507   24.5618   49.5306 C   0  0  0  0  0  0  0  0  0  0  0  0
    5.9278   25.7145   49.6381 C   0  0  0  0  0  0  0  0  0  0  0  0
    7.3094   25.7341   49.4826 C   0  0  0  0  0  0  0  0  0  0  0  0
    4.5454   18.3014   45.8854 N   0  0  0  0  0  0  0  0  0  0  0  0
    4.9439   18.5929   44.9912 H   0  0  0  0  0  0  0  0  0  0  0  0
    5.0061   16.7031   46.1766 S   0  0  0  0  0  0  0  0  0  0  0  0
    5.7714   16.2504   44.6308 C   0  0  0  0  0  0  0  0  0  0  0  0
    6.0544   16.7838   47.1711 O   0  0  0  0  0  0  0  0  0  0  0  0
    3.8345   15.8827   46.3891 O   0  0  0  0  0  0  0  0  0  0  0  0
  1  6  2  0  0  0
  2  9  1  0  0  0
  3  9  1  0  0  0
 21 23  1  0  0  0
 21 13  1  0  0  0
 21 22  1  0  0  0
 23 24  1  0  0  0
 23 25  2  0  0  0
 23 26  2  0  0  0
 14 20  1  0  0  0
  4  5  1  0  0  0
  4  6  1  0  0  0
  4 15  1  0  0  0
  5  7  2  0  0  0
  5  8  1  0  0  0
  6  9  1  0  0  0
  7 10  1  0  0  0
  7 11  1  0  0  0
  8 12  2  0  0  0
  9 11  1  0  0  0
 10 13  2  0  0  0
 12 13  1  0  0  0
 15 16  2  0  0  0
 15 17  1  0  0  0
 16 18  1  0  0  0
 17 19  2  0  0  0
 18 20  2  0  0  0
 19 20  1  0  0  0
M  END
> <minimizedAffinity>
-7.86442

$$$$
Apararenone


 26 28  0  0  0  0  0  0  0  0999 V2000
    6.8791   20.3746   49.1823 O   0  0  0  0  0  0  0  0  0  0  0  0
    5.9412   21.0527   46.1236 C   0  0  0  0  0  0  0  0  0  0  0  0
    8.3161   20.9220   46.8489 C   0  0  0  0  0  0  0  0  0  0  0  0
    5.4743   18.8208   48.1456 N   0  0  0  0  0  0  0  0  0  0  0  0
    5.3627   17.9317   47.0293 C   0  0  0  0  0  0  0  0  0  0  0  0
    6.5131   19.7612   48.1791 C   0  0  0  0  0  0  0  0  0  0  0  0
    6.2803   18.0390   45.9726 C   0  0  0  0  0  0  0  0  0  0  0  0
    4.4252   16.8856   46.9776 C   0  0  0  0  0  0  0  0  0  0  0  0
    7.0042   20.1325   46.7640 C   0  0  0  0  0  0  0  0  0  0  0  0
    6.2460   17.1510   44.8877 C   0  0  0  0  0  0  0  0  0  0  0  0
    7.2457   19.0135   45.9091 O   0  0  0  0  0  0  0  0  0  0  0  0
    4.3588   16.0265   45.8753 C   0  0  0  0  0  0  0  0  0  0  0  0
    5.2531   16.1759   44.8219 C   0  0  0  0  0  0  0  0  0  0  0  0
    1.4530   19.2390   51.9540 F   0  0  0  0  0  0  0  0  0  0  0  0
    4.4394   18.8890   49.1189 C   0  0  0  0  0  0  0  0  0  0  0  0
    3.2734   19.6303   48.8478 C   0  0  0  0  0  0  0  0  0  0  0  0
    4.5985   18.3177   50.3875 C   0  0  0  0  0  0  0  0  0  0  0  0
    2.2647   19.7470   49.8034 C   0  0  0  0  0  0  0  0  0  0  0  0
    3.5835   18.4282   51.3423 C   0  0  0  0  0  0  0  0  0  0  0  0
    2.4253   19.1352   51.0386 C   0  0  0  0  0  0  0  0  0  0  0  0
    5.1104   15.3399   43.6745 N   0  0  0  0  0  0  0  0  0  0  0  0
    5.1450   15.8305   42.7792 H   0  0  0  0  0  0  0  0  0  0  0  0
    6.0704   13.9556   43.5595 S   0  0  0  0  0  0  0  0  0  0  0  0
    5.3864   13.1483   42.1240 C   0  0  0  0  0  0  0  0  0  0  0  0
    7.3880   14.4342   43.1999 O   0  0  0  0  0  0  0  0  0  0  0  0
    5.8697   13.1178   44.7209 O   0  0  0  0  0  0  0  0  0  0  0  0
  1  6  2  0  0  0
  2  9  1  0  0  0
  3  9  1  0  0  0
 21 23  1  0  0  0
 21 13  1  0  0  0
 21 22  1  0  0  0
 23 24  1  0  0  0
 23 25  2  0  0  0
 23 26  2  0  0  0
 14 20  1  0  0  0
  4  5  1  0  0  0
  4  6  1  0  0  0
  4 15  1  0  0  0
  5  7  2  0  0  0
  5  8  1  0  0  0
  6  9  1  0  0  0
  7 10  1  0  0  0
  7 11  1  0  0  0
  8 12  2  0  0  0
  9 11  1  0  0  0
 10 13  2  0  0  0
 12 13  1  0  0  0
 15 16  2  0  0  0
 15 17  1  0  0  0
 16 18  1  0  0  0
 17 19  2  0  0  0
 18 20  2  0  0  0
 19 20  1  0  0  0
M  END
> <minimizedAffinity>
-7.31803

$$$$
