Arecaidine


 11 11  0  0  0  0  0  0  0  0999 V2000
    7.8569   24.7648   49.4344 C   0  0  0  0  0  0  0  0  0  0  0  0
    5.0660   25.3001   51.6126 C   0  0  0  0  0  0  0  0  0  0  0  0
    6.2907   25.8594   50.9557 C   0  0  0  0  0  0  0  0  0  0  0  0
    5.0559   24.0956   52.2062 C   0  0  0  0  0  0  0  0  0  0  0  0
    7.4622   24.9984   50.8134 N   0  0  0  0  0  0  0  0  0  0  0  0
    6.2604   23.2204   52.2631 C   0  0  0  0  0  0  0  0  0  0  0  0
    7.5476   23.8131   51.6657 C   0  0  0  0  0  0  0  0  0  0  0  0
    3.7756   26.0361   51.5672 C   0  0  0  0  0  0  0  0  0  0  0  0
    3.0229   25.7944   50.4721 O   0  0  0  0  0  0  0  0  0  0  0  0
    3.4022   26.7999   52.4413 O   0  0  0  0  0  0  0  0  0  0  0  0
    3.4304   25.2719   49.7627 H   0  0  0  0  0  0  0  0  0  0  0  0
  8  9  1  0  0  0
  8 10  2  0  0  0
  8  2  1  0  0  0
  9 11  1  0  0  0
  1  5  1  0  0  0
  2  3  1  0  0  0
  2  4  2  0  0  0
  3  5  1  0  0  0
  4  6  1  0  0  0
  5  7  1  0  0  0
  6  7  1  0  0  0
M  END
> <minimizedAffinity>
-5.22956

$$$$
Arecaidine


 11 11  0  0  0  0  0  0  0  0999 V2000
    7.7081   23.5867   51.2370 C   0  0  0  0  0  0  0  0  0  0  0  0
    4.3778   24.9005   51.1777 C   0  0  0  0  0  0  0  0  0  0  0  0
    5.5758   24.5109   51.9885 C   0  0  0  0  0  0  0  0  0  0  0  0
    3.8832   24.1176   50.2051 C   0  0  0  0  0  0  0  0  0  0  0  0
    6.3261   23.3197   51.5984 N   0  0  0  0  0  0  0  0  0  0  0  0
    4.4820   22.7986   49.8563 C   0  0  0  0  0  0  0  0  0  0  0  0
    5.6620   22.3461   50.7325 C   0  0  0  0  0  0  0  0  0  0  0  0
    3.7256   26.2218   51.3716 C   0  0  0  0  0  0  0  0  0  0  0  0
    3.5390   26.9340   50.2393 O   0  0  0  0  0  0  0  0  0  0  0  0
    3.3731   26.6485   52.4581 O   0  0  0  0  0  0  0  0  0  0  0  0
    3.9485   26.5904   49.4290 H   0  0  0  0  0  0  0  0  0  0  0  0
  8  9  1  0  0  0
  8 10  2  0  0  0
  8  2  1  0  0  0
  9 11  1  0  0  0
  1  5  1  0  0  0
  2  3  1  0  0  0
  2  4  2  0  0  0
  3  5  1  0  0  0
  4  6  1  0  0  0
  5  7  1  0  0  0
  6  7  1  0  0  0
M  END
> <minimizedAffinity>
-5.00160

$$$$
Arecaidine


 11 11  0  0  0  0  0  0  0  0999 V2000
    6.7812   19.9052   47.8361 C   0  0  0  0  0  0  0  0  0  0  0  0
    5.5355   19.1344   51.1033 C   0  0  0  0  0  0  0  0  0  0  0  0
    6.7115   19.2182   50.1788 C   0  0  0  0  0  0  0  0  0  0  0  0
    4.3704   18.5776   50.7347 C   0  0  0  0  0  0  0  0  0  0  0  0
    6.5310   18.8307   48.7820 N   0  0  0  0  0  0  0  0  0  0  0  0
    4.1537   17.9955   49.3803 C   0  0  0  0  0  0  0  0  0  0  0  0
    5.3754   17.9996   48.4464 C   0  0  0  0  0  0  0  0  0  0  0  0
    5.5901   19.7398   52.4595 C   0  0  0  0  0  0  0  0  0  0  0  0
    6.8300   19.8443   52.9846 O   0  0  0  0  0  0  0  0  0  0  0  0
    4.6058   20.1244   53.0679 O   0  0  0  0  0  0  0  0  0  0  0  0
    7.5523   19.4122   52.5010 H   0  0  0  0  0  0  0  0  0  0  0  0
  8  9  1  0  0  0
  8 10  2  0  0  0
  8  2  1  0  0  0
  9 11  1  0  0  0
  1  5  1  0  0  0
  2  3  1  0  0  0
  2  4  2  0  0  0
  3  5  1  0  0  0
  4  6  1  0  0  0
  5  7  1  0  0  0
  6  7  1  0  0  0
M  END
> <minimizedAffinity>
-4.91159

$$$$
Arecaidine


 11 11  0  0  0  0  0  0  0  0999 V2000
    3.6196   21.7860   49.2348 C   0  0  0  0  0  0  0  0  0  0  0  0
    4.3125   24.7346   51.1444 C   0  0  0  0  0  0  0  0  0  0  0  0
    4.3062   24.0590   49.8072 C   0  0  0  0  0  0  0  0  0  0  0  0
    4.7881   24.1369   52.2488 C   0  0  0  0  0  0  0  0  0  0  0  0
    4.6771   22.6478   49.7357 N   0  0  0  0  0  0  0  0  0  0  0  0
    5.3508   22.7573   52.2340 C   0  0  0  0  0  0  0  0  0  0  0  0
    5.4272   22.0801   50.8554 C   0  0  0  0  0  0  0  0  0  0  0  0
    3.7155   26.0847   51.3167 C   0  0  0  0  0  0  0  0  0  0  0  0
    3.4691   26.7471   50.1658 O   0  0  0  0  0  0  0  0  0  0  0  0
    3.4550   26.5748   52.4024 O   0  0  0  0  0  0  0  0  0  0  0  0
    3.8088   26.3514   49.3471 H   0  0  0  0  0  0  0  0  0  0  0  0
  8  9  1  0  0  0
  8 10  2  0  0  0
  8  2  1  0  0  0
  9 11  1  0  0  0
  1  5  1  0  0  0
  2  3  1  0  0  0
  2  4  2  0  0  0
  3  5  1  0  0  0
  4  6  1  0  0  0
  5  7  1  0  0  0
  6  7  1  0  0  0
M  END
> <minimizedAffinity>
-4.90657

$$$$
Arecaidine


 11 11  0  0  0  0  0  0  0  0999 V2000
    6.3656   20.0749   47.0546 C   0  0  0  0  0  0  0  0  0  0  0  0
    4.8362   18.4059   49.8288 C   0  0  0  0  0  0  0  0  0  0  0  0
    6.0924   18.8979   49.1772 C   0  0  0  0  0  0  0  0  0  0  0  0
    3.8878   17.7408   49.1495 C   0  0  0  0  0  0  0  0  0  0  0  0
    6.2128   18.7947   47.7250 N   0  0  0  0  0  0  0  0  0  0  0  0
    4.0087   17.4351   47.6962 C   0  0  0  0  0  0  0  0  0  0  0  0
    5.3277   17.8608   47.0299 C   0  0  0  0  0  0  0  0  0  0  0  0
    4.5535   18.7043   51.2570 C   0  0  0  0  0  0  0  0  0  0  0  0
    4.5371   17.6255   52.0695 O   0  0  0  0  0  0  0  0  0  0  0  0
    4.3541   19.8282   51.6859 O   0  0  0  0  0  0  0  0  0  0  0  0
    4.5843   16.7533   51.6463 H   0  0  0  0  0  0  0  0  0  0  0  0
  8  9  1  0  0  0
  8 10  2  0  0  0
  8  2  1  0  0  0
  9 11  1  0  0  0
  1  5  1  0  0  0
  2  3  1  0  0  0
  2  4  2  0  0  0
  3  5  1  0  0  0
  4  6  1  0  0  0
  5  7  1  0  0  0
  6  7  1  0  0  0
M  END
> <minimizedAffinity>
-4.87401

$$$$
