Gitogenin


 33 38  0  0  0  0  0  0  0  0999 V2000
    3.9112   21.5581   48.0934 C   0  0  0  0  0  0  0  0  0  0  0  0
    2.7202   18.9113   51.4740 C   0  0  0  0  0  0  0  0  0  0  0  0
    8.7846   22.5299   46.1535 C   0  0  0  0  0  0  0  0  0  0  0  0
    9.0765   22.4052   51.7759 C   0  0  0  0  0  0  0  0  0  0  0  0
    6.8388   24.2094   48.2164 O   0  0  0  0  0  0  0  0  0  0  0  0
    7.6310   26.9340   48.9342 O   0  0  0  0  0  0  0  0  0  0  0  0
    5.8310   19.6835   48.0401 C   0  0  0  0  0  0  0  0  0  0  0  0
    4.9617   20.6589   48.8334 C   0  0  0  0  0  0  0  0  0  0  0  0
    5.4279   18.3201   48.6742 O   0  0  0  0  0  0  0  0  0  0  0  0
    7.3664   19.4994   48.0093 C   0  0  0  0  0  0  0  0  0  0  0  0
    5.6544   20.0761   46.6281 O   0  0  0  0  0  0  0  0  0  0  0  0
    4.0853   19.7587   49.6930 C   0  0  0  0  0  0  0  0  0  0  0  0
    4.6272   18.3516   49.9956 C   0  0  0  0  0  0  0  0  0  0  0  0
    8.1953   20.7210   47.7328 C   0  0  0  0  0  0  0  0  0  0  0  0
    6.3906   21.3400   46.2420 C   0  0  0  0  0  0  0  0  0  0  0  0
    4.3528   19.6529   51.0657 C   0  0  0  0  0  0  0  0  0  0  0  0
    4.8382   18.4849   52.0282 C   0  0  0  0  0  0  0  0  0  0  0  0
    7.9274   21.2484   46.3529 C   0  0  0  0  0  0  0  0  0  0  0  0
    4.6140   20.2184   52.3741 C   0  0  0  0  0  0  0  0  0  0  0  0
    6.3364   19.3278   50.9656 C   0  0  0  0  0  0  0  0  0  0  0  0
    5.2560   21.6151   51.8303 C   0  0  0  0  0  0  0  0  0  0  0  0
    7.3188   20.4426   51.0528 C   0  0  0  0  0  0  0  0  0  0  0  0
    6.7971   21.6799   51.6759 C   0  0  0  0  0  0  0  0  0  0  0  0
    4.7049   22.8987   52.4146 C   0  0  0  0  0  0  0  0  0  0  0  0
    7.6643   22.9849   51.1500 C   0  0  0  0  0  0  0  0  0  0  0  0
    5.2118   23.9831   51.4863 C   0  0  0  0  0  0  0  0  0  0  0  0
    6.7625   24.2519   51.5654 C   0  0  0  0  0  0  0  0  0  0  0  0
    8.4706   23.4270   49.8393 C   0  0  0  0  0  0  0  0  0  0  0  0
    6.7695   25.5777   50.7173 C   0  0  0  0  0  0  0  0  0  0  0  0
    8.0271   24.5409   48.9165 C   0  0  0  0  0  0  0  0  0  0  0  0
    7.8997   25.8017   49.7613 C   0  0  0  0  0  0  0  0  0  0  0  0
    6.4159   23.4710   48.6857 H   0  0  0  0  0  0  0  0  0  0  0  0
    7.2405   26.5954   48.1051 H   0  0  0  0  0  0  0  0  0  0  0  0
  5 32  1  0  0  0
  6 33  1  0  0  0
  7  8  1  0  0  0
  7  9  1  0  0  0
  7 10  1  0  0  0
  7 11  1  0  0  0
  8  1  1  0  0  0
  8 12  1  0  0  0
  9 13  1  0  0  0
 10 14  1  0  0  0
 11 15  1  0  0  0
 12 13  1  0  0  0
 12 16  1  0  0  0
 13 17  1  0  0  0
 14 18  1  0  0  0
 15 18  1  0  0  0
 16  2  1  0  0  0
 16 19  1  0  0  0
 16 20  1  0  0  0
 18  3  1  0  0  0
 19 17  1  0  0  0
 19 21  1  0  0  0
 20 22  1  0  0  0
 21 23  1  0  0  0
 21 24  1  0  0  0
 23 22  1  0  0  0
 23 25  1  0  0  0
 24 26  1  0  0  0
 25  4  1  0  0  0
 25 27  1  0  0  0
 25 28  1  0  0  0
 27 26  1  0  0  0
 27 29  1  0  0  0
 28 30  1  0  0  0
 29 31  1  0  0  0
 30  5  1  0  0  0
 30 31  1  0  0  0
 31  6  1  0  0  0
M  END
> <minimizedAffinity>
-8.02880

$$$$
Gitogenin


 33 38  0  0  0  0  0  0  0  0999 V2000
    6.8294   18.0366   49.7487 C   0  0  0  0  0  0  0  0  0  0  0  0
    6.1467   18.3910   45.3600 C   0  0  0  0  0  0  0  0  0  0  0  0
    4.0686   20.2200   53.7573 C   0  0  0  0  0  0  0  0  0  0  0  0
    4.6108   24.0389   49.6543 C   0  0  0  0  0  0  0  0  0  0  0  0
    6.8913   21.0684   52.2825 O   0  0  0  0  0  0  0  0  0  0  0  0
    8.4951   23.1871   53.5093 O   0  0  0  0  0  0  0  0  0  0  0  0
    4.1744   18.4081   49.6231 C   0  0  0  0  0  0  0  0  0  0  0  0
    5.5833   18.7982   49.1767 C   0  0  0  0  0  0  0  0  0  0  0  0
    3.5221   17.9955   48.2712 O   0  0  0  0  0  0  0  0  0  0  0  0
    3.0269   19.2694   50.2005 C   0  0  0  0  0  0  0  0  0  0  0  0
    4.3737   17.5374   50.7984 O   0  0  0  0  0  0  0  0  0  0  0  0
    5.6176   18.4338   47.6991 C   0  0  0  0  0  0  0  0  0  0  0  0
    4.2646   18.3756   46.9702 C   0  0  0  0  0  0  0  0  0  0  0  0
    3.3474   20.1228   51.3943 C   0  0  0  0  0  0  0  0  0  0  0  0
    4.7702   18.2787   52.0559 C   0  0  0  0  0  0  0  0  0  0  0  0
    5.5655   19.4569   46.7412 C   0  0  0  0  0  0  0  0  0  0  0  0
    4.5235   19.8975   45.6248 C   0  0  0  0  0  0  0  0  0  0  0  0
    3.7110   19.2730   52.5774 C   0  0  0  0  0  0  0  0  0  0  0  0
    6.0052   20.7179   46.1787 C   0  0  0  0  0  0  0  0  0  0  0  0
    4.0093   20.4931   47.4863 C   0  0  0  0  0  0  0  0  0  0  0  0
    6.5387   21.3531   47.5824 C   0  0  0  0  0  0  0  0  0  0  0  0
    4.2036   21.6358   48.4200 C   0  0  0  0  0  0  0  0  0  0  0  0
    5.5535   22.2422   48.3837 C   0  0  0  0  0  0  0  0  0  0  0  0
    7.9365   21.9353   47.5866 C   0  0  0  0  0  0  0  0  0  0  0  0
    5.8741   22.9911   49.8217 C   0  0  0  0  0  0  0  0  0  0  0  0
    8.2709   22.1016   49.0545 C   0  0  0  0  0  0  0  0  0  0  0  0
    7.4648   23.2362   49.7935 C   0  0  0  0  0  0  0  0  0  0  0  0
    5.4804   22.8219   51.3644 C   0  0  0  0  0  0  0  0  0  0  0  0
    8.3175   23.2450   51.1163 C   0  0  0  0  0  0  0  0  0  0  0  0
    6.4605   22.4105   52.4409 C   0  0  0  0  0  0  0  0  0  0  0  0
    7.6019   23.4187   52.4198 C   0  0  0  0  0  0  0  0  0  0  0  0
    6.6908   20.7997   51.3704 H   0  0  0  0  0  0  0  0  0  0  0  0
    8.3787   22.2558   53.7807 H   0  0  0  0  0  0  0  0  0  0  0  0
  5 32  1  0  0  0
  6 33  1  0  0  0
  7  8  1  0  0  0
  7  9  1  0  0  0
  7 10  1  0  0  0
  7 11  1  0  0  0
  8  1  1  0  0  0
  8 12  1  0  0  0
  9 13  1  0  0  0
 10 14  1  0  0  0
 11 15  1  0  0  0
 12 13  1  0  0  0
 12 16  1  0  0  0
 13 17  1  0  0  0
 14 18  1  0  0  0
 15 18  1  0  0  0
 16  2  1  0  0  0
 16 19  1  0  0  0
 16 20  1  0  0  0
 18  3  1  0  0  0
 19 17  1  0  0  0
 19 21  1  0  0  0
 20 22  1  0  0  0
 21 23  1  0  0  0
 21 24  1  0  0  0
 23 22  1  0  0  0
 23 25  1  0  0  0
 24 26  1  0  0  0
 25  4  1  0  0  0
 25 27  1  0  0  0
 25 28  1  0  0  0
 27 26  1  0  0  0
 27 29  1  0  0  0
 28 30  1  0  0  0
 29 31  1  0  0  0
 30  5  1  0  0  0
 30 31  1  0  0  0
 31  6  1  0  0  0
M  END
> <minimizedAffinity>
-7.79879

$$$$
Gitogenin


 33 38  0  0  0  0  0  0  0  0999 V2000
    4.8396   21.6663   46.8385 C   0  0  0  0  0  0  0  0  0  0  0  0
    2.7603   18.4170   49.0680 C   0  0  0  0  0  0  0  0  0  0  0  0
    9.9610   23.1419   47.0667 C   0  0  0  0  0  0  0  0  0  0  0  0
    8.1747   22.0240   52.2889 C   0  0  0  0  0  0  0  0  0  0  0  0
    7.2348   24.3551   48.4660 O   0  0  0  0  0  0  0  0  0  0  0  0
    7.4297   26.9338   49.8367 O   0  0  0  0  0  0  0  0  0  0  0  0
    6.8220   19.9008   47.2333 C   0  0  0  0  0  0  0  0  0  0  0  0
    5.6287   20.6871   47.7757 C   0  0  0  0  0  0  0  0  0  0  0  0
    6.3528   18.4326   47.4513 O   0  0  0  0  0  0  0  0  0  0  0  0
    8.2711   19.7799   47.7602 C   0  0  0  0  0  0  0  0  0  0  0  0
    7.1388   20.5332   45.9376 O   0  0  0  0  0  0  0  0  0  0  0  0
    4.5925   19.6173   48.0902 C   0  0  0  0  0  0  0  0  0  0  0  0
    5.1232   18.1988   48.3578 C   0  0  0  0  0  0  0  0  0  0  0  0
    9.0166   21.0599   48.0086 C   0  0  0  0  0  0  0  0  0  0  0  0
    7.8346   21.8710   46.0573 C   0  0  0  0  0  0  0  0  0  0  0  0
    4.3454   19.2771   49.4282 C   0  0  0  0  0  0  0  0  0  0  0  0
    4.5571   17.9738   50.3129 C   0  0  0  0  0  0  0  0  0  0  0  0
    9.2237   21.8158   46.7280 C   0  0  0  0  0  0  0  0  0  0  0  0
    4.0487   19.6085   50.8074 C   0  0  0  0  0  0  0  0  0  0  0  0
    6.2485   19.0459   50.0405 C   0  0  0  0  0  0  0  0  0  0  0  0
    4.7022   21.1017   50.7677 C   0  0  0  0  0  0  0  0  0  0  0  0
    7.0127   20.1612   50.6629 C   0  0  0  0  0  0  0  0  0  0  0  0
    6.1772   21.2479   51.2218 C   0  0  0  0  0  0  0  0  0  0  0  0
    3.8491   22.2398   51.2871 C   0  0  0  0  0  0  0  0  0  0  0  0
    7.0414   22.6558   51.2700 C   0  0  0  0  0  0  0  0  0  0  0  0
    4.5503   23.4900   50.7976 C   0  0  0  0  0  0  0  0  0  0  0  0
    5.9278   23.7952   51.4995 C   0  0  0  0  0  0  0  0  0  0  0  0
    8.2246   23.3536   50.4473 C   0  0  0  0  0  0  0  0  0  0  0  0
    6.1133   25.2508   50.9302 C   0  0  0  0  0  0  0  0  0  0  0  0
    8.0425   24.5980   49.6066 C   0  0  0  0  0  0  0  0  0  0  0  0
    7.4873   25.6821   50.5210 C   0  0  0  0  0  0  0  0  0  0  0  0
    6.7452   23.5302   48.6213 H   0  0  0  0  0  0  0  0  0  0  0  0
    7.4077   26.7353   48.8803 H   0  0  0  0  0  0  0  0  0  0  0  0
  5 32  1  0  0  0
  6 33  1  0  0  0
  7  8  1  0  0  0
  7  9  1  0  0  0
  7 10  1  0  0  0
  7 11  1  0  0  0
  8  1  1  0  0  0
  8 12  1  0  0  0
  9 13  1  0  0  0
 10 14  1  0  0  0
 11 15  1  0  0  0
 12 13  1  0  0  0
 12 16  1  0  0  0
 13 17  1  0  0  0
 14 18  1  0  0  0
 15 18  1  0  0  0
 16  2  1  0  0  0
 16 19  1  0  0  0
 16 20  1  0  0  0
 18  3  1  0  0  0
 19 17  1  0  0  0
 19 21  1  0  0  0
 20 22  1  0  0  0
 21 23  1  0  0  0
 21 24  1  0  0  0
 23 22  1  0  0  0
 23 25  1  0  0  0
 24 26  1  0  0  0
 25  4  1  0  0  0
 25 27  1  0  0  0
 25 28  1  0  0  0
 27 26  1  0  0  0
 27 29  1  0  0  0
 28 30  1  0  0  0
 29 31  1  0  0  0
 30  5  1  0  0  0
 30 31  1  0  0  0
 31  6  1  0  0  0
M  END
> <minimizedAffinity>
-6.38665

$$$$
Gitogenin


 33 38  0  0  0  0  0  0  0  0999 V2000
    9.0004   21.0944   50.3366 C   0  0  0  0  0  0  0  0  0  0  0  0
    6.8659   23.6183   53.3243 C   0  0  0  0  0  0  0  0  0  0  0  0
    8.4113   20.9532   45.0365 C   0  0  0  0  0  0  0  0  0  0  0  0
    3.3186   21.3680   47.4038 C   0  0  0  0  0  0  0  0  0  0  0  0
    7.2533   19.0339   47.4525 O   0  0  0  0  0  0  0  0  0  0  0  0
    5.9292   16.5343   46.7010 O   0  0  0  0  0  0  0  0  0  0  0  0
    8.4150   23.2859   48.9022 C   0  0  0  0  0  0  0  0  0  0  0  0
    7.9837   22.2019   49.8898 C   0  0  0  0  0  0  0  0  0  0  0  0
    8.2013   24.5777   49.7443 O   0  0  0  0  0  0  0  0  0  0  0  0
    7.7756   23.7475   47.5717 C   0  0  0  0  0  0  0  0  0  0  0  0
    9.6961   22.8079   48.3462 O   0  0  0  0  0  0  0  0  0  0  0  0
    7.7262   22.9613   51.1838 C   0  0  0  0  0  0  0  0  0  0  0  0
    7.3871   24.4557   51.0522 C   0  0  0  0  0  0  0  0  0  0  0  0
    7.4989   22.6884   46.5432 C   0  0  0  0  0  0  0  0  0  0  0  0
    9.5530   21.6856   47.3420 C   0  0  0  0  0  0  0  0  0  0  0  0
    6.4039   23.1727   51.6010 C   0  0  0  0  0  0  0  0  0  0  0  0
    5.4769   24.4499   51.7901 C   0  0  0  0  0  0  0  0  0  0  0  0
    8.7762   22.0627   46.0625 C   0  0  0  0  0  0  0  0  0  0  0  0
    5.0594   22.7209   51.8974 C   0  0  0  0  0  0  0  0  0  0  0  0
    5.6420   23.8522   49.8665 C   0  0  0  0  0  0  0  0  0  0  0  0
    5.0818   21.4442   50.8835 C   0  0  0  0  0  0  0  0  0  0  0  0
    4.9875   22.9417   48.8878 C   0  0  0  0  0  0  0  0  0  0  0  0
    4.5189   21.6571   49.4549 C   0  0  0  0  0  0  0  0  0  0  0  0
    4.6550   20.1071   51.4517 C   0  0  0  0  0  0  0  0  0  0  0  0
    4.4355   20.5126   48.2655 C   0  0  0  0  0  0  0  0  0  0  0  0
    5.1167   19.0960   50.4227 C   0  0  0  0  0  0  0  0  0  0  0  0
    4.3178   19.1203   49.0647 C   0  0  0  0  0  0  0  0  0  0  0  0
    5.1799   20.1709   46.8897 C   0  0  0  0  0  0  0  0  0  0  0  0
    4.9033   17.7835   48.4753 C   0  0  0  0  0  0  0  0  0  0  0  0
    6.0596   18.9564   46.6901 C   0  0  0  0  0  0  0  0  0  0  0  0
    5.2149   17.7307   47.0119 C   0  0  0  0  0  0  0  0  0  0  0  0
    7.1179   19.7012   48.1458 H   0  0  0  0  0  0  0  0  0  0  0  0
    6.8798   16.7598   46.7071 H   0  0  0  0  0  0  0  0  0  0  0  0
  5 32  1  0  0  0
  6 33  1  0  0  0
  7  8  1  0  0  0
  7  9  1  0  0  0
  7 10  1  0  0  0
  7 11  1  0  0  0
  8  1  1  0  0  0
  8 12  1  0  0  0
  9 13  1  0  0  0
 10 14  1  0  0  0
 11 15  1  0  0  0
 12 13  1  0  0  0
 12 16  1  0  0  0
 13 17  1  0  0  0
 14 18  1  0  0  0
 15 18  1  0  0  0
 16  2  1  0  0  0
 16 19  1  0  0  0
 16 20  1  0  0  0
 18  3  1  0  0  0
 19 17  1  0  0  0
 19 21  1  0  0  0
 20 22  1  0  0  0
 21 23  1  0  0  0
 21 24  1  0  0  0
 23 22  1  0  0  0
 23 25  1  0  0  0
 24 26  1  0  0  0
 25  4  1  0  0  0
 25 27  1  0  0  0
 25 28  1  0  0  0
 27 26  1  0  0  0
 27 29  1  0  0  0
 28 30  1  0  0  0
 29 31  1  0  0  0
 30  5  1  0  0  0
 30 31  1  0  0  0
 31  6  1  0  0  0
M  END
> <minimizedAffinity>
-6.26925

$$$$
Gitogenin


 33 38  0  0  0  0  0  0  0  0999 V2000
    7.9192   19.0258   50.3597 C   0  0  0  0  0  0  0  0  0  0  0  0
    5.1564   19.9361   53.7347 C   0  0  0  0  0  0  0  0  0  0  0  0
    8.2795   21.3912   45.5917 C   0  0  0  0  0  0  0  0  0  0  0  0
    2.8349   20.8250   46.9141 C   0  0  0  0  0  0  0  0  0  0  0  0
    6.8231   18.6070   46.5862 O   0  0  0  0  0  0  0  0  0  0  0  0
    5.7923   16.7917   44.5348 O   0  0  0  0  0  0  0  0  0  0  0  0
    7.4745   21.6515   50.0268 C   0  0  0  0  0  0  0  0  0  0  0  0
    6.9371   20.2473   50.3020 C   0  0  0  0  0  0  0  0  0  0  0  0
    7.0448   22.4082   51.3176 O   0  0  0  0  0  0  0  0  0  0  0  0
    7.0542   22.7012   48.9714 C   0  0  0  0  0  0  0  0  0  0  0  0
    8.8579   21.4452   49.5550 O   0  0  0  0  0  0  0  0  0  0  0  0
    6.4145   20.3242   51.7297 C   0  0  0  0  0  0  0  0  0  0  0  0
    6.0216   21.7180   52.2475 C   0  0  0  0  0  0  0  0  0  0  0  0
    7.0218   22.2535   47.5381 C   0  0  0  0  0  0  0  0  0  0  0  0
    8.9559   20.9258   48.1376 C   0  0  0  0  0  0  0  0  0  0  0  0
    5.0299   20.3609   51.9499 C   0  0  0  0  0  0  0  0  0  0  0  0
    4.0147   21.4328   52.5386 C   0  0  0  0  0  0  0  0  0  0  0  0
    8.3963   21.8815   47.0624 C   0  0  0  0  0  0  0  0  0  0  0  0
    3.6813   19.8682   51.7537 C   0  0  0  0  0  0  0  0  0  0  0  0
    4.5481   21.7956   50.6233 C   0  0  0  0  0  0  0  0  0  0  0  0
    3.9523   19.2114   50.2862 C   0  0  0  0  0  0  0  0  0  0  0  0
    4.1273   21.4687   49.2335 C   0  0  0  0  0  0  0  0  0  0  0  0
    3.6382   20.0844   49.0443 C   0  0  0  0  0  0  0  0  0  0  0  0
    3.5070   17.7787   50.0811 C   0  0  0  0  0  0  0  0  0  0  0  0
    3.8288   19.6297   47.4668 C   0  0  0  0  0  0  0  0  0  0  0  0
    4.1976   17.3489   48.8034 C   0  0  0  0  0  0  0  0  0  0  0  0
    3.6498   18.0302   47.4923 C   0  0  0  0  0  0  0  0  0  0  0  0
    4.8211   19.9440   46.2502 C   0  0  0  0  0  0  0  0  0  0  0  0
    4.4029   17.1035   46.4671 C   0  0  0  0  0  0  0  0  0  0  0  0
    5.7881   18.9338   45.6729 C   0  0  0  0  0  0  0  0  0  0  0  0
    4.9692   17.7285   45.2301 C   0  0  0  0  0  0  0  0  0  0  0  0
    6.5312   18.8783   47.4726 H   0  0  0  0  0  0  0  0  0  0  0  0
    6.7130   16.9564   44.8170 H   0  0  0  0  0  0  0  0  0  0  0  0
  5 32  1  0  0  0
  6 33  1  0  0  0
  7  8  1  0  0  0
  7  9  1  0  0  0
  7 10  1  0  0  0
  7 11  1  0  0  0
  8  1  1  0  0  0
  8 12  1  0  0  0
  9 13  1  0  0  0
 10 14  1  0  0  0
 11 15  1  0  0  0
 12 13  1  0  0  0
 12 16  1  0  0  0
 13 17  1  0  0  0
 14 18  1  0  0  0
 15 18  1  0  0  0
 16  2  1  0  0  0
 16 19  1  0  0  0
 16 20  1  0  0  0
 18  3  1  0  0  0
 19 17  1  0  0  0
 19 21  1  0  0  0
 20 22  1  0  0  0
 21 23  1  0  0  0
 21 24  1  0  0  0
 23 22  1  0  0  0
 23 25  1  0  0  0
 24 26  1  0  0  0
 25  4  1  0  0  0
 25 27  1  0  0  0
 25 28  1  0  0  0
 27 26  1  0  0  0
 27 29  1  0  0  0
 28 30  1  0  0  0
 29 31  1  0  0  0
 30  5  1  0  0  0
 30 31  1  0  0  0
 31  6  1  0  0  0
M  END
> <minimizedAffinity>
-4.86948

$$$$
