LEXXEL (enalapril maleate).cdx


 29 30  0  0  0  0  0  0  0  0999 V2000
    5.0034   20.6523   49.8997 N   0  0  0  0  0  0  0  0  0  0  0  0
    4.9420   21.0796   50.8249 H   0  0  0  0  0  0  0  0  0  0  0  0
    5.0046   21.7322   48.8972 C   0  0  0  0  0  0  0  0  0  0  0  0
    4.3034   21.3536   47.5906 C   0  0  0  0  0  0  0  0  0  0  0  0
    4.5906   23.1495   49.3940 C   0  0  0  0  0  0  0  0  0  0  0  0
    5.5263   24.1907   49.3750 N   0  0  0  0  0  0  0  0  0  0  0  0
    3.4117   23.4093   49.6483 O   0  0  0  0  0  0  0  0  0  0  0  0
    5.1741   25.4979   49.9746 C   0  0  0  0  0  0  0  0  0  0  0  0
    6.4572   26.3290   49.8450 C   0  0  0  0  0  0  0  0  0  0  0  0
    7.5973   25.3462   49.6214 C   0  0  0  0  0  0  0  0  0  0  0  0
    6.9603   23.9689   49.4864 C   0  0  0  0  0  0  0  0  0  0  0  0
    4.0582   26.3378   49.3215 C   0  0  0  0  0  0  0  0  0  0  0  0
    2.8981   26.3316   50.0286 O   0  0  0  0  0  0  0  0  0  0  0  0
    4.1521   26.8249   48.2129 O   0  0  0  0  0  0  0  0  0  0  0  0
    3.0398   25.8996   50.8978 H   0  0  0  0  0  0  0  0  0  0  0  0
    5.9926   19.5467   49.9596 C   0  0  0  0  0  0  0  0  0  0  0  0
    7.3866   20.2364   49.8568 C   0  0  0  0  0  0  0  0  0  0  0  0
    7.8933   20.9778   50.6896 O   0  0  0  0  0  0  0  0  0  0  0  0
    7.9607   19.8772   48.6728 O   0  0  0  0  0  0  0  0  0  0  0  0
    8.5765   20.9532   47.9625 C   0  0  0  0  0  0  0  0  0  0  0  0
    7.8820   21.0495   46.6177 C   0  0  0  0  0  0  0  0  0  0  0  0
    6.0190   18.4122   48.9238 C   0  0  0  0  0  0  0  0  0  0  0  0
    4.6043   17.7903   48.6374 C   0  0  0  0  0  0  0  0  0  0  0  0
    6.0690   17.3431   45.2800 C   0  0  0  0  0  0  0  0  0  0  0  0
    5.5729   16.0700   44.9989 C   0  0  0  0  0  0  0  0  0  0  0  0
    4.4566   15.5839   45.6795 C   0  0  0  0  0  0  0  0  0  0  0  0
    3.9233   16.3089   46.7384 C   0  0  0  0  0  0  0  0  0  0  0  0
    4.5749   17.4758   47.1553 C   0  0  0  0  0  0  0  0  0  0  0  0
    5.5409   18.0727   46.3376 C   0  0  0  0  0  0  0  0  0  0  0  0
 24 25  2  0  0  0
 25 26  1  0  0  0
 26 27  2  0  0  0
 27 28  1  0  0  0
 28 29  2  0  0  0
 28 23  1  0  0  0
 29 24  1  0  0  0
 23 22  1  0  0  0
 16 17  1  0  0  0
 16  1  1  0  0  0
 16 22  1  0  0  0
  1  2  1  0  0  0
 17 19  1  0  0  0
 17 18  2  0  0  0
 19 20  1  0  0  0
 20 21  1  0  0  0
  3  4  1  0  0  0
  3  5  1  0  0  0
  3  1  1  0  0  0
  5  6  1  0  0  0
  5  7  2  0  0  0
  6  8  1  0  0  0
  8  9  1  0  0  0
  8 12  1  0  0  0
  9 10  1  0  0  0
 10 11  1  0  0  0
 11  6  1  0  0  0
 12 13  1  0  0  0
 12 14  2  0  0  0
 13 15  1  0  0  0
M  END
> <minimizedAffinity>
-8.16812

$$$$
LEXXEL (enalapril maleate).cdx


 29 30  0  0  0  0  0  0  0  0999 V2000
    7.0514   19.5043   48.7056 N   0  0  0  0  0  0  0  0  0  0  0  0
    7.9558   19.9773   48.7326 H   0  0  0  0  0  0  0  0  0  0  0  0
    6.2098   20.0667   49.7763 C   0  0  0  0  0  0  0  0  0  0  0  0
    5.8585   19.0570   50.8714 C   0  0  0  0  0  0  0  0  0  0  0  0
    6.6511   21.4395   50.3660 C   0  0  0  0  0  0  0  0  0  0  0  0
    5.7271   22.4882   50.4458 N   0  0  0  0  0  0  0  0  0  0  0  0
    7.7497   21.5673   50.9127 O   0  0  0  0  0  0  0  0  0  0  0  0
    6.1827   23.8296   50.8763 C   0  0  0  0  0  0  0  0  0  0  0  0
    4.9322   24.7096   50.7512 C   0  0  0  0  0  0  0  0  0  0  0  0
    3.9678   23.9755   49.8310 C   0  0  0  0  0  0  0  0  0  0  0  0
    4.5988   22.6206   49.5361 C   0  0  0  0  0  0  0  0  0  0  0  0
    6.6869   24.0140   52.3216 C   0  0  0  0  0  0  0  0  0  0  0  0
    8.0419   24.0379   52.4184 O   0  0  0  0  0  0  0  0  0  0  0  0
    5.9570   23.9822   53.2918 O   0  0  0  0  0  0  0  0  0  0  0  0
    8.4396   24.0705   51.5223 H   0  0  0  0  0  0  0  0  0  0  0  0
    6.6396   19.3628   47.2861 C   0  0  0  0  0  0  0  0  0  0  0  0
    6.5225   20.8199   46.7450 C   0  0  0  0  0  0  0  0  0  0  0  0
    5.5351   21.3244   46.2252 O   0  0  0  0  0  0  0  0  0  0  0  0
    7.7140   21.4529   46.9457 O   0  0  0  0  0  0  0  0  0  0  0  0
    8.3602   21.8924   45.7496 C   0  0  0  0  0  0  0  0  0  0  0  0
    9.6426   21.0931   45.6211 C   0  0  0  0  0  0  0  0  0  0  0  0
    5.3327   18.6669   46.8763 C   0  0  0  0  0  0  0  0  0  0  0  0
    5.3246   17.1228   47.1698 C   0  0  0  0  0  0  0  0  0  0  0  0
    6.5295   15.8450   43.9243 C   0  0  0  0  0  0  0  0  0  0  0  0
    6.0521   14.5378   44.0194 C   0  0  0  0  0  0  0  0  0  0  0  0
    5.0093   14.2316   44.8938 C   0  0  0  0  0  0  0  0  0  0  0  0
    4.5401   15.1984   45.7750 C   0  0  0  0  0  0  0  0  0  0  0  0
    5.1866   16.4392   45.8244 C   0  0  0  0  0  0  0  0  0  0  0  0
    6.0653   16.8160   44.8027 C   0  0  0  0  0  0  0  0  0  0  0  0
 24 25  2  0  0  0
 25 26  1  0  0  0
 26 27  2  0  0  0
 27 28  1  0  0  0
 28 29  2  0  0  0
 28 23  1  0  0  0
 29 24  1  0  0  0
 23 22  1  0  0  0
 16 17  1  0  0  0
 16  1  1  0  0  0
 16 22  1  0  0  0
  1  2  1  0  0  0
 17 19  1  0  0  0
 17 18  2  0  0  0
 19 20  1  0  0  0
 20 21  1  0  0  0
  3  4  1  0  0  0
  3  5  1  0  0  0
  3  1  1  0  0  0
  5  6  1  0  0  0
  5  7  2  0  0  0
  6  8  1  0  0  0
  8  9  1  0  0  0
  8 12  1  0  0  0
  9 10  1  0  0  0
 10 11  1  0  0  0
 11  6  1  0  0  0
 12 13  1  0  0  0
 12 14  2  0  0  0
 13 15  1  0  0  0
M  END
> <minimizedAffinity>
-8.13393

$$$$
LEXXEL (enalapril maleate).cdx


 29 30  0  0  0  0  0  0  0  0999 V2000
    7.7075   20.1404   48.4084 N   0  0  0  0  0  0  0  0  0  0  0  0
    8.5489   20.7023   48.5444 H   0  0  0  0  0  0  0  0  0  0  0  0
    6.8099   20.3780   49.5525 C   0  0  0  0  0  0  0  0  0  0  0  0
    6.6023   19.1434   50.4328 C   0  0  0  0  0  0  0  0  0  0  0  0
    7.0753   21.6603   50.3964 C   0  0  0  0  0  0  0  0  0  0  0  0
    6.1379   22.7002   50.3895 N   0  0  0  0  0  0  0  0  0  0  0  0
    8.0138   21.7063   51.1958 O   0  0  0  0  0  0  0  0  0  0  0  0
    6.4549   23.9714   51.0793 C   0  0  0  0  0  0  0  0  0  0  0  0
    5.2509   24.8733   50.7775 C   0  0  0  0  0  0  0  0  0  0  0  0
    4.5415   24.2718   49.5731 C   0  0  0  0  0  0  0  0  0  0  0  0
    5.2499   22.9585   49.2658 C   0  0  0  0  0  0  0  0  0  0  0  0
    6.6053   23.9660   52.6137 C   0  0  0  0  0  0  0  0  0  0  0  0
    7.8824   23.7562   53.0270 O   0  0  0  0  0  0  0  0  0  0  0  0
    5.6605   23.9881   53.3766 O   0  0  0  0  0  0  0  0  0  0  0  0
    8.4907   23.7852   52.2580 H   0  0  0  0  0  0  0  0  0  0  0  0
    7.3085   20.2332   46.9812 C   0  0  0  0  0  0  0  0  0  0  0  0
    8.1500   21.4068   46.3947 C   0  0  0  0  0  0  0  0  0  0  0  0
    7.9122   22.0282   45.3666 O   0  0  0  0  0  0  0  0  0  0  0  0
    9.2104   21.6345   47.2221 O   0  0  0  0  0  0  0  0  0  0  0  0
    9.7043   22.9750   47.1969 C   0  0  0  0  0  0  0  0  0  0  0  0
    8.9059   23.7592   48.2204 C   0  0  0  0  0  0  0  0  0  0  0  0
    5.8603   20.5117   46.5504 C   0  0  0  0  0  0  0  0  0  0  0  0
    5.0808   19.2239   46.0984 C   0  0  0  0  0  0  0  0  0  0  0  0
    3.4998   17.9259   49.1698 C   0  0  0  0  0  0  0  0  0  0  0  0
    3.0350   19.1313   49.6960 C   0  0  0  0  0  0  0  0  0  0  0  0
    2.8571   20.2387   48.8669 C   0  0  0  0  0  0  0  0  0  0  0  0
    3.2775   20.1855   47.5433 C   0  0  0  0  0  0  0  0  0  0  0  0
    3.9519   19.0442   47.0933 C   0  0  0  0  0  0  0  0  0  0  0  0
    3.9222   17.8660   47.8478 C   0  0  0  0  0  0  0  0  0  0  0  0
 24 25  2  0  0  0
 25 26  1  0  0  0
 26 27  2  0  0  0
 27 28  1  0  0  0
 28 29  2  0  0  0
 28 23  1  0  0  0
 29 24  1  0  0  0
 23 22  1  0  0  0
 16 17  1  0  0  0
 16  1  1  0  0  0
 16 22  1  0  0  0
  1  2  1  0  0  0
 17 19  1  0  0  0
 17 18  2  0  0  0
 19 20  1  0  0  0
 20 21  1  0  0  0
  3  4  1  0  0  0
  3  5  1  0  0  0
  3  1  1  0  0  0
  5  6  1  0  0  0
  5  7  2  0  0  0
  6  8  1  0  0  0
  8  9  1  0  0  0
  8 12  1  0  0  0
  9 10  1  0  0  0
 10 11  1  0  0  0
 11  6  1  0  0  0
 12 13  1  0  0  0
 12 14  2  0  0  0
 13 15  1  0  0  0
M  END
> <minimizedAffinity>
-8.12584

$$$$
LEXXEL (enalapril maleate).cdx


 29 30  0  0  0  0  0  0  0  0999 V2000
    6.9814   22.5757   51.6799 N   0  0  0  0  0  0  0  0  0  0  0  0
    6.1789   23.0515   52.0945 H   0  0  0  0  0  0  0  0  0  0  0  0
    6.5570   21.2196   51.2902 C   0  0  0  0  0  0  0  0  0  0  0  0
    6.3106   20.2906   52.4811 C   0  0  0  0  0  0  0  0  0  0  0  0
    5.4240   21.1192   50.2257 C   0  0  0  0  0  0  0  0  0  0  0  0
    5.2651   19.9369   49.4928 N   0  0  0  0  0  0  0  0  0  0  0  0
    4.5651   22.0000   50.1336 O   0  0  0  0  0  0  0  0  0  0  0  0
    4.2802   19.8912   48.3882 C   0  0  0  0  0  0  0  0  0  0  0  0
    4.4597   18.4933   47.7820 C   0  0  0  0  0  0  0  0  0  0  0  0
    5.8210   17.9879   48.2370 C   0  0  0  0  0  0  0  0  0  0  0  0
    6.3651   19.0273   49.2089 C   0  0  0  0  0  0  0  0  0  0  0  0
    2.7809   20.0170   48.7247 C   0  0  0  0  0  0  0  0  0  0  0  0
    2.2540   21.2226   48.3858 O   0  0  0  0  0  0  0  0  0  0  0  0
    2.1699   19.1880   49.3687 O   0  0  0  0  0  0  0  0  0  0  0  0
    2.9055   21.7356   47.8618 H   0  0  0  0  0  0  0  0  0  0  0  0
    7.6860   23.5343   50.7916 C   0  0  0  0  0  0  0  0  0  0  0  0
    7.0466   24.9229   51.0959 C   0  0  0  0  0  0  0  0  0  0  0  0
    7.5527   26.0177   50.8838 O   0  0  0  0  0  0  0  0  0  0  0  0
    5.8144   24.7207   51.6450 O   0  0  0  0  0  0  0  0  0  0  0  0
    4.8738   25.7658   51.3909 C   0  0  0  0  0  0  0  0  0  0  0  0
    4.0982   25.3697   50.1493 C   0  0  0  0  0  0  0  0  0  0  0  0
    7.6673   23.4008   49.2611 C   0  0  0  0  0  0  0  0  0  0  0  0
    9.0948   23.4702   48.6071 C   0  0  0  0  0  0  0  0  0  0  0  0
   10.3812   21.5077   45.7591 C   0  0  0  0  0  0  0  0  0  0  0  0
    9.4622   20.4587   45.7907 C   0  0  0  0  0  0  0  0  0  0  0  0
    8.2285   20.6231   46.4203 C   0  0  0  0  0  0  0  0  0  0  0  0
    7.9694   21.7832   47.1403 C   0  0  0  0  0  0  0  0  0  0  0  0
    8.9908   22.7289   47.2896 C   0  0  0  0  0  0  0  0  0  0  0  0
   10.1287   22.6697   46.4772 C   0  0  0  0  0  0  0  0  0  0  0  0
 24 25  2  0  0  0
 25 26  1  0  0  0
 26 27  2  0  0  0
 27 28  1  0  0  0
 28 29  2  0  0  0
 28 23  1  0  0  0
 29 24  1  0  0  0
 23 22  1  0  0  0
 16 17  1  0  0  0
 16  1  1  0  0  0
 16 22  1  0  0  0
  1  2  1  0  0  0
 17 19  1  0  0  0
 17 18  2  0  0  0
 19 20  1  0  0  0
 20 21  1  0  0  0
  3  4  1  0  0  0
  3  5  1  0  0  0
  3  1  1  0  0  0
  5  6  1  0  0  0
  5  7  2  0  0  0
  6  8  1  0  0  0
  8  9  1  0  0  0
  8 12  1  0  0  0
  9 10  1  0  0  0
 10 11  1  0  0  0
 11  6  1  0  0  0
 12 13  1  0  0  0
 12 14  2  0  0  0
 13 15  1  0  0  0
M  END
> <minimizedAffinity>
-8.02200

$$$$
LEXXEL (enalapril maleate).cdx


 29 30  0  0  0  0  0  0  0  0999 V2000
    6.3799   19.6502   47.7713 N   0  0  0  0  0  0  0  0  0  0  0  0
    7.0782   20.3074   47.4208 H   0  0  0  0  0  0  0  0  0  0  0  0
    6.0798   20.0056   49.1694 C   0  0  0  0  0  0  0  0  0  0  0  0
    5.9866   18.7949   50.1010 C   0  0  0  0  0  0  0  0  0  0  0  0
    6.9177   21.1610   49.7938 C   0  0  0  0  0  0  0  0  0  0  0  0
    6.2675   22.2041   50.4642 N   0  0  0  0  0  0  0  0  0  0  0  0
    8.1480   21.0888   49.8502 O   0  0  0  0  0  0  0  0  0  0  0  0
    7.0518   23.3683   50.9350 C   0  0  0  0  0  0  0  0  0  0  0  0
    5.9997   24.3170   51.5240 C   0  0  0  0  0  0  0  0  0  0  0  0
    4.6544   23.8897   50.9554 C   0  0  0  0  0  0  0  0  0  0  0  0
    4.9083   22.6203   50.1522 C   0  0  0  0  0  0  0  0  0  0  0  0
    8.1001   23.1572   52.0457 C   0  0  0  0  0  0  0  0  0  0  0  0
    9.3486   22.9170   51.5667 O   0  0  0  0  0  0  0  0  0  0  0  0
    7.8147   23.0577   53.2220 O   0  0  0  0  0  0  0  0  0  0  0  0
    9.3670   23.0617   50.5966 H   0  0  0  0  0  0  0  0  0  0  0  0
    5.3627   19.4385   46.7107 C   0  0  0  0  0  0  0  0  0  0  0  0
    4.2571   20.5029   46.9833 C   0  0  0  0  0  0  0  0  0  0  0  0
    4.3309   21.7029   46.7500 O   0  0  0  0  0  0  0  0  0  0  0  0
    3.1778   19.8748   47.5320 O   0  0  0  0  0  0  0  0  0  0  0  0
    2.5661   20.5827   48.6119 C   0  0  0  0  0  0  0  0  0  0  0  0
    2.3957   19.5932   49.7485 C   0  0  0  0  0  0  0  0  0  0  0  0
    4.6166   18.1059   46.5436 C   0  0  0  0  0  0  0  0  0  0  0  0
    5.5361   16.8442   46.7255 C   0  0  0  0  0  0  0  0  0  0  0  0
    6.8532   15.4049   43.5932 C   0  0  0  0  0  0  0  0  0  0  0  0
    6.4218   14.0895   43.7651 C   0  0  0  0  0  0  0  0  0  0  0  0
    5.3731   13.8017   44.6386 C   0  0  0  0  0  0  0  0  0  0  0  0
    4.8511   14.8052   45.4459 C   0  0  0  0  0  0  0  0  0  0  0  0
    5.4508   16.0701   45.4255 C   0  0  0  0  0  0  0  0  0  0  0  0
    6.3360   16.4126   44.3974 C   0  0  0  0  0  0  0  0  0  0  0  0
 24 25  2  0  0  0
 25 26  1  0  0  0
 26 27  2  0  0  0
 27 28  1  0  0  0
 28 29  2  0  0  0
 28 23  1  0  0  0
 29 24  1  0  0  0
 23 22  1  0  0  0
 16 17  1  0  0  0
 16  1  1  0  0  0
 16 22  1  0  0  0
  1  2  1  0  0  0
 17 19  1  0  0  0
 17 18  2  0  0  0
 19 20  1  0  0  0
 20 21  1  0  0  0
  3  4  1  0  0  0
  3  5  1  0  0  0
  3  1  1  0  0  0
  5  6  1  0  0  0
  5  7  2  0  0  0
  6  8  1  0  0  0
  8  9  1  0  0  0
  8 12  1  0  0  0
  9 10  1  0  0  0
 10 11  1  0  0  0
 11  6  1  0  0  0
 12 13  1  0  0  0
 12 14  2  0  0  0
 13 15  1  0  0  0
M  END
> <minimizedAffinity>
-7.86921

$$$$
