Oclacitinib maleate.cdx


 25 27  0  0  0  0  0  0  0  0999 V2000
    4.6464   17.9799   46.2501 C   0  0  0  0  0  0  0  0  0  0  0  0
    4.1991   16.7010   46.9692 C   0  0  0  0  0  0  0  0  0  0  0  0
    4.1389   15.5106   46.0177 C   0  0  0  0  0  0  0  0  0  0  0  0
    5.4606   15.2860   45.2552 C   0  0  0  0  0  0  0  0  0  0  0  0
    5.9259   16.5865   44.5774 C   0  0  0  0  0  0  0  0  0  0  0  0
    5.9901   17.7776   45.5453 C   0  0  0  0  0  0  0  0  0  0  0  0
    4.5991   19.2156   47.0716 N   0  0  0  0  0  0  0  0  0  0  0  0
    3.5934   20.1803   46.6607 C   0  0  0  0  0  0  0  0  0  0  0  0
    6.5800   20.0242   48.0587 N   0  0  0  0  0  0  0  0  0  0  0  0
    7.4342   20.1554   49.0888 C   0  0  0  0  0  0  0  0  0  0  0  0
    7.2480   19.7766   50.3533 N   0  0  0  0  0  0  0  0  0  0  0  0
    6.0498   19.2053   50.5114 C   0  0  0  0  0  0  0  0  0  0  0  0
    5.0817   18.9620   49.5393 C   0  0  0  0  0  0  0  0  0  0  0  0
    5.3799   19.3865   48.2078 C   0  0  0  0  0  0  0  0  0  0  0  0
    5.6010   18.7587   51.7211 N   0  0  0  0  0  0  0  0  0  0  0  0
    4.3585   18.2143   51.5800 C   0  0  0  0  0  0  0  0  0  0  0  0
    4.0304   18.2854   50.2408 C   0  0  0  0  0  0  0  0  0  0  0  0
    6.1362   18.8360   52.5758 H   0  0  0  0  0  0  0  0  0  0  0  0
    5.2515   14.1233   44.2678 C   0  0  0  0  0  0  0  0  0  0  0  0
    6.3002   14.1751   42.8206 S   0  0  0  0  0  0  0  0  0  0  0  0
    5.6170   14.8678   41.7496 O   0  0  0  0  0  0  0  0  0  0  0  0
    7.6425   14.5216   43.2256 O   0  0  0  0  0  0  0  0  0  0  0  0
    6.3473   12.5298   42.3974 N   0  0  0  0  0  0  0  0  0  0  0  0
    5.2758   12.1316   41.4595 C   0  0  0  0  0  0  0  0  0  0  0  0
    7.2627   12.2928   42.0121 H   0  0  0  0  0  0  0  0  0  0  0  0
  9 10  2  0  0  0
 10 11  2  0  0  0
 11 12  2  0  0  0
 12 13  1  0  0  0
 12 15  1  0  0  0
 13 14  2  0  0  0
 14  9  2  0  0  0
 14  7  1  0  0  0
 15 16  1  0  0  0
 15 18  1  0  0  0
 16 17  2  0  0  0
 17 13  1  0  0  0
  7  8  1  0  0  0
  1  7  1  0  0  0
  1  2  1  0  0  0
  2  3  1  0  0  0
  3  4  1  0  0  0
  4  5  1  0  0  0
  4 19  1  0  0  0
  5  6  1  0  0  0
  6  1  1  0  0  0
 19 20  1  0  0  0
 20 23  1  0  0  0
 20 21  2  0  0  0
 20 22  2  0  0  0
 23 24  1  0  0  0
 23 25  1  0  0  0
M  END
> <minimizedAffinity>
-8.25363

$$$$
Oclacitinib maleate.cdx


 25 27  0  0  0  0  0  0  0  0999 V2000
    5.4777   20.1763   49.8606 C   0  0  0  0  0  0  0  0  0  0  0  0
    4.4263   20.6510   48.8497 C   0  0  0  0  0  0  0  0  0  0  0  0
    4.7007   20.1054   47.4522 C   0  0  0  0  0  0  0  0  0  0  0  0
    4.8429   18.5699   47.4262 C   0  0  0  0  0  0  0  0  0  0  0  0
    5.8642   18.0998   48.4765 C   0  0  0  0  0  0  0  0  0  0  0  0
    5.5751   18.6487   49.8818 C   0  0  0  0  0  0  0  0  0  0  0  0
    5.3651   20.7722   51.2157 N   0  0  0  0  0  0  0  0  0  0  0  0
    4.6680   19.9463   52.1866 C   0  0  0  0  0  0  0  0  0  0  0  0
    7.2761   21.9285   51.9660 N   0  0  0  0  0  0  0  0  0  0  0  0
    7.9131   23.0328   52.3935 C   0  0  0  0  0  0  0  0  0  0  0  0
    7.4452   24.2806   52.4260 N   0  0  0  0  0  0  0  0  0  0  0  0
    6.1901   24.3344   51.9689 C   0  0  0  0  0  0  0  0  0  0  0  0
    5.3904   23.2790   51.5351 C   0  0  0  0  0  0  0  0  0  0  0  0
    5.9730   21.9743   51.5549 C   0  0  0  0  0  0  0  0  0  0  0  0
    5.4927   25.5038   51.8681 N   0  0  0  0  0  0  0  0  0  0  0  0
    4.2418   25.2550   51.3849 C   0  0  0  0  0  0  0  0  0  0  0  0
    4.1344   23.8895   51.2117 C   0  0  0  0  0  0  0  0  0  0  0  0
    5.8770   26.4041   52.1224 H   0  0  0  0  0  0  0  0  0  0  0  0
    5.2046   18.1474   45.9904 C   0  0  0  0  0  0  0  0  0  0  0  0
    4.9790   16.4077   45.6449 S   0  0  0  0  0  0  0  0  0  0  0  0
    6.1985   15.6899   45.9467 O   0  0  0  0  0  0  0  0  0  0  0  0
    3.6952   15.9897   46.1578 O   0  0  0  0  0  0  0  0  0  0  0  0
    4.8231   16.4325   43.9528 N   0  0  0  0  0  0  0  0  0  0  0  0
    5.5277   15.3204   43.2796 C   0  0  0  0  0  0  0  0  0  0  0  0
    3.8360   16.4375   43.6914 H   0  0  0  0  0  0  0  0  0  0  0  0
  9 10  2  0  0  0
 10 11  2  0  0  0
 11 12  2  0  0  0
 12 13  1  0  0  0
 12 15  1  0  0  0
 13 14  2  0  0  0
 14  9  2  0  0  0
 14  7  1  0  0  0
 15 16  1  0  0  0
 15 18  1  0  0  0
 16 17  2  0  0  0
 17 13  1  0  0  0
  7  8  1  0  0  0
  1  7  1  0  0  0
  1  2  1  0  0  0
  2  3  1  0  0  0
  3  4  1  0  0  0
  4  5  1  0  0  0
  4 19  1  0  0  0
  5  6  1  0  0  0
  6  1  1  0  0  0
 19 20  1  0  0  0
 20 23  1  0  0  0
 20 21  2  0  0  0
 20 22  2  0  0  0
 23 24  1  0  0  0
 23 25  1  0  0  0
M  END
> <minimizedAffinity>
-7.98581

$$$$
Oclacitinib maleate.cdx


 25 27  0  0  0  0  0  0  0  0999 V2000
    4.0564   18.6246   47.6699 C   0  0  0  0  0  0  0  0  0  0  0  0
    4.0566   17.0985   47.8236 C   0  0  0  0  0  0  0  0  0  0  0  0
    4.0807   16.3953   46.4704 C   0  0  0  0  0  0  0  0  0  0  0  0
    5.2444   16.8635   45.5730 C   0  0  0  0  0  0  0  0  0  0  0  0
    5.2645   18.3980   45.4640 C   0  0  0  0  0  0  0  0  0  0  0  0
    5.2473   19.0967   46.8320 C   0  0  0  0  0  0  0  0  0  0  0  0
    3.8941   19.3864   48.9338 N   0  0  0  0  0  0  0  0  0  0  0  0
    2.5318   19.4495   49.4346 C   0  0  0  0  0  0  0  0  0  0  0  0
    5.7521   19.0230   50.3366 N   0  0  0  0  0  0  0  0  0  0  0  0
    6.7649   19.4483   51.1120 C   0  0  0  0  0  0  0  0  0  0  0  0
    7.1984   20.6989   51.2704 N   0  0  0  0  0  0  0  0  0  0  0  0
    6.4746   21.5536   50.5405 C   0  0  0  0  0  0  0  0  0  0  0  0
    5.3777   21.2715   49.7289 C   0  0  0  0  0  0  0  0  0  0  0  0
    4.9746   19.9036   49.6371 C   0  0  0  0  0  0  0  0  0  0  0  0
    6.7362   22.8930   50.5012 N   0  0  0  0  0  0  0  0  0  0  0  0
    5.8347   23.5156   49.6889 C   0  0  0  0  0  0  0  0  0  0  0  0
    4.9592   22.5500   49.2336 C   0  0  0  0  0  0  0  0  0  0  0  0
    7.4944   23.3267   51.0108 H   0  0  0  0  0  0  0  0  0  0  0  0
    5.1131   16.1561   44.2117 C   0  0  0  0  0  0  0  0  0  0  0  0
    6.4227   14.9958   43.8440 S   0  0  0  0  0  0  0  0  0  0  0  0
    7.4725   15.6651   43.1067 O   0  0  0  0  0  0  0  0  0  0  0  0
    6.6954   14.2065   45.0224 O   0  0  0  0  0  0  0  0  0  0  0  0
    5.6357   13.9560   42.7541 N   0  0  0  0  0  0  0  0  0  0  0  0
    5.4935   14.5237   41.3962 C   0  0  0  0  0  0  0  0  0  0  0  0
    6.1197   13.0577   42.7146 H   0  0  0  0  0  0  0  0  0  0  0  0
  9 10  2  0  0  0
 10 11  2  0  0  0
 11 12  2  0  0  0
 12 13  1  0  0  0
 12 15  1  0  0  0
 13 14  2  0  0  0
 14  9  2  0  0  0
 14  7  1  0  0  0
 15 16  1  0  0  0
 15 18  1  0  0  0
 16 17  2  0  0  0
 17 13  1  0  0  0
  7  8  1  0  0  0
  1  7  1  0  0  0
  1  2  1  0  0  0
  2  3  1  0  0  0
  3  4  1  0  0  0
  4  5  1  0  0  0
  4 19  1  0  0  0
  5  6  1  0  0  0
  6  1  1  0  0  0
 19 20  1  0  0  0
 20 23  1  0  0  0
 20 21  2  0  0  0
 20 22  2  0  0  0
 23 24  1  0  0  0
 23 25  1  0  0  0
M  END
> <minimizedAffinity>
-7.98136

$$$$
Oclacitinib maleate.cdx


 25 27  0  0  0  0  0  0  0  0999 V2000
    4.9931   17.3567   47.1246 C   0  0  0  0  0  0  0  0  0  0  0  0
    5.8828   17.5708   45.8937 C   0  0  0  0  0  0  0  0  0  0  0  0
    6.2532   16.2492   45.2285 C   0  0  0  0  0  0  0  0  0  0  0  0
    5.0217   15.3881   44.8809 C   0  0  0  0  0  0  0  0  0  0  0  0
    4.1111   15.2192   46.1095 C   0  0  0  0  0  0  0  0  0  0  0  0
    3.7381   16.5560   46.7679 C   0  0  0  0  0  0  0  0  0  0  0  0
    4.6997   18.5804   47.9122 N   0  0  0  0  0  0  0  0  0  0  0  0
    3.3401   19.0756   47.7818 C   0  0  0  0  0  0  0  0  0  0  0  0
    5.5741   18.7421   50.0942 N   0  0  0  0  0  0  0  0  0  0  0  0
    6.3709   19.2980   51.0238 C   0  0  0  0  0  0  0  0  0  0  0  0
    7.3185   20.2172   50.8386 N   0  0  0  0  0  0  0  0  0  0  0  0
    7.4031   20.5662   49.5509 C   0  0  0  0  0  0  0  0  0  0  0  0
    6.6243   20.1140   48.4878 C   0  0  0  0  0  0  0  0  0  0  0  0
    5.6200   19.1425   48.7878 C   0  0  0  0  0  0  0  0  0  0  0  0
    8.3189   21.4686   49.0914 N   0  0  0  0  0  0  0  0  0  0  0  0
    8.1658   21.6374   47.7467 C   0  0  0  0  0  0  0  0  0  0  0  0
    7.1020   20.8498   47.3540 C   0  0  0  0  0  0  0  0  0  0  0  0
    8.9966   21.9255   49.6870 H   0  0  0  0  0  0  0  0  0  0  0  0
    5.5208   14.0515   44.3021 C   0  0  0  0  0  0  0  0  0  0  0  0
    6.2559   14.1700   42.6766 S   0  0  0  0  0  0  0  0  0  0  0  0
    5.3616   14.8815   41.7891 O   0  0  0  0  0  0  0  0  0  0  0  0
    7.6474   14.5312   42.8156 O   0  0  0  0  0  0  0  0  0  0  0  0
    6.2397   12.5400   42.1957 N   0  0  0  0  0  0  0  0  0  0  0  0
    5.1950   12.2308   41.1959 C   0  0  0  0  0  0  0  0  0  0  0  0
    7.1591   12.2688   41.8439 H   0  0  0  0  0  0  0  0  0  0  0  0
  9 10  2  0  0  0
 10 11  2  0  0  0
 11 12  2  0  0  0
 12 13  1  0  0  0
 12 15  1  0  0  0
 13 14  2  0  0  0
 14  9  2  0  0  0
 14  7  1  0  0  0
 15 16  1  0  0  0
 15 18  1  0  0  0
 16 17  2  0  0  0
 17 13  1  0  0  0
  7  8  1  0  0  0
  1  7  1  0  0  0
  1  2  1  0  0  0
  2  3  1  0  0  0
  3  4  1  0  0  0
  4  5  1  0  0  0
  4 19  1  0  0  0
  5  6  1  0  0  0
  6  1  1  0  0  0
 19 20  1  0  0  0
 20 23  1  0  0  0
 20 21  2  0  0  0
 20 22  2  0  0  0
 23 24  1  0  0  0
 23 25  1  0  0  0
M  END
> <minimizedAffinity>
-7.81449

$$$$
Oclacitinib maleate.cdx


 25 27  0  0  0  0  0  0  0  0999 V2000
    4.8954   17.4810   46.9491 C   0  0  0  0  0  0  0  0  0  0  0  0
    5.7276   17.7105   45.6812 C   0  0  0  0  0  0  0  0  0  0  0  0
    6.1897   16.3946   45.0640 C   0  0  0  0  0  0  0  0  0  0  0  0
    5.0265   15.4180   44.7958 C   0  0  0  0  0  0  0  0  0  0  0  0
    4.1696   15.2317   46.0599 C   0  0  0  0  0  0  0  0  0  0  0  0
    3.7033   16.5622   46.6699 C   0  0  0  0  0  0  0  0  0  0  0  0
    4.5218   18.7118   47.6905 N   0  0  0  0  0  0  0  0  0  0  0  0
    3.8354   19.7154   46.8953 C   0  0  0  0  0  0  0  0  0  0  0  0
    3.8639   18.1694   49.8871 N   0  0  0  0  0  0  0  0  0  0  0  0
    3.9276   18.3111   51.2227 C   0  0  0  0  0  0  0  0  0  0  0  0
    4.8068   19.0271   51.9238 N   0  0  0  0  0  0  0  0  0  0  0  0
    5.6767   19.6424   51.1165 C   0  0  0  0  0  0  0  0  0  0  0  0
    5.7119   19.6266   49.7237 C   0  0  0  0  0  0  0  0  0  0  0  0
    4.7161   18.8460   49.0594 C   0  0  0  0  0  0  0  0  0  0  0  0
    6.7001   20.4135   51.5879 N   0  0  0  0  0  0  0  0  0  0  0  0
    7.4145   20.9212   50.5430 C   0  0  0  0  0  0  0  0  0  0  0  0
    6.8041   20.4900   49.3822 C   0  0  0  0  0  0  0  0  0  0  0  0
    6.8744   20.5646   52.5726 H   0  0  0  0  0  0  0  0  0  0  0  0
    5.6206   14.1020   44.2611 C   0  0  0  0  0  0  0  0  0  0  0  0
    6.3243   14.2126   42.6212 S   0  0  0  0  0  0  0  0  0  0  0  0
    5.3858   14.8622   41.7320 O   0  0  0  0  0  0  0  0  0  0  0  0
    7.7005   14.6377   42.7284 O   0  0  0  0  0  0  0  0  0  0  0  0
    6.3728   12.5721   42.1797 N   0  0  0  0  0  0  0  0  0  0  0  0
    5.4602   12.2343   41.0664 C   0  0  0  0  0  0  0  0  0  0  0  0
    7.3294   12.2987   41.9502 H   0  0  0  0  0  0  0  0  0  0  0  0
  9 10  2  0  0  0
 10 11  2  0  0  0
 11 12  2  0  0  0
 12 13  1  0  0  0
 12 15  1  0  0  0
 13 14  2  0  0  0
 14  9  2  0  0  0
 14  7  1  0  0  0
 15 16  1  0  0  0
 15 18  1  0  0  0
 16 17  2  0  0  0
 17 13  1  0  0  0
  7  8  1  0  0  0
  1  7  1  0  0  0
  1  2  1  0  0  0
  2  3  1  0  0  0
  3  4  1  0  0  0
  4  5  1  0  0  0
  4 19  1  0  0  0
  5  6  1  0  0  0
  6  1  1  0  0  0
 19 20  1  0  0  0
 20 23  1  0  0  0
 20 21  2  0  0  0
 20 22  2  0  0  0
 23 24  1  0  0  0
 23 25  1  0  0  0
M  END
> <minimizedAffinity>
-7.69534

$$$$
