PF-6260933


 24 26  0  0  0  0  0  0  0  0999 V2000
    4.8164   18.8810   51.6135 C   0  0  0  0  0  0  0  0  0  0  0  0
    5.0738   19.3218   50.3029 C   0  0  0  0  0  0  0  0  0  0  0  0
    5.4407   20.6816   50.1808 C   0  0  0  0  0  0  0  0  0  0  0  0
    5.5227   21.5535   51.2794 C   0  0  0  0  0  0  0  0  0  0  0  0
    5.2067   20.9805   52.5066 C   0  0  0  0  0  0  0  0  0  0  0  0
    4.8677   19.6842   52.6948 N   0  0  0  0  0  0  0  0  0  0  0  0
    4.4610   17.5688   51.9211 N   0  0  0  0  0  0  0  0  0  0  0  0
    4.4007   17.5098   52.9343 H   0  0  0  0  0  0  0  0  0  0  0  0
    5.1248   16.9084   51.5326 H   0  0  0  0  0  0  0  0  0  0  0  0
    7.1048   23.4797   51.6537 C   0  0  0  0  0  0  0  0  0  0  0  0
    5.9131   22.9700   51.1350 C   0  0  0  0  0  0  0  0  0  0  0  0
    5.1196   23.9032   50.4542 C   0  0  0  0  0  0  0  0  0  0  0  0
    5.5323   25.2297   50.3193 C   0  0  0  0  0  0  0  0  0  0  0  0
    6.7297   25.6215   50.8889 C   0  0  0  0  0  0  0  0  0  0  0  0
    7.5263   24.7682   51.5479 N   0  0  0  0  0  0  0  0  0  0  0  0
    7.1837   26.9299   50.7573 N   0  0  0  0  0  0  0  0  0  0  0  0
    8.0462   27.0003   51.2922 H   0  0  0  0  0  0  0  0  0  0  0  0
    6.4912   27.6005   51.0681 H   0  0  0  0  0  0  0  0  0  0  0  0
    4.9764   18.4634   49.0867 C   0  0  0  0  0  0  0  0  0  0  0  0
    3.7385   18.0326   48.5741 C   0  0  0  0  0  0  0  0  0  0  0  0
    3.6504   17.2273   47.4335 C   0  0  0  0  0  0  0  0  0  0  0  0
    4.8016   16.8618   46.7467 C   0  0  0  0  0  0  0  0  0  0  0  0
    6.0401   17.2908   47.2092 C   0  0  0  0  0  0  0  0  0  0  0  0
    6.1253   18.0681   48.3703 C   0  0  0  0  0  0  0  0  0  0  0  0
  1  2  2  0  0  0
  1  6  2  0  0  0
  1  7  1  0  0  0
  2  3  1  0  0  0
  2 19  1  0  0  0
  3  4  2  0  0  0
  4  5  1  0  0  0
  4 11  1  0  0  0
  5  6  2  0  0  0
  7  8  1  0  0  0
  7  9  1  0  0  0
 19 20  2  0  0  0
 19 24  1  0  0  0
 20 21  1  0  0  0
 21 22  2  0  0  0
 22 23  1  0  0  0
 23 24  2  0  0  0
 10 11  2  0  0  0
 10 15  2  0  0  0
 11 12  1  0  0  0
 12 13  2  0  0  0
 13 14  1  0  0  0
 14 15  2  0  0  0
 14 16  1  0  0  0
 16 17  1  0  0  0
 16 18  1  0  0  0
M  END
> <minimizedAffinity>
-9.00537

$$$$
PF-6260933


 24 26  0  0  0  0  0  0  0  0999 V2000
    6.3716   22.5331   51.8583 C   0  0  0  0  0  0  0  0  0  0  0  0
    5.5688   22.8811   50.7571 C   0  0  0  0  0  0  0  0  0  0  0  0
    5.2001   21.8096   49.9119 C   0  0  0  0  0  0  0  0  0  0  0  0
    5.6187   20.4859   50.1278 C   0  0  0  0  0  0  0  0  0  0  0  0
    6.4360   20.3040   51.2383 C   0  0  0  0  0  0  0  0  0  0  0  0
    6.8095   21.2808   52.0967 N   0  0  0  0  0  0  0  0  0  0  0  0
    6.8121   23.4577   52.8038 N   0  0  0  0  0  0  0  0  0  0  0  0
    7.3111   22.9336   53.5179 H   0  0  0  0  0  0  0  0  0  0  0  0
    6.0382   23.9911   53.1834 H   0  0  0  0  0  0  0  0  0  0  0  0
    3.8866   19.1045   48.9257 C   0  0  0  0  0  0  0  0  0  0  0  0
    5.2196   19.3772   49.2382 C   0  0  0  0  0  0  0  0  0  0  0  0
    6.1533   18.5256   48.6324 C   0  0  0  0  0  0  0  0  0  0  0  0
    5.7391   17.5013   47.7796 C   0  0  0  0  0  0  0  0  0  0  0  0
    4.3868   17.3196   47.5559 C   0  0  0  0  0  0  0  0  0  0  0  0
    3.4537   18.1075   48.1087 N   0  0  0  0  0  0  0  0  0  0  0  0
    3.9373   16.3227   46.6959 N   0  0  0  0  0  0  0  0  0  0  0  0
    2.9206   16.3414   46.7250 H   0  0  0  0  0  0  0  0  0  0  0  0
    4.3054   15.4139   46.9499 H   0  0  0  0  0  0  0  0  0  0  0  0
    5.1124   24.2670   50.4466 C   0  0  0  0  0  0  0  0  0  0  0  0
    5.9646   25.2191   49.8564 C   0  0  0  0  0  0  0  0  0  0  0  0
    5.5337   26.5182   49.5668 C   0  0  0  0  0  0  0  0  0  0  0  0
    4.2202   26.8914   49.8237 C   0  0  0  0  0  0  0  0  0  0  0  0
    3.3431   25.9691   50.3822 C   0  0  0  0  0  0  0  0  0  0  0  0
    3.7883   24.6809   50.7016 C   0  0  0  0  0  0  0  0  0  0  0  0
  1  2  2  0  0  0
  1  6  2  0  0  0
  1  7  1  0  0  0
  2  3  1  0  0  0
  2 19  1  0  0  0
  3  4  2  0  0  0
  4  5  1  0  0  0
  4 11  1  0  0  0
  5  6  2  0  0  0
  7  8  1  0  0  0
  7  9  1  0  0  0
 19 20  2  0  0  0
 19 24  1  0  0  0
 20 21  1  0  0  0
 21 22  2  0  0  0
 22 23  1  0  0  0
 23 24  2  0  0  0
 10 11  2  0  0  0
 10 15  2  0  0  0
 11 12  1  0  0  0
 12 13  2  0  0  0
 13 14  1  0  0  0
 14 15  2  0  0  0
 14 16  1  0  0  0
 16 17  1  0  0  0
 16 18  1  0  0  0
M  END
> <minimizedAffinity>
-8.27916

$$$$
PF-6260933


 24 26  0  0  0  0  0  0  0  0999 V2000
    4.8538   19.6201   46.8989 C   0  0  0  0  0  0  0  0  0  0  0  0
    5.1265   18.5222   47.7348 C   0  0  0  0  0  0  0  0  0  0  0  0
    5.4368   17.3145   47.0688 C   0  0  0  0  0  0  0  0  0  0  0  0
    5.4515   17.1946   45.6691 C   0  0  0  0  0  0  0  0  0  0  0  0
    5.1283   18.3576   44.9783 C   0  0  0  0  0  0  0  0  0  0  0  0
    4.8411   19.5484   45.5529 N   0  0  0  0  0  0  0  0  0  0  0  0
    4.5478   20.8906   47.3836 N   0  0  0  0  0  0  0  0  0  0  0  0
    4.4632   21.5016   46.5754 H   0  0  0  0  0  0  0  0  0  0  0  0
    5.2499   21.2112   48.0408 H   0  0  0  0  0  0  0  0  0  0  0  0
    5.0967   14.7368   45.2371 C   0  0  0  0  0  0  0  0  0  0  0  0
    5.7835   15.9267   44.9894 C   0  0  0  0  0  0  0  0  0  0  0  0
    6.8055   15.8298   44.0353 C   0  0  0  0  0  0  0  0  0  0  0  0
    7.0760   14.6182   43.3975 C   0  0  0  0  0  0  0  0  0  0  0  0
    6.3352   13.5010   43.7366 C   0  0  0  0  0  0  0  0  0  0  0  0
    5.3459   13.5407   44.6403 N   0  0  0  0  0  0  0  0  0  0  0  0
    6.5620   12.2812   43.1072 N   0  0  0  0  0  0  0  0  0  0  0  0
    5.9459   11.6012   43.5464 H   0  0  0  0  0  0  0  0  0  0  0  0
    7.5342   12.0033   43.1667 H   0  0  0  0  0  0  0  0  0  0  0  0
    5.0990   18.5662   49.2257 C   0  0  0  0  0  0  0  0  0  0  0  0
    6.1765   19.0704   49.9777 C   0  0  0  0  0  0  0  0  0  0  0  0
    6.1478   19.1100   51.3760 C   0  0  0  0  0  0  0  0  0  0  0  0
    5.0189   18.6815   52.0633 C   0  0  0  0  0  0  0  0  0  0  0  0
    3.9254   18.2015   51.3520 C   0  0  0  0  0  0  0  0  0  0  0  0
    3.9721   18.1321   49.9546 C   0  0  0  0  0  0  0  0  0  0  0  0
  1  2  2  0  0  0
  1  6  2  0  0  0
  1  7  1  0  0  0
  2  3  1  0  0  0
  2 19  1  0  0  0
  3  4  2  0  0  0
  4  5  1  0  0  0
  4 11  1  0  0  0
  5  6  2  0  0  0
  7  8  1  0  0  0
  7  9  1  0  0  0
 19 20  2  0  0  0
 19 24  1  0  0  0
 20 21  1  0  0  0
 21 22  2  0  0  0
 22 23  1  0  0  0
 23 24  2  0  0  0
 10 11  2  0  0  0
 10 15  2  0  0  0
 11 12  1  0  0  0
 12 13  2  0  0  0
 13 14  1  0  0  0
 14 15  2  0  0  0
 14 16  1  0  0  0
 16 17  1  0  0  0
 16 18  1  0  0  0
M  END
> <minimizedAffinity>
-8.15877

$$$$
PF-6260933


 24 26  0  0  0  0  0  0  0  0999 V2000
    4.7006   20.9425   47.8290 C   0  0  0  0  0  0  0  0  0  0  0  0
    5.0009   19.8243   48.6275 C   0  0  0  0  0  0  0  0  0  0  0  0
    5.1431   18.6019   47.9317 C   0  0  0  0  0  0  0  0  0  0  0  0
    4.9745   18.4889   46.5415 C   0  0  0  0  0  0  0  0  0  0  0  0
    4.6467   19.6748   45.8930 C   0  0  0  0  0  0  0  0  0  0  0  0
    4.5148   20.8791   46.4953 N   0  0  0  0  0  0  0  0  0  0  0  0
    4.5443   22.2281   48.3442 N   0  0  0  0  0  0  0  0  0  0  0  0
    4.4007   22.8478   47.5511 H   0  0  0  0  0  0  0  0  0  0  0  0
    5.3431   22.4971   48.9074 H   0  0  0  0  0  0  0  0  0  0  0  0
    6.0719   17.0173   44.8142 C   0  0  0  0  0  0  0  0  0  0  0  0
    5.1323   17.2052   45.8295 C   0  0  0  0  0  0  0  0  0  0  0  0
    4.3571   16.0773   46.1314 C   0  0  0  0  0  0  0  0  0  0  0  0
    4.5501   14.8740   45.4511 C   0  0  0  0  0  0  0  0  0  0  0  0
    5.5048   14.8127   44.4528 C   0  0  0  0  0  0  0  0  0  0  0  0
    6.2736   15.8614   44.1271 N   0  0  0  0  0  0  0  0  0  0  0  0
    5.7398   13.6251   43.7675 N   0  0  0  0  0  0  0  0  0  0  0  0
    6.4372   13.8264   43.0547 H   0  0  0  0  0  0  0  0  0  0  0  0
    4.8892   13.2481   43.3672 H   0  0  0  0  0  0  0  0  0  0  0  0
    5.1632   19.8619   50.1100 C   0  0  0  0  0  0  0  0  0  0  0  0
    6.3481   20.3141   50.7201 C   0  0  0  0  0  0  0  0  0  0  0  0
    6.4973   20.3479   52.1108 C   0  0  0  0  0  0  0  0  0  0  0  0
    5.4459   19.9664   52.9350 C   0  0  0  0  0  0  0  0  0  0  0  0
    4.2513   19.5389   52.3673 C   0  0  0  0  0  0  0  0  0  0  0  0
    4.1188   19.4746   50.9752 C   0  0  0  0  0  0  0  0  0  0  0  0
  1  2  2  0  0  0
  1  6  2  0  0  0
  1  7  1  0  0  0
  2  3  1  0  0  0
  2 19  1  0  0  0
  3  4  2  0  0  0
  4  5  1  0  0  0
  4 11  1  0  0  0
  5  6  2  0  0  0
  7  8  1  0  0  0
  7  9  1  0  0  0
 19 20  2  0  0  0
 19 24  1  0  0  0
 20 21  1  0  0  0
 21 22  2  0  0  0
 22 23  1  0  0  0
 23 24  2  0  0  0
 10 11  2  0  0  0
 10 15  2  0  0  0
 11 12  1  0  0  0
 12 13  2  0  0  0
 13 14  1  0  0  0
 14 15  2  0  0  0
 14 16  1  0  0  0
 16 17  1  0  0  0
 16 18  1  0  0  0
M  END
> <minimizedAffinity>
-7.99808

$$$$
PF-6260933


 24 26  0  0  0  0  0  0  0  0999 V2000
    4.4476   18.4010   47.8656 C   0  0  0  0  0  0  0  0  0  0  0  0
    5.6913   18.6092   47.2425 C   0  0  0  0  0  0  0  0  0  0  0  0
    6.0496   17.6507   46.2671 C   0  0  0  0  0  0  0  0  0  0  0  0
    5.2426   16.5460   45.9474 C   0  0  0  0  0  0  0  0  0  0  0  0
    4.0585   16.4567   46.6713 C   0  0  0  0  0  0  0  0  0  0  0  0
    3.6478   17.3483   47.6025 N   0  0  0  0  0  0  0  0  0  0  0  0
    3.9278   19.2559   48.8360 N   0  0  0  0  0  0  0  0  0  0  0  0
    2.9988   18.9118   49.0646 H   0  0  0  0  0  0  0  0  0  0  0  0
    3.9169   20.2161   48.5109 H   0  0  0  0  0  0  0  0  0  0  0  0
    5.1568   14.2434   44.9255 C   0  0  0  0  0  0  0  0  0  0  0  0
    5.6294   15.5570   44.9216 C   0  0  0  0  0  0  0  0  0  0  0  0
    6.4902   15.8708   43.8611 C   0  0  0  0  0  0  0  0  0  0  0  0
    6.8159   14.9150   42.8976 C   0  0  0  0  0  0  0  0  0  0  0  0
    6.2953   13.6394   43.0146 C   0  0  0  0  0  0  0  0  0  0  0  0
    5.4661   13.2889   44.0078 N   0  0  0  0  0  0  0  0  0  0  0  0
    6.5807   12.6663   42.0622 N   0  0  0  0  0  0  0  0  0  0  0  0
    6.1393   11.8051   42.3758 H   0  0  0  0  0  0  0  0  0  0  0  0
    7.5784   12.5523   41.9295 H   0  0  0  0  0  0  0  0  0  0  0  0
    6.6143   19.7395   47.5520 C   0  0  0  0  0  0  0  0  0  0  0  0
    7.1454   19.9385   48.8400 C   0  0  0  0  0  0  0  0  0  0  0  0
    8.0106   20.9998   49.1272 C   0  0  0  0  0  0  0  0  0  0  0  0
    8.4028   21.8727   48.1198 C   0  0  0  0  0  0  0  0  0  0  0  0
    7.9185   21.6912   46.8297 C   0  0  0  0  0  0  0  0  0  0  0  0
    7.0263   20.6481   46.5548 C   0  0  0  0  0  0  0  0  0  0  0  0
  1  2  2  0  0  0
  1  6  2  0  0  0
  1  7  1  0  0  0
  2  3  1  0  0  0
  2 19  1  0  0  0
  3  4  2  0  0  0
  4  5  1  0  0  0
  4 11  1  0  0  0
  5  6  2  0  0  0
  7  8  1  0  0  0
  7  9  1  0  0  0
 19 20  2  0  0  0
 19 24  1  0  0  0
 20 21  1  0  0  0
 21 22  2  0  0  0
 22 23  1  0  0  0
 23 24  2  0  0  0
 10 11  2  0  0  0
 10 15  2  0  0  0
 11 12  1  0  0  0
 12 13  2  0  0  0
 13 14  1  0  0  0
 14 15  2  0  0  0
 14 16  1  0  0  0
 16 17  1  0  0  0
 16 18  1  0  0  0
M  END
> <minimizedAffinity>
-7.96462

$$$$
