PIK-294.cdx


 40 45  0  0  0  0  0  0  0  0999 V2000
    9.3261   22.2464   47.6078 N   0  0  0  0  0  0  0  0  0  0  0  0
    9.0566   21.4889   46.5266 C   0  0  0  0  0  0  0  0  0  0  0  0
    7.8829   20.9735   46.1647 N   0  0  0  0  0  0  0  0  0  0  0  0
    6.8987   21.3628   46.9933 C   0  0  0  0  0  0  0  0  0  0  0  0
    7.0104   22.1538   48.1245 C   0  0  0  0  0  0  0  0  0  0  0  0
    8.3152   22.5688   48.4351 C   0  0  0  0  0  0  0  0  0  0  0  0
    5.5820   21.0538   46.8771 N   0  0  0  0  0  0  0  0  0  0  0  0
    4.8214   21.5345   47.8824 N   0  0  0  0  0  0  0  0  0  0  0  0
    5.6705   22.2560   48.6234 C   0  0  0  0  0  0  0  0  0  0  0  0
    8.6768   23.2730   49.5810 N   0  0  0  0  0  0  0  0  0  0  0  0
    8.1698   22.9717   50.4064 H   0  0  0  0  0  0  0  0  0  0  0  0
    9.6896   23.2283   49.6715 H   0  0  0  0  0  0  0  0  0  0  0  0
    5.1522   22.9854   49.7838 C   0  0  0  0  0  0  0  0  0  0  0  0
    4.2391   24.0327   49.6211 C   0  0  0  0  0  0  0  0  0  0  0  0
    3.8076   24.7654   50.7379 C   0  0  0  0  0  0  0  0  0  0  0  0
    4.2205   24.4197   52.0079 C   0  0  0  0  0  0  0  0  0  0  0  0
    5.0760   23.3442   52.1905 C   0  0  0  0  0  0  0  0  0  0  0  0
    5.5529   22.6240   51.0860 C   0  0  0  0  0  0  0  0  0  0  0  0
    2.9858   25.8550   50.5711 O   0  0  0  0  0  0  0  0  0  0  0  0
    2.9072   26.0449   49.6310 H   0  0  0  0  0  0  0  0  0  0  0  0
    4.9800   20.2090   45.8866 C   0  0  0  0  0  0  0  0  0  0  0  0
    5.3122   18.7089   46.0118 C   0  0  0  0  0  0  0  0  0  0  0  0
    4.3667   17.9345   46.6456 N   0  0  0  0  0  0  0  0  0  0  0  0
    4.0690   16.6756   46.0950 C   0  0  0  0  0  0  0  0  0  0  0  0
    4.8233   16.4189   44.8180 C   0  0  0  0  0  0  0  0  0  0  0  0
    6.1229   16.8484   44.9945 C   0  0  0  0  0  0  0  0  0  0  0  0
    6.2800   18.2150   45.2996 N   0  0  0  0  0  0  0  0  0  0  0  0
    3.3665   15.8097   46.5753 O   0  0  0  0  0  0  0  0  0  0  0  0
    4.5304   15.6058   43.7193 C   0  0  0  0  0  0  0  0  0  0  0  0
    5.5747   14.8474   43.1421 C   0  0  0  0  0  0  0  0  0  0  0  0
    6.8843   15.1450   43.4723 C   0  0  0  0  0  0  0  0  0  0  0  0
    7.1542   16.0768   44.4728 C   0  0  0  0  0  0  0  0  0  0  0  0
    3.7761   16.3060   42.5696 C   0  0  0  0  0  0  0  0  0  0  0  0
    4.1714   18.1736   48.0751 C   0  0  0  0  0  0  0  0  0  0  0  0
    5.2326   18.2342   49.0090 C   0  0  0  0  0  0  0  0  0  0  0  0
    4.9386   18.5021   50.3695 C   0  0  0  0  0  0  0  0  0  0  0  0
    3.6414   18.7803   50.7835 C   0  0  0  0  0  0  0  0  0  0  0  0
    2.6176   18.7967   49.8480 C   0  0  0  0  0  0  0  0  0  0  0  0
    2.8741   18.4913   48.5065 C   0  0  0  0  0  0  0  0  0  0  0  0
    6.6943   18.0492   48.6966 C   0  0  0  0  0  0  0  0  0  0  0  0
  1  2  2  0  0  0
  2  3  2  0  0  0
  3  4  2  0  0  0
  4  5  1  0  0  0
  4  7  1  0  0  0
  5  6  2  0  0  0
  6  1  2  0  0  0
  6 10  1  0  0  0
  7  8  1  0  0  0
  7 21  1  0  0  0
  8  9  2  0  0  0
  9  5  1  0  0  0
  9 13  1  0  0  0
 10 11  1  0  0  0
 10 12  1  0  0  0
 21 22  1  0  0  0
 13 14  2  0  0  0
 14 15  1  0  0  0
 15 16  2  0  0  0
 15 19  1  0  0  0
 16 17  1  0  0  0
 17 18  2  0  0  0
 18 13  1  0  0  0
 19 20  1  0  0  0
 22 23  1  0  0  0
 23 24  1  0  0  0
 23 34  1  0  0  0
 24 25  1  0  0  0
 24 28  2  0  0  0
 25 26  2  0  0  0
 25 29  1  0  0  0
 26 27  2  0  0  0
 27 22  2  0  0  0
 34 35  2  0  0  0
 35 36  1  0  0  0
 35 40  1  0  0  0
 36 37  2  0  0  0
 37 38  1  0  0  0
 38 39  2  0  0  0
 39 34  1  0  0  0
 29 30  2  0  0  0
 29 33  1  0  0  0
 30 31  1  0  0  0
 31 32  2  0  0  0
 32 26  1  0  0  0
M  END
> <minimizedAffinity>
-8.67287

$$$$
PIK-294.cdx


 40 45  0  0  0  0  0  0  0  0999 V2000
    4.0875   19.0323   52.4866 N   0  0  0  0  0  0  0  0  0  0  0  0
    5.0398   19.9026   52.8750 C   0  0  0  0  0  0  0  0  0  0  0  0
    6.1412   20.2544   52.2135 N   0  0  0  0  0  0  0  0  0  0  0  0
    6.1903   19.6790   50.9998 C   0  0  0  0  0  0  0  0  0  0  0  0
    5.2835   18.7883   50.4500 C   0  0  0  0  0  0  0  0  0  0  0  0
    4.2068   18.4439   51.2825 C   0  0  0  0  0  0  0  0  0  0  0  0
    7.1525   19.8662   50.0607 N   0  0  0  0  0  0  0  0  0  0  0  0
    6.9797   19.1188   48.9509 N   0  0  0  0  0  0  0  0  0  0  0  0
    5.8122   18.4962   49.1501 C   0  0  0  0  0  0  0  0  0  0  0  0
    3.2406   17.4868   50.9822 N   0  0  0  0  0  0  0  0  0  0  0  0
    3.6214   16.6776   50.5033 H   0  0  0  0  0  0  0  0  0  0  0  0
    2.7371   17.2681   51.8393 H   0  0  0  0  0  0  0  0  0  0  0  0
    5.2797   17.6362   48.0898 C   0  0  0  0  0  0  0  0  0  0  0  0
    6.1379   16.9929   47.1917 C   0  0  0  0  0  0  0  0  0  0  0  0
    5.6070   16.2297   46.1401 C   0  0  0  0  0  0  0  0  0  0  0  0
    4.2447   16.0480   46.0214 C   0  0  0  0  0  0  0  0  0  0  0  0
    3.3847   16.6279   46.9413 C   0  0  0  0  0  0  0  0  0  0  0  0
    3.8901   17.4285   47.9754 C   0  0  0  0  0  0  0  0  0  0  0  0
    6.4439   15.6756   45.2005 O   0  0  0  0  0  0  0  0  0  0  0  0
    7.3355   16.0085   45.3424 H   0  0  0  0  0  0  0  0  0  0  0  0
    8.3359   20.6663   50.1883 C   0  0  0  0  0  0  0  0  0  0  0  0
    8.1591   22.1604   49.8526 C   0  0  0  0  0  0  0  0  0  0  0  0
    7.8479   22.4498   48.5431 N   0  0  0  0  0  0  0  0  0  0  0  0
    6.8709   23.4310   48.2991 C   0  0  0  0  0  0  0  0  0  0  0  0
    6.2677   23.9638   49.5712 C   0  0  0  0  0  0  0  0  0  0  0  0
    7.2880   24.1611   50.4792 C   0  0  0  0  0  0  0  0  0  0  0  0
    8.0318   23.0147   50.8230 N   0  0  0  0  0  0  0  0  0  0  0  0
    6.5569   23.9063   47.2271 O   0  0  0  0  0  0  0  0  0  0  0  0
    5.0187   24.5339   49.8334 C   0  0  0  0  0  0  0  0  0  0  0  0
    4.9557   25.6625   50.6827 C   0  0  0  0  0  0  0  0  0  0  0  0
    6.0568   25.9863   51.4542 C   0  0  0  0  0  0  0  0  0  0  0  0
    7.2552   25.2970   51.2788 C   0  0  0  0  0  0  0  0  0  0  0  0
    3.9314   23.5428   50.2987 C   0  0  0  0  0  0  0  0  0  0  0  0
    8.8850   22.1849   47.5467 C   0  0  0  0  0  0  0  0  0  0  0  0
    8.7677   21.1968   46.5408 C   0  0  0  0  0  0  0  0  0  0  0  0
    9.8188   21.0402   45.6030 C   0  0  0  0  0  0  0  0  0  0  0  0
   10.9205   21.8876   45.6094 C   0  0  0  0  0  0  0  0  0  0  0  0
   10.9908   22.9046   46.5497 C   0  0  0  0  0  0  0  0  0  0  0  0
    9.9880   23.0524   47.5148 C   0  0  0  0  0  0  0  0  0  0  0  0
    7.5969   20.2692   46.3478 C   0  0  0  0  0  0  0  0  0  0  0  0
  1  2  2  0  0  0
  2  3  2  0  0  0
  3  4  2  0  0  0
  4  5  1  0  0  0
  4  7  1  0  0  0
  5  6  2  0  0  0
  6  1  2  0  0  0
  6 10  1  0  0  0
  7  8  1  0  0  0
  7 21  1  0  0  0
  8  9  2  0  0  0
  9  5  1  0  0  0
  9 13  1  0  0  0
 10 11  1  0  0  0
 10 12  1  0  0  0
 21 22  1  0  0  0
 13 14  2  0  0  0
 14 15  1  0  0  0
 15 16  2  0  0  0
 15 19  1  0  0  0
 16 17  1  0  0  0
 17 18  2  0  0  0
 18 13  1  0  0  0
 19 20  1  0  0  0
 22 23  1  0  0  0
 23 24  1  0  0  0
 23 34  1  0  0  0
 24 25  1  0  0  0
 24 28  2  0  0  0
 25 26  2  0  0  0
 25 29  1  0  0  0
 26 27  2  0  0  0
 27 22  2  0  0  0
 34 35  2  0  0  0
 35 36  1  0  0  0
 35 40  1  0  0  0
 36 37  2  0  0  0
 37 38  1  0  0  0
 38 39  2  0  0  0
 39 34  1  0  0  0
 29 30  2  0  0  0
 29 33  1  0  0  0
 30 31  1  0  0  0
 31 32  2  0  0  0
 32 26  1  0  0  0
M  END
> <minimizedAffinity>
-7.37243

$$$$
PIK-294.cdx


 40 45  0  0  0  0  0  0  0  0999 V2000
    8.9045   21.3620   46.6713 N   0  0  0  0  0  0  0  0  0  0  0  0
    8.2362   22.4018   47.2075 C   0  0  0  0  0  0  0  0  0  0  0  0
    6.9278   22.4983   47.4378 N   0  0  0  0  0  0  0  0  0  0  0  0
    6.2898   21.3548   47.1342 C   0  0  0  0  0  0  0  0  0  0  0  0
    6.8357   20.1986   46.6024 C   0  0  0  0  0  0  0  0  0  0  0  0
    8.2133   20.2568   46.3378 C   0  0  0  0  0  0  0  0  0  0  0  0
    4.9651   21.1069   47.2969 N   0  0  0  0  0  0  0  0  0  0  0  0
    4.5832   19.8900   46.8568 N   0  0  0  0  0  0  0  0  0  0  0  0
    5.7244   19.3014   46.4805 C   0  0  0  0  0  0  0  0  0  0  0  0
    8.9467   19.2571   45.7034 N   0  0  0  0  0  0  0  0  0  0  0  0
    8.4360   18.8104   44.9493 H   0  0  0  0  0  0  0  0  0  0  0  0
    9.8430   19.6519   45.4264 H   0  0  0  0  0  0  0  0  0  0  0  0
    5.6816   17.9169   46.0025 C   0  0  0  0  0  0  0  0  0  0  0  0
    6.4385   17.5185   44.8954 C   0  0  0  0  0  0  0  0  0  0  0  0
    6.3310   16.2061   44.4093 C   0  0  0  0  0  0  0  0  0  0  0  0
    5.5378   15.2801   45.0544 C   0  0  0  0  0  0  0  0  0  0  0  0
    4.8307   15.6437   46.1902 C   0  0  0  0  0  0  0  0  0  0  0  0
    4.8901   16.9600   46.6695 C   0  0  0  0  0  0  0  0  0  0  0  0
    6.9994   15.8386   43.2654 O   0  0  0  0  0  0  0  0  0  0  0  0
    7.3863   16.6234   42.8648 H   0  0  0  0  0  0  0  0  0  0  0  0
    3.9693   22.0242   47.7700 C   0  0  0  0  0  0  0  0  0  0  0  0
    4.1969   22.5644   49.1956 C   0  0  0  0  0  0  0  0  0  0  0  0
    5.1268   21.8888   49.9534 N   0  0  0  0  0  0  0  0  0  0  0  0
    6.0204   22.6469   50.7303 C   0  0  0  0  0  0  0  0  0  0  0  0
    5.8334   24.1274   50.5328 C   0  0  0  0  0  0  0  0  0  0  0  0
    4.4785   24.3895   50.5163 C   0  0  0  0  0  0  0  0  0  0  0  0
    3.7418   23.7413   49.5049 N   0  0  0  0  0  0  0  0  0  0  0  0
    6.8163   22.2346   51.5490 O   0  0  0  0  0  0  0  0  0  0  0  0
    6.7206   25.1979   50.6762 C   0  0  0  0  0  0  0  0  0  0  0  0
    6.2562   26.3830   51.2919 C   0  0  0  0  0  0  0  0  0  0  0  0
    4.8957   26.5645   51.4614 C   0  0  0  0  0  0  0  0  0  0  0  0
    4.0139   25.5266   51.1658 C   0  0  0  0  0  0  0  0  0  0  0  0
    7.4667   25.6065   49.3888 C   0  0  0  0  0  0  0  0  0  0  0  0
    4.7833   20.5248   50.3536 C   0  0  0  0  0  0  0  0  0  0  0  0
    5.7226   19.4682   50.4127 C   0  0  0  0  0  0  0  0  0  0  0  0
    5.2930   18.1879   50.8433 C   0  0  0  0  0  0  0  0  0  0  0  0
    3.9902   17.9752   51.2783 C   0  0  0  0  0  0  0  0  0  0  0  0
    3.0961   19.0353   51.2919 C   0  0  0  0  0  0  0  0  0  0  0  0
    3.4824   20.2985   50.8295 C   0  0  0  0  0  0  0  0  0  0  0  0
    7.1848   19.5672   50.0655 C   0  0  0  0  0  0  0  0  0  0  0  0
  1  2  2  0  0  0
  2  3  2  0  0  0
  3  4  2  0  0  0
  4  5  1  0  0  0
  4  7  1  0  0  0
  5  6  2  0  0  0
  6  1  2  0  0  0
  6 10  1  0  0  0
  7  8  1  0  0  0
  7 21  1  0  0  0
  8  9  2  0  0  0
  9  5  1  0  0  0
  9 13  1  0  0  0
 10 11  1  0  0  0
 10 12  1  0  0  0
 21 22  1  0  0  0
 13 14  2  0  0  0
 14 15  1  0  0  0
 15 16  2  0  0  0
 15 19  1  0  0  0
 16 17  1  0  0  0
 17 18  2  0  0  0
 18 13  1  0  0  0
 19 20  1  0  0  0
 22 23  1  0  0  0
 23 24  1  0  0  0
 23 34  1  0  0  0
 24 25  1  0  0  0
 24 28  2  0  0  0
 25 26  2  0  0  0
 25 29  1  0  0  0
 26 27  2  0  0  0
 27 22  2  0  0  0
 34 35  2  0  0  0
 35 36  1  0  0  0
 35 40  1  0  0  0
 36 37  2  0  0  0
 37 38  1  0  0  0
 38 39  2  0  0  0
 39 34  1  0  0  0
 29 30  2  0  0  0
 29 33  1  0  0  0
 30 31  1  0  0  0
 31 32  2  0  0  0
 32 26  1  0  0  0
M  END
> <minimizedAffinity>
-6.98978

$$$$
PIK-294.cdx


 40 45  0  0  0  0  0  0  0  0999 V2000
    4.6164   17.5500   46.3246 N   0  0  0  0  0  0  0  0  0  0  0  0
    3.4742   18.0495   46.8356 C   0  0  0  0  0  0  0  0  0  0  0  0
    3.2801   19.2517   47.3754 N   0  0  0  0  0  0  0  0  0  0  0  0
    4.3865   20.0107   47.2957 C   0  0  0  0  0  0  0  0  0  0  0  0
    5.6211   19.6526   46.7807 C   0  0  0  0  0  0  0  0  0  0  0  0
    5.7112   18.3322   46.3121 C   0  0  0  0  0  0  0  0  0  0  0  0
    4.5084   21.2983   47.7081 N   0  0  0  0  0  0  0  0  0  0  0  0
    5.7515   21.8006   47.5569 N   0  0  0  0  0  0  0  0  0  0  0  0
    6.4293   20.8256   46.9402 C   0  0  0  0  0  0  0  0  0  0  0  0
    6.8793   17.7249   45.8577 N   0  0  0  0  0  0  0  0  0  0  0  0
    7.6979   17.9918   46.3941 H   0  0  0  0  0  0  0  0  0  0  0  0
    6.7158   16.7212   45.8138 H   0  0  0  0  0  0  0  0  0  0  0  0
    7.8235   21.0660   46.5587 C   0  0  0  0  0  0  0  0  0  0  0  0
    8.5362   22.1441   47.0943 C   0  0  0  0  0  0  0  0  0  0  0  0
    9.8476   22.3997   46.6642 C   0  0  0  0  0  0  0  0  0  0  0  0
   10.4703   21.5565   45.7675 C   0  0  0  0  0  0  0  0  0  0  0  0
    9.7982   20.4480   45.2759 C   0  0  0  0  0  0  0  0  0  0  0  0
    8.4733   20.1964   45.6595 C   0  0  0  0  0  0  0  0  0  0  0  0
   10.5161   23.5128   47.1165 O   0  0  0  0  0  0  0  0  0  0  0  0
    9.9036   24.0631   47.6145 H   0  0  0  0  0  0  0  0  0  0  0  0
    3.5075   22.0920   48.3600 C   0  0  0  0  0  0  0  0  0  0  0  0
    3.9453   22.7425   49.6872 C   0  0  0  0  0  0  0  0  0  0  0  0
    5.0851   22.2272   50.2622 N   0  0  0  0  0  0  0  0  0  0  0  0
    6.0132   23.1302   50.8099 C   0  0  0  0  0  0  0  0  0  0  0  0
    5.6060   24.5640   50.5998 C   0  0  0  0  0  0  0  0  0  0  0  0
    4.2531   24.6664   50.8525 C   0  0  0  0  0  0  0  0  0  0  0  0
    3.4169   23.8759   50.0392 N   0  0  0  0  0  0  0  0  0  0  0  0
    7.0019   22.8642   51.4622 O   0  0  0  0  0  0  0  0  0  0  0  0
    6.3623   25.7367   50.5175 C   0  0  0  0  0  0  0  0  0  0  0  0
    5.8849   26.8961   51.1708 C   0  0  0  0  0  0  0  0  0  0  0  0
    4.5738   26.9296   51.6096 C   0  0  0  0  0  0  0  0  0  0  0  0
    3.7883   25.7805   51.5407 C   0  0  0  0  0  0  0  0  0  0  0  0
    6.7791   26.1478   49.0898 C   0  0  0  0  0  0  0  0  0  0  0  0
    5.0026   20.8602   50.7752 C   0  0  0  0  0  0  0  0  0  0  0  0
    6.0725   19.9363   50.7121 C   0  0  0  0  0  0  0  0  0  0  0  0
    5.8998   18.6434   51.2666 C   0  0  0  0  0  0  0  0  0  0  0  0
    4.7310   18.2976   51.9346 C   0  0  0  0  0  0  0  0  0  0  0  0
    3.7171   19.2354   52.0610 C   0  0  0  0  0  0  0  0  0  0  0  0
    3.8445   20.5039   51.4837 C   0  0  0  0  0  0  0  0  0  0  0  0
    7.4272   20.1954   50.1071 C   0  0  0  0  0  0  0  0  0  0  0  0
  1  2  2  0  0  0
  2  3  2  0  0  0
  3  4  2  0  0  0
  4  5  1  0  0  0
  4  7  1  0  0  0
  5  6  2  0  0  0
  6  1  2  0  0  0
  6 10  1  0  0  0
  7  8  1  0  0  0
  7 21  1  0  0  0
  8  9  2  0  0  0
  9  5  1  0  0  0
  9 13  1  0  0  0
 10 11  1  0  0  0
 10 12  1  0  0  0
 21 22  1  0  0  0
 13 14  2  0  0  0
 14 15  1  0  0  0
 15 16  2  0  0  0
 15 19  1  0  0  0
 16 17  1  0  0  0
 17 18  2  0  0  0
 18 13  1  0  0  0
 19 20  1  0  0  0
 22 23  1  0  0  0
 23 24  1  0  0  0
 23 34  1  0  0  0
 24 25  1  0  0  0
 24 28  2  0  0  0
 25 26  2  0  0  0
 25 29  1  0  0  0
 26 27  2  0  0  0
 27 22  2  0  0  0
 34 35  2  0  0  0
 35 36  1  0  0  0
 35 40  1  0  0  0
 36 37  2  0  0  0
 37 38  1  0  0  0
 38 39  2  0  0  0
 39 34  1  0  0  0
 29 30  2  0  0  0
 29 33  1  0  0  0
 30 31  1  0  0  0
 31 32  2  0  0  0
 32 26  1  0  0  0
M  END
> <minimizedAffinity>
-6.96174

$$$$
PIK-294.cdx


 40 45  0  0  0  0  0  0  0  0999 V2000
    9.5759   22.8618   47.2131 N   0  0  0  0  0  0  0  0  0  0  0  0
    9.2875   22.2915   46.0269 C   0  0  0  0  0  0  0  0  0  0  0  0
    8.2809   21.4668   45.7424 N   0  0  0  0  0  0  0  0  0  0  0  0
    7.4717   21.2951   46.8018 C   0  0  0  0  0  0  0  0  0  0  0  0
    7.6181   21.8283   48.0715 C   0  0  0  0  0  0  0  0  0  0  0  0
    8.7626   22.6198   48.2573 C   0  0  0  0  0  0  0  0  0  0  0  0
    6.3331   20.5566   46.8312 N   0  0  0  0  0  0  0  0  0  0  0  0
    5.7454   20.5144   48.0450 N   0  0  0  0  0  0  0  0  0  0  0  0
    6.4881   21.3318   48.8005 C   0  0  0  0  0  0  0  0  0  0  0  0
    9.1684   23.1623   49.4742 N   0  0  0  0  0  0  0  0  0  0  0  0
    9.0100   22.5378   50.2578 H   0  0  0  0  0  0  0  0  0  0  0  0
   10.1323   23.4734   49.3744 H   0  0  0  0  0  0  0  0  0  0  0  0
    6.0846   21.5730   50.1883 C   0  0  0  0  0  0  0  0  0  0  0  0
    6.1546   20.5514   51.1416 C   0  0  0  0  0  0  0  0  0  0  0  0
    5.6980   20.7810   52.4489 C   0  0  0  0  0  0  0  0  0  0  0  0
    5.2436   22.0276   52.8262 C   0  0  0  0  0  0  0  0  0  0  0  0
    5.2274   23.0670   51.9088 C   0  0  0  0  0  0  0  0  0  0  0  0
    5.6395   22.8499   50.5863 C   0  0  0  0  0  0  0  0  0  0  0  0
    5.6762   19.7527   53.3613 O   0  0  0  0  0  0  0  0  0  0  0  0
    5.8868   18.9300   52.9086 H   0  0  0  0  0  0  0  0  0  0  0  0
    5.7910   19.7674   45.7635 C   0  0  0  0  0  0  0  0  0  0  0  0
    5.6584   18.2607   46.0611 C   0  0  0  0  0  0  0  0  0  0  0  0
    4.4148   17.8358   46.4713 N   0  0  0  0  0  0  0  0  0  0  0  0
    3.9207   16.6321   45.9387 C   0  0  0  0  0  0  0  0  0  0  0  0
    4.8540   16.0332   44.9209 C   0  0  0  0  0  0  0  0  0  0  0  0
    6.1420   16.1419   45.4046 C   0  0  0  0  0  0  0  0  0  0  0  0
    6.5925   17.4529   45.6575 N   0  0  0  0  0  0  0  0  0  0  0  0
    2.9146   16.0390   46.2700 O   0  0  0  0  0  0  0  0  0  0  0  0
    4.6161   15.1860   43.8348 C   0  0  0  0  0  0  0  0  0  0  0  0
    5.5169   14.1225   43.5971 C   0  0  0  0  0  0  0  0  0  0  0  0
    6.7417   14.1218   44.2394 C   0  0  0  0  0  0  0  0  0  0  0  0
    7.0139   15.0762   45.2178 C   0  0  0  0  0  0  0  0  0  0  0  0
    4.3765   15.9000   42.4880 C   0  0  0  0  0  0  0  0  0  0  0  0
    3.9618   18.2971   47.7830 C   0  0  0  0  0  0  0  0  0  0  0  0
    3.1045   19.4076   47.9673 C   0  0  0  0  0  0  0  0  0  0  0  0
    2.6991   19.7545   49.2804 C   0  0  0  0  0  0  0  0  0  0  0  0
    3.0662   18.9801   50.3745 C   0  0  0  0  0  0  0  0  0  0  0  0
    3.8419   17.8476   50.1767 C   0  0  0  0  0  0  0  0  0  0  0  0
    4.2927   17.5083   48.8959 C   0  0  0  0  0  0  0  0  0  0  0  0
    2.5483   20.2833   46.8755 C   0  0  0  0  0  0  0  0  0  0  0  0
  1  2  2  0  0  0
  2  3  2  0  0  0
  3  4  2  0  0  0
  4  5  1  0  0  0
  4  7  1  0  0  0
  5  6  2  0  0  0
  6  1  2  0  0  0
  6 10  1  0  0  0
  7  8  1  0  0  0
  7 21  1  0  0  0
  8  9  2  0  0  0
  9  5  1  0  0  0
  9 13  1  0  0  0
 10 11  1  0  0  0
 10 12  1  0  0  0
 21 22  1  0  0  0
 13 14  2  0  0  0
 14 15  1  0  0  0
 15 16  2  0  0  0
 15 19  1  0  0  0
 16 17  1  0  0  0
 17 18  2  0  0  0
 18 13  1  0  0  0
 19 20  1  0  0  0
 22 23  1  0  0  0
 23 24  1  0  0  0
 23 34  1  0  0  0
 24 25  1  0  0  0
 24 28  2  0  0  0
 25 26  2  0  0  0
 25 29  1  0  0  0
 26 27  2  0  0  0
 27 22  2  0  0  0
 34 35  2  0  0  0
 35 36  1  0  0  0
 35 40  1  0  0  0
 36 37  2  0  0  0
 37 38  1  0  0  0
 38 39  2  0  0  0
 39 34  1  0  0  0
 29 30  2  0  0  0
 29 33  1  0  0  0
 30 31  1  0  0  0
 31 32  2  0  0  0
 32 26  1  0  0  0
M  END
> <minimizedAffinity>
-6.27498

$$$$
