S3862 Gallic acid trimethyl ether.cdx


 16 16  0  0  0  0  0  0  0  0999 V2000
    5.1475   22.1796   50.7894 C   0  0  0  0  0  0  0  0  0  0  0  0
    5.6342   22.9984   51.8363 C   0  0  0  0  0  0  0  0  0  0  0  0
    4.2245   22.7155   49.8704 C   0  0  0  0  0  0  0  0  0  0  0  0
    5.0988   24.2774   52.0271 C   0  0  0  0  0  0  0  0  0  0  0  0
    3.7565   24.0295   50.0427 C   0  0  0  0  0  0  0  0  0  0  0  0
    4.1683   24.8000   51.1307 C   0  0  0  0  0  0  0  0  0  0  0  0
    3.7225   26.1991   51.3394 C   0  0  0  0  0  0  0  0  0  0  0  0
    3.6490   26.9337   50.2117 O   0  0  0  0  0  0  0  0  0  0  0  0
    3.4073   26.6388   52.4349 O   0  0  0  0  0  0  0  0  0  0  0  0
    3.7771   26.4442   49.3782 H   0  0  0  0  0  0  0  0  0  0  0  0
    5.6512   20.9229   50.5684 O   0  0  0  0  0  0  0  0  0  0  0  0
    6.7425   20.8443   49.6498 C   0  0  0  0  0  0  0  0  0  0  0  0
    6.6493   22.5002   52.6191 O   0  0  0  0  0  0  0  0  0  0  0  0
    7.8993   23.1832   52.5544 C   0  0  0  0  0  0  0  0  0  0  0  0
    3.6681   22.1348   48.7609 O   0  0  0  0  0  0  0  0  0  0  0  0
    2.6657   21.1429   48.9139 C   0  0  0  0  0  0  0  0  0  0  0  0
  1  2  2  0  0  0
  1  3  1  0  0  0
  1 11  1  0  0  0
  2  4  1  0  0  0
  2 13  1  0  0  0
  3  5  2  0  0  0
  3 15  1  0  0  0
 11 12  1  0  0  0
  4  6  2  0  0  0
 13 14  1  0  0  0
  5  6  1  0  0  0
 15 16  1  0  0  0
  6  7  1  0  0  0
  7  8  1  0  0  0
  7  9  2  0  0  0
  8 10  1  0  0  0
M  END
> <minimizedAffinity>
-5.97470

$$$$
S3862 Gallic acid trimethyl ether.cdx


 16 16  0  0  0  0  0  0  0  0999 V2000
    5.2513   22.2795   50.5689 C   0  0  0  0  0  0  0  0  0  0  0  0
    4.2750   22.8578   49.7230 C   0  0  0  0  0  0  0  0  0  0  0  0
    5.6748   22.9849   51.7121 C   0  0  0  0  0  0  0  0  0  0  0  0
    3.8415   24.1684   49.9532 C   0  0  0  0  0  0  0  0  0  0  0  0
    5.1688   24.2725   51.9603 C   0  0  0  0  0  0  0  0  0  0  0  0
    4.2775   24.8757   51.0723 C   0  0  0  0  0  0  0  0  0  0  0  0
    3.6971   26.2206   51.3054 C   0  0  0  0  0  0  0  0  0  0  0  0
    3.4771   26.9337   50.1830 O   0  0  0  0  0  0  0  0  0  0  0  0
    3.4031   26.6329   52.4173 O   0  0  0  0  0  0  0  0  0  0  0  0
    3.6066   26.4539   49.3441 H   0  0  0  0  0  0  0  0  0  0  0  0
    5.6967   20.9962   50.3778 O   0  0  0  0  0  0  0  0  0  0  0  0
    6.9357   20.8669   49.6785 C   0  0  0  0  0  0  0  0  0  0  0  0
    3.7674   22.0814   48.7076 O   0  0  0  0  0  0  0  0  0  0  0  0
    2.6385   21.2709   49.0270 C   0  0  0  0  0  0  0  0  0  0  0  0
    6.5549   22.6033   52.6906 O   0  0  0  0  0  0  0  0  0  0  0  0
    7.8077   23.2587   52.8045 C   0  0  0  0  0  0  0  0  0  0  0  0
  1  2  2  0  0  0
  1  3  1  0  0  0
  1 11  1  0  0  0
  2  4  1  0  0  0
  2 13  1  0  0  0
  3  5  2  0  0  0
  3 15  1  0  0  0
 11 12  1  0  0  0
  4  6  2  0  0  0
 13 14  1  0  0  0
  5  6  1  0  0  0
 15 16  1  0  0  0
  6  7  1  0  0  0
  7  8  1  0  0  0
  7  9  2  0  0  0
  8 10  1  0  0  0
M  END
> <minimizedAffinity>
-5.93213

$$$$
S3862 Gallic acid trimethyl ether.cdx


 16 16  0  0  0  0  0  0  0  0999 V2000
    3.9712   20.0066   48.5564 C   0  0  0  0  0  0  0  0  0  0  0  0
    4.4170   18.7900   49.1259 C   0  0  0  0  0  0  0  0  0  0  0  0
    4.1537   21.2070   49.2701 C   0  0  0  0  0  0  0  0  0  0  0  0
    4.9085   18.7727   50.4362 C   0  0  0  0  0  0  0  0  0  0  0  0
    4.7173   21.1705   50.5571 C   0  0  0  0  0  0  0  0  0  0  0  0
    5.0684   19.9581   51.1517 C   0  0  0  0  0  0  0  0  0  0  0  0
    5.6900   19.8721   52.4956 C   0  0  0  0  0  0  0  0  0  0  0  0
    4.8568   19.4511   53.4680 O   0  0  0  0  0  0  0  0  0  0  0  0
    6.8688   20.1208   52.6988 O   0  0  0  0  0  0  0  0  0  0  0  0
    3.9829   19.1372   53.1705 H   0  0  0  0  0  0  0  0  0  0  0  0
    3.4882   20.0637   47.2737 O   0  0  0  0  0  0  0  0  0  0  0  0
    4.4506   20.3608   46.2607 C   0  0  0  0  0  0  0  0  0  0  0  0
    4.3699   17.6612   48.3416 O   0  0  0  0  0  0  0  0  0  0  0  0
    5.5747   17.2997   47.6700 C   0  0  0  0  0  0  0  0  0  0  0  0
    3.8562   22.4918   48.8977 O   0  0  0  0  0  0  0  0  0  0  0  0
    4.1821   23.5681   49.7621 C   0  0  0  0  0  0  0  0  0  0  0  0
  1  2  2  0  0  0
  1  3  1  0  0  0
  1 11  1  0  0  0
  2  4  1  0  0  0
  2 13  1  0  0  0
  3  5  2  0  0  0
  3 15  1  0  0  0
 11 12  1  0  0  0
  4  6  2  0  0  0
 13 14  1  0  0  0
  5  6  1  0  0  0
 15 16  1  0  0  0
  6  7  1  0  0  0
  7  8  1  0  0  0
  7  9  2  0  0  0
  8 10  1  0  0  0
M  END
> <minimizedAffinity>
-5.68678

$$$$
S3862 Gallic acid trimethyl ether.cdx


 16 16  0  0  0  0  0  0  0  0999 V2000
    5.8219   22.5765   49.4339 C   0  0  0  0  0  0  0  0  0  0  0  0
    4.4479   22.8967   49.3221 C   0  0  0  0  0  0  0  0  0  0  0  0
    6.2295   21.2363   49.2866 C   0  0  0  0  0  0  0  0  0  0  0  0
    3.5013   21.8729   49.2009 C   0  0  0  0  0  0  0  0  0  0  0  0
    5.2632   20.2343   49.0930 C   0  0  0  0  0  0  0  0  0  0  0  0
    3.9028   20.5438   49.0777 C   0  0  0  0  0  0  0  0  0  0  0  0
    2.8491   19.5250   48.8505 C   0  0  0  0  0  0  0  0  0  0  0  0
    2.0874   19.2618   49.9310 O   0  0  0  0  0  0  0  0  0  0  0  0
    2.6584   18.9983   47.7647 O   0  0  0  0  0  0  0  0  0  0  0  0
    2.2272   19.8448   50.6999 H   0  0  0  0  0  0  0  0  0  0  0  0
    6.7789   23.5527   49.5489 O   0  0  0  0  0  0  0  0  0  0  0  0
    7.2586   23.7988   50.8718 C   0  0  0  0  0  0  0  0  0  0  0  0
    4.0996   24.2271   49.3117 O   0  0  0  0  0  0  0  0  0  0  0  0
    3.5392   24.7498   50.5142 C   0  0  0  0  0  0  0  0  0  0  0  0
    7.4936   20.7074   49.2996 O   0  0  0  0  0  0  0  0  0  0  0  0
    8.2687   20.7082   48.1116 C   0  0  0  0  0  0  0  0  0  0  0  0
  1  2  2  0  0  0
  1  3  1  0  0  0
  1 11  1  0  0  0
  2  4  1  0  0  0
  2 13  1  0  0  0
  3  5  2  0  0  0
  3 15  1  0  0  0
 11 12  1  0  0  0
  4  6  2  0  0  0
 13 14  1  0  0  0
  5  6  1  0  0  0
 15 16  1  0  0  0
  6  7  1  0  0  0
  7  8  1  0  0  0
  7  9  2  0  0  0
  8 10  1  0  0  0
M  END
> <minimizedAffinity>
-5.67762

$$$$
S3862 Gallic acid trimethyl ether.cdx


 16 16  0  0  0  0  0  0  0  0999 V2000
    7.1442   20.9442   50.5605 C   0  0  0  0  0  0  0  0  0  0  0  0
    6.0799   21.0869   51.4825 C   0  0  0  0  0  0  0  0  0  0  0  0
    6.9672   20.1255   49.4281 C   0  0  0  0  0  0  0  0  0  0  0  0
    4.9209   20.3166   51.3338 C   0  0  0  0  0  0  0  0  0  0  0  0
    5.7640   19.4179   49.2644 C   0  0  0  0  0  0  0  0  0  0  0  0
    4.7544   19.4888   50.2248 C   0  0  0  0  0  0  0  0  0  0  0  0
    3.4584   18.7816   50.0826 C   0  0  0  0  0  0  0  0  0  0  0  0
    3.3535   17.6588   50.8209 O   0  0  0  0  0  0  0  0  0  0  0  0
    2.5456   19.2021   49.3879 O   0  0  0  0  0  0  0  0  0  0  0  0
    4.0792   17.4972   51.4516 H   0  0  0  0  0  0  0  0  0  0  0  0
    8.2931   21.6855   50.6708 O   0  0  0  0  0  0  0  0  0  0  0  0
    8.2966   22.9324   49.9736 C   0  0  0  0  0  0  0  0  0  0  0  0
    6.2250   22.0131   52.4888 O   0  0  0  0  0  0  0  0  0  0  0  0
    5.3465   23.1358   52.4548 C   0  0  0  0  0  0  0  0  0  0  0  0
    7.8263   19.8861   48.3877 O   0  0  0  0  0  0  0  0  0  0  0  0
    7.6256   20.5399   47.1450 C   0  0  0  0  0  0  0  0  0  0  0  0
  1  2  2  0  0  0
  1  3  1  0  0  0
  1 11  1  0  0  0
  2  4  1  0  0  0
  2 13  1  0  0  0
  3  5  2  0  0  0
  3 15  1  0  0  0
 11 12  1  0  0  0
  4  6  2  0  0  0
 13 14  1  0  0  0
  5  6  1  0  0  0
 15 16  1  0  0  0
  6  7  1  0  0  0
  7  8  1  0  0  0
  7  9  2  0  0  0
  8 10  1  0  0  0
M  END
> <minimizedAffinity>
-5.64012

$$$$
