S3896 DACH-BOC.cdx


 18 18  0  0  0  0  0  0  0  0999 V2000
    6.8332   20.5806   51.4080 C   0  0  0  0  0  0  0  0  0  0  0  0
    6.2236   20.3911   50.2059 N   0  0  0  0  0  0  0  0  0  0  0  0
    6.7380   19.8065   52.3534 O   0  0  0  0  0  0  0  0  0  0  0  0
    6.1905   21.1685   49.5635 H   0  0  0  0  0  0  0  0  0  0  0  0
    5.7342   19.0816   49.7832 C   0  0  0  0  0  0  0  0  0  0  0  0
    4.1856   18.9849   49.9071 C   0  0  0  0  0  0  0  0  0  0  0  0
    3.7380   19.1605   51.2970 N   0  0  0  0  0  0  0  0  0  0  0  0
    6.1699   18.8144   48.3268 C   0  0  0  0  0  0  0  0  0  0  0  0
    3.6555   17.6596   49.3400 C   0  0  0  0  0  0  0  0  0  0  0  0
    5.6124   17.5119   47.7699 C   0  0  0  0  0  0  0  0  0  0  0  0
    4.0972   17.4588   47.8932 C   0  0  0  0  0  0  0  0  0  0  0  0
    2.7555   18.9000   51.3776 H   0  0  0  0  0  0  0  0  0  0  0  0
    4.2477   18.5168   51.9038 H   0  0  0  0  0  0  0  0  0  0  0  0
    7.6124   21.6907   51.3709 O   0  0  0  0  0  0  0  0  0  0  0  0
    7.0969   22.9517   51.8823 C   0  0  0  0  0  0  0  0  0  0  0  0
    5.5867   22.9170   52.1807 C   0  0  0  0  0  0  0  0  0  0  0  0
    7.8198   23.1869   53.2194 C   0  0  0  0  0  0  0  0  0  0  0  0
    7.4583   24.0835   50.9181 C   0  0  0  0  0  0  0  0  0  0  0  0
  2  1  1  0  0  0
  2  4  1  0  0  0
  5  2  1  0  0  0
 14  1  1  0  0  0
  3  1  2  0  0  0
 15 14  1  0  0  0
 15 16  1  0  0  0
 15 17  1  0  0  0
 15 18  1  0  0  0
  6  5  1  0  0  0
  6  7  1  0  0  0
  7 12  1  0  0  0
  7 13  1  0  0  0
  8  5  1  0  0  0
  9  6  1  0  0  0
 10  8  1  0  0  0
 11  9  1  0  0  0
 11 10  1  0  0  0
M  END
> <minimizedAffinity>
-6.25415

$$$$
S3896 DACH-BOC.cdx


 18 18  0  0  0  0  0  0  0  0999 V2000
    4.8210   21.8237   50.0090 C   0  0  0  0  0  0  0  0  0  0  0  0
    5.6456   20.9285   49.4000 N   0  0  0  0  0  0  0  0  0  0  0  0
    3.6872   22.0832   49.6223 O   0  0  0  0  0  0  0  0  0  0  0  0
    6.6203   20.9283   49.6610 H   0  0  0  0  0  0  0  0  0  0  0  0
    5.1410   19.9073   48.4859 C   0  0  0  0  0  0  0  0  0  0  0  0
    5.2491   20.3667   47.0026 C   0  0  0  0  0  0  0  0  0  0  0  0
    4.4517   21.5756   46.7470 N   0  0  0  0  0  0  0  0  0  0  0  0
    5.9257   18.5949   48.6958 C   0  0  0  0  0  0  0  0  0  0  0  0
    4.8436   19.2461   46.0336 C   0  0  0  0  0  0  0  0  0  0  0  0
    5.5331   17.5042   47.7091 C   0  0  0  0  0  0  0  0  0  0  0  0
    5.6657   17.9826   46.2712 C   0  0  0  0  0  0  0  0  0  0  0  0
    4.3835   21.7369   45.7424 H   0  0  0  0  0  0  0  0  0  0  0  0
    3.4948   21.4285   47.0711 H   0  0  0  0  0  0  0  0  0  0  0  0
    5.4034   22.3111   51.1334 O   0  0  0  0  0  0  0  0  0  0  0  0
    5.6396   23.7412   51.2619 C   0  0  0  0  0  0  0  0  0  0  0  0
    4.3836   24.5325   51.6707 C   0  0  0  0  0  0  0  0  0  0  0  0
    6.6644   23.8947   52.3985 C   0  0  0  0  0  0  0  0  0  0  0  0
    6.2520   24.2792   49.9669 C   0  0  0  0  0  0  0  0  0  0  0  0
  2  1  1  0  0  0
  2  4  1  0  0  0
  5  2  1  0  0  0
 14  1  1  0  0  0
  3  1  2  0  0  0
 15 14  1  0  0  0
 15 16  1  0  0  0
 15 17  1  0  0  0
 15 18  1  0  0  0
  6  5  1  0  0  0
  6  7  1  0  0  0
  7 12  1  0  0  0
  7 13  1  0  0  0
  8  5  1  0  0  0
  9  6  1  0  0  0
 10  8  1  0  0  0
 11  9  1  0  0  0
 11 10  1  0  0  0
M  END
> <minimizedAffinity>
-6.19213

$$$$
S3896 DACH-BOC.cdx


 18 18  0  0  0  0  0  0  0  0999 V2000
    8.0923   20.6336   48.2671 C   0  0  0  0  0  0  0  0  0  0  0  0
    6.7836   20.6751   47.8958 N   0  0  0  0  0  0  0  0  0  0  0  0
    8.4719   20.5514   49.4296 O   0  0  0  0  0  0  0  0  0  0  0  0
    6.5682   20.9454   46.9478 H   0  0  0  0  0  0  0  0  0  0  0  0
    5.7121   20.2290   48.7824 C   0  0  0  0  0  0  0  0  0  0  0  0
    4.3384   20.8284   48.3622 C   0  0  0  0  0  0  0  0  0  0  0  0
    4.3411   22.2975   48.4298 N   0  0  0  0  0  0  0  0  0  0  0  0
    5.6454   18.6870   48.7745 C   0  0  0  0  0  0  0  0  0  0  0  0
    3.1909   20.2582   49.2092 C   0  0  0  0  0  0  0  0  0  0  0  0
    4.4857   18.1389   49.5943 C   0  0  0  0  0  0  0  0  0  0  0  0
    3.1593   18.7338   49.1466 C   0  0  0  0  0  0  0  0  0  0  0  0
    3.3875   22.6478   48.3423 H   0  0  0  0  0  0  0  0  0  0  0  0
    4.6643   22.5965   49.3509 H   0  0  0  0  0  0  0  0  0  0  0  0
    8.8922   20.6133   47.1713 O   0  0  0  0  0  0  0  0  0  0  0  0
    9.2286   21.8597   46.5001 C   0  0  0  0  0  0  0  0  0  0  0  0
    9.3915   23.0477   47.4659 C   0  0  0  0  0  0  0  0  0  0  0  0
   10.5957   21.6212   45.8370 C   0  0  0  0  0  0  0  0  0  0  0  0
    8.1943   22.1523   45.4110 C   0  0  0  0  0  0  0  0  0  0  0  0
  2  1  1  0  0  0
  2  4  1  0  0  0
  5  2  1  0  0  0
 14  1  1  0  0  0
  3  1  2  0  0  0
 15 14  1  0  0  0
 15 16  1  0  0  0
 15 17  1  0  0  0
 15 18  1  0  0  0
  6  5  1  0  0  0
  6  7  1  0  0  0
  7 12  1  0  0  0
  7 13  1  0  0  0
  8  5  1  0  0  0
  9  6  1  0  0  0
 10  8  1  0  0  0
 11  9  1  0  0  0
 11 10  1  0  0  0
M  END
> <minimizedAffinity>
-6.11984

$$$$
S3896 DACH-BOC.cdx


 18 18  0  0  0  0  0  0  0  0999 V2000
    5.8384   18.9769   49.7896 C   0  0  0  0  0  0  0  0  0  0  0  0
    5.9738   20.3064   49.5319 N   0  0  0  0  0  0  0  0  0  0  0  0
    5.4324   18.5236   50.8535 O   0  0  0  0  0  0  0  0  0  0  0  0
    6.5004   20.5798   48.7158 H   0  0  0  0  0  0  0  0  0  0  0  0
    5.2863   21.3231   50.3236 C   0  0  0  0  0  0  0  0  0  0  0  0
    6.2575   22.0239   51.3179 C   0  0  0  0  0  0  0  0  0  0  0  0
    6.8309   21.0724   52.2817 N   0  0  0  0  0  0  0  0  0  0  0  0
    4.6462   22.3642   49.3810 C   0  0  0  0  0  0  0  0  0  0  0  0
    5.5703   23.1818   52.0569 C   0  0  0  0  0  0  0  0  0  0  0  0
    3.9950   23.5200   50.1279 C   0  0  0  0  0  0  0  0  0  0  0  0
    4.9762   24.1902   51.0776 C   0  0  0  0  0  0  0  0  0  0  0  0
    7.2999   21.5815   53.0304 H   0  0  0  0  0  0  0  0  0  0  0  0
    6.0797   20.5465   52.7305 H   0  0  0  0  0  0  0  0  0  0  0  0
    6.1360   18.2502   48.6831 O   0  0  0  0  0  0  0  0  0  0  0  0
    5.0980   17.9713   47.7023 C   0  0  0  0  0  0  0  0  0  0  0  0
    4.9151   19.0993   46.6703 C   0  0  0  0  0  0  0  0  0  0  0  0
    5.5720   16.7251   46.9354 C   0  0  0  0  0  0  0  0  0  0  0  0
    3.7874   17.6421   48.4204 C   0  0  0  0  0  0  0  0  0  0  0  0
  2  1  1  0  0  0
  2  4  1  0  0  0
  5  2  1  0  0  0
 14  1  1  0  0  0
  3  1  2  0  0  0
 15 14  1  0  0  0
 15 16  1  0  0  0
 15 17  1  0  0  0
 15 18  1  0  0  0
  6  5  1  0  0  0
  6  7  1  0  0  0
  7 12  1  0  0  0
  7 13  1  0  0  0
  8  5  1  0  0  0
  9  6  1  0  0  0
 10  8  1  0  0  0
 11  9  1  0  0  0
 11 10  1  0  0  0
M  END
> <minimizedAffinity>
-6.05290

$$$$
S3896 DACH-BOC.cdx


 18 18  0  0  0  0  0  0  0  0999 V2000
    3.9543   22.3608   48.8614 C   0  0  0  0  0  0  0  0  0  0  0  0
    4.8315   21.5058   48.2682 N   0  0  0  0  0  0  0  0  0  0  0  0
    2.8765   22.0174   49.3333 O   0  0  0  0  0  0  0  0  0  0  0  0
    5.5904   21.9010   47.7334 H   0  0  0  0  0  0  0  0  0  0  0  0
    4.7728   20.0625   48.4838 C   0  0  0  0  0  0  0  0  0  0  0  0
    3.9359   19.3549   47.3784 C   0  0  0  0  0  0  0  0  0  0  0  0
    2.5422   19.8243   47.3657 N   0  0  0  0  0  0  0  0  0  0  0  0
    6.2050   19.4880   48.5174 C   0  0  0  0  0  0  0  0  0  0  0  0
    3.9821   17.8269   47.5266 C   0  0  0  0  0  0  0  0  0  0  0  0
    6.2332   17.9705   48.6350 C   0  0  0  0  0  0  0  0  0  0  0  0
    5.4190   17.3130   47.5311 C   0  0  0  0  0  0  0  0  0  0  0  0
    1.9786   19.2131   46.7753 H   0  0  0  0  0  0  0  0  0  0  0  0
    2.1471   19.7470   48.3039 H   0  0  0  0  0  0  0  0  0  0  0  0
    4.4823   23.6091   48.9232 O   0  0  0  0  0  0  0  0  0  0  0  0
    4.7087   24.2337   50.2178 C   0  0  0  0  0  0  0  0  0  0  0  0
    5.1107   23.2322   51.3161 C   0  0  0  0  0  0  0  0  0  0  0  0
    5.8959   25.1908   50.0178 C   0  0  0  0  0  0  0  0  0  0  0  0
    3.4770   25.0491   50.6174 C   0  0  0  0  0  0  0  0  0  0  0  0
  2  1  1  0  0  0
  2  4  1  0  0  0
  5  2  1  0  0  0
 14  1  1  0  0  0
  3  1  2  0  0  0
 15 14  1  0  0  0
 15 16  1  0  0  0
 15 17  1  0  0  0
 15 18  1  0  0  0
  6  5  1  0  0  0
  6  7  1  0  0  0
  7 12  1  0  0  0
  7 13  1  0  0  0
  8  5  1  0  0  0
  9  6  1  0  0  0
 10  8  1  0  0  0
 11  9  1  0  0  0
 11 10  1  0  0  0
M  END
> <minimizedAffinity>
-6.02402

$$$$
