S5053 Imazalil.cdx


 17 18  0  0  0  0  0  0  0  0999 V2000
    4.5410   18.7144   47.5424 C   0  0  0  0  0  0  0  0  0  0  0  0
    4.7099   17.5614   46.5630 C   0  0  0  0  0  0  0  0  0  0  0  0
    5.7215   17.6252   45.5891 C   0  0  0  0  0  0  0  0  0  0  0  0
    3.9454   16.3878   46.6500 C   0  0  0  0  0  0  0  0  0  0  0  0
    5.9894   16.5324   44.7635 C   0  0  0  0  0  0  0  0  0  0  0  0
    4.2304   15.2870   45.8404 C   0  0  0  0  0  0  0  0  0  0  0  0
    5.2566   15.3574   44.9020 C   0  0  0  0  0  0  0  0  0  0  0  0
    5.1912   20.0438   47.1092 C   0  0  0  0  0  0  0  0  0  0  0  0
    6.4921   20.3704   47.6486 N   0  0  0  0  0  0  0  0  0  0  0  0
    6.9615   20.0458   48.8917 C   0  0  0  0  0  0  0  0  0  0  0  0
    8.2482   20.2928   48.9993 N   0  0  0  0  0  0  0  0  0  0  0  0
    8.6290   20.7897   47.7808 C   0  0  0  0  0  0  0  0  0  0  0  0
    7.5542   20.8477   46.9210 C   0  0  0  0  0  0  0  0  0  0  0  0
    3.1758   18.9460   47.9345 O   0  0  0  0  0  0  0  0  0  0  0  0
    3.0431   19.1596   49.3433 C   0  0  0  0  0  0  0  0  0  0  0  0
    3.8359   18.1093   50.0498 C   0  0  0  0  0  0  0  0  0  0  0  0
    4.2908   18.2121   51.3063 C   0  0  0  0  0  0  0  0  0  0  0  0
  2  1  1  0  0  0
  2  3  2  0  0  0
  2  4  1  0  0  0
  1  8  1  0  0  0
  1 14  1  0  0  0
  3  5  1  0  0  0
  4  6  2  0  0  0
  8  9  1  0  0  0
 14 15  1  0  0  0
  5  7  2  0  0  0
  6  7  1  0  0  0
  9 10  1  0  0  0
 15 16  1  0  0  0
 16 17  2  0  0  0
 10 11  2  0  0  0
 11 12  2  0  0  0
 12 13  2  0  0  0
 13  9  1  0  0  0
M  END
> <minimizedAffinity>
-6.47001

$$$$
S5053 Imazalil.cdx


 17 18  0  0  0  0  0  0  0  0999 V2000
    6.2986   20.0609   47.9686 C   0  0  0  0  0  0  0  0  0  0  0  0
    5.5475   18.8522   47.4280 C   0  0  0  0  0  0  0  0  0  0  0  0
    5.9332   18.2935   46.1970 C   0  0  0  0  0  0  0  0  0  0  0  0
    4.5328   18.2142   48.1576 C   0  0  0  0  0  0  0  0  0  0  0  0
    5.3554   17.1096   45.7367 C   0  0  0  0  0  0  0  0  0  0  0  0
    3.9731   17.0171   47.7078 C   0  0  0  0  0  0  0  0  0  0  0  0
    4.3894   16.4618   46.5008 C   0  0  0  0  0  0  0  0  0  0  0  0
    5.6016   20.8021   49.1272 C   0  0  0  0  0  0  0  0  0  0  0  0
    6.1482   20.6493   50.4569 N   0  0  0  0  0  0  0  0  0  0  0  0
    6.8482   21.5902   51.1611 C   0  0  0  0  0  0  0  0  0  0  0  0
    7.0175   21.2261   52.4129 N   0  0  0  0  0  0  0  0  0  0  0  0
    6.4002   20.0085   52.5270 C   0  0  0  0  0  0  0  0  0  0  0  0
    5.8500   19.6266   51.3231 C   0  0  0  0  0  0  0  0  0  0  0  0
    7.6657   19.7828   48.3219 O   0  0  0  0  0  0  0  0  0  0  0  0
    8.5595   20.8141   47.8915 C   0  0  0  0  0  0  0  0  0  0  0  0
    8.5602   20.8357   46.3980 C   0  0  0  0  0  0  0  0  0  0  0  0
    9.6609   20.7919   45.6344 C   0  0  0  0  0  0  0  0  0  0  0  0
  2  1  1  0  0  0
  2  3  2  0  0  0
  2  4  1  0  0  0
  1  8  1  0  0  0
  1 14  1  0  0  0
  3  5  1  0  0  0
  4  6  2  0  0  0
  8  9  1  0  0  0
 14 15  1  0  0  0
  5  7  2  0  0  0
  6  7  1  0  0  0
  9 10  1  0  0  0
 15 16  1  0  0  0
 16 17  2  0  0  0
 10 11  2  0  0  0
 11 12  2  0  0  0
 12 13  2  0  0  0
 13  9  1  0  0  0
M  END
> <minimizedAffinity>
-6.37320

$$$$
S5053 Imazalil.cdx


 17 18  0  0  0  0  0  0  0  0999 V2000
    6.5670   20.1568   48.6165 C   0  0  0  0  0  0  0  0  0  0  0  0
    5.7652   18.9256   48.2184 C   0  0  0  0  0  0  0  0  0  0  0  0
    4.6151   18.5840   48.9510 C   0  0  0  0  0  0  0  0  0  0  0  0
    6.0819   18.1606   47.0854 C   0  0  0  0  0  0  0  0  0  0  0  0
    3.7850   17.5424   48.5345 C   0  0  0  0  0  0  0  0  0  0  0  0
    5.2379   17.1350   46.6562 C   0  0  0  0  0  0  0  0  0  0  0  0
    4.0863   16.8306   47.3771 C   0  0  0  0  0  0  0  0  0  0  0  0
    6.1796   20.7821   49.9717 C   0  0  0  0  0  0  0  0  0  0  0  0
    5.4984   22.0572   49.9608 N   0  0  0  0  0  0  0  0  0  0  0  0
    4.7657   22.5786   48.9302 C   0  0  0  0  0  0  0  0  0  0  0  0
    4.0990   23.6471   49.3068 N   0  0  0  0  0  0  0  0  0  0  0  0
    4.4049   23.8222   50.6305 C   0  0  0  0  0  0  0  0  0  0  0  0
    5.2743   22.8449   51.0629 C   0  0  0  0  0  0  0  0  0  0  0  0
    7.9919   19.9632   48.5599 O   0  0  0  0  0  0  0  0  0  0  0  0
    8.6681   21.0716   47.9581 C   0  0  0  0  0  0  0  0  0  0  0  0
    8.5827   20.9189   46.4748 C   0  0  0  0  0  0  0  0  0  0  0  0
    9.6352   20.7449   45.6633 C   0  0  0  0  0  0  0  0  0  0  0  0
  2  1  1  0  0  0
  2  3  2  0  0  0
  2  4  1  0  0  0
  1  8  1  0  0  0
  1 14  1  0  0  0
  3  5  1  0  0  0
  4  6  2  0  0  0
  8  9  1  0  0  0
 14 15  1  0  0  0
  5  7  2  0  0  0
  6  7  1  0  0  0
  9 10  1  0  0  0
 15 16  1  0  0  0
 16 17  2  0  0  0
 10 11  2  0  0  0
 11 12  2  0  0  0
 12 13  2  0  0  0
 13  9  1  0  0  0
M  END
> <minimizedAffinity>
-6.27501

$$$$
S5053 Imazalil.cdx


 17 18  0  0  0  0  0  0  0  0999 V2000
    3.7118   21.8558   49.1432 C   0  0  0  0  0  0  0  0  0  0  0  0
    4.0494   20.6238   49.9711 C   0  0  0  0  0  0  0  0  0  0  0  0
    3.1849   19.5156   49.9441 C   0  0  0  0  0  0  0  0  0  0  0  0
    5.2445   20.5157   50.6987 C   0  0  0  0  0  0  0  0  0  0  0  0
    3.5294   18.3242   50.5839 C   0  0  0  0  0  0  0  0  0  0  0  0
    5.5989   19.3158   51.3176 C   0  0  0  0  0  0  0  0  0  0  0  0
    4.7443   18.2184   51.2543 C   0  0  0  0  0  0  0  0  0  0  0  0
    4.6775   23.0457   49.3139 C   0  0  0  0  0  0  0  0  0  0  0  0
    4.3065   24.0935   50.2383 N   0  0  0  0  0  0  0  0  0  0  0  0
    4.5925   24.1368   51.5753 C   0  0  0  0  0  0  0  0  0  0  0  0
    4.3107   25.3135   52.0892 N   0  0  0  0  0  0  0  0  0  0  0  0
    3.8304   26.0627   51.0478 C   0  0  0  0  0  0  0  0  0  0  0  0
    3.8181   25.3267   49.8833 C   0  0  0  0  0  0  0  0  0  0  0  0
    3.5237   21.5792   47.7435 O   0  0  0  0  0  0  0  0  0  0  0  0
    4.7636   21.3847   47.0559 C   0  0  0  0  0  0  0  0  0  0  0  0
    4.7301   20.0395   46.4077 C   0  0  0  0  0  0  0  0  0  0  0  0
    5.3948   18.9625   46.8491 C   0  0  0  0  0  0  0  0  0  0  0  0
  2  1  1  0  0  0
  2  3  2  0  0  0
  2  4  1  0  0  0
  1  8  1  0  0  0
  1 14  1  0  0  0
  3  5  1  0  0  0
  4  6  2  0  0  0
  8  9  1  0  0  0
 14 15  1  0  0  0
  5  7  2  0  0  0
  6  7  1  0  0  0
  9 10  1  0  0  0
 15 16  1  0  0  0
 16 17  2  0  0  0
 10 11  2  0  0  0
 11 12  2  0  0  0
 12 13  2  0  0  0
 13  9  1  0  0  0
M  END
> <minimizedAffinity>
-6.25826

$$$$
S5053 Imazalil.cdx


 17 18  0  0  0  0  0  0  0  0999 V2000
    6.9389   20.9735   47.3343 C   0  0  0  0  0  0  0  0  0  0  0  0
    8.2731   21.5182   46.8439 C   0  0  0  0  0  0  0  0  0  0  0  0
    8.7804   22.7057   47.3996 C   0  0  0  0  0  0  0  0  0  0  0  0
    9.0657   20.8295   45.9130 C   0  0  0  0  0  0  0  0  0  0  0  0
   10.0578   23.1608   47.0700 C   0  0  0  0  0  0  0  0  0  0  0  0
   10.3525   21.2726   45.6028 C   0  0  0  0  0  0  0  0  0  0  0  0
   10.8506   22.4345   46.1865 C   0  0  0  0  0  0  0  0  0  0  0  0
    6.3633   21.6732   48.5821 C   0  0  0  0  0  0  0  0  0  0  0  0
    6.1474   20.8756   49.7683 N   0  0  0  0  0  0  0  0  0  0  0  0
    4.9383   20.5143   50.2961 C   0  0  0  0  0  0  0  0  0  0  0  0
    5.0772   19.6144   51.2442 N   0  0  0  0  0  0  0  0  0  0  0  0
    6.4238   19.3785   51.3310 C   0  0  0  0  0  0  0  0  0  0  0  0
    7.1132   20.1508   50.4220 C   0  0  0  0  0  0  0  0  0  0  0  0
    5.9312   20.9007   46.3095 O   0  0  0  0  0  0  0  0  0  0  0  0
    5.0463   19.7914   46.4944 C   0  0  0  0  0  0  0  0  0  0  0  0
    5.8679   18.5941   46.8440 C   0  0  0  0  0  0  0  0  0  0  0  0
    5.5449   17.6943   47.7834 C   0  0  0  0  0  0  0  0  0  0  0  0
  2  1  1  0  0  0
  2  3  2  0  0  0
  2  4  1  0  0  0
  1  8  1  0  0  0
  1 14  1  0  0  0
  3  5  1  0  0  0
  4  6  2  0  0  0
  8  9  1  0  0  0
 14 15  1  0  0  0
  5  7  2  0  0  0
  6  7  1  0  0  0
  9 10  1  0  0  0
 15 16  1  0  0  0
 16 17  2  0  0  0
 10 11  2  0  0  0
 11 12  2  0  0  0
 12 13  2  0  0  0
 13  9  1  0  0  0
M  END
> <minimizedAffinity>
-6.25725

$$$$
