S5346 2-Phenylethylamine hydrochloride.cdx


 11 11  0  0  0  0  0  0  0  0999 V2000
    4.9498   18.4440   49.6821 C   0  0  0  0  0  0  0  0  0  0  0  0
    3.7112   17.9160   49.2918 C   0  0  0  0  0  0  0  0  0  0  0  0
    6.0545   18.2789   48.8359 C   0  0  0  0  0  0  0  0  0  0  0  0
    3.5774   17.2507   48.0721 C   0  0  0  0  0  0  0  0  0  0  0  0
    5.9193   17.6128   47.6160 C   0  0  0  0  0  0  0  0  0  0  0  0
    4.6804   17.1013   47.2333 C   0  0  0  0  0  0  0  0  0  0  0  0
    5.0925   19.1701   50.9983 C   0  0  0  0  0  0  0  0  0  0  0  0
    6.5579   19.4331   51.3590 C   0  0  0  0  0  0  0  0  0  0  0  0
    6.6997   19.7514   52.7809 N   0  0  0  0  0  0  0  0  0  0  0  0
    7.6869   19.8887   52.9969 H   0  0  0  0  0  0  0  0  0  0  0  0
    6.2407   20.6395   52.9783 H   0  0  0  0  0  0  0  0  0  0  0  0
  1  2  2  0  0  0
  1  3  1  0  0  0
  1  7  1  0  0  0
  2  4  1  0  0  0
  3  5  2  0  0  0
  7  8  1  0  0  0
  4  6  2  0  0  0
  5  6  1  0  0  0
  8  9  1  0  0  0
  9 10  1  0  0  0
  9 11  1  0  0  0
M  END
> <minimizedAffinity>
-5.16947

$$$$
S5346 2-Phenylethylamine hydrochloride.cdx


 11 11  0  0  0  0  0  0  0  0999 V2000
    4.7681   18.5105   50.1781 C   0  0  0  0  0  0  0  0  0  0  0  0
    5.9791   18.5798   49.4753 C   0  0  0  0  0  0  0  0  0  0  0  0
    3.6535   17.9346   49.5539 C   0  0  0  0  0  0  0  0  0  0  0  0
    6.0767   18.0684   48.1802 C   0  0  0  0  0  0  0  0  0  0  0  0
    3.7525   17.4236   48.2581 C   0  0  0  0  0  0  0  0  0  0  0  0
    4.9645   17.4882   47.5727 C   0  0  0  0  0  0  0  0  0  0  0  0
    4.6648   19.0572   51.5818 C   0  0  0  0  0  0  0  0  0  0  0  0
    5.6634   20.1905   51.8373 C   0  0  0  0  0  0  0  0  0  0  0  0
    6.6873   19.7811   52.8002 N   0  0  0  0  0  0  0  0  0  0  0  0
    7.3542   20.5426   52.9245 H   0  0  0  0  0  0  0  0  0  0  0  0
    6.2568   19.6306   53.7114 H   0  0  0  0  0  0  0  0  0  0  0  0
  1  2  2  0  0  0
  1  3  1  0  0  0
  1  7  1  0  0  0
  2  4  1  0  0  0
  3  5  2  0  0  0
  7  8  1  0  0  0
  4  6  2  0  0  0
  5  6  1  0  0  0
  8  9  1  0  0  0
  9 10  1  0  0  0
  9 11  1  0  0  0
M  END
> <minimizedAffinity>
-5.11271

$$$$
S5346 2-Phenylethylamine hydrochloride.cdx


 11 11  0  0  0  0  0  0  0  0999 V2000
    4.9228   17.4751   47.4628 C   0  0  0  0  0  0  0  0  0  0  0  0
    5.8650   17.8045   46.4784 C   0  0  0  0  0  0  0  0  0  0  0  0
    3.9666   16.4895   47.1838 C   0  0  0  0  0  0  0  0  0  0  0  0
    5.8604   17.1493   45.2459 C   0  0  0  0  0  0  0  0  0  0  0  0
    3.9628   15.8350   45.9501 C   0  0  0  0  0  0  0  0  0  0  0  0
    4.9112   16.1631   44.9828 C   0  0  0  0  0  0  0  0  0  0  0  0
    4.9328   18.1789   48.7987 C   0  0  0  0  0  0  0  0  0  0  0  0
    3.5356   18.2592   49.4217 C   0  0  0  0  0  0  0  0  0  0  0  0
    3.5405   17.7405   50.7907 N   0  0  0  0  0  0  0  0  0  0  0  0
    2.6067   17.8372   51.1892 H   0  0  0  0  0  0  0  0  0  0  0  0
    3.7395   16.7412   50.7754 H   0  0  0  0  0  0  0  0  0  0  0  0
  1  2  2  0  0  0
  1  3  1  0  0  0
  1  7  1  0  0  0
  2  4  1  0  0  0
  3  5  2  0  0  0
  7  8  1  0  0  0
  4  6  2  0  0  0
  5  6  1  0  0  0
  8  9  1  0  0  0
  9 10  1  0  0  0
  9 11  1  0  0  0
M  END
> <minimizedAffinity>
-5.08741

$$$$
S5346 2-Phenylethylamine hydrochloride.cdx


 11 11  0  0  0  0  0  0  0  0999 V2000
    5.2407   17.3970   47.6513 C   0  0  0  0  0  0  0  0  0  0  0  0
    6.1588   18.1257   48.4203 C   0  0  0  0  0  0  0  0  0  0  0  0
    3.9031   17.3401   48.0654 C   0  0  0  0  0  0  0  0  0  0  0  0
    5.7433   18.7972   49.5713 C   0  0  0  0  0  0  0  0  0  0  0  0
    3.4889   18.0121   49.2173 C   0  0  0  0  0  0  0  0  0  0  0  0
    4.4083   18.7426   49.9683 C   0  0  0  0  0  0  0  0  0  0  0  0
    5.6890   16.6767   46.4022 C   0  0  0  0  0  0  0  0  0  0  0  0
    4.5070   16.1989   45.5530 C   0  0  0  0  0  0  0  0  0  0  0  0
    4.7729   16.3926   44.1265 N   0  0  0  0  0  0  0  0  0  0  0  0
    3.9843   16.0360   43.5870 H   0  0  0  0  0  0  0  0  0  0  0  0
    4.8275   17.3895   43.9227 H   0  0  0  0  0  0  0  0  0  0  0  0
  1  2  2  0  0  0
  1  3  1  0  0  0
  1  7  1  0  0  0
  2  4  1  0  0  0
  3  5  2  0  0  0
  7  8  1  0  0  0
  4  6  2  0  0  0
  5  6  1  0  0  0
  8  9  1  0  0  0
  9 10  1  0  0  0
  9 11  1  0  0  0
M  END
> <minimizedAffinity>
-4.93810

$$$$
S5346 2-Phenylethylamine hydrochloride.cdx


 11 11  0  0  0  0  0  0  0  0999 V2000
    5.2123   15.5455   45.1460 C   0  0  0  0  0  0  0  0  0  0  0  0
    6.0132   16.6915   45.0436 C   0  0  0  0  0  0  0  0  0  0  0  0
    4.1613   15.5330   46.0727 C   0  0  0  0  0  0  0  0  0  0  0  0
    5.7571   17.8082   45.8409 C   0  0  0  0  0  0  0  0  0  0  0  0
    3.9064   16.6507   46.8701 C   0  0  0  0  0  0  0  0  0  0  0  0
    4.7025   17.7888   46.7521 C   0  0  0  0  0  0  0  0  0  0  0  0
    5.4851   14.3404   44.2781 C   0  0  0  0  0  0  0  0  0  0  0  0
    6.3195   14.6928   43.0427 C   0  0  0  0  0  0  0  0  0  0  0  0
    7.5582   13.9135   43.0058 N   0  0  0  0  0  0  0  0  0  0  0  0
    8.0751   14.1455   42.1579 H   0  0  0  0  0  0  0  0  0  0  0  0
    8.1555   14.1866   43.7849 H   0  0  0  0  0  0  0  0  0  0  0  0
  1  2  2  0  0  0
  1  3  1  0  0  0
  1  7  1  0  0  0
  2  4  1  0  0  0
  3  5  2  0  0  0
  7  8  1  0  0  0
  4  6  2  0  0  0
  5  6  1  0  0  0
  8  9  1  0  0  0
  9 10  1  0  0  0
  9 11  1  0  0  0
M  END
> <minimizedAffinity>
-4.82635

$$$$
