SHP099


 25 27  0  0  0  0  0  0  0  0999 V2000
    5.2303   20.7894   48.4736 N   0  0  0  0  0  0  0  0  0  0  0  0
    6.1955   18.1520   48.6885 N   0  0  0  0  0  0  0  0  0  0  0  0
    4.1155   20.2966   46.5007 N   0  0  0  0  0  0  0  0  0  0  0  0
    6.0172   20.4357   49.5103 C   0  0  0  0  0  0  0  0  0  0  0  0
    6.4536   19.1092   49.6004 C   0  0  0  0  0  0  0  0  0  0  0  0
    4.9451   19.8541   47.5372 C   0  0  0  0  0  0  0  0  0  0  0  0
    5.4303   18.5308   47.6360 C   0  0  0  0  0  0  0  0  0  0  0  0
    3.9960   21.2992   46.6018 H   0  0  0  0  0  0  0  0  0  0  0  0
    4.4720   20.0279   45.5898 H   0  0  0  0  0  0  0  0  0  0  0  0
    6.3520   21.3651   50.4726 N   0  0  0  0  0  0  0  0  0  0  0  0
    5.6619   25.0173   52.3226 N   0  0  0  0  0  0  0  0  0  0  0  0
    6.3380   23.7332   52.0737 C   0  0  0  0  0  0  0  0  0  0  0  0
    5.3020   22.6070   52.2598 C   0  0  0  0  0  0  0  0  0  0  0  0
    6.9008   23.7105   50.6335 C   0  0  0  0  0  0  0  0  0  0  0  0
    5.8680   21.2535   51.8439 C   0  0  0  0  0  0  0  0  0  0  0  0
    7.4223   22.3232   50.2311 C   0  0  0  0  0  0  0  0  0  0  0  0
    7.4671   23.6168   53.1109 C   0  0  0  0  0  0  0  0  0  0  0  0
    6.3147   25.7857   52.1805 H   0  0  0  0  0  0  0  0  0  0  0  0
    4.9178   25.1540   51.6379 H   0  0  0  0  0  0  0  0  0  0  0  0
    5.2440   17.4768   46.6176 C   0  0  0  0  0  0  0  0  0  0  0  0
    6.0385   17.3886   45.4629 C   0  0  0  0  0  0  0  0  0  0  0  0
    4.2432   16.4978   46.7881 C   0  0  0  0  0  0  0  0  0  0  0  0
    5.8855   16.3422   44.5515 C   0  0  0  0  0  0  0  0  0  0  0  0
    4.0694   15.4628   45.8663 C   0  0  0  0  0  0  0  0  0  0  0  0
    4.9003   15.3806   44.7543 C   0  0  0  0  0  0  0  0  0  0  0  0
 10 15  1  0  0  0
 10 16  1  0  0  0
 10  4  1  0  0  0
 11 12  1  0  0  0
 11 18  1  0  0  0
 11 19  1  0  0  0
  1  4  2  0  0  0
  1  6  2  0  0  0
  2  5  2  0  0  0
  2  7  2  0  0  0
  3  6  1  0  0  0
  3  8  1  0  0  0
  3  9  1  0  0  0
 12 13  1  0  0  0
 12 14  1  0  0  0
 12 17  1  0  0  0
 13 15  1  0  0  0
 14 16  1  0  0  0
  4  5  1  0  0  0
  6  7  2  0  0  0
  7 20  1  0  0  0
 20 21  2  0  0  0
 20 22  1  0  0  0
 21 23  1  0  0  0
 22 24  2  0  0  0
 23 25  2  0  0  0
 24 25  1  0  0  0
M  END
> <minimizedAffinity>
-8.56180

$$$$
SHP099


 25 27  0  0  0  0  0  0  0  0999 V2000
    3.8072   22.1042   48.4590 N   0  0  0  0  0  0  0  0  0  0  0  0
    5.8778   20.2210   48.7755 N   0  0  0  0  0  0  0  0  0  0  0  0
    2.5915   20.6493   47.1237 N   0  0  0  0  0  0  0  0  0  0  0  0
    4.8950   22.4072   49.1965 C   0  0  0  0  0  0  0  0  0  0  0  0
    5.8900   21.4363   49.3564 C   0  0  0  0  0  0  0  0  0  0  0  0
    3.7559   20.8905   47.8613 C   0  0  0  0  0  0  0  0  0  0  0  0
    4.7934   19.9431   48.0115 C   0  0  0  0  0  0  0  0  0  0  0  0
    2.0613   21.5137   47.0842 H   0  0  0  0  0  0  0  0  0  0  0  0
    2.7967   20.2659   46.2072 H   0  0  0  0  0  0  0  0  0  0  0  0
    4.9979   23.6423   49.8016 N   0  0  0  0  0  0  0  0  0  0  0  0
    3.4085   26.5550   52.2970 N   0  0  0  0  0  0  0  0  0  0  0  0
    4.3883   25.9439   51.3835 C   0  0  0  0  0  0  0  0  0  0  0  0
    4.8565   24.6151   52.0089 C   0  0  0  0  0  0  0  0  0  0  0  0
    3.7293   25.6858   50.0085 C   0  0  0  0  0  0  0  0  0  0  0  0
    5.7359   23.8243   51.0463 C   0  0  0  0  0  0  0  0  0  0  0  0
    4.6224   24.8503   49.0795 C   0  0  0  0  0  0  0  0  0  0  0  0
    5.5581   26.9340   51.2593 C   0  0  0  0  0  0  0  0  0  0  0  0
    3.0583   27.4241   51.8983 H   0  0  0  0  0  0  0  0  0  0  0  0
    2.5963   25.9445   52.3906 H   0  0  0  0  0  0  0  0  0  0  0  0
    4.8606   18.6372   47.3242 C   0  0  0  0  0  0  0  0  0  0  0  0
    4.0292   17.5575   47.6636 C   0  0  0  0  0  0  0  0  0  0  0  0
    5.7793   18.4380   46.2726 C   0  0  0  0  0  0  0  0  0  0  0  0
    4.0669   16.3570   46.9519 C   0  0  0  0  0  0  0  0  0  0  0  0
    5.8384   17.2301   45.5736 C   0  0  0  0  0  0  0  0  0  0  0  0
    4.9723   16.1947   45.9078 C   0  0  0  0  0  0  0  0  0  0  0  0
 10 15  1  0  0  0
 10 16  1  0  0  0
 10  4  1  0  0  0
 11 12  1  0  0  0
 11 18  1  0  0  0
 11 19  1  0  0  0
  1  4  2  0  0  0
  1  6  2  0  0  0
  2  5  2  0  0  0
  2  7  2  0  0  0
  3  6  1  0  0  0
  3  8  1  0  0  0
  3  9  1  0  0  0
 12 13  1  0  0  0
 12 14  1  0  0  0
 12 17  1  0  0  0
 13 15  1  0  0  0
 14 16  1  0  0  0
  4  5  1  0  0  0
  6  7  2  0  0  0
  7 20  1  0  0  0
 20 21  2  0  0  0
 20 22  1  0  0  0
 21 23  1  0  0  0
 22 24  2  0  0  0
 23 25  2  0  0  0
 24 25  1  0  0  0
M  END
> <minimizedAffinity>
-8.52954

$$$$
SHP099


 25 27  0  0  0  0  0  0  0  0999 V2000
    5.4441   20.9033   47.8370 N   0  0  0  0  0  0  0  0  0  0  0  0
    6.0427   18.2618   48.6103 N   0  0  0  0  0  0  0  0  0  0  0  0
    4.5047   20.1825   45.8431 N   0  0  0  0  0  0  0  0  0  0  0  0
    6.0596   20.6619   49.0126 C   0  0  0  0  0  0  0  0  0  0  0  0
    6.3144   19.3352   49.3774 C   0  0  0  0  0  0  0  0  0  0  0  0
    5.1512   19.8498   47.0387 C   0  0  0  0  0  0  0  0  0  0  0  0
    5.4534   18.5227   47.4180 C   0  0  0  0  0  0  0  0  0  0  0  0
    4.5006   21.1939   45.7603 H   0  0  0  0  0  0  0  0  0  0  0  0
    4.9247   19.7194   45.0442 H   0  0  0  0  0  0  0  0  0  0  0  0
    6.3978   21.7092   49.8437 N   0  0  0  0  0  0  0  0  0  0  0  0
    8.3468   23.1124   53.2304 N   0  0  0  0  0  0  0  0  0  0  0  0
    7.5190   23.1919   52.0154 C   0  0  0  0  0  0  0  0  0  0  0  0
    8.3698   22.6998   50.8279 C   0  0  0  0  0  0  0  0  0  0  0  0
    6.2643   22.3031   52.1799 C   0  0  0  0  0  0  0  0  0  0  0  0
    7.5359   22.5751   49.5573 C   0  0  0  0  0  0  0  0  0  0  0  0
    5.4713   22.1628   50.8721 C   0  0  0  0  0  0  0  0  0  0  0  0
    7.1312   24.6691   51.8374 C   0  0  0  0  0  0  0  0  0  0  0  0
    7.8030   23.4058   54.0398 H   0  0  0  0  0  0  0  0  0  0  0  0
    8.6078   22.1420   53.4073 H   0  0  0  0  0  0  0  0  0  0  0  0
    5.2525   17.3282   46.5722 C   0  0  0  0  0  0  0  0  0  0  0  0
    6.1376   16.9701   45.5423 C   0  0  0  0  0  0  0  0  0  0  0  0
    4.1419   16.4864   46.7898 C   0  0  0  0  0  0  0  0  0  0  0  0
    5.9604   15.7986   44.8038 C   0  0  0  0  0  0  0  0  0  0  0  0
    3.9464   15.3262   46.0370 C   0  0  0  0  0  0  0  0  0  0  0  0
    4.8642   14.9783   45.0519 C   0  0  0  0  0  0  0  0  0  0  0  0
 10 15  1  0  0  0
 10 16  1  0  0  0
 10  4  1  0  0  0
 11 12  1  0  0  0
 11 18  1  0  0  0
 11 19  1  0  0  0
  1  4  2  0  0  0
  1  6  2  0  0  0
  2  5  2  0  0  0
  2  7  2  0  0  0
  3  6  1  0  0  0
  3  8  1  0  0  0
  3  9  1  0  0  0
 12 13  1  0  0  0
 12 14  1  0  0  0
 12 17  1  0  0  0
 13 15  1  0  0  0
 14 16  1  0  0  0
  4  5  1  0  0  0
  6  7  2  0  0  0
  7 20  1  0  0  0
 20 21  2  0  0  0
 20 22  1  0  0  0
 21 23  1  0  0  0
 22 24  2  0  0  0
 23 25  2  0  0  0
 24 25  1  0  0  0
M  END
> <minimizedAffinity>
-8.52679

$$$$
SHP099


 25 27  0  0  0  0  0  0  0  0999 V2000
    6.0337   20.4959   49.0399 N   0  0  0  0  0  0  0  0  0  0  0  0
    4.8218   20.2015   46.5143 N   0  0  0  0  0  0  0  0  0  0  0  0
    6.5572   18.2385   49.1310 N   0  0  0  0  0  0  0  0  0  0  0  0
    5.4871   21.5615   48.4196 C   0  0  0  0  0  0  0  0  0  0  0  0
    4.9202   21.3835   47.1527 C   0  0  0  0  0  0  0  0  0  0  0  0
    5.9581   19.2902   48.4286 C   0  0  0  0  0  0  0  0  0  0  0  0
    5.3469   19.1344   47.1643 C   0  0  0  0  0  0  0  0  0  0  0  0
    6.8251   18.5858   50.0462 H   0  0  0  0  0  0  0  0  0  0  0  0
    5.9564   17.4223   49.1751 H   0  0  0  0  0  0  0  0  0  0  0  0
    5.5207   22.8029   49.0196 N   0  0  0  0  0  0  0  0  0  0  0  0
    5.5303   25.1200   52.4646 N   0  0  0  0  0  0  0  0  0  0  0  0
    5.5427   24.8469   51.0178 C   0  0  0  0  0  0  0  0  0  0  0  0
    6.7824   23.9849   50.7077 C   0  0  0  0  0  0  0  0  0  0  0  0
    4.2529   24.0934   50.6181 C   0  0  0  0  0  0  0  0  0  0  0  0
    6.7782   23.5008   49.2617 C   0  0  0  0  0  0  0  0  0  0  0  0
    4.2990   23.5816   49.1708 C   0  0  0  0  0  0  0  0  0  0  0  0
    5.6302   26.2086   50.3091 C   0  0  0  0  0  0  0  0  0  0  0  0
    4.7060   25.6665   52.7069 H   0  0  0  0  0  0  0  0  0  0  0  0
    5.4450   24.2438   52.9805 H   0  0  0  0  0  0  0  0  0  0  0  0
    5.1409   17.8466   46.4704 C   0  0  0  0  0  0  0  0  0  0  0  0
    5.9742   17.4030   45.4307 C   0  0  0  0  0  0  0  0  0  0  0  0
    4.0792   16.9999   46.8517 C   0  0  0  0  0  0  0  0  0  0  0  0
    5.7975   16.1508   44.8392 C   0  0  0  0  0  0  0  0  0  0  0  0
    3.8828   15.7567   46.2459 C   0  0  0  0  0  0  0  0  0  0  0  0
    4.7512   15.3293   45.2474 C   0  0  0  0  0  0  0  0  0  0  0  0
 10 15  1  0  0  0
 10 16  1  0  0  0
 10  4  1  0  0  0
 11 12  1  0  0  0
 11 18  1  0  0  0
 11 19  1  0  0  0
  1  4  2  0  0  0
  1  6  2  0  0  0
  2  5  2  0  0  0
  2  7  2  0  0  0
  3  6  1  0  0  0
  3  8  1  0  0  0
  3  9  1  0  0  0
 12 13  1  0  0  0
 12 14  1  0  0  0
 12 17  1  0  0  0
 13 15  1  0  0  0
 14 16  1  0  0  0
  4  5  1  0  0  0
  6  7  2  0  0  0
  7 20  1  0  0  0
 20 21  2  0  0  0
 20 22  1  0  0  0
 21 23  1  0  0  0
 22 24  2  0  0  0
 23 25  2  0  0  0
 24 25  1  0  0  0
M  END
> <minimizedAffinity>
-8.29942

$$$$
SHP099


 25 27  0  0  0  0  0  0  0  0999 V2000
    5.7308   20.7826   49.7287 N   0  0  0  0  0  0  0  0  0  0  0  0
    4.3040   20.4632   47.3211 N   0  0  0  0  0  0  0  0  0  0  0  0
    6.6079   18.6412   49.5760 N   0  0  0  0  0  0  0  0  0  0  0  0
    4.9580   21.7830   49.2584 C   0  0  0  0  0  0  0  0  0  0  0  0
    4.2874   21.5997   48.0440 C   0  0  0  0  0  0  0  0  0  0  0  0
    5.7766   19.6248   49.0284 C   0  0  0  0  0  0  0  0  0  0  0  0
    5.0593   19.4559   47.8228 C   0  0  0  0  0  0  0  0  0  0  0  0
    6.9192   18.9655   50.4859 H   0  0  0  0  0  0  0  0  0  0  0  0
    6.1511   17.7361   49.6108 H   0  0  0  0  0  0  0  0  0  0  0  0
    4.8640   22.9697   49.9548 N   0  0  0  0  0  0  0  0  0  0  0  0
    6.5563   26.5668   51.1523 N   0  0  0  0  0  0  0  0  0  0  0  0
    5.5250   25.5196   51.0650 C   0  0  0  0  0  0  0  0  0  0  0  0
    5.1562   25.3387   49.5792 C   0  0  0  0  0  0  0  0  0  0  0  0
    6.0751   24.1960   51.6452 C   0  0  0  0  0  0  0  0  0  0  0  0
    4.2270   24.1470   49.3757 C   0  0  0  0  0  0  0  0  0  0  0  0
    5.1365   23.0085   51.3852 C   0  0  0  0  0  0  0  0  0  0  0  0
    4.3158   26.0179   51.8735 C   0  0  0  0  0  0  0  0  0  0  0  0
    6.8421   26.6915   52.1216 H   0  0  0  0  0  0  0  0  0  0  0  0
    7.3938   26.2691   50.6512 H   0  0  0  0  0  0  0  0  0  0  0  0
    4.9808   18.2013   47.0468 C   0  0  0  0  0  0  0  0  0  0  0  0
    4.0253   17.2058   47.3085 C   0  0  0  0  0  0  0  0  0  0  0  0
    5.8809   17.9684   45.9861 C   0  0  0  0  0  0  0  0  0  0  0  0
    3.9301   16.0608   46.5153 C   0  0  0  0  0  0  0  0  0  0  0  0
    5.8058   16.8127   45.2052 C   0  0  0  0  0  0  0  0  0  0  0  0
    4.8213   15.8656   45.4646 C   0  0  0  0  0  0  0  0  0  0  0  0
 10 15  1  0  0  0
 10 16  1  0  0  0
 10  4  1  0  0  0
 11 12  1  0  0  0
 11 18  1  0  0  0
 11 19  1  0  0  0
  1  4  2  0  0  0
  1  6  2  0  0  0
  2  5  2  0  0  0
  2  7  2  0  0  0
  3  6  1  0  0  0
  3  8  1  0  0  0
  3  9  1  0  0  0
 12 13  1  0  0  0
 12 14  1  0  0  0
 12 17  1  0  0  0
 13 15  1  0  0  0
 14 16  1  0  0  0
  4  5  1  0  0  0
  6  7  2  0  0  0
  7 20  1  0  0  0
 20 21  2  0  0  0
 20 22  1  0  0  0
 21 23  1  0  0  0
 22 24  2  0  0  0
 23 25  2  0  0  0
 24 25  1  0  0  0
M  END
> <minimizedAffinity>
-8.19702

$$$$
