VIOXX (rofecoxib).cdx


 22 24  0  0  0  0  0  0  0  0999 V2000
    4.9341   20.4158   49.9617 C   0  0  0  0  0  0  0  0  0  0  0  0
    5.7272   19.8889   49.0242 C   0  0  0  0  0  0  0  0  0  0  0  0
    5.4769   18.4361   49.0532 C   0  0  0  0  0  0  0  0  0  0  0  0
    4.5543   18.1581   50.0179 O   0  0  0  0  0  0  0  0  0  0  0  0
    4.1532   19.3717   50.6520 C   0  0  0  0  0  0  0  0  0  0  0  0
    6.0003   17.6060   48.3328 O   0  0  0  0  0  0  0  0  0  0  0  0
    5.3221   23.7426   51.6734 C   0  0  0  0  0  0  0  0  0  0  0  0
    4.5301   24.5481   50.8508 C   0  0  0  0  0  0  0  0  0  0  0  0
    3.8327   24.0007   49.7718 C   0  0  0  0  0  0  0  0  0  0  0  0
    3.9625   22.6396   49.4907 C   0  0  0  0  0  0  0  0  0  0  0  0
    4.7767   21.8265   50.2898 C   0  0  0  0  0  0  0  0  0  0  0  0
    5.4486   22.3813   51.3860 C   0  0  0  0  0  0  0  0  0  0  0  0
    4.3825   26.2848   51.1998 S   0  0  0  0  0  0  0  0  0  0  0  0
    3.5388   26.9153   49.7714 C   0  0  0  0  0  0  0  0  0  0  0  0
    3.5024   26.4261   52.3445 O   0  0  0  0  0  0  0  0  0  0  0  0
    5.7219   26.8406   51.2182 O   0  0  0  0  0  0  0  0  0  0  0  0
    6.6413   20.5546   48.1062 C   0  0  0  0  0  0  0  0  0  0  0  0
    7.9776   20.7640   48.4676 C   0  0  0  0  0  0  0  0  0  0  0  0
    8.8650   21.3592   47.5684 C   0  0  0  0  0  0  0  0  0  0  0  0
    8.4211   21.7541   46.3073 C   0  0  0  0  0  0  0  0  0  0  0  0
    7.0879   21.5641   45.9468 C   0  0  0  0  0  0  0  0  0  0  0  0
    6.1991   20.9680   46.8439 C   0  0  0  0  0  0  0  0  0  0  0  0
  7  8  2  0  0  0
  8  9  1  0  0  0
  8 13  1  0  0  0
  9 10  2  0  0  0
 10 11  1  0  0  0
 11 12  2  0  0  0
 11  1  1  0  0  0
 12  7  1  0  0  0
 13 14  1  0  0  0
 13 15  2  0  0  0
 13 16  2  0  0  0
  1  2  2  0  0  0
  2  3  1  0  0  0
  2 17  1  0  0  0
  3  4  1  0  0  0
  3  6  2  0  0  0
  4  5  1  0  0  0
  5  1  1  0  0  0
 17 18  2  0  0  0
 18 19  1  0  0  0
 19 20  2  0  0  0
 20 21  1  0  0  0
 21 22  2  0  0  0
 22 17  1  0  0  0
M  END
> <minimizedAffinity>
-8.55053

$$$$
VIOXX (rofecoxib).cdx


 22 24  0  0  0  0  0  0  0  0999 V2000
    4.6330   19.9769   48.2375 C   0  0  0  0  0  0  0  0  0  0  0  0
    5.4971   19.6841   47.2613 C   0  0  0  0  0  0  0  0  0  0  0  0
    4.9443   18.5027   46.5735 C   0  0  0  0  0  0  0  0  0  0  0  0
    3.7800   18.1336   47.1795 O   0  0  0  0  0  0  0  0  0  0  0  0
    3.5059   19.0252   48.2592 C   0  0  0  0  0  0  0  0  0  0  0  0
    5.4365   17.9393   45.6131 O   0  0  0  0  0  0  0  0  0  0  0  0
    5.4957   22.0525   51.2534 C   0  0  0  0  0  0  0  0  0  0  0  0
    4.9038   23.2694   50.9049 C   0  0  0  0  0  0  0  0  0  0  0  0
    4.1844   23.3997   49.7151 C   0  0  0  0  0  0  0  0  0  0  0  0
    4.0912   22.3106   48.8472 C   0  0  0  0  0  0  0  0  0  0  0  0
    4.7049   21.0934   49.1706 C   0  0  0  0  0  0  0  0  0  0  0  0
    5.3997   20.9666   50.3798 C   0  0  0  0  0  0  0  0  0  0  0  0
    5.0409   24.6603   52.0033 S   0  0  0  0  0  0  0  0  0  0  0  0
    6.1141   25.7671   51.1244 C   0  0  0  0  0  0  0  0  0  0  0  0
    3.7303   25.2761   52.0926 O   0  0  0  0  0  0  0  0  0  0  0  0
    5.7328   24.2076   53.1949 O   0  0  0  0  0  0  0  0  0  0  0  0
    6.7245   20.3679   46.8777 C   0  0  0  0  0  0  0  0  0  0  0  0
    6.7236   21.2775   45.8134 C   0  0  0  0  0  0  0  0  0  0  0  0
    7.8897   21.9684   45.4770 C   0  0  0  0  0  0  0  0  0  0  0  0
    9.0633   21.7495   46.1967 C   0  0  0  0  0  0  0  0  0  0  0  0
    9.0759   20.8329   47.2470 C   0  0  0  0  0  0  0  0  0  0  0  0
    7.9108   20.1417   47.5860 C   0  0  0  0  0  0  0  0  0  0  0  0
  7  8  2  0  0  0
  8  9  1  0  0  0
  8 13  1  0  0  0
  9 10  2  0  0  0
 10 11  1  0  0  0
 11 12  2  0  0  0
 11  1  1  0  0  0
 12  7  1  0  0  0
 13 14  1  0  0  0
 13 15  2  0  0  0
 13 16  2  0  0  0
  1  2  2  0  0  0
  2  3  1  0  0  0
  2 17  1  0  0  0
  3  4  1  0  0  0
  3  6  2  0  0  0
  4  5  1  0  0  0
  5  1  1  0  0  0
 17 18  2  0  0  0
 18 19  1  0  0  0
 19 20  2  0  0  0
 20 21  1  0  0  0
 21 22  2  0  0  0
 22 17  1  0  0  0
M  END
> <minimizedAffinity>
-7.87541

$$$$
VIOXX (rofecoxib).cdx


 22 24  0  0  0  0  0  0  0  0999 V2000
    4.5063   18.4137   48.1067 C   0  0  0  0  0  0  0  0  0  0  0  0
    5.1447   19.5443   48.4226 C   0  0  0  0  0  0  0  0  0  0  0  0
    4.5453   20.0067   49.6880 C   0  0  0  0  0  0  0  0  0  0  0  0
    3.5644   19.1377   50.0647 O   0  0  0  0  0  0  0  0  0  0  0  0
    3.4707   18.0859   49.1051 C   0  0  0  0  0  0  0  0  0  0  0  0
    4.8684   21.0017   50.3105 O   0  0  0  0  0  0  0  0  0  0  0  0
    6.0764   16.9768   45.0055 C   0  0  0  0  0  0  0  0  0  0  0  0
    5.3074   15.8218   44.8404 C   0  0  0  0  0  0  0  0  0  0  0  0
    4.2497   15.5372   45.7068 C   0  0  0  0  0  0  0  0  0  0  0  0
    3.9858   16.3985   46.7730 C   0  0  0  0  0  0  0  0  0  0  0  0
    4.7678   17.5445   46.9673 C   0  0  0  0  0  0  0  0  0  0  0  0
    5.8077   17.8341   46.0752 C   0  0  0  0  0  0  0  0  0  0  0  0
    5.6586   14.7168   43.4930 S   0  0  0  0  0  0  0  0  0  0  0  0
    7.3837   14.9928   43.1811 C   0  0  0  0  0  0  0  0  0  0  0  0
    5.4989   13.3621   43.9873 O   0  0  0  0  0  0  0  0  0  0  0  0
    4.9089   15.1817   42.3419 O   0  0  0  0  0  0  0  0  0  0  0  0
    6.2368   20.2136   47.7292 C   0  0  0  0  0  0  0  0  0  0  0  0
    7.5533   20.0750   48.1848 C   0  0  0  0  0  0  0  0  0  0  0  0
    8.6052   20.6779   47.4916 C   0  0  0  0  0  0  0  0  0  0  0  0
    8.3469   21.4273   46.3448 C   0  0  0  0  0  0  0  0  0  0  0  0
    7.0367   21.5835   45.8949 C   0  0  0  0  0  0  0  0  0  0  0  0
    5.9835   20.9806   46.5857 C   0  0  0  0  0  0  0  0  0  0  0  0
  7  8  2  0  0  0
  8  9  1  0  0  0
  8 13  1  0  0  0
  9 10  2  0  0  0
 10 11  1  0  0  0
 11 12  2  0  0  0
 11  1  1  0  0  0
 12  7  1  0  0  0
 13 14  1  0  0  0
 13 15  2  0  0  0
 13 16  2  0  0  0
  1  2  2  0  0  0
  2  3  1  0  0  0
  2 17  1  0  0  0
  3  4  1  0  0  0
  3  6  2  0  0  0
  4  5  1  0  0  0
  5  1  1  0  0  0
 17 18  2  0  0  0
 18 19  1  0  0  0
 19 20  2  0  0  0
 20 21  1  0  0  0
 21 22  2  0  0  0
 22 17  1  0  0  0
M  END
> <minimizedAffinity>
-7.67550

$$$$
VIOXX (rofecoxib).cdx


 22 24  0  0  0  0  0  0  0  0999 V2000
    4.5401   18.9599   47.4771 C   0  0  0  0  0  0  0  0  0  0  0  0
    5.2045   20.0722   47.8040 C   0  0  0  0  0  0  0  0  0  0  0  0
    4.3798   20.7513   48.8204 C   0  0  0  0  0  0  0  0  0  0  0  0
    3.2511   20.0202   49.0452 O   0  0  0  0  0  0  0  0  0  0  0  0
    3.2716   18.8543   48.2229 C   0  0  0  0  0  0  0  0  0  0  0  0
    4.6535   21.7966   49.3812 O   0  0  0  0  0  0  0  0  0  0  0  0
    5.2747   17.1231   44.2779 C   0  0  0  0  0  0  0  0  0  0  0  0
    5.8642   15.9598   44.7798 C   0  0  0  0  0  0  0  0  0  0  0  0
    5.9775   15.7522   46.1562 C   0  0  0  0  0  0  0  0  0  0  0  0
    5.5315   16.7384   47.0375 C   0  0  0  0  0  0  0  0  0  0  0  0
    4.9653   17.9223   46.5471 C   0  0  0  0  0  0  0  0  0  0  0  0
    4.8313   18.1067   45.1654 C   0  0  0  0  0  0  0  0  0  0  0  0
    6.4489   14.7143   43.6543 S   0  0  0  0  0  0  0  0  0  0  0  0
    5.2740   14.7840   42.3261 C   0  0  0  0  0  0  0  0  0  0  0  0
    7.7341   15.1552   43.1456 O   0  0  0  0  0  0  0  0  0  0  0  0
    6.3113   13.4308   44.3155 O   0  0  0  0  0  0  0  0  0  0  0  0
    6.4931   20.5535   47.3252 C   0  0  0  0  0  0  0  0  0  0  0  0
    6.5718   21.3147   46.1528 C   0  0  0  0  0  0  0  0  0  0  0  0
    7.8014   21.8161   45.7203 C   0  0  0  0  0  0  0  0  0  0  0  0
    8.9586   21.5541   46.4521 C   0  0  0  0  0  0  0  0  0  0  0  0
    8.8904   20.7828   47.6113 C   0  0  0  0  0  0  0  0  0  0  0  0
    7.6618   20.2815   48.0464 C   0  0  0  0  0  0  0  0  0  0  0  0
  7  8  2  0  0  0
  8  9  1  0  0  0
  8 13  1  0  0  0
  9 10  2  0  0  0
 10 11  1  0  0  0
 11 12  2  0  0  0
 11  1  1  0  0  0
 12  7  1  0  0  0
 13 14  1  0  0  0
 13 15  2  0  0  0
 13 16  2  0  0  0
  1  2  2  0  0  0
  2  3  1  0  0  0
  2 17  1  0  0  0
  3  4  1  0  0  0
  3  6  2  0  0  0
  4  5  1  0  0  0
  5  1  1  0  0  0
 17 18  2  0  0  0
 18 19  1  0  0  0
 19 20  2  0  0  0
 20 21  1  0  0  0
 21 22  2  0  0  0
 22 17  1  0  0  0
M  END
> <minimizedAffinity>
-7.58902

$$$$
VIOXX (rofecoxib).cdx


 22 24  0  0  0  0  0  0  0  0999 V2000
    5.2150   20.6116   47.4175 C   0  0  0  0  0  0  0  0  0  0  0  0
    4.6824   19.4774   47.8816 C   0  0  0  0  0  0  0  0  0  0  0  0
    4.4835   18.6129   46.7037 C   0  0  0  0  0  0  0  0  0  0  0  0
    4.8938   19.2759   45.5851 O   0  0  0  0  0  0  0  0  0  0  0  0
    5.3765   20.5676   45.9517 C   0  0  0  0  0  0  0  0  0  0  0  0
    4.0303   17.4831   46.7146 O   0  0  0  0  0  0  0  0  0  0  0  0
    5.1140   23.7075   49.5513 C   0  0  0  0  0  0  0  0  0  0  0  0
    6.4796   23.9228   49.7555 C   0  0  0  0  0  0  0  0  0  0  0  0
    7.4312   23.0920   49.1601 C   0  0  0  0  0  0  0  0  0  0  0  0
    7.0087   22.0108   48.3849 C   0  0  0  0  0  0  0  0  0  0  0  0
    5.6423   21.7663   48.1963 C   0  0  0  0  0  0  0  0  0  0  0  0
    4.6978   22.6230   48.7752 C   0  0  0  0  0  0  0  0  0  0  0  0
    7.0139   25.2890   50.7593 S   0  0  0  0  0  0  0  0  0  0  0  0
    5.5099   26.1800   51.0655 C   0  0  0  0  0  0  0  0  0  0  0  0
    7.4833   24.7462   52.0202 O   0  0  0  0  0  0  0  0  0  0  0  0
    7.8754   26.1202   49.9406 O   0  0  0  0  0  0  0  0  0  0  0  0
    4.3736   19.0947   49.2526 C   0  0  0  0  0  0  0  0  0  0  0  0
    5.3793   18.6009   50.0920 C   0  0  0  0  0  0  0  0  0  0  0  0
    5.0926   18.2793   51.4204 C   0  0  0  0  0  0  0  0  0  0  0  0
    3.7994   18.4426   51.9148 C   0  0  0  0  0  0  0  0  0  0  0  0
    2.7891   18.9180   51.0801 C   0  0  0  0  0  0  0  0  0  0  0  0
    3.0738   19.2414   49.7517 C   0  0  0  0  0  0  0  0  0  0  0  0
  7  8  2  0  0  0
  8  9  1  0  0  0
  8 13  1  0  0  0
  9 10  2  0  0  0
 10 11  1  0  0  0
 11 12  2  0  0  0
 11  1  1  0  0  0
 12  7  1  0  0  0
 13 14  1  0  0  0
 13 15  2  0  0  0
 13 16  2  0  0  0
  1  2  2  0  0  0
  2  3  1  0  0  0
  2 17  1  0  0  0
  3  4  1  0  0  0
  3  6  2  0  0  0
  4  5  1  0  0  0
  5  1  1  0  0  0
 17 18  2  0  0  0
 18 19  1  0  0  0
 19 20  2  0  0  0
 20 21  1  0  0  0
 21 22  2  0  0  0
 22 17  1  0  0  0
M  END
> <minimizedAffinity>
-7.47921

$$$$
