WAY-310445


 24 26  0  0  0  0  0  0  0  0999 V2000
    5.0692   22.8412   49.6028 C   0  0  0  0  0  0  0  0  0  0  0  0
    6.1745   22.0581   49.7377 C   0  0  0  0  0  0  0  0  0  0  0  0
    4.3734   22.5460   48.4689 N   0  0  0  0  0  0  0  0  0  0  0  0
    4.7490   23.7974   50.5355 N   0  0  0  0  0  0  0  0  0  0  0  0
    6.1346   21.2079   48.6635 N   0  0  0  0  0  0  0  0  0  0  0  0
    7.0990   22.1895   50.8081 C   0  0  0  0  0  0  0  0  0  0  0  0
    5.0183   21.5372   47.9192 C   0  0  0  0  0  0  0  0  0  0  0  0
    5.5902   23.9935   51.6353 C   0  0  0  0  0  0  0  0  0  0  0  0
    3.5427   24.5905   50.4322 C   0  0  0  0  0  0  0  0  0  0  0  0
    7.1479   20.2317   48.3463 C   0  0  0  0  0  0  0  0  0  0  0  0
    6.7414   23.1898   51.7183 N   0  0  0  0  0  0  0  0  0  0  0  0
    8.1057   21.4875   50.9119 O   0  0  0  0  0  0  0  0  0  0  0  0
    5.3313   24.8363   52.5005 O   0  0  0  0  0  0  0  0  0  0  0  0
    7.6005   23.4152   52.8647 C   0  0  0  0  0  0  0  0  0  0  0  0
    4.7224   20.8860   46.7741 N   0  0  0  0  0  0  0  0  0  0  0  0
    5.4479   20.7558   46.0756 H   0  0  0  0  0  0  0  0  0  0  0  0
    3.6354   19.9090   46.7614 C   0  0  0  0  0  0  0  0  0  0  0  0
    4.0542   18.6465   47.5244 C   0  0  0  0  0  0  0  0  0  0  0  0
    4.5518   17.5256   46.6438 C   0  0  0  0  0  0  0  0  0  0  0  0
    3.8854   16.2921   46.6271 C   0  0  0  0  0  0  0  0  0  0  0  0
    5.6532   17.7106   45.7969 C   0  0  0  0  0  0  0  0  0  0  0  0
    4.2648   15.2926   45.7288 C   0  0  0  0  0  0  0  0  0  0  0  0
    6.0396   16.7041   44.9084 C   0  0  0  0  0  0  0  0  0  0  0  0
    5.3324   15.5040   44.8593 C   0  0  0  0  0  0  0  0  0  0  0  0
  1  2  2  0  0  0
  1  3  2  0  0  0
  1  4  1  0  0  0
  2  5  1  0  0  0
  2  6  1  0  0  0
  3  7  2  0  0  0
  4  8  1  0  0  0
  4  9  1  0  0  0
  5 10  1  0  0  0
  5  7  1  0  0  0
  6 11  1  0  0  0
  6 12  2  0  0  0
  7 15  1  0  0  0
  8 13  2  0  0  0
  8 11  1  0  0  0
 11 14  1  0  0  0
 15 17  1  0  0  0
 15 16  1  0  0  0
 17 18  1  0  0  0
 18 19  1  0  0  0
 19 20  2  0  0  0
 19 21  1  0  0  0
 20 22  1  0  0  0
 21 23  2  0  0  0
 22 24  2  0  0  0
 23 24  1  0  0  0
M  END
> <minimizedAffinity>
-8.60981

$$$$
WAY-310445


 24 26  0  0  0  0  0  0  0  0999 V2000
    4.7630   22.1155   50.2763 C   0  0  0  0  0  0  0  0  0  0  0  0
    5.3422   21.1534   51.0458 C   0  0  0  0  0  0  0  0  0  0  0  0
    3.8233   21.5966   49.4370 N   0  0  0  0  0  0  0  0  0  0  0  0
    5.1277   23.4355   50.3828 N   0  0  0  0  0  0  0  0  0  0  0  0
    4.6979   19.9941   50.7007 N   0  0  0  0  0  0  0  0  0  0  0  0
    6.3845   21.4178   51.9737 C   0  0  0  0  0  0  0  0  0  0  0  0
    3.7772   20.3108   49.7206 C   0  0  0  0  0  0  0  0  0  0  0  0
    6.1364   23.7996   51.2804 C   0  0  0  0  0  0  0  0  0  0  0  0
    4.4731   24.4726   49.6140 C   0  0  0  0  0  0  0  0  0  0  0  0
    5.0229   18.6858   51.2136 C   0  0  0  0  0  0  0  0  0  0  0  0
    6.7352   22.7710   52.0297 N   0  0  0  0  0  0  0  0  0  0  0  0
    6.9141   20.5374   52.6530 O   0  0  0  0  0  0  0  0  0  0  0  0
    6.4853   24.9772   51.4123 O   0  0  0  0  0  0  0  0  0  0  0  0
    7.7817   23.1725   52.9497 C   0  0  0  0  0  0  0  0  0  0  0  0
    3.0006   19.3620   49.1556 N   0  0  0  0  0  0  0  0  0  0  0  0
    2.0213   19.3016   49.4175 H   0  0  0  0  0  0  0  0  0  0  0  0
    3.3455   18.8416   47.8341 C   0  0  0  0  0  0  0  0  0  0  0  0
    3.8537   17.3997   47.9529 C   0  0  0  0  0  0  0  0  0  0  0  0
    4.4722   16.8536   46.6884 C   0  0  0  0  0  0  0  0  0  0  0  0
    5.4813   17.5704   46.0297 C   0  0  0  0  0  0  0  0  0  0  0  0
    4.0857   15.6066   46.1786 C   0  0  0  0  0  0  0  0  0  0  0  0
    6.1418   17.0183   44.9303 C   0  0  0  0  0  0  0  0  0  0  0  0
    4.7388   15.0620   45.0701 C   0  0  0  0  0  0  0  0  0  0  0  0
    5.7806   15.7580   44.4595 C   0  0  0  0  0  0  0  0  0  0  0  0
  1  2  2  0  0  0
  1  3  2  0  0  0
  1  4  1  0  0  0
  2  5  1  0  0  0
  2  6  1  0  0  0
  3  7  2  0  0  0
  4  8  1  0  0  0
  4  9  1  0  0  0
  5 10  1  0  0  0
  5  7  1  0  0  0
  6 11  1  0  0  0
  6 12  2  0  0  0
  7 15  1  0  0  0
  8 13  2  0  0  0
  8 11  1  0  0  0
 11 14  1  0  0  0
 15 17  1  0  0  0
 15 16  1  0  0  0
 17 18  1  0  0  0
 18 19  1  0  0  0
 19 20  2  0  0  0
 19 21  1  0  0  0
 20 22  1  0  0  0
 21 23  2  0  0  0
 22 24  2  0  0  0
 23 24  1  0  0  0
M  END
> <minimizedAffinity>
-8.59294

$$$$
WAY-310445


 24 26  0  0  0  0  0  0  0  0999 V2000
    5.2853   20.0190   50.2490 C   0  0  0  0  0  0  0  0  0  0  0  0
    4.7568   20.7604   49.2369 C   0  0  0  0  0  0  0  0  0  0  0  0
    5.1707   18.6820   50.0120 N   0  0  0  0  0  0  0  0  0  0  0  0
    5.8530   20.6104   51.3511 N   0  0  0  0  0  0  0  0  0  0  0  0
    4.3395   19.8410   48.3102 N   0  0  0  0  0  0  0  0  0  0  0  0
    4.7058   22.1798   49.2528 C   0  0  0  0  0  0  0  0  0  0  0  0
    4.6151   18.5874   48.8210 C   0  0  0  0  0  0  0  0  0  0  0  0
    5.8648   22.0051   51.4530 C   0  0  0  0  0  0  0  0  0  0  0  0
    6.4732   19.8309   52.4011 C   0  0  0  0  0  0  0  0  0  0  0  0
    3.6480   20.1601   47.0853 C   0  0  0  0  0  0  0  0  0  0  0  0
    5.2756   22.7336   50.4041 N   0  0  0  0  0  0  0  0  0  0  0  0
    4.2097   22.8411   48.3397 O   0  0  0  0  0  0  0  0  0  0  0  0
    6.3748   22.5744   52.4234 O   0  0  0  0  0  0  0  0  0  0  0  0
    5.2956   24.1777   50.5350 C   0  0  0  0  0  0  0  0  0  0  0  0
    4.2909   17.4668   48.1414 N   0  0  0  0  0  0  0  0  0  0  0  0
    3.3118   17.2312   48.0112 H   0  0  0  0  0  0  0  0  0  0  0  0
    5.2176   16.9361   47.1434 C   0  0  0  0  0  0  0  0  0  0  0  0
    4.4481   16.1423   46.0808 C   0  0  0  0  0  0  0  0  0  0  0  0
    5.3258   15.4634   45.0570 C   0  0  0  0  0  0  0  0  0  0  0  0
    6.2299   16.2148   44.2929 C   0  0  0  0  0  0  0  0  0  0  0  0
    5.2877   14.0729   44.8851 C   0  0  0  0  0  0  0  0  0  0  0  0
    7.1286   15.5821   43.4317 C   0  0  0  0  0  0  0  0  0  0  0  0
    6.1788   13.4430   44.0126 C   0  0  0  0  0  0  0  0  0  0  0  0
    7.1130   14.1952   43.3026 C   0  0  0  0  0  0  0  0  0  0  0  0
  1  2  2  0  0  0
  1  3  2  0  0  0
  1  4  1  0  0  0
  2  5  1  0  0  0
  2  6  1  0  0  0
  3  7  2  0  0  0
  4  8  1  0  0  0
  4  9  1  0  0  0
  5 10  1  0  0  0
  5  7  1  0  0  0
  6 11  1  0  0  0
  6 12  2  0  0  0
  7 15  1  0  0  0
  8 13  2  0  0  0
  8 11  1  0  0  0
 11 14  1  0  0  0
 15 17  1  0  0  0
 15 16  1  0  0  0
 17 18  1  0  0  0
 18 19  1  0  0  0
 19 20  2  0  0  0
 19 21  1  0  0  0
 20 22  1  0  0  0
 21 23  2  0  0  0
 22 24  2  0  0  0
 23 24  1  0  0  0
M  END
> <minimizedAffinity>
-8.52722

$$$$
WAY-310445


 24 26  0  0  0  0  0  0  0  0999 V2000
    5.3474   22.7830   49.4524 C   0  0  0  0  0  0  0  0  0  0  0  0
    6.5337   22.1322   49.6020 C   0  0  0  0  0  0  0  0  0  0  0  0
    4.7526   22.4868   48.2627 N   0  0  0  0  0  0  0  0  0  0  0  0
    4.8631   23.6245   50.4239 N   0  0  0  0  0  0  0  0  0  0  0  0
    6.6552   21.3620   48.4749 N   0  0  0  0  0  0  0  0  0  0  0  0
    7.3788   22.2985   50.7314 C   0  0  0  0  0  0  0  0  0  0  0  0
    5.5458   21.6053   47.6885 C   0  0  0  0  0  0  0  0  0  0  0  0
    5.6161   23.8426   51.5820 C   0  0  0  0  0  0  0  0  0  0  0  0
    3.5738   24.2706   50.3005 C   0  0  0  0  0  0  0  0  0  0  0  0
    7.7975   20.5409   48.1562 C   0  0  0  0  0  0  0  0  0  0  0  0
    6.8531   23.1808   51.6812 N   0  0  0  0  0  0  0  0  0  0  0  0
    8.4589   21.7183   50.8494 O   0  0  0  0  0  0  0  0  0  0  0  0
    5.2100   24.5842   52.4826 O   0  0  0  0  0  0  0  0  0  0  0  0
    7.6177   23.4268   52.8886 C   0  0  0  0  0  0  0  0  0  0  0  0
    5.3923   21.0060   46.4884 N   0  0  0  0  0  0  0  0  0  0  0  0
    6.2016   20.8852   45.8870 H   0  0  0  0  0  0  0  0  0  0  0  0
    4.2983   20.0569   46.2919 C   0  0  0  0  0  0  0  0  0  0  0  0
    4.6071   18.7412   47.0165 C   0  0  0  0  0  0  0  0  0  0  0  0
    4.1927   18.7203   48.4682 C   0  0  0  0  0  0  0  0  0  0  0  0
    5.0821   18.2600   49.4496 C   0  0  0  0  0  0  0  0  0  0  0  0
    2.9376   19.2012   48.8653 C   0  0  0  0  0  0  0  0  0  0  0  0
    4.7532   18.3496   50.8037 C   0  0  0  0  0  0  0  0  0  0  0  0
    2.6052   19.2774   50.2202 C   0  0  0  0  0  0  0  0  0  0  0  0
    3.5208   18.8718   51.1896 C   0  0  0  0  0  0  0  0  0  0  0  0
  1  2  2  0  0  0
  1  3  2  0  0  0
  1  4  1  0  0  0
  2  5  1  0  0  0
  2  6  1  0  0  0
  3  7  2  0  0  0
  4  8  1  0  0  0
  4  9  1  0  0  0
  5 10  1  0  0  0
  5  7  1  0  0  0
  6 11  1  0  0  0
  6 12  2  0  0  0
  7 15  1  0  0  0
  8 13  2  0  0  0
  8 11  1  0  0  0
 11 14  1  0  0  0
 15 17  1  0  0  0
 15 16  1  0  0  0
 17 18  1  0  0  0
 18 19  1  0  0  0
 19 20  2  0  0  0
 19 21  1  0  0  0
 20 22  1  0  0  0
 21 23  2  0  0  0
 22 24  2  0  0  0
 23 24  1  0  0  0
M  END
> <minimizedAffinity>
-8.46131

$$$$
WAY-310445


 24 26  0  0  0  0  0  0  0  0999 V2000
    7.0640   20.3714   49.2128 C   0  0  0  0  0  0  0  0  0  0  0  0
    6.2894   20.0990   50.2987 C   0  0  0  0  0  0  0  0  0  0  0  0
    6.8943   19.4491   48.2241 N   0  0  0  0  0  0  0  0  0  0  0  0
    7.8964   21.4635   49.1810 N   0  0  0  0  0  0  0  0  0  0  0  0
    5.5729   18.9848   49.9471 N   0  0  0  0  0  0  0  0  0  0  0  0
    6.3079   20.8776   51.4865 C   0  0  0  0  0  0  0  0  0  0  0  0
    5.9694   18.6253   48.6735 C   0  0  0  0  0  0  0  0  0  0  0  0
    7.9742   22.3011   50.2982 C   0  0  0  0  0  0  0  0  0  0  0  0
    8.6754   21.7954   48.0071 C   0  0  0  0  0  0  0  0  0  0  0  0
    4.6590   18.2840   50.8154 C   0  0  0  0  0  0  0  0  0  0  0  0
    7.1862   21.9640   51.4132 N   0  0  0  0  0  0  0  0  0  0  0  0
    5.6158   20.6127   52.4703 O   0  0  0  0  0  0  0  0  0  0  0  0
    8.7032   23.2983   50.3044 O   0  0  0  0  0  0  0  0  0  0  0  0
    7.2878   22.8445   52.5610 C   0  0  0  0  0  0  0  0  0  0  0  0
    5.4546   17.5386   48.0597 N   0  0  0  0  0  0  0  0  0  0  0  0
    4.7344   16.9982   48.5291 H   0  0  0  0  0  0  0  0  0  0  0  0
    5.4661   17.4627   46.6001 C   0  0  0  0  0  0  0  0  0  0  0  0
    4.7859   16.1692   46.1355 C   0  0  0  0  0  0  0  0  0  0  0  0
    5.5223   15.4411   45.0367 C   0  0  0  0  0  0  0  0  0  0  0  0
    6.3864   16.1406   44.1824 C   0  0  0  0  0  0  0  0  0  0  0  0
    5.3935   14.0543   44.8806 C   0  0  0  0  0  0  0  0  0  0  0  0
    7.1619   15.4579   43.2431 C   0  0  0  0  0  0  0  0  0  0  0  0
    6.1605   13.3748   43.9308 C   0  0  0  0  0  0  0  0  0  0  0  0
    7.0599   14.0735   43.1273 C   0  0  0  0  0  0  0  0  0  0  0  0
  1  2  2  0  0  0
  1  3  2  0  0  0
  1  4  1  0  0  0
  2  5  1  0  0  0
  2  6  1  0  0  0
  3  7  2  0  0  0
  4  8  1  0  0  0
  4  9  1  0  0  0
  5 10  1  0  0  0
  5  7  1  0  0  0
  6 11  1  0  0  0
  6 12  2  0  0  0
  7 15  1  0  0  0
  8 13  2  0  0  0
  8 11  1  0  0  0
 11 14  1  0  0  0
 15 17  1  0  0  0
 15 16  1  0  0  0
 17 18  1  0  0  0
 18 19  1  0  0  0
 19 20  2  0  0  0
 19 21  1  0  0  0
 20 22  1  0  0  0
 21 23  2  0  0  0
 22 24  2  0  0  0
 23 24  1  0  0  0
M  END
> <minimizedAffinity>
-8.44857

$$$$
