Aconine
 OpenBabel11222521483D

 76 81  0  0  1  0  0  0  0  0999 V2000
    1.6035    0.3577    0.7250 O   0  0  0  0  0  0  0  0  0  0  0  0
    1.7412   -0.1541   -0.5902 C   0  0  0  0  0  0  0  0  0  0  0  0
    4.2904    4.5469    2.1938 C   0  0  0  0  0  0  0  0  0  0  0  0
    4.9651    5.0882    1.0610 O   0  0  0  0  0  0  0  0  0  0  0  0
    4.4383    6.3123    0.6021 C   0  0  0  0  0  0  0  0  0  0  0  0
    2.4476    4.3348    5.2981 O   0  0  0  0  0  0  0  0  0  0  0  0
    3.7006    4.4032    5.8963 C   0  0  0  0  0  0  0  0  0  0  0  0
   -0.3087    2.8423    1.0214 C   0  0  0  0  0  0  0  0  0  0  0  0
   -1.5710    2.0549    1.4284 C   0  0  0  0  0  0  0  0  0  0  0  0
    2.2931    2.8902   -0.4599 O   0  0  0  0  0  0  0  0  0  0  0  0
   -1.2181    1.5572    4.7282 O   0  0  0  0  0  0  0  0  0  0  0  0
   -0.8654   -2.0251    3.7252 O   0  0  0  0  0  0  0  0  0  0  0  0
    1.1540   -3.1817    5.7922 O   0  0  0  0  0  0  0  0  0  0  0  0
   -0.5733    1.3089    7.4220 O   0  0  0  0  0  0  0  0  0  0  0  0
   -1.3790   -1.4180    6.0318 O   0  0  0  0  0  0  0  0  0  0  0  0
   -2.5430   -0.6169    6.2123 C   0  0  0  0  0  0  0  0  0  0  0  0
    2.3880    1.2948    2.8294 C   0  0  3  0  0  0  0  0  0  0  0  0
    3.0487    2.6596    3.2388 C   0  0  3  0  0  0  0  0  0  0  0  0
    0.9925    2.0130    2.9579 C   0  0  3  0  0  0  0  0  0  0  0  0
    2.1632   -0.1098    3.6737 C   0  0  3  0  0  0  0  0  0  0  0  0
    2.8016    0.7230    1.4130 C   0  0  3  0  0  0  0  0  0  0  0  0
    3.0819    3.6026    1.8916 C   0  0  3  0  0  0  0  0  0  0  0  0
    2.0325    3.3869    4.3348 C   0  0  3  0  0  0  0  0  0  0  0  0
    1.0893    2.2890    4.7258 C   0  0  3  0  0  0  0  0  0  0  0  0
    0.5944    3.2097    2.1277 N   0  0  0  0  0  0  0  0  0  0  0  0
    0.6781   -0.0819    4.0608 C   0  0  3  0  0  0  0  0  0  0  0  0
    2.6104   -1.0739    5.0363 C   0  0  0  0  0  0  0  0  0  0  0  0
    3.8349    1.5342    0.6624 C   0  0  0  0  0  0  0  0  0  0  0  0
    1.6565    4.2158    1.7981 C   0  0  0  0  0  0  0  0  0  0  0  0
    3.3601    2.9345    0.4887 C   0  0  3  0  0  0  0  0  0  0  0  0
    0.1125    1.1118    4.9694 C   0  0  3  0  0  0  0  0  0  0  0  0
    0.4086   -1.5888    4.0882 C   0  0  3  0  0  0  0  0  0  0  0  0
    1.0373   -1.8079    5.4853 C   0  0  3  0  0  0  0  0  0  0  0  0
    0.2036    0.5459    6.5101 C   0  0  3  0  0  0  0  0  0  0  0  0
   -0.0543   -1.0128    6.5030 C   0  0  3  0  0  0  0  0  0  0  0  0
    2.1286    0.5982   -1.2807 H   0  0  0  0  0  0  0  0  0  0  0  0
    2.3808   -1.0395   -0.5986 H   0  0  0  0  0  0  0  0  0  0  0  0
    0.7468   -0.4322   -0.9500 H   0  0  0  0  0  0  0  0  0  0  0  0
    4.0745    5.3135    2.9367 H   0  0  0  0  0  0  0  0  0  0  0  0
    5.0795    3.9144    2.6249 H   0  0  0  0  0  0  0  0  0  0  0  0
    3.3683    6.2260    0.4085 H   0  0  0  0  0  0  0  0  0  0  0  0
    4.6435    7.0923    1.3365 H   0  0  0  0  0  0  0  0  0  0  0  0
    4.9469    6.5629   -0.3324 H   0  0  0  0  0  0  0  0  0  0  0  0
    3.6974    3.7875    6.7955 H   0  0  0  0  0  0  0  0  0  0  0  0
    4.5229    4.1557    5.2253 H   0  0  0  0  0  0  0  0  0  0  0  0
    3.8410    5.4454    6.2192 H   0  0  0  0  0  0  0  0  0  0  0  0
   -0.6404    3.7503    0.5119 H   0  0  0  0  0  0  0  0  0  0  0  0
    0.2051    2.2326    0.2794 H   0  0  0  0  0  0  0  0  0  0  0  0
   -2.4073    2.3059    0.7697 H   0  0  0  0  0  0  0  0  0  0  0  0
   -1.4085    0.9736    1.3464 H   0  0  0  0  0  0  0  0  0  0  0  0
   -1.8888    2.2758    2.4519 H   0  0  0  0  0  0  0  0  0  0  0  0
    1.9266    3.7704   -0.6220 H   0  0  0  0  0  0  0  0  0  0  0  0
   -1.4057    2.1529    5.4779 H   0  0  0  0  0  0  0  0  0  0  0  0
   -1.4596   -1.8366    4.4848 H   0  0  0  0  0  0  0  0  0  0  0  0
    0.2737   -3.5688    5.6209 H   0  0  0  0  0  0  0  0  0  0  0  0
    0.0024    1.5290    8.1788 H   0  0  0  0  0  0  0  0  0  0  0  0
   -3.0887   -0.9658    7.0873 H   0  0  0  0  0  0  0  0  0  0  0  0
   -2.3887    0.4520    6.2915 H   0  0  0  0  0  0  0  0  0  0  0  0
   -3.1868   -0.7681    5.3341 H   0  0  0  0  0  0  0  0  0  0  0  0
    4.0362    2.4798    3.6731 H   0  0  0  0  0  0  0  0  0  0  0  0
    0.2013    1.3150    2.7156 H   0  0  0  0  0  0  0  0  0  0  0  0
    2.3255   -0.8845    2.9164 H   0  0  0  0  0  0  0  0  0  0  0  0
    3.3554   -0.2154    1.5467 H   0  0  0  0  0  0  0  0  0  0  0  0
    1.2972    4.0737    3.9471 H   0  0  0  0  0  0  0  0  0  0  0  0
    1.9370    1.8106    5.2650 H   0  0  0  0  0  0  0  0  0  0  0  0
    1.2005    0.0339    4.9300 H   0  0  0  0  0  0  0  0  0  0  0  0
    3.0069   -0.4899    5.8722 H   0  0  0  0  0  0  0  0  0  0  0  0
    3.2999   -1.8661    4.7308 H   0  0  0  0  0  0  0  0  0  0  0  0
    4.0438    1.0848   -0.3151 H   0  0  0  0  0  0  0  0  0  0  0  0
    4.7825    1.5325    1.2184 H   0  0  0  0  0  0  0  0  0  0  0  0
    1.4415    4.7312    0.8583 H   0  0  0  0  0  0  0  0  0  0  0  0
    1.5894    5.0808    2.4756 H   0  0  0  0  0  0  0  0  0  0  0  0
    4.1330    3.4604   -0.0710 H   0  0  0  0  0  0  0  0  0  0  0  0
    1.0095   -2.1573    3.3787 H   0  0  0  0  0  0  0  0  0  0  0  0
    1.2411    0.6429    6.8716 H   0  0  0  0  0  0  0  0  0  0  0  0
    0.0252   -1.4284    7.5116 H   0  0  0  0  0  0  0  0  0  0  0  0
  1  2  1  0  0  0  0
  2 36  1  0  0  0  0
  2 37  1  0  0  0  0
  2 38  1  0  0  0  0
  3  4  1  0  0  0  0
  3 39  1  0  0  0  0
  3 40  1  0  0  0  0
  4  5  1  0  0  0  0
  5 41  1  0  0  0  0
  5 42  1  0  0  0  0
  5 43  1  0  0  0  0
  6  7  1  0  0  0  0
  7 44  1  0  0  0  0
  7 45  1  0  0  0  0
  7 46  1  0  0  0  0
  8  9  1  0  0  0  0
  8 25  1  0  0  0  0
  8 47  1  0  0  0  0
  8 48  1  0  0  0  0
  9 49  1  0  0  0  0
  9 50  1  0  0  0  0
  9 51  1  0  0  0  0
 10 52  1  0  0  0  0
 11 53  1  0  0  0  0
 12 54  1  0  0  0  0
 13 55  1  0  0  0  0
 14 56  1  0  0  0  0
 15 16  1  0  0  0  0
 16 57  1  0  0  0  0
 16 58  1  0  0  0  0
 16 59  1  0  0  0  0
 17 18  1  0  0  0  0
 17 19  1  0  0  0  0
 17 20  1  0  0  0  0
 17 21  1  0  0  0  0
 18 22  1  0  0  0  0
 18 23  1  0  0  0  0
 18 60  1  0  0  0  0
 19 24  1  0  0  0  0
 19 25  1  0  0  0  0
 19 61  1  0  0  0  0
 20 27  1  0  0  0  0
 20 62  1  0  0  0  0
 21  1  1  0  0  0  0
 21 28  1  0  0  0  0
 21 63  1  0  0  0  0
 22  3  1  0  0  0  0
 22 29  1  0  0  0  0
 22 30  1  0  0  0  0
 23  6  1  0  0  0  0
 23 64  1  0  0  0  0
 24 23  1  0  0  0  0
 24 31  1  0  0  0  0
 24 65  1  0  0  0  0
 25 29  1  0  0  0  0
 26 20  1  0  0  0  0
 26 31  1  0  0  0  0
 26 32  1  0  0  0  0
 26 66  1  0  0  0  0
 27 67  1  0  0  0  0
 27 68  1  0  0  0  0
 28 30  1  0  0  0  0
 28 69  1  0  0  0  0
 28 70  1  0  0  0  0
 29 71  1  0  0  0  0
 29 72  1  0  0  0  0
 30 10  1  0  0  0  0
 30 73  1  0  0  0  0
 31 11  1  0  0  0  0
 31 34  1  0  0  0  0
 32 12  1  0  0  0  0
 32 33  1  0  0  0  0
 32 74  1  0  0  0  0
 33 13  1  0  0  0  0
 33 27  1  0  0  0  0
 33 35  1  0  0  0  0
 34 14  1  0  0  0  0
 34 35  1  0  0  0  0
 34 75  1  0  0  0  0
 35 15  1  0  0  0  0
 35 76  1  0  0  0  0
M  END
>  <Mol_ID>
9629

>  <Formula>
C25H41NO9

>  <MolWeight>
499.59434

>  <Cat>
E2065

>  <Name>
Aconine

>  <Synonyms>
Jesaconine

>  <Target>
NF-¦ÊB, NFATc1

>  <Form>
Free base

>  <CAS>
509-20-6

>  <URL>
https://www.selleckchem.com/products/aconine.html

$$$$
