Gitogenin
 OpenBabel08302521503D

 75 80  0  0  1  0  0  0  0  0999 V2000
    0.8720    0.6832    0.7746 C   0  0  0  0  0  0  0  0  0  0  0  0
    3.4389    3.6176   -1.3824 C   0  0  0  0  0  0  0  0  0  0  0  0
    2.1685   -4.1138    2.7152 C   0  0  0  0  0  0  0  0  0  0  0  0
    4.6192   -3.4842   -2.3157 C   0  0  0  0  0  0  0  0  0  0  0  0
    0.6529   -3.1739   -0.0564 O   0  0  0  0  0  0  0  0  0  0  0  0
   -0.5963   -5.2448   -1.7047 O   0  0  0  0  0  0  0  0  0  0  0  0
    3.2991    0.1590    1.7930 C   0  0  2  0  0  0  0  0  0  0  0  0
    2.4085    0.4346    0.5817 C   0  0  2  0  0  0  0  0  0  0  0  0
    4.3082    1.3417    1.7135 O   0  0  0  0  0  0  0  0  0  0  0  0
    4.2900   -0.9953    2.0720 C   0  0  0  0  0  0  0  0  0  0  0  0
    2.3628   -0.1172    2.9003 O   0  0  0  0  0  0  0  0  0  0  0  0
    2.9013    1.7761    0.0575 C   0  0  3  0  0  0  0  0  0  0  0  0
    4.3478    2.1651    0.4063 C   0  0  3  0  0  0  0  0  0  0  0  0
    3.7646   -2.3954    1.9321 C   0  0  0  0  0  0  0  0  0  0  0  0
    1.7114   -1.4808    2.8325 C   0  0  0  0  0  0  0  0  0  0  0  0
    3.6655    1.8119   -1.1180 C   0  0  3  0  0  0  0  0  0  0  0  0
    5.1640    2.2067   -1.4714 C   0  0  0  0  0  0  0  0  0  0  0  0
    2.6913   -2.6680    2.9459 C   0  0  3  0  0  0  0  0  0  0  0  0
    3.9136    1.4676   -2.5036 C   0  0  3  0  0  0  0  0  0  0  0  0
    4.9855    0.3609   -0.6678 C   0  0  0  0  0  0  0  0  0  0  0  0
    3.0509    0.0841   -2.4919 C   0  0  3  0  0  0  0  0  0  0  0  0
    4.7665   -1.0529   -1.0783 C   0  0  0  0  0  0  0  0  0  0  0  0
    3.8161   -1.2319   -2.1990 C   0  0  3  0  0  0  0  0  0  0  0  0
    2.0351   -0.1024   -3.5992 C   0  0  0  0  0  0  0  0  0  0  0  0
    3.1545   -2.7453   -2.1410 C   0  0  3  0  0  0  0  0  0  0  0  0
    1.1725   -1.2552   -3.1288 C   0  0  0  0  0  0  0  0  0  0  0  0
    1.8862   -2.6601   -3.1286 C   0  0  3  0  0  0  0  0  0  0  0  0
    2.7783   -3.8370   -1.0318 C   0  0  0  0  0  0  0  0  0  0  0  0
    0.5966   -3.5289   -2.8853 C   0  0  0  0  0  0  0  0  0  0  0  0
    1.3584   -4.2300   -0.6881 C   0  0  3  0  0  0  0  0  0  0  0  0
    0.7007   -4.7124   -1.9743 C   0  0  3  0  0  0  0  0  0  0  0  0
    0.4509    1.1759   -0.1281 H   0  0  0  0  0  0  0  0  0  0  0  0
    0.2827   -0.2392    0.8484 H   0  0  0  0  0  0  0  0  0  0  0  0
    0.6645    1.3148    1.6299 H   0  0  0  0  0  0  0  0  0  0  0  0
    2.4061    3.8080   -1.6117 H   0  0  0  0  0  0  0  0  0  0  0  0
    3.6917    4.2211   -0.4820 H   0  0  0  0  0  0  0  0  0  0  0  0
    3.9964    4.0859   -2.2447 H   0  0  0  0  0  0  0  0  0  0  0  0
    2.7847   -4.8252    3.2838 H   0  0  0  0  0  0  0  0  0  0  0  0
    1.1263   -4.2697    2.9929 H   0  0  0  0  0  0  0  0  0  0  0  0
    2.2848   -4.4487    1.6844 H   0  0  0  0  0  0  0  0  0  0  0  0
    5.3144   -3.0323   -3.0228 H   0  0  0  0  0  0  0  0  0  0  0  0
    5.1415   -3.3820   -1.3291 H   0  0  0  0  0  0  0  0  0  0  0  0
    4.6520   -4.5678   -2.4347 H   0  0  0  0  0  0  0  0  0  0  0  0
    1.1327   -2.3485   -0.2377 H   0  0  0  0  0  0  0  0  0  0  0  0
   -0.8953   -4.8541   -0.8606 H   0  0  0  0  0  0  0  0  0  0  0  0
    2.4448   -0.4548   -0.0446 H   0  0  0  0  0  0  0  0  0  0  0  0
    4.6249   -0.8804    3.1194 H   0  0  0  0  0  0  0  0  0  0  0  0
    5.2277   -0.9397    1.5272 H   0  0  0  0  0  0  0  0  0  0  0  0
    2.1698    2.5765    0.1424 H   0  0  0  0  0  0  0  0  0  0  0  0
    4.5949    3.1788    0.8007 H   0  0  0  0  0  0  0  0  0  0  0  0
    4.5784   -3.1393    1.9839 H   0  0  0  0  0  0  0  0  0  0  0  0
    3.2940   -2.4506    0.9563 H   0  0  0  0  0  0  0  0  0  0  0  0
    1.1375   -1.5959    1.9093 H   0  0  0  0  0  0  0  0  0  0  0  0
    0.9916   -1.5393    3.6486 H   0  0  0  0  0  0  0  0  0  0  0  0
    6.0702    1.7402   -1.8915 H   0  0  0  0  0  0  0  0  0  0  0  0
    5.4949    3.2050   -1.7717 H   0  0  0  0  0  0  0  0  0  0  0  0
    3.1262   -2.6445    3.9444 H   0  0  0  0  0  0  0  0  0  0  0  0
    3.4153    2.1872   -3.1997 H   0  0  0  0  0  0  0  0  0  0  0  0
    6.0532    0.4243   -1.0329 H   0  0  0  0  0  0  0  0  0  0  0  0
    5.4143    0.3954    0.3405 H   0  0  0  0  0  0  0  0  0  0  0  0
    2.3243    0.2207   -1.7095 H   0  0  0  0  0  0  0  0  0  0  0  0
    4.4318   -1.6138   -0.2370 H   0  0  0  0  0  0  0  0  0  0  0  0
    5.7655   -1.4672   -1.3195 H   0  0  0  0  0  0  0  0  0  0  0  0
    4.4375   -1.2495   -3.1073 H   0  0  0  0  0  0  0  0  0  0  0  0
    1.3949    0.7889   -3.6742 H   0  0  0  0  0  0  0  0  0  0  0  0
    2.4525   -0.3079   -4.5846 H   0  0  0  0  0  0  0  0  0  0  0  0
    0.8070   -1.0448   -2.0969 H   0  0  0  0  0  0  0  0  0  0  0  0
    0.2624   -1.2710   -3.7327 H   0  0  0  0  0  0  0  0  0  0  0  0
    2.2601   -2.8512   -4.1331 H   0  0  0  0  0  0  0  0  0  0  0  0
    3.4287   -3.8666   -0.1615 H   0  0  0  0  0  0  0  0  0  0  0  0
    3.0573   -4.8019   -1.4943 H   0  0  0  0  0  0  0  0  0  0  0  0
   -0.2120   -2.9218   -2.4376 H   0  0  0  0  0  0  0  0  0  0  0  0
    0.1700   -3.8133   -3.8527 H   0  0  0  0  0  0  0  0  0  0  0  0
    1.3429   -5.0816    0.0014 H   0  0  0  0  0  0  0  0  0  0  0  0
    1.2746   -5.5069   -2.4643 H   0  0  0  0  0  0  0  0  0  0  0  0
  1 32  1  0  0  0  0
  1 33  1  0  0  0  0
  1 34  1  0  0  0  0
  2 35  1  0  0  0  0
  2 36  1  0  0  0  0
  2 37  1  0  0  0  0
  3 38  1  0  0  0  0
  3 39  1  0  0  0  0
  3 40  1  0  0  0  0
  4 41  1  0  0  0  0
  4 42  1  0  0  0  0
  4 43  1  0  0  0  0
  5 44  1  0  0  0  0
  6 45  1  0  0  0  0
  7  8  1  0  0  0  0
  7  9  1  1  0  0  0
  7 10  1  0  0  0  0
  7 11  1  0  0  0  0
  8  1  1  0  0  0  0
  8 12  1  0  0  0  0
  8 46  1  6  0  0  0
  9 13  1  0  0  0  0
 10 14  1  0  0  0  0
 10 47  1  0  0  0  0
 10 48  1  0  0  0  0
 11 15  1  0  0  0  0
 12 13  1  0  0  0  0
 12 16  1  0  0  0  0
 12 49  1  0  0  0  0
 13 17  1  0  0  0  0
 13 50  1  0  0  0  0
 14 18  1  0  0  0  0
 14 51  1  0  0  0  0
 14 52  1  0  0  0  0
 15 18  1  0  0  0  0
 15 53  1  0  0  0  0
 15 54  1  0  0  0  0
 16  2  1  0  0  0  0
 16 19  1  0  0  0  0
 16 20  1  0  0  0  0
 17 55  1  0  0  0  0
 17 56  1  0  0  0  0
 18  3  1  0  0  0  0
 18 57  1  0  0  0  0
 19 17  1  0  0  0  0
 19 21  1  0  0  0  0
 19 58  1  0  0  0  0
 20 22  1  0  0  0  0
 20 59  1  0  0  0  0
 20 60  1  0  0  0  0
 21 23  1  0  0  0  0
 21 24  1  0  0  0  0
 21 61  1  0  0  0  0
 22 62  1  0  0  0  0
 22 63  1  0  0  0  0
 23 22  1  0  0  0  0
 23 25  1  0  0  0  0
 23 64  1  0  0  0  0
 24 26  1  0  0  0  0
 24 65  1  0  0  0  0
 24 66  1  0  0  0  0
 25  4  1  0  0  0  0
 25 27  1  0  0  0  0
 25 28  1  0  0  0  0
 26 67  1  0  0  0  0
 26 68  1  0  0  0  0
 27 26  1  0  0  0  0
 27 29  1  0  0  0  0
 27 69  1  0  0  0  0
 28 30  1  0  0  0  0
 28 70  1  0  0  0  0
 28 71  1  0  0  0  0
 29 31  1  0  0  0  0
 29 72  1  0  0  0  0
 29 73  1  0  0  0  0
 30  5  1  0  0  0  0
 30 31  1  0  0  0  0
 30 74  1  0  0  0  0
 31  6  1  0  0  0  0
 31 75  1  0  0  0  0
M  END
>  <Mol_ID>
9889

>  <Formula>
C27H44O4

>  <MolWeight>
432.63586

>  <Cat>
E2797

>  <Name>
Gitogenin

>  <Synonyms>
N/A

>  <Target>
Transferase,  Carbohydrate Metabolism

>  <Form>
free base

>  <CAS>
511-96-6

>  <URL>
https://www.selleckchem.com/products/gitogenin.html

$$$$
