K-Ras(G12C) inhibitor 6.cdx
 OpenBabel08302519583D

 47 48  0  0  0  0  0  0  0  0999 V2000
    1.9582    1.0423   -3.7926 C   0  0  0  0  0  0  0  0  0  0  0  0
    1.7734    1.7235   -4.9929 C   0  0  0  0  0  0  0  0  0  0  0  0
    0.5942    2.4320   -5.2106 C   0  0  0  0  0  0  0  0  0  0  0  0
   -0.4031    2.4608   -4.2301 C   0  0  0  0  0  0  0  0  0  0  0  0
   -0.2285    1.7748   -3.0260 C   0  0  0  0  0  0  0  0  0  0  0  0
    0.9594    1.0679   -2.8148 C   0  0  0  0  0  0  0  0  0  0  0  0
   -1.1352    1.7077   -1.9996 O   0  0  0  0  0  0  0  0  0  0  0  0
   -2.3045    2.5038   -2.1324 C   0  0  0  0  0  0  0  0  0  0  0  0
   -3.2764    2.3094   -0.9607 C   0  0  0  0  0  0  0  0  0  0  0  0
   -4.0469    1.1513   -0.9410 N   0  0  0  0  0  0  0  0  0  0  0  0
   -3.4065    3.1978   -0.1135 O   0  0  0  0  0  0  0  0  0  0  0  0
   -3.9187    0.0444   -1.8823 C   0  0  0  0  0  0  0  0  0  0  0  0
   -5.1990   -0.0688   -2.6961 C   0  0  0  0  0  0  0  0  0  0  0  0
   -6.3900   -0.2925   -1.7594 C   0  0  0  0  0  0  0  0  0  0  0  0
   -6.4766    0.8166   -0.6973 C   0  0  0  0  0  0  0  0  0  0  0  0
   -5.1379    1.0102    0.0243 C   0  0  0  0  0  0  0  0  0  0  0  0
   -7.6200   -0.3872   -2.5363 N   0  0  0  0  0  0  0  0  0  0  0  0
   -8.6672   -1.1927   -2.1463 C   0  0  0  0  0  0  0  0  0  0  0  0
   -9.8563   -1.1161   -3.0856 C   0  0  0  0  0  0  0  0  0  0  0  0
   -8.6300   -1.9082   -1.1522 O   0  0  0  0  0  0  0  0  0  0  0  0
  -11.0313   -2.0015   -2.6633 C   0  0  0  0  0  0  0  0  0  0  0  0
  -11.6909   -1.6596   -1.3245 C   0  0  0  0  0  0  0  0  0  0  0  0
  -12.3880    0.0180   -1.2775 S   0  0  0  0  0  0  0  0  0  0  0  0
    2.8790    0.4925   -3.6151 H   0  0  0  0  0  0  0  0  0  0  0  0
    2.5475    1.7057   -5.7557 H   0  0  0  0  0  0  0  0  0  0  0  0
    0.4490    2.9669   -6.1460 H   0  0  0  0  0  0  0  0  0  0  0  0
   -1.3010    3.0291   -4.4452 H   0  0  0  0  0  0  0  0  0  0  0  0
    1.1128    0.5357   -1.8788 H   0  0  0  0  0  0  0  0  0  0  0  0
   -2.0335    3.5668   -2.1608 H   0  0  0  0  0  0  0  0  0  0  0  0
   -2.8505    2.2660   -3.0537 H   0  0  0  0  0  0  0  0  0  0  0  0
   -3.7492   -0.8690   -1.2988 H   0  0  0  0  0  0  0  0  0  0  0  0
   -3.0631    0.1592   -2.5475 H   0  0  0  0  0  0  0  0  0  0  0  0
   -5.1187   -0.8953   -3.4110 H   0  0  0  0  0  0  0  0  0  0  0  0
   -5.3512    0.8478   -3.2816 H   0  0  0  0  0  0  0  0  0  0  0  0
   -6.2463   -1.2499   -1.2415 H   0  0  0  0  0  0  0  0  0  0  0  0
   -6.7692    1.7600   -1.1767 H   0  0  0  0  0  0  0  0  0  0  0  0
   -7.2599    0.5822    0.0341 H   0  0  0  0  0  0  0  0  0  0  0  0
   -5.2005    1.8808    0.6856 H   0  0  0  0  0  0  0  0  0  0  0  0
   -4.9137    0.1385    0.6503 H   0  0  0  0  0  0  0  0  0  0  0  0
   -7.7495    0.2361   -3.3241 H   0  0  0  0  0  0  0  0  0  0  0  0
  -10.1649   -0.0704   -3.1881 H   0  0  0  0  0  0  0  0  0  0  0  0
   -9.5128   -1.4483   -4.0736 H   0  0  0  0  0  0  0  0  0  0  0  0
  -11.7917   -1.9698   -3.4545 H   0  0  0  0  0  0  0  0  0  0  0  0
  -10.6884   -3.0431   -2.6153 H   0  0  0  0  0  0  0  0  0  0  0  0
  -12.5124   -2.3622   -1.1477 H   0  0  0  0  0  0  0  0  0  0  0  0
  -10.9951   -1.7704   -0.4889 H   0  0  0  0  0  0  0  0  0  0  0  0
  -11.2180    0.6691   -1.2067 H   0  0  0  0  0  0  0  0  0  0  0  0
  1  2  2  0  0  0  0
  1 24  1  0  0  0  0
  2  3  1  0  0  0  0
  2 25  1  0  0  0  0
  3  4  2  0  0  0  0
  3 26  1  0  0  0  0
  4  5  1  0  0  0  0
  4 27  1  0  0  0  0
  5  6  2  0  0  0  0
  5  7  1  0  0  0  0
  6  1  1  0  0  0  0
  6 28  1  0  0  0  0
  7  8  1  0  0  0  0
  8  9  1  0  0  0  0
  8 29  1  0  0  0  0
  8 30  1  0  0  0  0
  9 10  1  0  0  0  0
  9 11  2  0  0  0  0
 10 12  1  0  0  0  0
 12 13  1  0  0  0  0
 12 31  1  0  0  0  0
 12 32  1  0  0  0  0
 13 14  1  0  0  0  0
 13 33  1  0  0  0  0
 13 34  1  0  0  0  0
 14 15  1  0  0  0  0
 14 17  1  0  0  0  0
 14 35  1  0  0  0  0
 15 16  1  0  0  0  0
 15 36  1  0  0  0  0
 15 37  1  0  0  0  0
 16 10  1  0  0  0  0
 16 38  1  0  0  0  0
 16 39  1  0  0  0  0
 17 18  1  0  0  0  0
 17 40  1  0  0  0  0
 18 19  1  0  0  0  0
 18 20  2  0  0  0  0
 19 21  1  0  0  0  0
 19 41  1  0  0  0  0
 19 42  1  0  0  0  0
 21 22  1  0  0  0  0
 21 43  1  0  0  0  0
 21 44  1  0  0  0  0
 22 23  1  0  0  0  0
 22 45  1  0  0  0  0
 22 46  1  0  0  0  0
 23 47  1  0  0  0  0
M  END
>  <Mol_ID>
2387

>  <Formula>
C17H22Cl2N2O3S

>  <MolWeight>
405.33918

>  <Cat>
S7333

>  <Name>
K-Ras(G12C) inhibitor 6

>  <Synonyms>
N/A

>  <Target>
Ras

>  <Form>
free base

>  <CAS>
2060530-16-5

>  <URL>
http://selleckchem.com/products/k-ras-g12c-inhibitor-6.html

$$$$
