S5053 Imazalil.cdx
 OpenBabel08302520013D

 33 34  0  0  0  0  0  0  0  0999 V2000
    1.1950   -0.1419   -0.0693 C   0  0  0  0  0  0  0  0  0  0  0  0
    2.6994   -0.3545    0.0249 C   0  0  3  0  0  0  0  0  0  0  0  0
    0.4473   -0.8965   -0.9900 C   0  0  0  0  0  0  0  0  0  0  0  0
    0.5060    0.7227    0.7950 C   0  0  0  0  0  0  0  0  0  0  0  0
    3.5047    0.0993   -1.2093 C   0  0  0  0  0  0  0  0  0  0  0  0
    3.2882    0.1938    1.2181 O   0  0  0  0  0  0  0  0  0  0  0  0
   -0.9461   -0.8230   -1.0105 C   0  0  0  0  0  0  0  0  0  0  0  0
   -0.8888    0.7770    0.7899 C   0  0  0  0  0  0  0  0  0  0  0  0
    3.3107    1.4499   -1.6871 N   0  0  0  0  0  0  0  0  0  0  0  0
    3.0697   -0.6359    2.3634 C   0  0  0  0  0  0  0  0  0  0  0  0
   -1.6146   -0.0009   -0.1083 C   0  0  0  0  0  0  0  0  0  0  0  0
    3.8319   -0.0565    3.5098 C   0  0  0  0  0  0  0  0  0  0  0  0
    3.2788    0.3939    4.6446 C   0  0  0  0  0  0  0  0  0  0  0  0
    3.7607    2.5957   -1.0907 C   0  0  0  0  0  0  0  0  0  0  0  0
    3.6120    3.6378   -1.8781 N   0  0  0  0  0  0  0  0  0  0  0  0
    3.0511    3.1504   -3.0289 C   0  0  0  0  0  0  0  0  0  0  0  0
    2.8537    1.7901   -2.9364 C   0  0  0  0  0  0  0  0  0  0  0  0
    2.8522   -1.4427    0.0753 H   0  0  0  0  0  0  0  0  0  0  0  0
    0.9438   -1.5702   -1.6862 H   0  0  0  0  0  0  0  0  0  0  0  0
    1.0488    1.3385    1.5098 H   0  0  0  0  0  0  0  0  0  0  0  0
    4.5801    0.0046   -1.0009 H   0  0  0  0  0  0  0  0  0  0  0  0
    3.2835   -0.5697   -2.0513 H   0  0  0  0  0  0  0  0  0  0  0  0
   -1.5122   -1.4225   -1.7192 H   0  0  0  0  0  0  0  0  0  0  0  0
   -1.4085    1.4193    1.4960 H   0  0  0  0  0  0  0  0  0  0  0  0
    2.0023   -0.7018    2.5958 H   0  0  0  0  0  0  0  0  0  0  0  0
    3.4447   -1.6486    2.1712 H   0  0  0  0  0  0  0  0  0  0  0  0
   -2.7018    0.0348   -0.1041 H   0  0  0  0  0  0  0  0  0  0  0  0
    4.9152   -0.0267    3.4025 H   0  0  0  0  0  0  0  0  0  0  0  0
    3.8974    0.7882    5.4443 H   0  0  0  0  0  0  0  0  0  0  0  0
    2.2043    0.3891    4.7985 H   0  0  0  0  0  0  0  0  0  0  0  0
    4.2001    2.6055   -0.1004 H   0  0  0  0  0  0  0  0  0  0  0  0
    2.8424    3.7940   -3.8710 H   0  0  0  0  0  0  0  0  0  0  0  0
    2.4646    1.0684   -3.6372 H   0  0  0  0  0  0  0  0  0  0  0  0
  1  2  1  0  0  0  0
  1  3  2  0  0  0  0
  1  4  1  0  0  0  0
  2  5  1  0  0  0  0
  2  6  1  0  0  0  0
  2 18  1  0  0  0  0
  3  7  1  0  0  0  0
  3 19  1  0  0  0  0
  4  8  2  0  0  0  0
  4 20  1  0  0  0  0
  5  9  1  0  0  0  0
  5 21  1  0  0  0  0
  5 22  1  0  0  0  0
  6 10  1  0  0  0  0
  7 11  2  0  0  0  0
  7 23  1  0  0  0  0
  8 11  1  0  0  0  0
  8 24  1  0  0  0  0
  9 14  1  0  0  0  0
 10 12  1  0  0  0  0
 10 25  1  0  0  0  0
 10 26  1  0  0  0  0
 11 27  1  0  0  0  0
 12 13  2  0  0  0  0
 12 28  1  0  0  0  0
 13 29  1  0  0  0  0
 13 30  1  0  0  0  0
 14 15  2  0  0  0  0
 14 31  1  0  0  0  0
 15 16  1  0  0  0  0
 16 17  2  0  0  0  0
 16 32  1  0  0  0  0
 17  9  1  0  0  0  0
 17 33  1  0  0  0  0
M  END
>  <Mol_ID>
2867

>  <Formula>
C14H14Cl2N2O

>  <MolWeight>
297.17976

>  <Cat>
S5053

>  <Name>
Imazalil

>  <Synonyms>
Enilconazole, Chloramizole

>  <Target>
Others

>  <Form>
free base

>  <CAS>
35554-44-0

>  <URL>
http://selleckchem.com/products/imazalil.html

$$$$
