S5346 2-Phenylethylamine hydrochloride.cdx
 OpenBabel08302520013D

 20 20  0  0  0  0  0  0  0  0999 V2000
    1.3454   -0.2074    0.1384 C   0  0  0  0  0  0  0  0  0  0  0  0
    0.4834   -1.3043    0.0005 C   0  0  0  0  0  0  0  0  0  0  0  0
    0.7987    1.0814    0.2004 C   0  0  0  0  0  0  0  0  0  0  0  0
    2.8398   -0.4117    0.2087 C   0  0  0  0  0  0  0  0  0  0  0  0
   -0.8985   -1.1163   -0.0577 C   0  0  0  0  0  0  0  0  0  0  0  0
   -0.5840    1.2681    0.1417 C   0  0  0  0  0  0  0  0  0  0  0  0
    3.4918   -0.4023   -1.1775 C   0  0  0  0  0  0  0  0  0  0  0  0
   -1.4322    0.1692    0.0154 C   0  0  0  0  0  0  0  0  0  0  0  0
    4.9408   -0.5858   -1.0776 N   0  0  0  0  0  0  0  0  0  0  0  0
    0.8852   -2.3139   -0.0538 H   0  0  0  0  0  0  0  0  0  0  0  0
    1.4464    1.9492    0.3026 H   0  0  0  0  0  0  0  0  0  0  0  0
    3.2801    0.3704    0.8408 H   0  0  0  0  0  0  0  0  0  0  0  0
    3.0501   -1.3616    0.7179 H   0  0  0  0  0  0  0  0  0  0  0  0
   -1.5593   -1.9738   -0.1547 H   0  0  0  0  0  0  0  0  0  0  0  0
   -0.9991    2.2706    0.1990 H   0  0  0  0  0  0  0  0  0  0  0  0
    3.0772   -1.2068   -1.7950 H   0  0  0  0  0  0  0  0  0  0  0  0
    3.2858    0.5425   -1.6939 H   0  0  0  0  0  0  0  0  0  0  0  0
   -2.5082    0.3147   -0.0248 H   0  0  0  0  0  0  0  0  0  0  0  0
    5.3413   -0.6080   -2.0152 H   0  0  0  0  0  0  0  0  0  0  0  0
    5.3547    0.2206   -0.6121 H   0  0  0  0  0  0  0  0  0  0  0  0
  1  2  2  0  0  0  0
  1  3  1  0  0  0  0
  1  4  1  0  0  0  0
  2  5  1  0  0  0  0
  2 10  1  0  0  0  0
  3  6  2  0  0  0  0
  3 11  1  0  0  0  0
  4  7  1  0  0  0  0
  4 12  1  0  0  0  0
  4 13  1  0  0  0  0
  5  8  2  0  0  0  0
  5 14  1  0  0  0  0
  6  8  1  0  0  0  0
  6 15  1  0  0  0  0
  7  9  1  0  0  0  0
  7 16  1  0  0  0  0
  7 17  1  0  0  0  0
  8 18  1  0  0  0  0
  9 19  1  0  0  0  0
  9 20  1  0  0  0  0
M  END
>  <Mol_ID>
2930

>  <Formula>
C8H12ClN

>  <MolWeight>
157.64058

>  <Cat>
S5346

>  <Name>
2-Phenylethylamine hydrochloride

>  <Synonyms>
¦Â-Phenylethylamine hydrochloride, benzeneethanamine hydrochloride, ¦Â-aminoethylbenzene hydrochloride

>  <Target>
Others

>  <Form>
hydrochloride

>  <CAS>
156-28-5

>  <URL>
http://selleckchem.com/products/2-phenylethylamine-hydrochloride.html

$$$$
