VIOXX (rofecoxib).cdx
 OpenBabel08302521593D

 36 38  0  0  0  0  0  0  0  0999 V2000
   -0.6655   -0.9583   -0.8514 C   0  0  0  0  0  0  0  0  0  0  0  0
    0.6093   -1.2503   -0.3592 C   0  0  0  0  0  0  0  0  0  0  0  0
    1.3090   -0.3188    0.4109 C   0  0  0  0  0  0  0  0  0  0  0  0
    0.7417    0.9327    0.6563 C   0  0  0  0  0  0  0  0  0  0  0  0
   -0.5232    1.2491    0.1439 C   0  0  0  0  0  0  0  0  0  0  0  0
   -1.2272    0.2965   -0.6031 C   0  0  0  0  0  0  0  0  0  0  0  0
    1.3372   -2.8379   -0.6900 S   0  0  0  0  0  0  0  0  0  0  0  0
    2.2107   -2.5744   -2.2122 C   0  0  0  0  0  0  0  0  0  0  0  0
    2.3123   -3.0962    0.3527 O   0  0  0  0  0  0  0  0  0  0  0  0
    0.2545   -3.7691   -0.9431 O   0  0  0  0  0  0  0  0  0  0  0  0
   -1.0864    2.5727    0.3745 C   0  0  0  0  0  0  0  0  0  0  0  0
   -0.9652    3.6489   -0.4082 C   0  0  0  0  0  0  0  0  0  0  0  0
   -1.6630    4.7408    0.2954 C   0  0  0  0  0  0  0  0  0  0  0  0
   -2.1828    4.2638    1.4622 O   0  0  0  0  0  0  0  0  0  0  0  0
   -1.8612    2.8797    1.5919 C   0  0  0  0  0  0  0  0  0  0  0  0
   -1.7628    5.8911   -0.0905 O   0  0  0  0  0  0  0  0  0  0  0  0
   -0.2713    3.7927   -1.6807 C   0  0  0  0  0  0  0  0  0  0  0  0
   -0.9365    3.5229   -2.8827 C   0  0  0  0  0  0  0  0  0  0  0  0
   -0.2853    3.7070   -4.1043 C   0  0  0  0  0  0  0  0  0  0  0  0
    1.0347    4.1545   -4.1314 C   0  0  0  0  0  0  0  0  0  0  0  0
    1.7088    4.4091   -2.9380 C   0  0  0  0  0  0  0  0  0  0  0  0
    1.0592    4.2269   -1.7153 C   0  0  0  0  0  0  0  0  0  0  0  0
   -1.2245   -1.6941   -1.4262 H   0  0  0  0  0  0  0  0  0  0  0  0
    2.2898   -0.5539    0.8195 H   0  0  0  0  0  0  0  0  0  0  0  0
    1.2969    1.6598    1.2459 H   0  0  0  0  0  0  0  0  0  0  0  0
   -2.2156    0.5230   -0.9985 H   0  0  0  0  0  0  0  0  0  0  0  0
    2.9659   -1.8004   -2.0621 H   0  0  0  0  0  0  0  0  0  0  0  0
    2.6932   -3.5130   -2.4929 H   0  0  0  0  0  0  0  0  0  0  0  0
    1.4998   -2.2778   -2.9858 H   0  0  0  0  0  0  0  0  0  0  0  0
   -1.2802    2.7362    2.5079 H   0  0  0  0  0  0  0  0  0  0  0  0
   -2.7912    2.3061    1.6513 H   0  0  0  0  0  0  0  0  0  0  0  0
   -1.9716    3.1898   -2.8792 H   0  0  0  0  0  0  0  0  0  0  0  0
   -0.8132    3.5171   -5.0355 H   0  0  0  0  0  0  0  0  0  0  0  0
    1.5347    4.3158   -5.0832 H   0  0  0  0  0  0  0  0  0  0  0  0
    2.7354    4.7658   -2.9597 H   0  0  0  0  0  0  0  0  0  0  0  0
    1.5933    4.4465   -0.7938 H   0  0  0  0  0  0  0  0  0  0  0  0
  1  2  2  0  0  0  0
  1 23  1  0  0  0  0
  2  3  1  0  0  0  0
  2  7  1  0  0  0  0
  3  4  2  0  0  0  0
  3 24  1  0  0  0  0
  4  5  1  0  0  0  0
  4 25  1  0  0  0  0
  5  6  2  0  0  0  0
  5 11  1  0  0  0  0
  6  1  1  0  0  0  0
  6 26  1  0  0  0  0
  7  8  1  0  0  0  0
  7  9  2  0  0  0  0
  7 10  2  0  0  0  0
  8 27  1  0  0  0  0
  8 28  1  0  0  0  0
  8 29  1  0  0  0  0
 11 12  2  0  0  0  0
 12 13  1  0  0  0  0
 12 17  1  0  0  0  0
 13 14  1  0  0  0  0
 13 16  2  0  0  0  0
 14 15  1  0  0  0  0
 15 11  1  0  0  0  0
 15 30  1  0  0  0  0
 15 31  1  0  0  0  0
 17 18  2  0  0  0  0
 18 19  1  0  0  0  0
 18 32  1  0  0  0  0
 19 20  2  0  0  0  0
 19 33  1  0  0  0  0
 20 21  1  0  0  0  0
 20 34  1  0  0  0  0
 21 22  2  0  0  0  0
 21 35  1  0  0  0  0
 22 17  1  0  0  0  0
 22 36  1  0  0  0  0
M  END
>  <Mol_ID>
1014

>  <Formula>
C17H14O4S

>  <MolWeight>
314.35566

>  <Cat>
S3043

>  <Name>
Rofecoxib

>  <Synonyms>
MK-0966

>  <Target>
COX

>  <Form>
free base

>  <CAS>
162011-90-7

>  <URL>
http://selleckchem.com/products/rofecoxib-vioxx.html

$$$$
