(2R,3R)-(-)-2,3-Butanediol
     RDKit          3D

 16 15  0  0  0  0  0  0  0  0999 V2000
    1.3778    0.7299    0.5050 C   0  0  0  0  0  0  0  0  0  0  0  0
    0.7620    0.0623   -0.6933 C   0  0  1  0  0  0  0  0  0  0  0  0
    1.2127   -1.2632   -0.8461 O   0  0  0  0  0  0  0  0  0  0  0  0
   -0.7491    0.0664   -0.6496 C   0  0  2  0  0  0  0  0  0  0  0  0
   -1.2084    1.3724   -0.4987 O   0  0  0  0  0  0  0  0  0  0  0  0
   -1.3274   -0.8381    0.3978 C   0  0  0  0  0  0  0  0  0  0  0  0
    0.6839    0.7324    1.3846 H   0  0  0  0  0  0  0  0  0  0  0  0
    1.5705    1.8117    0.2835 H   0  0  0  0  0  0  0  0  0  0  0  0
    2.3382    0.2473    0.7977 H   0  0  0  0  0  0  0  0  0  0  0  0
    1.0569    0.5980   -1.6180 H   0  0  0  0  0  0  0  0  0  0  0  0
    1.3190   -1.6264    0.0870 H   0  0  0  0  0  0  0  0  0  0  0  0
   -1.1141   -0.2813   -1.6382 H   0  0  0  0  0  0  0  0  0  0  0  0
   -1.4224    1.5879    0.4425 H   0  0  0  0  0  0  0  0  0  0  0  0
   -1.7760   -0.2082    1.2047 H   0  0  0  0  0  0  0  0  0  0  0  0
   -0.5738   -1.5229    0.8428 H   0  0  0  0  0  0  0  0  0  0  0  0
   -2.1497   -1.4681   -0.0017 H   0  0  0  0  0  0  0  0  0  0  0  0
  2  1  1  0
  2  3  1  0
  4  6  1  0
  4  5  1  0
  4  2  1  0
  1  7  1  0
  1  8  1  0
  1  9  1  0
  2 10  1  6
  3 11  1  0
  4 12  1  6
  5 13  1  0
  6 14  1  0
  6 15  1  0
  6 16  1  0
M  END
>  <Mol_ID>  (1) 
5495

>  <Formula>  (1) 
C4H10O2

>  <MolWeight>  (1) 
90.121

>  <Cat>  (1) 
S3333

>  <Name>  (1) 
(2R,3R)-(-)-2,3-Butanediol

>  <Synonyms>  (1) 
(2R,3R)-Butane-2,3-diol

>  <Target>  (1) 
Others

>  <Form>  (1) 
Free Base

>  <CAS>  (1) 
24347-58-8

>  <URL>  (1) 
https://www.selleckchem.com/products/2r-3r-2-3-butanediol.html

$$$$
