BI 01383298
     RDKit          3D

 47 49  0  0  0  0  0  0  0  0999 V2000
   -3.5859   -1.6631   -0.1790 S   0  0  0  0  0  0  0  0  0  0  0  0
   -4.2786   -2.2904   -1.3526 O   0  0  0  0  0  0  0  0  0  0  0  0
   -3.5263   -2.7503    0.8831 O   0  0  0  0  0  0  0  0  0  0  0  0
    1.9542   -0.3418   -1.4678 C   0  0  0  0  0  0  0  0  0  0  0  0
    3.0128   -1.1830   -1.0584 N   0  0  0  0  0  0  0  0  0  0  0  0
    2.1135    0.7702   -2.0141 O   0  0  0  0  0  0  0  0  0  0  0  0
    4.4183   -0.8608   -1.2154 C   0  0  0  0  0  0  0  0  0  0  0  0
    5.9717    2.5563    2.9993 F   0  0  0  0  0  0  0  0  0  0  0  0
   -4.5428   -0.3427    0.4016 C   0  0  0  0  0  0  0  0  0  0  0  0
   -5.2851    0.3821   -0.5285 C   0  0  0  0  0  0  0  0  0  0  0  0
   -4.5548   -0.0329    1.7508 C   0  0  0  0  0  0  0  0  0  0  0  0
   -6.0517    1.4384   -0.0835 C   0  0  0  0  0  0  0  0  0  0  0  0
   -5.3151    1.0130    2.1835 C   0  0  0  0  0  0  0  0  0  0  0  0
   -6.0653    1.7522    1.2725 C   0  0  0  0  0  0  0  0  0  0  0  0
   -1.9944   -1.2769   -0.5809 N   0  0  0  0  0  0  0  0  0  0  0  0
   -1.2082   -0.7817    0.5240 C   0  0  0  0  0  0  0  0  0  0  0  0
   -1.8013   -0.5337   -1.7921 C   0  0  0  0  0  0  0  0  0  0  0  0
    0.2637   -0.9702    0.2350 C   0  0  0  0  0  0  0  0  0  0  0  0
   -0.4508    0.1947   -1.7694 C   0  0  0  0  0  0  0  0  0  0  0  0
    0.5594   -0.7957   -1.2404 C   0  0  0  0  0  0  0  0  0  0  0  0
    4.8076    0.1031   -0.1573 C   0  0  0  0  0  0  0  0  0  0  0  0
    5.2307   -0.4281    1.0501 C   0  0  0  0  0  0  0  0  0  0  0  0
    4.7757    1.4681   -0.3051 C   0  0  0  0  0  0  0  0  0  0  0  0
    5.6152    0.3816    2.0920 C   0  0  0  0  0  0  0  0  0  0  0  0
    5.1658    2.2877    0.7530 C   0  0  0  0  0  0  0  0  0  0  0  0
    5.5869    1.7585    1.9547 C   0  0  0  0  0  0  0  0  0  0  0  0
    2.7570   -2.1025   -0.6101 H   0  0  0  0  0  0  0  0  0  0  0  0
    4.5882   -0.4301   -2.2282 H   0  0  0  0  0  0  0  0  0  0  0  0
    5.0056   -1.7877   -1.1053 H   0  0  0  0  0  0  0  0  0  0  0  0
   -5.2776    0.1398   -1.5902 H   0  0  0  0  0  0  0  0  0  0  0  0
   -3.9494   -0.6462    2.4091 H   0  0  0  0  0  0  0  0  0  0  0  0
   -6.6248    1.9957   -0.8113 H   0  0  0  0  0  0  0  0  0  0  0  0
   -5.3206    1.2550    3.2566 H   0  0  0  0  0  0  0  0  0  0  0  0
   -6.6751    2.5910    1.6195 H   0  0  0  0  0  0  0  0  0  0  0  0
   -1.3968    0.2679    0.7808 H   0  0  0  0  0  0  0  0  0  0  0  0
   -1.4488   -1.4025    1.4110 H   0  0  0  0  0  0  0  0  0  0  0  0
   -2.6178    0.1444   -2.0405 H   0  0  0  0  0  0  0  0  0  0  0  0
   -1.7270   -1.2547   -2.6317 H   0  0  0  0  0  0  0  0  0  0  0  0
    0.6093   -1.9493    0.5606 H   0  0  0  0  0  0  0  0  0  0  0  0
    0.8139   -0.1492    0.7536 H   0  0  0  0  0  0  0  0  0  0  0  0
   -0.5054    1.1217   -1.1724 H   0  0  0  0  0  0  0  0  0  0  0  0
   -0.2070    0.4080   -2.8296 H   0  0  0  0  0  0  0  0  0  0  0  0
    0.3546   -1.7662   -1.7601 H   0  0  0  0  0  0  0  0  0  0  0  0
    5.2664   -1.5049    1.1936 H   0  0  0  0  0  0  0  0  0  0  0  0
    4.4543    1.9070   -1.2344 H   0  0  0  0  0  0  0  0  0  0  0  0
    5.9484   -0.0438    3.0421 H   0  0  0  0  0  0  0  0  0  0  0  0
    5.1377    3.3520    0.6318 H   0  0  0  0  0  0  0  0  0  0  0  0
  1  2  2  0
  1  3  2  0
  1  9  1  0
  1 15  1  0
  4  5  1  0
  4  6  2  0
  4 20  1  0
  5  7  1  0
  7 21  1  0
  8 26  1  0
  9 10  2  0
  9 11  1  0
 10 12  1  0
 11 13  2  0
 12 14  2  0
 13 14  1  0
 15 16  1  0
 15 17  1  0
 16 18  1  0
 17 19  1  0
 18 20  1  0
 19 20  1  0
 21 22  2  0
 21 23  1  0
 22 24  1  0
 23 25  2  0
 24 26  2  0
 25 26  1  0
  5 27  1  0
  7 28  1  0
  7 29  1  0
 10 30  1  0
 11 31  1  0
 12 32  1  0
 13 33  1  0
 14 34  1  0
 16 35  1  0
 16 36  1  0
 17 37  1  0
 17 38  1  0
 18 39  1  0
 18 40  1  0
 19 41  1  0
 19 42  1  0
 20 43  1  0
 22 44  1  0
 23 45  1  0
 24 46  1  0
 25 47  1  0
M  END
>  <Mol_ID>  (1) 
6142

>  <Formula>  (1) 
C19H19Cl2FN2O3S

>  <MolWeight>  (1) 
445.3351632

>  <Cat>  (1) 
S0073

>  <Name>  (1) 
BI 01383298

>  <Synonyms>  (1) 
N/A

>  <Target>  (1) 
Sodium Channel

>  <Form>  (1) 
free base

>  <CAS>  (1) 
2227549-00-8

>  <URL>  (1) 
http://www.selleckchem.com/products/bi-01383298.html

$$$$
