BMS-813160
     RDKit          3D

 75 78  0  0  0  0  0  0  0  0999 V2000
    1.2033    0.5399   -1.3982 O   0  0  0  0  0  0  0  0  0  0  0  0
   -1.4624    1.0351    2.9366 O   0  0  0  0  0  0  0  0  0  0  0  0
   -0.6436   -0.7542   -0.5234 N   0  0  0  0  0  0  0  0  0  0  0  0
   -5.5934    1.2223   -0.2178 N   0  0  0  0  0  0  0  0  0  0  0  0
   -2.9165    0.1459    1.3347 N   0  0  0  0  0  0  0  0  0  0  0  0
    2.8488   -1.3630   -0.0721 N   0  0  0  0  0  0  0  0  0  0  0  0
    5.0177   -0.4451   -0.6497 N   0  0  0  0  0  0  0  0  0  0  0  0
    3.4169   -0.6393   -2.3089 N   0  0  0  0  0  0  0  0  0  0  0  0
    5.6780   -0.4782    0.5164 N   0  0  0  0  0  0  0  0  0  0  0  0
    5.4796    0.2393   -2.8668 N   0  0  0  0  0  0  0  0  0  0  0  0
   -1.7553    0.0913   -0.9015 C   0  0  2  0  0  0  0  0  0  0  0  0
   -2.4122    0.8144    0.2193 C   0  0  1  0  0  0  0  0  0  0  0  0
   -4.4849    1.1179   -1.1131 C   0  0  1  0  0  0  0  0  0  0  0  0
   -2.7054   -0.5377   -1.8857 C   0  0  0  0  0  0  0  0  0  0  0  0
   -3.3267    1.8246   -0.4396 C   0  0  0  0  0  0  0  0  0  0  0  0
   -4.1533   -0.2089   -1.6531 C   0  0  0  0  0  0  0  0  0  0  0  0
   -0.6640   -1.9880    0.2698 C   0  0  0  0  0  0  0  0  0  0  0  0
    1.5237   -1.7338   -0.5357 C   0  0  1  0  0  0  0  0  0  0  0  0
    0.7645   -2.2589    0.6565 C   0  0  0  0  0  0  0  0  0  0  0  0
    0.7292   -0.5067   -0.8836 C   0  0  0  0  0  0  0  0  0  0  0  0
   -6.8634    0.7614   -0.6141 C   0  0  0  0  0  0  0  0  0  0  0  0
   -7.0691   -0.7089   -0.7731 C   0  0  0  0  0  0  0  0  0  0  0  0
   -7.8462    1.1970    0.4964 C   0  0  0  0  0  0  0  0  0  0  0  0
   -7.3868    1.4641   -1.8657 C   0  0  0  0  0  0  0  0  0  0  0  0
   -2.4170    0.2858    2.6543 C   0  0  0  0  0  0  0  0  0  0  0  0
    3.7638   -0.8140   -1.0191 C   0  0  0  0  0  0  0  0  0  0  0  0
   -3.0241   -0.4756    3.8018 C   0  0  0  0  0  0  0  0  0  0  0  0
    5.8713    0.0802   -1.5741 C   0  0  0  0  0  0  0  0  0  0  0  0
    8.0133    0.1708    1.3522 C   0  0  0  0  0  0  0  0  0  0  0  0
    6.9081    0.0027    0.3653 C   0  0  0  0  0  0  0  0  0  0  0  0
    7.0739    0.3747   -0.9696 C   0  0  0  0  0  0  0  0  0  0  0  0
    4.2383   -0.1263   -3.2318 C   0  0  0  0  0  0  0  0  0  0  0  0
    7.6191   -0.3024    2.7173 C   0  0  0  0  0  0  0  0  0  0  0  0
    8.3270    1.6624    1.4777 C   0  0  0  0  0  0  0  0  0  0  0  0
    9.2771   -0.5127    0.8881 C   0  0  0  0  0  0  0  0  0  0  0  0
   -5.6789    2.1706    0.2056 H   0  0  0  0  0  0  0  0  0  0  0  0
   -3.7358   -0.5263    1.2300 H   0  0  0  0  0  0  0  0  0  0  0  0
    3.1705   -1.4751    0.9125 H   0  0  0  0  0  0  0  0  0  0  0  0
   -1.2916    0.9164   -1.4996 H   0  0  0  0  0  0  0  0  0  0  0  0
   -1.5861    1.4705    0.6451 H   0  0  0  0  0  0  0  0  0  0  0  0
   -4.7528    1.8358   -1.9612 H   0  0  0  0  0  0  0  0  0  0  0  0
   -2.5420   -1.6349   -1.8529 H   0  0  0  0  0  0  0  0  0  0  0  0
   -2.5049   -0.2793   -2.9479 H   0  0  0  0  0  0  0  0  0  0  0  0
   -3.7295    2.5444    0.2800 H   0  0  0  0  0  0  0  0  0  0  0  0
   -2.6938    2.3326   -1.2248 H   0  0  0  0  0  0  0  0  0  0  0  0
   -4.5412   -0.9936   -0.9798 H   0  0  0  0  0  0  0  0  0  0  0  0
   -4.7321   -0.3343   -2.6089 H   0  0  0  0  0  0  0  0  0  0  0  0
   -1.3758   -1.9624    1.0983 H   0  0  0  0  0  0  0  0  0  0  0  0
   -0.9472   -2.8051   -0.4269 H   0  0  0  0  0  0  0  0  0  0  0  0
    1.5411   -2.4352   -1.3707 H   0  0  0  0  0  0  0  0  0  0  0  0
    0.9468   -3.3614    0.6895 H   0  0  0  0  0  0  0  0  0  0  0  0
    1.0320   -1.7573    1.5938 H   0  0  0  0  0  0  0  0  0  0  0  0
   -8.2006   -0.8560   -0.6918 H   0  0  0  0  0  0  0  0  0  0  0  0
   -6.6063   -1.2593    0.0917 H   0  0  0  0  0  0  0  0  0  0  0  0
   -6.7766   -1.1016   -1.7573 H   0  0  0  0  0  0  0  0  0  0  0  0
   -7.5459    2.1675    0.9087 H   0  0  0  0  0  0  0  0  0  0  0  0
   -7.8311    0.3923    1.2637 H   0  0  0  0  0  0  0  0  0  0  0  0
   -8.8798    1.2566    0.1134 H   0  0  0  0  0  0  0  0  0  0  0  0
   -7.0992    0.8950   -2.7960 H   0  0  0  0  0  0  0  0  0  0  0  0
   -7.1112    2.5204   -1.9187 H   0  0  0  0  0  0  0  0  0  0  0  0
   -8.4943    1.4020   -1.8263 H   0  0  0  0  0  0  0  0  0  0  0  0
   -3.5922   -1.3157    3.3921 H   0  0  0  0  0  0  0  0  0  0  0  0
   -3.6752    0.2312    4.3523 H   0  0  0  0  0  0  0  0  0  0  0  0
   -2.2279   -0.7907    4.4997 H   0  0  0  0  0  0  0  0  0  0  0  0
    7.9589    0.8021   -1.4232 H   0  0  0  0  0  0  0  0  0  0  0  0
    3.9371    0.0062   -4.2655 H   0  0  0  0  0  0  0  0  0  0  0  0
    6.5469   -0.1139    2.9410 H   0  0  0  0  0  0  0  0  0  0  0  0
    8.1925    0.2920    3.4852 H   0  0  0  0  0  0  0  0  0  0  0  0
    7.9086   -1.3677    2.9178 H   0  0  0  0  0  0  0  0  0  0  0  0
    8.9991    1.9170    0.6396 H   0  0  0  0  0  0  0  0  0  0  0  0
    7.4059    2.2723    1.3682 H   0  0  0  0  0  0  0  0  0  0  0  0
    8.7526    1.8288    2.4748 H   0  0  0  0  0  0  0  0  0  0  0  0
    9.8698   -0.9377    1.7081 H   0  0  0  0  0  0  0  0  0  0  0  0
    9.8823    0.2044    0.2753 H   0  0  0  0  0  0  0  0  0  0  0  0
    8.9786   -1.3266    0.1741 H   0  0  0  0  0  0  0  0  0  0  0  0
  1 20  2  0
  2 25  2  0
  3 17  1  0
  3 20  1  0
  4 21  1  0
  5 25  1  0
  6 26  1  0
  7  9  1  0
  7 26  1  0
  7 28  1  0
  8 26  2  0
  8 32  1  0
  9 30  2  0
 10 28  1  0
 10 32  2  0
 11  3  1  0
 11 12  1  0
 11 14  1  0
 12  5  1  0
 12 15  1  0
 13  4  1  0
 13 15  1  0
 13 16  1  0
 14 16  1  0
 17 19  1  0
 18 19  1  0
 18 20  1  0
 18  6  1  0
 21 22  1  0
 21 23  1  0
 21 24  1  0
 25 27  1  0
 28 31  2  0
 29 30  1  0
 29 33  1  0
 29 34  1  0
 29 35  1  0
 30 31  1  0
  4 36  1  0
  5 37  1  0
  6 38  1  0
 11 39  1  6
 12 40  1  1
 13 41  1  6
 14 42  1  0
 14 43  1  0
 15 44  1  0
 15 45  1  0
 16 46  1  0
 16 47  1  0
 17 48  1  0
 17 49  1  0
 18 50  1  6
 19 51  1  0
 19 52  1  0
 22 53  1  0
 22 54  1  0
 22 55  1  0
 23 56  1  0
 23 57  1  0
 23 58  1  0
 24 59  1  0
 24 60  1  0
 24 61  1  0
 27 62  1  0
 27 63  1  0
 27 64  1  0
 31 65  1  0
 32 66  1  0
 33 67  1  0
 33 68  1  0
 33 69  1  0
 34 70  1  0
 34 71  1  0
 34 72  1  0
 35 73  1  0
 35 74  1  0
 35 75  1  0
M  END
>  <Mol_ID>  (1) 
5036

>  <Formula>  (1) 
C25H40N8O2

>  <MolWeight>  (1) 
484.6375

>  <Cat>  (1) 
S0085

>  <Name>  (1) 
BMS-813160

>  <Synonyms>  (1) 
N/A

>  <Target>  (1) 
CCR

>  <Form>  (1) 
free base

>  <CAS>  (1) 
1286279-29-5

>  <URL>  (1) 
http://www.selleckchem.com/products/bms813160.html

$$$$
