CHR-6494
     RDKit          3D

 38 41  0  0  0  0  0  0  0  0999 V2000
    1.6874   -0.3535    0.4824 C   0  0  0  0  0  0  0  0  0  0  0  0
    2.3445   -1.5196    0.1545 C   0  0  0  0  0  0  0  0  0  0  0  0
    1.6793   -2.6682   -0.2617 C   0  0  0  0  0  0  0  0  0  0  0  0
    0.3051   -2.6111   -0.3404 C   0  0  0  0  0  0  0  0  0  0  0  0
   -0.2967   -1.4568   -0.0118 N   0  0  0  0  0  0  0  0  0  0  0  0
    0.3424   -0.3730    0.3815 N   0  0  0  0  0  0  0  0  0  0  0  0
   -0.5863   -3.5431   -0.7038 N   0  0  0  0  0  0  0  0  0  0  0  0
   -1.8093   -2.9994   -0.6162 C   0  0  0  0  0  0  0  0  0  0  0  0
   -1.6160   -1.6916   -0.1815 C   0  0  0  0  0  0  0  0  0  0  0  0
    2.3497    0.8190    0.8889 N   0  0  0  0  0  0  0  0  0  0  0  0
    3.7605    1.0369    0.9022 C   0  0  0  0  0  0  0  0  0  0  0  0
    4.3966    1.1174   -0.4682 C   0  0  0  0  0  0  0  0  0  0  0  0
    5.9052    1.3448   -0.3018 C   0  0  0  0  0  0  0  0  0  0  0  0
   -2.7439   -0.7836    0.0284 C   0  0  0  0  0  0  0  0  0  0  0  0
   -2.6161    0.4918   -0.4571 C   0  0  0  0  0  0  0  0  0  0  0  0
   -3.6893    1.3490   -0.2574 C   0  0  0  0  0  0  0  0  0  0  0  0
   -4.8376    0.9369    0.4018 C   0  0  0  0  0  0  0  0  0  0  0  0
   -4.9360   -0.3571    0.8802 C   0  0  0  0  0  0  0  0  0  0  0  0
   -3.8833   -1.2176    0.6910 C   0  0  0  0  0  0  0  0  0  0  0  0
   -3.8522    2.6613   -0.6231 C   0  0  0  0  0  0  0  0  0  0  0  0
   -5.0618    3.0300   -0.1979 N   0  0  0  0  0  0  0  0  0  0  0  0
   -5.6671    2.0135    0.4175 N   0  0  0  0  0  0  0  0  0  0  0  0
    3.4162   -1.6004    0.2155 H   0  0  0  0  0  0  0  0  0  0  0  0
    2.2278   -3.5578   -0.5086 H   0  0  0  0  0  0  0  0  0  0  0  0
   -2.7288   -3.5142   -0.8475 H   0  0  0  0  0  0  0  0  0  0  0  0
    1.7402    1.6225    1.2189 H   0  0  0  0  0  0  0  0  0  0  0  0
    4.3198    0.2242    1.4349 H   0  0  0  0  0  0  0  0  0  0  0  0
    4.0065    1.9925    1.4324 H   0  0  0  0  0  0  0  0  0  0  0  0
    4.2025    0.2088   -1.0312 H   0  0  0  0  0  0  0  0  0  0  0  0
    4.0453    2.0395   -1.0127 H   0  0  0  0  0  0  0  0  0  0  0  0
    6.4422    0.3856   -0.5492 H   0  0  0  0  0  0  0  0  0  0  0  0
    6.1597    1.5257    0.7604 H   0  0  0  0  0  0  0  0  0  0  0  0
    6.2890    2.1571   -0.9174 H   0  0  0  0  0  0  0  0  0  0  0  0
   -1.7575    0.8609   -0.9705 H   0  0  0  0  0  0  0  0  0  0  0  0
   -5.8343   -0.6479    1.3856 H   0  0  0  0  0  0  0  0  0  0  0  0
   -3.9050   -2.2330    1.0409 H   0  0  0  0  0  0  0  0  0  0  0  0
   -3.1843    3.3287   -1.1493 H   0  0  0  0  0  0  0  0  0  0  0  0
   -6.6146    1.9818    0.8580 H   0  0  0  0  0  0  0  0  0  0  0  0
  1  2  1  0
  1 10  1  0
  2  3  2  0
  3  4  1  0
  4  5  1  0
  4  7  2  0
  5  6  1  0
  6  1  2  0
  7  8  1  0
  8  9  2  0
  9  5  1  0
  9 14  1  0
 10 11  1  0
 11 12  1  0
 12 13  1  0
 14 15  2  0
 15 16  1  0
 16 17  2  0
 16 20  1  0
 17 18  1  0
 18 19  2  0
 19 14  1  0
 20 21  2  0
 21 22  1  0
 22 17  1  0
  2 23  1  0
  3 24  1  0
  8 25  1  0
 10 26  1  0
 11 27  1  0
 11 28  1  0
 12 29  1  0
 12 30  1  0
 13 31  1  0
 13 32  1  0
 13 33  1  0
 15 34  1  0
 18 35  1  0
 19 36  1  0
 20 37  1  0
 22 38  1  0
M  END
>  <Mol_ID>  (1) 
6403

>  <Formula>  (1) 
C16H16N6

>  <MolWeight>  (1) 
292.33844

>  <Cat>  (1) 
E1132

>  <Name>  (1) 
CHR-6494

>  <Target>  (1) 
Haspin Kinase

>  <Form>  (1) 
free base

>  <CAS>  (1) 
1333377-65-3

>  <URL>  (1) 
http://www.selleckchem.com/products/chr-6494.html

$$$$
