Cyclic Pifithrin-¦Á hydrobromide
     RDKit          3D

 37 39  0  0  0  0  0  0  0  0999 V2000
    2.4242    2.4273    1.2382 S   0  0  0  0  0  0  0  0  0  0  0  0
    0.8693    1.5343    0.7753 C   0  0  0  0  0  0  0  0  0  0  0  0
    1.2522    0.2983    0.5309 N   0  0  0  0  0  0  0  0  0  0  0  0
    2.5251   -0.0145    0.6530 C   0  0  0  0  0  0  0  0  0  0  0  0
    3.4159    0.9519    1.0301 C   0  0  0  0  0  0  0  0  0  0  0  0
    3.2183   -1.3711    0.4276 C   0  0  0  0  0  0  0  0  0  0  0  0
    4.3559   -1.0599   -0.5132 C   0  0  0  0  0  0  0  0  0  0  0  0
    5.3623   -0.1214    0.0757 C   0  0  0  0  0  0  0  0  0  0  0  0
    4.8371    0.7163    1.1952 C   0  0  0  0  0  0  0  0  0  0  0  0
   -0.4447    1.7420    0.6213 N   0  0  0  0  0  0  0  0  0  0  0  0
   -0.9818    0.5378    0.2412 C   0  0  0  0  0  0  0  0  0  0  0  0
    0.0764   -0.3416    0.1900 C   0  0  0  0  0  0  0  0  0  0  0  0
   -2.3940    0.3323   -0.0298 C   0  0  0  0  0  0  0  0  0  0  0  0
   -3.2438    1.4115    0.1032 C   0  0  0  0  0  0  0  0  0  0  0  0
   -4.5929    1.2625   -0.1441 C   0  0  0  0  0  0  0  0  0  0  0  0
   -5.0418   -0.0065   -0.5264 C   0  0  0  0  0  0  0  0  0  0  0  0
   -4.1703   -1.0743   -0.6531 C   0  0  0  0  0  0  0  0  0  0  0  0
   -2.8186   -0.9254   -0.4055 C   0  0  0  0  0  0  0  0  0  0  0  0
   -6.4992   -0.1576   -0.7910 C   0  0  0  0  0  0  0  0  0  0  0  0
    0.7595    0.0000    0.0000 Br  0  0  0  0  0  0  0  0  0  0  0  0
    2.5703   -2.0792   -0.0751 H   0  0  0  0  0  0  0  0  0  0  0  0
    3.5953   -1.7709    1.3721 H   0  0  0  0  0  0  0  0  0  0  0  0
    3.9470   -0.7323   -1.4863 H   0  0  0  0  0  0  0  0  0  0  0  0
    4.8753   -2.0269   -0.7137 H   0  0  0  0  0  0  0  0  0  0  0  0
    6.2796   -0.6592    0.4002 H   0  0  0  0  0  0  0  0  0  0  0  0
    5.6968    0.5593   -0.7520 H   0  0  0  0  0  0  0  0  0  0  0  0
    5.0453    0.2226    2.1631 H   0  0  0  0  0  0  0  0  0  0  0  0
    5.3520    1.7037    1.2338 H   0  0  0  0  0  0  0  0  0  0  0  0
   -0.0624   -1.3753   -0.0860 H   0  0  0  0  0  0  0  0  0  0  0  0
   -2.8894    2.3951    0.4005 H   0  0  0  0  0  0  0  0  0  0  0  0
   -5.3097    2.0684   -0.0576 H   0  0  0  0  0  0  0  0  0  0  0  0
   -4.5119   -2.0418   -0.9445 H   0  0  0  0  0  0  0  0  0  0  0  0
   -2.1626   -1.7731   -0.5117 H   0  0  0  0  0  0  0  0  0  0  0  0
   -6.7135   -1.2486   -0.7914 H   0  0  0  0  0  0  0  0  0  0  0  0
   -6.7996    0.3343   -1.7252 H   0  0  0  0  0  0  0  0  0  0  0  0
   -7.0623    0.2819    0.0714 H   0  0  0  0  0  0  0  0  0  0  0  0
   -0.7595    0.0000    0.0000 H   0  0  0  0  0  0  0  0  0  0  0  0
  1  2  1  0
  1  5  1  0
  2  3  1  0
  2 10  2  0
  3  4  1  0
  3 12  1  0
  4  5  2  0
  4  6  1  0
  5  9  1  0
  6  7  1  0
  7  8  1  0
  8  9  1  0
 10 11  1  0
 11 12  2  0
 11 13  1  0
 13 14  2  0
 13 18  1  0
 14 15  1  0
 15 16  2  0
 16 17  1  0
 16 19  1  0
 17 18  2  0
  6 21  1  0
  6 22  1  0
  7 23  1  0
  7 24  1  0
  8 25  1  0
  8 26  1  0
  9 27  1  0
  9 28  1  0
 12 29  1  0
 14 30  1  0
 15 31  1  0
 17 32  1  0
 18 33  1  0
 19 34  1  0
 19 35  1  0
 19 36  1  0
 20 37  1  0
M  END
>  <Mol_ID>  (1) 
3424

>  <Formula>  (1) 
C16H17BrN2S

>  <MolWeight>  (1) 
349.28858

>  <Cat>  (1) 
S5791

>  <Name>  (1) 
Cyclic Pifithrin-¦Á hydrobromide

>  <Synonyms>  (1) 
N/A

>  <Target>  (1) 
p53

>  <Form>  (1) 
hydrobromide

>  <CAS>  (1) 
511296-88-1

>  <URL>  (1) 
http://www.selleckchem.com/products/cyclic-pifithrin-hydrobromide.html

$$$$
