D-Mannose
     RDKit          3D

 24 24  0  0  0  0  0  0  0  0999 V2000
    1.1485    0.1171    0.2485 C   0  0  2  0  0  0  0  0  0  0  0  0
    0.2142   -0.8409   -0.4690 C   0  0  2  0  0  0  0  0  0  0  0  0
    0.6503    1.3805    0.3500 O   0  0  0  0  0  0  0  0  0  0  0  0
    2.4301    0.2127   -0.5742 C   0  0  0  0  0  0  0  0  0  0  0  0
   -1.0223   -0.9266    0.4044 C   0  0  1  0  0  0  0  0  0  0  0  0
    0.8142   -2.0528   -0.6815 O   0  0  0  0  0  0  0  0  0  0  0  0
   -0.6348    1.5448    0.7335 C   0  0  2  0  0  0  0  0  0  0  0  0
    3.0418   -1.0207   -0.7523 O   0  0  0  0  0  0  0  0  0  0  0  0
   -1.5939    0.4569    0.4382 C   0  0  1  0  0  0  0  0  0  0  0  0
   -1.9641   -1.8032   -0.1095 O   0  0  0  0  0  0  0  0  0  0  0  0
   -1.1177    2.7308    0.1776 O   0  0  0  0  0  0  0  0  0  0  0  0
   -2.1920    0.6818   -0.8046 O   0  0  0  0  0  0  0  0  0  0  0  0
    1.3970   -0.3052    1.2439 H   0  0  0  0  0  0  0  0  0  0  0  0
   -0.0484   -0.3559   -1.4382 H   0  0  0  0  0  0  0  0  0  0  0  0
    3.1605    0.8946   -0.0913 H   0  0  0  0  0  0  0  0  0  0  0  0
    2.1849    0.6055   -1.5849 H   0  0  0  0  0  0  0  0  0  0  0  0
   -0.6996   -1.2140    1.4374 H   0  0  0  0  0  0  0  0  0  0  0  0
    0.0928   -2.7056   -0.9358 H   0  0  0  0  0  0  0  0  0  0  0  0
   -0.6395    1.7273    1.8436 H   0  0  0  0  0  0  0  0  0  0  0  0
    3.3640   -1.4153    0.0942 H   0  0  0  0  0  0  0  0  0  0  0  0
   -2.4381    0.4548    1.1821 H   0  0  0  0  0  0  0  0  0  0  0  0
   -2.4613   -2.2086    0.6467 H   0  0  0  0  0  0  0  0  0  0  0  0
   -0.6094    2.9265   -0.6348 H   0  0  0  0  0  0  0  0  0  0  0  0
   -3.0773    1.1156   -0.7240 H   0  0  0  0  0  0  0  0  0  0  0  0
  1  2  1  0
  1  3  1  0
  1  4  1  0
  2  5  1  0
  2  6  1  0
  3  7  1  0
  4  8  1  0
  5  9  1  0
  5 10  1  0
  7 11  1  0
  7  9  1  0
  9 12  1  0
  1 13  1  1
  2 14  1  6
  4 15  1  0
  4 16  1  0
  5 17  1  1
  6 18  1  0
  7 19  1  1
  8 20  1  0
  9 21  1  1
 10 22  1  0
 11 23  1  0
 12 24  1  0
M  END
>  <Mol_ID>  (1) 
3404

>  <Formula>  (1) 
C6H12O6

>  <MolWeight>  (1) 
180.15588

>  <Cat>  (1) 
S5763

>  <Name>  (1) 
D-Mannose

>  <Synonyms>  (1) 
N/A

>  <Target>  (1) 
Others

>  <Form>  (1) 
Free Base

>  <CAS>  (1) 
3458-28-4

>  <URL>  (1) 
http://www.selleckchem.com/products/d-mannose.html

$$$$
