DMU2139
     RDKit          3D

 37 39  0  0  0  0  0  0  0  0999 V2000
   -6.3568    0.2156   -0.4392 O   0  0  0  0  0  0  0  0  0  0  0  0
    1.0869   -0.8512    2.7160 O   0  0  0  0  0  0  0  0  0  0  0  0
    6.8318   -0.2550    0.3369 N   0  0  0  0  0  0  0  0  0  0  0  0
   -2.4850   -0.3123    1.1100 C   0  0  0  0  0  0  0  0  0  0  0  0
   -2.6951    0.0736   -0.1854 C   0  0  0  0  0  0  0  0  0  0  0  0
   -0.0622   -0.2715    0.8213 C   0  0  0  0  0  0  0  0  0  0  0  0
   -1.2042   -0.4863    1.6202 C   0  0  0  0  0  0  0  0  0  0  0  0
   -1.6042    0.2883   -0.9806 C   0  0  0  0  0  0  0  0  0  0  0  0
   -3.9490    0.2550   -0.7223 C   0  0  0  0  0  0  0  0  0  0  0  0
   -3.5940   -0.5252    1.9005 C   0  0  0  0  0  0  0  0  0  0  0  0
   -0.3176    0.1097   -0.4553 C   0  0  0  0  0  0  0  0  0  0  0  0
   -5.0666    0.0453    0.0580 C   0  0  0  0  0  0  0  0  0  0  0  0
   -4.8602   -0.3462    1.3725 C   0  0  0  0  0  0  0  0  0  0  0  0
    1.2027   -0.4825    1.4580 C   0  0  0  0  0  0  0  0  0  0  0  0
    2.5554   -0.3829    1.0362 C   0  0  0  0  0  0  0  0  0  0  0  0
    3.1086   -0.0602   -0.0929 C   0  0  0  0  0  0  0  0  0  0  0  0
    4.5605   -0.0149   -0.3370 C   0  0  0  0  0  0  0  0  0  0  0  0
    5.0555    0.3454   -1.5903 C   0  0  0  0  0  0  0  0  0  0  0  0
   -6.5030    0.6163   -1.7885 C   0  0  0  0  0  0  0  0  0  0  0  0
    5.4989   -0.3132    0.6170 C   0  0  0  0  0  0  0  0  0  0  0  0
    6.4027    0.4016   -1.8647 C   0  0  0  0  0  0  0  0  0  0  0  0
    7.2832    0.0892   -0.8589 C   0  0  0  0  0  0  0  0  0  0  0  0
   -1.1574   -0.7903    2.6478 H   0  0  0  0  0  0  0  0  0  0  0  0
   -1.7520    0.5936   -2.0064 H   0  0  0  0  0  0  0  0  0  0  0  0
   -4.0719    0.5655   -1.7672 H   0  0  0  0  0  0  0  0  0  0  0  0
   -3.4769   -0.8356    2.9454 H   0  0  0  0  0  0  0  0  0  0  0  0
    0.4667    0.3002   -1.1494 H   0  0  0  0  0  0  0  0  0  0  0  0
   -5.7144   -0.5206    2.0167 H   0  0  0  0  0  0  0  0  0  0  0  0
    3.3159   -0.6312    1.8311 H   0  0  0  0  0  0  0  0  0  0  0  0
    2.4957    0.1945   -0.9191 H   0  0  0  0  0  0  0  0  0  0  0  0
    4.3569    0.5849   -2.3598 H   0  0  0  0  0  0  0  0  0  0  0  0
   -5.8728    1.4943   -2.0472 H   0  0  0  0  0  0  0  0  0  0  0  0
   -7.5777    0.9071   -1.9460 H   0  0  0  0  0  0  0  0  0  0  0  0
   -6.2176   -0.2042   -2.4977 H   0  0  0  0  0  0  0  0  0  0  0  0
    5.2551   -0.6051    1.6228 H   0  0  0  0  0  0  0  0  0  0  0  0
    6.7137    0.6887   -2.8583 H   0  0  0  0  0  0  0  0  0  0  0  0
    8.3486    0.1197   -1.0285 H   0  0  0  0  0  0  0  0  0  0  0  0
  1 12  1  0
  1 19  1  0
  2 14  2  0
  3 20  2  0
  3 22  1  0
  4  5  1  0
  4  7  2  0
  4 10  1  0
  5  8  2  0
  5  9  1  0
  6  7  1  0
  6 11  2  0
  6 14  1  0
  8 11  1  0
  9 12  2  0
 10 13  2  0
 12 13  1  0
 14 15  1  0
 15 16  2  0
 16 17  1  0
 17 18  2  0
 17 20  1  0
 18 21  1  0
 21 22  2  0
  7 23  1  0
  8 24  1  0
  9 25  1  0
 10 26  1  0
 11 27  1  0
 13 28  1  0
 15 29  1  0
 16 30  1  0
 18 31  1  0
 19 32  1  0
 19 33  1  0
 19 34  1  0
 20 35  1  0
 21 36  1  0
 22 37  1  0
M  END
>  <Mol_ID>  (1) 
5354

>  <Formula>  (1) 
C19H15NO2

>  <MolWeight>  (1) 
289.3279

>  <Cat>  (1) 
S0176

>  <Name>  (1) 
DMU2139

>  <Synonyms>  (1) 
N/A

>  <Target>  (1) 
P450 (e.g. CYP17)

>  <Form>  (1) 
Free Base

>  <CAS>  (1) 
104890-70-2

>  <URL>  (1) 
https://www.selleckchem.com/products/dmu2139.html

$$$$
