Glycycoumarin
     RDKit          3D

 47 49  0  0  0  0  0  0  0  0999 V2000
    0.5505   -0.7678   -1.2548 O   0  0  0  0  0  0  0  0  0  0  0  0
    0.1650   -2.0389   -1.7379 C   0  0  0  0  0  0  0  0  0  0  0  0
    3.1682   -1.0900   -0.4438 C   0  0  0  0  0  0  0  0  0  0  0  0
    3.4850    0.0839   -1.2801 C   0  0  0  0  0  0  0  0  0  0  0  0
    4.6571    0.6425   -1.4147 C   0  0  0  0  0  0  0  0  0  0  0  0
    4.8659    1.8461   -2.3023 C   0  0  0  0  0  0  0  0  0  0  0  0
    5.8475    0.1076   -0.6895 C   0  0  0  0  0  0  0  0  0  0  0  0
    3.7614   -0.5776    2.3233 O   0  0  0  0  0  0  0  0  0  0  0  0
   -3.0369    0.9736    3.3827 O   0  0  0  0  0  0  0  0  0  0  0  0
   -4.1387   -1.7634    1.2973 O   0  0  0  0  0  0  0  0  0  0  0  0
   -7.5897    0.8314   -0.8021 O   0  0  0  0  0  0  0  0  0  0  0  0
   -0.1577   -0.1341    0.9413 C   0  0  0  0  0  0  0  0  0  0  0  0
    0.8485   -0.5237    0.0778 C   0  0  0  0  0  0  0  0  0  0  0  0
    0.1318    0.1102    2.2680 C   0  0  0  0  0  0  0  0  0  0  0  0
   -1.4212   -0.0064    0.4287 C   0  0  0  0  0  0  0  0  0  0  0  0
    2.1360   -0.6619    0.5652 C   0  0  0  0  0  0  0  0  0  0  0  0
   -0.8611    0.4817    3.0633 O   0  0  0  0  0  0  0  0  0  0  0  0
    1.4303   -0.0332    2.7417 C   0  0  0  0  0  0  0  0  0  0  0  0
   -2.4376    0.3869    1.3005 C   0  0  0  0  0  0  0  0  0  0  0  0
    2.4655   -0.4266    1.8858 C   0  0  0  0  0  0  0  0  0  0  0  0
   -2.0868    0.6153    2.6088 C   0  0  0  0  0  0  0  0  0  0  0  0
   -3.7580    0.5184    0.7565 C   0  0  0  0  0  0  0  0  0  0  0  0
   -4.6165   -0.5633    0.7538 C   0  0  0  0  0  0  0  0  0  0  0  0
   -4.1617    1.7469    0.2328 C   0  0  0  0  0  0  0  0  0  0  0  0
   -5.8804   -0.4472    0.2358 C   0  0  0  0  0  0  0  0  0  0  0  0
   -5.4434    1.8367   -0.2841 C   0  0  0  0  0  0  0  0  0  0  0  0
   -6.3086    0.7472   -0.2871 C   0  0  0  0  0  0  0  0  0  0  0  0
    0.3465   -2.8077   -0.9478 H   0  0  0  0  0  0  0  0  0  0  0  0
   -0.9032   -2.0836   -1.9905 H   0  0  0  0  0  0  0  0  0  0  0  0
    0.7647   -2.3256   -2.6105 H   0  0  0  0  0  0  0  0  0  0  0  0
    2.7503   -1.8751   -1.1133 H   0  0  0  0  0  0  0  0  0  0  0  0
    4.0392   -1.5218    0.0546 H   0  0  0  0  0  0  0  0  0  0  0  0
    2.6381    0.5208   -1.8403 H   0  0  0  0  0  0  0  0  0  0  0  0
    4.7414    1.5752   -3.3497 H   0  0  0  0  0  0  0  0  0  0  0  0
    5.8440    2.3189   -2.0847 H   0  0  0  0  0  0  0  0  0  0  0  0
    4.1032    2.6406   -2.0670 H   0  0  0  0  0  0  0  0  0  0  0  0
    6.6325    0.9098   -0.5810 H   0  0  0  0  0  0  0  0  0  0  0  0
    6.3536   -0.6970   -1.2583 H   0  0  0  0  0  0  0  0  0  0  0  0
    5.6394   -0.2538    0.3186 H   0  0  0  0  0  0  0  0  0  0  0  0
    4.0546   -1.3016    2.9693 H   0  0  0  0  0  0  0  0  0  0  0  0
   -4.4581   -2.0596    2.1936 H   0  0  0  0  0  0  0  0  0  0  0  0
   -8.3618    1.0854   -0.2057 H   0  0  0  0  0  0  0  0  0  0  0  0
   -1.6201   -0.2006   -0.6004 H   0  0  0  0  0  0  0  0  0  0  0  0
    1.6399    0.1606    3.7775 H   0  0  0  0  0  0  0  0  0  0  0  0
   -3.4996    2.5768    0.2361 H   0  0  0  0  0  0  0  0  0  0  0  0
   -6.5151   -1.3118    0.2532 H   0  0  0  0  0  0  0  0  0  0  0  0
   -5.8039    2.7558   -0.6982 H   0  0  0  0  0  0  0  0  0  0  0  0
  1  2  1  0
  1 13  1  0
  3  4  1  0
  3 16  1  0
  4  5  2  3
  5  6  1  0
  5  7  1  0
  8 20  1  0
  9 21  2  0
 10 23  1  0
 11 27  1  0
 12 13  2  0
 12 14  1  0
 12 15  1  0
 13 16  1  0
 14 17  1  0
 14 18  2  0
 15 19  2  0
 16 20  2  0
 17 21  1  0
 18 20  1  0
 19 21  1  0
 19 22  1  0
 22 23  2  0
 22 24  1  0
 23 25  1  0
 24 26  2  0
 25 27  2  0
 26 27  1  0
  2 28  1  0
  2 29  1  0
  2 30  1  0
  3 31  1  0
  3 32  1  0
  4 33  1  0
  6 34  1  0
  6 35  1  0
  6 36  1  0
  7 37  1  0
  7 38  1  0
  7 39  1  0
  8 40  1  0
 10 41  1  0
 11 42  1  0
 15 43  1  0
 18 44  1  0
 24 45  1  0
 25 46  1  0
 26 47  1  0
M  END
>  <Mol_ID>  (1) 
9841

>  <Formula>  (1) 
C21H20O6

>  <MolWeight>  (1) 
368.3799

>  <Cat>  (1) 
E2470

>  <Name>  (1) 
Glycycoumarin

>  <Synonyms>  (1) 
NA

>  <Target>  (1) 
IL-6, TNF-¦Á

>  <Form>  (1) 
Free Base

>  <CAS>  (1) 
94805-82-0

>  <URL>  (1) 
https://www.selleckchem.com/products/glycycoumarin.html

$$$$
