Homatropine bromide.cdx
     RDKit          3D

 43 44  0  0  0  0  0  0  0  0999 V2000
   -0.9105   -0.2388    0.4929 C   0  0  1  0  0  0  0  0  0  0  0  0
   -1.8890    0.6435    1.2305 C   0  0  0  0  0  0  0  0  0  0  0  0
   -1.4072   -0.7399   -0.8155 C   0  0  0  0  0  0  0  0  0  0  0  0
    0.2340    0.5673    0.2580 O   0  0  0  0  0  0  0  0  0  0  0  0
   -3.3179    0.4054    0.7546 C   0  0  2  0  0  0  0  0  0  0  0  0
   -2.8577   -1.1130   -0.8300 C   0  0  1  0  0  0  0  0  0  0  0  0
    1.4795    0.3016    0.8120 C   0  0  0  0  0  0  0  0  0  0  0  0
   -3.4129   -1.0127    0.4984 N   0  0  0  0  0  0  0  0  0  0  0  0
   -3.4717    1.1203   -0.5472 C   0  0  0  0  0  0  0  0  0  0  0  0
   -3.6108   -0.0124   -1.5525 C   0  0  0  0  0  0  0  0  0  0  0  0
    2.6435    1.1724    0.5369 C   0  0  1  0  0  0  0  0  0  0  0  0
    1.5399   -0.7255    1.5574 O   0  0  0  0  0  0  0  0  0  0  0  0
   -4.7661   -1.5183    0.5507 C   0  0  0  0  0  0  0  0  0  0  0  0
    3.7943    0.4985   -0.0820 C   0  0  0  0  0  0  0  0  0  0  0  0
    2.2038    2.2373   -0.2760 O   0  0  0  0  0  0  0  0  0  0  0  0
    3.9507   -0.8607   -0.2020 C   0  0  0  0  0  0  0  0  0  0  0  0
    4.8070    1.2922   -0.5859 C   0  0  0  0  0  0  0  0  0  0  0  0
    5.0668   -1.4237   -0.7980 C   0  0  0  0  0  0  0  0  0  0  0  0
    5.9143    0.7357   -1.1773 C   0  0  0  0  0  0  0  0  0  0  0  0
    6.0748   -0.6199   -1.2992 C   0  0  0  0  0  0  0  0  0  0  0  0
    0.7595    0.0000    0.0000 Br  0  0  0  0  0  0  0  0  0  0  0  0
   -0.7045   -1.0950    1.1601 H   0  0  0  0  0  0  0  0  0  0  0  0
   -1.6511    1.7234    1.1579 H   0  0  0  0  0  0  0  0  0  0  0  0
   -1.9135    0.4107    2.3327 H   0  0  0  0  0  0  0  0  0  0  0  0
   -1.1539   -0.0293   -1.6340 H   0  0  0  0  0  0  0  0  0  0  0  0
   -0.8379   -1.6758   -1.0586 H   0  0  0  0  0  0  0  0  0  0  0  0
   -4.0417    0.7403    1.5241 H   0  0  0  0  0  0  0  0  0  0  0  0
   -3.0404   -2.1059   -1.2861 H   0  0  0  0  0  0  0  0  0  0  0  0
   -2.5655    1.6920   -0.8498 H   0  0  0  0  0  0  0  0  0  0  0  0
   -4.3213    1.8271   -0.5727 H   0  0  0  0  0  0  0  0  0  0  0  0
   -3.0771    0.2055   -2.4877 H   0  0  0  0  0  0  0  0  0  0  0  0
   -4.6745   -0.2843   -1.7060 H   0  0  0  0  0  0  0  0  0  0  0  0
    2.9831    1.5649    1.5302 H   0  0  0  0  0  0  0  0  0  0  0  0
   -5.4822   -0.7139    0.7946 H   0  0  0  0  0  0  0  0  0  0  0  0
   -5.0533   -2.0603   -0.3897 H   0  0  0  0  0  0  0  0  0  0  0  0
   -4.8123   -2.2551    1.3831 H   0  0  0  0  0  0  0  0  0  0  0  0
    1.5095    2.7003    0.2320 H   0  0  0  0  0  0  0  0  0  0  0  0
    3.1915   -1.5288    0.1720 H   0  0  0  0  0  0  0  0  0  0  0  0
    4.7420    2.3819   -0.5213 H   0  0  0  0  0  0  0  0  0  0  0  0
    5.1822   -2.4913   -0.8883 H   0  0  0  0  0  0  0  0  0  0  0  0
    6.7142    1.3636   -1.5753 H   0  0  0  0  0  0  0  0  0  0  0  0
    6.9419   -1.0792   -1.7629 H   0  0  0  0  0  0  0  0  0  0  0  0
   -0.7595    0.0000    0.0000 H   0  0  0  0  0  0  0  0  0  0  0  0
  1  2  1  0
  1  3  1  0
  1  4  1  0
  4  7  1  0
  5  2  1  0
  5  8  1  0
  5  9  1  0
  6  3  1  0
  6 10  1  0
  6  8  1  0
  7 11  1  0
  7 12  2  0
  8 13  1  0
  9 10  1  0
 11 14  1  0
 11 15  1  0
 14 16  2  0
 14 17  1  0
 16 18  1  0
 17 19  2  0
 18 20  2  0
 19 20  1  0
  1 22  1  1
  2 23  1  0
  2 24  1  0
  3 25  1  0
  3 26  1  0
  5 27  1  1
  6 28  1  6
  9 29  1  0
  9 30  1  0
 10 31  1  0
 10 32  1  0
 11 33  1  1
 13 34  1  0
 13 35  1  0
 13 36  1  0
 15 37  1  0
 16 38  1  0
 17 39  1  0
 18 40  1  0
 19 41  1  0
 20 42  1  0
 21 43  1  0
M  END
>  <Mol_ID>  (1) 
1248

>  <Formula>  (1) 
C16H22BrNO3

>  <MolWeight>  (1) 
356.25478

>  <Cat>  (1) 
S4025

>  <Name>  (1) 
Homatropine Bromide

>  <Synonyms>  (1) 
N/A

>  <Target>  (1) 
AChR

>  <Form>  (1) 
quaternary-N bromide salt

>  <CAS>  (1) 
51-56-9

>  <URL>  (1) 
http://selleckchem.com/products/homatropine-bromide.html

$$$$
