HPPE
     RDKit          3D

 53 56  0  0  0  0  0  0  0  0999 V2000
   -1.6498    0.8908    0.3482 C   0  0  0  0  0  0  0  0  0  0  0  0
   -0.3912    1.3873    0.5545 N   0  0  0  0  0  0  0  0  0  0  0  0
    0.5252    0.4866    0.2398 C   0  0  0  0  0  0  0  0  0  0  0  0
   -0.1460   -0.6317   -0.1846 C   0  0  0  0  0  0  0  0  0  0  0  0
   -1.4635   -0.3512   -0.1059 N   0  0  0  0  0  0  0  0  0  0  0  0
    1.9049    0.5768    0.2987 C   0  0  0  0  0  0  0  0  0  0  0  0
    2.6054   -0.5424   -0.1006 C   0  0  0  0  0  0  0  0  0  0  0  0
    1.9465   -1.6743   -0.5298 C   0  0  0  0  0  0  0  0  0  0  0  0
    0.5651   -1.7216   -0.5729 C   0  0  0  0  0  0  0  0  0  0  0  0
    4.0597   -0.4629   -0.0442 C   0  0  0  0  0  0  0  0  0  0  0  0
    4.5856    0.6061    0.3605 O   0  0  0  0  0  0  0  0  0  0  0  0
    4.9039   -1.5331   -0.4240 N   0  0  0  0  0  0  0  0  0  0  0  0
   -2.8168    1.6449    0.6041 N   0  0  0  0  0  0  0  0  0  0  0  0
   -5.4463    2.6152    0.9128 S   0  0  0  0  0  0  0  0  0  0  0  0
   -4.1364    1.2740    0.4447 C   0  0  0  0  0  0  0  0  0  0  0  0
   -4.9015    0.3805    0.1038 N   0  0  0  0  0  0  0  0  0  0  0  0
   -6.1979    0.3401    0.0661 C   0  0  0  0  0  0  0  0  0  0  0  0
   -6.8403    1.4919    0.4766 C   0  0  0  0  0  0  0  0  0  0  0  0
   -7.0483   -0.7014   -0.3305 C   0  0  0  0  0  0  0  0  0  0  0  0
   -8.3978   -0.5027   -0.2816 C   0  0  0  0  0  0  0  0  0  0  0  0
   -9.0177    0.6539    0.1311 C   0  0  0  0  0  0  0  0  0  0  0  0
   -8.2138    1.7007    0.5288 C   0  0  0  0  0  0  0  0  0  0  0  0
  -10.4757    0.8507    0.1774 C   0  0  0  0  0  0  0  0  0  0  0  0
  -10.9533    1.1238    1.4444 F   0  0  0  0  0  0  0  0  0  0  0  0
  -10.7674    1.8836   -0.6923 F   0  0  0  0  0  0  0  0  0  0  0  0
  -11.1175   -0.2979   -0.2741 F   0  0  0  0  0  0  0  0  0  0  0  0
   -2.4874   -1.3018   -0.4753 C   0  0  0  0  0  0  0  0  0  0  0  0
    6.3481   -1.4303   -0.3581 C   0  0  0  0  0  0  0  0  0  0  0  0
    6.8553   -1.1640    1.0311 C   0  0  0  0  0  0  0  0  0  0  0  0
    8.2357   -1.0651    1.0987 O   0  0  0  0  0  0  0  0  0  0  0  0
    8.7678   -0.0530    0.3249 C   0  0  0  0  0  0  0  0  0  0  0  0
    8.2939    1.3214    0.6655 C   0  0  0  0  0  0  0  0  0  0  0  0
    8.8956    2.2794   -0.1811 O   0  0  0  0  0  0  0  0  0  0  0  0
    2.3780    1.4830    0.6413 H   0  0  0  0  0  0  0  0  0  0  0  0
    2.4723   -2.5460   -0.8411 H   0  0  0  0  0  0  0  0  0  0  0  0
    0.0713   -2.6076   -0.9084 H   0  0  0  0  0  0  0  0  0  0  0  0
    4.4914   -2.4292   -0.7636 H   0  0  0  0  0  0  0  0  0  0  0  0
   -2.6219    2.6390    0.9720 H   0  0  0  0  0  0  0  0  0  0  0  0
   -6.6430   -1.6495   -0.6706 H   0  0  0  0  0  0  0  0  0  0  0  0
   -9.0282   -1.3445   -0.6012 H   0  0  0  0  0  0  0  0  0  0  0  0
   -8.5793    2.6526    0.8710 H   0  0  0  0  0  0  0  0  0  0  0  0
   -3.0754   -1.6135    0.3941 H   0  0  0  0  0  0  0  0  0  0  0  0
   -1.9872   -2.2571   -0.8317 H   0  0  0  0  0  0  0  0  0  0  0  0
   -3.0751   -0.9924   -1.3688 H   0  0  0  0  0  0  0  0  0  0  0  0
    6.8203   -2.3773   -0.6865 H   0  0  0  0  0  0  0  0  0  0  0  0
    6.7144   -0.5623   -0.9799 H   0  0  0  0  0  0  0  0  0  0  0  0
    6.6018   -2.0951    1.6187 H   0  0  0  0  0  0  0  0  0  0  0  0
    6.3360   -0.3500    1.5563 H   0  0  0  0  0  0  0  0  0  0  0  0
    9.8746   -0.0605    0.5503 H   0  0  0  0  0  0  0  0  0  0  0  0
    8.7135   -0.2213   -0.7654 H   0  0  0  0  0  0  0  0  0  0  0  0
    7.1909    1.4404    0.6342 H   0  0  0  0  0  0  0  0  0  0  0  0
    8.5955    1.6261    1.6885 H   0  0  0  0  0  0  0  0  0  0  0  0
    8.7256    3.1912    0.1644 H   0  0  0  0  0  0  0  0  0  0  0  0
  1  2  2  0
  1  5  1  0
  1 13  1  0
  2  3  1  0
  3  4  2  0
  4  5  1  0
  5 27  1  0
  6  7  2  0
  6  3  1  0
  7  8  1  0
  7 10  1  0
  8  9  2  0
  9  4  1  0
 10 11  2  0
 10 12  1  0
 12 28  1  0
 13 15  1  0
 14 15  1  0
 14 18  1  0
 15 16  2  0
 16 17  1  0
 17 18  2  0
 19 20  2  0
 19 17  1  0
 20 21  1  0
 21 22  2  0
 21 23  1  0
 22 18  1  0
 23 24  1  0
 23 25  1  0
 23 26  1  0
 28 29  1  0
 29 30  1  0
 30 31  1  0
 31 32  1  0
 32 33  1  0
  6 34  1  0
  8 35  1  0
  9 36  1  0
 12 37  1  0
 13 38  1  0
 19 39  1  0
 20 40  1  0
 22 41  1  0
 27 42  1  0
 27 43  1  0
 27 44  1  0
 28 45  1  0
 28 46  1  0
 29 47  1  0
 29 48  1  0
 31 49  1  0
 31 50  1  0
 32 51  1  0
 32 52  1  0
 33 53  1  0
M  END
>  <Mol_ID>  (1) 
7521

>  <Formula>  (1) 
C21H20F3N5O3S

>  <MolWeight>  (1) 
479.4754096

>  <Cat>  (1) 
E1339

>  <Name>  (1) 
HPPE

>  <Target>  (1) 
Nrf2

>  <Form>  (1) 
free base

>  <CAS>  (1) 
1325721-55-8

>  <URL>  (1) 
https://www.selleckchem.com/products/hppe.html

$$$$
