Isoeugenol
     RDKit          3D

 24 24  0  0  0  0  0  0  0  0999 V2000
   -1.7435   -0.1445    0.2053 C   0  0  0  0  0  0  0  0  0  0  0  0
   -0.4243    0.1812   -0.0087 C   0  0  0  0  0  0  0  0  0  0  0  0
   -2.0624   -1.4861    0.4144 C   0  0  0  0  0  0  0  0  0  0  0  0
   -2.7816    0.7502    0.2302 O   0  0  0  0  0  0  0  0  0  0  0  0
    0.5867   -0.7528   -0.0253 C   0  0  0  0  0  0  0  0  0  0  0  0
   -1.0866   -2.4597    0.4075 C   0  0  0  0  0  0  0  0  0  0  0  0
   -3.3631   -1.8634    0.6324 O   0  0  0  0  0  0  0  0  0  0  0  0
   -2.6167    2.1430    0.0348 C   0  0  0  0  0  0  0  0  0  0  0  0
    0.2168   -2.0688    0.1874 C   0  0  0  0  0  0  0  0  0  0  0  0
    1.9847   -0.4316   -0.2491 C   0  0  0  0  0  0  0  0  0  0  0  0
    2.4325    0.7940   -0.4607 C   0  0  0  0  0  0  0  0  0  0  0  0
    3.8885    1.0500   -0.6840 C   0  0  0  0  0  0  0  0  0  0  0  0
   -0.2019    1.2257   -0.1681 H   0  0  0  0  0  0  0  0  0  0  0  0
   -1.3555   -3.5139    0.5742 H   0  0  0  0  0  0  0  0  0  0  0  0
   -3.9671   -2.0129   -0.1812 H   0  0  0  0  0  0  0  0  0  0  0  0
   -2.3186    2.5613    1.0191 H   0  0  0  0  0  0  0  0  0  0  0  0
   -3.5655    2.6381   -0.2442 H   0  0  0  0  0  0  0  0  0  0  0  0
   -1.8080    2.3597   -0.7069 H   0  0  0  0  0  0  0  0  0  0  0  0
    0.9732   -2.8383    0.1839 H   0  0  0  0  0  0  0  0  0  0  0  0
    2.7226   -1.2187   -0.2480 H   0  0  0  0  0  0  0  0  0  0  0  0
    1.7551    1.6295   -0.4758 H   0  0  0  0  0  0  0  0  0  0  0  0
    4.4406    0.1017   -0.8086 H   0  0  0  0  0  0  0  0  0  0  0  0
    4.0055    1.6562   -1.6229 H   0  0  0  0  0  0  0  0  0  0  0  0
    4.2884    1.6998    0.1201 H   0  0  0  0  0  0  0  0  0  0  0  0
  1  2  2  0
  1  3  1  0
  1  4  1  0
  2  5  1  0
  3  6  2  0
  3  7  1  0
  4  8  1  0
  5  9  2  0
  5 10  1  0
  6  9  1  0
 10 11  2  0
 11 12  1  0
  2 13  1  0
  6 14  1  0
  7 15  1  0
  8 16  1  0
  8 17  1  0
  8 18  1  0
  9 19  1  0
 10 20  1  0
 11 21  1  0
 12 22  1  0
 12 23  1  0
 12 24  1  0
M  END
>  <Mol_ID>  (1) 
3398

>  <Formula>  (1) 
C10H12O2

>  <MolWeight>  (1) 
164.20108

>  <Cat>  (1) 
S5757

>  <Name>  (1) 
Isoeugenol

>  <Synonyms>  (1) 
4-Propenylguaiacol

>  <Target>  (1) 
Anti-infection

>  <Form>  (1) 
Free Base

>  <CAS>  (1) 
97-54-1

>  <URL>  (1) 
http://www.selleckchem.com/products/isoeugenol.html

$$$$
