IWR-1(endo-IWR 1).cdx
     RDKit          3D

 53 58  0  0  0  0  0  0  0  0999 V2000
   -5.0966    1.0770   -0.3586 C   0  0  1  0  0  0  0  0  0  0  0  0
   -5.0945    1.1664    1.1560 C   0  0  2  0  0  0  0  0  0  0  0  0
   -3.6881    1.3823    1.5244 C   0  0  0  0  0  0  0  0  0  0  0  0
   -2.8485    1.0374    0.4290 N   0  0  0  0  0  0  0  0  0  0  0  0
   -3.6438    1.1846   -0.7407 C   0  0  0  0  0  0  0  0  0  0  0  0
   -5.6804   -0.2643   -0.6716 C   0  0  1  0  0  0  0  0  0  0  0  0
   -4.7100   -1.2827   -0.1760 C   0  0  0  0  0  0  0  0  0  0  0  0
   -4.7075   -1.2192    1.1598 C   0  0  0  0  0  0  0  0  0  0  0  0
   -5.6509   -0.1594    1.5565 C   0  0  2  0  0  0  0  0  0  0  0  0
   -3.2987    1.3745   -1.9310 O   0  0  0  0  0  0  0  0  0  0  0  0
   -3.3163    1.8082    2.6459 O   0  0  0  0  0  0  0  0  0  0  0  0
   -1.4953    0.6271    0.4549 C   0  0  0  0  0  0  0  0  0  0  0  0
   -0.7650    0.3131   -0.6754 C   0  0  0  0  0  0  0  0  0  0  0  0
    0.5549   -0.0862   -0.6356 C   0  0  0  0  0  0  0  0  0  0  0  0
    1.2152   -0.1920    0.5479 C   0  0  0  0  0  0  0  0  0  0  0  0
    0.5231    0.1125    1.7046 C   0  0  0  0  0  0  0  0  0  0  0  0
   -0.8147    0.5170    1.6625 C   0  0  0  0  0  0  0  0  0  0  0  0
    2.6042   -0.6045    0.6838 C   0  0  0  0  0  0  0  0  0  0  0  0
    3.1810   -0.6888    1.8211 O   0  0  0  0  0  0  0  0  0  0  0  0
    3.4063   -0.9394   -0.4370 N   0  0  0  0  0  0  0  0  0  0  0  0
    4.7737   -1.3469   -0.3206 C   0  0  0  0  0  0  0  0  0  0  0  0
    5.0941   -2.6886   -0.1718 C   0  0  0  0  0  0  0  0  0  0  0  0
    6.4205   -3.0646   -0.0608 C   0  0  0  0  0  0  0  0  0  0  0  0
    7.4196   -2.1326   -0.0956 C   0  0  0  0  0  0  0  0  0  0  0  0
    7.1028   -0.7867   -0.2447 C   0  0  0  0  0  0  0  0  0  0  0  0
    5.7747   -0.3854   -0.3582 C   0  0  0  0  0  0  0  0  0  0  0  0
    8.1496    0.1168   -0.2740 C   0  0  0  0  0  0  0  0  0  0  0  0
    7.8350    1.4564   -0.4223 C   0  0  0  0  0  0  0  0  0  0  0  0
    6.4942    1.8376   -0.5346 C   0  0  0  0  0  0  0  0  0  0  0  0
    5.5061    0.9252   -0.5011 N   0  0  0  0  0  0  0  0  0  0  0  0
   -5.8440    2.2266   -0.9870 C   0  0  0  0  0  0  0  0  0  0  0  0
   -6.7124   -0.3609    0.4656 C   0  0  0  0  0  0  0  0  0  0  0  0
   -5.7313    2.0109    1.5124 H   0  0  0  0  0  0  0  0  0  0  0  0
   -6.0890   -0.4214   -1.6464 H   0  0  0  0  0  0  0  0  0  0  0  0
   -4.1004   -1.9663   -0.7489 H   0  0  0  0  0  0  0  0  0  0  0  0
   -4.1262   -1.8261    1.8427 H   0  0  0  0  0  0  0  0  0  0  0  0
   -6.0482   -0.2243    2.5652 H   0  0  0  0  0  0  0  0  0  0  0  0
   -1.2242    0.3738   -1.6500 H   0  0  0  0  0  0  0  0  0  0  0  0
    1.0747   -0.3190   -1.5555 H   0  0  0  0  0  0  0  0  0  0  0  0
    1.0367    0.0338    2.6700 H   0  0  0  0  0  0  0  0  0  0  0  0
   -1.2608    0.7294    2.6159 H   0  0  0  0  0  0  0  0  0  0  0  0
    3.0245   -0.9011   -1.4077 H   0  0  0  0  0  0  0  0  0  0  0  0
    4.2874   -3.4032   -0.1474 H   0  0  0  0  0  0  0  0  0  0  0  0
    6.6476   -4.1079    0.0537 H   0  0  0  0  0  0  0  0  0  0  0  0
    8.4515   -2.4708   -0.0048 H   0  0  0  0  0  0  0  0  0  0  0  0
    9.1831   -0.1523   -0.1898 H   0  0  0  0  0  0  0  0  0  0  0  0
    8.5966    2.2331   -0.4553 H   0  0  0  0  0  0  0  0  0  0  0  0
    6.2720    2.9054   -0.6512 H   0  0  0  0  0  0  0  0  0  0  0  0
   -6.2538    1.8564   -1.9490 H   0  0  0  0  0  0  0  0  0  0  0  0
   -5.1362    3.0496   -1.1642 H   0  0  0  0  0  0  0  0  0  0  0  0
   -6.7052    2.5106   -0.3591 H   0  0  0  0  0  0  0  0  0  0  0  0
   -7.4286    0.4836    0.4326 H   0  0  0  0  0  0  0  0  0  0  0  0
   -7.1584   -1.3547    0.5481 H   0  0  0  0  0  0  0  0  0  0  0  0
  1  2  1  0
  1  6  1  0
  1 31  1  6
  2  3  1  0
  3  4  1  0
  3 11  2  0
  4  5  1  0
  4 12  1  0
  5  1  1  0
  5 10  2  0
  6  7  1  0
  6 32  1  0
  7  8  2  0
  9  8  1  0
  9  2  1  0
  9 32  1  0
 12 13  2  0
 13 14  1  0
 14 15  2  0
 15 16  1  0
 15 18  1  0
 16 17  2  0
 17 12  1  0
 18 19  2  0
 18 20  1  0
 20 21  1  0
 21 22  2  0
 22 23  1  0
 23 24  2  0
 24 25  1  0
 25 26  2  0
 25 27  1  0
 26 21  1  0
 27 28  2  0
 28 29  1  0
 29 30  2  0
 30 26  1  0
  2 33  1  6
  6 34  1  6
  7 35  1  0
  8 36  1  0
  9 37  1  1
 13 38  1  0
 14 39  1  0
 16 40  1  0
 17 41  1  0
 20 42  1  0
 22 43  1  0
 23 44  1  0
 24 45  1  0
 27 46  1  0
 28 47  1  0
 29 48  1  0
 31 49  1  0
 31 50  1  0
 31 51  1  0
 32 52  1  0
 32 53  1  0
M  END
>  <Mol_ID>  (1) 
2138

>  <Formula>  (1) 
C26H21N3O3

>  <MolWeight>  (1) 
423.46324

>  <Cat>  (1) 
S7086

>  <Name>  (1) 
IWR-1-endo

>  <Synonyms>  (1) 
endo-IWR 1, IWR-1

>  <Target>  (1) 
Wnt/beta-catenin

>  <Form>  (1) 
free base

>  <CAS>  (1) 
1127442-82-3

>  <URL>  (1) 
http://selleckchem.com/products/iwr-1-endo.html

$$$$
