JTE-013.cdx
     RDKit          3D

 46 48  0  0  0  0  0  0  0  0999 V2000
    1.8996   -0.2573   -1.6774 N   0  0  0  0  0  0  0  0  0  0  0  0
    0.6600    0.3126   -1.9287 N   0  0  0  0  0  0  0  0  0  0  0  0
    2.9065    0.2779   -0.8401 C   0  0  0  0  0  0  0  0  0  0  0  0
    2.6747    1.3631   -0.2697 O   0  0  0  0  0  0  0  0  0  0  0  0
    4.1126   -0.4119   -0.6778 N   0  0  0  0  0  0  0  0  0  0  0  0
   -2.2370   -1.4909   -0.8221 C   0  0  0  0  0  0  0  0  0  0  0  0
   -2.8149   -0.6526    0.1036 C   0  0  0  0  0  0  0  0  0  0  0  0
   -2.2573    0.5845    0.4157 C   0  0  0  0  0  0  0  0  0  0  0  0
   -1.0810    0.9071   -0.2749 C   0  0  0  0  0  0  0  0  0  0  0  0
   -0.5244    0.0502   -1.1966 C   0  0  0  0  0  0  0  0  0  0  0  0
   -1.1143   -1.1532   -1.4630 N   0  0  0  0  0  0  0  0  0  0  0  0
   -3.9720   -2.5126   -0.1324 N   0  0  0  0  0  0  0  0  0  0  0  0
   -2.9604   -2.6284   -0.9534 N   0  0  0  0  0  0  0  0  0  0  0  0
   -3.9436   -1.3260    0.5461 C   0  0  0  0  0  0  0  0  0  0  0  0
   -2.8699    1.4702    1.4148 C   0  0  0  0  0  0  0  0  0  0  0  0
   -1.8924    2.6539    1.5647 C   0  0  0  0  0  0  0  0  0  0  0  0
   -4.1628    2.1093    0.9665 C   0  0  0  0  0  0  0  0  0  0  0  0
   -4.9372   -0.8733    1.5395 C   0  0  0  0  0  0  0  0  0  0  0  0
   -2.6321   -3.7382   -1.8399 C   0  0  0  0  0  0  0  0  0  0  0  0
    6.4374    1.4493    1.5937 C   0  0  0  0  0  0  0  0  0  0  0  0
    5.3036    1.1370    0.8458 C   0  0  0  0  0  0  0  0  0  0  0  0
    5.2167   -0.0166    0.1094 C   0  0  0  0  0  0  0  0  0  0  0  0
    6.3304   -0.8512    0.1577 C   0  0  0  0  0  0  0  0  0  0  0  0
    7.4494   -0.5418    0.8963 C   0  0  0  0  0  0  0  0  0  0  0  0
    7.4812    0.6014    1.5997 N   0  0  0  0  0  0  0  0  0  0  0  0
    2.0770   -1.1847   -2.1764 H   0  0  0  0  0  0  0  0  0  0  0  0
    0.5999    0.9900   -2.7224 H   0  0  0  0  0  0  0  0  0  0  0  0
    4.2116   -1.3226   -1.1943 H   0  0  0  0  0  0  0  0  0  0  0  0
   -0.5959    1.8532   -0.0815 H   0  0  0  0  0  0  0  0  0  0  0  0
   -2.9033    1.0479    2.4425 H   0  0  0  0  0  0  0  0  0  0  0  0
   -0.9217    2.3450    1.9465 H   0  0  0  0  0  0  0  0  0  0  0  0
   -2.3785    3.2813    2.3699 H   0  0  0  0  0  0  0  0  0  0  0  0
   -1.8803    3.2824    0.6572 H   0  0  0  0  0  0  0  0  0  0  0  0
   -4.8606    2.0131    1.8434 H   0  0  0  0  0  0  0  0  0  0  0  0
   -4.0912    3.1814    0.7430 H   0  0  0  0  0  0  0  0  0  0  0  0
   -4.5821    1.6034    0.0704 H   0  0  0  0  0  0  0  0  0  0  0  0
   -4.5337   -0.5320    2.5004 H   0  0  0  0  0  0  0  0  0  0  0  0
   -5.5095   -1.8157    1.8285 H   0  0  0  0  0  0  0  0  0  0  0  0
   -5.7384   -0.2420    1.1020 H   0  0  0  0  0  0  0  0  0  0  0  0
   -3.5386   -4.1983   -2.2306 H   0  0  0  0  0  0  0  0  0  0  0  0
   -2.1051   -4.5325   -1.2362 H   0  0  0  0  0  0  0  0  0  0  0  0
   -1.9997   -3.4182   -2.6822 H   0  0  0  0  0  0  0  0  0  0  0  0
    6.5175    2.3555    2.1776 H   0  0  0  0  0  0  0  0  0  0  0  0
    4.5140    1.8371    0.8757 H   0  0  0  0  0  0  0  0  0  0  0  0
    6.3610   -1.7963   -0.3943 H   0  0  0  0  0  0  0  0  0  0  0  0
    8.2846   -1.2107    0.9062 H   0  0  0  0  0  0  0  0  0  0  0  0
  1  2  1  0
  1  3  1  0
  2 10  1  0
  3  4  2  0
  3  5  1  0
  5 22  1  0
  6  7  1  0
  6 11  2  0
  6 13  1  0
  7  8  2  0
  7 14  1  0
  8  9  1  0
  8 15  1  0
  9 10  2  0
 10 11  1  0
 12 13  1  0
 12 14  2  0
 13 19  1  0
 14 18  1  0
 15 16  1  0
 15 17  1  0
 20 21  2  0
 20 25  1  0
 21 22  1  0
 22 23  2  0
 23 24  1  0
 24 25  2  0
  1 26  1  0
  2 27  1  0
  5 28  1  0
  9 29  1  0
 15 30  1  0
 16 31  1  0
 16 32  1  0
 16 33  1  0
 17 34  1  0
 17 35  1  0
 17 36  1  0
 18 37  1  0
 18 38  1  0
 18 39  1  0
 19 40  1  0
 19 41  1  0
 19 42  1  0
 20 43  1  0
 21 44  1  0
 23 45  1  0
 24 46  1  0
M  END
>  <Mol_ID>  (1) 
2728

>  <Formula>  (1) 
C17H19Cl2N7O

>  <MolWeight>  (1) 
408.28506

>  <Cat>  (1) 
S7182

>  <Name>  (1) 
JTE 013

>  <Synonyms>  (1) 
N/A

>  <Target>  (1) 
S1P Receptor

>  <Form>  (1) 
free base

>  <CAS>  (1) 
383150-41-2

>  <URL>  (1) 
http://selleckchem.com/products/jte-013.html

$$$$
