L-Xylose
     RDKit          3D

 20 19  0  0  0  0  0  0  0  0999 V2000
   -0.4436    0.2902    0.3501 C   0  0  2  0  0  0  0  0  0  0  0  0
    0.6521   -0.7494    0.4480 C   0  0  2  0  0  0  0  0  0  0  0  0
   -1.5735   -0.3045   -0.4563 C   0  0  1  0  0  0  0  0  0  0  0  0
    0.0007    1.4261   -0.3198 O   0  0  0  0  0  0  0  0  0  0  0  0
    1.8080   -0.2603    1.2870 C   0  0  0  0  0  0  0  0  0  0  0  0
    1.0290   -1.0908   -0.8301 O   0  0  0  0  0  0  0  0  0  0  0  0
   -2.7556    0.6089   -0.4757 C   0  0  0  0  0  0  0  0  0  0  0  0
   -1.2010   -0.6699   -1.7403 O   0  0  0  0  0  0  0  0  0  0  0  0
    2.4351    0.8554    0.7866 O   0  0  0  0  0  0  0  0  0  0  0  0
   -3.2885    0.9580   -1.5283 O   0  0  0  0  0  0  0  0  0  0  0  0
   -0.8632    0.5485    1.3389 H   0  0  0  0  0  0  0  0  0  0  0  0
    0.2287   -1.6247    0.9935 H   0  0  0  0  0  0  0  0  0  0  0  0
   -1.8976   -1.2106    0.1037 H   0  0  0  0  0  0  0  0  0  0  0  0
    0.6802    1.2398   -0.9911 H   0  0  0  0  0  0  0  0  0  0  0  0
    2.5577   -1.0704    1.3932 H   0  0  0  0  0  0  0  0  0  0  0  0
    1.4790   -0.0238    2.3162 H   0  0  0  0  0  0  0  0  0  0  0  0
    2.0123   -1.2450   -0.9118 H   0  0  0  0  0  0  0  0  0  0  0  0
   -3.1234    0.9514    0.4872 H   0  0  0  0  0  0  0  0  0  0  0  0
   -0.6250   -0.0191   -2.1865 H   0  0  0  0  0  0  0  0  0  0  0  0
    2.8888    0.7391   -0.0646 H   0  0  0  0  0  0  0  0  0  0  0  0
  1  3  1  0
  1  4  1  0
  2  6  1  0
  2  5  1  0
  2  1  1  0
  3  7  1  0
  3  8  1  0
  5  9  1  0
  7 10  2  0
  1 11  1  1
  2 12  1  1
  3 13  1  1
  4 14  1  0
  5 15  1  0
  5 16  1  0
  6 17  1  0
  7 18  1  0
  8 19  1  0
  9 20  1  0
M  END
>  <Mol_ID>  (1) 
3453

>  <Formula>  (1) 
C5H10O5

>  <MolWeight>  (1) 
150.1299

>  <Cat>  (1) 
S5830

>  <Name>  (1) 
L-Xylose

>  <Synonyms>  (1) 
N/A

>  <Target>  (1) 
Others

>  <Form>  (1) 
Free Base

>  <CAS>  (1) 
609-06-3

>  <URL>  (1) 
http://www.selleckchem.com/products/l-xylose.html

$$$$
