LY364947.cdx
     RDKit          3D

 33 36  0  0  0  0  0  0  0  0999 V2000
   -2.1446   -1.0740   -2.3444 N   0  0  0  0  0  0  0  0  0  0  0  0
   -1.2012   -1.9735   -2.0549 C   0  0  0  0  0  0  0  0  0  0  0  0
   -0.5150   -1.8898   -0.8456 C   0  0  0  0  0  0  0  0  0  0  0  0
   -0.7680   -0.9089    0.0771 C   0  0  0  0  0  0  0  0  0  0  0  0
   -1.7553    0.0138   -0.2515 C   0  0  0  0  0  0  0  0  0  0  0  0
   -2.0763    1.0415    0.6237 C   0  0  0  0  0  0  0  0  0  0  0  0
   -3.0697    1.9474    0.2602 C   0  0  0  0  0  0  0  0  0  0  0  0
   -3.7348    1.8439   -0.9415 C   0  0  0  0  0  0  0  0  0  0  0  0
   -3.4200    0.8139   -1.8293 C   0  0  0  0  0  0  0  0  0  0  0  0
   -2.4328   -0.0770   -1.4562 C   0  0  0  0  0  0  0  0  0  0  0  0
    0.2838   -0.8356    3.5188 N   0  0  0  0  0  0  0  0  0  0  0  0
    1.4076   -0.4420    2.9363 N   0  0  0  0  0  0  0  0  0  0  0  0
    1.2283   -0.3964    1.5964 C   0  0  0  0  0  0  0  0  0  0  0  0
   -0.0714   -0.7819    1.3497 C   0  0  0  0  0  0  0  0  0  0  0  0
   -0.6706   -1.0607    2.5683 C   0  0  0  0  0  0  0  0  0  0  0  0
    2.2410   -0.0033    0.6296 C   0  0  0  0  0  0  0  0  0  0  0  0
    2.7746   -0.8291   -0.3207 C   0  0  0  0  0  0  0  0  0  0  0  0
    3.7352   -0.3336   -1.1895 C   0  0  0  0  0  0  0  0  0  0  0  0
    4.1587    0.9835   -1.1056 C   0  0  0  0  0  0  0  0  0  0  0  0
    3.5958    1.7799   -0.1348 C   0  0  0  0  0  0  0  0  0  0  0  0
    2.6655    1.2848    0.7000 N   0  0  0  0  0  0  0  0  0  0  0  0
   -0.9879   -2.7602   -2.7776 H   0  0  0  0  0  0  0  0  0  0  0  0
    0.2273   -2.6296   -0.6511 H   0  0  0  0  0  0  0  0  0  0  0  0
   -1.5633    1.1398    1.5745 H   0  0  0  0  0  0  0  0  0  0  0  0
   -3.3610    2.7739    0.9084 H   0  0  0  0  0  0  0  0  0  0  0  0
   -4.5108    2.5284   -1.2573 H   0  0  0  0  0  0  0  0  0  0  0  0
   -3.9456    0.7238   -2.7887 H   0  0  0  0  0  0  0  0  0  0  0  0
    0.1464   -0.9565    4.5521 H   0  0  0  0  0  0  0  0  0  0  0  0
   -1.6789   -1.3894    2.7812 H   0  0  0  0  0  0  0  0  0  0  0  0
    2.4534   -1.8369   -0.3843 H   0  0  0  0  0  0  0  0  0  0  0  0
    4.1965   -0.9318   -1.9620 H   0  0  0  0  0  0  0  0  0  0  0  0
    4.8989    1.4137   -1.7531 H   0  0  0  0  0  0  0  0  0  0  0  0
    3.8944    2.8219   -0.0280 H   0  0  0  0  0  0  0  0  0  0  0  0
  1  2  2  0
  1 10  1  0
  2  3  1  0
  3  4  2  0
  4  5  1  0
  4 14  1  0
  5  6  1  0
  5 10  2  0
  6  7  2  0
  7  8  1  0
  8  9  2  0
  9 10  1  0
 11 12  1  0
 11 15  1  0
 12 13  2  0
 13 14  1  0
 13 16  1  0
 14 15  2  0
 16 17  2  0
 16 21  1  0
 17 18  1  0
 18 19  2  0
 19 20  1  0
 20 21  2  0
  2 22  1  0
  3 23  1  0
  6 24  1  0
  7 25  1  0
  8 26  1  0
  9 27  1  0
 11 28  1  0
 15 29  1  0
 17 30  1  0
 18 31  1  0
 19 32  1  0
 20 33  1  0
M  END
>  <Mol_ID>  (1) 
8187

>  <Formula>  (1) 
C17H12N4

>  <MolWeight>  (1) 
272.30398

>  <Cat>  (1) 
S2805

>  <Name>  (1) 
LY364947

>  <Synonyms>  (1) 
HTS 466284

>  <Target>  (1) 
Casein Kinase,Mixed Lineage Kinase,RIP kinase,TGF-beta/Smad

>  <Form>  (1) 
Free Base

>  <CAS>  (1) 
396129-53-6

>  <URL>  (1) 
http://selleckchem.com/products/ly364947.html

$$$$
