Methyl methanesulfonate
     RDKit          3D

 12 11  0  0  0  0  0  0  0  0999 V2000
    1.8916    0.2962   -0.0328 C   0  0  0  0  0  0  0  0  0  0  0  0
    0.3726   -0.5830    0.1478 S   0  0  0  0  0  0  0  0  0  0  0  0
    0.4587   -1.7128    1.1178 O   0  0  0  0  0  0  0  0  0  0  0  0
    0.0045   -1.1577   -1.2066 O   0  0  0  0  0  0  0  0  0  0  0  0
   -0.8205    0.4851    0.6942 O   0  0  0  0  0  0  0  0  0  0  0  0
   -1.9231    0.3242   -0.1550 C   0  0  0  0  0  0  0  0  0  0  0  0
    1.6843    1.3969   -0.0444 H   0  0  0  0  0  0  0  0  0  0  0  0
    2.6030    0.1216    0.7996 H   0  0  0  0  0  0  0  0  0  0  0  0
    2.3769    0.0799   -1.0118 H   0  0  0  0  0  0  0  0  0  0  0  0
   -2.4439    1.2886   -0.2641 H   0  0  0  0  0  0  0  0  0  0  0  0
   -1.6301   -0.1110   -1.1377 H   0  0  0  0  0  0  0  0  0  0  0  0
   -2.5741   -0.4279    0.3579 H   0  0  0  0  0  0  0  0  0  0  0  0
  1  2  1  0
  2  3  2  0
  2  4  2  0
  2  5  1  0
  5  6  1  0
  1  7  1  0
  1  8  1  0
  1  9  1  0
  6 10  1  0
  6 11  1  0
  6 12  1  0
M  END
>  <Mol_ID>  (1) 
6309

>  <Formula>  (1) 
C2H6O3S

>  <MolWeight>  (1) 
110.13224

>  <Cat>  (1) 
E0609

>  <Name>  (1) 
Methyl methanesulfonate

>  <Synonyms>  (1) 
MMS

>  <Target>  (1) 
DNA alkylator

>  <Form>  (1) 
free base

>  <CAS>  (1) 
66-27-3

>  <URL>  (1) 
http://www.selleckchem.com/products/methyl-methanesulfonate.html

$$$$
