MMP-9-IN-1
     RDKit          3D

 42 43  0  0  0  0  0  0  0  0999 V2000
    1.3782   -1.0514   -0.7711 S   0  0  0  0  0  0  0  0  0  0  0  0
   -8.7258   -0.0229   -2.7496 F   0  0  0  0  0  0  0  0  0  0  0  0
   -9.5079    0.5667   -0.7143 F   0  0  0  0  0  0  0  0  0  0  0  0
   -7.3533    1.0844   -1.3310 O   0  0  0  0  0  0  0  0  0  0  0  0
    4.6016   -3.8861    1.7347 O   0  0  0  0  0  0  0  0  0  0  0  0
   -1.3395   -0.4509   -1.4104 O   0  0  0  0  0  0  0  0  0  0  0  0
    3.8573   -0.3207    0.1954 N   0  0  0  0  0  0  0  0  0  0  0  0
    3.1823   -2.5258    0.5944 N   0  0  0  0  0  0  0  0  0  0  0  0
   -2.2040    0.1968    0.6761 N   0  0  0  0  0  0  0  0  0  0  0  0
    6.0603    0.5278    0.9886 C   0  0  0  0  0  0  0  0  0  0  0  0
    5.5474    1.7883    0.3229 C   0  0  0  0  0  0  0  0  0  0  0  0
    5.0274   -0.5272    0.8336 C   0  0  0  0  0  0  0  0  0  0  0  0
    5.3069    1.4893   -1.1253 C   0  0  0  0  0  0  0  0  0  0  0  0
    5.3147   -1.7690    1.3834 C   0  0  0  0  0  0  0  0  0  0  0  0
    2.9350   -1.3007    0.0696 C   0  0  0  0  0  0  0  0  0  0  0  0
    4.3541   -2.7477    1.2384 C   0  0  0  0  0  0  0  0  0  0  0  0
   -3.5117    0.4442    0.1600 C   0  0  0  0  0  0  0  0  0  0  0  0
    0.1679   -0.4884    0.4258 C   0  0  0  0  0  0  0  0  0  0  0  0
   -1.1714   -0.2537   -0.1960 C   0  0  0  0  0  0  0  0  0  0  0  0
   -3.9034    1.6730   -0.3299 C   0  0  0  0  0  0  0  0  0  0  0  0
   -4.3963   -0.5988    0.1623 C   0  0  0  0  0  0  0  0  0  0  0  0
   -6.1131    0.8008   -0.8273 C   0  0  0  0  0  0  0  0  0  0  0  0
   -5.1841    1.8474   -0.8156 C   0  0  0  0  0  0  0  0  0  0  0  0
   -5.6906   -0.4052   -0.3336 C   0  0  0  0  0  0  0  0  0  0  0  0
   -8.3771    0.1462   -1.4063 C   0  0  0  0  0  0  0  0  0  0  0  0
    2.4861   -3.3053    0.5125 H   0  0  0  0  0  0  0  0  0  0  0  0
   -2.0481    0.3603    1.7053 H   0  0  0  0  0  0  0  0  0  0  0  0
    6.1689    0.7546    2.0587 H   0  0  0  0  0  0  0  0  0  0  0  0
    7.0049    0.2091    0.4980 H   0  0  0  0  0  0  0  0  0  0  0  0
    4.6041    2.1014    0.8017 H   0  0  0  0  0  0  0  0  0  0  0  0
    6.2794    2.6271    0.4694 H   0  0  0  0  0  0  0  0  0  0  0  0
    5.4982    0.4083   -1.3781 H   0  0  0  0  0  0  0  0  0  0  0  0
    4.2618    1.6965   -1.3909 H   0  0  0  0  0  0  0  0  0  0  0  0
    5.9721    2.0704   -1.7913 H   0  0  0  0  0  0  0  0  0  0  0  0
    6.2474   -1.9472    1.8966 H   0  0  0  0  0  0  0  0  0  0  0  0
    0.4773    0.4301    0.9806 H   0  0  0  0  0  0  0  0  0  0  0  0
    0.0376   -1.2676    1.1859 H   0  0  0  0  0  0  0  0  0  0  0  0
   -3.2010    2.5013   -0.3317 H   0  0  0  0  0  0  0  0  0  0  0  0
   -4.1127   -1.5722    0.5413 H   0  0  0  0  0  0  0  0  0  0  0  0
   -5.4507    2.8259   -1.1902 H   0  0  0  0  0  0  0  0  0  0  0  0
   -6.3341   -1.2448   -0.3084 H   0  0  0  0  0  0  0  0  0  0  0  0
   -8.1460   -0.8646   -1.0341 H   0  0  0  0  0  0  0  0  0  0  0  0
  1 15  1  0
  1 18  1  0
  2 25  1  0
  3 25  1  0
  4 22  1  0
  4 25  1  0
  5 16  2  0
  6 19  2  0
  7 12  1  0
  7 15  2  0
  8 15  1  0
  8 16  1  0
  9 17  1  0
  9 19  1  0
 10 11  1  0
 10 12  1  0
 11 13  1  0
 12 14  2  0
 14 16  1  0
 17 20  2  0
 17 21  1  0
 18 19  1  0
 20 23  1  0
 21 24  2  0
 22 23  2  0
 22 24  1  0
  8 26  1  0
  9 27  1  0
 10 28  1  0
 10 29  1  0
 11 30  1  0
 11 31  1  0
 13 32  1  0
 13 33  1  0
 13 34  1  0
 14 35  1  0
 18 36  1  0
 18 37  1  0
 20 38  1  0
 21 39  1  0
 23 40  1  0
 24 41  1  0
 25 42  1  0
M  END
>  <Mol_ID>  (1) 
4993

>  <Formula>  (1) 
C16H17F2N3O3S

>  <MolWeight>  (1) 
369.3862864

>  <Cat>  (1) 
S0769

>  <Name>  (1) 
MMP-9-IN-1

>  <Synonyms>  (1) 
OUN87710

>  <Target>  (1) 
MMP

>  <Form>  (1) 
Free Base

>  <CAS>  (1) 
502887-71-0

>  <URL>  (1) 
http://www.selleckchem.com/products/mmp-9-in-1.html

$$$$
