S3777 Gentiopicroside.cdx
     RDKit          3D

 45 47  0  0  0  0  0  0  0  0999 V2000
    3.0280   -0.2076   -0.1803 C   0  0  0  0  0  0  0  0  0  0  0  0
    1.8926    0.5569   -0.7170 C   0  0  2  0  0  0  0  0  0  0  0  0
    3.1128   -1.6460   -0.3642 C   0  0  0  0  0  0  0  0  0  0  0  0
    3.9816    0.4292    0.4776 C   0  0  0  0  0  0  0  0  0  0  0  0
    0.7304   -0.3589   -0.9978 C   0  0  2  0  0  0  0  0  0  0  0  0
    2.3208    1.3127   -1.9018 C   0  0  0  0  0  0  0  0  0  0  0  0
    2.1768   -2.3454   -1.0215 C   0  0  0  0  0  0  0  0  0  0  0  0
    4.2531   -2.3456    0.1855 C   0  0  0  0  0  0  0  0  0  0  0  0
    5.1679   -0.2214    1.0624 C   0  0  0  0  0  0  0  0  0  0  0  0
    0.0509   -0.5715    0.1889 O   0  0  0  0  0  0  0  0  0  0  0  0
    1.1144   -1.6065   -1.5189 O   0  0  0  0  0  0  0  0  0  0  0  0
    3.5354    1.2308   -2.4188 C   0  0  0  0  0  0  0  0  0  0  0  0
    5.2059   -1.6059    0.8596 O   0  0  0  0  0  0  0  0  0  0  0  0
    4.3353   -3.5882    0.0318 O   0  0  0  0  0  0  0  0  0  0  0  0
   -1.2353   -0.1014    0.1459 C   0  0  2  0  0  0  0  0  0  0  0  0
   -1.4263    0.8465    1.1317 O   0  0  0  0  0  0  0  0  0  0  0  0
   -2.2821   -1.1767    0.3561 C   0  0  1  0  0  0  0  0  0  0  0  0
   -2.7066    1.3602    1.1808 C   0  0  1  0  0  0  0  0  0  0  0  0
   -3.5446   -0.5829   -0.2201 C   0  0  2  0  0  0  0  0  0  0  0  0
   -1.9309   -2.3907   -0.1960 O   0  0  0  0  0  0  0  0  0  0  0  0
   -3.6212    0.8575    0.1164 C   0  0  2  0  0  0  0  0  0  0  0  0
   -3.2899    1.3006    2.5795 C   0  0  0  0  0  0  0  0  0  0  0  0
   -4.6799   -1.3027    0.0982 O   0  0  0  0  0  0  0  0  0  0  0  0
   -3.4552    1.6441   -1.0465 O   0  0  0  0  0  0  0  0  0  0  0  0
   -4.6007    1.8279    2.6209 O   0  0  0  0  0  0  0  0  0  0  0  0
    1.5338    1.2674    0.0828 H   0  0  0  0  0  0  0  0  0  0  0  0
    3.8896    1.4976    0.5970 H   0  0  0  0  0  0  0  0  0  0  0  0
    0.0801    0.1533   -1.7406 H   0  0  0  0  0  0  0  0  0  0  0  0
    1.5752    1.9747   -2.3659 H   0  0  0  0  0  0  0  0  0  0  0  0
    2.2864   -3.4081   -1.1302 H   0  0  0  0  0  0  0  0  0  0  0  0
    6.0518    0.2384    0.5604 H   0  0  0  0  0  0  0  0  0  0  0  0
    5.1942    0.0430    2.1445 H   0  0  0  0  0  0  0  0  0  0  0  0
    4.2700    0.5814   -1.9651 H   0  0  0  0  0  0  0  0  0  0  0  0
    3.7951    1.8114   -3.2936 H   0  0  0  0  0  0  0  0  0  0  0  0
   -1.3903    0.3404   -0.8707 H   0  0  0  0  0  0  0  0  0  0  0  0
   -2.3519   -1.3398    1.4499 H   0  0  0  0  0  0  0  0  0  0  0  0
   -2.5717    2.4599    0.9896 H   0  0  0  0  0  0  0  0  0  0  0  0
   -3.4257   -0.7022   -1.3372 H   0  0  0  0  0  0  0  0  0  0  0  0
   -2.7468   -2.8557   -0.5065 H   0  0  0  0  0  0  0  0  0  0  0  0
   -4.6741    1.0899    0.4502 H   0  0  0  0  0  0  0  0  0  0  0  0
   -3.3779    0.2872    2.9795 H   0  0  0  0  0  0  0  0  0  0  0  0
   -2.6752    1.9952    3.2034 H   0  0  0  0  0  0  0  0  0  0  0  0
   -5.4256   -0.6599    0.2032 H   0  0  0  0  0  0  0  0  0  0  0  0
   -3.5761    1.1251   -1.8612 H   0  0  0  0  0  0  0  0  0  0  0  0
   -4.5945    2.7858    2.8989 H   0  0  0  0  0  0  0  0  0  0  0  0
  1  2  1  0
  1  3  1  0
  1  4  2  0
  2  5  1  0
  2  6  1  0
  3  7  2  0
  3  8  1  0
  4  9  1  0
  5 11  1  0
  5 10  1  0
  6 12  2  0
  7 11  1  0
  8 13  1  0
  8 14  2  0
  9 13  1  0
 15 16  1  0
 15 17  1  0
 15 10  1  0
 16 18  1  0
 17 19  1  0
 17 20  1  0
 18 21  1  0
 18 22  1  0
 19 23  1  0
 19 21  1  0
 21 24  1  0
 22 25  1  0
  2 26  1  1
  4 27  1  0
  5 28  1  6
  6 29  1  0
  7 30  1  0
  9 31  1  0
  9 32  1  0
 12 33  1  0
 12 34  1  0
 15 35  1  6
 17 36  1  1
 18 37  1  6
 19 38  1  6
 20 39  1  0
 21 40  1  1
 22 41  1  0
 22 42  1  0
 23 43  1  0
 24 44  1  0
 25 45  1  0
M  END
>  <Mol_ID>  (1) 
1802

>  <Formula>  (1) 
C16H20O9

>  <MolWeight>  (1) 
356.3246

>  <Cat>  (1) 
S3777

>  <Name>  (1) 
Gentiopicroside

>  <Synonyms>  (1) 
Gentiopicrin

>  <Target>  (1) 
P450 (e.g. CYP17)

>  <Form>  (1) 
free base

>  <CAS>  (1) 
20831-76-9

>  <URL>  (1) 
http://selleckchem.com/products/gentiopicroside.html

$$$$
