S4866 Nicarbazin.cdx
     RDKit          3D

 49 50  0  0  0  0  0  0  0  0999 V2000
    2.4321   -0.6048   -0.1064 C   0  0  0  0  0  0  0  0  0  0  0  0
    1.1378   -1.0918   -0.4031 N   0  0  0  0  0  0  0  0  0  0  0  0
    2.7329    0.5679    0.5023 C   0  0  0  0  0  0  0  0  0  0  0  0
    3.5168   -1.4102   -0.4761 C   0  0  0  0  0  0  0  0  0  0  0  0
   -0.0756   -0.4556   -0.1245 C   0  0  0  0  0  0  0  0  0  0  0  0
    4.0410    0.9558    0.7489 C   0  0  0  0  0  0  0  0  0  0  0  0
    4.8126   -1.0304   -0.2340 C   0  0  0  0  0  0  0  0  0  0  0  0
   -1.3205   -1.0783   -0.4884 N   0  0  0  0  0  0  0  0  0  0  0  0
   -0.1387    0.6406    0.4316 O   0  0  0  0  0  0  0  0  0  0  0  0
    5.1118    0.1655    0.3864 C   0  0  0  0  0  0  0  0  0  0  0  0
   -2.5711   -0.4553   -0.2180 C   0  0  0  0  0  0  0  0  0  0  0  0
    6.4547    0.5605    0.6380 N   0  0  0  0  0  0  0  0  0  0  0  0
   -3.2432   -0.6811    0.9804 C   0  0  0  0  0  0  0  0  0  0  0  0
   -3.1146    0.3867   -1.1735 C   0  0  0  0  0  0  0  0  0  0  0  0
    6.6610    1.6389    1.1951 O   0  0  0  0  0  0  0  0  0  0  0  0
    7.4644   -0.2618    0.2569 O   0  0  0  0  0  0  0  0  0  0  0  0
   -4.4569   -0.0597    1.2112 C   0  0  0  0  0  0  0  0  0  0  0  0
   -4.3290    1.0044   -0.9348 C   0  0  0  0  0  0  0  0  0  0  0  0
   -5.0138    0.7857    0.2647 C   0  0  0  0  0  0  0  0  0  0  0  0
   -6.2655    1.4144    0.5255 N   0  0  0  0  0  0  0  0  0  0  0  0
   -6.7502    2.1720   -0.3392 O   0  0  0  0  0  0  0  0  0  0  0  0
   -6.9243    1.1770    1.7305 O   0  0  0  0  0  0  0  0  0  0  0  0
    1.2045    0.0330   -0.0726 C   0  0  0  0  0  0  0  0  0  0  0  0
    0.1694   -0.8729    0.0473 C   0  0  0  0  0  0  0  0  0  0  0  0
    0.9513    1.3439   -0.2468 N   0  0  0  0  0  0  0  0  0  0  0  0
    2.6083   -0.4999   -0.0013 C   0  0  0  0  0  0  0  0  0  0  0  0
   -1.1266   -0.3741   -0.0194 C   0  0  0  0  0  0  0  0  0  0  0  0
   -0.3045    1.8302   -0.3118 C   0  0  0  0  0  0  0  0  0  0  0  0
   -1.3076    0.9477   -0.1949 N   0  0  0  0  0  0  0  0  0  0  0  0
   -2.3223   -1.2586    0.0976 C   0  0  0  0  0  0  0  0  0  0  0  0
   -0.5875    3.1782   -0.4908 O   0  0  0  0  0  0  0  0  0  0  0  0
    1.0606   -2.0403   -0.8892 H   0  0  0  0  0  0  0  0  0  0  0  0
    1.9697    1.2300    0.8110 H   0  0  0  0  0  0  0  0  0  0  0  0
    3.3710   -2.3687   -0.9698 H   0  0  0  0  0  0  0  0  0  0  0  0
    4.2501    1.8945    1.2350 H   0  0  0  0  0  0  0  0  0  0  0  0
    5.6188   -1.6788   -0.5341 H   0  0  0  0  0  0  0  0  0  0  0  0
   -1.3547   -2.0090   -0.9638 H   0  0  0  0  0  0  0  0  0  0  0  0
   -2.7780   -1.3493    1.6996 H   0  0  0  0  0  0  0  0  0  0  0  0
   -2.5855    0.5616   -2.1115 H   0  0  0  0  0  0  0  0  0  0  0  0
   -4.9827   -0.2335    2.1434 H   0  0  0  0  0  0  0  0  0  0  0  0
   -4.7311    1.6532   -1.6904 H   0  0  0  0  0  0  0  0  0  0  0  0
    0.3331   -1.9423    0.1893 H   0  0  0  0  0  0  0  0  0  0  0  0
    3.0820   -0.5698   -1.0066 H   0  0  0  0  0  0  0  0  0  0  0  0
    3.1939    0.2208    0.5981 H   0  0  0  0  0  0  0  0  0  0  0  0
    2.6076   -1.4774    0.5153 H   0  0  0  0  0  0  0  0  0  0  0  0
   -3.1963   -0.7356   -0.3420 H   0  0  0  0  0  0  0  0  0  0  0  0
   -2.1428   -2.2471   -0.3404 H   0  0  0  0  0  0  0  0  0  0  0  0
   -2.5206   -1.3151    1.2087 H   0  0  0  0  0  0  0  0  0  0  0  0
   -0.6418    3.7390    0.3703 H   0  0  0  0  0  0  0  0  0  0  0  0
  1  2  1  0
  1  3  2  0
  1  4  1  0
  2  5  1  0
  3  6  1  0
  4  7  2  0
  5  9  2  0
  5  8  1  0
  6 10  2  0
  7 10  1  0
  8 11  1  0
 10 12  1  0
 11 13  2  0
 11 14  1  0
 12 15  2  0
 12 16  1  0
 13 17  1  0
 14 18  2  0
 17 19  2  0
 18 19  1  0
 19 20  1  0
 20 21  2  0
 20 22  1  0
 23 24  2  0
 23 25  1  0
 23 26  1  0
 24 27  1  0
 25 28  2  0
 27 29  2  0
 27 30  1  0
 28 31  1  0
 28 29  1  0
  2 32  1  0
  3 33  1  0
  4 34  1  0
  6 35  1  0
  7 36  1  0
  8 37  1  0
 13 38  1  0
 14 39  1  0
 17 40  1  0
 18 41  1  0
 24 42  1  0
 26 43  1  0
 26 44  1  0
 26 45  1  0
 30 46  1  0
 30 47  1  0
 30 48  1  0
 31 49  1  0
M  CHG  4  12   1  16  -1  20   1  22  -1
M  END
>  <Mol_ID>  (1) 
2099

>  <Formula>  (1) 
C19H18N6O6

>  <MolWeight>  (1) 
426.38282

>  <Cat>  (1) 
S4866

>  <Name>  (1) 
Nicarbazin

>  <Synonyms>  (1) 
N/A

>  <Target>  (1) 
Parasite

>  <Form>  (1) 
salt

>  <CAS>  (1) 
330-95-0

>  <URL>  (1) 
http://selleckchem.com/products/nicarbazin.html

$$$$
