S4860 Indole-3-carboxylic acid.cdx
     RDKit          3D

 19 20  0  0  0  0  0  0  0  0999 V2000
   -0.0072   -0.1939   -0.0907 C   0  0  0  0  0  0  0  0  0  0  0  0
   -0.9724    0.7215    0.3031 C   0  0  0  0  0  0  0  0  0  0  0  0
    1.1961    0.4744    0.0245 C   0  0  0  0  0  0  0  0  0  0  0  0
   -0.3152   -1.4772   -0.4927 C   0  0  0  0  0  0  0  0  0  0  0  0
   -0.3699    1.8843    0.6381 N   0  0  0  0  0  0  0  0  0  0  0  0
   -2.3021    0.2973    0.2811 C   0  0  0  0  0  0  0  0  0  0  0  0
    0.9681    1.7464    0.4711 C   0  0  0  0  0  0  0  0  0  0  0  0
    2.4991   -0.0975   -0.2847 C   0  0  0  0  0  0  0  0  0  0  0  0
   -1.6429   -1.8996   -0.5143 C   0  0  0  0  0  0  0  0  0  0  0  0
   -2.5997   -0.9896   -0.1231 C   0  0  0  0  0  0  0  0  0  0  0  0
    3.6573    0.6553   -0.1372 O   0  0  0  0  0  0  0  0  0  0  0  0
    2.6230   -1.2811   -0.6923 O   0  0  0  0  0  0  0  0  0  0  0  0
    0.4361   -2.1893   -0.7991 H   0  0  0  0  0  0  0  0  0  0  0  0
   -0.8355    2.7575    0.9727 H   0  0  0  0  0  0  0  0  0  0  0  0
   -3.0635    1.0095    0.5884 H   0  0  0  0  0  0  0  0  0  0  0  0
    1.7022    2.5293    0.6670 H   0  0  0  0  0  0  0  0  0  0  0  0
   -1.8843   -2.9052   -0.8294 H   0  0  0  0  0  0  0  0  0  0  0  0
   -3.6385   -1.2805   -0.1267 H   0  0  0  0  0  0  0  0  0  0  0  0
    4.5492    0.2384    0.1443 H   0  0  0  0  0  0  0  0  0  0  0  0
  1  2  2  0
  1  3  1  0
  1  4  1  0
  2  5  1  0
  2  6  1  0
  3  7  2  0
  3  8  1  0
  4  9  2  0
  5  7  1  0
  6 10  2  0
  8 11  1  0
  8 12  2  0
  9 10  1  0
  4 13  1  0
  5 14  1  0
  6 15  1  0
  7 16  1  0
  9 17  1  0
 10 18  1  0
 11 19  1  0
M  END
>  <Mol_ID>  (1) 
2063

>  <Formula>  (1) 
C9H7NO2

>  <MolWeight>  (1) 
161.15738

>  <Cat>  (1) 
S4860

>  <Name>  (1) 
Indole-3-carboxylic acid

>  <Synonyms>  (1) 
3-Indoleformic acid, 3-Carboxyindole, ¦Â-Indolylcarboxylic acid, 3-indolecarboxylate, 3-indoleformate

>  <Target>  (1) 
Others

>  <Form>  (1) 
Aromatic carboxylic acids

>  <CAS>  (1) 
771-50-6

>  <URL>  (1) 
http://selleckchem.com/products/indole-carboxylic-acid.html

$$$$
