S5467 Asarinin.cdx
     RDKit          3D

 44 49  0  0  0  0  0  0  0  0999 V2000
    7.1083   -0.5659    0.4141 C   0  0  0  0  0  0  0  0  0  0  0  0
    6.8264    0.4242    1.4015 O   0  0  0  0  0  0  0  0  0  0  0  0
    5.4813    0.7611    1.3111 C   0  0  0  0  0  0  0  0  0  0  0  0
    4.6055    1.4240    2.1331 C   0  0  0  0  0  0  0  0  0  0  0  0
    3.2920    1.6094    1.7596 C   0  0  0  0  0  0  0  0  0  0  0  0
    2.7931    1.1380    0.5416 C   0  0  0  0  0  0  0  0  0  0  0  0
    3.7022    0.4748   -0.2621 C   0  0  0  0  0  0  0  0  0  0  0  0
    5.0278    0.2880    0.1153 C   0  0  0  0  0  0  0  0  0  0  0  0
    6.0856   -0.3407   -0.5359 O   0  0  0  0  0  0  0  0  0  0  0  0
    1.4108    1.3434    0.1691 C   0  0  1  0  0  0  0  0  0  0  0  0
    1.1872    1.7708   -1.1350 O   0  0  0  0  0  0  0  0  0  0  0  0
   -0.2003    2.0333   -1.0542 C   0  0  0  0  0  0  0  0  0  0  0  0
   -0.7874    0.8995   -0.2317 C   0  0  2  0  0  0  0  0  0  0  0  0
    0.4876    0.1673    0.2214 C   0  0  1  0  0  0  0  0  0  0  0  0
    0.6424   -0.7851   -0.9346 C   0  0  0  0  0  0  0  0  0  0  0  0
   -0.6356   -1.1447   -1.3477 O   0  0  0  0  0  0  0  0  0  0  0  0
   -1.4617   -0.0585   -1.1386 C   0  0  1  0  0  0  0  0  0  0  0  0
   -2.8246   -0.4391   -0.6777 C   0  0  0  0  0  0  0  0  0  0  0  0
   -2.9624   -1.4041    0.3273 C   0  0  0  0  0  0  0  0  0  0  0  0
   -4.2304   -1.7644    0.7626 C   0  0  0  0  0  0  0  0  0  0  0  0
   -5.3659   -1.1709    0.2046 C   0  0  0  0  0  0  0  0  0  0  0  0
   -6.7208   -1.3363    0.4425 O   0  0  0  0  0  0  0  0  0  0  0  0
   -7.4286   -0.2565   -0.1676 C   0  0  0  0  0  0  0  0  0  0  0  0
   -6.4876    0.1808   -1.1384 O   0  0  0  0  0  0  0  0  0  0  0  0
   -5.2131   -0.2243   -0.7821 C   0  0  0  0  0  0  0  0  0  0  0  0
   -3.9688    0.1424   -1.2228 C   0  0  0  0  0  0  0  0  0  0  0  0
    8.0948   -0.3778   -0.0919 H   0  0  0  0  0  0  0  0  0  0  0  0
    7.0809   -1.5566    0.8853 H   0  0  0  0  0  0  0  0  0  0  0  0
    4.9702    1.8047    3.0951 H   0  0  0  0  0  0  0  0  0  0  0  0
    2.6476    2.1473    2.4641 H   0  0  0  0  0  0  0  0  0  0  0  0
    3.4100    0.0769   -1.2173 H   0  0  0  0  0  0  0  0  0  0  0  0
    0.9732    2.1232    0.8295 H   0  0  0  0  0  0  0  0  0  0  0  0
   -0.5886    2.0239   -2.0987 H   0  0  0  0  0  0  0  0  0  0  0  0
   -0.4280    2.9763   -0.5495 H   0  0  0  0  0  0  0  0  0  0  0  0
   -1.3730    1.2478    0.6157 H   0  0  0  0  0  0  0  0  0  0  0  0
    0.3633   -0.3018    1.1993 H   0  0  0  0  0  0  0  0  0  0  0  0
    1.1461   -1.7356   -0.6549 H   0  0  0  0  0  0  0  0  0  0  0  0
    1.1005   -0.2524   -1.7808 H   0  0  0  0  0  0  0  0  0  0  0  0
   -1.6106    0.4056   -2.1575 H   0  0  0  0  0  0  0  0  0  0  0  0
   -2.0900   -1.8709    0.7672 H   0  0  0  0  0  0  0  0  0  0  0  0
   -4.3386   -2.5186    1.5481 H   0  0  0  0  0  0  0  0  0  0  0  0
   -8.3820   -0.5512   -0.6114 H   0  0  0  0  0  0  0  0  0  0  0  0
   -7.5146    0.5525    0.5900 H   0  0  0  0  0  0  0  0  0  0  0  0
   -3.8242    0.8945   -2.0079 H   0  0  0  0  0  0  0  0  0  0  0  0
  1  2  1  0
  1  9  1  0
  2  3  1  0
  3  4  2  0
  3  8  1  0
  4  5  1  0
  5  6  2  0
  6  7  1  0
  7  8  2  0
  8  9  1  0
 10 11  1  0
 10 14  1  0
 10  6  1  0
 11 12  1  0
 13 12  1  0
 13 14  1  0
 13 17  1  0
 14 15  1  0
 15 16  1  0
 16 17  1  0
 17 18  1  0
 18 19  2  0
 18 26  1  0
 19 20  1  0
 20 21  2  0
 21 22  1  0
 21 25  1  0
 22 23  1  0
 23 24  1  0
 24 25  1  0
 25 26  2  0
  1 27  1  0
  1 28  1  0
  4 29  1  0
  5 30  1  0
  7 31  1  0
 10 32  1  1
 12 33  1  0
 12 34  1  0
 13 35  1  1
 14 36  1  1
 15 37  1  0
 15 38  1  0
 17 39  1  6
 19 40  1  0
 20 41  1  0
 23 42  1  0
 23 43  1  0
 26 44  1  0
M  END
>  <Mol_ID>  (1) 
3034

>  <Formula>  (1) 
C20H18O6

>  <MolWeight>  (1) 
354.35332

>  <Cat>  (1) 
S5467

>  <Name>  (1) 
Asarinin

>  <Synonyms>  (1) 
Sesamin, Fagarol, Pseudocubebin, Episesamin, Eleutheroside B4

>  <Target>  (1) 
Others

>  <Form>  (1) 
free base

>  <CAS>  (1) 
133-04-0

>  <URL>  (1) 
http://selleckchem.com/products/asarinin.html

$$$$
