S5661 Tiaprofenic acid.cdx
     RDKit          3D

 30 31  0  0  0  0  0  0  0  0999 V2000
   -0.2004   -0.3392    0.1843 C   0  0  0  0  0  0  0  0  0  0  0  0
    1.3747   -0.7952    0.7721 S   0  0  0  0  0  0  0  0  0  0  0  0
   -1.4197   -0.8795    0.7475 C   0  0  0  0  0  0  0  0  0  0  0  0
    0.0598    0.5314   -0.8247 C   0  0  0  0  0  0  0  0  0  0  0  0
    2.3022    0.1955   -0.3527 C   0  0  0  0  0  0  0  0  0  0  0  0
   -2.7605   -0.4677    0.4660 C   0  0  0  0  0  0  0  0  0  0  0  0
   -1.2854   -1.8335    1.5922 O   0  0  0  0  0  0  0  0  0  0  0  0
    1.3392    0.8098   -1.1047 C   0  0  0  0  0  0  0  0  0  0  0  0
    3.7855    0.3202   -0.4462 C   0  0  1  0  0  0  0  0  0  0  0  0
   -3.7635   -1.4387    0.5624 C   0  0  0  0  0  0  0  0  0  0  0  0
   -3.1792    0.7932    0.1272 C   0  0  0  0  0  0  0  0  0  0  0  0
    4.2422    0.9603    0.8136 C   0  0  0  0  0  0  0  0  0  0  0  0
    4.3532   -1.0509   -0.6339 C   0  0  0  0  0  0  0  0  0  0  0  0
   -5.0912   -1.1405    0.3291 C   0  0  0  0  0  0  0  0  0  0  0  0
   -4.5077    1.0922   -0.1066 C   0  0  0  0  0  0  0  0  0  0  0  0
    5.6037    1.1866    0.9672 O   0  0  0  0  0  0  0  0  0  0  0  0
    3.4441    1.2943    1.7231 O   0  0  0  0  0  0  0  0  0  0  0  0
   -5.4734    0.1310   -0.0082 C   0  0  0  0  0  0  0  0  0  0  0  0
   -0.7789    0.9874   -1.4041 H   0  0  0  0  0  0  0  0  0  0  0  0
    1.6400    1.5123   -1.9147 H   0  0  0  0  0  0  0  0  0  0  0  0
    3.9941    1.0185   -1.2549 H   0  0  0  0  0  0  0  0  0  0  0  0
   -3.5142   -2.4587    0.8258 H   0  0  0  0  0  0  0  0  0  0  0  0
   -2.4781    1.5896    0.0471 H   0  0  0  0  0  0  0  0  0  0  0  0
    4.8582   -1.4032    0.2859 H   0  0  0  0  0  0  0  0  0  0  0  0
    3.5536   -1.7961   -0.8853 H   0  0  0  0  0  0  0  0  0  0  0  0
    5.0462   -1.0567   -1.4919 H   0  0  0  0  0  0  0  0  0  0  0  0
   -5.8360   -1.9345    0.4172 H   0  0  0  0  0  0  0  0  0  0  0  0
   -4.7990    2.0997   -0.3724 H   0  0  0  0  0  0  0  0  0  0  0  0
    5.9973    1.6835    1.7470 H   0  0  0  0  0  0  0  0  0  0  0  0
   -6.5070    0.3886   -0.1958 H   0  0  0  0  0  0  0  0  0  0  0  0
  1  2  1  0
  1  3  1  0
  1  4  2  0
  2  5  1  0
  3  6  1  0
  3  7  2  0
  4  8  1  0
  5  9  1  0
  5  8  2  0
  6 10  2  0
  6 11  1  0
  9 12  1  0
  9 13  1  0
 10 14  1  0
 11 15  2  0
 12 16  1  0
 12 17  2  0
 14 18  2  0
 15 18  1  0
  4 19  1  0
  8 20  1  0
  9 21  1  6
 10 22  1  0
 11 23  1  0
 13 24  1  0
 13 25  1  0
 13 26  1  0
 14 27  1  0
 15 28  1  0
 16 29  1  0
 18 30  1  0
M  END
>  <Mol_ID>  (1) 
3297

>  <Formula>  (1) 
C14H12O3S

>  <MolWeight>  (1) 
260.30828

>  <Cat>  (1) 
S5661

>  <Name>  (1) 
Tiaprofenic acid

>  <Synonyms>  (1) 
Tiaprofensaeure, Acido tiaprofenico

>  <Target>  (1) 
Immunology & Inflammation related

>  <Form>  (1) 
free base

>  <CAS>  (1) 
33005-95-7

>  <URL>  (1) 
http://selleckchem.com/products/tiaprofenic-acid.html

$$$$
