SBP-3264
     RDKit          3D

 46 49  0  0  0  0  0  0  0  0999 V2000
    0.2093    2.0464   -1.5577 N   0  0  0  0  0  0  0  0  0  0  0  0
   -0.2520    3.2275   -2.0095 C   0  0  0  0  0  0  0  0  0  0  0  0
   -1.5095    3.6425   -1.8061 N   0  0  0  0  0  0  0  0  0  0  0  0
   -2.3136    2.8093   -1.1150 C   0  0  0  0  0  0  0  0  0  0  0  0
   -1.8660    1.5795   -0.6350 C   0  0  0  0  0  0  0  0  0  0  0  0
   -0.5760    1.1765   -0.8533 C   0  0  0  0  0  0  0  0  0  0  0  0
   -3.6079    2.9476   -0.7528 N   0  0  0  0  0  0  0  0  0  0  0  0
   -3.9890    1.8481   -0.0639 C   0  0  0  0  0  0  0  0  0  0  0  0
   -2.8968    0.9749    0.0160 C   0  0  0  0  0  0  0  0  0  0  0  0
   -0.0021   -0.0273   -0.3786 N   0  0  0  0  0  0  0  0  0  0  0  0
   -3.0130   -0.3236    0.6571 C   0  0  0  0  0  0  0  0  0  0  0  0
    0.1474   -0.3009    1.0668 C   0  0  0  0  0  0  0  0  0  0  0  0
    1.6440   -0.2378    1.3812 C   0  0  0  0  0  0  0  0  0  0  0  0
    2.4221   -0.3968    0.1055 C   0  0  0  0  0  0  0  0  0  0  0  0
    1.8548   -1.5458   -0.6748 C   0  0  0  0  0  0  0  0  0  0  0  0
    0.5074   -1.0756   -1.2489 C   0  0  0  0  0  0  0  0  0  0  0  0
   -2.7609   -1.5208   -0.0000 C   0  0  0  0  0  0  0  0  0  0  0  0
   -2.8735   -2.7294    0.6389 C   0  0  0  0  0  0  0  0  0  0  0  0
   -3.2468   -2.7377    1.9640 C   0  0  0  0  0  0  0  0  0  0  0  0
   -3.5084   -1.5601    2.6578 C   0  0  0  0  0  0  0  0  0  0  0  0
   -3.3859   -0.3600    1.9855 C   0  0  0  0  0  0  0  0  0  0  0  0
    3.8449   -0.5288    0.3386 N   0  0  0  0  0  0  0  0  0  0  0  0
    4.8060    0.3940   -0.1757 C   0  0  0  0  0  0  0  0  0  0  0  0
    4.5187    1.3881   -0.8649 O   0  0  0  0  0  0  0  0  0  0  0  0
    6.2552    0.1680    0.1225 C   0  0  0  0  0  0  0  0  0  0  0  0
    0.3932    3.9070   -2.5703 H   0  0  0  0  0  0  0  0  0  0  0  0
   -4.1872    3.7905   -0.9894 H   0  0  0  0  0  0  0  0  0  0  0  0
   -4.9756    1.6930    0.3456 H   0  0  0  0  0  0  0  0  0  0  0  0
   -0.3440    0.4677    1.6685 H   0  0  0  0  0  0  0  0  0  0  0  0
   -0.2268   -1.2871    1.3519 H   0  0  0  0  0  0  0  0  0  0  0  0
    1.9187    0.7488    1.8247 H   0  0  0  0  0  0  0  0  0  0  0  0
    1.8464   -0.9861    2.1429 H   0  0  0  0  0  0  0  0  0  0  0  0
    2.2984    0.5155   -0.5127 H   0  0  0  0  0  0  0  0  0  0  0  0
    1.6969   -2.4175   -0.0291 H   0  0  0  0  0  0  0  0  0  0  0  0
    2.5085   -1.8470   -1.5282 H   0  0  0  0  0  0  0  0  0  0  0  0
    0.6553   -0.6861   -2.2721 H   0  0  0  0  0  0  0  0  0  0  0  0
   -0.1682   -1.9349   -1.1920 H   0  0  0  0  0  0  0  0  0  0  0  0
   -2.4771   -1.4168   -1.0475 H   0  0  0  0  0  0  0  0  0  0  0  0
   -2.6730   -3.6341    0.1078 H   0  0  0  0  0  0  0  0  0  0  0  0
   -3.3551   -3.6666    2.5322 H   0  0  0  0  0  0  0  0  0  0  0  0
   -3.8039   -1.5994    3.7124 H   0  0  0  0  0  0  0  0  0  0  0  0
   -3.5958    0.5387    2.5513 H   0  0  0  0  0  0  0  0  0  0  0  0
    4.1730   -1.3496    0.9169 H   0  0  0  0  0  0  0  0  0  0  0  0
    6.7164   -0.4581   -0.6726 H   0  0  0  0  0  0  0  0  0  0  0  0
    6.8284    1.1124    0.1771 H   0  0  0  0  0  0  0  0  0  0  0  0
    6.3632   -0.3479    1.1076 H   0  0  0  0  0  0  0  0  0  0  0  0
  1  2  2  0
  2  3  1  0
  3  4  2  0
  4  5  1  0
  4  7  1  0
  5  6  2  0
  6  1  1  0
  6 10  1  0
  7  8  1  0
  8  9  2  0
  9  5  1  0
  9 11  1  0
 10 12  1  0
 11 17  2  0
 12 13  1  0
 13 14  1  0
 14 15  1  0
 14 22  1  0
 15 16  1  0
 16 10  1  0
 17 18  1  0
 18 19  2  0
 19 20  1  0
 20 21  2  0
 21 11  1  0
 22 23  1  0
 23 24  2  0
 23 25  1  0
  2 26  1  0
  7 27  1  0
  8 28  1  0
 12 29  1  0
 12 30  1  0
 13 31  1  0
 13 32  1  0
 14 33  1  0
 15 34  1  0
 15 35  1  0
 16 36  1  0
 16 37  1  0
 17 38  1  0
 18 39  1  0
 19 40  1  0
 20 41  1  0
 21 42  1  0
 22 43  1  0
 25 44  1  0
 25 45  1  0
 25 46  1  0
M  END
>  <Mol_ID>  (1) 
6392

>  <Formula>  (1) 
C19H20ClN5O

>  <MolWeight>  (1) 
369.848

>  <Cat>  (1) 
E1065

>  <Name>  (1) 
SBP-3264

>  <Target>  (1) 
Serine/threonin kinase

>  <Form>  (1) 
free base

>  <URL>  (1) 
http://www.selleckchem.com/products/sbp-3264.html

$$$$
