STING agonist-1 (G10)
     RDKit          3D

 45 48  0  0  0  0  0  0  0  0999 V2000
   -2.0127    4.3218   -0.6438 S   0  0  0  0  0  0  0  0  0  0  0  0
   -5.3173   -0.7678   -0.7753 F   0  0  0  0  0  0  0  0  0  0  0  0
   -4.5695    1.9142   -0.8124 O   0  0  0  0  0  0  0  0  0  0  0  0
    2.1793   -0.9386   -0.8369 O   0  0  0  0  0  0  0  0  0  0  0  0
    3.8852   -2.5937    0.5479 O   0  0  0  0  0  0  0  0  0  0  0  0
   -2.3907    1.2476   -1.2043 N   0  0  0  0  0  0  0  0  0  0  0  0
    3.7455    0.6341   -0.3052 N   0  0  0  0  0  0  0  0  0  0  0  0
   -1.0550    1.7097   -0.8905 C   0  0  0  0  0  0  0  0  0  0  0  0
   -2.5737   -0.1665   -1.4847 C   0  0  0  0  0  0  0  0  0  0  0  0
   -0.7427    3.0213   -0.6163 C   0  0  0  0  0  0  0  0  0  0  0  0
   -3.4395    2.1955   -1.2384 C   0  0  0  0  0  0  0  0  0  0  0  0
    0.0252    0.8292   -0.8709 C   0  0  0  0  0  0  0  0  0  0  0  0
   -3.2813    3.5974   -1.7802 C   0  0  0  0  0  0  0  0  0  0  0  0
   -2.9518   -1.0272   -0.3567 C   0  0  0  0  0  0  0  0  0  0  0  0
    1.3193    1.2685   -0.5882 C   0  0  0  0  0  0  0  0  0  0  0  0
    0.5321    3.4656   -0.3360 C   0  0  0  0  0  0  0  0  0  0  0  0
    1.5841    2.5791   -0.3199 C   0  0  0  0  0  0  0  0  0  0  0  0
    2.4014    0.2916   -0.5842 C   0  0  0  0  0  0  0  0  0  0  0  0
   -2.0374   -1.6491    0.4876 C   0  0  0  0  0  0  0  0  0  0  0  0
   -4.2922   -1.2449   -0.0120 C   0  0  0  0  0  0  0  0  0  0  0  0
    4.7865   -0.3877   -0.3155 C   0  0  0  0  0  0  0  0  0  0  0  0
   -2.4325   -2.4173    1.5803 C   0  0  0  0  0  0  0  0  0  0  0  0
   -4.6772   -2.0046    1.0703 C   0  0  0  0  0  0  0  0  0  0  0  0
   -3.7571   -2.6101    1.8940 C   0  0  0  0  0  0  0  0  0  0  0  0
    4.5384   -1.4655    0.6736 C   0  0  0  0  0  0  0  0  0  0  0  0
    5.0127   -1.4041    1.9755 C   0  0  0  0  0  0  0  0  0  0  0  0
    4.5881   -2.5673    2.5797 C   0  0  0  0  0  0  0  0  0  0  0  0
    3.8786   -3.2938    1.6459 C   0  0  0  0  0  0  0  0  0  0  0  0
    4.0251    1.5976   -0.0905 H   0  0  0  0  0  0  0  0  0  0  0  0
   -1.7260   -0.5943   -2.0581 H   0  0  0  0  0  0  0  0  0  0  0  0
   -3.4206   -0.2085   -2.2573 H   0  0  0  0  0  0  0  0  0  0  0  0
   -0.0686   -0.2095   -1.0945 H   0  0  0  0  0  0  0  0  0  0  0  0
   -4.1872    4.1722   -1.6426 H   0  0  0  0  0  0  0  0  0  0  0  0
   -2.9141    3.5443   -2.8111 H   0  0  0  0  0  0  0  0  0  0  0  0
    0.7335    4.5089   -0.1242 H   0  0  0  0  0  0  0  0  0  0  0  0
    2.5543    2.9711   -0.0966 H   0  0  0  0  0  0  0  0  0  0  0  0
   -0.9709   -1.5878    0.3551 H   0  0  0  0  0  0  0  0  0  0  0  0
    5.7805    0.0372   -0.1298 H   0  0  0  0  0  0  0  0  0  0  0  0
    4.8474   -0.8361   -1.3465 H   0  0  0  0  0  0  0  0  0  0  0  0
   -1.6890   -2.8977    2.2316 H   0  0  0  0  0  0  0  0  0  0  0  0
   -5.7222   -2.1582    1.3204 H   0  0  0  0  0  0  0  0  0  0  0  0
   -4.0105   -3.2126    2.7506 H   0  0  0  0  0  0  0  0  0  0  0  0
    5.5934   -0.6098    2.4206 H   0  0  0  0  0  0  0  0  0  0  0  0
    4.8154   -2.7940    3.6116 H   0  0  0  0  0  0  0  0  0  0  0  0
    3.4133   -4.2600    1.8151 H   0  0  0  0  0  0  0  0  0  0  0  0
  1 10  1  0
  1 13  1  0
  2 20  1  0
  3 11  2  0
  4 18  2  0
  5 25  1  0
  5 28  1  0
  6  8  1  0
  6  9  1  0
  6 11  1  0
  7 18  1  0
  7 21  1  0
  8 10  2  0
  8 12  1  0
  9 14  1  0
 10 16  1  0
 11 13  1  0
 12 15  2  0
 14 19  2  0
 14 20  1  0
 15 17  1  0
 15 18  1  0
 16 17  2  0
 19 22  1  0
 20 23  2  0
 21 25  1  0
 22 24  2  0
 23 24  1  0
 25 26  2  0
 26 27  1  0
 27 28  2  0
  7 29  1  0
  9 30  1  0
  9 31  1  0
 12 32  1  0
 13 33  1  0
 13 34  1  0
 16 35  1  0
 17 36  1  0
 19 37  1  0
 21 38  1  0
 21 39  1  0
 22 40  1  0
 23 41  1  0
 24 42  1  0
 26 43  1  0
 27 44  1  0
 28 45  1  0
M  END
>  <Mol_ID>  (1) 
4959

>  <Formula>  (1) 
C21H16ClFN2O3S

>  <MolWeight>  (1) 
430.8797432

>  <Cat>  (1) 
S8954

>  <Name>  (1) 
STING agonist-1 (G10)

>  <Synonyms>  (1) 
N/A

>  <Target>  (1) 
IFN,STING

>  <Form>  (1) 
Free Base

>  <CAS>  (1) 
702662-50-8

>  <URL>  (1) 
http://www.selleckchem.com/products/sting-agonist-1-g10.html

$$$$
