Urolithin B
     RDKit          3D

 24 26  0  0  0  0  0  0  0  0999 V2000
    0.3179    2.0307   -0.8159 O   0  0  0  0  0  0  0  0  0  0  0  0
    4.5822    0.3753    0.1856 O   0  0  0  0  0  0  0  0  0  0  0  0
   -1.6251    2.9352   -1.3361 O   0  0  0  0  0  0  0  0  0  0  0  0
   -0.8574   -0.2635    0.0767 C   0  0  0  0  0  0  0  0  0  0  0  0
    0.5078   -0.1271    0.1142 C   0  0  0  0  0  0  0  0  0  0  0  0
   -1.5831    0.7970   -0.4246 C   0  0  0  0  0  0  0  0  0  0  0  0
    1.0466    1.0447   -0.3460 C   0  0  0  0  0  0  0  0  0  0  0  0
    1.2929   -1.1450    0.6016 C   0  0  0  0  0  0  0  0  0  0  0  0
   -1.4650   -1.4135    0.5229 C   0  0  0  0  0  0  0  0  0  0  0  0
   -0.9848    1.9529   -0.8740 C   0  0  0  0  0  0  0  0  0  0  0  0
    2.4251    1.2658   -0.3436 C   0  0  0  0  0  0  0  0  0  0  0  0
   -2.9643    0.7448   -0.4990 C   0  0  0  0  0  0  0  0  0  0  0  0
    2.6755   -0.9436    0.6127 C   0  0  0  0  0  0  0  0  0  0  0  0
    3.1982    0.2411    0.1458 C   0  0  0  0  0  0  0  0  0  0  0  0
   -2.8475   -1.4795    0.4543 C   0  0  0  0  0  0  0  0  0  0  0  0
   -3.5618   -0.4117   -0.0494 C   0  0  0  0  0  0  0  0  0  0  0  0
    5.2301   -0.3837   -0.0391 H   0  0  0  0  0  0  0  0  0  0  0  0
    0.9509   -2.0774    0.9739 H   0  0  0  0  0  0  0  0  0  0  0  0
   -0.9625   -2.2677    0.9209 H   0  0  0  0  0  0  0  0  0  0  0  0
    2.8599    2.1902   -0.7060 H   0  0  0  0  0  0  0  0  0  0  0  0
   -3.5637    1.5468   -0.8817 H   0  0  0  0  0  0  0  0  0  0  0  0
    3.3290   -1.7315    0.9931 H   0  0  0  0  0  0  0  0  0  0  0  0
   -3.3607   -2.3797    0.8009 H   0  0  0  0  0  0  0  0  0  0  0  0
   -4.6401   -0.5007   -0.0869 H   0  0  0  0  0  0  0  0  0  0  0  0
  1  7  1  0
  1 10  1  0
  2 14  1  0
  3 10  2  0
  4  5  1  0
  4  6  2  0
  4  9  1  0
  5  7  2  0
  5  8  1  0
  6 10  1  0
  6 12  1  0
  7 11  1  0
  8 13  2  0
  9 15  2  0
 11 14  2  0
 12 16  2  0
 13 14  1  0
 15 16  1  0
  2 17  1  0
  8 18  1  0
  9 19  1  0
 11 20  1  0
 12 21  1  0
 13 22  1  0
 15 23  1  0
 16 24  1  0
M  END
>  <Mol_ID>  (1) 
5419

>  <Formula>  (1) 
C13H8O3

>  <MolWeight>  (1) 
212.20082

>  <Cat>  (1) 
S1321

>  <Name>  (1) 
Urolithin B

>  <Synonyms>  (1) 
N/A

>  <Target>  (1) 
Akt,AMPK,ERK,I¦ÊB/IKK,JNK,NF-¦ÊB

>  <Form>  (1) 
Free Base

>  <CAS>  (1) 
1139-83-9

>  <URL>  (1) 
https://www.selleckchem.com/products/urolithin-b.html

$$$$
