WAY-623904
     RDKit          3D

 34 36  0  0  0  0  0  0  0  0999 V2000
   -1.6748   -0.3276   -0.4632 N   0  0  0  0  0  0  0  0  0  0  0  0
   -2.5491   -1.2179    0.2057 C   0  0  0  0  0  0  0  0  0  0  0  0
   -2.4775    0.7315   -0.9990 C   0  0  0  0  0  0  0  0  0  0  0  0
   -3.8814    0.4881   -0.6518 C   0  0  0  0  0  0  0  0  0  0  0  0
   -3.9207   -0.6935    0.0779 C   0  0  0  0  0  0  0  0  0  0  0  0
    4.3234    0.2786    0.7633 C   0  0  0  0  0  0  0  0  0  0  0  0
    2.9854    0.5193    1.0996 N   0  0  0  0  0  0  0  0  0  0  0  0
   -0.2455   -0.4437   -0.5937 C   0  0  0  0  0  0  0  0  0  0  0  0
    4.7441   -0.3595   -0.2550 N   0  0  0  0  0  0  0  0  0  0  0  0
    1.9527    0.0391    0.2786 C   0  0  0  0  0  0  0  0  0  0  0  0
    0.5008    0.2447    0.5535 C   0  0  0  0  0  0  0  0  0  0  0  0
    5.7986    0.8217    1.6735 S   0  0  0  0  0  0  0  0  0  0  0  0
   -2.2274   -2.2798    0.8110 O   0  0  0  0  0  0  0  0  0  0  0  0
   -2.0604    1.7146   -1.6603 O   0  0  0  0  0  0  0  0  0  0  0  0
    2.2393   -0.6094   -0.7619 O   0  0  0  0  0  0  0  0  0  0  0  0
   -5.0701    1.1553   -0.8929 C   0  0  0  0  0  0  0  0  0  0  0  0
   -5.1401   -1.1855    0.5514 C   0  0  0  0  0  0  0  0  0  0  0  0
    6.1314   -0.5090   -0.4388 C   0  0  0  0  0  0  0  0  0  0  0  0
    6.9047    0.6203    0.2063 C   0  0  0  0  0  0  0  0  0  0  0  0
   -6.3256   -0.4940    0.2949 C   0  0  0  0  0  0  0  0  0  0  0  0
   -6.2784    0.6906   -0.4376 C   0  0  0  0  0  0  0  0  0  0  0  0
    2.7568    1.0468    1.9463 H   0  0  0  0  0  0  0  0  0  0  0  0
    0.1144    0.0252   -1.5215 H   0  0  0  0  0  0  0  0  0  0  0  0
    0.0376   -1.5090   -0.6556 H   0  0  0  0  0  0  0  0  0  0  0  0
    0.2327    1.3061    0.6183 H   0  0  0  0  0  0  0  0  0  0  0  0
    0.1903   -0.3029    1.4756 H   0  0  0  0  0  0  0  0  0  0  0  0
   -4.9810    2.0798   -1.4720 H   0  0  0  0  0  0  0  0  0  0  0  0
   -5.1475   -2.1176    1.1236 H   0  0  0  0  0  0  0  0  0  0  0  0
    6.3217   -0.5540   -1.5350 H   0  0  0  0  0  0  0  0  0  0  0  0
    6.4621   -1.4476    0.0676 H   0  0  0  0  0  0  0  0  0  0  0  0
    6.8252    1.5687   -0.3464 H   0  0  0  0  0  0  0  0  0  0  0  0
    7.9032    0.3232    0.5212 H   0  0  0  0  0  0  0  0  0  0  0  0
   -7.2756   -0.8605    0.6535 H   0  0  0  0  0  0  0  0  0  0  0  0
   -7.1691    1.2577   -0.6595 H   0  0  0  0  0  0  0  0  0  0  0  0
  2  1  1  0
  3  1  1  0
  4  3  1  0
  4  5  2  0
  5  2  1  0
  6  7  1  0
  7 10  1  0
  8  1  1  0
  9  6  2  0
 10 11  1  0
 11  8  1  0
 12  6  1  0
 13  2  2  0
 14  3  2  0
 15 10  2  0
 16  4  1  0
 17  5  1  0
 18  9  1  0
 19 12  1  0
 19 18  1  0
 20 17  2  0
 21 16  2  0
 21 20  1  0
  7 22  1  0
  8 23  1  0
  8 24  1  0
 11 25  1  0
 11 26  1  0
 16 27  1  0
 17 28  1  0
 18 29  1  0
 18 30  1  0
 19 31  1  0
 19 32  1  0
 20 33  1  0
 21 34  1  0
M  END
>  <Mol_ID>  (1) 
9333

>  <Formula>  (1) 
C14H13N3O3S

>  <MolWeight>  (1) 
303.33632

>  <Cat>  (1) 
P2997

>  <Name>  (1) 
WAY-623904

>  <Synonyms>  (1) 
N/A

>  <Target>  (1) 
others

>  <Form>  (1) 
free base

>  <CAS>  (1) 
82923-15-7

>  <URL>  (1) 
N/A

$$$$
