WAY-332052
     RDKit          3D

 49 51  0  0  0  0  0  0  0  0999 V2000
   -2.1207   -0.7241   -0.4661 N   0  0  0  0  0  0  0  0  0  0  0  0
   -1.4520   -1.5757    0.3322 C   0  0  0  0  0  0  0  0  0  0  0  0
   -3.4290   -0.6846   -0.0869 C   0  0  0  0  0  0  0  0  0  0  0  0
   -3.5397   -1.5055    0.9295 O   0  0  0  0  0  0  0  0  0  0  0  0
   -2.3959   -2.0580    1.2160 C   0  0  0  0  0  0  0  0  0  0  0  0
    0.7907   -1.1157    1.6866 S   0  0  0  0  0  0  0  0  0  0  0  0
   -0.0164   -1.9619    0.3186 C   0  0  0  0  0  0  0  0  0  0  0  0
    2.5325   -1.5204    1.7524 C   0  0  0  0  0  0  0  0  0  0  0  0
    3.1768   -1.1030    0.4903 C   0  0  0  0  0  0  0  0  0  0  0  0
   -4.4828    0.1215   -0.7064 C   0  0  0  0  0  0  0  0  0  0  0  0
    4.5490   -1.3518    0.3178 N   0  0  0  0  0  0  0  0  0  0  0  0
    0.6946    0.3988    1.4445 O   0  0  0  0  0  0  0  0  0  0  0  0
    2.4699   -0.5447   -0.3717 O   0  0  0  0  0  0  0  0  0  0  0  0
   -4.2506    0.9591   -1.7793 C   0  0  0  0  0  0  0  0  0  0  0  0
   -5.7578    0.0298   -0.1895 C   0  0  0  0  0  0  0  0  0  0  0  0
    5.3204   -1.0038   -0.8518 C   0  0  0  0  0  0  0  0  0  0  0  0
    6.3787    3.0826   -0.5851 C   0  0  0  0  0  0  0  0  0  0  0  0
    5.6154    0.4466   -0.8115 C   0  0  0  0  0  0  0  0  0  0  0  0
   -5.3251    1.6676   -2.2802 C   0  0  0  0  0  0  0  0  0  0  0  0
   -6.8319    0.7380   -0.6903 C   0  0  0  0  0  0  0  0  0  0  0  0
   -6.6021    1.5763   -1.7632 C   0  0  0  0  0  0  0  0  0  0  0  0
    6.7826    4.3757   -0.4537 F   0  0  0  0  0  0  0  0  0  0  0  0
    5.2106    2.7477   -1.2759 C   0  0  0  0  0  0  0  0  0  0  0  0
    7.1749    2.1247   -0.0041 C   0  0  0  0  0  0  0  0  0  0  0  0
    4.8377    1.4168   -1.3825 C   0  0  0  0  0  0  0  0  0  0  0  0
    6.7783    0.8141   -0.1272 C   0  0  0  0  0  0  0  0  0  0  0  0
   -2.0985   -3.0405    2.2924 C   0  0  0  0  0  0  0  0  0  0  0  0
   -7.7538    2.3354   -2.2995 C   0  0  0  0  0  0  0  0  0  0  0  0
    0.0094   -3.0545    0.5153 H   0  0  0  0  0  0  0  0  0  0  0  0
    0.4723   -1.7169   -0.6330 H   0  0  0  0  0  0  0  0  0  0  0  0
    2.6681   -2.6230    1.9098 H   0  0  0  0  0  0  0  0  0  0  0  0
    2.9697   -0.9943    2.6328 H   0  0  0  0  0  0  0  0  0  0  0  0
    5.0782   -1.8312    1.0964 H   0  0  0  0  0  0  0  0  0  0  0  0
   -3.2596    1.0392   -2.1913 H   0  0  0  0  0  0  0  0  0  0  0  0
   -5.9306   -0.6260    0.6497 H   0  0  0  0  0  0  0  0  0  0  0  0
    4.7232   -1.1813   -1.7941 H   0  0  0  0  0  0  0  0  0  0  0  0
    6.2455   -1.6131   -0.9162 H   0  0  0  0  0  0  0  0  0  0  0  0
   -5.1833    2.3410   -3.1281 H   0  0  0  0  0  0  0  0  0  0  0  0
   -7.8100    0.6352   -0.2548 H   0  0  0  0  0  0  0  0  0  0  0  0
    4.6331    3.5504   -1.7074 H   0  0  0  0  0  0  0  0  0  0  0  0
    8.0779    2.3753    0.5288 H   0  0  0  0  0  0  0  0  0  0  0  0
    3.9526    1.1511   -1.9097 H   0  0  0  0  0  0  0  0  0  0  0  0
    7.4125    0.0564    0.3369 H   0  0  0  0  0  0  0  0  0  0  0  0
   -2.1756   -4.0876    1.9840 H   0  0  0  0  0  0  0  0  0  0  0  0
   -2.8520   -2.8357    3.1083 H   0  0  0  0  0  0  0  0  0  0  0  0
   -1.1229   -2.7744    2.7474 H   0  0  0  0  0  0  0  0  0  0  0  0
   -7.5447    2.5639   -3.3686 H   0  0  0  0  0  0  0  0  0  0  0  0
   -7.9461    3.2717   -1.7431 H   0  0  0  0  0  0  0  0  0  0  0  0
   -8.6736    1.7086   -2.1695 H   0  0  0  0  0  0  0  0  0  0  0  0
  2  1  1  0
  3  1  2  0
  4  3  1  0
  5  2  2  0
  5  4  1  0
  6  7  1  6
  7  2  1  0
  8  6  1  0
  9  8  1  0
 10  3  1  0
 11  9  1  0
 12  6  2  0
 13  9  2  0
 14 10  2  0
 15 10  1  0
 16 11  1  0
 17 24  2  0
 17 23  1  0
 18 16  1  0
 19 14  1  0
 20 15  2  0
 21 20  1  0
 21 19  2  0
 22 17  1  0
 23 25  2  0
 24 26  1  0
 25 18  1  0
 26 18  2  0
 27  5  1  0
 28 21  1  0
  7 29  1  0
  7 30  1  0
  8 31  1  0
  8 32  1  0
 11 33  1  0
 14 34  1  0
 15 35  1  0
 16 36  1  0
 16 37  1  0
 19 38  1  0
 20 39  1  0
 23 40  1  0
 24 41  1  0
 25 42  1  0
 26 43  1  0
 27 44  1  0
 27 45  1  0
 27 46  1  0
 28 47  1  0
 28 48  1  0
 28 49  1  0
M  END
>  <Mol_ID>  (1) 
9230

>  <Formula>  (1) 
C21H21FN2O3S

>  <MolWeight>  (1) 
400.4664432

>  <Cat>  (1) 
P2698

>  <Name>  (1) 
WAY-332052

>  <Synonyms>  (1) 
N/A

>  <Target>  (1) 
beta-catenin

>  <Form>  (1) 
free base

>  <CAS>  (1) 
1015858-38-4

>  <URL>  (1) 
N/A

$$$$
