WAY-311103
     RDKit          3D

 49 52  0  0  0  0  0  0  0  0999 V2000
    2.2920   -0.1271    0.3286 C   0  0  0  0  0  0  0  0  0  0  0  0
    2.4604    1.0533   -0.3373 C   0  0  0  0  0  0  0  0  0  0  0  0
    3.3393   -0.7416    0.8714 C   0  0  0  0  0  0  0  0  0  0  0  0
    0.9366   -0.5563    0.3474 C   0  0  0  0  0  0  0  0  0  0  0  0
    1.5010    1.7747   -0.9277 N   0  0  0  0  0  0  0  0  0  0  0  0
    4.2641    1.4107   -0.2353 S   0  0  0  0  0  0  0  0  0  0  0  0
    4.6041   -0.1442    0.7390 C   0  0  0  0  0  0  0  0  0  0  0  0
    3.4463   -2.0395    1.6430 C   0  0  0  0  0  0  0  0  0  0  0  0
    0.0028    0.1876   -0.2517 N   0  0  0  0  0  0  0  0  0  0  0  0
    0.5888   -1.6127    0.9096 O   0  0  0  0  0  0  0  0  0  0  0  0
    0.2332    1.3434   -0.8925 C   0  0  0  0  0  0  0  0  0  0  0  0
    5.7904   -0.7002    1.2732 C   0  0  0  0  0  0  0  0  0  0  0  0
    4.5961   -2.8326    1.1532 C   0  0  0  0  0  0  0  0  0  0  0  0
   -1.3447   -0.2692   -0.2151 C   0  0  0  0  0  0  0  0  0  0  0  0
   -1.0552    2.2876   -1.6709 S   0  0  0  0  0  0  0  0  0  0  0  0
    5.9058   -2.1645    1.0182 C   0  0  0  0  0  0  0  0  0  0  0  0
   -2.3480    0.4839    0.3513 C   0  0  0  0  0  0  0  0  0  0  0  0
   -1.6389   -1.5032   -0.7664 C   0  0  0  0  0  0  0  0  0  0  0  0
   -0.3822    3.7659   -2.4264 C   0  0  0  0  0  0  0  0  0  0  0  0
   -3.6362   -0.0005    0.3628 C   0  0  0  0  0  0  0  0  0  0  0  0
   -2.9289   -1.9985   -0.7599 C   0  0  0  0  0  0  0  0  0  0  0  0
    0.1312    4.6640   -1.3567 C   0  0  0  0  0  0  0  0  0  0  0  0
   -3.9235   -1.2316   -0.1884 C   0  0  0  0  0  0  0  0  0  0  0  0
    0.7227    5.9174   -1.7002 N   0  0  0  0  0  0  0  0  0  0  0  0
    0.0550    4.3392   -0.1354 O   0  0  0  0  0  0  0  0  0  0  0  0
   -5.2090   -1.7469   -0.1925 O   0  0  0  0  0  0  0  0  0  0  0  0
   -6.2817   -1.0216    0.3736 C   0  0  0  0  0  0  0  0  0  0  0  0
   -7.5409   -1.8369    0.2164 C   0  0  0  0  0  0  0  0  0  0  0  0
    2.5449   -2.6323    1.5671 H   0  0  0  0  0  0  0  0  0  0  0  0
    3.6024   -1.7485    2.6974 H   0  0  0  0  0  0  0  0  0  0  0  0
    6.7151   -0.2421    0.8073 H   0  0  0  0  0  0  0  0  0  0  0  0
    5.9248   -0.4869    2.3608 H   0  0  0  0  0  0  0  0  0  0  0  0
    4.7070   -3.7694    1.7744 H   0  0  0  0  0  0  0  0  0  0  0  0
    4.3491   -3.2597    0.1312 H   0  0  0  0  0  0  0  0  0  0  0  0
    6.4194   -2.3946    0.0592 H   0  0  0  0  0  0  0  0  0  0  0  0
    6.5923   -2.5649    1.8232 H   0  0  0  0  0  0  0  0  0  0  0  0
   -2.1408    1.4436    0.7842 H   0  0  0  0  0  0  0  0  0  0  0  0
   -0.8493   -2.0930   -1.2108 H   0  0  0  0  0  0  0  0  0  0  0  0
   -1.1835    4.2355   -3.0370 H   0  0  0  0  0  0  0  0  0  0  0  0
    0.4803    3.4975   -3.0840 H   0  0  0  0  0  0  0  0  0  0  0  0
   -4.4266    0.5927    0.8088 H   0  0  0  0  0  0  0  0  0  0  0  0
   -3.1182   -2.9782   -1.2061 H   0  0  0  0  0  0  0  0  0  0  0  0
    1.1031    6.1066   -2.6598 H   0  0  0  0  0  0  0  0  0  0  0  0
    0.7823    6.6755   -0.9783 H   0  0  0  0  0  0  0  0  0  0  0  0
   -6.3579   -0.0259   -0.1406 H   0  0  0  0  0  0  0  0  0  0  0  0
   -6.0779   -0.8586    1.4623 H   0  0  0  0  0  0  0  0  0  0  0  0
   -7.3590   -2.7774   -0.3565 H   0  0  0  0  0  0  0  0  0  0  0  0
   -7.9560   -2.1553    1.2009 H   0  0  0  0  0  0  0  0  0  0  0  0
   -8.3320   -1.2653   -0.3348 H   0  0  0  0  0  0  0  0  0  0  0  0
  1  2  2  0
  1  3  1  0
  1  4  1  0
  2  5  1  0
  2  6  1  0
  3  7  2  0
  3  8  1  0
  4  9  1  0
  4 10  2  0
  5 11  2  0
  6  7  1  0
  7 12  1  0
  8 13  1  0
  9 14  1  0
  9 11  1  0
 11 15  1  0
 12 16  1  0
 13 16  1  0
 14 17  2  0
 14 18  1  0
 15 19  1  0
 17 20  1  0
 18 21  2  0
 19 22  1  0
 20 23  2  0
 21 23  1  0
 22 24  1  0
 22 25  2  0
 23 26  1  0
 26 27  1  0
 27 28  1  0
  8 29  1  0
  8 30  1  0
 12 31  1  0
 12 32  1  0
 13 33  1  0
 13 34  1  0
 16 35  1  0
 16 36  1  0
 17 37  1  0
 18 38  1  0
 19 39  1  0
 19 40  1  0
 20 41  1  0
 21 42  1  0
 24 43  1  0
 24 44  1  0
 27 45  1  0
 27 46  1  0
 28 47  1  0
 28 48  1  0
 28 49  1  0
M  END
>  <Mol_ID>  (1) 
8109

>  <Formula>  (1) 
C20H21N3O3S2

>  <MolWeight>  (1) 
415.52904

>  <Cat>  (1) 
P2193

>  <Name>  (1) 
WAY-311103

>  <Synonyms>  (1) 
N/A

>  <Target>  (1) 
Bcl-2

>  <Form>  (1) 
free base

>  <CAS>  (1) 
685550-37-2

>  <URL>  (1) 
N/A

$$$$
