WAY-330342
     RDKit          3D

 55 59  0  0  0  0  0  0  0  0999 V2000
   -1.8489   -1.8920    0.1462 C   0  0  0  0  0  0  0  0  0  0  0  0
   -3.7702   -1.2367    0.9217 C   0  0  0  0  0  0  0  0  0  0  0  0
   -2.6529   -1.8962    1.1926 O   0  0  0  0  0  0  0  0  0  0  0  0
   -0.5520   -2.5460    0.1610 C   0  0  0  0  0  0  0  0  0  0  0  0
   -4.8754   -0.9650    1.6349 N   0  0  0  0  0  0  0  0  0  0  0  0
   -2.4762   -1.1913   -0.8602 C   0  0  0  0  0  0  0  0  0  0  0  0
   -3.7049   -0.7699   -0.3712 C   0  0  0  0  0  0  0  0  0  0  0  0
    0.6962   -1.8926    0.0585 N   0  0  0  0  0  0  0  0  0  0  0  0
    3.3071   -0.7567   -0.1103 N   0  0  0  0  0  0  0  0  0  0  0  0
   -5.9034   -0.2511    1.1038 C   0  0  0  0  0  0  0  0  0  0  0  0
   -5.8716    0.2318   -0.1892 C   0  0  0  0  0  0  0  0  0  0  0  0
   -4.7378   -0.0368   -0.9461 C   0  0  0  0  0  0  0  0  0  0  0  0
    4.5935   -0.1700   -0.0618 C   0  0  0  0  0  0  0  0  0  0  0  0
    0.8709   -0.4635   -0.0686 C   0  0  0  0  0  0  0  0  0  0  0  0
    1.8861   -2.7222    0.0764 C   0  0  0  0  0  0  0  0  0  0  0  0
   -0.5883   -3.8160    0.2767 O   0  0  0  0  0  0  0  0  0  0  0  0
    7.2195    0.9210    0.0864 C   0  0  0  0  0  0  0  0  0  0  0  0
    8.5730    1.4267    0.2004 C   0  0  0  0  0  0  0  0  0  0  0  0
    2.1680   -0.2045   -0.7960 C   0  0  0  0  0  0  0  0  0  0  0  0
    3.1085   -2.0235    0.5843 C   0  0  0  0  0  0  0  0  0  0  0  0
   -6.9240    0.9504   -0.7108 C   0  0  0  0  0  0  0  0  0  0  0  0
    9.4216    0.7909    0.9093 O   0  0  0  0  0  0  0  0  0  0  0  0
    5.5911   -0.7729    0.6826 C   0  0  0  0  0  0  0  0  0  0  0  0
    4.9429    0.9870   -0.7255 C   0  0  0  0  0  0  0  0  0  0  0  0
    6.2272    1.5241   -0.6553 C   0  0  0  0  0  0  0  0  0  0  0  0
    6.8680   -0.2457    0.7567 C   0  0  0  0  0  0  0  0  0  0  0  0
   -7.0179   -0.0166    1.9170 C   0  0  0  0  0  0  0  0  0  0  0  0
   -8.0264    1.1870    0.0801 C   0  0  0  0  0  0  0  0  0  0  0  0
   -8.0880    0.7137    1.3866 C   0  0  0  0  0  0  0  0  0  0  0  0
   -9.1403    1.9010   -0.3546 O   0  0  0  0  0  0  0  0  0  0  0  0
    9.0519    2.6535   -0.4596 C   0  0  0  0  0  0  0  0  0  0  0  0
   -9.1158    2.4009   -1.6803 C   0  0  0  0  0  0  0  0  0  0  0  0
   -2.0651   -1.0090   -1.8615 H   0  0  0  0  0  0  0  0  0  0  0  0
   -4.6811    0.3311   -1.9712 H   0  0  0  0  0  0  0  0  0  0  0  0
    0.9544   -0.0254    0.9458 H   0  0  0  0  0  0  0  0  0  0  0  0
    0.0602    0.0024   -0.6719 H   0  0  0  0  0  0  0  0  0  0  0  0
    1.6956   -3.6035    0.7524 H   0  0  0  0  0  0  0  0  0  0  0  0
    2.1119   -3.1113   -0.9529 H   0  0  0  0  0  0  0  0  0  0  0  0
    2.1179   -0.7153   -1.7805 H   0  0  0  0  0  0  0  0  0  0  0  0
    2.3237    0.8924   -0.9391 H   0  0  0  0  0  0  0  0  0  0  0  0
    2.9858   -1.7925    1.6554 H   0  0  0  0  0  0  0  0  0  0  0  0
    3.9707   -2.7110    0.3720 H   0  0  0  0  0  0  0  0  0  0  0  0
   -6.8994    1.3305   -1.7263 H   0  0  0  0  0  0  0  0  0  0  0  0
    5.4360   -1.6847    1.2541 H   0  0  0  0  0  0  0  0  0  0  0  0
    4.2152    1.5087   -1.3249 H   0  0  0  0  0  0  0  0  0  0  0  0
    6.4713    2.4376   -1.1901 H   0  0  0  0  0  0  0  0  0  0  0  0
    7.6392   -0.7400    1.3499 H   0  0  0  0  0  0  0  0  0  0  0  0
   -7.0667   -0.3845    2.9329 H   0  0  0  0  0  0  0  0  0  0  0  0
   -8.9358    0.8804    2.0348 H   0  0  0  0  0  0  0  0  0  0  0  0
    9.9067    3.1189    0.1107 H   0  0  0  0  0  0  0  0  0  0  0  0
    9.4263    2.4390   -1.4896 H   0  0  0  0  0  0  0  0  0  0  0  0
    8.2821    3.4524   -0.4876 H   0  0  0  0  0  0  0  0  0  0  0  0
   -9.9941    2.9898   -1.9406 H   0  0  0  0  0  0  0  0  0  0  0  0
   -8.2153    3.0487   -1.8619 H   0  0  0  0  0  0  0  0  0  0  0  0
   -8.9711    1.5266   -2.3576 H   0  0  0  0  0  0  0  0  0  0  0  0
  2  3  1  0
  2  7  2  0
  3  1  1  0
  4  1  1  0
  5  2  1  0
  6  1  2  0
  7  6  1  0
  8  4  1  0
  9 20  1  0
  9 19  1  0
 10  5  2  0
 10 11  1  0
 11 12  2  0
 12  7  1  0
 13  9  1  0
 14  8  1  0
 15  8  1  0
 16  4  2  0
 17 25  2  0
 17 26  1  0
 18 17  1  0
 19 14  1  0
 20 15  1  0
 21 11  1  0
 22 18  2  0
 23 13  1  0
 24 13  2  0
 25 24  1  0
 26 23  2  0
 27 10  1  0
 28 21  2  0
 29 27  2  0
 29 28  1  0
 30 28  1  0
 31 18  1  0
 32 30  1  0
  6 33  1  0
 12 34  1  0
 14 35  1  0
 14 36  1  0
 15 37  1  0
 15 38  1  0
 19 39  1  0
 19 40  1  0
 20 41  1  0
 20 42  1  0
 21 43  1  0
 23 44  1  0
 24 45  1  0
 25 46  1  0
 26 47  1  0
 27 48  1  0
 29 49  1  0
 31 50  1  0
 31 51  1  0
 31 52  1  0
 32 53  1  0
 32 54  1  0
 32 55  1  0
M  END
>  <Mol_ID>  (1) 
9182

>  <Formula>  (1) 
C25H23N3O4

>  <MolWeight>  (1) 
429.46782

>  <Cat>  (1) 
P2610

>  <Name>  (1) 
WAY-330342

>  <Synonyms>  (1) 
N/A

>  <Target>  (1) 
Anti-infection

>  <Form>  (1) 
free base

>  <CAS>  (1) 
901032-68-6

>  <URL>  (1) 
N/A

$$$$
