(2R,3R)-(-)-2,3-Butanediol


  8  7  0  0  0  0  0  0  0  0999 V2000
    3.4250   26.4915   50.0722 C   0  0  0  0  0  0  0  0  0  0  0  0
    4.1069   26.3557   51.4054 C   0  0  0  0  0  0  0  0  0  0  0  0
    3.3496   26.9310   52.4441 O   0  0  0  0  0  0  0  0  0  0  0  0
    2.3860   26.7525   52.2129 H   0  0  0  0  0  0  0  0  0  0  0  0
    4.4145   24.9183   51.7584 C   0  0  0  0  0  0  0  0  0  0  0  0
    5.6225   24.8551   52.4483 O   0  0  0  0  0  0  0  0  0  0  0  0
    4.4120   23.9911   50.5795 C   0  0  0  0  0  0  0  0  0  0  0  0
    6.3794   24.6177   51.8575 H   0  0  0  0  0  0  0  0  0  0  0  0
  2  1  1  0  0  0
  2  3  1  0  0  0
  5  7  1  0  0  0
  5  6  1  0  0  0
  5  2  1  0  0  0
  3  4  1  0  0  0
  6  8  1  0  0  0
M  END
> <minimizedAffinity>
-3.82898

$$$$
(2R,3R)-(-)-2,3-Butanediol


  8  7  0  0  0  0  0  0  0  0999 V2000
    4.4043   24.0695   50.5007 C   0  0  0  0  0  0  0  0  0  0  0  0
    4.3860   24.9277   51.7353 C   0  0  0  0  0  0  0  0  0  0  0  0
    5.5920   24.8365   52.4568 O   0  0  0  0  0  0  0  0  0  0  0  0
    6.3194   24.7490   51.7661 H   0  0  0  0  0  0  0  0  0  0  0  0
    4.1039   26.3811   51.4299 C   0  0  0  0  0  0  0  0  0  0  0  0
    3.3345   26.9322   52.4515 O   0  0  0  0  0  0  0  0  0  0  0  0
    3.4702   26.6067   50.0893 C   0  0  0  0  0  0  0  0  0  0  0  0
    2.3714   26.9496   52.2275 H   0  0  0  0  0  0  0  0  0  0  0  0
  2  1  1  0  0  0
  2  3  1  0  0  0
  5  7  1  0  0  0
  5  6  1  0  0  0
  5  2  1  0  0  0
  3  4  1  0  0  0
  6  8  1  0  0  0
M  END
> <minimizedAffinity>
-3.82540

$$$$
(2R,3R)-(-)-2,3-Butanediol


  8  7  0  0  0  0  0  0  0  0999 V2000
    5.1434   18.2806   49.1861 C   0  0  0  0  0  0  0  0  0  0  0  0
    3.6745   18.1178   49.4629 C   0  0  0  0  0  0  0  0  0  0  0  0
    3.4345   17.6479   50.7686 O   0  0  0  0  0  0  0  0  0  0  0  0
    4.1368   18.0774   51.3484 H   0  0  0  0  0  0  0  0  0  0  0  0
    2.8965   19.3962   49.2490 C   0  0  0  0  0  0  0  0  0  0  0  0
    2.3644   19.4094   47.9622 O   0  0  0  0  0  0  0  0  0  0  0  0
    3.6882   20.6403   49.5231 C   0  0  0  0  0  0  0  0  0  0  0  0
    2.9216   19.9289   47.3316 H   0  0  0  0  0  0  0  0  0  0  0  0
  2  1  1  0  0  0
  2  3  1  0  0  0
  5  7  1  0  0  0
  5  6  1  0  0  0
  5  2  1  0  0  0
  3  4  1  0  0  0
  6  8  1  0  0  0
M  END
> <minimizedAffinity>
-3.57205

$$$$
(2R,3R)-(-)-2,3-Butanediol


  8  7  0  0  0  0  0  0  0  0999 V2000
    3.7627   20.6686   49.5315 C   0  0  0  0  0  0  0  0  0  0  0  0
    2.8785   19.4786   49.2810 C   0  0  0  0  0  0  0  0  0  0  0  0
    2.2959   19.5170   47.9993 O   0  0  0  0  0  0  0  0  0  0  0  0
    2.9927   19.9178   47.3929 H   0  0  0  0  0  0  0  0  0  0  0  0
    3.6077   18.1653   49.4509 C   0  0  0  0  0  0  0  0  0  0  0  0
    3.4298   17.6971   50.7504 O   0  0  0  0  0  0  0  0  0  0  0  0
    5.0620   18.2287   49.0898 C   0  0  0  0  0  0  0  0  0  0  0  0
    4.1946   17.9195   51.3367 H   0  0  0  0  0  0  0  0  0  0  0  0
  2  1  1  0  0  0
  2  3  1  0  0  0
  5  7  1  0  0  0
  5  6  1  0  0  0
  5  2  1  0  0  0
  3  4  1  0  0  0
  6  8  1  0  0  0
M  END
> <minimizedAffinity>
-3.55757

$$$$
(2R,3R)-(-)-2,3-Butanediol


  8  7  0  0  0  0  0  0  0  0999 V2000
    4.0056   17.4353   47.4140 C   0  0  0  0  0  0  0  0  0  0  0  0
    3.5919   18.6508   48.1963 C   0  0  0  0  0  0  0  0  0  0  0  0
    2.5339   19.3415   47.5740 O   0  0  0  0  0  0  0  0  0  0  0  0
    1.9487   18.6334   47.1617 H   0  0  0  0  0  0  0  0  0  0  0  0
    3.1961   18.3215   49.6177 C   0  0  0  0  0  0  0  0  0  0  0  0
    2.0842   19.0778   49.9800 O   0  0  0  0  0  0  0  0  0  0  0  0
    4.3098   18.4820   50.6094 C   0  0  0  0  0  0  0  0  0  0  0  0
    2.3320   19.8860   50.4933 H   0  0  0  0  0  0  0  0  0  0  0  0
  2  1  1  0  0  0
  2  3  1  0  0  0
  5  7  1  0  0  0
  5  6  1  0  0  0
  5  2  1  0  0  0
  3  4  1  0  0  0
  6  8  1  0  0  0
M  END
> <minimizedAffinity>
-3.54469

$$$$
