BMS-813160


 38 41  0  0  0  0  0  0  0  0999 V2000
    6.4762   20.7414   49.9878 O   0  0  0  0  0  0  0  0  0  0  0  0
    4.4217   21.5063   48.9657 N   0  0  0  0  0  0  0  0  0  0  0  0
    3.5848   22.6778   49.2466 C   0  0  0  0  0  0  0  0  0  0  0  0
    5.0883   22.4718   51.0346 C   0  0  0  0  0  0  0  0  0  0  0  0
    4.3567   23.5158   50.2293 C   0  0  0  0  0  0  0  0  0  0  0  0
    5.4500   21.4705   49.9741 C   0  0  0  0  0  0  0  0  0  0  0  0
    4.2875   20.5396   47.8973 C   0  0  0  0  0  0  0  0  0  0  0  0
    3.7416   19.2175   48.3030 C   0  0  0  0  0  0  0  0  0  0  0  0
    4.7159   18.1324   46.2939 C   0  0  0  0  0  0  0  0  0  0  0  0
    5.4720   20.4724   46.9702 C   0  0  0  0  0  0  0  0  0  0  0  0
    3.4311   18.4998   47.0071 C   0  0  0  0  0  0  0  0  0  0  0  0
    5.8147   19.0885   46.4947 C   0  0  0  0  0  0  0  0  0  0  0  0
    2.9490   19.1474   51.0782 O   0  0  0  0  0  0  0  0  0  0  0  0
    4.3246   18.4573   49.3167 N   0  0  0  0  0  0  0  0  0  0  0  0
    3.9006   18.4545   50.6697 C   0  0  0  0  0  0  0  0  0  0  0  0
    4.5888   17.6001   51.6999 C   0  0  0  0  0  0  0  0  0  0  0  0
    5.1495   17.8197   49.0998 H   0  0  0  0  0  0  0  0  0  0  0  0
    4.9590   16.7559   46.5895 N   0  0  0  0  0  0  0  0  0  0  0  0
    4.3223   16.3856   47.3266 H   0  0  0  0  0  0  0  0  0  0  0  0
    5.0707   15.8208   45.5429 C   0  0  0  0  0  0  0  0  0  0  0  0
    6.3188   15.0071   45.4458 C   0  0  0  0  0  0  0  0  0  0  0  0
    3.9290   14.8002   45.7528 C   0  0  0  0  0  0  0  0  0  0  0  0
    4.7763   16.4259   44.1713 C   0  0  0  0  0  0  0  0  0  0  0  0
    6.2849   23.0995   51.5659 N   0  0  0  0  0  0  0  0  0  0  0  0
    6.7439   22.8114   52.4557 H   0  0  0  0  0  0  0  0  0  0  0  0
    7.5765   23.9383   49.6928 N   0  0  0  0  0  0  0  0  0  0  0  0
    6.7362   25.4515   51.2281 N   0  0  0  0  0  0  0  0  0  0  0  0
    7.8956   22.8214   49.0238 N   0  0  0  0  0  0  0  0  0  0  0  0
    7.9685   26.2586   49.4483 N   0  0  0  0  0  0  0  0  0  0  0  0
    6.8667   24.1723   50.8269 C   0  0  0  0  0  0  0  0  0  0  0  0
    8.1250   24.9816   49.0073 C   0  0  0  0  0  0  0  0  0  0  0  0
    8.6197   23.1169   47.9488 C   0  0  0  0  0  0  0  0  0  0  0  0
    8.7909   24.5011   47.9009 C   0  0  0  0  0  0  0  0  0  0  0  0
    7.2656   26.4895   50.5709 C   0  0  0  0  0  0  0  0  0  0  0  0
    9.2059   22.2339   46.8998 C   0  0  0  0  0  0  0  0  0  0  0  0
   10.5906   22.6606   46.5213 C   0  0  0  0  0  0  0  0  0  0  0  0
    8.3501   22.3487   45.6374 C   0  0  0  0  0  0  0  0  0  0  0  0
    9.1842   20.7845   47.3223 C   0  0  0  0  0  0  0  0  0  0  0  0
  1  6  2  0  0  0
 13 15  2  0  0  0
  2  3  1  0  0  0
  2  6  1  0  0  0
 18 20  1  0  0  0
 14 15  1  0  0  0
 24 30  1  0  0  0
 26 28  1  0  0  0
 26 30  1  0  0  0
 26 31  1  0  0  0
 27 30  2  0  0  0
 27 34  2  0  0  0
 28 32  2  0  0  0
 29 31  2  0  0  0
 29 34  2  0  0  0
  7  2  1  0  0  0
  7  8  1  0  0  0
  7 10  1  0  0  0
  8 14  1  0  0  0
  8 11  1  0  0  0
  9 18  1  0  0  0
  9 11  1  0  0  0
  9 12  1  0  0  0
 10 12  1  0  0  0
  3  5  1  0  0  0
  4  5  1  0  0  0
  4  6  1  0  0  0
  4 24  1  0  0  0
 20 21  1  0  0  0
 20 22  1  0  0  0
 20 23  1  0  0  0
 15 16  1  0  0  0
 31 33  2  0  0  0
 35 32  1  0  0  0
 35 36  1  0  0  0
 35 37  1  0  0  0
 35 38  1  0  0  0
 32 33  1  0  0  0
 18 19  1  0  0  0
 14 17  1  0  0  0
 24 25  1  0  0  0
M  END
> <minimizedAffinity>
-8.77395

$$$$
BMS-813160


 38 41  0  0  0  0  0  0  0  0999 V2000
    7.2341   19.0995   51.0583 O   0  0  0  0  0  0  0  0  0  0  0  0
    5.0616   19.3145   50.0166 N   0  0  0  0  0  0  0  0  0  0  0  0
    4.0082   20.3212   50.1863 C   0  0  0  0  0  0  0  0  0  0  0  0
    5.5332   20.6307   51.9407 C   0  0  0  0  0  0  0  0  0  0  0  0
    4.6020   21.4058   51.0433 C   0  0  0  0  0  0  0  0  0  0  0  0
    6.0822   19.6032   50.9916 C   0  0  0  0  0  0  0  0  0  0  0  0
    5.1179   18.2212   49.0705 C   0  0  0  0  0  0  0  0  0  0  0  0
    6.1743   18.3359   48.0306 C   0  0  0  0  0  0  0  0  0  0  0  0
    4.9656   16.7572   46.5440 C   0  0  0  0  0  0  0  0  0  0  0  0
    3.7744   17.7784   48.5547 C   0  0  0  0  0  0  0  0  0  0  0  0
    6.2223   16.9800   47.3598 C   0  0  0  0  0  0  0  0  0  0  0  0
    3.7608   17.3874   47.1036 C   0  0  0  0  0  0  0  0  0  0  0  0
    8.3914   20.1784   47.8749 O   0  0  0  0  0  0  0  0  0  0  0  0
    6.2737   19.4510   47.1987 N   0  0  0  0  0  0  0  0  0  0  0  0
    7.3853   20.3302   47.1559 C   0  0  0  0  0  0  0  0  0  0  0  0
    7.4084   21.5119   46.2241 C   0  0  0  0  0  0  0  0  0  0  0  0
    5.4792   19.6935   46.5323 H   0  0  0  0  0  0  0  0  0  0  0  0
    5.3104   17.0496   45.1887 N   0  0  0  0  0  0  0  0  0  0  0  0
    6.1119   17.7112   45.1127 H   0  0  0  0  0  0  0  0  0  0  0  0
    5.4680   16.0019   44.2614 C   0  0  0  0  0  0  0  0  0  0  0  0
    6.8115   15.7943   43.6439 C   0  0  0  0  0  0  0  0  0  0  0  0
    5.1615   14.6962   45.0295 C   0  0  0  0  0  0  0  0  0  0  0  0
    4.4205   16.0298   43.1495 C   0  0  0  0  0  0  0  0  0  0  0  0
    6.5826   21.5420   52.3610 N   0  0  0  0  0  0  0  0  0  0  0  0
    6.9240   21.6193   53.3423 H   0  0  0  0  0  0  0  0  0  0  0  0
    6.5388   23.4803   50.9045 N   0  0  0  0  0  0  0  0  0  0  0  0
    8.4012   22.1079   50.8703 N   0  0  0  0  0  0  0  0  0  0  0  0
    5.3483   24.0333   51.1763 N   0  0  0  0  0  0  0  0  0  0  0  0
    8.3660   23.9507   49.4772 N   0  0  0  0  0  0  0  0  0  0  0  0
    7.1816   22.3796   51.3736 C   0  0  0  0  0  0  0  0  0  0  0  0
    7.1325   24.2620   49.9582 C   0  0  0  0  0  0  0  0  0  0  0  0
    5.1682   25.1274   50.4430 C   0  0  0  0  0  0  0  0  0  0  0  0
    6.2967   25.3110   49.6426 C   0  0  0  0  0  0  0  0  0  0  0  0
    9.0019   22.8612   49.9422 C   0  0  0  0  0  0  0  0  0  0  0  0
    4.0223   26.0799   50.3848 C   0  0  0  0  0  0  0  0  0  0  0  0
    3.9417   26.9315   51.6141 C   0  0  0  0  0  0  0  0  0  0  0  0
    2.7248   25.2726   50.3236 C   0  0  0  0  0  0  0  0  0  0  0  0
    4.0755   26.9327   49.1400 C   0  0  0  0  0  0  0  0  0  0  0  0
  1  6  2  0  0  0
 13 15  2  0  0  0
  2  3  1  0  0  0
  2  6  1  0  0  0
 18 20  1  0  0  0
 14 15  1  0  0  0
 24 30  1  0  0  0
 26 28  1  0  0  0
 26 30  1  0  0  0
 26 31  1  0  0  0
 27 30  2  0  0  0
 27 34  2  0  0  0
 28 32  2  0  0  0
 29 31  2  0  0  0
 29 34  2  0  0  0
  7  2  1  0  0  0
  7  8  1  0  0  0
  7 10  1  0  0  0
  8 14  1  0  0  0
  8 11  1  0  0  0
  9 18  1  0  0  0
  9 11  1  0  0  0
  9 12  1  0  0  0
 10 12  1  0  0  0
  3  5  1  0  0  0
  4  5  1  0  0  0
  4  6  1  0  0  0
  4 24  1  0  0  0
 20 21  1  0  0  0
 20 22  1  0  0  0
 20 23  1  0  0  0
 15 16  1  0  0  0
 31 33  2  0  0  0
 35 32  1  0  0  0
 35 36  1  0  0  0
 35 37  1  0  0  0
 35 38  1  0  0  0
 32 33  1  0  0  0
 18 19  1  0  0  0
 14 17  1  0  0  0
 24 25  1  0  0  0
M  END
> <minimizedAffinity>
-8.76616

$$$$
BMS-813160


 38 41  0  0  0  0  0  0  0  0999 V2000
    5.6182   21.6188   48.2953 O   0  0  0  0  0  0  0  0  0  0  0  0
    7.9809   22.0762   48.5394 N   0  0  0  0  0  0  0  0  0  0  0  0
    9.1537   21.4253   47.9455 C   0  0  0  0  0  0  0  0  0  0  0  0
    7.3197   20.0205   47.5425 C   0  0  0  0  0  0  0  0  0  0  0  0
    8.6212   20.4605   46.9213 C   0  0  0  0  0  0  0  0  0  0  0  0
    6.8285   21.3018   48.1548 C   0  0  0  0  0  0  0  0  0  0  0  0
    7.9315   23.2665   49.3606 C   0  0  0  0  0  0  0  0  0  0  0  0
    7.4014   23.0673   50.7353 C   0  0  0  0  0  0  0  0  0  0  0  0
    6.8520   25.4799   50.9370 C   0  0  0  0  0  0  0  0  0  0  0  0
    7.4013   24.4855   48.6536 C   0  0  0  0  0  0  0  0  0  0  0  0
    7.7107   24.3527   51.4721 C   0  0  0  0  0  0  0  0  0  0  0  0
    6.5386   25.3748   49.5043 C   0  0  0  0  0  0  0  0  0  0  0  0
    6.8362   20.7745   52.3962 O   0  0  0  0  0  0  0  0  0  0  0  0
    6.1506   22.4961   50.9689 N   0  0  0  0  0  0  0  0  0  0  0  0
    5.9198   21.3669   51.7948 C   0  0  0  0  0  0  0  0  0  0  0  0
    4.5331   20.8163   51.9919 C   0  0  0  0  0  0  0  0  0  0  0  0
    5.2809   22.9085   50.5132 H   0  0  0  0  0  0  0  0  0  0  0  0
    5.7666   25.6271   51.8543 N   0  0  0  0  0  0  0  0  0  0  0  0
    6.0403   26.1369   52.7209 H   0  0  0  0  0  0  0  0  0  0  0  0
    4.5198   26.0969   51.3991 C   0  0  0  0  0  0  0  0  0  0  0  0
    4.4828   26.9336   50.1630 C   0  0  0  0  0  0  0  0  0  0  0  0
    3.6791   24.8418   51.0721 C   0  0  0  0  0  0  0  0  0  0  0  0
    3.7169   26.8042   52.4897 C   0  0  0  0  0  0  0  0  0  0  0  0
    6.4438   19.6097   46.4598 N   0  0  0  0  0  0  0  0  0  0  0  0
    6.4353   20.0585   45.5196 H   0  0  0  0  0  0  0  0  0  0  0  0
    5.5706   17.4118   45.9239 N   0  0  0  0  0  0  0  0  0  0  0  0
    4.6337   18.5785   47.6886 N   0  0  0  0  0  0  0  0  0  0  0  0
    6.3236   17.0357   44.8806 N   0  0  0  0  0  0  0  0  0  0  0  0
    3.7938   16.4866   47.1824 N   0  0  0  0  0  0  0  0  0  0  0  0
    5.5431   18.5288   46.6961 C   0  0  0  0  0  0  0  0  0  0  0  0
    4.6963   16.3947   46.1691 C   0  0  0  0  0  0  0  0  0  0  0  0
    5.9612   15.8278   44.4601 C   0  0  0  0  0  0  0  0  0  0  0  0
    4.9135   15.3780   45.2650 C   0  0  0  0  0  0  0  0  0  0  0  0
    3.7673   17.5925   47.9467 C   0  0  0  0  0  0  0  0  0  0  0  0
    6.4900   14.9875   43.3474 C   0  0  0  0  0  0  0  0  0  0  0  0
    6.9889   13.6631   43.8370 C   0  0  0  0  0  0  0  0  0  0  0  0
    7.6885   15.7062   42.7260 C   0  0  0  0  0  0  0  0  0  0  0  0
    5.4633   14.8073   42.2552 C   0  0  0  0  0  0  0  0  0  0  0  0
  1  6  2  0  0  0
 13 15  2  0  0  0
  2  3  1  0  0  0
  2  6  1  0  0  0
 18 20  1  0  0  0
 14 15  1  0  0  0
 24 30  1  0  0  0
 26 28  1  0  0  0
 26 30  1  0  0  0
 26 31  1  0  0  0
 27 30  2  0  0  0
 27 34  2  0  0  0
 28 32  2  0  0  0
 29 31  2  0  0  0
 29 34  2  0  0  0
  7  2  1  0  0  0
  7  8  1  0  0  0
  7 10  1  0  0  0
  8 14  1  0  0  0
  8 11  1  0  0  0
  9 18  1  0  0  0
  9 11  1  0  0  0
  9 12  1  0  0  0
 10 12  1  0  0  0
  3  5  1  0  0  0
  4  5  1  0  0  0
  4  6  1  0  0  0
  4 24  1  0  0  0
 20 21  1  0  0  0
 20 22  1  0  0  0
 20 23  1  0  0  0
 15 16  1  0  0  0
 31 33  2  0  0  0
 35 32  1  0  0  0
 35 36  1  0  0  0
 35 37  1  0  0  0
 35 38  1  0  0  0
 32 33  1  0  0  0
 18 19  1  0  0  0
 14 17  1  0  0  0
 24 25  1  0  0  0
M  END
> <minimizedAffinity>
-8.43082

$$$$
BMS-813160


 38 41  0  0  0  0  0  0  0  0999 V2000
    4.8469   19.6405   45.2712 O   0  0  0  0  0  0  0  0  0  0  0  0
    4.4422   18.6905   47.4586 N   0  0  0  0  0  0  0  0  0  0  0  0
    4.4345   17.2968   47.9163 C   0  0  0  0  0  0  0  0  0  0  0  0
    4.4282   17.2424   45.5718 C   0  0  0  0  0  0  0  0  0  0  0  0
    4.9451   16.4763   46.7632 C   0  0  0  0  0  0  0  0  0  0  0  0
    4.6032   18.6637   46.0272 C   0  0  0  0  0  0  0  0  0  0  0  0
    4.3164   19.8975   48.2467 C   0  0  0  0  0  0  0  0  0  0  0  0
    5.3025   20.9652   47.9336 C   0  0  0  0  0  0  0  0  0  0  0  0
    4.9576   22.0175   50.1556 C   0  0  0  0  0  0  0  0  0  0  0  0
    4.0961   19.6574   49.7167 C   0  0  0  0  0  0  0  0  0  0  0  0
    4.8020   22.1955   48.6594 C   0  0  0  0  0  0  0  0  0  0  0  0
    4.7982   20.6316   50.6204 C   0  0  0  0  0  0  0  0  0  0  0  0
    7.2276   21.7214   45.9194 O   0  0  0  0  0  0  0  0  0  0  0  0
    6.6775   20.7335   47.9670 N   0  0  0  0  0  0  0  0  0  0  0  0
    7.5873   21.1242   46.9520 C   0  0  0  0  0  0  0  0  0  0  0  0
    9.0591   20.8335   47.0713 C   0  0  0  0  0  0  0  0  0  0  0  0
    7.1149   20.2305   48.7975 H   0  0  0  0  0  0  0  0  0  0  0  0
    6.1487   22.7169   50.5206 N   0  0  0  0  0  0  0  0  0  0  0  0
    6.7955   22.8549   49.7153 H   0  0  0  0  0  0  0  0  0  0  0  0
    6.0647   23.9042   51.2728 C   0  0  0  0  0  0  0  0  0  0  0  0
    4.7194   24.5135   51.4927 C   0  0  0  0  0  0  0  0  0  0  0  0
    6.5964   23.5602   52.6827 C   0  0  0  0  0  0  0  0  0  0  0  0
    7.0158   24.9915   50.7754 C   0  0  0  0  0  0  0  0  0  0  0  0
    5.3154   16.9558   44.4587 N   0  0  0  0  0  0  0  0  0  0  0  0
    5.5941   17.6605   43.7437 H   0  0  0  0  0  0  0  0  0  0  0  0
    5.5703   14.8731   43.2430 N   0  0  0  0  0  0  0  0  0  0  0  0
    6.6056   15.0913   45.3005 N   0  0  0  0  0  0  0  0  0  0  0  0
    4.8616   15.0889   42.1257 N   0  0  0  0  0  0  0  0  0  0  0  0
    6.8507   13.1026   44.1502 N   0  0  0  0  0  0  0  0  0  0  0  0
    5.8363   15.6332   44.3367 C   0  0  0  0  0  0  0  0  0  0  0  0
    6.0779   13.6109   43.1531 C   0  0  0  0  0  0  0  0  0  0  0  0
    4.9019   14.0185   41.3384 C   0  0  0  0  0  0  0  0  0  0  0  0
    5.6768   13.0411   41.9645 C   0  0  0  0  0  0  0  0  0  0  0  0
    7.1138   13.8557   45.2326 C   0  0  0  0  0  0  0  0  0  0  0  0
    4.2819   13.7695   40.0053 C   0  0  0  0  0  0  0  0  0  0  0  0
    3.5726   12.4514   39.9572 C   0  0  0  0  0  0  0  0  0  0  0  0
    5.3948   13.7081   38.9581 C   0  0  0  0  0  0  0  0  0  0  0  0
    3.3572   14.8948   39.6072 C   0  0  0  0  0  0  0  0  0  0  0  0
  1  6  2  0  0  0
 13 15  2  0  0  0
  2  3  1  0  0  0
  2  6  1  0  0  0
 18 20  1  0  0  0
 14 15  1  0  0  0
 24 30  1  0  0  0
 26 28  1  0  0  0
 26 30  1  0  0  0
 26 31  1  0  0  0
 27 30  2  0  0  0
 27 34  2  0  0  0
 28 32  2  0  0  0
 29 31  2  0  0  0
 29 34  2  0  0  0
  7  2  1  0  0  0
  7  8  1  0  0  0
  7 10  1  0  0  0
  8 14  1  0  0  0
  8 11  1  0  0  0
  9 18  1  0  0  0
  9 11  1  0  0  0
  9 12  1  0  0  0
 10 12  1  0  0  0
  3  5  1  0  0  0
  4  5  1  0  0  0
  4  6  1  0  0  0
  4 24  1  0  0  0
 20 21  1  0  0  0
 20 22  1  0  0  0
 20 23  1  0  0  0
 15 16  1  0  0  0
 31 33  2  0  0  0
 35 32  1  0  0  0
 35 36  1  0  0  0
 35 37  1  0  0  0
 35 38  1  0  0  0
 32 33  1  0  0  0
 18 19  1  0  0  0
 14 17  1  0  0  0
 24 25  1  0  0  0
M  END
> <minimizedAffinity>
-7.78055

$$$$
BMS-813160


 38 41  0  0  0  0  0  0  0  0999 V2000
    7.7755   20.1559   51.2768 O   0  0  0  0  0  0  0  0  0  0  0  0
    5.4396   20.3780   50.6896 N   0  0  0  0  0  0  0  0  0  0  0  0
    4.5037   21.4933   50.8694 C   0  0  0  0  0  0  0  0  0  0  0  0
    6.3953   21.9769   52.1684 C   0  0  0  0  0  0  0  0  0  0  0  0
    5.3286   22.6569   51.3479 C   0  0  0  0  0  0  0  0  0  0  0  0
    6.6653   20.7447   51.3519 C   0  0  0  0  0  0  0  0  0  0  0  0
    5.2272   19.1283   49.9919 C   0  0  0  0  0  0  0  0  0  0  0  0
    5.8615   19.0349   48.6504 C   0  0  0  0  0  0  0  0  0  0  0  0
    4.3021   17.2256   47.9737 C   0  0  0  0  0  0  0  0  0  0  0  0
    3.8127   18.6162   50.0548 C   0  0  0  0  0  0  0  0  0  0  0  0
    5.7479   17.5780   48.2563 C   0  0  0  0  0  0  0  0  0  0  0  0
    3.3279   17.9644   48.7903 C   0  0  0  0  0  0  0  0  0  0  0  0
    6.7855   18.9267   45.9174 O   0  0  0  0  0  0  0  0  0  0  0  0
    5.6164   19.9759   47.6505 N   0  0  0  0  0  0  0  0  0  0  0  0
    6.0917   19.8810   46.3180 C   0  0  0  0  0  0  0  0  0  0  0  0
    5.7776   20.9452   45.3012 C   0  0  0  0  0  0  0  0  0  0  0  0
    5.0340   20.8420   47.8624 H   0  0  0  0  0  0  0  0  0  0  0  0
    4.1519   17.2582   46.5532 N   0  0  0  0  0  0  0  0  0  0  0  0
    4.5253   18.1345   46.1306 H   0  0  0  0  0  0  0  0  0  0  0  0
    4.5457   16.1504   45.7786 C   0  0  0  0  0  0  0  0  0  0  0  0
    3.7221   14.9067   45.8451 C   0  0  0  0  0  0  0  0  0  0  0  0
    4.4798   16.6096   44.3043 C   0  0  0  0  0  0  0  0  0  0  0  0
    6.0124   15.7741   45.9821 C   0  0  0  0  0  0  0  0  0  0  0  0
    7.5575   22.8474   52.1687 N   0  0  0  0  0  0  0  0  0  0  0  0
    8.3765   22.7200   52.8000 H   0  0  0  0  0  0  0  0  0  0  0  0
    8.0368   23.7803   49.9824 N   0  0  0  0  0  0  0  0  0  0  0  0
    7.1536   25.1660   51.6113 N   0  0  0  0  0  0  0  0  0  0  0  0
    8.5220   22.7290   49.3070 N   0  0  0  0  0  0  0  0  0  0  0  0
    7.6106   26.0635   49.5319 N   0  0  0  0  0  0  0  0  0  0  0  0
    7.5801   23.9399   51.2515 C   0  0  0  0  0  0  0  0  0  0  0  0
    8.0507   24.8420   49.1269 C   0  0  0  0  0  0  0  0  0  0  0  0
    8.8397   23.0831   48.0657 C   0  0  0  0  0  0  0  0  0  0  0  0
    8.5511   24.4395   47.9079 C   0  0  0  0  0  0  0  0  0  0  0  0
    7.1584   26.2207   50.7883 C   0  0  0  0  0  0  0  0  0  0  0  0
    9.4067   22.2830   46.9424 C   0  0  0  0  0  0  0  0  0  0  0  0
   10.7853   22.7375   46.5738 C   0  0  0  0  0  0  0  0  0  0  0  0
    8.5296   22.4938   45.7074 C   0  0  0  0  0  0  0  0  0  0  0  0
    9.3907   20.8055   47.2533 C   0  0  0  0  0  0  0  0  0  0  0  0
  1  6  2  0  0  0
 13 15  2  0  0  0
  2  3  1  0  0  0
  2  6  1  0  0  0
 18 20  1  0  0  0
 14 15  1  0  0  0
 24 30  1  0  0  0
 26 28  1  0  0  0
 26 30  1  0  0  0
 26 31  1  0  0  0
 27 30  2  0  0  0
 27 34  2  0  0  0
 28 32  2  0  0  0
 29 31  2  0  0  0
 29 34  2  0  0  0
  7  2  1  0  0  0
  7  8  1  0  0  0
  7 10  1  0  0  0
  8 14  1  0  0  0
  8 11  1  0  0  0
  9 18  1  0  0  0
  9 11  1  0  0  0
  9 12  1  0  0  0
 10 12  1  0  0  0
  3  5  1  0  0  0
  4  5  1  0  0  0
  4  6  1  0  0  0
  4 24  1  0  0  0
 20 21  1  0  0  0
 20 22  1  0  0  0
 20 23  1  0  0  0
 15 16  1  0  0  0
 31 33  2  0  0  0
 35 32  1  0  0  0
 35 36  1  0  0  0
 35 37  1  0  0  0
 35 38  1  0  0  0
 32 33  1  0  0  0
 18 19  1  0  0  0
 14 17  1  0  0  0
 24 25  1  0  0  0
M  END
> <minimizedAffinity>
-7.38738

$$$$
