CHR-6494


 24 27  0  0  0  0  0  0  0  0999 V2000
    7.1100   20.9786   46.9841 C   0  0  0  0  0  0  0  0  0  0  0  0
    6.7986   19.6708   46.6814 C   0  0  0  0  0  0  0  0  0  0  0  0
    5.8573   18.9356   47.3944 C   0  0  0  0  0  0  0  0  0  0  0  0
    5.2240   19.5652   48.4435 C   0  0  0  0  0  0  0  0  0  0  0  0
    5.5563   20.8393   48.7059 N   0  0  0  0  0  0  0  0  0  0  0  0
    6.4499   21.5281   48.0242 N   0  0  0  0  0  0  0  0  0  0  0  0
    4.2895   19.1169   49.2926 N   0  0  0  0  0  0  0  0  0  0  0  0
    3.9913   20.1130   50.1399 C   0  0  0  0  0  0  0  0  0  0  0  0
    4.7911   21.1877   49.7631 C   0  0  0  0  0  0  0  0  0  0  0  0
    4.7342   22.4659   50.4728 C   0  0  0  0  0  0  0  0  0  0  0  0
    4.0058   23.4703   49.8904 C   0  0  0  0  0  0  0  0  0  0  0  0
    3.9530   24.6804   50.5681 C   0  0  0  0  0  0  0  0  0  0  0  0
    4.6054   24.8667   51.7775 C   0  0  0  0  0  0  0  0  0  0  0  0
    5.3326   23.8332   52.3396 C   0  0  0  0  0  0  0  0  0  0  0  0
    5.3950   22.6299   51.6820 C   0  0  0  0  0  0  0  0  0  0  0  0
    3.3147   25.8498   50.2404 C   0  0  0  0  0  0  0  0  0  0  0  0
    3.5737   26.7155   51.2220 N   0  0  0  0  0  0  0  0  0  0  0  0
    4.3438   26.1473   52.1506 N   0  0  0  0  0  0  0  0  0  0  0  0
    4.7176   26.5581   53.0362 H   0  0  0  0  0  0  0  0  0  0  0  0
    8.0480   21.7373   46.2607 N   0  0  0  0  0  0  0  0  0  0  0  0
    7.7818   22.7400   46.0374 H   0  0  0  0  0  0  0  0  0  0  0  0
    9.3230   21.2938   45.7965 C   0  0  0  0  0  0  0  0  0  0  0  0
   10.4782   22.1930   46.1786 C   0  0  0  0  0  0  0  0  0  0  0  0
    9.9742   23.2554   47.1648 C   0  0  0  0  0  0  0  0  0  0  0  0
  1  2  1  0  0  0
  1 20  1  0  0  0
  2  3  2  0  0  0
  3  4  1  0  0  0
  4  5  1  0  0  0
  4  7  2  0  0  0
  5  6  1  0  0  0
  6  1  2  0  0  0
  7  8  2  0  0  0
  8  9  2  0  0  0
  9  5  1  0  0  0
  9 10  1  0  0  0
 20 22  1  0  0  0
 22 23  1  0  0  0
 23 24  1  0  0  0
 10 11  2  0  0  0
 11 12  1  0  0  0
 12 13  2  0  0  0
 12 16  1  0  0  0
 13 14  1  0  0  0
 14 15  2  0  0  0
 15 10  1  0  0  0
 16 17  2  0  0  0
 17 18  1  0  0  0
 18 13  1  0  0  0
 20 21  1  0  0  0
 18 19  1  0  0  0
M  END
> <minimizedAffinity>
-8.44966

$$$$
CHR-6494


 24 27  0  0  0  0  0  0  0  0999 V2000
    4.7936   23.2300   50.3539 C   0  0  0  0  0  0  0  0  0  0  0  0
    5.5189   23.6065   51.4635 C   0  0  0  0  0  0  0  0  0  0  0  0
    6.2613   22.7058   52.2201 C   0  0  0  0  0  0  0  0  0  0  0  0
    6.2539   21.3869   51.8220 C   0  0  0  0  0  0  0  0  0  0  0  0
    5.5344   21.0613   50.7363 N   0  0  0  0  0  0  0  0  0  0  0  0
    4.8338   21.9223   50.0252 N   0  0  0  0  0  0  0  0  0  0  0  0
    6.8645   20.3153   52.3455 N   0  0  0  0  0  0  0  0  0  0  0  0
    6.5460   19.2515   51.5931 C   0  0  0  0  0  0  0  0  0  0  0  0
    5.7119   19.7306   50.5874 C   0  0  0  0  0  0  0  0  0  0  0  0
    5.1618   18.8403   49.5649 C   0  0  0  0  0  0  0  0  0  0  0  0
    5.9307   18.6190   48.4520 C   0  0  0  0  0  0  0  0  0  0  0  0
    5.4057   17.7723   47.4857 C   0  0  0  0  0  0  0  0  0  0  0  0
    4.1624   17.1771   47.6367 C   0  0  0  0  0  0  0  0  0  0  0  0
    3.4104   17.4204   48.7718 C   0  0  0  0  0  0  0  0  0  0  0  0
    3.9152   18.2556   49.7372 C   0  0  0  0  0  0  0  0  0  0  0  0
    5.9320   17.3675   46.2850 C   0  0  0  0  0  0  0  0  0  0  0  0
    5.0341   16.5528   45.7285 N   0  0  0  0  0  0  0  0  0  0  0  0
    3.9688   16.4259   46.5207 N   0  0  0  0  0  0  0  0  0  0  0  0
    3.1011   15.8626   46.3704 H   0  0  0  0  0  0  0  0  0  0  0  0
    4.0523   24.1339   49.5716 N   0  0  0  0  0  0  0  0  0  0  0  0
    3.1724   23.7587   49.1122 H   0  0  0  0  0  0  0  0  0  0  0  0
    4.3648   25.5063   49.3334 C   0  0  0  0  0  0  0  0  0  0  0  0
    3.3990   26.4883   49.9596 C   0  0  0  0  0  0  0  0  0  0  0  0
    3.9040   26.8543   51.3619 C   0  0  0  0  0  0  0  0  0  0  0  0
  1  2  1  0  0  0
  1 20  1  0  0  0
  2  3  2  0  0  0
  3  4  1  0  0  0
  4  5  1  0  0  0
  4  7  2  0  0  0
  5  6  1  0  0  0
  6  1  2  0  0  0
  7  8  2  0  0  0
  8  9  2  0  0  0
  9  5  1  0  0  0
  9 10  1  0  0  0
 20 22  1  0  0  0
 22 23  1  0  0  0
 23 24  1  0  0  0
 10 11  2  0  0  0
 11 12  1  0  0  0
 12 13  2  0  0  0
 12 16  1  0  0  0
 13 14  1  0  0  0
 14 15  2  0  0  0
 15 10  1  0  0  0
 16 17  2  0  0  0
 17 18  1  0  0  0
 18 13  1  0  0  0
 20 21  1  0  0  0
 18 19  1  0  0  0
M  END
> <minimizedAffinity>
-8.36421

$$$$
CHR-6494


 24 27  0  0  0  0  0  0  0  0999 V2000
    8.1511   22.1874   48.2859 C   0  0  0  0  0  0  0  0  0  0  0  0
    8.6183   22.7534   49.4524 C   0  0  0  0  0  0  0  0  0  0  0  0
    8.2709   22.2781   50.7127 C   0  0  0  0  0  0  0  0  0  0  0  0
    7.4219   21.1946   50.7693 C   0  0  0  0  0  0  0  0  0  0  0  0
    6.9889   20.6730   49.6104 N   0  0  0  0  0  0  0  0  0  0  0  0
    7.3239   21.1304   48.4203 N   0  0  0  0  0  0  0  0  0  0  0  0
    6.9241   20.5318   51.8220 N   0  0  0  0  0  0  0  0  0  0  0  0
    6.1424   19.5465   51.3560 C   0  0  0  0  0  0  0  0  0  0  0  0
    6.1902   19.6443   49.9687 C   0  0  0  0  0  0  0  0  0  0  0  0
    5.4485   18.7177   49.1132 C   0  0  0  0  0  0  0  0  0  0  0  0
    6.1432   18.1161   48.0963 C   0  0  0  0  0  0  0  0  0  0  0  0
    5.4360   17.2364   47.2887 C   0  0  0  0  0  0  0  0  0  0  0  0
    4.0901   16.9767   47.4986 C   0  0  0  0  0  0  0  0  0  0  0  0
    3.4169   17.5999   48.5337 C   0  0  0  0  0  0  0  0  0  0  0  0
    4.1018   18.4730   49.3418 C   0  0  0  0  0  0  0  0  0  0  0  0
    5.8524   16.4968   46.2107 C   0  0  0  0  0  0  0  0  0  0  0  0
    4.7906   15.8116   45.7832 N   0  0  0  0  0  0  0  0  0  0  0  0
    3.7269   16.0845   46.5397 N   0  0  0  0  0  0  0  0  0  0  0  0
    2.7530   15.7121   46.4639 H   0  0  0  0  0  0  0  0  0  0  0  0
    8.5078   22.6488   47.0059 N   0  0  0  0  0  0  0  0  0  0  0  0
    8.8371   23.6550   46.9349 H   0  0  0  0  0  0  0  0  0  0  0  0
    8.4713   21.8988   45.7917 C   0  0  0  0  0  0  0  0  0  0  0  0
    9.6673   20.9982   45.5735 C   0  0  0  0  0  0  0  0  0  0  0  0
   10.9484   21.8277   45.7353 C   0  0  0  0  0  0  0  0  0  0  0  0
  1  2  1  0  0  0
  1 20  1  0  0  0
  2  3  2  0  0  0
  3  4  1  0  0  0
  4  5  1  0  0  0
  4  7  2  0  0  0
  5  6  1  0  0  0
  6  1  2  0  0  0
  7  8  2  0  0  0
  8  9  2  0  0  0
  9  5  1  0  0  0
  9 10  1  0  0  0
 20 22  1  0  0  0
 22 23  1  0  0  0
 23 24  1  0  0  0
 10 11  2  0  0  0
 11 12  1  0  0  0
 12 13  2  0  0  0
 12 16  1  0  0  0
 13 14  1  0  0  0
 14 15  2  0  0  0
 15 10  1  0  0  0
 16 17  2  0  0  0
 17 18  1  0  0  0
 18 13  1  0  0  0
 20 21  1  0  0  0
 18 19  1  0  0  0
M  END
> <minimizedAffinity>
-8.03817

$$$$
CHR-6494


 24 27  0  0  0  0  0  0  0  0999 V2000
    5.0578   18.7299   50.5367 C   0  0  0  0  0  0  0  0  0  0  0  0
    4.0336   17.9508   50.0434 C   0  0  0  0  0  0  0  0  0  0  0  0
    3.7558   17.8429   48.6847 C   0  0  0  0  0  0  0  0  0  0  0  0
    4.5532   18.5557   47.8164 C   0  0  0  0  0  0  0  0  0  0  0  0
    5.5397   19.3029   48.3372 N   0  0  0  0  0  0  0  0  0  0  0  0
    5.7955   19.3988   49.6268 N   0  0  0  0  0  0  0  0  0  0  0  0
    4.5240   18.6442   46.4798 N   0  0  0  0  0  0  0  0  0  0  0  0
    5.5122   19.4678   46.1001 C   0  0  0  0  0  0  0  0  0  0  0  0
    6.1423   19.8749   47.2722 C   0  0  0  0  0  0  0  0  0  0  0  0
    7.2838   20.7897   47.2459 C   0  0  0  0  0  0  0  0  0  0  0  0
    8.2845   20.5121   46.3513 C   0  0  0  0  0  0  0  0  0  0  0  0
    9.3644   21.3838   46.3285 C   0  0  0  0  0  0  0  0  0  0  0  0
    9.4300   22.4842   47.1699 C   0  0  0  0  0  0  0  0  0  0  0  0
    8.4037   22.7372   48.0618 C   0  0  0  0  0  0  0  0  0  0  0  0
    7.3283   21.8847   48.0971 C   0  0  0  0  0  0  0  0  0  0  0  0
   10.4976   21.3669   45.5552 C   0  0  0  0  0  0  0  0  0  0  0  0
   11.2249   22.4248   45.9185 N   0  0  0  0  0  0  0  0  0  0  0  0
   10.6042   23.1056   46.8826 N   0  0  0  0  0  0  0  0  0  0  0  0
   10.9111   23.9747   47.3760 H   0  0  0  0  0  0  0  0  0  0  0  0
    5.3587   18.8344   51.9068 N   0  0  0  0  0  0  0  0  0  0  0  0
    5.0494   18.0308   52.5269 H   0  0  0  0  0  0  0  0  0  0  0  0
    6.0388   19.9137   52.5474 C   0  0  0  0  0  0  0  0  0  0  0  0
    5.3642   21.2595   52.3962 C   0  0  0  0  0  0  0  0  0  0  0  0
    6.3748   22.2582   51.8162 C   0  0  0  0  0  0  0  0  0  0  0  0
  1  2  1  0  0  0
  1 20  1  0  0  0
  2  3  2  0  0  0
  3  4  1  0  0  0
  4  5  1  0  0  0
  4  7  2  0  0  0
  5  6  1  0  0  0
  6  1  2  0  0  0
  7  8  2  0  0  0
  8  9  2  0  0  0
  9  5  1  0  0  0
  9 10  1  0  0  0
 20 22  1  0  0  0
 22 23  1  0  0  0
 23 24  1  0  0  0
 10 11  2  0  0  0
 11 12  1  0  0  0
 12 13  2  0  0  0
 12 16  1  0  0  0
 13 14  1  0  0  0
 14 15  2  0  0  0
 15 10  1  0  0  0
 16 17  2  0  0  0
 17 18  1  0  0  0
 18 13  1  0  0  0
 20 21  1  0  0  0
 18 19  1  0  0  0
M  END
> <minimizedAffinity>
-7.96458

$$$$
CHR-6494


 24 27  0  0  0  0  0  0  0  0999 V2000
    6.5424   19.6432   46.7861 C   0  0  0  0  0  0  0  0  0  0  0  0
    5.7649   18.6355   46.2578 C   0  0  0  0  0  0  0  0  0  0  0  0
    4.4521   18.4081   46.6574 C   0  0  0  0  0  0  0  0  0  0  0  0
    3.9311   19.2396   47.6244 C   0  0  0  0  0  0  0  0  0  0  0  0
    4.7214   20.2085   48.1137 N   0  0  0  0  0  0  0  0  0  0  0  0
    5.9648   20.4165   47.7285 N   0  0  0  0  0  0  0  0  0  0  0  0
    2.7188   19.2604   48.1947 N   0  0  0  0  0  0  0  0  0  0  0  0
    2.6992   20.2648   49.0835 C   0  0  0  0  0  0  0  0  0  0  0  0
    3.9594   20.8521   49.0245 C   0  0  0  0  0  0  0  0  0  0  0  0
    4.3070   21.9969   49.8669 C   0  0  0  0  0  0  0  0  0  0  0  0
    5.2704   21.7986   50.8215 C   0  0  0  0  0  0  0  0  0  0  0  0
    5.5982   22.8878   51.6168 C   0  0  0  0  0  0  0  0  0  0  0  0
    4.9817   24.1194   51.4552 C   0  0  0  0  0  0  0  0  0  0  0  0
    4.0129   24.2875   50.4825 C   0  0  0  0  0  0  0  0  0  0  0  0
    3.6769   23.2201   49.6874 C   0  0  0  0  0  0  0  0  0  0  0  0
    6.5081   22.9943   52.6382 C   0  0  0  0  0  0  0  0  0  0  0  0
    6.4429   24.2517   53.0795 N   0  0  0  0  0  0  0  0  0  0  0  0
    5.5363   24.9407   52.3854 N   0  0  0  0  0  0  0  0  0  0  0  0
    5.2521   25.9415   52.4869 H   0  0  0  0  0  0  0  0  0  0  0  0
    7.8654   19.8932   46.3788 N   0  0  0  0  0  0  0  0  0  0  0  0
    8.2235   19.3369   45.5492 H   0  0  0  0  0  0  0  0  0  0  0  0
    8.7755   20.8208   46.9698 C   0  0  0  0  0  0  0  0  0  0  0  0
    9.0753   22.0354   46.1189 C   0  0  0  0  0  0  0  0  0  0  0  0
   10.5823   22.3198   46.1745 C   0  0  0  0  0  0  0  0  0  0  0  0
  1  2  1  0  0  0
  1 20  1  0  0  0
  2  3  2  0  0  0
  3  4  1  0  0  0
  4  5  1  0  0  0
  4  7  2  0  0  0
  5  6  1  0  0  0
  6  1  2  0  0  0
  7  8  2  0  0  0
  8  9  2  0  0  0
  9  5  1  0  0  0
  9 10  1  0  0  0
 20 22  1  0  0  0
 22 23  1  0  0  0
 23 24  1  0  0  0
 10 11  2  0  0  0
 11 12  1  0  0  0
 12 13  2  0  0  0
 12 16  1  0  0  0
 13 14  1  0  0  0
 14 15  2  0  0  0
 15 10  1  0  0  0
 16 17  2  0  0  0
 17 18  1  0  0  0
 18 13  1  0  0  0
 20 21  1  0  0  0
 18 19  1  0  0  0
M  END
> <minimizedAffinity>
-7.90878

$$$$
