Cyclic Pifithrin-¦Á hydrobromide


 19 22  0  0  0  0  0  0  0  0999 V2000
    5.4562   20.9166   52.1671 S   0  0  0  0  0  0  0  0  0  0  0  0
    5.2896   20.1714   50.4799 C   0  0  0  0  0  0  0  0  0  0  0  0
    5.1052   21.1982   49.6763 N   0  0  0  0  0  0  0  0  0  0  0  0
    5.0800   22.4127   50.1834 C   0  0  0  0  0  0  0  0  0  0  0  0
    5.2458   22.5762   51.5308 C   0  0  0  0  0  0  0  0  0  0  0  0
    4.8826   23.7612   49.4663 C   0  0  0  0  0  0  0  0  0  0  0  0
    3.7720   24.4355   50.2331 C   0  0  0  0  0  0  0  0  0  0  0  0
    4.1336   24.7206   51.6574 C   0  0  0  0  0  0  0  0  0  0  0  0
    5.2360   23.8666   52.1922 C   0  0  0  0  0  0  0  0  0  0  0  0
    5.2982   18.9844   49.8601 N   0  0  0  0  0  0  0  0  0  0  0  0
    5.1022   19.2458   48.5273 C   0  0  0  0  0  0  0  0  0  0  0  0
    4.9851   20.6142   48.4302 C   0  0  0  0  0  0  0  0  0  0  0  0
    5.0451   18.2183   47.5021 C   0  0  0  0  0  0  0  0  0  0  0  0
    5.9243   18.3097   46.4423 C   0  0  0  0  0  0  0  0  0  0  0  0
    5.9057   17.3561   45.4455 C   0  0  0  0  0  0  0  0  0  0  0  0
    4.9732   16.3193   45.5628 C   0  0  0  0  0  0  0  0  0  0  0  0
    4.1011   16.2486   46.6352 C   0  0  0  0  0  0  0  0  0  0  0  0
    4.1195   17.2038   47.6341 C   0  0  0  0  0  0  0  0  0  0  0  0
    4.9606   15.2950   44.4823 C   0  0  0  0  0  0  0  0  0  0  0  0
  1  2  1  0  0  0
  1  5  1  0  0  0
  2  3  1  0  0  0
  2 10  2  0  0  0
  3  4  1  0  0  0
  3 12  1  0  0  0
  4  5  2  0  0  0
  4  6  1  0  0  0
  5  9  1  0  0  0
  6  7  1  0  0  0
  7  8  1  0  0  0
  8  9  1  0  0  0
 10 11  2  0  0  0
 11 12  2  0  0  0
 11 13  1  0  0  0
 13 14  2  0  0  0
 13 18  1  0  0  0
 14 15  1  0  0  0
 15 16  2  0  0  0
 16 17  1  0  0  0
 16 19  1  0  0  0
 17 18  2  0  0  0
M  END
> <minimizedAffinity>
-8.49501

$$$$
Cyclic Pifithrin-¦Á hydrobromide


 19 22  0  0  0  0  0  0  0  0999 V2000
    5.6313   21.0649   52.1560 S   0  0  0  0  0  0  0  0  0  0  0  0
    5.4107   20.2946   50.4865 C   0  0  0  0  0  0  0  0  0  0  0  0
    5.1302   21.3021   49.6864 N   0  0  0  0  0  0  0  0  0  0  0  0
    5.0708   22.5192   50.1847 C   0  0  0  0  0  0  0  0  0  0  0  0
    5.3017   22.7050   51.5195 C   0  0  0  0  0  0  0  0  0  0  0  0
    4.7657   23.8483   49.4692 C   0  0  0  0  0  0  0  0  0  0  0  0
    3.6659   24.4735   50.2911 C   0  0  0  0  0  0  0  0  0  0  0  0
    4.0899   24.7915   51.6909 C   0  0  0  0  0  0  0  0  0  0  0  0
    5.2623   24.0001   52.1706 C   0  0  0  0  0  0  0  0  0  0  0  0
    5.4460   19.1030   49.8762 N   0  0  0  0  0  0  0  0  0  0  0  0
    5.1641   19.3401   48.5544 C   0  0  0  0  0  0  0  0  0  0  0  0
    4.9720   20.6998   48.4534 C   0  0  0  0  0  0  0  0  0  0  0  0
    5.1034   18.3004   47.5419 C   0  0  0  0  0  0  0  0  0  0  0  0
    4.1727   17.2938   47.7006 C   0  0  0  0  0  0  0  0  0  0  0  0
    4.0795   16.2856   46.7635 C   0  0  0  0  0  0  0  0  0  0  0  0
    4.9551   16.3361   45.6732 C   0  0  0  0  0  0  0  0  0  0  0  0
    5.8806   17.3559   45.5353 C   0  0  0  0  0  0  0  0  0  0  0  0
    5.9743   18.3663   46.4739 C   0  0  0  0  0  0  0  0  0  0  0  0
    4.8471   15.2437   44.6673 C   0  0  0  0  0  0  0  0  0  0  0  0
  1  2  1  0  0  0
  1  5  1  0  0  0
  2  3  1  0  0  0
  2 10  2  0  0  0
  3  4  1  0  0  0
  3 12  1  0  0  0
  4  5  2  0  0  0
  4  6  1  0  0  0
  5  9  1  0  0  0
  6  7  1  0  0  0
  7  8  1  0  0  0
  8  9  1  0  0  0
 10 11  2  0  0  0
 11 12  2  0  0  0
 11 13  1  0  0  0
 13 14  2  0  0  0
 13 18  1  0  0  0
 14 15  1  0  0  0
 15 16  2  0  0  0
 16 17  1  0  0  0
 16 19  1  0  0  0
 17 18  2  0  0  0
M  END
> <minimizedAffinity>
-8.43565

$$$$
Cyclic Pifithrin-¦Á hydrobromide


 19 22  0  0  0  0  0  0  0  0999 V2000
    6.2118   20.4300   48.3298 S   0  0  0  0  0  0  0  0  0  0  0  0
    5.8771   18.8834   47.3678 C   0  0  0  0  0  0  0  0  0  0  0  0
    5.0451   18.1937   48.1201 N   0  0  0  0  0  0  0  0  0  0  0  0
    4.6633   18.6923   49.2772 C   0  0  0  0  0  0  0  0  0  0  0  0
    5.1408   19.9127   49.6673 C   0  0  0  0  0  0  0  0  0  0  0  0
    3.7103   18.0915   50.3272 C   0  0  0  0  0  0  0  0  0  0  0  0
    4.4841   18.1615   51.6204 C   0  0  0  0  0  0  0  0  0  0  0  0
    4.8023   19.5635   52.0369 C   0  0  0  0  0  0  0  0  0  0  0  0
    4.7855   20.5535   50.9186 C   0  0  0  0  0  0  0  0  0  0  0  0
    6.1985   18.2843   46.2140 N   0  0  0  0  0  0  0  0  0  0  0  0
    5.5201   17.0916   46.1987 C   0  0  0  0  0  0  0  0  0  0  0  0
    4.8139   17.0504   47.3800 C   0  0  0  0  0  0  0  0  0  0  0  0
    5.5963   16.1324   45.1105 C   0  0  0  0  0  0  0  0  0  0  0  0
    6.3485   14.9915   45.3029 C   0  0  0  0  0  0  0  0  0  0  0  0
    6.4490   14.0530   44.2966 C   0  0  0  0  0  0  0  0  0  0  0  0
    5.7665   14.3123   43.1029 C   0  0  0  0  0  0  0  0  0  0  0  0
    5.0180   15.4642   42.9331 C   0  0  0  0  0  0  0  0  0  0  0  0
    4.9170   16.4046   43.9410 C   0  0  0  0  0  0  0  0  0  0  0  0
    5.8809   13.2940   42.0228 C   0  0  0  0  0  0  0  0  0  0  0  0
  1  2  1  0  0  0
  1  5  1  0  0  0
  2  3  1  0  0  0
  2 10  2  0  0  0
  3  4  1  0  0  0
  3 12  1  0  0  0
  4  5  2  0  0  0
  4  6  1  0  0  0
  5  9  1  0  0  0
  6  7  1  0  0  0
  7  8  1  0  0  0
  8  9  1  0  0  0
 10 11  2  0  0  0
 11 12  2  0  0  0
 11 13  1  0  0  0
 13 14  2  0  0  0
 13 18  1  0  0  0
 14 15  1  0  0  0
 15 16  2  0  0  0
 16 17  1  0  0  0
 16 19  1  0  0  0
 17 18  2  0  0  0
M  END
> <minimizedAffinity>
-8.23590

$$$$
Cyclic Pifithrin-¦Á hydrobromide


 19 22  0  0  0  0  0  0  0  0999 V2000
    4.3318   23.4297   49.4400 S   0  0  0  0  0  0  0  0  0  0  0  0
    4.6423   21.6794   48.9210 C   0  0  0  0  0  0  0  0  0  0  0  0
    5.2907   21.1396   49.9320 N   0  0  0  0  0  0  0  0  0  0  0  0
    5.5562   21.8764   50.9902 C   0  0  0  0  0  0  0  0  0  0  0  0
    5.1519   23.1825   51.0115 C   0  0  0  0  0  0  0  0  0  0  0  0
    6.2913   21.4867   52.2861 C   0  0  0  0  0  0  0  0  0  0  0  0
    7.3521   22.5470   52.4496 C   0  0  0  0  0  0  0  0  0  0  0  0
    6.7840   23.9189   52.6379 C   0  0  0  0  0  0  0  0  0  0  0  0
    5.3909   24.0809   52.1243 C   0  0  0  0  0  0  0  0  0  0  0  0
    4.4253   20.8419   47.8988 N   0  0  0  0  0  0  0  0  0  0  0  0
    4.9783   19.6400   48.2630 C   0  0  0  0  0  0  0  0  0  0  0  0
    5.5076   19.8396   49.5183 C   0  0  0  0  0  0  0  0  0  0  0  0
    4.9585   18.4541   47.4245 C   0  0  0  0  0  0  0  0  0  0  0  0
    5.8275   18.4022   46.3537 C   0  0  0  0  0  0  0  0  0  0  0  0
    5.8432   17.2952   45.5303 C   0  0  0  0  0  0  0  0  0  0  0  0
    4.9553   16.2561   45.8303 C   0  0  0  0  0  0  0  0  0  0  0  0
    4.0926   16.3309   46.9101 C   0  0  0  0  0  0  0  0  0  0  0  0
    4.0766   17.4397   47.7352 C   0  0  0  0  0  0  0  0  0  0  0  0
    4.9795   15.0658   44.9362 C   0  0  0  0  0  0  0  0  0  0  0  0
  1  2  1  0  0  0
  1  5  1  0  0  0
  2  3  1  0  0  0
  2 10  2  0  0  0
  3  4  1  0  0  0
  3 12  1  0  0  0
  4  5  2  0  0  0
  4  6  1  0  0  0
  5  9  1  0  0  0
  6  7  1  0  0  0
  7  8  1  0  0  0
  8  9  1  0  0  0
 10 11  2  0  0  0
 11 12  2  0  0  0
 11 13  1  0  0  0
 13 14  2  0  0  0
 13 18  1  0  0  0
 14 15  1  0  0  0
 15 16  2  0  0  0
 16 17  1  0  0  0
 16 19  1  0  0  0
 17 18  2  0  0  0
M  END
> <minimizedAffinity>
-8.11115

$$$$
Cyclic Pifithrin-¦Á hydrobromide


 19 22  0  0  0  0  0  0  0  0999 V2000
    3.1676   19.0333   50.6344 S   0  0  0  0  0  0  0  0  0  0  0  0
    4.0258   18.2431   49.1961 C   0  0  0  0  0  0  0  0  0  0  0  0
    5.2961   18.5531   49.3516 N   0  0  0  0  0  0  0  0  0  0  0  0
    5.6559   19.2827   50.3866 C   0  0  0  0  0  0  0  0  0  0  0  0
    4.7014   19.6994   51.2727 C   0  0  0  0  0  0  0  0  0  0  0  0
    7.0590   19.7740   50.7885 C   0  0  0  0  0  0  0  0  0  0  0  0
    6.8925   21.2594   50.9934 C   0  0  0  0  0  0  0  0  0  0  0  0
    5.9512   21.5946   52.1078 C   0  0  0  0  0  0  0  0  0  0  0  0
    4.9873   20.5043   52.4443 C   0  0  0  0  0  0  0  0  0  0  0  0
    3.7716   17.4988   48.1122 N   0  0  0  0  0  0  0  0  0  0  0  0
    4.9796   17.2967   47.4933 C   0  0  0  0  0  0  0  0  0  0  0  0
    5.9090   17.9525   48.2691 C   0  0  0  0  0  0  0  0  0  0  0  0
    5.1427   16.5308   46.2699 C   0  0  0  0  0  0  0  0  0  0  0  0
    6.0804   16.9629   45.3542 C   0  0  0  0  0  0  0  0  0  0  0  0
    6.2693   16.2663   44.1784 C   0  0  0  0  0  0  0  0  0  0  0  0
    5.4810   15.1292   43.9691 C   0  0  0  0  0  0  0  0  0  0  0  0
    4.5466   14.7151   44.9024 C   0  0  0  0  0  0  0  0  0  0  0  0
    4.3571   15.4127   46.0805 C   0  0  0  0  0  0  0  0  0  0  0  0
    5.6919   14.3841   42.6975 C   0  0  0  0  0  0  0  0  0  0  0  0
  1  2  1  0  0  0
  1  5  1  0  0  0
  2  3  1  0  0  0
  2 10  2  0  0  0
  3  4  1  0  0  0
  3 12  1  0  0  0
  4  5  2  0  0  0
  4  6  1  0  0  0
  5  9  1  0  0  0
  6  7  1  0  0  0
  7  8  1  0  0  0
  8  9  1  0  0  0
 10 11  2  0  0  0
 11 12  2  0  0  0
 11 13  1  0  0  0
 13 14  2  0  0  0
 13 18  1  0  0  0
 14 15  1  0  0  0
 15 16  2  0  0  0
 16 17  1  0  0  0
 16 19  1  0  0  0
 17 18  2  0  0  0
M  END
> <minimizedAffinity>
-7.97772

$$$$
