D-Mannose


 17 17  0  0  0  0  0  0  0  0999 V2000
    4.3515   20.1971   49.5444 C   0  0  0  0  0  0  0  0  0  0  0  0
    3.8155   19.4344   50.7429 C   0  0  0  0  0  0  0  0  0  0  0  0
    5.5142   20.8576   49.8025 O   0  0  0  0  0  0  0  0  0  0  0  0
    4.8604   18.3789   51.0481 C   0  0  0  0  0  0  0  0  0  0  0  0
    2.5761   18.9134   50.4852 O   0  0  0  0  0  0  0  0  0  0  0  0
    6.4949   20.2125   50.4715 C   0  0  0  0  0  0  0  0  0  0  0  0
    6.1064   19.1296   51.4026 C   0  0  0  0  0  0  0  0  0  0  0  0
    4.4901   17.5703   52.1104 O   0  0  0  0  0  0  0  0  0  0  0  0
    7.2517   21.1544   51.1706 O   0  0  0  0  0  0  0  0  0  0  0  0
    5.9151   19.6564   52.6828 O   0  0  0  0  0  0  0  0  0  0  0  0
    2.3783   18.2374   51.2030 H   0  0  0  0  0  0  0  0  0  0  0  0
    4.8737   16.6672   51.9662 H   0  0  0  0  0  0  0  0  0  0  0  0
    6.6917   21.9357   51.3510 H   0  0  0  0  0  0  0  0  0  0  0  0
    6.7099   19.5416   53.2604 H   0  0  0  0  0  0  0  0  0  0  0  0
    3.3165   21.2545   49.1713 C   0  0  0  0  0  0  0  0  0  0  0  0
    2.2265   20.7188   48.4990 O   0  0  0  0  0  0  0  0  0  0  0  0
    2.4667   20.3397   47.6188 H   0  0  0  0  0  0  0  0  0  0  0  0
  1  2  1  0  0  0
  1  3  1  0  0  0
  1 15  1  0  0  0
  2  4  1  0  0  0
  2  5  1  0  0  0
  3  6  1  0  0  0
 15 16  1  0  0  0
  4  7  1  0  0  0
  4  8  1  0  0  0
  6  9  1  0  0  0
  6  7  1  0  0  0
  7 10  1  0  0  0
  5 11  1  0  0  0
 16 17  1  0  0  0
  8 12  1  0  0  0
  9 13  1  0  0  0
 10 14  1  0  0  0
M  END
> <minimizedAffinity>
-5.99341

$$$$
D-Mannose


 17 17  0  0  0  0  0  0  0  0999 V2000
    5.4600   20.5226   50.1161 C   0  0  0  0  0  0  0  0  0  0  0  0
    6.0149   20.0021   51.4301 C   0  0  0  0  0  0  0  0  0  0  0  0
    4.5703   19.6723   49.5328 O   0  0  0  0  0  0  0  0  0  0  0  0
    4.8223   19.9094   52.3619 C   0  0  0  0  0  0  0  0  0  0  0  0
    7.0119   20.8122   51.9029 O   0  0  0  0  0  0  0  0  0  0  0  0
    3.6111   19.1076   50.2987 C   0  0  0  0  0  0  0  0  0  0  0  0
    3.8946   18.9131   51.7383 C   0  0  0  0  0  0  0  0  0  0  0  0
    5.1819   19.4766   53.6279 O   0  0  0  0  0  0  0  0  0  0  0  0
    3.2625   17.8764   49.7406 O   0  0  0  0  0  0  0  0  0  0  0  0
    4.4569   17.6498   51.9404 O   0  0  0  0  0  0  0  0  0  0  0  0
    7.1732   20.5622   52.8635 H   0  0  0  0  0  0  0  0  0  0  0  0
    4.5665   19.8889   54.2873 H   0  0  0  0  0  0  0  0  0  0  0  0
    4.0223   17.5388   49.2254 H   0  0  0  0  0  0  0  0  0  0  0  0
    3.7873   16.9806   52.2273 H   0  0  0  0  0  0  0  0  0  0  0  0
    6.6304   20.6691   49.1481 C   0  0  0  0  0  0  0  0  0  0  0  0
    7.6111   19.7072   49.3489 O   0  0  0  0  0  0  0  0  0  0  0  0
    8.0539   19.7881   50.2284 H   0  0  0  0  0  0  0  0  0  0  0  0
  1  2  1  0  0  0
  1  3  1  0  0  0
  1 15  1  0  0  0
  2  4  1  0  0  0
  2  5  1  0  0  0
  3  6  1  0  0  0
 15 16  1  0  0  0
  4  7  1  0  0  0
  4  8  1  0  0  0
  6  9  1  0  0  0
  6  7  1  0  0  0
  7 10  1  0  0  0
  5 11  1  0  0  0
 16 17  1  0  0  0
  8 12  1  0  0  0
  9 13  1  0  0  0
 10 14  1  0  0  0
M  END
> <minimizedAffinity>
-5.92048

$$$$
D-Mannose


 17 17  0  0  0  0  0  0  0  0999 V2000
    4.2686   19.8186   50.6776 C   0  0  0  0  0  0  0  0  0  0  0  0
    3.2951   19.1518   49.7220 C   0  0  0  0  0  0  0  0  0  0  0  0
    5.5604   19.7733   50.2488 O   0  0  0  0  0  0  0  0  0  0  0  0
    3.3617   19.9677   48.4457 C   0  0  0  0  0  0  0  0  0  0  0  0
    2.0381   19.0868   50.2601 O   0  0  0  0  0  0  0  0  0  0  0  0
    5.8296   20.0757   48.9597 C   0  0  0  0  0  0  0  0  0  0  0  0
    4.7701   19.8399   47.9535 C   0  0  0  0  0  0  0  0  0  0  0  0
    2.4896   19.4951   47.4784 O   0  0  0  0  0  0  0  0  0  0  0  0
    6.9786   19.3850   48.5705 O   0  0  0  0  0  0  0  0  0  0  0  0
    4.9022   18.5533   47.4242 O   0  0  0  0  0  0  0  0  0  0  0  0
    1.4024   18.8615   49.5142 H   0  0  0  0  0  0  0  0  0  0  0  0
    2.1879   20.2615   46.9262 H   0  0  0  0  0  0  0  0  0  0  0  0
    7.0658   18.5835   49.1241 H   0  0  0  0  0  0  0  0  0  0  0  0
    5.3880   18.5482   46.5626 H   0  0  0  0  0  0  0  0  0  0  0  0
    4.2144   19.0544   51.9972 C   0  0  0  0  0  0  0  0  0  0  0  0
    4.3098   17.6807   51.8214 O   0  0  0  0  0  0  0  0  0  0  0  0
    3.5422   17.3026   51.3275 H   0  0  0  0  0  0  0  0  0  0  0  0
  1  2  1  0  0  0
  1  3  1  0  0  0
  1 15  1  0  0  0
  2  4  1  0  0  0
  2  5  1  0  0  0
  3  6  1  0  0  0
 15 16  1  0  0  0
  4  7  1  0  0  0
  4  8  1  0  0  0
  6  9  1  0  0  0
  6  7  1  0  0  0
  7 10  1  0  0  0
  5 11  1  0  0  0
 16 17  1  0  0  0
  8 12  1  0  0  0
  9 13  1  0  0  0
 10 14  1  0  0  0
M  END
> <minimizedAffinity>
-5.87510

$$$$
D-Mannose


 17 17  0  0  0  0  0  0  0  0999 V2000
    5.4003   20.5401   49.9283 C   0  0  0  0  0  0  0  0  0  0  0  0
    5.6070   19.1618   50.5310 C   0  0  0  0  0  0  0  0  0  0  0  0
    4.3332   20.6044   49.0846 O   0  0  0  0  0  0  0  0  0  0  0  0
    4.3703   18.8994   51.3682 C   0  0  0  0  0  0  0  0  0  0  0  0
    6.7712   19.1040   51.2488 O   0  0  0  0  0  0  0  0  0  0  0  0
    3.1668   20.0388   49.4657 C   0  0  0  0  0  0  0  0  0  0  0  0
    3.2211   18.8991   50.4085 C   0  0  0  0  0  0  0  0  0  0  0  0
    4.4300   17.6772   52.0179 O   0  0  0  0  0  0  0  0  0  0  0  0
    2.4695   19.6423   48.3232 O   0  0  0  0  0  0  0  0  0  0  0  0
    3.2868   17.7002   49.6935 O   0  0  0  0  0  0  0  0  0  0  0  0
    6.7396   18.2683   51.8071 H   0  0  0  0  0  0  0  0  0  0  0  0
    3.9341   17.7517   52.8734 H   0  0  0  0  0  0  0  0  0  0  0  0
    3.1118   19.4815   47.6034 H   0  0  0  0  0  0  0  0  0  0  0  0
    2.4017   17.2691   49.5981 H   0  0  0  0  0  0  0  0  0  0  0  0
    6.6385   20.8705   49.1000 C   0  0  0  0  0  0  0  0  0  0  0  0
    7.2765   19.7349   48.6197 O   0  0  0  0  0  0  0  0  0  0  0  0
    7.6494   19.1705   49.3397 H   0  0  0  0  0  0  0  0  0  0  0  0
  1  2  1  0  0  0
  1  3  1  0  0  0
  1 15  1  0  0  0
  2  4  1  0  0  0
  2  5  1  0  0  0
  3  6  1  0  0  0
 15 16  1  0  0  0
  4  7  1  0  0  0
  4  8  1  0  0  0
  6  9  1  0  0  0
  6  7  1  0  0  0
  7 10  1  0  0  0
  5 11  1  0  0  0
 16 17  1  0  0  0
  8 12  1  0  0  0
  9 13  1  0  0  0
 10 14  1  0  0  0
M  END
> <minimizedAffinity>
-5.87130

$$$$
D-Mannose


 17 17  0  0  0  0  0  0  0  0999 V2000
    5.3727   20.3676   50.4387 C   0  0  0  0  0  0  0  0  0  0  0  0
    4.2003   21.2081   49.9648 C   0  0  0  0  0  0  0  0  0  0  0  0
    5.0137   19.1122   50.8256 O   0  0  0  0  0  0  0  0  0  0  0  0
    3.6731   20.5032   48.7302 C   0  0  0  0  0  0  0  0  0  0  0  0
    4.5804   22.5022   49.7308 O   0  0  0  0  0  0  0  0  0  0  0  0
    4.1688   18.4061   50.0426 C   0  0  0  0  0  0  0  0  0  0  0  0
    3.2148   19.1556   49.1949 C   0  0  0  0  0  0  0  0  0  0  0  0
    2.6091   21.1808   48.1571 O   0  0  0  0  0  0  0  0  0  0  0  0
    3.4516   17.5190   50.8473 O   0  0  0  0  0  0  0  0  0  0  0  0
    2.0186   19.3491   49.8910 O   0  0  0  0  0  0  0  0  0  0  0  0
    3.8440   22.9422   49.2061 H   0  0  0  0  0  0  0  0  0  0  0  0
    2.6272   21.0234   47.1782 H   0  0  0  0  0  0  0  0  0  0  0  0
    3.4118   17.8807   51.7552 H   0  0  0  0  0  0  0  0  0  0  0  0
    1.3316   18.6780   49.6539 H   0  0  0  0  0  0  0  0  0  0  0  0
    5.9657   21.0550   51.6652 C   0  0  0  0  0  0  0  0  0  0  0  0
    6.8194   20.2257   52.3796 O   0  0  0  0  0  0  0  0  0  0  0  0
    6.3564   19.4487   52.7771 H   0  0  0  0  0  0  0  0  0  0  0  0
  1  2  1  0  0  0
  1  3  1  0  0  0
  1 15  1  0  0  0
  2  4  1  0  0  0
  2  5  1  0  0  0
  3  6  1  0  0  0
 15 16  1  0  0  0
  4  7  1  0  0  0
  4  8  1  0  0  0
  6  9  1  0  0  0
  6  7  1  0  0  0
  7 10  1  0  0  0
  5 11  1  0  0  0
 16 17  1  0  0  0
  8 12  1  0  0  0
  9 13  1  0  0  0
 10 14  1  0  0  0
M  END
> <minimizedAffinity>
-5.75214

$$$$
