DMU2139


 22 24  0  0  0  0  0  0  0  0999 V2000
    4.7376   17.9436   47.5567 C   0  0  0  0  0  0  0  0  0  0  0  0
    5.6200   18.2925   46.5715 C   0  0  0  0  0  0  0  0  0  0  0  0
    5.3303   19.8933   48.8992 C   0  0  0  0  0  0  0  0  0  0  0  0
    4.5822   18.7142   48.7026 C   0  0  0  0  0  0  0  0  0  0  0  0
    6.3573   19.4315   46.7382 C   0  0  0  0  0  0  0  0  0  0  0  0
    5.7985   17.5528   45.4251 C   0  0  0  0  0  0  0  0  0  0  0  0
    4.0007   16.7929   47.3755 C   0  0  0  0  0  0  0  0  0  0  0  0
    6.1922   20.2005   47.8977 C   0  0  0  0  0  0  0  0  0  0  0  0
    5.0675   16.3995   45.2316 C   0  0  0  0  0  0  0  0  0  0  0  0
    4.1710   16.0403   46.2271 C   0  0  0  0  0  0  0  0  0  0  0  0
    5.2121   15.6166   44.0884 O   0  0  0  0  0  0  0  0  0  0  0  0
    6.4002   14.8614   43.9444 C   0  0  0  0  0  0  0  0  0  0  0  0
    5.1136   19.8231   51.1783 O   0  0  0  0  0  0  0  0  0  0  0  0
    5.0830   20.6023   50.1182 C   0  0  0  0  0  0  0  0  0  0  0  0
    4.8116   21.9589   50.4402 C   0  0  0  0  0  0  0  0  0  0  0  0
    4.5422   23.0029   49.7175 C   0  0  0  0  0  0  0  0  0  0  0  0
    3.8950   25.8927   52.0229 N   0  0  0  0  0  0  0  0  0  0  0  0
    4.2855   24.3523   50.2495 C   0  0  0  0  0  0  0  0  0  0  0  0
    4.1856   25.4445   49.3877 C   0  0  0  0  0  0  0  0  0  0  0  0
    4.1313   24.6237   51.5845 C   0  0  0  0  0  0  0  0  0  0  0  0
    3.9469   26.7224   49.8386 C   0  0  0  0  0  0  0  0  0  0  0  0
    3.8033   26.9173   51.1899 C   0  0  0  0  0  0  0  0  0  0  0  0
 11  9  1  0  0  0
 11 12  1  0  0  0
 13 14  2  0  0  0
 17 20  2  0  0  0
 17 22  2  0  0  0
  1  2  1  0  0  0
  1  4  2  0  0  0
  1  7  1  0  0  0
  2  5  2  0  0  0
  2  6  1  0  0  0
  3  4  1  0  0  0
  3  8  2  0  0  0
  3 14  1  0  0  0
  5  8  1  0  0  0
  6  9  2  0  0  0
  7 10  2  0  0  0
  9 10  1  0  0  0
 14 15  1  0  0  0
 15 16  2  0  0  0
 16 18  1  0  0  0
 18 19  2  0  0  0
 18 20  1  0  0  0
 19 21  1  0  0  0
 21 22  2  0  0  0
M  END
> <minimizedAffinity>
-8.69535

$$$$
DMU2139


 22 24  0  0  0  0  0  0  0  0999 V2000
    4.3313   17.1885   46.6124 C   0  0  0  0  0  0  0  0  0  0  0  0
    5.4408   17.6022   45.9277 C   0  0  0  0  0  0  0  0  0  0  0  0
    4.1411   19.3277   47.7710 C   0  0  0  0  0  0  0  0  0  0  0  0
    3.6821   18.0186   47.5182 C   0  0  0  0  0  0  0  0  0  0  0  0
    5.9058   18.8674   46.1549 C   0  0  0  0  0  0  0  0  0  0  0  0
    6.1074   16.8065   45.0243 C   0  0  0  0  0  0  0  0  0  0  0  0
    3.8734   15.9105   46.3734 C   0  0  0  0  0  0  0  0  0  0  0  0
    5.2431   19.6954   47.0706 C   0  0  0  0  0  0  0  0  0  0  0  0
    5.6594   15.5261   44.7762 C   0  0  0  0  0  0  0  0  0  0  0  0
    4.5347   15.1006   45.4674 C   0  0  0  0  0  0  0  0  0  0  0  0
    6.2995   14.6823   43.8711 O   0  0  0  0  0  0  0  0  0  0  0  0
    7.3352   15.2241   43.0734 C   0  0  0  0  0  0  0  0  0  0  0  0
    2.2991   19.4697   49.1249 O   0  0  0  0  0  0  0  0  0  0  0  0
    3.3900   20.0872   48.7244 C   0  0  0  0  0  0  0  0  0  0  0  0
    3.5582   21.3586   49.3351 C   0  0  0  0  0  0  0  0  0  0  0  0
    4.5421   21.9069   49.9804 C   0  0  0  0  0  0  0  0  0  0  0  0
    5.1941   24.9076   52.1380 N   0  0  0  0  0  0  0  0  0  0  0  0
    4.5230   23.2653   50.5496 C   0  0  0  0  0  0  0  0  0  0  0  0
    3.7394   24.2634   49.9704 C   0  0  0  0  0  0  0  0  0  0  0  0
    5.2489   23.6350   51.6524 C   0  0  0  0  0  0  0  0  0  0  0  0
    3.6898   25.5457   50.4670 C   0  0  0  0  0  0  0  0  0  0  0  0
    4.4444   25.8419   51.5749 C   0  0  0  0  0  0  0  0  0  0  0  0
 11  9  1  0  0  0
 11 12  1  0  0  0
 13 14  2  0  0  0
 17 20  2  0  0  0
 17 22  2  0  0  0
  1  2  1  0  0  0
  1  4  2  0  0  0
  1  7  1  0  0  0
  2  5  2  0  0  0
  2  6  1  0  0  0
  3  4  1  0  0  0
  3  8  2  0  0  0
  3 14  1  0  0  0
  5  8  1  0  0  0
  6  9  2  0  0  0
  7 10  2  0  0  0
  9 10  1  0  0  0
 14 15  1  0  0  0
 15 16  2  0  0  0
 16 18  1  0  0  0
 18 19  2  0  0  0
 18 20  1  0  0  0
 19 21  1  0  0  0
 21 22  2  0  0  0
M  END
> <minimizedAffinity>
-8.67236

$$$$
DMU2139


 22 24  0  0  0  0  0  0  0  0999 V2000
    6.2900   19.2257   49.2702 C   0  0  0  0  0  0  0  0  0  0  0  0
    6.9677   20.1251   48.4936 C   0  0  0  0  0  0  0  0  0  0  0  0
    5.4870   18.0085   47.3136 C   0  0  0  0  0  0  0  0  0  0  0  0
    5.5602   18.1838   48.7109 C   0  0  0  0  0  0  0  0  0  0  0  0
    6.9125   19.9768   47.1359 C   0  0  0  0  0  0  0  0  0  0  0  0
    7.6994   21.1676   49.0144 C   0  0  0  0  0  0  0  0  0  0  0  0
    6.3544   19.3872   50.6377 C   0  0  0  0  0  0  0  0  0  0  0  0
    6.1735   18.9225   46.5832 C   0  0  0  0  0  0  0  0  0  0  0  0
    7.7718   21.3401   50.3807 C   0  0  0  0  0  0  0  0  0  0  0  0
    7.0868   20.4314   51.1737 C   0  0  0  0  0  0  0  0  0  0  0  0
    8.4993   22.3796   50.9562 O   0  0  0  0  0  0  0  0  0  0  0  0
    7.7860   23.4966   51.4521 C   0  0  0  0  0  0  0  0  0  0  0  0
    3.6180   16.7102   47.5735 O   0  0  0  0  0  0  0  0  0  0  0  0
    4.7051   16.8997   46.8564 C   0  0  0  0  0  0  0  0  0  0  0  0
    4.8397   15.9576   45.8019 C   0  0  0  0  0  0  0  0  0  0  0  0
    5.8666   15.4834   45.1649 C   0  0  0  0  0  0  0  0  0  0  0  0
    5.7772   12.2625   43.2406 N   0  0  0  0  0  0  0  0  0  0  0  0
    5.7991   14.4917   44.0779 C   0  0  0  0  0  0  0  0  0  0  0  0
    5.6837   14.9047   42.7506 C   0  0  0  0  0  0  0  0  0  0  0  0
    5.8434   13.1370   44.2843 C   0  0  0  0  0  0  0  0  0  0  0  0
    5.6174   14.0152   41.7028 C   0  0  0  0  0  0  0  0  0  0  0  0
    5.6678   12.6731   41.9870 C   0  0  0  0  0  0  0  0  0  0  0  0
 11  9  1  0  0  0
 11 12  1  0  0  0
 13 14  2  0  0  0
 17 20  2  0  0  0
 17 22  2  0  0  0
  1  2  1  0  0  0
  1  4  2  0  0  0
  1  7  1  0  0  0
  2  5  2  0  0  0
  2  6  1  0  0  0
  3  4  1  0  0  0
  3  8  2  0  0  0
  3 14  1  0  0  0
  5  8  1  0  0  0
  6  9  2  0  0  0
  7 10  2  0  0  0
  9 10  1  0  0  0
 14 15  1  0  0  0
 15 16  2  0  0  0
 16 18  1  0  0  0
 18 19  2  0  0  0
 18 20  1  0  0  0
 19 21  1  0  0  0
 21 22  2  0  0  0
M  END
> <minimizedAffinity>
-8.65868

$$$$
DMU2139


 22 24  0  0  0  0  0  0  0  0999 V2000
    6.7806   20.1507   49.0461 C   0  0  0  0  0  0  0  0  0  0  0  0
    6.4444   20.1916   50.3714 C   0  0  0  0  0  0  0  0  0  0  0  0
    5.2494   18.2979   48.6248 C   0  0  0  0  0  0  0  0  0  0  0  0
    6.2067   19.2313   48.1765 C   0  0  0  0  0  0  0  0  0  0  0  0
    5.5185   19.2971   50.8310 C   0  0  0  0  0  0  0  0  0  0  0  0
    6.9930   21.0883   51.2593 C   0  0  0  0  0  0  0  0  0  0  0  0
    7.7154   21.0584   48.5964 C   0  0  0  0  0  0  0  0  0  0  0  0
    4.9465   18.3747   49.9449 C   0  0  0  0  0  0  0  0  0  0  0  0
    7.9292   22.0017   50.8220 C   0  0  0  0  0  0  0  0  0  0  0  0
    8.2745   21.9652   49.4792 C   0  0  0  0  0  0  0  0  0  0  0  0
    8.5134   22.9293   51.6817 O   0  0  0  0  0  0  0  0  0  0  0  0
    7.7575   23.3776   52.7908 C   0  0  0  0  0  0  0  0  0  0  0  0
    3.4234   17.2605   47.7105 O   0  0  0  0  0  0  0  0  0  0  0  0
    4.7297   17.4020   47.6363 C   0  0  0  0  0  0  0  0  0  0  0  0
    5.3082   16.6310   46.5930 C   0  0  0  0  0  0  0  0  0  0  0  0
    4.8351   15.7177   45.8011 C   0  0  0  0  0  0  0  0  0  0  0  0
    6.2449   13.0827   43.5308 N   0  0  0  0  0  0  0  0  0  0  0  0
    5.6109   15.0206   44.7609 C   0  0  0  0  0  0  0  0  0  0  0  0
    6.5178   15.7219   43.9664 C   0  0  0  0  0  0  0  0  0  0  0  0
    5.5019   13.6777   44.5067 C   0  0  0  0  0  0  0  0  0  0  0  0
    7.2639   15.1135   42.9833 C   0  0  0  0  0  0  0  0  0  0  0  0
    7.1010   13.7647   42.7864 C   0  0  0  0  0  0  0  0  0  0  0  0
 11  9  1  0  0  0
 11 12  1  0  0  0
 13 14  2  0  0  0
 17 20  2  0  0  0
 17 22  2  0  0  0
  1  2  1  0  0  0
  1  4  2  0  0  0
  1  7  1  0  0  0
  2  5  2  0  0  0
  2  6  1  0  0  0
  3  4  1  0  0  0
  3  8  2  0  0  0
  3 14  1  0  0  0
  5  8  1  0  0  0
  6  9  2  0  0  0
  7 10  2  0  0  0
  9 10  1  0  0  0
 14 15  1  0  0  0
 15 16  2  0  0  0
 16 18  1  0  0  0
 18 19  2  0  0  0
 18 20  1  0  0  0
 19 21  1  0  0  0
 21 22  2  0  0  0
M  END
> <minimizedAffinity>
-8.63194

$$$$
DMU2139


 22 24  0  0  0  0  0  0  0  0999 V2000
    4.7353   21.2554   49.0473 C   0  0  0  0  0  0  0  0  0  0  0  0
    6.0371   21.6503   49.1902 C   0  0  0  0  0  0  0  0  0  0  0  0
    5.4010   19.0508   48.2400 C   0  0  0  0  0  0  0  0  0  0  0  0
    4.4047   19.9878   48.5838 C   0  0  0  0  0  0  0  0  0  0  0  0
    7.0218   20.7602   48.8636 C   0  0  0  0  0  0  0  0  0  0  0  0
    6.3993   22.8971   49.6460 C   0  0  0  0  0  0  0  0  0  0  0  0
    3.7527   22.1630   49.3804 C   0  0  0  0  0  0  0  0  0  0  0  0
    6.6766   19.4849   48.3973 C   0  0  0  0  0  0  0  0  0  0  0  0
    5.4259   23.8142   49.9826 C   0  0  0  0  0  0  0  0  0  0  0  0
    4.1038   23.4198   49.8399 C   0  0  0  0  0  0  0  0  0  0  0  0
    5.7416   25.0886   50.4485 O   0  0  0  0  0  0  0  0  0  0  0  0
    7.0430   25.3074   50.9594 C   0  0  0  0  0  0  0  0  0  0  0  0
    3.8248   17.3934   48.3623 O   0  0  0  0  0  0  0  0  0  0  0  0
    4.9378   17.7784   47.7750 C   0  0  0  0  0  0  0  0  0  0  0  0
    5.4105   16.8377   46.8214 C   0  0  0  0  0  0  0  0  0  0  0  0
    5.4795   16.8504   45.5252 C   0  0  0  0  0  0  0  0  0  0  0  0
    7.4451   14.8753   43.0112 N   0  0  0  0  0  0  0  0  0  0  0  0
    6.0139   15.7540   44.6994 C   0  0  0  0  0  0  0  0  0  0  0  0
    5.5361   14.4530   44.8570 C   0  0  0  0  0  0  0  0  0  0  0  0
    6.9863   15.9263   43.7484 C   0  0  0  0  0  0  0  0  0  0  0  0
    6.0048   13.3977   44.1087 C   0  0  0  0  0  0  0  0  0  0  0  0
    6.9795   13.6470   43.1747 C   0  0  0  0  0  0  0  0  0  0  0  0
 11  9  1  0  0  0
 11 12  1  0  0  0
 13 14  2  0  0  0
 17 20  2  0  0  0
 17 22  2  0  0  0
  1  2  1  0  0  0
  1  4  2  0  0  0
  1  7  1  0  0  0
  2  5  2  0  0  0
  2  6  1  0  0  0
  3  4  1  0  0  0
  3  8  2  0  0  0
  3 14  1  0  0  0
  5  8  1  0  0  0
  6  9  2  0  0  0
  7 10  2  0  0  0
  9 10  1  0  0  0
 14 15  1  0  0  0
 15 16  2  0  0  0
 16 18  1  0  0  0
 18 19  2  0  0  0
 18 20  1  0  0  0
 19 21  1  0  0  0
 21 22  2  0  0  0
M  END
> <minimizedAffinity>
-8.46948

$$$$
