Glycycoumarin


 30 32  0  0  0  0  0  0  0  0999 V2000
    3.6539   15.4164   46.0554 O   0  0  0  0  0  0  0  0  0  0  0  0
    3.7002   19.3214   51.9286 O   0  0  0  0  0  0  0  0  0  0  0  0
    4.8921   18.7700   48.2201 C   0  0  0  0  0  0  0  0  0  0  0  0
    5.3148   18.5831   46.9177 C   0  0  0  0  0  0  0  0  0  0  0  0
    4.0562   17.8448   48.8107 C   0  0  0  0  0  0  0  0  0  0  0  0
    5.3320   19.8884   48.8769 C   0  0  0  0  0  0  0  0  0  0  0  0
    4.8877   17.4630   46.2270 C   0  0  0  0  0  0  0  0  0  0  0  0
    3.6735   18.0607   50.0610 O   0  0  0  0  0  0  0  0  0  0  0  0
    3.6363   16.7249   48.1031 C   0  0  0  0  0  0  0  0  0  0  0  0
    4.9052   20.0775   50.1921 C   0  0  0  0  0  0  0  0  0  0  0  0
    4.0515   16.5146   46.7831 C   0  0  0  0  0  0  0  0  0  0  0  0
    4.0743   19.1219   50.7243 C   0  0  0  0  0  0  0  0  0  0  0  0
    2.6992   15.2594   45.7533 H   0  0  0  0  0  0  0  0  0  0  0  0
    6.8668   19.8698   52.0965 O   0  0  0  0  0  0  0  0  0  0  0  0
    6.7583   24.6051   52.8809 O   0  0  0  0  0  0  0  0  0  0  0  0
    5.3699   21.2508   50.8733 C   0  0  0  0  0  0  0  0  0  0  0  0
    6.3578   21.1486   51.8329 C   0  0  0  0  0  0  0  0  0  0  0  0
    4.8138   22.4903   50.5556 C   0  0  0  0  0  0  0  0  0  0  0  0
    6.8082   22.2646   52.4894 C   0  0  0  0  0  0  0  0  0  0  0  0
    5.2870   23.6013   51.2338 C   0  0  0  0  0  0  0  0  0  0  0  0
    6.2821   23.4988   52.2006 C   0  0  0  0  0  0  0  0  0  0  0  0
    7.7698   19.6198   51.7573 H   0  0  0  0  0  0  0  0  0  0  0  0
    7.5487   25.1197   52.5247 H   0  0  0  0  0  0  0  0  0  0  0  0
    6.1551   19.5173   46.3301 O   0  0  0  0  0  0  0  0  0  0  0  0
    5.7477   20.8358   46.0244 C   0  0  0  0  0  0  0  0  0  0  0  0
    5.3958   17.3396   44.8151 C   0  0  0  0  0  0  0  0  0  0  0  0
    6.2712   16.1528   44.7605 C   0  0  0  0  0  0  0  0  0  0  0  0
    6.2321   15.2050   43.8638 C   0  0  0  0  0  0  0  0  0  0  0  0
    7.1816   14.0317   43.9066 C   0  0  0  0  0  0  0  0  0  0  0  0
    5.2378   15.2452   42.7507 C   0  0  0  0  0  0  0  0  0  0  0  0
 24 25  1  0  0  0
 24  4  1  0  0  0
 26 27  1  0  0  0
 26  7  1  0  0  0
 27 28  2  0  0  0
 28 29  1  0  0  0
 28 30  1  0  0  0
  1 11  1  0  0  0
  2 12  2  0  0  0
 14 17  1  0  0  0
 15 21  1  0  0  0
  3  4  2  0  0  0
  3  5  1  0  0  0
  3  6  1  0  0  0
  4  7  1  0  0  0
  5  8  1  0  0  0
  5  9  2  0  0  0
  6 10  2  0  0  0
  7 11  2  0  0  0
  8 12  1  0  0  0
  9 11  1  0  0  0
 10 12  1  0  0  0
 10 16  1  0  0  0
 16 17  2  0  0  0
 16 18  1  0  0  0
 17 19  1  0  0  0
 18 20  2  0  0  0
 19 21  2  0  0  0
 20 21  1  0  0  0
  1 13  1  0  0  0
 14 22  1  0  0  0
 15 23  1  0  0  0
M  END
> <minimizedAffinity>
-9.04498

$$$$
Glycycoumarin


 30 32  0  0  0  0  0  0  0  0999 V2000
    6.0720   24.3369   53.2453 O   0  0  0  0  0  0  0  0  0  0  0  0
    4.0179   17.9549   51.0553 O   0  0  0  0  0  0  0  0  0  0  0  0
    5.6915   21.4274   50.2693 C   0  0  0  0  0  0  0  0  0  0  0  0
    6.2807   22.6449   49.9858 C   0  0  0  0  0  0  0  0  0  0  0  0
    5.2257   21.1693   51.5421 C   0  0  0  0  0  0  0  0  0  0  0  0
    5.5960   20.5153   49.2523 C   0  0  0  0  0  0  0  0  0  0  0  0
    6.3923   23.5878   50.9922 C   0  0  0  0  0  0  0  0  0  0  0  0
    4.6673   19.9898   51.7731 O   0  0  0  0  0  0  0  0  0  0  0  0
    5.3454   22.1272   52.5417 C   0  0  0  0  0  0  0  0  0  0  0  0
    5.0012   19.2856   49.5383 C   0  0  0  0  0  0  0  0  0  0  0  0
    5.9384   23.3673   52.2780 C   0  0  0  0  0  0  0  0  0  0  0  0
    4.5573   19.0885   50.8232 C   0  0  0  0  0  0  0  0  0  0  0  0
    6.6807   24.2456   54.0506 H   0  0  0  0  0  0  0  0  0  0  0  0
    2.5843   18.8252   48.3282 O   0  0  0  0  0  0  0  0  0  0  0  0
    4.5573   15.6008   45.3683 O   0  0  0  0  0  0  0  0  0  0  0  0
    4.9048   18.3356   48.4682 C   0  0  0  0  0  0  0  0  0  0  0  0
    3.6885   18.1021   47.8573 C   0  0  0  0  0  0  0  0  0  0  0  0
    6.0498   17.6540   48.0548 C   0  0  0  0  0  0  0  0  0  0  0  0
    3.5866   17.1957   46.8339 C   0  0  0  0  0  0  0  0  0  0  0  0
    5.9188   16.7441   47.0190 C   0  0  0  0  0  0  0  0  0  0  0  0
    4.6937   16.5085   46.4033 C   0  0  0  0  0  0  0  0  0  0  0  0
    2.2238   19.5809   47.7877 H   0  0  0  0  0  0  0  0  0  0  0  0
    4.6624   15.9009   44.4117 H   0  0  0  0  0  0  0  0  0  0  0  0
    6.7470   22.8978   48.7041 O   0  0  0  0  0  0  0  0  0  0  0  0
    8.0371   22.5225   48.2654 C   0  0  0  0  0  0  0  0  0  0  0  0
    7.0470   24.8843   50.5955 C   0  0  0  0  0  0  0  0  0  0  0  0
    6.1954   25.5156   49.5688 C   0  0  0  0  0  0  0  0  0  0  0  0
    5.2121   26.3464   49.7852 C   0  0  0  0  0  0  0  0  0  0  0  0
    4.4048   26.9336   48.6522 C   0  0  0  0  0  0  0  0  0  0  0  0
    4.8446   26.7520   51.1742 C   0  0  0  0  0  0  0  0  0  0  0  0
 24 25  1  0  0  0
 24  4  1  0  0  0
 26 27  1  0  0  0
 26  7  1  0  0  0
 27 28  2  0  0  0
 28 29  1  0  0  0
 28 30  1  0  0  0
  1 11  1  0  0  0
  2 12  2  0  0  0
 14 17  1  0  0  0
 15 21  1  0  0  0
  3  4  2  0  0  0
  3  5  1  0  0  0
  3  6  1  0  0  0
  4  7  1  0  0  0
  5  8  1  0  0  0
  5  9  2  0  0  0
  6 10  2  0  0  0
  7 11  2  0  0  0
  8 12  1  0  0  0
  9 11  1  0  0  0
 10 12  1  0  0  0
 10 16  1  0  0  0
 16 17  2  0  0  0
 16 18  1  0  0  0
 17 19  1  0  0  0
 18 20  2  0  0  0
 19 21  2  0  0  0
 20 21  1  0  0  0
  1 13  1  0  0  0
 14 22  1  0  0  0
 15 23  1  0  0  0
M  END
> <minimizedAffinity>
-8.98859

$$$$
Glycycoumarin


 30 32  0  0  0  0  0  0  0  0999 V2000
    3.7324   15.9988   47.1721 O   0  0  0  0  0  0  0  0  0  0  0  0
    4.5134   21.0686   52.0129 O   0  0  0  0  0  0  0  0  0  0  0  0
    5.1372   19.7518   48.3586 C   0  0  0  0  0  0  0  0  0  0  0  0
    5.3601   19.2960   47.0731 C   0  0  0  0  0  0  0  0  0  0  0  0
    4.4468   18.9643   49.2568 C   0  0  0  0  0  0  0  0  0  0  0  0
    5.6222   20.9897   48.6870 C   0  0  0  0  0  0  0  0  0  0  0  0
    4.8825   18.0491   46.7102 C   0  0  0  0  0  0  0  0  0  0  0  0
    4.2541   19.4378   50.4795 O   0  0  0  0  0  0  0  0  0  0  0  0
    3.9738   17.7143   48.8764 C   0  0  0  0  0  0  0  0  0  0  0  0
    5.3972   21.4504   49.9851 C   0  0  0  0  0  0  0  0  0  0  0  0
    4.1875   17.2317   47.5801 C   0  0  0  0  0  0  0  0  0  0  0  0
    4.7041   20.6209   50.8326 C   0  0  0  0  0  0  0  0  0  0  0  0
    2.7505   15.7696   47.0682 H   0  0  0  0  0  0  0  0  0  0  0  0
    7.6445   21.6773   51.5393 O   0  0  0  0  0  0  0  0  0  0  0  0
    7.4367   26.4694   51.3317 O   0  0  0  0  0  0  0  0  0  0  0  0
    5.9079   22.7476   50.3216 C   0  0  0  0  0  0  0  0  0  0  0  0
    7.0397   22.8643   51.1043 C   0  0  0  0  0  0  0  0  0  0  0  0
    5.2499   23.8840   49.8504 C   0  0  0  0  0  0  0  0  0  0  0  0
    7.5351   24.0999   51.4313 C   0  0  0  0  0  0  0  0  0  0  0  0
    5.7715   25.1197   50.1955 C   0  0  0  0  0  0  0  0  0  0  0  0
    6.9116   25.2377   50.9841 C   0  0  0  0  0  0  0  0  0  0  0  0
    8.4929   21.3727   51.1146 H   0  0  0  0  0  0  0  0  0  0  0  0
    8.1349   26.9068   50.7507 H   0  0  0  0  0  0  0  0  0  0  0  0
    6.0548   20.0929   46.1751 O   0  0  0  0  0  0  0  0  0  0  0  0
    7.4356   20.3688   46.2978 C   0  0  0  0  0  0  0  0  0  0  0  0
    5.1697   17.6330   45.2920 C   0  0  0  0  0  0  0  0  0  0  0  0
    5.9341   16.3718   45.3456 C   0  0  0  0  0  0  0  0  0  0  0  0
    5.9437   15.4354   44.4363 C   0  0  0  0  0  0  0  0  0  0  0  0
    6.7679   14.1805   44.5974 C   0  0  0  0  0  0  0  0  0  0  0  0
    5.1326   15.5706   43.1901 C   0  0  0  0  0  0  0  0  0  0  0  0
 24 25  1  0  0  0
 24  4  1  0  0  0
 26 27  1  0  0  0
 26  7  1  0  0  0
 27 28  2  0  0  0
 28 29  1  0  0  0
 28 30  1  0  0  0
  1 11  1  0  0  0
  2 12  2  0  0  0
 14 17  1  0  0  0
 15 21  1  0  0  0
  3  4  2  0  0  0
  3  5  1  0  0  0
  3  6  1  0  0  0
  4  7  1  0  0  0
  5  8  1  0  0  0
  5  9  2  0  0  0
  6 10  2  0  0  0
  7 11  2  0  0  0
  8 12  1  0  0  0
  9 11  1  0  0  0
 10 12  1  0  0  0
 10 16  1  0  0  0
 16 17  2  0  0  0
 16 18  1  0  0  0
 17 19  1  0  0  0
 18 20  2  0  0  0
 19 21  2  0  0  0
 20 21  1  0  0  0
  1 13  1  0  0  0
 14 22  1  0  0  0
 15 23  1  0  0  0
M  END
> <minimizedAffinity>
-8.73731

$$$$
Glycycoumarin


 30 32  0  0  0  0  0  0  0  0999 V2000
    3.7290   15.9672   47.0461 O   0  0  0  0  0  0  0  0  0  0  0  0
    4.4640   21.0730   51.8560 O   0  0  0  0  0  0  0  0  0  0  0  0
    5.1684   19.7063   48.2348 C   0  0  0  0  0  0  0  0  0  0  0  0
    5.4196   19.2329   46.9610 C   0  0  0  0  0  0  0  0  0  0  0  0
    4.4379   18.9411   49.1205 C   0  0  0  0  0  0  0  0  0  0  0  0
    5.6665   20.9386   48.5647 C   0  0  0  0  0  0  0  0  0  0  0  0
    4.9297   17.9912   46.5970 C   0  0  0  0  0  0  0  0  0  0  0  0
    4.2188   19.4310   50.3323 O   0  0  0  0  0  0  0  0  0  0  0  0
    3.9529   17.6959   48.7392 C   0  0  0  0  0  0  0  0  0  0  0  0
    5.4128   21.4171   49.8509 C   0  0  0  0  0  0  0  0  0  0  0  0
    4.1950   17.1958   47.4546 C   0  0  0  0  0  0  0  0  0  0  0  0
    4.6803   20.6093   50.6863 C   0  0  0  0  0  0  0  0  0  0  0  0
    2.7464   15.7548   46.9160 H   0  0  0  0  0  0  0  0  0  0  0  0
    3.9438   23.6727   49.3294 O   0  0  0  0  0  0  0  0  0  0  0  0
    7.3973   26.4727   51.1414 O   0  0  0  0  0  0  0  0  0  0  0  0
    5.9376   22.7082   50.1890 C   0  0  0  0  0  0  0  0  0  0  0  0
    5.1995   23.8457   49.9272 C   0  0  0  0  0  0  0  0  0  0  0  0
    7.1968   22.7996   50.7826 C   0  0  0  0  0  0  0  0  0  0  0  0
    5.6929   25.0841   50.2467 C   0  0  0  0  0  0  0  0  0  0  0  0
    7.6713   24.0626   51.0950 C   0  0  0  0  0  0  0  0  0  0  0  0
    6.9281   25.2088   50.8314 C   0  0  0  0  0  0  0  0  0  0  0  0
    3.1184   23.7837   49.8767 H   0  0  0  0  0  0  0  0  0  0  0  0
    7.1920   26.8856   52.0379 H   0  0  0  0  0  0  0  0  0  0  0  0
    6.1546   20.0074   46.0755 O   0  0  0  0  0  0  0  0  0  0  0  0
    7.5247   20.3005   46.2618 C   0  0  0  0  0  0  0  0  0  0  0  0
    5.2498   17.5549   45.1920 C   0  0  0  0  0  0  0  0  0  0  0  0
    5.9765   16.2734   45.2799 C   0  0  0  0  0  0  0  0  0  0  0  0
    5.9881   15.3289   44.3789 C   0  0  0  0  0  0  0  0  0  0  0  0
    6.7713   14.0531   44.5760 C   0  0  0  0  0  0  0  0  0  0  0  0
    5.2204   15.4754   43.1068 C   0  0  0  0  0  0  0  0  0  0  0  0
 24 25  1  0  0  0
 24  4  1  0  0  0
 26 27  1  0  0  0
 26  7  1  0  0  0
 27 28  2  0  0  0
 28 29  1  0  0  0
 28 30  1  0  0  0
  1 11  1  0  0  0
  2 12  2  0  0  0
 14 17  1  0  0  0
 15 21  1  0  0  0
  3  4  2  0  0  0
  3  5  1  0  0  0
  3  6  1  0  0  0
  4  7  1  0  0  0
  5  8  1  0  0  0
  5  9  2  0  0  0
  6 10  2  0  0  0
  7 11  2  0  0  0
  8 12  1  0  0  0
  9 11  1  0  0  0
 10 12  1  0  0  0
 10 16  1  0  0  0
 16 17  2  0  0  0
 16 18  1  0  0  0
 17 19  1  0  0  0
 18 20  2  0  0  0
 19 21  2  0  0  0
 20 21  1  0  0  0
  1 13  1  0  0  0
 14 22  1  0  0  0
 15 23  1  0  0  0
M  END
> <minimizedAffinity>
-8.71439

$$$$
Glycycoumarin


 30 32  0  0  0  0  0  0  0  0999 V2000
    4.2450   20.3812   51.0702 O   0  0  0  0  0  0  0  0  0  0  0  0
    3.2879   15.1726   46.4119 O   0  0  0  0  0  0  0  0  0  0  0  0
    5.5040   18.1158   47.7916 C   0  0  0  0  0  0  0  0  0  0  0  0
    6.2879   19.1482   48.2709 C   0  0  0  0  0  0  0  0  0  0  0  0
    4.2982   17.8301   48.3983 C   0  0  0  0  0  0  0  0  0  0  0  0
    5.9709   17.4103   46.7148 C   0  0  0  0  0  0  0  0  0  0  0  0
    5.8440   19.8800   49.3579 C   0  0  0  0  0  0  0  0  0  0  0  0
    3.5763   16.8324   47.9086 O   0  0  0  0  0  0  0  0  0  0  0  0
    3.8667   18.5748   49.4893 C   0  0  0  0  0  0  0  0  0  0  0  0
    5.1795   16.3676   46.2306 C   0  0  0  0  0  0  0  0  0  0  0  0
    4.6437   19.6249   49.9919 C   0  0  0  0  0  0  0  0  0  0  0  0
    3.9903   16.1321   46.8766 C   0  0  0  0  0  0  0  0  0  0  0  0
    4.1713   20.0179   52.0136 H   0  0  0  0  0  0  0  0  0  0  0  0
    4.4061   17.0650   43.6943 O   0  0  0  0  0  0  0  0  0  0  0  0
    7.0709   13.5504   41.7979 O   0  0  0  0  0  0  0  0  0  0  0  0
    5.6750   15.6333   45.1028 C   0  0  0  0  0  0  0  0  0  0  0  0
    5.2868   15.9827   43.8244 C   0  0  0  0  0  0  0  0  0  0  0  0
    6.5497   14.5669   45.3130 C   0  0  0  0  0  0  0  0  0  0  0  0
    5.7551   15.2866   42.7403 C   0  0  0  0  0  0  0  0  0  0  0  0
    7.0076   13.8807   44.2005 C   0  0  0  0  0  0  0  0  0  0  0  0
    6.6167   14.2324   42.9125 C   0  0  0  0  0  0  0  0  0  0  0  0
    4.7484   17.9417   43.3668 H   0  0  0  0  0  0  0  0  0  0  0  0
    7.9080   13.8516   41.3237 H   0  0  0  0  0  0  0  0  0  0  0  0
    7.4991   19.4300   47.6563 O   0  0  0  0  0  0  0  0  0  0  0  0
    7.6461   20.4244   46.6627 C   0  0  0  0  0  0  0  0  0  0  0  0
    6.7605   20.9843   49.8132 C   0  0  0  0  0  0  0  0  0  0  0  0
    6.1449   22.2648   49.4143 C   0  0  0  0  0  0  0  0  0  0  0  0
    5.9096   23.2847   50.1943 C   0  0  0  0  0  0  0  0  0  0  0  0
    5.2720   24.5511   49.6750 C   0  0  0  0  0  0  0  0  0  0  0  0
    6.2654   23.2378   51.6435 C   0  0  0  0  0  0  0  0  0  0  0  0
 24 25  1  0  0  0
 24  4  1  0  0  0
 26 27  1  0  0  0
 26  7  1  0  0  0
 27 28  2  0  0  0
 28 29  1  0  0  0
 28 30  1  0  0  0
  1 11  1  0  0  0
  2 12  2  0  0  0
 14 17  1  0  0  0
 15 21  1  0  0  0
  3  4  2  0  0  0
  3  5  1  0  0  0
  3  6  1  0  0  0
  4  7  1  0  0  0
  5  8  1  0  0  0
  5  9  2  0  0  0
  6 10  2  0  0  0
  7 11  2  0  0  0
  8 12  1  0  0  0
  9 11  1  0  0  0
 10 12  1  0  0  0
 10 16  1  0  0  0
 16 17  2  0  0  0
 16 18  1  0  0  0
 17 19  1  0  0  0
 18 20  2  0  0  0
 19 21  2  0  0  0
 20 21  1  0  0  0
  1 13  1  0  0  0
 14 22  1  0  0  0
 15 23  1  0  0  0
M  END
> <minimizedAffinity>
-7.81304

$$$$
