Homatropine bromide.cdx


 21 23  0  0  0  0  0  0  0  0999 V2000
    5.3477   19.7786   51.8341 C   0  0  0  0  0  0  0  0  0  0  0  0
    6.5488   19.5437   52.1752 O   0  0  0  0  0  0  0  0  0  0  0  0
    4.4473   18.7457   51.2760 C   0  0  0  0  0  0  0  0  0  0  0  0
    4.5180   17.6131   52.1129 O   0  0  0  0  0  0  0  0  0  0  0  0
    4.2333   17.9099   52.9991 H   0  0  0  0  0  0  0  0  0  0  0  0
    4.7196   18.3684   49.8814 C   0  0  0  0  0  0  0  0  0  0  0  0
    5.8951   18.5986   49.2095 C   0  0  0  0  0  0  0  0  0  0  0  0
    3.7133   17.7299   49.1820 C   0  0  0  0  0  0  0  0  0  0  0  0
    6.0774   18.2141   47.8916 C   0  0  0  0  0  0  0  0  0  0  0  0
    3.8924   17.3479   47.8752 C   0  0  0  0  0  0  0  0  0  0  0  0
    5.0635   17.5755   47.2007 C   0  0  0  0  0  0  0  0  0  0  0  0
    4.9175   21.0862   52.0180 O   0  0  0  0  0  0  0  0  0  0  0  0
    5.6142   22.2137   51.5098 C   0  0  0  0  0  0  0  0  0  0  0  0
    5.1686   22.3581   50.0743 C   0  0  0  0  0  0  0  0  0  0  0  0
    5.2979   23.3857   52.3677 C   0  0  0  0  0  0  0  0  0  0  0  0
    4.9835   23.8236   49.6961 C   0  0  0  0  0  0  0  0  0  0  0  0
    5.4688   24.7137   51.6963 C   0  0  0  0  0  0  0  0  0  0  0  0
    6.0350   24.5392   50.3802 N   0  0  0  0  0  0  0  0  0  0  0  0
    3.6774   24.2634   50.2705 C   0  0  0  0  0  0  0  0  0  0  0  0
    4.0877   25.2425   51.3596 C   0  0  0  0  0  0  0  0  0  0  0  0
    6.3621   25.8070   49.7677 C   0  0  0  0  0  0  0  0  0  0  0  0
 13 14  1  0  0  0
 13 15  1  0  0  0
 13 12  1  0  0  0
 12  1  1  0  0  0
 16 14  1  0  0  0
 16 18  1  0  0  0
 16 19  1  0  0  0
 17 15  1  0  0  0
 17 20  1  0  0  0
 17 18  1  0  0  0
  1  3  1  0  0  0
  1  2  2  0  0  0
 18 21  1  0  0  0
 19 20  1  0  0  0
  3  6  1  0  0  0
  3  4  1  0  0  0
  6  7  2  0  0  0
  6  8  1  0  0  0
  7  9  1  0  0  0
  8 10  2  0  0  0
  9 11  2  0  0  0
 10 11  1  0  0  0
  4  5  1  0  0  0
M  END
> <minimizedAffinity>
-8.33387

$$$$
Homatropine bromide.cdx


 21 23  0  0  0  0  0  0  0  0999 V2000
    6.3975   20.3076   51.5865 C   0  0  0  0  0  0  0  0  0  0  0  0
    6.7419   20.2578   52.8085 O   0  0  0  0  0  0  0  0  0  0  0  0
    6.8782   19.3466   50.5696 C   0  0  0  0  0  0  0  0  0  0  0  0
    7.7862   20.0240   49.7301 O   0  0  0  0  0  0  0  0  0  0  0  0
    8.5078   20.3410   50.3074 H   0  0  0  0  0  0  0  0  0  0  0  0
    5.8243   18.7049   49.7702 C   0  0  0  0  0  0  0  0  0  0  0  0
    4.5446   18.4495   50.1985 C   0  0  0  0  0  0  0  0  0  0  0  0
    6.1407   18.3234   48.4804 C   0  0  0  0  0  0  0  0  0  0  0  0
    3.6044   17.8382   49.3859 C   0  0  0  0  0  0  0  0  0  0  0  0
    5.2097   17.7173   47.6733 C   0  0  0  0  0  0  0  0  0  0  0  0
    3.9317   17.4603   48.0962 C   0  0  0  0  0  0  0  0  0  0  0  0
    5.5263   21.3359   51.2511 O   0  0  0  0  0  0  0  0  0  0  0  0
    5.9602   22.6437   50.9099 C   0  0  0  0  0  0  0  0  0  0  0  0
    5.2893   22.9686   49.5968 C   0  0  0  0  0  0  0  0  0  0  0  0
    5.6007   23.5618   52.0223 C   0  0  0  0  0  0  0  0  0  0  0  0
    4.8296   24.4218   49.5538 C   0  0  0  0  0  0  0  0  0  0  0  0
    5.4661   24.9996   51.6249 C   0  0  0  0  0  0  0  0  0  0  0  0
    5.8501   25.1747   50.2447 N   0  0  0  0  0  0  0  0  0  0  0  0
    3.5719   24.5080   50.3539 C   0  0  0  0  0  0  0  0  0  0  0  0
    3.9861   25.3265   51.5670 C   0  0  0  0  0  0  0  0  0  0  0  0
    5.8860   26.5714   49.8740 C   0  0  0  0  0  0  0  0  0  0  0  0
 13 14  1  0  0  0
 13 15  1  0  0  0
 13 12  1  0  0  0
 12  1  1  0  0  0
 16 14  1  0  0  0
 16 18  1  0  0  0
 16 19  1  0  0  0
 17 15  1  0  0  0
 17 20  1  0  0  0
 17 18  1  0  0  0
  1  3  1  0  0  0
  1  2  2  0  0  0
 18 21  1  0  0  0
 19 20  1  0  0  0
  3  6  1  0  0  0
  3  4  1  0  0  0
  6  7  2  0  0  0
  6  8  1  0  0  0
  7  9  1  0  0  0
  8 10  2  0  0  0
  9 11  2  0  0  0
 10 11  1  0  0  0
  4  5  1  0  0  0
M  END
> <minimizedAffinity>
-8.12536

$$$$
Homatropine bromide.cdx


 21 23  0  0  0  0  0  0  0  0999 V2000
    4.1439   19.3230   50.9776 C   0  0  0  0  0  0  0  0  0  0  0  0
    4.2438   18.2920   51.7132 O   0  0  0  0  0  0  0  0  0  0  0  0
    3.4950   19.3097   49.6480 C   0  0  0  0  0  0  0  0  0  0  0  0
    2.1325   18.9989   49.8354 O   0  0  0  0  0  0  0  0  0  0  0  0
    1.7701   19.6970   50.4149 H   0  0  0  0  0  0  0  0  0  0  0  0
    4.0981   18.3938   48.6687 C   0  0  0  0  0  0  0  0  0  0  0  0
    3.4047   17.5506   47.8354 C   0  0  0  0  0  0  0  0  0  0  0  0
    5.4765   18.3735   48.5743 C   0  0  0  0  0  0  0  0  0  0  0  0
    4.0445   16.7130   46.9371 C   0  0  0  0  0  0  0  0  0  0  0  0
    6.1126   17.5437   47.6841 C   0  0  0  0  0  0  0  0  0  0  0  0
    5.4250   16.7005   46.8506 C   0  0  0  0  0  0  0  0  0  0  0  0
    4.6889   20.4879   51.5016 O   0  0  0  0  0  0  0  0  0  0  0  0
    5.5408   21.3499   50.7626 C   0  0  0  0  0  0  0  0  0  0  0  0
    4.7903   22.6534   50.6303 C   0  0  0  0  0  0  0  0  0  0  0  0
    6.8351   21.4618   51.4851 C   0  0  0  0  0  0  0  0  0  0  0  0
    5.7247   23.8489   50.7805 C   0  0  0  0  0  0  0  0  0  0  0  0
    7.6117   22.7064   51.1834 C   0  0  0  0  0  0  0  0  0  0  0  0
    6.9600   23.4617   50.1404 N   0  0  0  0  0  0  0  0  0  0  0  0
    5.9940   24.0148   52.2397 C   0  0  0  0  0  0  0  0  0  0  0  0
    7.4630   23.6425   52.3675 C   0  0  0  0  0  0  0  0  0  0  0  0
    7.7639   24.5843   49.7127 C   0  0  0  0  0  0  0  0  0  0  0  0
 13 14  1  0  0  0
 13 15  1  0  0  0
 13 12  1  0  0  0
 12  1  1  0  0  0
 16 14  1  0  0  0
 16 18  1  0  0  0
 16 19  1  0  0  0
 17 15  1  0  0  0
 17 20  1  0  0  0
 17 18  1  0  0  0
  1  3  1  0  0  0
  1  2  2  0  0  0
 18 21  1  0  0  0
 19 20  1  0  0  0
  3  6  1  0  0  0
  3  4  1  0  0  0
  6  7  2  0  0  0
  6  8  1  0  0  0
  7  9  1  0  0  0
  8 10  2  0  0  0
  9 11  2  0  0  0
 10 11  1  0  0  0
  4  5  1  0  0  0
M  END
> <minimizedAffinity>
-7.86209

$$$$
Homatropine bromide.cdx


 21 23  0  0  0  0  0  0  0  0999 V2000
    6.2346   20.4718   52.0486 C   0  0  0  0  0  0  0  0  0  0  0  0
    6.8729   19.7761   52.8988 O   0  0  0  0  0  0  0  0  0  0  0  0
    6.7365   21.7560   51.5121 C   0  0  0  0  0  0  0  0  0  0  0  0
    7.6066   22.3142   52.4710 O   0  0  0  0  0  0  0  0  0  0  0  0
    8.3240   21.6638   52.6006 H   0  0  0  0  0  0  0  0  0  0  0  0
    5.6961   22.7258   51.1400 C   0  0  0  0  0  0  0  0  0  0  0  0
    5.0893   22.8099   49.9108 C   0  0  0  0  0  0  0  0  0  0  0  0
    5.2911   23.6319   52.1015 C   0  0  0  0  0  0  0  0  0  0  0  0
    4.1151   23.7543   49.6336 C   0  0  0  0  0  0  0  0  0  0  0  0
    4.3252   24.5689   51.8285 C   0  0  0  0  0  0  0  0  0  0  0  0
    3.7170   24.6567   50.6035 C   0  0  0  0  0  0  0  0  0  0  0  0
    5.0140   19.9489   51.6419 O   0  0  0  0  0  0  0  0  0  0  0  0
    4.8936   18.9001   50.6930 C   0  0  0  0  0  0  0  0  0  0  0  0
    3.4552   18.9254   50.2343 C   0  0  0  0  0  0  0  0  0  0  0  0
    5.8838   19.1331   49.6090 C   0  0  0  0  0  0  0  0  0  0  0  0
    3.3459   18.6567   48.7374 C   0  0  0  0  0  0  0  0  0  0  0  0
    5.5391   18.4896   48.3012 C   0  0  0  0  0  0  0  0  0  0  0  0
    4.3592   17.6707   48.4427 N   0  0  0  0  0  0  0  0  0  0  0  0
    3.7162   19.9219   48.0362 C   0  0  0  0  0  0  0  0  0  0  0  0
    5.0385   19.5764   47.3691 C   0  0  0  0  0  0  0  0  0  0  0  0
    4.0910   16.9095   47.2434 C   0  0  0  0  0  0  0  0  0  0  0  0
 13 14  1  0  0  0
 13 15  1  0  0  0
 13 12  1  0  0  0
 12  1  1  0  0  0
 16 14  1  0  0  0
 16 18  1  0  0  0
 16 19  1  0  0  0
 17 15  1  0  0  0
 17 20  1  0  0  0
 17 18  1  0  0  0
  1  3  1  0  0  0
  1  2  2  0  0  0
 18 21  1  0  0  0
 19 20  1  0  0  0
  3  6  1  0  0  0
  3  4  1  0  0  0
  6  7  2  0  0  0
  6  8  1  0  0  0
  7  9  1  0  0  0
  8 10  2  0  0  0
  9 11  2  0  0  0
 10 11  1  0  0  0
  4  5  1  0  0  0
M  END
> <minimizedAffinity>
-7.75420

$$$$
Homatropine bromide.cdx


 21 23  0  0  0  0  0  0  0  0999 V2000
    7.6957   22.3869   51.1573 C   0  0  0  0  0  0  0  0  0  0  0  0
    8.8164   22.0098   50.6926 O   0  0  0  0  0  0  0  0  0  0  0  0
    7.4200   23.7783   51.5777 C   0  0  0  0  0  0  0  0  0  0  0  0
    7.4703   23.8221   52.9862 O   0  0  0  0  0  0  0  0  0  0  0  0
    8.3693   23.5330   53.2366 H   0  0  0  0  0  0  0  0  0  0  0  0
    6.1483   24.3357   51.0943 C   0  0  0  0  0  0  0  0  0  0  0  0
    5.8988   24.7513   49.8092 C   0  0  0  0  0  0  0  0  0  0  0  0
    5.1143   24.4555   52.0030 C   0  0  0  0  0  0  0  0  0  0  0  0
    4.6722   25.2687   49.4278 C   0  0  0  0  0  0  0  0  0  0  0  0
    3.8973   24.9682   51.6265 C   0  0  0  0  0  0  0  0  0  0  0  0
    3.6437   25.3842   50.3455 C   0  0  0  0  0  0  0  0  0  0  0  0
    6.7232   21.3998   51.2507 O   0  0  0  0  0  0  0  0  0  0  0  0
    6.0848   20.8265   50.1200 C   0  0  0  0  0  0  0  0  0  0  0  0
    6.4482   19.3611   50.1433 C   0  0  0  0  0  0  0  0  0  0  0  0
    4.6261   21.0950   50.2193 C   0  0  0  0  0  0  0  0  0  0  0  0
    5.2649   18.4900   49.7359 C   0  0  0  0  0  0  0  0  0  0  0  0
    3.7624   20.1322   49.4641 C   0  0  0  0  0  0  0  0  0  0  0  0
    4.5798   19.2230   48.6971 N   0  0  0  0  0  0  0  0  0  0  0  0
    4.3552   18.4053   50.9169 C   0  0  0  0  0  0  0  0  0  0  0  0
    3.1310   19.1897   50.4709 C   0  0  0  0  0  0  0  0  0  0  0  0
    3.7792   18.3853   47.8329 C   0  0  0  0  0  0  0  0  0  0  0  0
 13 14  1  0  0  0
 13 15  1  0  0  0
 13 12  1  0  0  0
 12  1  1  0  0  0
 16 14  1  0  0  0
 16 18  1  0  0  0
 16 19  1  0  0  0
 17 15  1  0  0  0
 17 20  1  0  0  0
 17 18  1  0  0  0
  1  3  1  0  0  0
  1  2  2  0  0  0
 18 21  1  0  0  0
 19 20  1  0  0  0
  3  6  1  0  0  0
  3  4  1  0  0  0
  6  7  2  0  0  0
  6  8  1  0  0  0
  7  9  1  0  0  0
  8 10  2  0  0  0
  9 11  2  0  0  0
 10 11  1  0  0  0
  4  5  1  0  0  0
M  END
> <minimizedAffinity>
-7.59740

$$$$
