HPPE


 36 39  0  0  0  0  0  0  0  0999 V2000
    3.6349   19.1409   49.3495 C   0  0  0  0  0  0  0  0  0  0  0  0
    3.8393   20.4691   49.0902 N   0  0  0  0  0  0  0  0  0  0  0  0
    4.3970   21.0689   50.1291 C   0  0  0  0  0  0  0  0  0  0  0  0
    4.5645   20.1122   51.0976 C   0  0  0  0  0  0  0  0  0  0  0  0
    4.0915   18.9546   50.5906 N   0  0  0  0  0  0  0  0  0  0  0  0
    4.7681   22.3928   50.2865 C   0  0  0  0  0  0  0  0  0  0  0  0
    5.3340   22.7259   51.4996 C   0  0  0  0  0  0  0  0  0  0  0  0
    5.5096   21.7768   52.4834 C   0  0  0  0  0  0  0  0  0  0  0  0
    5.1241   20.4638   52.2840 C   0  0  0  0  0  0  0  0  0  0  0  0
    4.1026   17.7150   51.3333 C   0  0  0  0  0  0  0  0  0  0  0  0
    5.7302   24.1169   51.6806 C   0  0  0  0  0  0  0  0  0  0  0  0
    6.4770   24.4052   52.6513 O   0  0  0  0  0  0  0  0  0  0  0  0
    5.3122   25.1548   50.8144 N   0  0  0  0  0  0  0  0  0  0  0  0
    4.6922   24.9407   50.0031 H   0  0  0  0  0  0  0  0  0  0  0  0
    5.7205   26.5309   51.0147 C   0  0  0  0  0  0  0  0  0  0  0  0
    6.8788   26.9325   50.1456 C   0  0  0  0  0  0  0  0  0  0  0  0
    7.9192   26.0176   50.1656 O   0  0  0  0  0  0  0  0  0  0  0  0
    8.0408   25.2756   49.0076 C   0  0  0  0  0  0  0  0  0  0  0  0
    8.3723   23.8339   49.2103 C   0  0  0  0  0  0  0  0  0  0  0  0
    8.6725   23.5782   50.5671 O   0  0  0  0  0  0  0  0  0  0  0  0
    9.0676   22.6757   50.6624 H   0  0  0  0  0  0  0  0  0  0  0  0
    3.0521   18.2626   48.4087 N   0  0  0  0  0  0  0  0  0  0  0  0
    1.9769   18.2144   48.4647 H   0  0  0  0  0  0  0  0  0  0  0  0
    5.0456   18.3630   46.4169 S   0  0  0  0  0  0  0  0  0  0  0  0
    3.6742   17.4827   47.4553 C   0  0  0  0  0  0  0  0  0  0  0  0
    3.7355   16.3739   46.9389 N   0  0  0  0  0  0  0  0  0  0  0  0
    4.4894   15.9213   45.9846 C   0  0  0  0  0  0  0  0  0  0  0  0
    5.3799   16.8311   45.4489 C   0  0  0  0  0  0  0  0  0  0  0  0
    4.5362   14.6420   45.4132 C   0  0  0  0  0  0  0  0  0  0  0  0
    5.4272   14.4039   44.4070 C   0  0  0  0  0  0  0  0  0  0  0  0
    6.3064   15.3256   43.8876 C   0  0  0  0  0  0  0  0  0  0  0  0
    6.2896   16.5952   44.4244 C   0  0  0  0  0  0  0  0  0  0  0  0
    7.2612   15.0511   42.8014 C   0  0  0  0  0  0  0  0  0  0  0  0
    8.1959   16.0527   42.6253 F   0  0  0  0  0  0  0  0  0  0  0  0
    7.8757   13.8512   43.1032 F   0  0  0  0  0  0  0  0  0  0  0  0
    6.5742   14.9027   41.6010 F   0  0  0  0  0  0  0  0  0  0  0  0
  1  2  2  0  0  0
  1  5  1  0  0  0
  1 22  1  0  0  0
  2  3  2  0  0  0
  3  4  2  0  0  0
  4  5  1  0  0  0
  5 10  1  0  0  0
  6  7  2  0  0  0
  6  3  1  0  0  0
  7  8  1  0  0  0
  7 11  1  0  0  0
  8  9  2  0  0  0
  9  4  1  0  0  0
 11 12  2  0  0  0
 11 13  1  0  0  0
 13 15  1  0  0  0
 22 25  1  0  0  0
 24 25  1  0  0  0
 24 28  1  0  0  0
 25 26  2  0  0  0
 26 27  2  0  0  0
 27 28  2  0  0  0
 29 30  2  0  0  0
 29 27  1  0  0  0
 30 31  1  0  0  0
 31 32  2  0  0  0
 31 33  1  0  0  0
 32 28  1  0  0  0
 33 34  1  0  0  0
 33 35  1  0  0  0
 33 36  1  0  0  0
 15 16  1  0  0  0
 16 17  1  0  0  0
 17 18  1  0  0  0
 18 19  1  0  0  0
 19 20  1  0  0  0
 13 14  1  0  0  0
 22 23  1  0  0  0
 20 21  1  0  0  0
M  END
> <minimizedAffinity>
-8.73639

$$$$
HPPE


 36 39  0  0  0  0  0  0  0  0999 V2000
    4.2050   17.5531   47.3569 C   0  0  0  0  0  0  0  0  0  0  0  0
    3.9149   16.2686   46.9838 N   0  0  0  0  0  0  0  0  0  0  0  0
    4.6711   15.8945   45.9649 C   0  0  0  0  0  0  0  0  0  0  0  0
    5.4801   16.9589   45.6585 C   0  0  0  0  0  0  0  0  0  0  0  0
    5.1705   17.9477   46.5228 N   0  0  0  0  0  0  0  0  0  0  0  0
    4.7011   14.6883   45.2870 C   0  0  0  0  0  0  0  0  0  0  0  0
    5.6094   14.5938   44.2532 C   0  0  0  0  0  0  0  0  0  0  0  0
    6.4297   15.6539   43.9323 C   0  0  0  0  0  0  0  0  0  0  0  0
    6.3667   16.8424   44.6364 C   0  0  0  0  0  0  0  0  0  0  0  0
    5.8257   19.2356   46.5028 C   0  0  0  0  0  0  0  0  0  0  0  0
    5.6529   13.3294   43.5295 C   0  0  0  0  0  0  0  0  0  0  0  0
    5.5995   12.2596   44.1897 O   0  0  0  0  0  0  0  0  0  0  0  0
    5.7525   13.2527   42.1201 N   0  0  0  0  0  0  0  0  0  0  0  0
    5.7991   14.1259   41.5510 H   0  0  0  0  0  0  0  0  0  0  0  0
    5.7931   11.9828   41.4228 C   0  0  0  0  0  0  0  0  0  0  0  0
    5.9014   12.1345   39.9317 C   0  0  0  0  0  0  0  0  0  0  0  0
    5.4832   13.3749   39.4774 O   0  0  0  0  0  0  0  0  0  0  0  0
    4.1423   13.4350   39.1540 C   0  0  0  0  0  0  0  0  0  0  0  0
    3.3736   14.5185   39.8358 C   0  0  0  0  0  0  0  0  0  0  0  0
    4.2161   15.2640   40.6908 O   0  0  0  0  0  0  0  0  0  0  0  0
    3.6730   15.8519   41.2732 H   0  0  0  0  0  0  0  0  0  0  0  0
    3.5433   18.2041   48.4219 N   0  0  0  0  0  0  0  0  0  0  0  0
    2.6436   17.7068   48.7456 H   0  0  0  0  0  0  0  0  0  0  0  0
    3.1239   20.9922   48.3821 S   0  0  0  0  0  0  0  0  0  0  0  0
    3.8988   19.3648   49.0783 C   0  0  0  0  0  0  0  0  0  0  0  0
    4.5525   19.8491   49.9937 N   0  0  0  0  0  0  0  0  0  0  0  0
    4.6881   21.0794   50.3829 C   0  0  0  0  0  0  0  0  0  0  0  0
    3.9821   22.0149   49.6520 C   0  0  0  0  0  0  0  0  0  0  0  0
    5.4467   21.6043   51.4385 C   0  0  0  0  0  0  0  0  0  0  0  0
    5.4289   22.9520   51.6539 C   0  0  0  0  0  0  0  0  0  0  0  0
    4.7179   23.8673   50.9130 C   0  0  0  0  0  0  0  0  0  0  0  0
    3.9597   23.3884   49.8661 C   0  0  0  0  0  0  0  0  0  0  0  0
    4.7105   25.3184   51.1598 C   0  0  0  0  0  0  0  0  0  0  0  0
    3.7049   25.7252   52.0149 F   0  0  0  0  0  0  0  0  0  0  0  0
    5.9525   25.6433   51.6700 F   0  0  0  0  0  0  0  0  0  0  0  0
    4.5386   25.9967   49.9576 F   0  0  0  0  0  0  0  0  0  0  0  0
  1  2  2  0  0  0
  1  5  1  0  0  0
  1 22  1  0  0  0
  2  3  2  0  0  0
  3  4  2  0  0  0
  4  5  1  0  0  0
  5 10  1  0  0  0
  6  7  2  0  0  0
  6  3  1  0  0  0
  7  8  1  0  0  0
  7 11  1  0  0  0
  8  9  2  0  0  0
  9  4  1  0  0  0
 11 12  2  0  0  0
 11 13  1  0  0  0
 13 15  1  0  0  0
 22 25  1  0  0  0
 24 25  1  0  0  0
 24 28  1  0  0  0
 25 26  2  0  0  0
 26 27  2  0  0  0
 27 28  2  0  0  0
 29 30  2  0  0  0
 29 27  1  0  0  0
 30 31  1  0  0  0
 31 32  2  0  0  0
 31 33  1  0  0  0
 32 28  1  0  0  0
 33 34  1  0  0  0
 33 35  1  0  0  0
 33 36  1  0  0  0
 15 16  1  0  0  0
 16 17  1  0  0  0
 17 18  1  0  0  0
 18 19  1  0  0  0
 19 20  1  0  0  0
 13 14  1  0  0  0
 22 23  1  0  0  0
 20 21  1  0  0  0
M  END
> <minimizedAffinity>
-8.60632

$$$$
HPPE


 36 39  0  0  0  0  0  0  0  0999 V2000
    5.5422   18.1035   48.9340 C   0  0  0  0  0  0  0  0  0  0  0  0
    6.4294   17.5655   48.0415 N   0  0  0  0  0  0  0  0  0  0  0  0
    5.7937   16.8911   47.0975 C   0  0  0  0  0  0  0  0  0  0  0  0
    4.4538   16.9870   47.3745 C   0  0  0  0  0  0  0  0  0  0  0  0
    4.3376   17.7294   48.4952 N   0  0  0  0  0  0  0  0  0  0  0  0
    6.3052   16.1997   46.0134 C   0  0  0  0  0  0  0  0  0  0  0  0
    5.3818   15.5878   45.1913 C   0  0  0  0  0  0  0  0  0  0  0  0
    4.0319   15.6743   45.4553 C   0  0  0  0  0  0  0  0  0  0  0  0
    3.5634   16.3762   46.5508 C   0  0  0  0  0  0  0  0  0  0  0  0
    3.0606   18.0449   49.0937 C   0  0  0  0  0  0  0  0  0  0  0  0
    5.9052   14.8554   44.0449 C   0  0  0  0  0  0  0  0  0  0  0  0
    6.7966   15.3995   43.3431 O   0  0  0  0  0  0  0  0  0  0  0  0
    5.4553   13.5623   43.6877 N   0  0  0  0  0  0  0  0  0  0  0  0
    4.7165   13.0909   44.2536 H   0  0  0  0  0  0  0  0  0  0  0  0
    5.9921   12.8534   42.5431 C   0  0  0  0  0  0  0  0  0  0  0  0
    4.9398   12.4774   41.5385 C   0  0  0  0  0  0  0  0  0  0  0  0
    5.2459   12.8829   40.2494 O   0  0  0  0  0  0  0  0  0  0  0  0
    5.3125   14.2526   40.0892 C   0  0  0  0  0  0  0  0  0  0  0  0
    4.0646   14.9934   40.4406 C   0  0  0  0  0  0  0  0  0  0  0  0
    2.9744   14.5237   39.6741 O   0  0  0  0  0  0  0  0  0  0  0  0
    2.2021   15.1346   39.7738 H   0  0  0  0  0  0  0  0  0  0  0  0
    5.9527   18.8744   50.0445 N   0  0  0  0  0  0  0  0  0  0  0  0
    6.6081   18.3505   50.7209 H   0  0  0  0  0  0  0  0  0  0  0  0
    5.0158   21.2674   48.8840 S   0  0  0  0  0  0  0  0  0  0  0  0
    5.6262   20.1779   50.3585 C   0  0  0  0  0  0  0  0  0  0  0  0
    5.5506   21.0149   51.2494 N   0  0  0  0  0  0  0  0  0  0  0  0
    5.1757   22.2568   51.2192 C   0  0  0  0  0  0  0  0  0  0  0  0
    4.7935   22.7319   49.9799 C   0  0  0  0  0  0  0  0  0  0  0  0
    5.0998   23.1928   52.2600 C   0  0  0  0  0  0  0  0  0  0  0  0
    4.6692   24.4567   51.9771 C   0  0  0  0  0  0  0  0  0  0  0  0
    4.2928   24.9099   50.7340 C   0  0  0  0  0  0  0  0  0  0  0  0
    4.3541   24.0176   49.6850 C   0  0  0  0  0  0  0  0  0  0  0  0
    3.8306   26.2776   50.4470 C   0  0  0  0  0  0  0  0  0  0  0  0
    2.6239   26.3203   49.7761 F   0  0  0  0  0  0  0  0  0  0  0  0
    3.7433   26.9328   51.6600 F   0  0  0  0  0  0  0  0  0  0  0  0
    4.7713   26.9340   49.6601 F   0  0  0  0  0  0  0  0  0  0  0  0
  1  2  2  0  0  0
  1  5  1  0  0  0
  1 22  1  0  0  0
  2  3  2  0  0  0
  3  4  2  0  0  0
  4  5  1  0  0  0
  5 10  1  0  0  0
  6  7  2  0  0  0
  6  3  1  0  0  0
  7  8  1  0  0  0
  7 11  1  0  0  0
  8  9  2  0  0  0
  9  4  1  0  0  0
 11 12  2  0  0  0
 11 13  1  0  0  0
 13 15  1  0  0  0
 22 25  1  0  0  0
 24 25  1  0  0  0
 24 28  1  0  0  0
 25 26  2  0  0  0
 26 27  2  0  0  0
 27 28  2  0  0  0
 29 30  2  0  0  0
 29 27  1  0  0  0
 30 31  1  0  0  0
 31 32  2  0  0  0
 31 33  1  0  0  0
 32 28  1  0  0  0
 33 34  1  0  0  0
 33 35  1  0  0  0
 33 36  1  0  0  0
 15 16  1  0  0  0
 16 17  1  0  0  0
 17 18  1  0  0  0
 18 19  1  0  0  0
 19 20  1  0  0  0
 13 14  1  0  0  0
 22 23  1  0  0  0
 20 21  1  0  0  0
M  END
> <minimizedAffinity>
-8.40684

$$$$
HPPE


 36 39  0  0  0  0  0  0  0  0999 V2000
    4.9204   18.2356   46.1410 C   0  0  0  0  0  0  0  0  0  0  0  0
    5.6655   17.8555   45.0577 N   0  0  0  0  0  0  0  0  0  0  0  0
    5.5368   16.5583   44.8323 C   0  0  0  0  0  0  0  0  0  0  0  0
    4.6856   16.0709   45.7910 C   0  0  0  0  0  0  0  0  0  0  0  0
    4.3310   17.1157   46.5677 N   0  0  0  0  0  0  0  0  0  0  0  0
    6.1122   15.7746   43.8475 C   0  0  0  0  0  0  0  0  0  0  0  0
    5.7847   14.4348   43.8674 C   0  0  0  0  0  0  0  0  0  0  0  0
    4.9309   13.9287   44.8237 C   0  0  0  0  0  0  0  0  0  0  0  0
    4.3778   14.7482   45.7906 C   0  0  0  0  0  0  0  0  0  0  0  0
    3.4340   16.9829   47.6929 C   0  0  0  0  0  0  0  0  0  0  0  0
    6.3830   13.5961   42.8363 C   0  0  0  0  0  0  0  0  0  0  0  0
    7.6344   13.6083   42.7061 O   0  0  0  0  0  0  0  0  0  0  0  0
    5.6194   12.7707   41.9773 N   0  0  0  0  0  0  0  0  0  0  0  0
    4.5802   12.7442   42.0654 H   0  0  0  0  0  0  0  0  0  0  0  0
    6.2377   11.9444   40.9596 C   0  0  0  0  0  0  0  0  0  0  0  0
    5.7555   12.2619   39.5723 C   0  0  0  0  0  0  0  0  0  0  0  0
    5.3424   13.5762   39.4253 O   0  0  0  0  0  0  0  0  0  0  0  0
    3.9939   13.7185   39.1657 C   0  0  0  0  0  0  0  0  0  0  0  0
    3.3008   14.7685   39.9700 C   0  0  0  0  0  0  0  0  0  0  0  0
    4.2089   15.4052   40.8455 O   0  0  0  0  0  0  0  0  0  0  0  0
    3.7160   15.9616   41.4990 H   0  0  0  0  0  0  0  0  0  0  0  0
    4.8751   19.5698   46.6033 N   0  0  0  0  0  0  0  0  0  0  0  0
    4.4781   20.2675   45.8841 H   0  0  0  0  0  0  0  0  0  0  0  0
    5.6631   21.9635   47.8684 S   0  0  0  0  0  0  0  0  0  0  0  0
    5.2659   20.0729   47.8274 C   0  0  0  0  0  0  0  0  0  0  0  0
    5.4888   19.8124   49.0032 N   0  0  0  0  0  0  0  0  0  0  0  0
    5.8746   20.5703   49.9832 C   0  0  0  0  0  0  0  0  0  0  0  0
    6.0721   21.8996   49.6640 C   0  0  0  0  0  0  0  0  0  0  0  0
    6.1222   20.2414   51.3232 C   0  0  0  0  0  0  0  0  0  0  0  0
    6.5251   21.2263   52.1780 C   0  0  0  0  0  0  0  0  0  0  0  0
    6.7159   22.5458   51.8390 C   0  0  0  0  0  0  0  0  0  0  0  0
    6.4822   22.9073   50.5294 C   0  0  0  0  0  0  0  0  0  0  0  0
    7.1511   23.5953   52.7748 C   0  0  0  0  0  0  0  0  0  0  0  0
    8.2074   23.2118   53.5779 F   0  0  0  0  0  0  0  0  0  0  0  0
    7.4869   24.6969   52.0118 F   0  0  0  0  0  0  0  0  0  0  0  0
    6.0949   23.9450   53.6098 F   0  0  0  0  0  0  0  0  0  0  0  0
  1  2  2  0  0  0
  1  5  1  0  0  0
  1 22  1  0  0  0
  2  3  2  0  0  0
  3  4  2  0  0  0
  4  5  1  0  0  0
  5 10  1  0  0  0
  6  7  2  0  0  0
  6  3  1  0  0  0
  7  8  1  0  0  0
  7 11  1  0  0  0
  8  9  2  0  0  0
  9  4  1  0  0  0
 11 12  2  0  0  0
 11 13  1  0  0  0
 13 15  1  0  0  0
 22 25  1  0  0  0
 24 25  1  0  0  0
 24 28  1  0  0  0
 25 26  2  0  0  0
 26 27  2  0  0  0
 27 28  2  0  0  0
 29 30  2  0  0  0
 29 27  1  0  0  0
 30 31  1  0  0  0
 31 32  2  0  0  0
 31 33  1  0  0  0
 32 28  1  0  0  0
 33 34  1  0  0  0
 33 35  1  0  0  0
 33 36  1  0  0  0
 15 16  1  0  0  0
 16 17  1  0  0  0
 17 18  1  0  0  0
 18 19  1  0  0  0
 19 20  1  0  0  0
 13 14  1  0  0  0
 22 23  1  0  0  0
 20 21  1  0  0  0
M  END
> <minimizedAffinity>
-7.54354

$$$$
HPPE


 36 39  0  0  0  0  0  0  0  0999 V2000
    5.2828   18.4320   48.0664 C   0  0  0  0  0  0  0  0  0  0  0  0
    4.6984   19.0941   49.1120 N   0  0  0  0  0  0  0  0  0  0  0  0
    5.1721   20.3253   49.2105 C   0  0  0  0  0  0  0  0  0  0  0  0
    6.0920   20.4788   48.2047 C   0  0  0  0  0  0  0  0  0  0  0  0
    6.1336   19.3109   47.5303 N   0  0  0  0  0  0  0  0  0  0  0  0
    4.8550   21.3206   50.1182 C   0  0  0  0  0  0  0  0  0  0  0  0
    5.5240   22.5175   49.9673 C   0  0  0  0  0  0  0  0  0  0  0  0
    6.4512   22.6884   48.9620 C   0  0  0  0  0  0  0  0  0  0  0  0
    6.7381   21.6664   48.0757 C   0  0  0  0  0  0  0  0  0  0  0  0
    6.9984   19.0968   46.3925 C   0  0  0  0  0  0  0  0  0  0  0  0
    5.2008   23.5758   50.9159 C   0  0  0  0  0  0  0  0  0  0  0  0
    5.9142   23.6954   51.9454 O   0  0  0  0  0  0  0  0  0  0  0  0
    4.1220   24.4724   50.7300 N   0  0  0  0  0  0  0  0  0  0  0  0
    3.5157   24.3927   49.8847 H   0  0  0  0  0  0  0  0  0  0  0  0
    3.8210   25.5179   51.6876 C   0  0  0  0  0  0  0  0  0  0  0  0
    4.2837   26.8756   51.2398 C   0  0  0  0  0  0  0  0  0  0  0  0
    5.6448   26.9327   50.9870 O   0  0  0  0  0  0  0  0  0  0  0  0
    5.9709   26.9209   49.6455 C   0  0  0  0  0  0  0  0  0  0  0  0
    7.2790   26.2802   49.3166 C   0  0  0  0  0  0  0  0  0  0  0  0
    7.8075   25.6187   50.4478 O   0  0  0  0  0  0  0  0  0  0  0  0
    8.7478   25.3591   50.2798 H   0  0  0  0  0  0  0  0  0  0  0  0
    4.9594   17.0974   47.7345 N   0  0  0  0  0  0  0  0  0  0  0  0
    4.4096   16.5779   48.5023 H   0  0  0  0  0  0  0  0  0  0  0  0
    4.1110   16.7653   45.0660 S   0  0  0  0  0  0  0  0  0  0  0  0
    5.2532   16.3993   46.5810 C   0  0  0  0  0  0  0  0  0  0  0  0
    5.9926   15.5742   46.0590 N   0  0  0  0  0  0  0  0  0  0  0  0
    6.0093   15.0890   44.8557 C   0  0  0  0  0  0  0  0  0  0  0  0
    5.0348   15.5746   44.0058 C   0  0  0  0  0  0  0  0  0  0  0  0
    6.8716   14.1419   44.2859 C   0  0  0  0  0  0  0  0  0  0  0  0
    6.6872   13.7860   42.9812 C   0  0  0  0  0  0  0  0  0  0  0  0
    5.7089   14.2826   42.1513 C   0  0  0  0  0  0  0  0  0  0  0  0
    4.8415   15.2164   42.6764 C   0  0  0  0  0  0  0  0  0  0  0  0
    5.5245   13.8870   40.7456 C   0  0  0  0  0  0  0  0  0  0  0  0
    5.7940   14.9027   39.8491 F   0  0  0  0  0  0  0  0  0  0  0  0
    6.3507   12.8022   40.5240 F   0  0  0  0  0  0  0  0  0  0  0  0
    4.2085   13.4854   40.5412 F   0  0  0  0  0  0  0  0  0  0  0  0
  1  2  2  0  0  0
  1  5  1  0  0  0
  1 22  1  0  0  0
  2  3  2  0  0  0
  3  4  2  0  0  0
  4  5  1  0  0  0
  5 10  1  0  0  0
  6  7  2  0  0  0
  6  3  1  0  0  0
  7  8  1  0  0  0
  7 11  1  0  0  0
  8  9  2  0  0  0
  9  4  1  0  0  0
 11 12  2  0  0  0
 11 13  1  0  0  0
 13 15  1  0  0  0
 22 25  1  0  0  0
 24 25  1  0  0  0
 24 28  1  0  0  0
 25 26  2  0  0  0
 26 27  2  0  0  0
 27 28  2  0  0  0
 29 30  2  0  0  0
 29 27  1  0  0  0
 30 31  1  0  0  0
 31 32  2  0  0  0
 31 33  1  0  0  0
 32 28  1  0  0  0
 33 34  1  0  0  0
 33 35  1  0  0  0
 33 36  1  0  0  0
 15 16  1  0  0  0
 16 17  1  0  0  0
 17 18  1  0  0  0
 18 19  1  0  0  0
 19 20  1  0  0  0
 13 14  1  0  0  0
 22 23  1  0  0  0
 20 21  1  0  0  0
M  END
> <minimizedAffinity>
-7.13529

$$$$
