Isoeugenol


 13 13  0  0  0  0  0  0  0  0999 V2000
    3.3115   18.8976   47.9380 C   0  0  0  0  0  0  0  0  0  0  0  0
    3.9324   17.7061   47.6431 C   0  0  0  0  0  0  0  0  0  0  0  0
    3.6291   20.0124   47.1625 C   0  0  0  0  0  0  0  0  0  0  0  0
    4.8467   17.5679   46.6234 C   0  0  0  0  0  0  0  0  0  0  0  0
    4.5381   19.9263   46.1298 C   0  0  0  0  0  0  0  0  0  0  0  0
    3.0376   21.2240   47.4156 O   0  0  0  0  0  0  0  0  0  0  0  0
    5.1260   18.7039   45.8848 C   0  0  0  0  0  0  0  0  0  0  0  0
    3.4418   21.8172   48.1462 H   0  0  0  0  0  0  0  0  0  0  0  0
    5.5136   16.3210   46.2948 C   0  0  0  0  0  0  0  0  0  0  0  0
    5.6274   15.8503   45.0648 C   0  0  0  0  0  0  0  0  0  0  0  0
    6.3289   14.5566   44.8012 C   0  0  0  0  0  0  0  0  0  0  0  0
    2.3967   19.0816   48.9421 O   0  0  0  0  0  0  0  0  0  0  0  0
    2.7547   19.2801   50.2977 C   0  0  0  0  0  0  0  0  0  0  0  0
  1  2  2  0  0  0
  1  3  1  0  0  0
  1 12  1  0  0  0
  2  4  1  0  0  0
  3  5  2  0  0  0
  3  6  1  0  0  0
 12 13  1  0  0  0
  4  7  2  0  0  0
  4  9  1  0  0  0
  5  7  1  0  0  0
  9 10  2  0  0  0
 10 11  1  0  0  0
  6  8  1  0  0  0
M  END
> <minimizedAffinity>
-6.42000

$$$$
Isoeugenol


 13 13  0  0  0  0  0  0  0  0999 V2000
    6.1600   18.8382   49.9277 C   0  0  0  0  0  0  0  0  0  0  0  0
    5.9685   18.3231   48.6667 C   0  0  0  0  0  0  0  0  0  0  0  0
    5.1124   18.7389   50.8431 C   0  0  0  0  0  0  0  0  0  0  0  0
    4.7964   17.7186   48.2725 C   0  0  0  0  0  0  0  0  0  0  0  0
    3.9186   18.1425   50.4975 C   0  0  0  0  0  0  0  0  0  0  0  0
    5.2526   19.2368   52.1135 O   0  0  0  0  0  0  0  0  0  0  0  0
    3.7892   17.6459   49.2181 C   0  0  0  0  0  0  0  0  0  0  0  0
    5.0774   20.2345   52.2650 H   0  0  0  0  0  0  0  0  0  0  0  0
    4.5726   17.1685   46.9477 C   0  0  0  0  0  0  0  0  0  0  0  0
    5.4536   16.4230   46.3030 C   0  0  0  0  0  0  0  0  0  0  0  0
    5.1539   15.8899   44.9387 C   0  0  0  0  0  0  0  0  0  0  0  0
    7.3078   19.4477   50.3636 O   0  0  0  0  0  0  0  0  0  0  0  0
    7.7201   20.7331   49.9358 C   0  0  0  0  0  0  0  0  0  0  0  0
  1  2  2  0  0  0
  1  3  1  0  0  0
  1 12  1  0  0  0
  2  4  1  0  0  0
  3  5  2  0  0  0
  3  6  1  0  0  0
 12 13  1  0  0  0
  4  7  2  0  0  0
  4  9  1  0  0  0
  5  7  1  0  0  0
  9 10  2  0  0  0
 10 11  1  0  0  0
  6  8  1  0  0  0
M  END
> <minimizedAffinity>
-6.32459

$$$$
Isoeugenol


 13 13  0  0  0  0  0  0  0  0999 V2000
    6.1874   19.5548   50.9218 C   0  0  0  0  0  0  0  0  0  0  0  0
    6.3832   19.1832   49.6119 C   0  0  0  0  0  0  0  0  0  0  0  0
    5.0575   19.0691   51.5796 C   0  0  0  0  0  0  0  0  0  0  0  0
    5.5186   18.3591   48.9278 C   0  0  0  0  0  0  0  0  0  0  0  0
    4.1612   18.2407   50.9388 C   0  0  0  0  0  0  0  0  0  0  0  0
    4.8162   19.4098   52.8863 O   0  0  0  0  0  0  0  0  0  0  0  0
    4.4139   17.9051   49.6259 C   0  0  0  0  0  0  0  0  0  0  0  0
    4.3466   20.3001   53.0761 H   0  0  0  0  0  0  0  0  0  0  0  0
    5.7056   17.9544   47.5461 C   0  0  0  0  0  0  0  0  0  0  0  0
    5.3355   16.7788   47.0681 C   0  0  0  0  0  0  0  0  0  0  0  0
    5.5604   16.4305   45.6316 C   0  0  0  0  0  0  0  0  0  0  0  0
    7.0199   20.3718   51.6416 O   0  0  0  0  0  0  0  0  0  0  0  0
    7.0344   21.7817   51.5112 C   0  0  0  0  0  0  0  0  0  0  0  0
  1  2  2  0  0  0
  1  3  1  0  0  0
  1 12  1  0  0  0
  2  4  1  0  0  0
  3  5  2  0  0  0
  3  6  1  0  0  0
 12 13  1  0  0  0
  4  7  2  0  0  0
  4  9  1  0  0  0
  5  7  1  0  0  0
  9 10  2  0  0  0
 10 11  1  0  0  0
  6  8  1  0  0  0
M  END
> <minimizedAffinity>
-6.15669

$$$$
Isoeugenol


 13 13  0  0  0  0  0  0  0  0999 V2000
    5.4931   14.5778   41.9480 C   0  0  0  0  0  0  0  0  0  0  0  0
    5.2692   15.5751   42.8685 C   0  0  0  0  0  0  0  0  0  0  0  0
    6.1036   13.4036   42.3882 C   0  0  0  0  0  0  0  0  0  0  0  0
    5.6193   15.4649   44.1952 C   0  0  0  0  0  0  0  0  0  0  0  0
    6.4732   13.2439   43.7066 C   0  0  0  0  0  0  0  0  0  0  0  0
    6.3491   12.3788   41.5100 O   0  0  0  0  0  0  0  0  0  0  0  0
    6.2216   14.2804   44.5798 C   0  0  0  0  0  0  0  0  0  0  0  0
    7.2015   12.4197   40.9436 H   0  0  0  0  0  0  0  0  0  0  0  0
    5.3927   16.5041   45.1833 C   0  0  0  0  0  0  0  0  0  0  0  0
    5.6410   16.3583   46.4735 C   0  0  0  0  0  0  0  0  0  0  0  0
    5.3825   17.4741   47.4345 C   0  0  0  0  0  0  0  0  0  0  0  0
    5.1621   14.6435   40.6195 O   0  0  0  0  0  0  0  0  0  0  0  0
    3.8368   14.5133   40.1377 C   0  0  0  0  0  0  0  0  0  0  0  0
  1  2  2  0  0  0
  1  3  1  0  0  0
  1 12  1  0  0  0
  2  4  1  0  0  0
  3  5  2  0  0  0
  3  6  1  0  0  0
 12 13  1  0  0  0
  4  7  2  0  0  0
  4  9  1  0  0  0
  5  7  1  0  0  0
  9 10  2  0  0  0
 10 11  1  0  0  0
  6  8  1  0  0  0
M  END
> <minimizedAffinity>
-5.81930

$$$$
Isoeugenol


 13 13  0  0  0  0  0  0  0  0999 V2000
    5.7490   18.8456   48.5126 C   0  0  0  0  0  0  0  0  0  0  0  0
    5.6126   17.5838   47.9822 C   0  0  0  0  0  0  0  0  0  0  0  0
    5.5325   19.9374   47.6722 C   0  0  0  0  0  0  0  0  0  0  0  0
    5.2743   17.3541   46.6678 C   0  0  0  0  0  0  0  0  0  0  0  0
    5.1917   19.7608   46.3483 C   0  0  0  0  0  0  0  0  0  0  0  0
    5.6560   21.2166   48.1521 O   0  0  0  0  0  0  0  0  0  0  0  0
    5.0705   18.4710   45.8772 C   0  0  0  0  0  0  0  0  0  0  0  0
    6.5911   21.6329   48.1867 H   0  0  0  0  0  0  0  0  0  0  0  0
    5.1250   16.0319   46.0874 C   0  0  0  0  0  0  0  0  0  0  0  0
    5.9097   15.5534   45.1373 C   0  0  0  0  0  0  0  0  0  0  0  0
    5.6959   14.1801   44.5862 C   0  0  0  0  0  0  0  0  0  0  0  0
    6.0838   19.1214   49.8129 O   0  0  0  0  0  0  0  0  0  0  0  0
    5.2737   18.7683   50.9194 C   0  0  0  0  0  0  0  0  0  0  0  0
  1  2  2  0  0  0
  1  3  1  0  0  0
  1 12  1  0  0  0
  2  4  1  0  0  0
  3  5  2  0  0  0
  3  6  1  0  0  0
 12 13  1  0  0  0
  4  7  2  0  0  0
  4  9  1  0  0  0
  5  7  1  0  0  0
  9 10  2  0  0  0
 10 11  1  0  0  0
  6  8  1  0  0  0
M  END
> <minimizedAffinity>
-5.78922

$$$$
