JTE-013.cdx


 28 30  0  0  0  0  0  0  0  0999 V2000
    5.5892   16.5743   46.7905 N   0  0  0  0  0  0  0  0  0  0  0  0
    5.3880   15.6826   47.2972 H   0  0  0  0  0  0  0  0  0  0  0  0
    6.4133   19.9412   47.7150 C   0  0  0  0  0  0  0  0  0  0  0  0
    5.6426   20.1759   48.8306 C   0  0  0  0  0  0  0  0  0  0  0  0
    4.7882   19.2040   49.3446 C   0  0  0  0  0  0  0  0  0  0  0  0
    4.7735   17.9862   48.6507 C   0  0  0  0  0  0  0  0  0  0  0  0
    5.5553   17.7777   47.5376 C   0  0  0  0  0  0  0  0  0  0  0  0
    6.3755   18.7683   47.0760 N   0  0  0  0  0  0  0  0  0  0  0  0
    6.8676   21.9326   48.3132 N   0  0  0  0  0  0  0  0  0  0  0  0
    7.1582   21.0308   47.4114 N   0  0  0  0  0  0  0  0  0  0  0  0
    5.9458   21.4741   49.2128 C   0  0  0  0  0  0  0  0  0  0  0  0
    5.4065   22.2299   50.3603 C   0  0  0  0  0  0  0  0  0  0  0  0
    8.0801   21.1346   46.2868 C   0  0  0  0  0  0  0  0  0  0  0  0
    3.9568   19.4637   50.5275 C   0  0  0  0  0  0  0  0  0  0  0  0
    2.5031   19.4676   50.0116 C   0  0  0  0  0  0  0  0  0  0  0  0
    3.9833   18.3599   51.5580 C   0  0  0  0  0  0  0  0  0  0  0  0
    5.8679   16.4811   45.4347 N   0  0  0  0  0  0  0  0  0  0  0  0
    5.5079   15.4099   44.5835 C   0  0  0  0  0  0  0  0  0  0  0  0
    4.8840   14.4521   45.0835 O   0  0  0  0  0  0  0  0  0  0  0  0
    5.8552   15.4535   43.2291 N   0  0  0  0  0  0  0  0  0  0  0  0
    6.4032   17.3109   45.0281 H   0  0  0  0  0  0  0  0  0  0  0  0
    6.3745   16.3065   42.8996 H   0  0  0  0  0  0  0  0  0  0  0  0
    5.6994   12.2684   41.2646 C   0  0  0  0  0  0  0  0  0  0  0  0
    6.0158   13.1712   42.2781 C   0  0  0  0  0  0  0  0  0  0  0  0
    5.5816   14.4718   42.2512 C   0  0  0  0  0  0  0  0  0  0  0  0
    4.8079   14.8292   41.1499 C   0  0  0  0  0  0  0  0  0  0  0  0
    4.4963   13.9371   40.1497 C   0  0  0  0  0  0  0  0  0  0  0  0
    4.9475   12.6749   40.2264 N   0  0  0  0  0  0  0  0  0  0  0  0
 17  1  1  0  0  0
 17 18  1  0  0  0
  1  7  1  0  0  0
 18 19  2  0  0  0
 18 20  1  0  0  0
 20 25  1  0  0  0
  3  4  1  0  0  0
  3  8  2  0  0  0
  3 10  1  0  0  0
  4  5  2  0  0  0
  4 11  1  0  0  0
  5  6  1  0  0  0
  5 14  1  0  0  0
  6  7  2  0  0  0
  7  8  2  0  0  0
  9 10  1  0  0  0
  9 11  2  0  0  0
 10 13  1  0  0  0
 11 12  1  0  0  0
 14 15  1  0  0  0
 14 16  1  0  0  0
 23 24  2  0  0  0
 23 28  2  0  0  0
 24 25  1  0  0  0
 25 26  2  0  0  0
 26 27  1  0  0  0
 27 28  2  0  0  0
 17 21  1  0  0  0
  1  2  1  0  0  0
 20 22  1  0  0  0
M  END
> <minimizedAffinity>
-8.41327

$$$$
JTE-013.cdx


 28 30  0  0  0  0  0  0  0  0999 V2000
    4.3347   19.3118   48.6984 N   0  0  0  0  0  0  0  0  0  0  0  0
    3.8876   18.8695   49.5332 H   0  0  0  0  0  0  0  0  0  0  0  0
    7.0768   21.6061   48.4032 C   0  0  0  0  0  0  0  0  0  0  0  0
    6.6908   22.6830   49.1679 C   0  0  0  0  0  0  0  0  0  0  0  0
    5.4695   22.7027   49.8362 C   0  0  0  0  0  0  0  0  0  0  0  0
    4.6752   21.5592   49.6745 C   0  0  0  0  0  0  0  0  0  0  0  0
    5.0858   20.4955   48.9041 C   0  0  0  0  0  0  0  0  0  0  0  0
    6.2952   20.5307   48.2691 N   0  0  0  0  0  0  0  0  0  0  0  0
    8.6763   23.0036   48.2683 N   0  0  0  0  0  0  0  0  0  0  0  0
    8.2978   21.8208   47.8578 N   0  0  0  0  0  0  0  0  0  0  0  0
    7.7386   23.5868   49.0744 C   0  0  0  0  0  0  0  0  0  0  0  0
    7.8510   24.9126   49.7136 C   0  0  0  0  0  0  0  0  0  0  0  0
    9.0059   20.8925   46.9849 C   0  0  0  0  0  0  0  0  0  0  0  0
    5.0554   23.8603   50.6402 C   0  0  0  0  0  0  0  0  0  0  0  0
    3.6274   24.1977   50.1645 C   0  0  0  0  0  0  0  0  0  0  0  0
    4.8976   23.5671   52.1134 C   0  0  0  0  0  0  0  0  0  0  0  0
    4.1416   18.6886   47.4741 N   0  0  0  0  0  0  0  0  0  0  0  0
    4.8740   17.5844   46.9784 C   0  0  0  0  0  0  0  0  0  0  0  0
    5.7823   17.1180   47.6953 O   0  0  0  0  0  0  0  0  0  0  0  0
    4.5652   17.0557   45.7206 N   0  0  0  0  0  0  0  0  0  0  0  0
    3.3602   19.1046   46.8767 H   0  0  0  0  0  0  0  0  0  0  0  0
    3.7778   17.5126   45.1941 H   0  0  0  0  0  0  0  0  0  0  0  0
    5.5458   13.6361   44.5489 C   0  0  0  0  0  0  0  0  0  0  0  0
    4.8614   14.6470   45.2212 C   0  0  0  0  0  0  0  0  0  0  0  0
    5.1985   15.9686   45.0786 C   0  0  0  0  0  0  0  0  0  0  0  0
    6.2644   16.2328   44.2223 C   0  0  0  0  0  0  0  0  0  0  0  0
    6.9395   15.2338   43.5591 C   0  0  0  0  0  0  0  0  0  0  0  0
    6.5673   13.9558   43.7348 N   0  0  0  0  0  0  0  0  0  0  0  0
 17  1  1  0  0  0
 17 18  1  0  0  0
  1  7  1  0  0  0
 18 19  2  0  0  0
 18 20  1  0  0  0
 20 25  1  0  0  0
  3  4  1  0  0  0
  3  8  2  0  0  0
  3 10  1  0  0  0
  4  5  2  0  0  0
  4 11  1  0  0  0
  5  6  1  0  0  0
  5 14  1  0  0  0
  6  7  2  0  0  0
  7  8  2  0  0  0
  9 10  1  0  0  0
  9 11  2  0  0  0
 10 13  1  0  0  0
 11 12  1  0  0  0
 14 15  1  0  0  0
 14 16  1  0  0  0
 23 24  2  0  0  0
 23 28  2  0  0  0
 24 25  1  0  0  0
 25 26  2  0  0  0
 26 27  1  0  0  0
 27 28  2  0  0  0
 17 21  1  0  0  0
  1  2  1  0  0  0
 20 22  1  0  0  0
M  END
> <minimizedAffinity>
-8.30742

$$$$
JTE-013.cdx


 28 30  0  0  0  0  0  0  0  0999 V2000
    4.7630   18.7666   47.5646 N   0  0  0  0  0  0  0  0  0  0  0  0
    3.7233   18.8586   47.5096 H   0  0  0  0  0  0  0  0  0  0  0  0
    7.4646   21.1268   47.5436 C   0  0  0  0  0  0  0  0  0  0  0  0
    7.0939   22.0623   48.4822 C   0  0  0  0  0  0  0  0  0  0  0  0
    5.8976   21.9546   49.1865 C   0  0  0  0  0  0  0  0  0  0  0  0
    5.1118   20.8371   48.8726 C   0  0  0  0  0  0  0  0  0  0  0  0
    5.5068   19.9160   47.9297 C   0  0  0  0  0  0  0  0  0  0  0  0
    6.6917   20.0725   47.2674 N   0  0  0  0  0  0  0  0  0  0  0  0
    9.0412   22.5562   47.5776 N   0  0  0  0  0  0  0  0  0  0  0  0
    8.6623   21.4466   46.9979 N   0  0  0  0  0  0  0  0  0  0  0  0
    8.1265   22.9879   48.4975 C   0  0  0  0  0  0  0  0  0  0  0  0
    8.2462   24.1978   49.3347 C   0  0  0  0  0  0  0  0  0  0  0  0
    9.3492   20.6806   45.9651 C   0  0  0  0  0  0  0  0  0  0  0  0
    5.4992   22.9630   50.1775 C   0  0  0  0  0  0  0  0  0  0  0  0
    4.0538   23.3521   49.8053 C   0  0  0  0  0  0  0  0  0  0  0  0
    5.3913   22.4361   51.5888 C   0  0  0  0  0  0  0  0  0  0  0  0
    5.3032   17.5229   47.2715 N   0  0  0  0  0  0  0  0  0  0  0  0
    5.4138   16.9468   45.9842 C   0  0  0  0  0  0  0  0  0  0  0  0
    4.9887   17.6042   45.0126 O   0  0  0  0  0  0  0  0  0  0  0  0
    5.9863   15.6788   45.8386 N   0  0  0  0  0  0  0  0  0  0  0  0
    5.6597   16.9774   48.1176 H   0  0  0  0  0  0  0  0  0  0  0  0
    6.3221   15.2062   46.7161 H   0  0  0  0  0  0  0  0  0  0  0  0
    7.0266   14.5996   42.4062 C   0  0  0  0  0  0  0  0  0  0  0  0
    6.9083   15.3735   43.5592 C   0  0  0  0  0  0  0  0  0  0  0  0
    6.1644   14.9614   44.6350 C   0  0  0  0  0  0  0  0  0  0  0  0
    5.5380   13.7250   44.5002 C   0  0  0  0  0  0  0  0  0  0  0  0
    5.6553   12.9618   43.3612 C   0  0  0  0  0  0  0  0  0  0  0  0
    6.3970   13.4133   42.3372 N   0  0  0  0  0  0  0  0  0  0  0  0
 17  1  1  0  0  0
 17 18  1  0  0  0
  1  7  1  0  0  0
 18 19  2  0  0  0
 18 20  1  0  0  0
 20 25  1  0  0  0
  3  4  1  0  0  0
  3  8  2  0  0  0
  3 10  1  0  0  0
  4  5  2  0  0  0
  4 11  1  0  0  0
  5  6  1  0  0  0
  5 14  1  0  0  0
  6  7  2  0  0  0
  7  8  2  0  0  0
  9 10  1  0  0  0
  9 11  2  0  0  0
 10 13  1  0  0  0
 11 12  1  0  0  0
 14 15  1  0  0  0
 14 16  1  0  0  0
 23 24  2  0  0  0
 23 28  2  0  0  0
 24 25  1  0  0  0
 25 26  2  0  0  0
 26 27  1  0  0  0
 27 28  2  0  0  0
 17 21  1  0  0  0
  1  2  1  0  0  0
 20 22  1  0  0  0
M  END
> <minimizedAffinity>
-8.23095

$$$$
JTE-013.cdx


 28 30  0  0  0  0  0  0  0  0999 V2000
    3.9392   18.3645   48.2302 N   0  0  0  0  0  0  0  0  0  0  0  0
    3.1765   18.1085   48.8974 H   0  0  0  0  0  0  0  0  0  0  0  0
    5.8551   20.3262   50.5434 C   0  0  0  0  0  0  0  0  0  0  0  0
    6.7405   21.0106   49.7426 C   0  0  0  0  0  0  0  0  0  0  0  0
    6.7469   20.8506   48.3595 C   0  0  0  0  0  0  0  0  0  0  0  0
    5.7967   19.9539   47.8519 C   0  0  0  0  0  0  0  0  0  0  0  0
    4.9222   19.2827   48.6755 C   0  0  0  0  0  0  0  0  0  0  0  0
    4.9614   19.4775   50.0274 N   0  0  0  0  0  0  0  0  0  0  0  0
    7.0199   21.5163   51.8687 N   0  0  0  0  0  0  0  0  0  0  0  0
    6.0417   20.6484   51.8456 N   0  0  0  0  0  0  0  0  0  0  0  0
    7.4936   21.7829   50.6142 C   0  0  0  0  0  0  0  0  0  0  0  0
    8.5847   22.7201   50.2824 C   0  0  0  0  0  0  0  0  0  0  0  0
    5.2844   20.1028   52.9655 C   0  0  0  0  0  0  0  0  0  0  0  0
    7.7032   21.5727   47.5097 C   0  0  0  0  0  0  0  0  0  0  0  0
    8.9299   20.6446   47.3962 C   0  0  0  0  0  0  0  0  0  0  0  0
    7.2451   21.7608   46.0829 C   0  0  0  0  0  0  0  0  0  0  0  0
    3.9043   17.7749   46.9749 N   0  0  0  0  0  0  0  0  0  0  0  0
    4.8587   16.8693   46.4549 C   0  0  0  0  0  0  0  0  0  0  0  0
    5.8283   16.5646   47.1785 O   0  0  0  0  0  0  0  0  0  0  0  0
    4.6919   16.3499   45.1667 N   0  0  0  0  0  0  0  0  0  0  0  0
    3.0667   18.0504   46.3724 H   0  0  0  0  0  0  0  0  0  0  0  0
    3.8385   16.6608   44.6366 H   0  0  0  0  0  0  0  0  0  0  0  0
    6.3913   13.2646   43.8934 C   0  0  0  0  0  0  0  0  0  0  0  0
    5.5004   14.0803   44.5886 C   0  0  0  0  0  0  0  0  0  0  0  0
    5.5489   15.4478   44.4982 C   0  0  0  0  0  0  0  0  0  0  0  0
    6.5420   15.9652   43.6704 C   0  0  0  0  0  0  0  0  0  0  0  0
    7.4212   15.1589   42.9846 C   0  0  0  0  0  0  0  0  0  0  0  0
    7.3288   13.8252   43.1090 N   0  0  0  0  0  0  0  0  0  0  0  0
 17  1  1  0  0  0
 17 18  1  0  0  0
  1  7  1  0  0  0
 18 19  2  0  0  0
 18 20  1  0  0  0
 20 25  1  0  0  0
  3  4  1  0  0  0
  3  8  2  0  0  0
  3 10  1  0  0  0
  4  5  2  0  0  0
  4 11  1  0  0  0
  5  6  1  0  0  0
  5 14  1  0  0  0
  6  7  2  0  0  0
  7  8  2  0  0  0
  9 10  1  0  0  0
  9 11  2  0  0  0
 10 13  1  0  0  0
 11 12  1  0  0  0
 14 15  1  0  0  0
 14 16  1  0  0  0
 23 24  2  0  0  0
 23 28  2  0  0  0
 24 25  1  0  0  0
 25 26  2  0  0  0
 26 27  1  0  0  0
 27 28  2  0  0  0
 17 21  1  0  0  0
  1  2  1  0  0  0
 20 22  1  0  0  0
M  END
> <minimizedAffinity>
-8.16937

$$$$
JTE-013.cdx


 28 30  0  0  0  0  0  0  0  0999 V2000
    2.9911   20.9799   48.0079 N   0  0  0  0  0  0  0  0  0  0  0  0
    2.4365   21.6252   47.4008 H   0  0  0  0  0  0  0  0  0  0  0  0
    4.4951   23.5556   50.0013 C   0  0  0  0  0  0  0  0  0  0  0  0
    5.1766   22.8637   50.9763 C   0  0  0  0  0  0  0  0  0  0  0  0
    5.1702   21.4721   51.0228 C   0  0  0  0  0  0  0  0  0  0  0  0
    4.4291   20.8386   50.0158 C   0  0  0  0  0  0  0  0  0  0  0  0
    3.7571   21.5550   49.0519 C   0  0  0  0  0  0  0  0  0  0  0  0
    3.7971   22.9208   49.0552 N   0  0  0  0  0  0  0  0  0  0  0  0
    5.4160   25.0407   51.2162 N   0  0  0  0  0  0  0  0  0  0  0  0
    4.6526   24.8908   50.1648 N   0  0  0  0  0  0  0  0  0  0  0  0
    5.7731   23.8389   51.7614 C   0  0  0  0  0  0  0  0  0  0  0  0
    6.6335   23.6474   52.9456 C   0  0  0  0  0  0  0  0  0  0  0  0
    4.0612   25.9191   49.3173 C   0  0  0  0  0  0  0  0  0  0  0  0
    5.8876   20.7380   52.0737 C   0  0  0  0  0  0  0  0  0  0  0  0
    4.7888   20.1077   52.9538 C   0  0  0  0  0  0  0  0  0  0  0  0
    6.6849   19.5578   51.5711 C   0  0  0  0  0  0  0  0  0  0  0  0
    2.9164   19.6244   47.7225 N   0  0  0  0  0  0  0  0  0  0  0  0
    3.8187   18.8939   46.9140 C   0  0  0  0  0  0  0  0  0  0  0  0
    4.7737   19.5118   46.4011 O   0  0  0  0  0  0  0  0  0  0  0  0
    3.6189   17.5237   46.7154 N   0  0  0  0  0  0  0  0  0  0  0  0
    2.0912   19.1159   48.1707 H   0  0  0  0  0  0  0  0  0  0  0  0
    2.7895   17.0907   47.1956 H   0  0  0  0  0  0  0  0  0  0  0  0
    5.0788   14.5157   45.0276 C   0  0  0  0  0  0  0  0  0  0  0  0
    4.2404   15.2993   45.8183 C   0  0  0  0  0  0  0  0  0  0  0  0
    4.4148   16.6544   45.9372 C   0  0  0  0  0  0  0  0  0  0  0  0
    5.4796   17.1931   45.2194 C   0  0  0  0  0  0  0  0  0  0  0  0
    6.3069   16.4184   44.4390 C   0  0  0  0  0  0  0  0  0  0  0  0
    6.0906   15.0958   44.3580 N   0  0  0  0  0  0  0  0  0  0  0  0
 17  1  1  0  0  0
 17 18  1  0  0  0
  1  7  1  0  0  0
 18 19  2  0  0  0
 18 20  1  0  0  0
 20 25  1  0  0  0
  3  4  1  0  0  0
  3  8  2  0  0  0
  3 10  1  0  0  0
  4  5  2  0  0  0
  4 11  1  0  0  0
  5  6  1  0  0  0
  5 14  1  0  0  0
  6  7  2  0  0  0
  7  8  2  0  0  0
  9 10  1  0  0  0
  9 11  2  0  0  0
 10 13  1  0  0  0
 11 12  1  0  0  0
 14 15  1  0  0  0
 14 16  1  0  0  0
 23 24  2  0  0  0
 23 28  2  0  0  0
 24 25  1  0  0  0
 25 26  2  0  0  0
 26 27  1  0  0  0
 27 28  2  0  0  0
 17 21  1  0  0  0
  1  2  1  0  0  0
 20 22  1  0  0  0
M  END
> <minimizedAffinity>
-8.15631

$$$$
