L-Xylose


 14 13  0  0  0  0  0  0  0  0999 V2000
    4.3255   19.7160   50.4251 C   0  0  0  0  0  0  0  0  0  0  0  0
    5.4377   19.1072   49.8517 O   0  0  0  0  0  0  0  0  0  0  0  0
    5.5330   18.1688   50.0912 H   0  0  0  0  0  0  0  0  0  0  0  0
    3.9925   19.0942   51.7643 C   0  0  0  0  0  0  0  0  0  0  0  0
    4.2923   17.7535   51.6963 O   0  0  0  0  0  0  0  0  0  0  0  0
    4.6787   17.4031   52.5479 H   0  0  0  0  0  0  0  0  0  0  0  0
    4.7058   19.7958   52.8948 C   0  0  0  0  0  0  0  0  0  0  0  0
    6.0766   19.7340   52.8207 O   0  0  0  0  0  0  0  0  0  0  0  0
    6.4650   18.8477   52.9076 H   0  0  0  0  0  0  0  0  0  0  0  0
    3.1512   19.4850   49.5041 C   0  0  0  0  0  0  0  0  0  0  0  0
    1.9977   19.0990   50.1684 O   0  0  0  0  0  0  0  0  0  0  0  0
    2.1485   18.4433   50.8767 H   0  0  0  0  0  0  0  0  0  0  0  0
    3.5020   18.5159   48.4224 C   0  0  0  0  0  0  0  0  0  0  0  0
    3.6621   17.3178   48.6518 O   0  0  0  0  0  0  0  0  0  0  0  0
  1 10  1  0  0  0
  1  2  1  0  0  0
  4  5  1  0  0  0
  4  7  1  0  0  0
  4  1  1  0  0  0
 10 13  1  0  0  0
 10 11  1  0  0  0
  7  8  1  0  0  0
 13 14  2  0  0  0
  2  3  1  0  0  0
  5  6  1  0  0  0
 11 12  1  0  0  0
  8  9  1  0  0  0
M  END
> <minimizedAffinity>
-4.38563

$$$$
L-Xylose


 14 13  0  0  0  0  0  0  0  0999 V2000
    4.2671   20.1068   49.5896 C   0  0  0  0  0  0  0  0  0  0  0  0
    5.1491   19.4375   48.7467 O   0  0  0  0  0  0  0  0  0  0  0  0
    4.8313   18.5602   48.4701 H   0  0  0  0  0  0  0  0  0  0  0  0
    3.4745   19.1329   50.4347 C   0  0  0  0  0  0  0  0  0  0  0  0
    3.3017   17.9800   49.7047 O   0  0  0  0  0  0  0  0  0  0  0  0
    3.3613   17.1571   50.2674 H   0  0  0  0  0  0  0  0  0  0  0  0
    4.1389   18.8863   51.7678 C   0  0  0  0  0  0  0  0  0  0  0  0
    4.5041   17.5790   51.9821 O   0  0  0  0  0  0  0  0  0  0  0  0
    3.7740   16.9408   52.0429 H   0  0  0  0  0  0  0  0  0  0  0  0
    3.2913   20.8656   48.7220 C   0  0  0  0  0  0  0  0  0  0  0  0
    1.9738   20.4754   48.9037 O   0  0  0  0  0  0  0  0  0  0  0  0
    1.8529   19.5086   48.9758 H   0  0  0  0  0  0  0  0  0  0  0  0
    3.6839   20.7896   47.2825 C   0  0  0  0  0  0  0  0  0  0  0  0
    4.3446   21.6761   46.7426 O   0  0  0  0  0  0  0  0  0  0  0  0
  1 10  1  0  0  0
  1  2  1  0  0  0
  4  5  1  0  0  0
  4  7  1  0  0  0
  4  1  1  0  0  0
 10 13  1  0  0  0
 10 11  1  0  0  0
  7  8  1  0  0  0
 13 14  2  0  0  0
  2  3  1  0  0  0
  5  6  1  0  0  0
 11 12  1  0  0  0
  8  9  1  0  0  0
M  END
> <minimizedAffinity>
-4.32205

$$$$
L-Xylose


 14 13  0  0  0  0  0  0  0  0999 V2000
    3.7073   19.2681   50.3842 C   0  0  0  0  0  0  0  0  0  0  0  0
    2.4831   18.9833   50.9813 O   0  0  0  0  0  0  0  0  0  0  0  0
    2.1409   18.0989   50.7624 H   0  0  0  0  0  0  0  0  0  0  0  0
    3.8448   18.5574   49.0549 C   0  0  0  0  0  0  0  0  0  0  0  0
    3.3516   17.2818   49.2024 O   0  0  0  0  0  0  0  0  0  0  0  0
    2.8562   16.9664   48.3946 H   0  0  0  0  0  0  0  0  0  0  0  0
    3.1658   19.3216   47.9440 C   0  0  0  0  0  0  0  0  0  0  0  0
    2.2085   20.2090   48.3738 O   0  0  0  0  0  0  0  0  0  0  0  0
    1.4297   19.8160   48.8015 H   0  0  0  0  0  0  0  0  0  0  0  0
    4.7935   18.7524   51.2979 C   0  0  0  0  0  0  0  0  0  0  0  0
    4.4763   17.5477   51.9055 O   0  0  0  0  0  0  0  0  0  0  0  0
    3.5559   17.4969   52.2289 H   0  0  0  0  0  0  0  0  0  0  0  0
    5.1764   19.7834   52.3091 C   0  0  0  0  0  0  0  0  0  0  0  0
    4.4438   20.0669   53.2560 O   0  0  0  0  0  0  0  0  0  0  0  0
  1 10  1  0  0  0
  1  2  1  0  0  0
  4  5  1  0  0  0
  4  7  1  0  0  0
  4  1  1  0  0  0
 10 13  1  0  0  0
 10 11  1  0  0  0
  7  8  1  0  0  0
 13 14  2  0  0  0
  2  3  1  0  0  0
  5  6  1  0  0  0
 11 12  1  0  0  0
  8  9  1  0  0  0
M  END
> <minimizedAffinity>
-4.27011

$$$$
L-Xylose


 14 13  0  0  0  0  0  0  0  0999 V2000
    3.7854   19.4041   50.5049 C   0  0  0  0  0  0  0  0  0  0  0  0
    4.4377   20.5759   50.1338 O   0  0  0  0  0  0  0  0  0  0  0  0
    5.2997   20.6949   50.5695 H   0  0  0  0  0  0  0  0  0  0  0  0
    4.1343   19.0112   51.9244 C   0  0  0  0  0  0  0  0  0  0  0  0
    4.4297   17.6678   51.9327 O   0  0  0  0  0  0  0  0  0  0  0  0
    5.1799   17.4438   52.5527 H   0  0  0  0  0  0  0  0  0  0  0  0
    5.2552   19.8593   52.4755 C   0  0  0  0  0  0  0  0  0  0  0  0
    6.5130   19.4121   52.1491 O   0  0  0  0  0  0  0  0  0  0  0  0
    6.7639   18.5494   52.5188 H   0  0  0  0  0  0  0  0  0  0  0  0
    4.2658   18.3030   49.5898 C   0  0  0  0  0  0  0  0  0  0  0  0
    5.6318   18.3363   49.3578 O   0  0  0  0  0  0  0  0  0  0  0  0
    5.9864   19.2337   49.2051 H   0  0  0  0  0  0  0  0  0  0  0  0
    3.4996   18.3007   48.3072 C   0  0  0  0  0  0  0  0  0  0  0  0
    2.6564   19.1601   48.0538 O   0  0  0  0  0  0  0  0  0  0  0  0
  1 10  1  0  0  0
  1  2  1  0  0  0
  4  5  1  0  0  0
  4  7  1  0  0  0
  4  1  1  0  0  0
 10 13  1  0  0  0
 10 11  1  0  0  0
  7  8  1  0  0  0
 13 14  2  0  0  0
  2  3  1  0  0  0
  5  6  1  0  0  0
 11 12  1  0  0  0
  8  9  1  0  0  0
M  END
> <minimizedAffinity>
-4.26222

$$$$
L-Xylose


 14 13  0  0  0  0  0  0  0  0999 V2000
    5.5127   24.9079   51.0870 C   0  0  0  0  0  0  0  0  0  0  0  0
    5.5639   25.1081   52.4632 O   0  0  0  0  0  0  0  0  0  0  0  0
    6.2214   25.7723   52.7344 H   0  0  0  0  0  0  0  0  0  0  0  0
    6.8658   25.1418   50.4506 C   0  0  0  0  0  0  0  0  0  0  0  0
    7.4122   26.2700   51.0170 O   0  0  0  0  0  0  0  0  0  0  0  0
    8.3984   26.1919   51.1530 H   0  0  0  0  0  0  0  0  0  0  0  0
    7.7581   23.9312   50.5826 C   0  0  0  0  0  0  0  0  0  0  0  0
    7.9652   23.5224   51.8781 O   0  0  0  0  0  0  0  0  0  0  0  0
    8.4496   24.1449   52.4453 H   0  0  0  0  0  0  0  0  0  0  0  0
    4.5509   25.9205   50.5123 C   0  0  0  0  0  0  0  0  0  0  0  0
    5.0265   26.5455   49.3704 O   0  0  0  0  0  0  0  0  0  0  0  0
    5.9687   26.7990   49.4201 H   0  0  0  0  0  0  0  0  0  0  0  0
    4.1450   26.9197   51.5462 C   0  0  0  0  0  0  0  0  0  0  0  0
    3.3091   26.6566   52.4098 O   0  0  0  0  0  0  0  0  0  0  0  0
  1 10  1  0  0  0
  1  2  1  0  0  0
  4  5  1  0  0  0
  4  7  1  0  0  0
  4  1  1  0  0  0
 10 13  1  0  0  0
 10 11  1  0  0  0
  7  8  1  0  0  0
 13 14  2  0  0  0
  2  3  1  0  0  0
  5  6  1  0  0  0
 11 12  1  0  0  0
  8  9  1  0  0  0
M  END
> <minimizedAffinity>
-4.19094

$$$$
