LY364947.cdx


 22 25  0  0  0  0  0  0  0  0999 V2000
    3.1121   21.3090   47.5083 N   0  0  0  0  0  0  0  0  0  0  0  0
    4.2258   21.3350   46.7897 N   0  0  0  0  0  0  0  0  0  0  0  0
    5.2936   21.2005   47.6090 C   0  0  0  0  0  0  0  0  0  0  0  0
    4.8057   21.0867   48.8926 C   0  0  0  0  0  0  0  0  0  0  0  0
    3.4226   21.1556   48.8293 C   0  0  0  0  0  0  0  0  0  0  0  0
    2.1397   21.3933   47.1230 H   0  0  0  0  0  0  0  0  0  0  0  0
    6.9375   20.7144   52.5459 N   0  0  0  0  0  0  0  0  0  0  0  0
    6.4182   19.6214   51.9814 C   0  0  0  0  0  0  0  0  0  0  0  0
    5.7182   19.7298   50.7820 C   0  0  0  0  0  0  0  0  0  0  0  0
    5.5344   20.9282   50.1436 C   0  0  0  0  0  0  0  0  0  0  0  0
    6.0859   22.0491   50.7547 C   0  0  0  0  0  0  0  0  0  0  0  0
    5.9475   23.3036   50.1784 C   0  0  0  0  0  0  0  0  0  0  0  0
    6.5124   24.4032   50.8197 C   0  0  0  0  0  0  0  0  0  0  0  0
    7.2007   24.2710   52.0054 C   0  0  0  0  0  0  0  0  0  0  0  0
    7.3461   23.0137   52.5938 C   0  0  0  0  0  0  0  0  0  0  0  0
    6.7807   21.9321   51.9473 C   0  0  0  0  0  0  0  0  0  0  0  0
    6.6821   21.1791   47.1772 C   0  0  0  0  0  0  0  0  0  0  0  0
    7.6952   20.5426   47.8392 C   0  0  0  0  0  0  0  0  0  0  0  0
    8.9813   20.5935   47.3231 C   0  0  0  0  0  0  0  0  0  0  0  0
    9.2501   21.2793   46.1490 C   0  0  0  0  0  0  0  0  0  0  0  0
    8.2016   21.9056   45.5151 C   0  0  0  0  0  0  0  0  0  0  0  0
    6.9603   21.8471   46.0280 N   0  0  0  0  0  0  0  0  0  0  0  0
  7  8  2  0  0  0
  7 16  2  0  0  0
  8  9  1  0  0  0
  9 10  2  0  0  0
 10 11  1  0  0  0
 10  4  1  0  0  0
 11 12  1  0  0  0
 11 16  2  0  0  0
 12 13  2  0  0  0
 13 14  1  0  0  0
 14 15  2  0  0  0
 15 16  1  0  0  0
  1  2  1  0  0  0
  1  5  1  0  0  0
  2  3  2  0  0  0
  3  4  1  0  0  0
  3 17  1  0  0  0
  4  5  2  0  0  0
 17 18  2  0  0  0
 17 22  2  0  0  0
 18 19  1  0  0  0
 19 20  2  0  0  0
 20 21  1  0  0  0
 21 22  2  0  0  0
  1  6  1  0  0  0
M  END
> <minimizedAffinity>
-8.51849

$$$$
LY364947.cdx


 22 25  0  0  0  0  0  0  0  0999 V2000
    4.5881   18.6057   51.1397 N   0  0  0  0  0  0  0  0  0  0  0  0
    5.1510   18.7175   49.9447 N   0  0  0  0  0  0  0  0  0  0  0  0
    5.8173   19.8922   49.8690 C   0  0  0  0  0  0  0  0  0  0  0  0
    5.6520   20.5288   51.0798 C   0  0  0  0  0  0  0  0  0  0  0  0
    4.8726   19.7136   51.8857 C   0  0  0  0  0  0  0  0  0  0  0  0
    4.0116   17.7913   51.4646 H   0  0  0  0  0  0  0  0  0  0  0  0
    7.0581   24.3394   52.3176 N   0  0  0  0  0  0  0  0  0  0  0  0
    7.7271   23.2461   52.6918 C   0  0  0  0  0  0  0  0  0  0  0  0
    7.2772   21.9902   52.2909 C   0  0  0  0  0  0  0  0  0  0  0  0
    6.1594   21.8222   51.5165 C   0  0  0  0  0  0  0  0  0  0  0  0
    5.4830   22.9783   51.1422 C   0  0  0  0  0  0  0  0  0  0  0  0
    4.3403   22.9018   50.3589 C   0  0  0  0  0  0  0  0  0  0  0  0
    3.6889   24.0807   50.0046 C   0  0  0  0  0  0  0  0  0  0  0  0
    4.1531   25.3115   50.4131 C   0  0  0  0  0  0  0  0  0  0  0  0
    5.3017   25.4000   51.2011 C   0  0  0  0  0  0  0  0  0  0  0  0
    5.9374   24.2232   51.5452 C   0  0  0  0  0  0  0  0  0  0  0  0
    6.5621   20.3585   48.7103 C   0  0  0  0  0  0  0  0  0  0  0  0
    5.9975   20.8511   47.5665 C   0  0  0  0  0  0  0  0  0  0  0  0
    6.8177   21.2677   46.5288 C   0  0  0  0  0  0  0  0  0  0  0  0
    8.1973   21.1905   46.6376 C   0  0  0  0  0  0  0  0  0  0  0  0
    8.7237   20.6885   47.8057 C   0  0  0  0  0  0  0  0  0  0  0  0
    7.9152   20.2888   48.8028 N   0  0  0  0  0  0  0  0  0  0  0  0
  7  8  2  0  0  0
  7 16  2  0  0  0
  8  9  1  0  0  0
  9 10  2  0  0  0
 10 11  1  0  0  0
 10  4  1  0  0  0
 11 12  1  0  0  0
 11 16  2  0  0  0
 12 13  2  0  0  0
 13 14  1  0  0  0
 14 15  2  0  0  0
 15 16  1  0  0  0
  1  2  1  0  0  0
  1  5  1  0  0  0
  2  3  2  0  0  0
  3  4  1  0  0  0
  3 17  1  0  0  0
  4  5  2  0  0  0
 17 18  2  0  0  0
 17 22  2  0  0  0
 18 19  1  0  0  0
 19 20  2  0  0  0
 20 21  1  0  0  0
 21 22  2  0  0  0
  1  6  1  0  0  0
M  END
> <minimizedAffinity>
-8.35808

$$$$
LY364947.cdx


 22 25  0  0  0  0  0  0  0  0999 V2000
    7.8673   23.0723   52.7823 N   0  0  0  0  0  0  0  0  0  0  0  0
    8.6266   22.8985   51.7097 N   0  0  0  0  0  0  0  0  0  0  0  0
    7.8593   22.4784   50.6780 C   0  0  0  0  0  0  0  0  0  0  0  0
    6.5661   22.3919   51.1458 C   0  0  0  0  0  0  0  0  0  0  0  0
    6.5707   22.7682   52.4800 C   0  0  0  0  0  0  0  0  0  0  0  0
    8.2083   23.3943   53.7210 H   0  0  0  0  0  0  0  0  0  0  0  0
    3.0482   21.1204   49.1365 N   0  0  0  0  0  0  0  0  0  0  0  0
    3.4600   22.3823   48.9919 C   0  0  0  0  0  0  0  0  0  0  0  0
    4.6134   22.8115   49.6443 C   0  0  0  0  0  0  0  0  0  0  0  0
    5.3583   21.9832   50.4423 C   0  0  0  0  0  0  0  0  0  0  0  0
    4.9054   20.6749   50.5744 C   0  0  0  0  0  0  0  0  0  0  0  0
    5.5975   19.7678   51.3639 C   0  0  0  0  0  0  0  0  0  0  0  0
    5.1134   18.4666   51.4733 C   0  0  0  0  0  0  0  0  0  0  0  0
    3.9702   18.0654   50.8181 C   0  0  0  0  0  0  0  0  0  0  0  0
    3.2663   18.9696   50.0212 C   0  0  0  0  0  0  0  0  0  0  0  0
    3.7574   20.2566   49.9219 C   0  0  0  0  0  0  0  0  0  0  0  0
    8.3447   22.1881   49.3383 C   0  0  0  0  0  0  0  0  0  0  0  0
    8.2879   20.9614   48.7367 C   0  0  0  0  0  0  0  0  0  0  0  0
    8.7834   20.8120   47.4502 C   0  0  0  0  0  0  0  0  0  0  0  0
    9.3334   21.8874   46.7704 C   0  0  0  0  0  0  0  0  0  0  0  0
    9.3708   23.1038   47.4127 C   0  0  0  0  0  0  0  0  0  0  0  0
    8.8862   23.2326   48.6601 N   0  0  0  0  0  0  0  0  0  0  0  0
  7  8  2  0  0  0
  7 16  2  0  0  0
  8  9  1  0  0  0
  9 10  2  0  0  0
 10 11  1  0  0  0
 10  4  1  0  0  0
 11 12  1  0  0  0
 11 16  2  0  0  0
 12 13  2  0  0  0
 13 14  1  0  0  0
 14 15  2  0  0  0
 15 16  1  0  0  0
  1  2  1  0  0  0
  1  5  1  0  0  0
  2  3  2  0  0  0
  3  4  1  0  0  0
  3 17  1  0  0  0
  4  5  2  0  0  0
 17 18  2  0  0  0
 17 22  2  0  0  0
 18 19  1  0  0  0
 19 20  2  0  0  0
 20 21  1  0  0  0
 21 22  2  0  0  0
  1  6  1  0  0  0
M  END
> <minimizedAffinity>
-8.34336

$$$$
LY364947.cdx


 22 25  0  0  0  0  0  0  0  0999 V2000
    8.4659   20.8558   48.0340 N   0  0  0  0  0  0  0  0  0  0  0  0
    7.5268   19.9647   48.3191 N   0  0  0  0  0  0  0  0  0  0  0  0
    6.8218   20.3821   49.3953 C   0  0  0  0  0  0  0  0  0  0  0  0
    7.3586   21.5895   49.7861 C   0  0  0  0  0  0  0  0  0  0  0  0
    8.4012   21.8901   48.9234 C   0  0  0  0  0  0  0  0  0  0  0  0
    9.1547   20.7800   47.2460 H   0  0  0  0  0  0  0  0  0  0  0  0
    6.1526   24.1305   52.9671 N   0  0  0  0  0  0  0  0  0  0  0  0
    7.2611   23.3986   53.1035 C   0  0  0  0  0  0  0  0  0  0  0  0
    7.6684   22.5623   52.0667 C   0  0  0  0  0  0  0  0  0  0  0  0
    6.9712   22.4541   50.8921 C   0  0  0  0  0  0  0  0  0  0  0  0
    5.8212   23.2279   50.7784 C   0  0  0  0  0  0  0  0  0  0  0  0
    5.0532   23.1802   49.6238 C   0  0  0  0  0  0  0  0  0  0  0  0
    3.9075   23.9682   49.5463 C   0  0  0  0  0  0  0  0  0  0  0  0
    3.5250   24.7879   50.5850 C   0  0  0  0  0  0  0  0  0  0  0  0
    4.2903   24.8437   51.7510 C   0  0  0  0  0  0  0  0  0  0  0  0
    5.4235   24.0568   51.8143 C   0  0  0  0  0  0  0  0  0  0  0  0
    5.7079   19.6650   49.9953 C   0  0  0  0  0  0  0  0  0  0  0  0
    5.7523   19.0237   51.2021 C   0  0  0  0  0  0  0  0  0  0  0  0
    4.6189   18.3753   51.6691 C   0  0  0  0  0  0  0  0  0  0  0  0
    3.4468   18.3699   50.9293 C   0  0  0  0  0  0  0  0  0  0  0  0
    3.4457   19.0274   49.7204 C   0  0  0  0  0  0  0  0  0  0  0  0
    4.5527   19.6514   49.2814 N   0  0  0  0  0  0  0  0  0  0  0  0
  7  8  2  0  0  0
  7 16  2  0  0  0
  8  9  1  0  0  0
  9 10  2  0  0  0
 10 11  1  0  0  0
 10  4  1  0  0  0
 11 12  1  0  0  0
 11 16  2  0  0  0
 12 13  2  0  0  0
 13 14  1  0  0  0
 14 15  2  0  0  0
 15 16  1  0  0  0
  1  2  1  0  0  0
  1  5  1  0  0  0
  2  3  2  0  0  0
  3  4  1  0  0  0
  3 17  1  0  0  0
  4  5  2  0  0  0
 17 18  2  0  0  0
 17 22  2  0  0  0
 18 19  1  0  0  0
 19 20  2  0  0  0
 20 21  1  0  0  0
 21 22  2  0  0  0
  1  6  1  0  0  0
M  END
> <minimizedAffinity>
-8.30715

$$$$
LY364947.cdx


 22 25  0  0  0  0  0  0  0  0999 V2000
    6.1983   19.8434   52.8670 N   0  0  0  0  0  0  0  0  0  0  0  0
    7.0627   20.6856   52.3186 N   0  0  0  0  0  0  0  0  0  0  0  0
    6.6622   20.9875   51.0624 C   0  0  0  0  0  0  0  0  0  0  0  0
    5.4938   20.2937   50.8336 C   0  0  0  0  0  0  0  0  0  0  0  0
    5.1995   19.5680   51.9774 C   0  0  0  0  0  0  0  0  0  0  0  0
    6.2690   19.4476   53.8363 H   0  0  0  0  0  0  0  0  0  0  0  0
    3.1044   20.1271   47.3275 N   0  0  0  0  0  0  0  0  0  0  0  0
    2.8590   21.0728   48.2377 C   0  0  0  0  0  0  0  0  0  0  0  0
    3.6368   21.1393   49.3913 C   0  0  0  0  0  0  0  0  0  0  0  0
    4.6604   20.2629   49.6397 C   0  0  0  0  0  0  0  0  0  0  0  0
    4.8927   19.2889   48.6745 C   0  0  0  0  0  0  0  0  0  0  0  0
    5.9087   18.3593   48.8442 C   0  0  0  0  0  0  0  0  0  0  0  0
    6.1111   17.3980   47.8570 C   0  0  0  0  0  0  0  0  0  0  0  0
    5.3289   17.3525   46.7242 C   0  0  0  0  0  0  0  0  0  0  0  0
    4.3042   18.2828   46.5432 C   0  0  0  0  0  0  0  0  0  0  0  0
    4.1145   19.2302   47.5301 C   0  0  0  0  0  0  0  0  0  0  0  0
    7.3587   21.8855   50.1551 C   0  0  0  0  0  0  0  0  0  0  0  0
    8.0252   21.4928   49.0276 C   0  0  0  0  0  0  0  0  0  0  0  0
    8.6499   22.4482   48.2402 C   0  0  0  0  0  0  0  0  0  0  0  0
    8.6065   23.7907   48.5818 C   0  0  0  0  0  0  0  0  0  0  0  0
    7.9251   24.1423   49.7245 C   0  0  0  0  0  0  0  0  0  0  0  0
    7.3246   23.2043   50.4774 N   0  0  0  0  0  0  0  0  0  0  0  0
  7  8  2  0  0  0
  7 16  2  0  0  0
  8  9  1  0  0  0
  9 10  2  0  0  0
 10 11  1  0  0  0
 10  4  1  0  0  0
 11 12  1  0  0  0
 11 16  2  0  0  0
 12 13  2  0  0  0
 13 14  1  0  0  0
 14 15  2  0  0  0
 15 16  1  0  0  0
  1  2  1  0  0  0
  1  5  1  0  0  0
  2  3  2  0  0  0
  3  4  1  0  0  0
  3 17  1  0  0  0
  4  5  2  0  0  0
 17 18  2  0  0  0
 17 22  2  0  0  0
 18 19  1  0  0  0
 19 20  2  0  0  0
 20 21  1  0  0  0
 21 22  2  0  0  0
  1  6  1  0  0  0
M  END
> <minimizedAffinity>
-8.30052

$$$$
