Methyl methanesulfonate


  6  5  0  0  0  0  0  0  0  0999 V2000
    5.1814   26.9293   50.6304 C   0  0  0  0  0  0  0  0  0  0  0  0
    3.9900   26.0023   51.5437 S   0  0  0  0  0  0  0  0  0  0  0  0
    2.9002   25.4441   50.6918 O   0  0  0  0  0  0  0  0  0  0  0  0
    3.3573   26.9329   52.5605 O   0  0  0  0  0  0  0  0  0  0  0  0
    4.7676   24.7100   52.3107 O   0  0  0  0  0  0  0  0  0  0  0  0
    6.0702   24.6630   51.7970 C   0  0  0  0  0  0  0  0  0  0  0  0
  1  2  1  0  0  0
  2  3  2  0  0  0
  2  4  2  0  0  0
  2  5  1  0  0  0
  5  6  1  0  0  0
M  END
> <minimizedAffinity>
-3.69529

$$$$
Methyl methanesulfonate


  6  5  0  0  0  0  0  0  0  0999 V2000
    5.2449   26.9339   50.5284 C   0  0  0  0  0  0  0  0  0  0  0  0
    4.1572   26.0440   51.5951 S   0  0  0  0  0  0  0  0  0  0  0  0
    3.4138   26.9231   52.5434 O   0  0  0  0  0  0  0  0  0  0  0  0
    4.9944   25.0787   52.4121 O   0  0  0  0  0  0  0  0  0  0  0  0
    3.0226   25.2120   50.6552 O   0  0  0  0  0  0  0  0  0  0  0  0
    3.6933   24.1200   50.0891 C   0  0  0  0  0  0  0  0  0  0  0  0
  1  2  1  0  0  0
  2  3  2  0  0  0
  2  4  2  0  0  0
  2  5  1  0  0  0
  5  6  1  0  0  0
M  END
> <minimizedAffinity>
-3.68045

$$$$
Methyl methanesulfonate


  6  5  0  0  0  0  0  0  0  0999 V2000
    3.4078   24.9094   50.4133 C   0  0  0  0  0  0  0  0  0  0  0  0
    4.2962   25.9388   51.5376 S   0  0  0  0  0  0  0  0  0  0  0  0
    3.4090   26.7088   52.4566 O   0  0  0  0  0  0  0  0  0  0  0  0
    5.0991   26.9336   50.7216 O   0  0  0  0  0  0  0  0  0  0  0  0
    5.3144   24.9724   52.4822 O   0  0  0  0  0  0  0  0  0  0  0  0
    5.0871   23.6466   52.0904 C   0  0  0  0  0  0  0  0  0  0  0  0
  1  2  1  0  0  0
  2  3  2  0  0  0
  2  4  2  0  0  0
  2  5  1  0  0  0
  5  6  1  0  0  0
M  END
> <minimizedAffinity>
-3.33525

$$$$
Methyl methanesulfonate


  6  5  0  0  0  0  0  0  0  0999 V2000
    4.8195   24.3294   52.1225 C   0  0  0  0  0  0  0  0  0  0  0  0
    4.0397   25.7839   51.4985 S   0  0  0  0  0  0  0  0  0  0  0  0
    3.4482   26.6390   52.5679 O   0  0  0  0  0  0  0  0  0  0  0  0
    2.9184   25.3499   50.5742 O   0  0  0  0  0  0  0  0  0  0  0  0
    5.1853   26.7084   50.6642 O   0  0  0  0  0  0  0  0  0  0  0  0
    5.8734   25.8280   49.8190 C   0  0  0  0  0  0  0  0  0  0  0  0
  1  2  1  0  0  0
  2  3  2  0  0  0
  2  4  2  0  0  0
  2  5  1  0  0  0
  5  6  1  0  0  0
M  END
> <minimizedAffinity>
-3.27478

$$$$
Methyl methanesulfonate


  6  5  0  0  0  0  0  0  0  0999 V2000
    5.0127   20.3039   49.0027 C   0  0  0  0  0  0  0  0  0  0  0  0
    3.5799   20.7656   48.0826 S   0  0  0  0  0  0  0  0  0  0  0  0
    3.9018   21.4495   46.7967 O   0  0  0  0  0  0  0  0  0  0  0  0
    2.7715   21.7268   48.9327 O   0  0  0  0  0  0  0  0  0  0  0  0
    2.6832   19.3760   47.7252 O   0  0  0  0  0  0  0  0  0  0  0  0
    3.5941   18.3128   47.6722 C   0  0  0  0  0  0  0  0  0  0  0  0
  1  2  1  0  0  0
  2  3  2  0  0  0
  2  4  2  0  0  0
  2  5  1  0  0  0
  5  6  1  0  0  0
M  END
> <minimizedAffinity>
-2.96280

$$$$
