MMP-9-IN-1


 27 28  0  0  0  0  0  0  0  0999 V2000
    2.5846   19.2464   47.7380 O   0  0  0  0  0  0  0  0  0  0  0  0
    4.2467   17.8392   48.6198 N   0  0  0  0  0  0  0  0  0  0  0  0
    3.2187   18.8208   48.7171 C   0  0  0  0  0  0  0  0  0  0  0  0
    4.7775   17.4864   49.4589 H   0  0  0  0  0  0  0  0  0  0  0  0
    4.5910   17.2955   47.3457 C   0  0  0  0  0  0  0  0  0  0  0  0
    3.9372   16.2146   46.7912 C   0  0  0  0  0  0  0  0  0  0  0  0
    5.6174   17.8900   46.6649 C   0  0  0  0  0  0  0  0  0  0  0  0
    5.3649   16.3216   44.8313 C   0  0  0  0  0  0  0  0  0  0  0  0
    4.3189   15.7360   45.5535 C   0  0  0  0  0  0  0  0  0  0  0  0
    5.9919   17.3926   45.4115 C   0  0  0  0  0  0  0  0  0  0  0  0
    5.6593   15.7670   43.6156 O   0  0  0  0  0  0  0  0  0  0  0  0
    7.1404   14.3217   44.5320 F   0  0  0  0  0  0  0  0  0  0  0  0
    7.8888   15.8607   43.0579 F   0  0  0  0  0  0  0  0  0  0  0  0
    6.8160   15.0338   43.3734 C   0  0  0  0  0  0  0  0  0  0  0  0
    2.9211   19.3374   50.0883 C   0  0  0  0  0  0  0  0  0  0  0  0
    4.4118   19.5951   51.0505 S   0  0  0  0  0  0  0  0  0  0  0  0
    5.9230   24.1209   49.6583 O   0  0  0  0  0  0  0  0  0  0  0  0
    6.4962   20.2203   49.3539 N   0  0  0  0  0  0  0  0  0  0  0  0
    5.2931   22.0181   50.2471 N   0  0  0  0  0  0  0  0  0  0  0  0
    7.3053   21.0563   48.6717 C   0  0  0  0  0  0  0  0  0  0  0  0
    7.1266   22.4301   48.7602 C   0  0  0  0  0  0  0  0  0  0  0  0
    5.4963   20.6824   50.1373 C   0  0  0  0  0  0  0  0  0  0  0  0
    6.0986   22.8701   49.5672 C   0  0  0  0  0  0  0  0  0  0  0  0
    4.5258   22.4059   50.8470 H   0  0  0  0  0  0  0  0  0  0  0  0
    8.4115   20.5806   47.8034 C   0  0  0  0  0  0  0  0  0  0  0  0
    8.3680   21.3715   46.5120 C   0  0  0  0  0  0  0  0  0  0  0  0
    9.5082   20.9239   45.6494 C   0  0  0  0  0  0  0  0  0  0  0  0
 16 22  1  0  0  0
 16 15  1  0  0  0
 12 14  1  0  0  0
 13 14  1  0  0  0
 11  8  1  0  0  0
 11 14  1  0  0  0
 17 23  2  0  0  0
  1  3  2  0  0  0
 18 20  2  0  0  0
 18 22  2  0  0  0
 19 22  1  0  0  0
 19 23  1  0  0  0
  2  5  1  0  0  0
  2  3  1  0  0  0
 25 26  1  0  0  0
 25 20  1  0  0  0
 26 27  1  0  0  0
 20 21  2  0  0  0
 21 23  1  0  0  0
  5  6  2  0  0  0
  5  7  1  0  0  0
 15  3  1  0  0  0
  6  9  1  0  0  0
  7 10  2  0  0  0
  8  9  2  0  0  0
  8 10  1  0  0  0
 19 24  1  0  0  0
  2  4  1  0  0  0
M  END
> <minimizedAffinity>
-7.98680

$$$$
MMP-9-IN-1


 27 28  0  0  0  0  0  0  0  0999 V2000
    2.5738   19.3989   47.3630 O   0  0  0  0  0  0  0  0  0  0  0  0
    4.4926   18.4236   48.3049 N   0  0  0  0  0  0  0  0  0  0  0  0
    3.3621   19.2905   48.3163 C   0  0  0  0  0  0  0  0  0  0  0  0
    5.1541   18.3409   49.1210 H   0  0  0  0  0  0  0  0  0  0  0  0
    4.7626   17.6238   47.1538 C   0  0  0  0  0  0  0  0  0  0  0  0
    5.7081   17.9660   46.2091 C   0  0  0  0  0  0  0  0  0  0  0  0
    4.0391   16.4730   47.0039 C   0  0  0  0  0  0  0  0  0  0  0  0
    5.1983   15.9645   44.9343 C   0  0  0  0  0  0  0  0  0  0  0  0
    5.9217   17.1485   45.1170 C   0  0  0  0  0  0  0  0  0  0  0  0
    4.2679   15.6556   45.8912 C   0  0  0  0  0  0  0  0  0  0  0  0
    5.4910   15.2307   43.8171 O   0  0  0  0  0  0  0  0  0  0  0  0
    7.0630   14.0659   44.9548 F   0  0  0  0  0  0  0  0  0  0  0  0
    7.6818   15.2229   43.1163 F   0  0  0  0  0  0  0  0  0  0  0  0
    6.6530   14.4784   43.6835 C   0  0  0  0  0  0  0  0  0  0  0  0
    3.1524   20.0923   49.5607 C   0  0  0  0  0  0  0  0  0  0  0  0
    3.8183   21.7506   49.4151 S   0  0  0  0  0  0  0  0  0  0  0  0
    8.3485   22.3169   51.3800 O   0  0  0  0  0  0  0  0  0  0  0  0
    6.2450   21.1916   48.2265 N   0  0  0  0  0  0  0  0  0  0  0  0
    6.3131   22.0293   50.4108 N   0  0  0  0  0  0  0  0  0  0  0  0
    7.5907   21.1162   48.1769 C   0  0  0  0  0  0  0  0  0  0  0  0
    8.3538   21.5046   49.2695 C   0  0  0  0  0  0  0  0  0  0  0  0
    5.5994   21.6416   49.3255 C   0  0  0  0  0  0  0  0  0  0  0  0
    7.6662   21.9588   50.3752 C   0  0  0  0  0  0  0  0  0  0  0  0
    5.8402   22.3824   51.2772 H   0  0  0  0  0  0  0  0  0  0  0  0
    8.3291   20.6269   46.9856 C   0  0  0  0  0  0  0  0  0  0  0  0
    9.1474   21.7771   46.4355 C   0  0  0  0  0  0  0  0  0  0  0  0
   10.2601   21.2080   45.6093 C   0  0  0  0  0  0  0  0  0  0  0  0
 16 22  1  0  0  0
 16 15  1  0  0  0
 12 14  1  0  0  0
 13 14  1  0  0  0
 11  8  1  0  0  0
 11 14  1  0  0  0
 17 23  2  0  0  0
  1  3  2  0  0  0
 18 20  2  0  0  0
 18 22  2  0  0  0
 19 22  1  0  0  0
 19 23  1  0  0  0
  2  5  1  0  0  0
  2  3  1  0  0  0
 25 26  1  0  0  0
 25 20  1  0  0  0
 26 27  1  0  0  0
 20 21  2  0  0  0
 21 23  1  0  0  0
  5  6  2  0  0  0
  5  7  1  0  0  0
 15  3  1  0  0  0
  6  9  1  0  0  0
  7 10  2  0  0  0
  8  9  2  0  0  0
  8 10  1  0  0  0
 19 24  1  0  0  0
  2  4  1  0  0  0
M  END
> <minimizedAffinity>
-7.83431

$$$$
MMP-9-IN-1


 27 28  0  0  0  0  0  0  0  0999 V2000
    2.5628   19.2275   47.7087 O   0  0  0  0  0  0  0  0  0  0  0  0
    4.2090   17.8145   48.6108 N   0  0  0  0  0  0  0  0  0  0  0  0
    3.1868   18.8033   48.6949 C   0  0  0  0  0  0  0  0  0  0  0  0
    4.7311   17.4630   49.4559 H   0  0  0  0  0  0  0  0  0  0  0  0
    4.5593   17.2614   47.3424 C   0  0  0  0  0  0  0  0  0  0  0  0
    3.9123   16.1723   46.7958 C   0  0  0  0  0  0  0  0  0  0  0  0
    5.5843   17.8551   46.6589 C   0  0  0  0  0  0  0  0  0  0  0  0
    5.3444   16.2694   44.8386 C   0  0  0  0  0  0  0  0  0  0  0  0
    4.2996   15.6848   45.5634 C   0  0  0  0  0  0  0  0  0  0  0  0
    5.9644   17.3486   45.4109 C   0  0  0  0  0  0  0  0  0  0  0  0
    5.6447   15.7056   43.6286 O   0  0  0  0  0  0  0  0  0  0  0  0
    7.1513   14.2965   44.5595 F   0  0  0  0  0  0  0  0  0  0  0  0
    7.8704   15.8256   43.0607 F   0  0  0  0  0  0  0  0  0  0  0  0
    6.8116   14.9869   43.3923 C   0  0  0  0  0  0  0  0  0  0  0  0
    2.8823   19.3295   50.0609 C   0  0  0  0  0  0  0  0  0  0  0  0
    4.3394   19.3815   51.1042 S   0  0  0  0  0  0  0  0  0  0  0  0
    8.5817   21.9496   50.7687 O   0  0  0  0  0  0  0  0  0  0  0  0
    4.6574   21.9975   50.2861 N   0  0  0  0  0  0  0  0  0  0  0  0
    6.6003   20.8436   50.8949 N   0  0  0  0  0  0  0  0  0  0  0  0
    5.3653   23.1109   50.0060 C   0  0  0  0  0  0  0  0  0  0  0  0
    6.7440   23.1220   50.1665 C   0  0  0  0  0  0  0  0  0  0  0  0
    5.2555   20.8684   50.7267 C   0  0  0  0  0  0  0  0  0  0  0  0
    7.3245   21.9552   50.6173 C   0  0  0  0  0  0  0  0  0  0  0  0
    7.0920   19.9825   51.2351 H   0  0  0  0  0  0  0  0  0  0  0  0
    4.7384   24.3661   49.5208 C   0  0  0  0  0  0  0  0  0  0  0  0
    3.5472   24.6688   50.4064 C   0  0  0  0  0  0  0  0  0  0  0  0
    4.0313   25.4400   51.5962 C   0  0  0  0  0  0  0  0  0  0  0  0
 16 22  1  0  0  0
 16 15  1  0  0  0
 12 14  1  0  0  0
 13 14  1  0  0  0
 11  8  1  0  0  0
 11 14  1  0  0  0
 17 23  2  0  0  0
  1  3  2  0  0  0
 18 20  2  0  0  0
 18 22  2  0  0  0
 19 22  1  0  0  0
 19 23  1  0  0  0
  2  5  1  0  0  0
  2  3  1  0  0  0
 25 26  1  0  0  0
 25 20  1  0  0  0
 26 27  1  0  0  0
 20 21  2  0  0  0
 21 23  1  0  0  0
  5  6  2  0  0  0
  5  7  1  0  0  0
 15  3  1  0  0  0
  6  9  1  0  0  0
  7 10  2  0  0  0
  8  9  2  0  0  0
  8 10  1  0  0  0
 19 24  1  0  0  0
  2  4  1  0  0  0
M  END
> <minimizedAffinity>
-7.80248

$$$$
MMP-9-IN-1


 27 28  0  0  0  0  0  0  0  0999 V2000
    6.6445   18.4427   49.0484 O   0  0  0  0  0  0  0  0  0  0  0  0
    4.5502   18.8175   48.0516 N   0  0  0  0  0  0  0  0  0  0  0  0
    5.5518   19.0327   49.0416 C   0  0  0  0  0  0  0  0  0  0  0  0
    3.6267   19.3249   48.0573 H   0  0  0  0  0  0  0  0  0  0  0  0
    4.7819   17.8822   46.9984 C   0  0  0  0  0  0  0  0  0  0  0  0
    5.6797   18.1123   45.9765 C   0  0  0  0  0  0  0  0  0  0  0  0
    4.0703   16.7146   47.0266 C   0  0  0  0  0  0  0  0  0  0  0  0
    5.1456   15.9616   44.9864 C   0  0  0  0  0  0  0  0  0  0  0  0
    5.8579   17.1662   44.9866 C   0  0  0  0  0  0  0  0  0  0  0  0
    4.2629   15.7662   46.0156 C   0  0  0  0  0  0  0  0  0  0  0  0
    5.4005   15.0962   43.9577 O   0  0  0  0  0  0  0  0  0  0  0  0
    7.0476   14.1053   45.1524 F   0  0  0  0  0  0  0  0  0  0  0  0
    7.5568   15.0381   43.1594 F   0  0  0  0  0  0  0  0  0  0  0  0
    6.5714   14.3521   43.8613 C   0  0  0  0  0  0  0  0  0  0  0  0
    5.2282   20.0288   50.1085 C   0  0  0  0  0  0  0  0  0  0  0  0
    6.6906   20.5668   50.9953 S   0  0  0  0  0  0  0  0  0  0  0  0
    7.6075   25.4242   50.4760 O   0  0  0  0  0  0  0  0  0  0  0  0
    8.1098   21.8003   48.9759 N   0  0  0  0  0  0  0  0  0  0  0  0
    7.2312   23.1890   50.6422 N   0  0  0  0  0  0  0  0  0  0  0  0
    8.6444   22.8565   48.3296 C   0  0  0  0  0  0  0  0  0  0  0  0
    8.4835   24.1398   48.8338 C   0  0  0  0  0  0  0  0  0  0  0  0
    7.4081   21.9502   50.1213 C   0  0  0  0  0  0  0  0  0  0  0  0
    7.7629   24.2597   50.0034 C   0  0  0  0  0  0  0  0  0  0  0  0
    6.6918   23.3363   51.5290 H   0  0  0  0  0  0  0  0  0  0  0  0
    9.4198   22.7252   47.0704 C   0  0  0  0  0  0  0  0  0  0  0  0
    8.6490   21.8141   46.1373 C   0  0  0  0  0  0  0  0  0  0  0  0
    9.5951   20.7839   45.6003 C   0  0  0  0  0  0  0  0  0  0  0  0
 16 22  1  0  0  0
 16 15  1  0  0  0
 12 14  1  0  0  0
 13 14  1  0  0  0
 11  8  1  0  0  0
 11 14  1  0  0  0
 17 23  2  0  0  0
  1  3  2  0  0  0
 18 20  2  0  0  0
 18 22  2  0  0  0
 19 22  1  0  0  0
 19 23  1  0  0  0
  2  5  1  0  0  0
  2  3  1  0  0  0
 25 26  1  0  0  0
 25 20  1  0  0  0
 26 27  1  0  0  0
 20 21  2  0  0  0
 21 23  1  0  0  0
  5  6  2  0  0  0
  5  7  1  0  0  0
 15  3  1  0  0  0
  6  9  1  0  0  0
  7 10  2  0  0  0
  8  9  2  0  0  0
  8 10  1  0  0  0
 19 24  1  0  0  0
  2  4  1  0  0  0
M  END
> <minimizedAffinity>
-7.65860

$$$$
MMP-9-IN-1


 27 28  0  0  0  0  0  0  0  0999 V2000
    4.1535   21.0259   49.9109 O   0  0  0  0  0  0  0  0  0  0  0  0
    5.2635   19.0922   50.6520 N   0  0  0  0  0  0  0  0  0  0  0  0
    4.7674   20.4191   50.8036 C   0  0  0  0  0  0  0  0  0  0  0  0
    5.7832   18.5884   51.4177 H   0  0  0  0  0  0  0  0  0  0  0  0
    5.0618   18.3948   49.4229 C   0  0  0  0  0  0  0  0  0  0  0  0
    6.0652   18.2075   48.4947 C   0  0  0  0  0  0  0  0  0  0  0  0
    3.8104   17.9002   49.1786 C   0  0  0  0  0  0  0  0  0  0  0  0
    4.5357   17.0048   47.0438 C   0  0  0  0  0  0  0  0  0  0  0  0
    5.8051   17.5232   47.3240 C   0  0  0  0  0  0  0  0  0  0  0  0
    3.5635   17.2090   47.9871 C   0  0  0  0  0  0  0  0  0  0  0  0
    4.3895   16.3443   45.8544 O   0  0  0  0  0  0  0  0  0  0  0  0
    4.5418   16.4207   43.5976 F   0  0  0  0  0  0  0  0  0  0  0  0
    6.2271   15.4820   44.7725 F   0  0  0  0  0  0  0  0  0  0  0  0
    5.2706   16.4916   44.7886 C   0  0  0  0  0  0  0  0  0  0  0  0
    5.0216   21.0768   52.1220 C   0  0  0  0  0  0  0  0  0  0  0  0
    6.7572   21.4562   52.3632 S   0  0  0  0  0  0  0  0  0  0  0  0
    8.1797   25.1057   49.3034 O   0  0  0  0  0  0  0  0  0  0  0  0
    7.8172   21.2033   49.8282 N   0  0  0  0  0  0  0  0  0  0  0  0
    7.5520   23.3809   50.6437 N   0  0  0  0  0  0  0  0  0  0  0  0
    8.3239   21.6635   48.6661 C   0  0  0  0  0  0  0  0  0  0  0  0
    8.4623   23.0285   48.4551 C   0  0  0  0  0  0  0  0  0  0  0  0
    7.4311   22.0417   50.8155 C   0  0  0  0  0  0  0  0  0  0  0  0
    8.0597   23.8576   49.4809 C   0  0  0  0  0  0  0  0  0  0  0  0
    7.2611   24.0556   51.3915 H   0  0  0  0  0  0  0  0  0  0  0  0
    8.7567   20.7692   47.5630 C   0  0  0  0  0  0  0  0  0  0  0  0
    8.9248   21.6111   46.3147 C   0  0  0  0  0  0  0  0  0  0  0  0
   10.1465   21.1357   45.5894 C   0  0  0  0  0  0  0  0  0  0  0  0
 16 22  1  0  0  0
 16 15  1  0  0  0
 12 14  1  0  0  0
 13 14  1  0  0  0
 11  8  1  0  0  0
 11 14  1  0  0  0
 17 23  2  0  0  0
  1  3  2  0  0  0
 18 20  2  0  0  0
 18 22  2  0  0  0
 19 22  1  0  0  0
 19 23  1  0  0  0
  2  5  1  0  0  0
  2  3  1  0  0  0
 25 26  1  0  0  0
 25 20  1  0  0  0
 26 27  1  0  0  0
 20 21  2  0  0  0
 21 23  1  0  0  0
  5  6  2  0  0  0
  5  7  1  0  0  0
 15  3  1  0  0  0
  6  9  1  0  0  0
  7 10  2  0  0  0
  8  9  2  0  0  0
  8 10  1  0  0  0
 19 24  1  0  0  0
  2  4  1  0  0  0
M  END
> <minimizedAffinity>
-7.64231

$$$$
