


 22 23  0  0  0  0  0  0  0  0999 V2000
    4.8581   18.9800   46.3030 C   0  0  0  0  0  0  0  0  0  0  0  0
    5.5119   20.1923   46.5423 C   0  0  0  0  0  0  0  0  0  0  0  0
    6.3308   20.3325   47.6694 C   0  0  0  0  0  0  0  0  0  0  0  0
    6.4813   19.2665   48.5600 C   0  0  0  0  0  0  0  0  0  0  0  0
    5.8289   18.0441   48.3357 C   0  0  0  0  0  0  0  0  0  0  0  0
    5.0249   17.9182   47.1999 C   0  0  0  0  0  0  0  0  0  0  0  0
    7.3066   19.4546   49.6548 O   0  0  0  0  0  0  0  0  0  0  0  0
    7.9176   20.1867   49.4771 H   0  0  0  0  0  0  0  0  0  0  0  0
    4.2405   16.6264   46.9979 C   0  0  0  0  0  0  0  0  0  0  0  0
    4.4166   15.8434   45.7114 C   0  0  0  0  0  0  0  0  0  0  0  0
    5.8047   15.6929   45.1214 C   0  0  0  0  0  0  0  0  0  0  0  0
    6.2151   14.2643   44.7742 C   0  0  0  0  0  0  0  0  0  0  0  0
    7.0705   14.0734   43.5327 C   0  0  0  0  0  0  0  0  0  0  0  0
    7.5089   15.3456   42.8100 C   0  0  0  0  0  0  0  0  0  0  0  0
    6.9573   21.5661   47.9165 O   0  0  0  0  0  0  0  0  0  0  0  0
    8.1910   21.7096   47.2583 C   0  0  0  0  0  0  0  0  0  0  0  0
    8.9899   22.8048   47.5677 C   0  0  0  0  0  0  0  0  0  0  0  0
   10.2285   23.0137   46.9669 C   0  0  0  0  0  0  0  0  0  0  0  0
   10.6728   22.0972   46.0092 C   0  0  0  0  0  0  0  0  0  0  0  0
    9.8783   20.9964   45.6762 C   0  0  0  0  0  0  0  0  0  0  0  0
    8.6439   20.8005   46.3077 C   0  0  0  0  0  0  0  0  0  0  0  0
    8.3372   24.0428   48.8742 Br  0  0  0  0  0  0  0  0  0  0  0  0
  2  1  1  0  0  0
  3  2  1  0  0  0
  4  3  1  0  0  0
  5  4  1  0  0  0
  6  1  1  0  0  0
  6  5  1  0  0  0
  6  9  1  0  0  0
 10  9  1  0  0  0
 11 10  1  0  0  0
 12 11  1  0  0  0
 13 12  1  0  0  0
 14 13  1  0  0  0
  7  4  1  0  0  0
 15  3  1  0  0  0
 16 15  1  0  0  0
 17 16  1  0  0  0
 18 17  1  0  0  0
 19 18  1  0  0  0
 20 19  1  0  0  0
 21 20  1  0  0  0
 21 16  1  0  0  0
 22 17  1  0  0  0
  7  8  1  0  0  0
M  END
> <minimizedAffinity>
-8.52429

$$$$



 22 23  0  0  0  0  0  0  0  0999 V2000
    6.0623   17.9490   48.3729 C   0  0  0  0  0  0  0  0  0  0  0  0
    5.8123   18.8547   49.4080 C   0  0  0  0  0  0  0  0  0  0  0  0
    4.4932   19.1482   49.7747 C   0  0  0  0  0  0  0  0  0  0  0  0
    3.4298   18.5473   49.0963 C   0  0  0  0  0  0  0  0  0  0  0  0
    3.6642   17.6385   48.0525 C   0  0  0  0  0  0  0  0  0  0  0  0
    4.9868   17.3486   47.7077 C   0  0  0  0  0  0  0  0  0  0  0  0
    2.1458   18.8664   49.5016 O   0  0  0  0  0  0  0  0  0  0  0  0
    2.1691   19.2109   50.4080 H   0  0  0  0  0  0  0  0  0  0  0  0
    5.2489   16.4344   46.5159 C   0  0  0  0  0  0  0  0  0  0  0  0
    5.3073   17.0287   45.1221 C   0  0  0  0  0  0  0  0  0  0  0  0
    5.3455   16.1013   43.9238 C   0  0  0  0  0  0  0  0  0  0  0  0
    6.7023   15.4653   43.6335 C   0  0  0  0  0  0  0  0  0  0  0  0
    6.8184   13.9633   43.8331 C   0  0  0  0  0  0  0  0  0  0  0  0
    5.6577   13.2846   44.5578 C   0  0  0  0  0  0  0  0  0  0  0  0
    4.2541   20.0845   50.7952 O   0  0  0  0  0  0  0  0  0  0  0  0
    4.7132   21.3771   50.4885 C   0  0  0  0  0  0  0  0  0  0  0  0
    5.8034   21.8825   51.1881 C   0  0  0  0  0  0  0  0  0  0  0  0
    6.3237   23.1495   50.9376 C   0  0  0  0  0  0  0  0  0  0  0  0
    5.7164   23.9430   49.9599 C   0  0  0  0  0  0  0  0  0  0  0  0
    4.6119   23.4570   49.2544 C   0  0  0  0  0  0  0  0  0  0  0  0
    4.1187   22.1723   49.5140 C   0  0  0  0  0  0  0  0  0  0  0  0
    6.5962   20.7683   52.5281 Br  0  0  0  0  0  0  0  0  0  0  0  0
  2  1  1  0  0  0
  3  2  1  0  0  0
  4  3  1  0  0  0
  5  4  1  0  0  0
  6  1  1  0  0  0
  6  5  1  0  0  0
  6  9  1  0  0  0
 10  9  1  0  0  0
 11 10  1  0  0  0
 12 11  1  0  0  0
 13 12  1  0  0  0
 14 13  1  0  0  0
  7  4  1  0  0  0
 15  3  1  0  0  0
 16 15  1  0  0  0
 17 16  1  0  0  0
 18 17  1  0  0  0
 19 18  1  0  0  0
 20 19  1  0  0  0
 21 20  1  0  0  0
 21 16  1  0  0  0
 22 17  1  0  0  0
  7  8  1  0  0  0
M  END
> <minimizedAffinity>
-8.29917

$$$$



 22 23  0  0  0  0  0  0  0  0999 V2000
    5.7024   19.0803   46.5140 C   0  0  0  0  0  0  0  0  0  0  0  0
    5.2046   19.8760   47.5500 C   0  0  0  0  0  0  0  0  0  0  0  0
    4.4001   19.3046   48.5435 C   0  0  0  0  0  0  0  0  0  0  0  0
    4.0844   17.9445   48.4897 C   0  0  0  0  0  0  0  0  0  0  0  0
    4.5735   17.1330   47.4541 C   0  0  0  0  0  0  0  0  0  0  0  0
    5.3842   17.7176   46.4777 C   0  0  0  0  0  0  0  0  0  0  0  0
    3.2912   17.4279   49.4991 O   0  0  0  0  0  0  0  0  0  0  0  0
    3.3341   18.0099   50.2739 H   0  0  0  0  0  0  0  0  0  0  0  0
    5.8432   16.8641   45.3005 C   0  0  0  0  0  0  0  0  0  0  0  0
    5.4478   15.4013   45.2443 C   0  0  0  0  0  0  0  0  0  0  0  0
    6.4209   14.3939   44.6649 C   0  0  0  0  0  0  0  0  0  0  0  0
    6.6926   14.5342   43.1695 C   0  0  0  0  0  0  0  0  0  0  0  0
    5.7290   13.8369   42.2237 C   0  0  0  0  0  0  0  0  0  0  0  0
    5.2270   14.6608   41.0395 C   0  0  0  0  0  0  0  0  0  0  0  0
    3.8793   20.1209   49.5621 O   0  0  0  0  0  0  0  0  0  0  0  0
    4.8289   20.4766   50.5356 C   0  0  0  0  0  0  0  0  0  0  0  0
    5.1217   21.8229   50.7229 C   0  0  0  0  0  0  0  0  0  0  0  0
    6.0430   22.2572   51.6723 C   0  0  0  0  0  0  0  0  0  0  0  0
    6.7052   21.3029   52.4503 C   0  0  0  0  0  0  0  0  0  0  0  0
    6.4330   19.9440   52.2683 C   0  0  0  0  0  0  0  0  0  0  0  0
    5.4893   19.5347   51.3179 C   0  0  0  0  0  0  0  0  0  0  0  0
    4.2027   23.0954   49.6267 Br  0  0  0  0  0  0  0  0  0  0  0  0
  2  1  1  0  0  0
  3  2  1  0  0  0
  4  3  1  0  0  0
  5  4  1  0  0  0
  6  1  1  0  0  0
  6  5  1  0  0  0
  6  9  1  0  0  0
 10  9  1  0  0  0
 11 10  1  0  0  0
 12 11  1  0  0  0
 13 12  1  0  0  0
 14 13  1  0  0  0
  7  4  1  0  0  0
 15  3  1  0  0  0
 16 15  1  0  0  0
 17 16  1  0  0  0
 18 17  1  0  0  0
 19 18  1  0  0  0
 20 19  1  0  0  0
 21 20  1  0  0  0
 21 16  1  0  0  0
 22 17  1  0  0  0
  7  8  1  0  0  0
M  END
> <minimizedAffinity>
-7.91742

$$$$



 22 23  0  0  0  0  0  0  0  0999 V2000
    5.8109   18.4399   48.7272 C   0  0  0  0  0  0  0  0  0  0  0  0
    6.3351   19.7159   48.9535 C   0  0  0  0  0  0  0  0  0  0  0  0
    5.8580   20.8068   48.2167 C   0  0  0  0  0  0  0  0  0  0  0  0
    4.8701   20.6160   47.2471 C   0  0  0  0  0  0  0  0  0  0  0  0
    4.3361   19.3405   47.0056 C   0  0  0  0  0  0  0  0  0  0  0  0
    4.8159   18.2655   47.7582 C   0  0  0  0  0  0  0  0  0  0  0  0
    4.4286   21.7276   46.5512 O   0  0  0  0  0  0  0  0  0  0  0  0
    4.6334   22.5289   47.0582 H   0  0  0  0  0  0  0  0  0  0  0  0
    4.3079   16.8638   47.4384 C   0  0  0  0  0  0  0  0  0  0  0  0
    4.4293   16.3344   46.0228 C   0  0  0  0  0  0  0  0  0  0  0  0
    5.7703   15.8205   45.5378 C   0  0  0  0  0  0  0  0  0  0  0  0
    5.7328   14.4738   44.8205 C   0  0  0  0  0  0  0  0  0  0  0  0
    6.8821   14.1612   43.8767 C   0  0  0  0  0  0  0  0  0  0  0  0
    7.3916   15.3205   43.0226 C   0  0  0  0  0  0  0  0  0  0  0  0
    6.4152   22.0792   48.4306 O   0  0  0  0  0  0  0  0  0  0  0  0
    5.8442   22.7656   49.5162 C   0  0  0  0  0  0  0  0  0  0  0  0
    6.6453   23.0673   50.6119 C   0  0  0  0  0  0  0  0  0  0  0  0
    6.1577   23.7521   51.7219 C   0  0  0  0  0  0  0  0  0  0  0  0
    4.8128   24.1333   51.7377 C   0  0  0  0  0  0  0  0  0  0  0  0
    3.9888   23.8284   50.6506 C   0  0  0  0  0  0  0  0  0  0  0  0
    4.5084   23.1534   49.5390 C   0  0  0  0  0  0  0  0  0  0  0  0
    8.4774   22.5146   50.5551 Br  0  0  0  0  0  0  0  0  0  0  0  0
  2  1  1  0  0  0
  3  2  1  0  0  0
  4  3  1  0  0  0
  5  4  1  0  0  0
  6  1  1  0  0  0
  6  5  1  0  0  0
  6  9  1  0  0  0
 10  9  1  0  0  0
 11 10  1  0  0  0
 12 11  1  0  0  0
 13 12  1  0  0  0
 14 13  1  0  0  0
  7  4  1  0  0  0
 15  3  1  0  0  0
 16 15  1  0  0  0
 17 16  1  0  0  0
 18 17  1  0  0  0
 19 18  1  0  0  0
 20 19  1  0  0  0
 21 20  1  0  0  0
 21 16  1  0  0  0
 22 17  1  0  0  0
  7  8  1  0  0  0
M  END
> <minimizedAffinity>
-7.86833

$$$$



 22 23  0  0  0  0  0  0  0  0999 V2000
    6.4102   20.7545   48.2485 C   0  0  0  0  0  0  0  0  0  0  0  0
    6.5723   22.0632   48.7124 C   0  0  0  0  0  0  0  0  0  0  0  0
    6.8215   22.2961   50.0705 C   0  0  0  0  0  0  0  0  0  0  0  0
    6.8930   21.2221   50.9613 C   0  0  0  0  0  0  0  0  0  0  0  0
    6.7289   19.9025   50.5118 C   0  0  0  0  0  0  0  0  0  0  0  0
    6.4925   19.6880   49.1515 C   0  0  0  0  0  0  0  0  0  0  0  0
    7.1476   21.5057   52.2916 O   0  0  0  0  0  0  0  0  0  0  0  0
    7.5610   22.3803   52.3623 H   0  0  0  0  0  0  0  0  0  0  0  0
    6.2218   18.2665   48.6710 C   0  0  0  0  0  0  0  0  0  0  0  0
    5.1541   18.0275   47.6212 C   0  0  0  0  0  0  0  0  0  0  0  0
    3.7060   17.9083   48.0530 C   0  0  0  0  0  0  0  0  0  0  0  0
    3.4267   18.2730   49.5086 C   0  0  0  0  0  0  0  0  0  0  0  0
    2.5419   19.4826   49.7604 C   0  0  0  0  0  0  0  0  0  0  0  0
    2.8524   20.7319   48.9382 C   0  0  0  0  0  0  0  0  0  0  0  0
    6.9508   23.6178   50.5303 O   0  0  0  0  0  0  0  0  0  0  0  0
    5.7862   24.3865   50.3607 C   0  0  0  0  0  0  0  0  0  0  0  0
    5.8920   25.6361   49.7601 C   0  0  0  0  0  0  0  0  0  0  0  0
    4.7852   26.4540   49.5481 C   0  0  0  0  0  0  0  0  0  0  0  0
    3.5296   26.0064   49.9693 C   0  0  0  0  0  0  0  0  0  0  0  0
    3.4050   24.7581   50.5859 C   0  0  0  0  0  0  0  0  0  0  0  0
    4.5318   23.9476   50.7719 C   0  0  0  0  0  0  0  0  0  0  0  0
    7.6320   26.2163   49.2113 Br  0  0  0  0  0  0  0  0  0  0  0  0
  2  1  1  0  0  0
  3  2  1  0  0  0
  4  3  1  0  0  0
  5  4  1  0  0  0
  6  1  1  0  0  0
  6  5  1  0  0  0
  6  9  1  0  0  0
 10  9  1  0  0  0
 11 10  1  0  0  0
 12 11  1  0  0  0
 13 12  1  0  0  0
 14 13  1  0  0  0
  7  4  1  0  0  0
 15  3  1  0  0  0
 16 15  1  0  0  0
 17 16  1  0  0  0
 18 17  1  0  0  0
 19 18  1  0  0  0
 20 19  1  0  0  0
 21 20  1  0  0  0
 21 16  1  0  0  0
 22 17  1  0  0  0
  7  8  1  0  0  0
M  END
> <minimizedAffinity>
-7.86241

$$$$
