S3777 Gentiopicroside.cdx


 29 31  0  0  0  0  0  0  0  0999 V2000
    6.3690   23.3087   49.9212 C   0  0  0  0  0  0  0  0  0  0  0  0
    5.0056   23.5254   49.9532 O   0  0  0  0  0  0  0  0  0  0  0  0
    7.0278   24.6588   49.7226 C   0  0  0  0  0  0  0  0  0  0  0  0
    4.6029   24.4515   50.8942 C   0  0  0  0  0  0  0  0  0  0  0  0
    6.9881   25.2957   51.0905 C   0  0  0  0  0  0  0  0  0  0  0  0
    8.2935   24.5703   49.1820 O   0  0  0  0  0  0  0  0  0  0  0  0
    5.6990   24.9865   51.7512 C   0  0  0  0  0  0  0  0  0  0  0  0
    7.3124   26.6384   51.0761 O   0  0  0  0  0  0  0  0  0  0  0  0
    5.9028   24.1113   52.8426 O   0  0  0  0  0  0  0  0  0  0  0  0
    8.8521   25.3048   49.5382 H   0  0  0  0  0  0  0  0  0  0  0  0
    6.7728   27.0871   51.7745 H   0  0  0  0  0  0  0  0  0  0  0  0
    6.8366   24.0761   53.1156 H   0  0  0  0  0  0  0  0  0  0  0  0
    3.7067   25.5182   50.2949 C   0  0  0  0  0  0  0  0  0  0  0  0
    3.3138   26.4724   51.2608 O   0  0  0  0  0  0  0  0  0  0  0  0
    2.4219   26.2475   51.6467 H   0  0  0  0  0  0  0  0  0  0  0  0
    6.6773   22.3985   48.9447 O   0  0  0  0  0  0  0  0  0  0  0  0
    4.9417   19.9914   49.5150 C   0  0  0  0  0  0  0  0  0  0  0  0
    5.9649   20.6546   50.3365 C   0  0  0  0  0  0  0  0  0  0  0  0
    5.2440   19.5387   48.1683 C   0  0  0  0  0  0  0  0  0  0  0  0
    3.7319   19.8075   50.0153 C   0  0  0  0  0  0  0  0  0  0  0  0
    7.0759   21.1800   49.4660 C   0  0  0  0  0  0  0  0  0  0  0  0
    6.4515   19.6978   47.6080 C   0  0  0  0  0  0  0  0  0  0  0  0
    4.1979   18.8923   47.4069 C   0  0  0  0  0  0  0  0  0  0  0  0
    2.6221   19.1578   49.2948 C   0  0  0  0  0  0  0  0  0  0  0  0
    7.4017   20.3259   48.3984 O   0  0  0  0  0  0  0  0  0  0  0  0
    2.9608   18.7387   48.0029 O   0  0  0  0  0  0  0  0  0  0  0  0
    4.4494   18.4977   46.2426 O   0  0  0  0  0  0  0  0  0  0  0  0
    6.4430   19.7299   51.3732 C   0  0  0  0  0  0  0  0  0  0  0  0
    6.4064   20.0031   52.6667 C   0  0  0  0  0  0  0  0  0  0  0  0
 17 18  1  0  0  0
 17 19  1  0  0  0
 17 20  2  0  0  0
 18 21  1  0  0  0
 18 28  1  0  0  0
 19 22  2  0  0  0
 19 23  1  0  0  0
 20 24  1  0  0  0
 21 25  1  0  0  0
 21 16  1  0  0  0
 28 29  2  0  0  0
 22 25  1  0  0  0
 23 26  1  0  0  0
 23 27  2  0  0  0
 24 26  1  0  0  0
  1  2  1  0  0  0
  1  3  1  0  0  0
  1 16  1  0  0  0
  2  4  1  0  0  0
  3  5  1  0  0  0
  3  6  1  0  0  0
  4  7  1  0  0  0
  4 13  1  0  0  0
  5  8  1  0  0  0
  5  7  1  0  0  0
  7  9  1  0  0  0
 13 14  1  0  0  0
  6 10  1  0  0  0
  8 11  1  0  0  0
  9 12  1  0  0  0
 14 15  1  0  0  0
M  END
> <minimizedAffinity>
-8.72411

$$$$
S3777 Gentiopicroside.cdx


 29 31  0  0  0  0  0  0  0  0999 V2000
    6.0253   23.0780   50.1888 C   0  0  0  0  0  0  0  0  0  0  0  0
    6.9970   22.6681   51.0803 O   0  0  0  0  0  0  0  0  0  0  0  0
    5.0149   23.8879   50.9758 C   0  0  0  0  0  0  0  0  0  0  0  0
    7.5838   23.6973   51.7886 C   0  0  0  0  0  0  0  0  0  0  0  0
    5.6716   25.2366   51.1449 C   0  0  0  0  0  0  0  0  0  0  0  0
    3.7748   23.9397   50.3747 O   0  0  0  0  0  0  0  0  0  0  0  0
    7.1188   25.0612   51.4070 C   0  0  0  0  0  0  0  0  0  0  0  0
    5.0228   26.0482   52.0551 O   0  0  0  0  0  0  0  0  0  0  0  0
    7.8774   25.5178   50.3049 O   0  0  0  0  0  0  0  0  0  0  0  0
    3.3528   24.8121   50.5727 H   0  0  0  0  0  0  0  0  0  0  0  0
    5.7087   26.5926   52.5171 H   0  0  0  0  0  0  0  0  0  0  0  0
    7.3543   26.0802   49.7068 H   0  0  0  0  0  0  0  0  0  0  0  0
    7.5783   23.4350   53.2824 C   0  0  0  0  0  0  0  0  0  0  0  0
    8.7415   22.7461   53.6953 O   0  0  0  0  0  0  0  0  0  0  0  0
    8.5799   21.7629   53.7417 H   0  0  0  0  0  0  0  0  0  0  0  0
    5.4829   21.9923   49.5529 O   0  0  0  0  0  0  0  0  0  0  0  0
    5.7393   19.6338   47.6811 C   0  0  0  0  0  0  0  0  0  0  0  0
    6.5557   20.8495   47.8126 C   0  0  0  0  0  0  0  0  0  0  0  0
    4.3021   19.7174   47.4875 C   0  0  0  0  0  0  0  0  0  0  0  0
    6.3278   18.4515   47.7407 C   0  0  0  0  0  0  0  0  0  0  0  0
    5.6899   22.0242   48.1850 C   0  0  0  0  0  0  0  0  0  0  0  0
    3.6504   20.8870   47.4196 C   0  0  0  0  0  0  0  0  0  0  0  0
    3.5502   18.4881   47.3642 C   0  0  0  0  0  0  0  0  0  0  0  0
    5.6225   17.1627   47.6230 C   0  0  0  0  0  0  0  0  0  0  0  0
    4.4378   22.0210   47.5465 O   0  0  0  0  0  0  0  0  0  0  0  0
    4.2412   17.2937   47.4375 O   0  0  0  0  0  0  0  0  0  0  0  0
    2.3082   18.5499   47.1967 O   0  0  0  0  0  0  0  0  0  0  0  0
    7.3150   21.0719   46.5747 C   0  0  0  0  0  0  0  0  0  0  0  0
    8.6340   21.1610   46.5347 C   0  0  0  0  0  0  0  0  0  0  0  0
 17 18  1  0  0  0
 17 19  1  0  0  0
 17 20  2  0  0  0
 18 21  1  0  0  0
 18 28  1  0  0  0
 19 22  2  0  0  0
 19 23  1  0  0  0
 20 24  1  0  0  0
 21 25  1  0  0  0
 21 16  1  0  0  0
 28 29  2  0  0  0
 22 25  1  0  0  0
 23 26  1  0  0  0
 23 27  2  0  0  0
 24 26  1  0  0  0
  1  2  1  0  0  0
  1  3  1  0  0  0
  1 16  1  0  0  0
  2  4  1  0  0  0
  3  5  1  0  0  0
  3  6  1  0  0  0
  4  7  1  0  0  0
  4 13  1  0  0  0
  5  8  1  0  0  0
  5  7  1  0  0  0
  7  9  1  0  0  0
 13 14  1  0  0  0
  6 10  1  0  0  0
  8 11  1  0  0  0
  9 12  1  0  0  0
 14 15  1  0  0  0
M  END
> <minimizedAffinity>
-8.58288

$$$$
S3777 Gentiopicroside.cdx


 29 31  0  0  0  0  0  0  0  0999 V2000
    5.8506   23.2615   49.5594 C   0  0  0  0  0  0  0  0  0  0  0  0
    6.7831   23.2067   50.5764 O   0  0  0  0  0  0  0  0  0  0  0  0
    4.4994   23.4837   50.2084 C   0  0  0  0  0  0  0  0  0  0  0  0
    6.7740   24.3062   51.4109 C   0  0  0  0  0  0  0  0  0  0  0  0
    4.4828   24.9573   50.5352 C   0  0  0  0  0  0  0  0  0  0  0  0
    3.4451   23.0724   49.4202 O   0  0  0  0  0  0  0  0  0  0  0  0
    5.8182   25.3801   51.0167 C   0  0  0  0  0  0  0  0  0  0  0  0
    3.4383   25.3200   51.3633 O   0  0  0  0  0  0  0  0  0  0  0  0
    6.4377   26.2267   50.0690 O   0  0  0  0  0  0  0  0  0  0  0  0
    2.6668   23.6602   49.5844 H   0  0  0  0  0  0  0  0  0  0  0  0
    3.7579   26.0502   51.9506 H   0  0  0  0  0  0  0  0  0  0  0  0
    5.8031   26.5767   49.4190 H   0  0  0  0  0  0  0  0  0  0  0  0
    6.6940   23.9099   52.8726 C   0  0  0  0  0  0  0  0  0  0  0  0
    7.9614   23.5526   53.3863 O   0  0  0  0  0  0  0  0  0  0  0  0
    8.0987   22.5653   53.3506 H   0  0  0  0  0  0  0  0  0  0  0  0
    5.9147   22.1222   48.8011 O   0  0  0  0  0  0  0  0  0  0  0  0
    5.3148   19.1815   49.1537 C   0  0  0  0  0  0  0  0  0  0  0  0
    5.8646   20.1695   50.0935 C   0  0  0  0  0  0  0  0  0  0  0  0
    5.9237   18.9703   47.8519 C   0  0  0  0  0  0  0  0  0  0  0  0
    4.2513   18.4790   49.5047 C   0  0  0  0  0  0  0  0  0  0  0  0
    6.7341   21.1593   49.3637 C   0  0  0  0  0  0  0  0  0  0  0  0
    7.0020   19.6526   47.4409 C   0  0  0  0  0  0  0  0  0  0  0  0
    5.3397   17.9847   46.9690 C   0  0  0  0  0  0  0  0  0  0  0  0
    3.6071   17.4615   48.6549 C   0  0  0  0  0  0  0  0  0  0  0  0
    7.5046   20.5797   48.3410 O   0  0  0  0  0  0  0  0  0  0  0  0
    4.2285   17.2930   47.4120 O   0  0  0  0  0  0  0  0  0  0  0  0
    5.8587   17.7950   45.8424 O   0  0  0  0  0  0  0  0  0  0  0  0
    6.5754   19.4788   51.1779 C   0  0  0  0  0  0  0  0  0  0  0  0
    6.5210   19.8594   52.4434 C   0  0  0  0  0  0  0  0  0  0  0  0
 17 18  1  0  0  0
 17 19  1  0  0  0
 17 20  2  0  0  0
 18 21  1  0  0  0
 18 28  1  0  0  0
 19 22  2  0  0  0
 19 23  1  0  0  0
 20 24  1  0  0  0
 21 25  1  0  0  0
 21 16  1  0  0  0
 28 29  2  0  0  0
 22 25  1  0  0  0
 23 26  1  0  0  0
 23 27  2  0  0  0
 24 26  1  0  0  0
  1  2  1  0  0  0
  1  3  1  0  0  0
  1 16  1  0  0  0
  2  4  1  0  0  0
  3  5  1  0  0  0
  3  6  1  0  0  0
  4  7  1  0  0  0
  4 13  1  0  0  0
  5  8  1  0  0  0
  5  7  1  0  0  0
  7  9  1  0  0  0
 13 14  1  0  0  0
  6 10  1  0  0  0
  8 11  1  0  0  0
  9 12  1  0  0  0
 14 15  1  0  0  0
M  END
> <minimizedAffinity>
-8.50694

$$$$
S3777 Gentiopicroside.cdx


 29 31  0  0  0  0  0  0  0  0999 V2000
    5.3608   21.1996   49.5684 C   0  0  0  0  0  0  0  0  0  0  0  0
    4.3037   21.4466   48.7149 O   0  0  0  0  0  0  0  0  0  0  0  0
    5.4308   19.6986   49.7644 C   0  0  0  0  0  0  0  0  0  0  0  0
    4.3720   20.7618   47.5183 C   0  0  0  0  0  0  0  0  0  0  0  0
    6.1015   19.1918   48.5106 C   0  0  0  0  0  0  0  0  0  0  0  0
    6.0715   19.3332   50.9297 O   0  0  0  0  0  0  0  0  0  0  0  0
    5.6068   19.9467   47.3362 C   0  0  0  0  0  0  0  0  0  0  0  0
    6.0345   17.8188   48.3738 O   0  0  0  0  0  0  0  0  0  0  0  0
    6.6311   20.7682   46.8122 O   0  0  0  0  0  0  0  0  0  0  0  0
    6.5470   18.4779   50.7857 H   0  0  0  0  0  0  0  0  0  0  0  0
    5.9576   17.6148   47.4080 H   0  0  0  0  0  0  0  0  0  0  0  0
    7.5115   20.5098   47.1373 H   0  0  0  0  0  0  0  0  0  0  0  0
    3.0862   20.0168   47.2153 C   0  0  0  0  0  0  0  0  0  0  0  0
    2.2608   19.9148   48.3582 O   0  0  0  0  0  0  0  0  0  0  0  0
    2.3996   19.0447   48.8257 H   0  0  0  0  0  0  0  0  0  0  0  0
    5.1958   21.8984   50.7353 O   0  0  0  0  0  0  0  0  0  0  0  0
    5.3920   24.8377   50.0616 C   0  0  0  0  0  0  0  0  0  0  0  0
    6.3500   23.7403   49.8628 C   0  0  0  0  0  0  0  0  0  0  0  0
    4.8268   25.1068   51.3723 C   0  0  0  0  0  0  0  0  0  0  0  0
    5.0447   25.5863   49.0287 C   0  0  0  0  0  0  0  0  0  0  0  0
    6.2550   22.7507   50.9942 C   0  0  0  0  0  0  0  0  0  0  0  0
    5.1408   24.3821   52.4556 C   0  0  0  0  0  0  0  0  0  0  0  0
    3.8894   26.1998   51.5081 C   0  0  0  0  0  0  0  0  0  0  0  0
    4.0967   26.7128   49.0973 C   0  0  0  0  0  0  0  0  0  0  0  0
    6.0447   23.3518   52.2471 O   0  0  0  0  0  0  0  0  0  0  0  0
    3.5793   26.9337   50.3791 O   0  0  0  0  0  0  0  0  0  0  0  0
    3.3958   26.4401   52.6364 O   0  0  0  0  0  0  0  0  0  0  0  0
    7.7031   24.2883   49.6983 C   0  0  0  0  0  0  0  0  0  0  0  0
    8.5120   23.9480   48.7088 C   0  0  0  0  0  0  0  0  0  0  0  0
 17 18  1  0  0  0
 17 19  1  0  0  0
 17 20  2  0  0  0
 18 21  1  0  0  0
 18 28  1  0  0  0
 19 22  2  0  0  0
 19 23  1  0  0  0
 20 24  1  0  0  0
 21 25  1  0  0  0
 21 16  1  0  0  0
 28 29  2  0  0  0
 22 25  1  0  0  0
 23 26  1  0  0  0
 23 27  2  0  0  0
 24 26  1  0  0  0
  1  2  1  0  0  0
  1  3  1  0  0  0
  1 16  1  0  0  0
  2  4  1  0  0  0
  3  5  1  0  0  0
  3  6  1  0  0  0
  4  7  1  0  0  0
  4 13  1  0  0  0
  5  8  1  0  0  0
  5  7  1  0  0  0
  7  9  1  0  0  0
 13 14  1  0  0  0
  6 10  1  0  0  0
  8 11  1  0  0  0
  9 12  1  0  0  0
 14 15  1  0  0  0
M  END
> <minimizedAffinity>
-8.46134

$$$$
S3777 Gentiopicroside.cdx


 29 31  0  0  0  0  0  0  0  0999 V2000
    4.7551   23.6624   49.7333 C   0  0  0  0  0  0  0  0  0  0  0  0
    3.7137   24.4479   50.1863 O   0  0  0  0  0  0  0  0  0  0  0  0
    6.0134   24.5026   49.8177 C   0  0  0  0  0  0  0  0  0  0  0  0
    3.9110   24.9756   51.4465 C   0  0  0  0  0  0  0  0  0  0  0  0
    6.3903   24.4601   51.2788 C   0  0  0  0  0  0  0  0  0  0  0  0
    7.0111   24.0719   48.9687 O   0  0  0  0  0  0  0  0  0  0  0  0
    5.1701   24.5394   52.1147 C   0  0  0  0  0  0  0  0  0  0  0  0
    7.3709   25.3731   51.6153 O   0  0  0  0  0  0  0  0  0  0  0  0
    4.9432   23.3087   52.7723 O   0  0  0  0  0  0  0  0  0  0  0  0
    7.8912   24.2460   49.3852 H   0  0  0  0  0  0  0  0  0  0  0  0
    7.1875   25.6877   52.5360 H   0  0  0  0  0  0  0  0  0  0  0  0
    5.7323   22.7386   52.7670 H   0  0  0  0  0  0  0  0  0  0  0  0
    3.6783   26.4739   51.4783 C   0  0  0  0  0  0  0  0  0  0  0  0
    3.2974   26.9153   52.7660 O   0  0  0  0  0  0  0  0  0  0  0  0
    2.3051   26.9784   52.8458 H   0  0  0  0  0  0  0  0  0  0  0  0
    4.4841   23.2053   48.4704 O   0  0  0  0  0  0  0  0  0  0  0  0
    6.2190   20.9527   47.4468 C   0  0  0  0  0  0  0  0  0  0  0  0
    4.7983   21.2524   47.2160 C   0  0  0  0  0  0  0  0  0  0  0  0
    6.7482   20.8379   48.7947 C   0  0  0  0  0  0  0  0  0  0  0  0
    7.0205   20.7864   46.4087 C   0  0  0  0  0  0  0  0  0  0  0  0
    4.1826   21.8547   48.4515 C   0  0  0  0  0  0  0  0  0  0  0  0
    5.9846   20.9966   49.8851 C   0  0  0  0  0  0  0  0  0  0  0  0
    8.1540   20.5412   48.9609 C   0  0  0  0  0  0  0  0  0  0  0  0
    8.4596   20.4832   46.5071 C   0  0  0  0  0  0  0  0  0  0  0  0
    4.6485   21.2793   49.6462 O   0  0  0  0  0  0  0  0  0  0  0  0
    8.9231   20.3819   47.8240 O   0  0  0  0  0  0  0  0  0  0  0  0
    8.6204   20.4400   50.1214 O   0  0  0  0  0  0  0  0  0  0  0  0
    4.1030   20.0385   46.7676 C   0  0  0  0  0  0  0  0  0  0  0  0
    3.2950   19.3333   47.5417 C   0  0  0  0  0  0  0  0  0  0  0  0
 17 18  1  0  0  0
 17 19  1  0  0  0
 17 20  2  0  0  0
 18 21  1  0  0  0
 18 28  1  0  0  0
 19 22  2  0  0  0
 19 23  1  0  0  0
 20 24  1  0  0  0
 21 25  1  0  0  0
 21 16  1  0  0  0
 28 29  2  0  0  0
 22 25  1  0  0  0
 23 26  1  0  0  0
 23 27  2  0  0  0
 24 26  1  0  0  0
  1  2  1  0  0  0
  1  3  1  0  0  0
  1 16  1  0  0  0
  2  4  1  0  0  0
  3  5  1  0  0  0
  3  6  1  0  0  0
  4  7  1  0  0  0
  4 13  1  0  0  0
  5  8  1  0  0  0
  5  7  1  0  0  0
  7  9  1  0  0  0
 13 14  1  0  0  0
  6 10  1  0  0  0
  8 11  1  0  0  0
  9 12  1  0  0  0
 14 15  1  0  0  0
M  END
> <minimizedAffinity>
-8.41651

$$$$
