S4860 Indole-3-carboxylic acid.cdx


 14 15  0  0  0  0  0  0  0  0999 V2000
    5.2138   18.5250   49.8322 C   0  0  0  0  0  0  0  0  0  0  0  0
    3.9121   18.0514   49.7559 C   0  0  0  0  0  0  0  0  0  0  0  0
    5.3139   19.1140   51.0776 C   0  0  0  0  0  0  0  0  0  0  0  0
    6.1242   18.3751   48.8065 C   0  0  0  0  0  0  0  0  0  0  0  0
    3.2652   18.3458   50.9058 N   0  0  0  0  0  0  0  0  0  0  0  0
    3.5370   17.4003   48.5795 C   0  0  0  0  0  0  0  0  0  0  0  0
    4.1179   19.0014   51.7306 C   0  0  0  0  0  0  0  0  0  0  0  0
    5.7487   17.7250   47.6326 C   0  0  0  0  0  0  0  0  0  0  0  0
    4.4561   17.2556   47.5586 C   0  0  0  0  0  0  0  0  0  0  0  0
    2.2741   18.1169   51.1433 H   0  0  0  0  0  0  0  0  0  0  0  0
    6.5126   19.7528   51.6027 C   0  0  0  0  0  0  0  0  0  0  0  0
    6.8163   19.6870   52.9567 O   0  0  0  0  0  0  0  0  0  0  0  0
    7.3086   20.3808   50.8581 O   0  0  0  0  0  0  0  0  0  0  0  0
    7.7801   19.6520   53.3006 H   0  0  0  0  0  0  0  0  0  0  0  0
  1  2  2  0  0  0
  1  3  1  0  0  0
  1  4  1  0  0  0
  2  5  1  0  0  0
  2  6  1  0  0  0
  3  7  2  0  0  0
  3 11  1  0  0  0
  4  8  2  0  0  0
  5  7  1  0  0  0
  6  9  2  0  0  0
 11 12  1  0  0  0
 11 13  2  0  0  0
  8  9  1  0  0  0
  5 10  1  0  0  0
 12 14  1  0  0  0
M  END
> <minimizedAffinity>
-6.76782

$$$$
S4860 Indole-3-carboxylic acid.cdx


 14 15  0  0  0  0  0  0  0  0999 V2000
    4.9030   18.0476   48.6673 C   0  0  0  0  0  0  0  0  0  0  0  0
    5.9920   18.4645   47.9156 C   0  0  0  0  0  0  0  0  0  0  0  0
    5.0958   18.5947   49.9208 C   0  0  0  0  0  0  0  0  0  0  0  0
    3.9007   17.2519   48.1520 C   0  0  0  0  0  0  0  0  0  0  0  0
    6.7981   19.2266   48.6881 N   0  0  0  0  0  0  0  0  0  0  0  0
    6.0482   18.0452   46.5853 C   0  0  0  0  0  0  0  0  0  0  0  0
    6.2576   19.3155   49.9279 C   0  0  0  0  0  0  0  0  0  0  0  0
    3.9579   16.8339   46.8239 C   0  0  0  0  0  0  0  0  0  0  0  0
    5.0396   17.2487   46.0792 C   0  0  0  0  0  0  0  0  0  0  0  0
    7.6931   19.6822   48.4009 H   0  0  0  0  0  0  0  0  0  0  0  0
    4.1946   18.4233   51.0517 C   0  0  0  0  0  0  0  0  0  0  0  0
    4.5117   17.5516   52.0858 O   0  0  0  0  0  0  0  0  0  0  0  0
    3.1076   19.0511   51.1333 O   0  0  0  0  0  0  0  0  0  0  0  0
    4.2378   17.7304   53.0561 H   0  0  0  0  0  0  0  0  0  0  0  0
  1  2  2  0  0  0
  1  3  1  0  0  0
  1  4  1  0  0  0
  2  5  1  0  0  0
  2  6  1  0  0  0
  3  7  2  0  0  0
  3 11  1  0  0  0
  4  8  2  0  0  0
  5  7  1  0  0  0
  6  9  2  0  0  0
 11 12  1  0  0  0
 11 13  2  0  0  0
  8  9  1  0  0  0
  5 10  1  0  0  0
 12 14  1  0  0  0
M  END
> <minimizedAffinity>
-6.49022

$$$$
S4860 Indole-3-carboxylic acid.cdx


 14 15  0  0  0  0  0  0  0  0999 V2000
    5.6019   19.1082   49.9094 C   0  0  0  0  0  0  0  0  0  0  0  0
    6.2242   18.9796   48.6761 C   0  0  0  0  0  0  0  0  0  0  0  0
    6.4130   19.9551   50.6393 C   0  0  0  0  0  0  0  0  0  0  0  0
    4.4189   18.4694   50.2190 C   0  0  0  0  0  0  0  0  0  0  0  0
    7.3566   19.7179   48.6720 N   0  0  0  0  0  0  0  0  0  0  0  0
    5.6035   18.1630   47.7293 C   0  0  0  0  0  0  0  0  0  0  0  0
    7.4859   20.3253   49.8768 C   0  0  0  0  0  0  0  0  0  0  0  0
    3.8002   17.6545   49.2731 C   0  0  0  0  0  0  0  0  0  0  0  0
    4.4193   17.5280   48.0494 C   0  0  0  0  0  0  0  0  0  0  0  0
    8.0352   19.8197   47.8844 H   0  0  0  0  0  0  0  0  0  0  0  0
    6.1552   20.3806   52.0078 C   0  0  0  0  0  0  0  0  0  0  0  0
    6.8603   19.8253   53.0681 O   0  0  0  0  0  0  0  0  0  0  0  0
    5.2941   21.2570   52.2778 O   0  0  0  0  0  0  0  0  0  0  0  0
    7.1010   20.3617   53.9065 H   0  0  0  0  0  0  0  0  0  0  0  0
  1  2  2  0  0  0
  1  3  1  0  0  0
  1  4  1  0  0  0
  2  5  1  0  0  0
  2  6  1  0  0  0
  3  7  2  0  0  0
  3 11  1  0  0  0
  4  8  2  0  0  0
  5  7  1  0  0  0
  6  9  2  0  0  0
 11 12  1  0  0  0
 11 13  2  0  0  0
  8  9  1  0  0  0
  5 10  1  0  0  0
 12 14  1  0  0  0
M  END
> <minimizedAffinity>
-6.34633

$$$$
S4860 Indole-3-carboxylic acid.cdx


 14 15  0  0  0  0  0  0  0  0999 V2000
    5.1606   18.4253   49.0328 C   0  0  0  0  0  0  0  0  0  0  0  0
    3.7839   18.4245   48.8615 C   0  0  0  0  0  0  0  0  0  0  0  0
    5.3889   19.2216   50.1381 C   0  0  0  0  0  0  0  0  0  0  0  0
    6.0168   17.7325   48.2019 C   0  0  0  0  0  0  0  0  0  0  0  0
    3.2172   19.1873   49.8229 N   0  0  0  0  0  0  0  0  0  0  0  0
    3.2732   17.6828   47.7949 C   0  0  0  0  0  0  0  0  0  0  0  0
    4.1956   19.6855   50.6178 C   0  0  0  0  0  0  0  0  0  0  0  0
    5.5058   16.9924   47.1376 C   0  0  0  0  0  0  0  0  0  0  0  0
    4.1390   16.9928   46.9689 C   0  0  0  0  0  0  0  0  0  0  0  0
    2.1982   19.3767   49.9529 H   0  0  0  0  0  0  0  0  0  0  0  0
    6.7015   19.5143   50.6966 C   0  0  0  0  0  0  0  0  0  0  0  0
    7.7205   20.0088   49.8922 O   0  0  0  0  0  0  0  0  0  0  0  0
    6.9586   19.3323   51.9145 O   0  0  0  0  0  0  0  0  0  0  0  0
    8.4262   20.6628   50.2427 H   0  0  0  0  0  0  0  0  0  0  0  0
  1  2  2  0  0  0
  1  3  1  0  0  0
  1  4  1  0  0  0
  2  5  1  0  0  0
  2  6  1  0  0  0
  3  7  2  0  0  0
  3 11  1  0  0  0
  4  8  2  0  0  0
  5  7  1  0  0  0
  6  9  2  0  0  0
 11 12  1  0  0  0
 11 13  2  0  0  0
  8  9  1  0  0  0
  5 10  1  0  0  0
 12 14  1  0  0  0
M  END
> <minimizedAffinity>
-6.04514

$$$$
S4860 Indole-3-carboxylic acid.cdx


 14 15  0  0  0  0  0  0  0  0999 V2000
    4.5908   20.0402   50.6768 C   0  0  0  0  0  0  0  0  0  0  0  0
    5.1509   19.3057   51.7119 C   0  0  0  0  0  0  0  0  0  0  0  0
    3.6679   19.1964   50.0903 C   0  0  0  0  0  0  0  0  0  0  0  0
    4.9651   21.3377   50.3944 C   0  0  0  0  0  0  0  0  0  0  0  0
    4.5861   18.0779   51.7403 N   0  0  0  0  0  0  0  0  0  0  0  0
    6.1318   19.9325   52.4824 C   0  0  0  0  0  0  0  0  0  0  0  0
    3.6692   17.9963   50.7454 C   0  0  0  0  0  0  0  0  0  0  0  0
    5.9443   21.9624   51.1641 C   0  0  0  0  0  0  0  0  0  0  0  0
    6.4992   21.2318   52.1912 C   0  0  0  0  0  0  0  0  0  0  0  0
    4.8027   17.3038   52.4075 H   0  0  0  0  0  0  0  0  0  0  0  0
    2.8294   19.5424   48.9512 C   0  0  0  0  0  0  0  0  0  0  0  0
    1.9830   20.6429   49.0017 O   0  0  0  0  0  0  0  0  0  0  0  0
    2.8400   18.8654   47.8910 O   0  0  0  0  0  0  0  0  0  0  0  0
    1.7729   21.2104   48.1756 H   0  0  0  0  0  0  0  0  0  0  0  0
  1  2  2  0  0  0
  1  3  1  0  0  0
  1  4  1  0  0  0
  2  5  1  0  0  0
  2  6  1  0  0  0
  3  7  2  0  0  0
  3 11  1  0  0  0
  4  8  2  0  0  0
  5  7  1  0  0  0
  6  9  2  0  0  0
 11 12  1  0  0  0
 11 13  2  0  0  0
  8  9  1  0  0  0
  5 10  1  0  0  0
 12 14  1  0  0  0
M  END
> <minimizedAffinity>
-6.02235

$$$$
