S4866 Nicarbazin.cdx


 24 25  0  0  0  0  0  0  0  0999 V2000
    4.0828   17.9718   47.1763 N   0  0  0  0  0  0  0  0  0  0  0  0
    4.7484   18.7972   48.0876 C   0  0  0  0  0  0  0  0  0  0  0  0
    4.0003   19.6368   48.9851 N   0  0  0  0  0  0  0  0  0  0  0  0
    5.9757   18.8461   48.1662 O   0  0  0  0  0  0  0  0  0  0  0  0
    3.0156   18.0188   47.2052 H   0  0  0  0  0  0  0  0  0  0  0  0
    2.9548   19.6547   48.9829 H   0  0  0  0  0  0  0  0  0  0  0  0
    4.6806   17.0980   46.2385 C   0  0  0  0  0  0  0  0  0  0  0  0
    5.7012   17.3930   45.3974 C   0  0  0  0  0  0  0  0  0  0  0  0
    4.1715   15.7950   46.1663 C   0  0  0  0  0  0  0  0  0  0  0  0
    6.2184   16.4608   44.5109 C   0  0  0  0  0  0  0  0  0  0  0  0
    4.6802   14.8695   45.2908 C   0  0  0  0  0  0  0  0  0  0  0  0
    5.7199   15.1768   44.4368 C   0  0  0  0  0  0  0  0  0  0  0  0
    6.2483   14.2183   43.5287 N   0  0  0  0  0  0  0  0  0  0  0  0
    5.5393   13.2715   43.1871 O   0  0  0  0  0  0  0  0  0  0  0  0
    7.5147   14.3770   43.0682 O   0  0  0  0  0  0  0  0  0  0  0  0
    4.6496   20.4874   49.9233 C   0  0  0  0  0  0  0  0  0  0  0  0
    5.0225   20.0196   51.1807 C   0  0  0  0  0  0  0  0  0  0  0  0
    4.9073   21.7995   49.5636 C   0  0  0  0  0  0  0  0  0  0  0  0
    5.6518   20.8728   52.0686 C   0  0  0  0  0  0  0  0  0  0  0  0
    5.5373   22.6464   50.4576 C   0  0  0  0  0  0  0  0  0  0  0  0
    5.9166   22.1886   51.7234 C   0  0  0  0  0  0  0  0  0  0  0  0
    6.5662   23.0485   52.6554 N   0  0  0  0  0  0  0  0  0  0  0  0
    5.9250   24.0011   53.1433 O   0  0  0  0  0  0  0  0  0  0  0  0
    7.8950   22.8162   53.0055 O   0  0  0  0  0  0  0  0  0  0  0  0
  7  1  1  0  0  0
  7  8  2  0  0  0
  7  9  1  0  0  0
  1  2  1  0  0  0
  8 10  1  0  0  0
  9 11  2  0  0  0
  2  4  2  0  0  0
  2  3  1  0  0  0
 10 12  2  0  0  0
 11 12  1  0  0  0
  3 16  1  0  0  0
 12 13  1  0  0  0
 16 17  2  0  0  0
 16 18  1  0  0  0
 13 14  2  0  0  0
 13 15  1  0  0  0
 17 19  1  0  0  0
 18 20  2  0  0  0
 19 21  2  0  0  0
 20 21  1  0  0  0
 21 22  1  0  0  0
 22 23  2  0  0  0
 22 24  1  0  0  0
  1  5  1  0  0  0
  3  6  1  0  0  0
M  CHG 1  13   1
M  CHG 1  15  -1
M  CHG 1  22   1
M  CHG 1  24  -1
M  END
> <minimizedAffinity>
-7.86651

$$$$
S4866 Nicarbazin.cdx


 24 25  0  0  0  0  0  0  0  0999 V2000
    4.0679   17.9238   47.2313 N   0  0  0  0  0  0  0  0  0  0  0  0
    4.7350   18.7857   48.1071 C   0  0  0  0  0  0  0  0  0  0  0  0
    3.9906   19.5899   49.0393 N   0  0  0  0  0  0  0  0  0  0  0  0
    5.9606   18.8971   48.1246 O   0  0  0  0  0  0  0  0  0  0  0  0
    3.0025   17.9167   47.3131 H   0  0  0  0  0  0  0  0  0  0  0  0
    2.9467   19.5548   49.0890 H   0  0  0  0  0  0  0  0  0  0  0  0
    4.6622   17.0775   46.2664 C   0  0  0  0  0  0  0  0  0  0  0  0
    5.6675   17.4026   45.4179 C   0  0  0  0  0  0  0  0  0  0  0  0
    4.1669   15.7707   46.1727 C   0  0  0  0  0  0  0  0  0  0  0  0
    6.1826   16.4960   44.5041 C   0  0  0  0  0  0  0  0  0  0  0  0
    4.6736   14.8704   45.2702 C   0  0  0  0  0  0  0  0  0  0  0  0
    5.6976   15.2082   44.4088 C   0  0  0  0  0  0  0  0  0  0  0  0
    6.2238   14.2758   43.4726 N   0  0  0  0  0  0  0  0  0  0  0  0
    5.4841   13.3952   43.0332 O   0  0  0  0  0  0  0  0  0  0  0  0
    7.5221   14.3858   43.0939 O   0  0  0  0  0  0  0  0  0  0  0  0
    4.6414   20.4762   49.9427 C   0  0  0  0  0  0  0  0  0  0  0  0
    4.9337   21.7880   49.5787 C   0  0  0  0  0  0  0  0  0  0  0  0
    4.9828   20.0100   51.2011 C   0  0  0  0  0  0  0  0  0  0  0  0
    5.5671   22.6230   50.4809 C   0  0  0  0  0  0  0  0  0  0  0  0
    5.6161   20.8517   52.0977 C   0  0  0  0  0  0  0  0  0  0  0  0
    5.9151   22.1712   51.7440 C   0  0  0  0  0  0  0  0  0  0  0  0
    6.5671   23.0504   52.6561 N   0  0  0  0  0  0  0  0  0  0  0  0
    5.9150   23.9879   53.1586 O   0  0  0  0  0  0  0  0  0  0  0  0
    7.9103   22.8531   52.9711 O   0  0  0  0  0  0  0  0  0  0  0  0
  7  1  1  0  0  0
  7  8  2  0  0  0
  7  9  1  0  0  0
  1  2  1  0  0  0
  8 10  1  0  0  0
  9 11  2  0  0  0
  2  4  2  0  0  0
  2  3  1  0  0  0
 10 12  2  0  0  0
 11 12  1  0  0  0
  3 16  1  0  0  0
 12 13  1  0  0  0
 16 17  2  0  0  0
 16 18  1  0  0  0
 13 14  2  0  0  0
 13 15  1  0  0  0
 17 19  1  0  0  0
 18 20  2  0  0  0
 19 21  2  0  0  0
 20 21  1  0  0  0
 21 22  1  0  0  0
 22 23  2  0  0  0
 22 24  1  0  0  0
  1  5  1  0  0  0
  3  6  1  0  0  0
M  CHG 1  13   1
M  CHG 1  15  -1
M  CHG 1  22   1
M  CHG 1  24  -1
M  END
> <minimizedAffinity>
-7.84720

$$$$
S4866 Nicarbazin.cdx


 24 25  0  0  0  0  0  0  0  0999 V2000
    4.1403   19.5389   49.0427 N   0  0  0  0  0  0  0  0  0  0  0  0
    4.7494   18.6607   48.1413 C   0  0  0  0  0  0  0  0  0  0  0  0
    3.9515   17.9160   47.2039 N   0  0  0  0  0  0  0  0  0  0  0  0
    5.9670   18.4848   48.1049 O   0  0  0  0  0  0  0  0  0  0  0  0
    3.0758   19.6041   48.9756 H   0  0  0  0  0  0  0  0  0  0  0  0
    2.9105   18.0074   47.1691 H   0  0  0  0  0  0  0  0  0  0  0  0
    4.7910   20.3329   50.0156 C   0  0  0  0  0  0  0  0  0  0  0  0
    5.1991   19.9307   51.2436 C   0  0  0  0  0  0  0  0  0  0  0  0
    5.0418   21.6703   49.6835 C   0  0  0  0  0  0  0  0  0  0  0  0
    5.8313   20.7910   52.1283 C   0  0  0  0  0  0  0  0  0  0  0  0
    5.6670   22.5249   50.5557 C   0  0  0  0  0  0  0  0  0  0  0  0
    6.0801   22.1086   51.8050 C   0  0  0  0  0  0  0  0  0  0  0  0
    6.7284   22.9935   52.7102 N   0  0  0  0  0  0  0  0  0  0  0  0
    6.1072   23.9688   53.1332 O   0  0  0  0  0  0  0  0  0  0  0  0
    8.0085   22.7357   53.0786 O   0  0  0  0  0  0  0  0  0  0  0  0
    4.5427   17.0148   46.2745 C   0  0  0  0  0  0  0  0  0  0  0  0
    5.5682   17.4256   45.4268 C   0  0  0  0  0  0  0  0  0  0  0  0
    4.0786   15.7112   46.2255 C   0  0  0  0  0  0  0  0  0  0  0  0
    6.1207   16.5242   44.5354 C   0  0  0  0  0  0  0  0  0  0  0  0
    4.6367   14.8158   45.3310 C   0  0  0  0  0  0  0  0  0  0  0  0
    5.6670   15.2161   44.4744 C   0  0  0  0  0  0  0  0  0  0  0  0
    6.2521   14.3059   43.5475 N   0  0  0  0  0  0  0  0  0  0  0  0
    5.5703   13.3459   43.1347 O   0  0  0  0  0  0  0  0  0  0  0  0
    7.5643   14.4982   43.1192 O   0  0  0  0  0  0  0  0  0  0  0  0
  7  1  1  0  0  0
  7  8  2  0  0  0
  7  9  1  0  0  0
  1  2  1  0  0  0
  8 10  1  0  0  0
  9 11  2  0  0  0
  2  4  2  0  0  0
  2  3  1  0  0  0
 10 12  2  0  0  0
 11 12  1  0  0  0
  3 16  1  0  0  0
 12 13  1  0  0  0
 16 17  2  0  0  0
 16 18  1  0  0  0
 13 14  2  0  0  0
 13 15  1  0  0  0
 17 19  1  0  0  0
 18 20  2  0  0  0
 19 21  2  0  0  0
 20 21  1  0  0  0
 21 22  1  0  0  0
 22 23  2  0  0  0
 22 24  1  0  0  0
  1  5  1  0  0  0
  3  6  1  0  0  0
M  CHG 1  13   1
M  CHG 1  15  -1
M  CHG 1  22   1
M  CHG 1  24  -1
M  END
> <minimizedAffinity>
-7.73723

$$$$
S4866 Nicarbazin.cdx


 24 25  0  0  0  0  0  0  0  0999 V2000
    5.1724   20.8044   50.6266 N   0  0  0  0  0  0  0  0  0  0  0  0
    5.0168   20.1063   49.4253 C   0  0  0  0  0  0  0  0  0  0  0  0
    5.3933   18.7203   49.3386 N   0  0  0  0  0  0  0  0  0  0  0  0
    4.5619   20.6282   48.4076 O   0  0  0  0  0  0  0  0  0  0  0  0
    5.5782   20.2407   51.4387 H   0  0  0  0  0  0  0  0  0  0  0  0
    5.7876   18.2026   50.1571 H   0  0  0  0  0  0  0  0  0  0  0  0
    4.8484   22.1611   50.8607 C   0  0  0  0  0  0  0  0  0  0  0  0
    5.2009   22.8999   51.9405 C   0  0  0  0  0  0  0  0  0  0  0  0
    4.0866   22.8128   49.8825 C   0  0  0  0  0  0  0  0  0  0  0  0
    4.8312   24.2293   52.0762 C   0  0  0  0  0  0  0  0  0  0  0  0
    3.7187   24.1280   50.0127 C   0  0  0  0  0  0  0  0  0  0  0  0
    4.0812   24.8747   51.1152 C   0  0  0  0  0  0  0  0  0  0  0  0
    3.7004   26.2382   51.2514 N   0  0  0  0  0  0  0  0  0  0  0  0
    3.6154   26.9339   50.2392 O   0  0  0  0  0  0  0  0  0  0  0  0
    3.4433   26.7285   52.4901 O   0  0  0  0  0  0  0  0  0  0  0  0
    5.2468   17.9837   48.1299 C   0  0  0  0  0  0  0  0  0  0  0  0
    4.1577   17.1395   47.9293 C   0  0  0  0  0  0  0  0  0  0  0  0
    6.2125   18.1202   47.1471 C   0  0  0  0  0  0  0  0  0  0  0  0
    4.0459   16.4379   46.7428 C   0  0  0  0  0  0  0  0  0  0  0  0
    6.0932   17.4151   45.9631 C   0  0  0  0  0  0  0  0  0  0  0  0
    5.0042   16.5640   45.7496 C   0  0  0  0  0  0  0  0  0  0  0  0
    4.8670   15.8308   44.5357 N   0  0  0  0  0  0  0  0  0  0  0  0
    5.1216   14.6095   44.5382 O   0  0  0  0  0  0  0  0  0  0  0  0
    4.4548   16.4814   43.3741 O   0  0  0  0  0  0  0  0  0  0  0  0
  7  1  1  0  0  0
  7  8  2  0  0  0
  7  9  1  0  0  0
  1  2  1  0  0  0
  8 10  1  0  0  0
  9 11  2  0  0  0
  2  4  2  0  0  0
  2  3  1  0  0  0
 10 12  2  0  0  0
 11 12  1  0  0  0
  3 16  1  0  0  0
 12 13  1  0  0  0
 16 17  2  0  0  0
 16 18  1  0  0  0
 13 14  2  0  0  0
 13 15  1  0  0  0
 17 19  1  0  0  0
 18 20  2  0  0  0
 19 21  2  0  0  0
 20 21  1  0  0  0
 21 22  1  0  0  0
 22 23  2  0  0  0
 22 24  1  0  0  0
  1  5  1  0  0  0
  3  6  1  0  0  0
M  CHG 1  13   1
M  CHG 1  15  -1
M  CHG 1  22   1
M  CHG 1  24  -1
M  END
> <minimizedAffinity>
-7.60168

$$$$
S4866 Nicarbazin.cdx


 24 25  0  0  0  0  0  0  0  0999 V2000
    4.9003   18.7465   48.9618 N   0  0  0  0  0  0  0  0  0  0  0  0
    4.8360   20.1271   49.1727 C   0  0  0  0  0  0  0  0  0  0  0  0
    4.6667   20.6499   50.5024 N   0  0  0  0  0  0  0  0  0  0  0  0
    4.9190   20.9439   48.2557 O   0  0  0  0  0  0  0  0  0  0  0  0
    4.8159   18.1413   49.8385 H   0  0  0  0  0  0  0  0  0  0  0  0
    4.5879   20.0240   51.3364 H   0  0  0  0  0  0  0  0  0  0  0  0
    5.0634   18.0906   47.7194 C   0  0  0  0  0  0  0  0  0  0  0  0
    5.9628   18.4018   46.7548 C   0  0  0  0  0  0  0  0  0  0  0  0
    4.2132   17.0100   47.4522 C   0  0  0  0  0  0  0  0  0  0  0  0
    6.0427   17.6934   45.5657 C   0  0  0  0  0  0  0  0  0  0  0  0
    4.2888   16.3063   46.2771 C   0  0  0  0  0  0  0  0  0  0  0  0
    5.2074   16.6287   45.2989 C   0  0  0  0  0  0  0  0  0  0  0  0
    5.2869   15.9000   44.0801 N   0  0  0  0  0  0  0  0  0  0  0  0
    4.4721   16.1432   43.1897 O   0  0  0  0  0  0  0  0  0  0  0  0
    6.2562   14.9614   43.9372 O   0  0  0  0  0  0  0  0  0  0  0  0
    4.5978   22.0499   50.7484 C   0  0  0  0  0  0  0  0  0  0  0  0
    3.8370   22.8865   49.9359 C   0  0  0  0  0  0  0  0  0  0  0  0
    5.3053   22.5725   51.8178 C   0  0  0  0  0  0  0  0  0  0  0  0
    3.7918   24.2426   50.2029 C   0  0  0  0  0  0  0  0  0  0  0  0
    5.2548   23.9300   52.0780 C   0  0  0  0  0  0  0  0  0  0  0  0
    4.4944   24.7807   51.2695 C   0  0  0  0  0  0  0  0  0  0  0  0
    4.4322   26.1812   51.5244 N   0  0  0  0  0  0  0  0  0  0  0  0
    5.2557   26.9321   50.9635 O   0  0  0  0  0  0  0  0  0  0  0  0
    3.4626   26.6876   52.3879 O   0  0  0  0  0  0  0  0  0  0  0  0
  7  1  1  0  0  0
  7  8  2  0  0  0
  7  9  1  0  0  0
  1  2  1  0  0  0
  8 10  1  0  0  0
  9 11  2  0  0  0
  2  4  2  0  0  0
  2  3  1  0  0  0
 10 12  2  0  0  0
 11 12  1  0  0  0
  3 16  1  0  0  0
 12 13  1  0  0  0
 16 17  2  0  0  0
 16 18  1  0  0  0
 13 14  2  0  0  0
 13 15  1  0  0  0
 17 19  1  0  0  0
 18 20  2  0  0  0
 19 21  2  0  0  0
 20 21  1  0  0  0
 21 22  1  0  0  0
 22 23  2  0  0  0
 22 24  1  0  0  0
  1  5  1  0  0  0
  3  6  1  0  0  0
M  CHG 1  13   1
M  CHG 1  15  -1
M  CHG 1  22   1
M  CHG 1  24  -1
M  END
> <minimizedAffinity>
-7.58446

$$$$
