S5467 Asarinin.cdx


 26 31  0  0  0  0  0  0  0  0999 V2000
    5.0560   20.8237   50.2879 C   0  0  0  0  0  0  0  0  0  0  0  0
    4.4590   19.8011   51.0167 O   0  0  0  0  0  0  0  0  0  0  0  0
    5.0550   18.6884   50.3785 C   0  0  0  0  0  0  0  0  0  0  0  0
    5.0661   19.0200   48.8964 C   0  0  0  0  0  0  0  0  0  0  0  0
    4.5782   20.4790   48.9127 C   0  0  0  0  0  0  0  0  0  0  0  0
    3.0946   20.2381   48.8219 C   0  0  0  0  0  0  0  0  0  0  0  0
    2.9061   19.1193   48.0181 O   0  0  0  0  0  0  0  0  0  0  0  0
    3.9773   18.2732   48.2244 C   0  0  0  0  0  0  0  0  0  0  0  0
    3.7821   26.6889   50.6677 C   0  0  0  0  0  0  0  0  0  0  0  0
    4.0458   26.1086   51.9438 O   0  0  0  0  0  0  0  0  0  0  0  0
    4.3874   24.7749   51.7553 C   0  0  0  0  0  0  0  0  0  0  0  0
    4.9800   23.8204   52.5427 C   0  0  0  0  0  0  0  0  0  0  0  0
    5.1937   22.5459   52.0640 C   0  0  0  0  0  0  0  0  0  0  0  0
    4.8224   22.1670   50.7704 C   0  0  0  0  0  0  0  0  0  0  0  0
    4.2281   23.1529   50.0043 C   0  0  0  0  0  0  0  0  0  0  0  0
    4.0127   24.4391   50.4879 C   0  0  0  0  0  0  0  0  0  0  0  0
    3.4405   25.5586   49.8899 O   0  0  0  0  0  0  0  0  0  0  0  0
    4.4228   17.5792   46.9857 C   0  0  0  0  0  0  0  0  0  0  0  0
    5.0388   18.3202   45.9700 C   0  0  0  0  0  0  0  0  0  0  0  0
    5.4572   17.6800   44.8115 C   0  0  0  0  0  0  0  0  0  0  0  0
    5.2672   16.3044   44.6545 C   0  0  0  0  0  0  0  0  0  0  0  0
    5.5788   15.4279   43.6277 O   0  0  0  0  0  0  0  0  0  0  0  0
    5.4625   14.0908   44.1151 C   0  0  0  0  0  0  0  0  0  0  0  0
    4.6077   14.2753   45.2350 O   0  0  0  0  0  0  0  0  0  0  0  0
    4.6602   15.5907   45.6621 C   0  0  0  0  0  0  0  0  0  0  0  0
    4.2415   16.2075   46.8116 C   0  0  0  0  0  0  0  0  0  0  0  0
  9 10  1  0  0  0
  9 17  1  0  0  0
 10 11  1  0  0  0
 11 12  2  0  0  0
 11 16  1  0  0  0
 12 13  1  0  0  0
 13 14  2  0  0  0
 14 15  1  0  0  0
 15 16  2  0  0  0
 16 17  1  0  0  0
  1  2  1  0  0  0
  1  5  1  0  0  0
  1 14  1  0  0  0
  2  3  1  0  0  0
  4  3  1  0  0  0
  4  5  1  0  0  0
  4  8  1  0  0  0
  5  6  1  0  0  0
  6  7  1  0  0  0
  7  8  1  0  0  0
  8 18  1  0  0  0
 18 19  2  0  0  0
 18 26  1  0  0  0
 19 20  1  0  0  0
 20 21  2  0  0  0
 21 22  1  0  0  0
 21 25  1  0  0  0
 22 23  1  0  0  0
 23 24  1  0  0  0
 24 25  1  0  0  0
 25 26  2  0  0  0
M  END
> <minimizedAffinity>
-10.02350

$$$$
S5467 Asarinin.cdx


 26 31  0  0  0  0  0  0  0  0999 V2000
    5.2309   18.2993   49.1495 C   0  0  0  0  0  0  0  0  0  0  0  0
    3.9346   18.5416   48.7090 O   0  0  0  0  0  0  0  0  0  0  0  0
    3.6937   17.3252   48.0288 C   0  0  0  0  0  0  0  0  0  0  0  0
    4.9827   17.0013   47.2939 C   0  0  0  0  0  0  0  0  0  0  0  0
    5.9195   18.0940   47.8373 C   0  0  0  0  0  0  0  0  0  0  0  0
    5.6432   19.1738   46.8248 C   0  0  0  0  0  0  0  0  0  0  0  0
    5.4240   18.5480   45.6027 O   0  0  0  0  0  0  0  0  0  0  0  0
    4.8195   17.3337   45.8594 C   0  0  0  0  0  0  0  0  0  0  0  0
    8.1019   23.0281   51.5080 C   0  0  0  0  0  0  0  0  0  0  0  0
    7.4366   22.2488   52.5004 O   0  0  0  0  0  0  0  0  0  0  0  0
    6.8549   21.1516   51.8770 C   0  0  0  0  0  0  0  0  0  0  0  0
    6.3376   19.9622   52.3243 C   0  0  0  0  0  0  0  0  0  0  0  0
    5.8144   19.0445   51.4394 C   0  0  0  0  0  0  0  0  0  0  0  0
    5.7848   19.2761   50.0609 C   0  0  0  0  0  0  0  0  0  0  0  0
    6.3140   20.4839   49.6446 C   0  0  0  0  0  0  0  0  0  0  0  0
    6.8419   21.4099   50.5382 C   0  0  0  0  0  0  0  0  0  0  0  0
    7.4130   22.6622   50.3287 O   0  0  0  0  0  0  0  0  0  0  0  0
    5.2787   16.2472   44.9519 C   0  0  0  0  0  0  0  0  0  0  0  0
    6.1470   15.2655   45.4445 C   0  0  0  0  0  0  0  0  0  0  0  0
    6.5797   14.2487   44.6042 C   0  0  0  0  0  0  0  0  0  0  0  0
    6.1546   14.2005   43.2739 C   0  0  0  0  0  0  0  0  0  0  0  0
    6.4223   13.3207   42.2374 O   0  0  0  0  0  0  0  0  0  0  0  0
    5.4804   13.5480   41.1884 C   0  0  0  0  0  0  0  0  0  0  0  0
    5.0558   14.8730   41.4769 O   0  0  0  0  0  0  0  0  0  0  0  0
    5.3014   15.1728   42.8055 C   0  0  0  0  0  0  0  0  0  0  0  0
    4.8651   16.1829   43.6218 C   0  0  0  0  0  0  0  0  0  0  0  0
  9 10  1  0  0  0
  9 17  1  0  0  0
 10 11  1  0  0  0
 11 12  2  0  0  0
 11 16  1  0  0  0
 12 13  1  0  0  0
 13 14  2  0  0  0
 14 15  1  0  0  0
 15 16  2  0  0  0
 16 17  1  0  0  0
  1  2  1  0  0  0
  1  5  1  0  0  0
  1 14  1  0  0  0
  2  3  1  0  0  0
  4  3  1  0  0  0
  4  5  1  0  0  0
  4  8  1  0  0  0
  5  6  1  0  0  0
  6  7  1  0  0  0
  7  8  1  0  0  0
  8 18  1  0  0  0
 18 19  2  0  0  0
 18 26  1  0  0  0
 19 20  1  0  0  0
 20 21  2  0  0  0
 21 22  1  0  0  0
 21 25  1  0  0  0
 22 23  1  0  0  0
 23 24  1  0  0  0
 24 25  1  0  0  0
 25 26  2  0  0  0
M  END
> <minimizedAffinity>
-9.97721

$$$$
S5467 Asarinin.cdx


 26 31  0  0  0  0  0  0  0  0999 V2000
    5.8327   16.4861   44.8179 C   0  0  0  0  0  0  0  0  0  0  0  0
    4.8666   17.4249   44.4737 O   0  0  0  0  0  0  0  0  0  0  0  0
    5.2697   18.4866   45.3168 C   0  0  0  0  0  0  0  0  0  0  0  0
    5.6484   17.8423   46.6390 C   0  0  0  0  0  0  0  0  0  0  0  0
    5.5551   16.3488   46.2816 C   0  0  0  0  0  0  0  0  0  0  0  0
    4.1048   16.1124   46.6106 C   0  0  0  0  0  0  0  0  0  0  0  0
    3.7945   16.9095   47.7068 O   0  0  0  0  0  0  0  0  0  0  0  0
    4.5545   18.0584   47.6144 C   0  0  0  0  0  0  0  0  0  0  0  0
    5.0819   12.4455   40.4273 C   0  0  0  0  0  0  0  0  0  0  0  0
    5.8638   11.9344   41.5053 O   0  0  0  0  0  0  0  0  0  0  0  0
    5.9345   12.9081   42.4941 C   0  0  0  0  0  0  0  0  0  0  0  0
    6.3008   12.9017   43.8162 C   0  0  0  0  0  0  0  0  0  0  0  0
    6.2662   14.0599   44.5622 C   0  0  0  0  0  0  0  0  0  0  0  0
    5.8618   15.2821   44.0170 C   0  0  0  0  0  0  0  0  0  0  0  0
    5.4995   15.2527   42.6828 C   0  0  0  0  0  0  0  0  0  0  0  0
    5.5347   14.0835   41.9303 C   0  0  0  0  0  0  0  0  0  0  0  0
    5.2164   13.8428   40.5965 O   0  0  0  0  0  0  0  0  0  0  0  0
    5.0367   18.5495   48.9339 C   0  0  0  0  0  0  0  0  0  0  0  0
    6.3547   19.0061   49.0540 C   0  0  0  0  0  0  0  0  0  0  0  0
    6.8119   19.4659   50.2815 C   0  0  0  0  0  0  0  0  0  0  0  0
    5.9661   19.4751   51.3939 C   0  0  0  0  0  0  0  0  0  0  0  0
    6.1537   19.8698   52.7087 O   0  0  0  0  0  0  0  0  0  0  0  0
    4.8784   19.9732   53.3428 C   0  0  0  0  0  0  0  0  0  0  0  0
    4.0820   19.1480   52.5038 O   0  0  0  0  0  0  0  0  0  0  0  0
    4.6737   19.0230   51.2590 C   0  0  0  0  0  0  0  0  0  0  0  0
    4.2071   18.5662   50.0546 C   0  0  0  0  0  0  0  0  0  0  0  0
  9 10  1  0  0  0
  9 17  1  0  0  0
 10 11  1  0  0  0
 11 12  2  0  0  0
 11 16  1  0  0  0
 12 13  1  0  0  0
 13 14  2  0  0  0
 14 15  1  0  0  0
 15 16  2  0  0  0
 16 17  1  0  0  0
  1  2  1  0  0  0
  1  5  1  0  0  0
  1 14  1  0  0  0
  2  3  1  0  0  0
  4  3  1  0  0  0
  4  5  1  0  0  0
  4  8  1  0  0  0
  5  6  1  0  0  0
  6  7  1  0  0  0
  7  8  1  0  0  0
  8 18  1  0  0  0
 18 19  2  0  0  0
 18 26  1  0  0  0
 19 20  1  0  0  0
 20 21  2  0  0  0
 21 22  1  0  0  0
 21 25  1  0  0  0
 22 23  1  0  0  0
 23 24  1  0  0  0
 24 25  1  0  0  0
 25 26  2  0  0  0
M  END
> <minimizedAffinity>
-9.94457

$$$$
S5467 Asarinin.cdx


 26 31  0  0  0  0  0  0  0  0999 V2000
    6.0464   20.5880   48.9479 C   0  0  0  0  0  0  0  0  0  0  0  0
    4.6833   20.4488   49.1845 O   0  0  0  0  0  0  0  0  0  0  0  0
    4.5673   19.0475   49.0312 C   0  0  0  0  0  0  0  0  0  0  0  0
    5.4440   18.6884   47.8442 C   0  0  0  0  0  0  0  0  0  0  0  0
    6.1292   20.0362   47.5598 C   0  0  0  0  0  0  0  0  0  0  0  0
    5.1218   20.6223   46.6063 C   0  0  0  0  0  0  0  0  0  0  0  0
    4.6062   19.5731   45.8536 O   0  0  0  0  0  0  0  0  0  0  0  0
    4.5846   18.4531   46.6605 C   0  0  0  0  0  0  0  0  0  0  0  0
    6.7577   26.3981   50.3279 C   0  0  0  0  0  0  0  0  0  0  0  0
    7.9932   25.7640   50.0023 O   0  0  0  0  0  0  0  0  0  0  0  0
    7.7276   24.4489   49.6406 C   0  0  0  0  0  0  0  0  0  0  0  0
    8.4447   23.4717   48.9978 C   0  0  0  0  0  0  0  0  0  0  0  0
    7.8971   22.2266   48.7766 C   0  0  0  0  0  0  0  0  0  0  0  0
    6.6019   21.9012   49.1902 C   0  0  0  0  0  0  0  0  0  0  0  0
    5.9076   22.9087   49.8346 C   0  0  0  0  0  0  0  0  0  0  0  0
    6.4607   24.1652   50.0577 C   0  0  0  0  0  0  0  0  0  0  0  0
    5.9398   25.2986   50.6761 O   0  0  0  0  0  0  0  0  0  0  0  0
    4.9230   17.2000   45.9326 C   0  0  0  0  0  0  0  0  0  0  0  0
    4.1813   16.0399   46.1862 C   0  0  0  0  0  0  0  0  0  0  0  0
    4.4909   14.8670   45.5112 C   0  0  0  0  0  0  0  0  0  0  0  0
    5.5354   14.8386   44.5832 C   0  0  0  0  0  0  0  0  0  0  0  0
    6.0501   13.8303   43.7843 O   0  0  0  0  0  0  0  0  0  0  0  0
    6.8941   14.4167   42.7928 C   0  0  0  0  0  0  0  0  0  0  0  0
    7.2082   15.6643   43.3962 O   0  0  0  0  0  0  0  0  0  0  0  0
    6.2544   15.9873   44.3456 C   0  0  0  0  0  0  0  0  0  0  0  0
    5.9616   17.1529   45.0033 C   0  0  0  0  0  0  0  0  0  0  0  0
  9 10  1  0  0  0
  9 17  1  0  0  0
 10 11  1  0  0  0
 11 12  2  0  0  0
 11 16  1  0  0  0
 12 13  1  0  0  0
 13 14  2  0  0  0
 14 15  1  0  0  0
 15 16  2  0  0  0
 16 17  1  0  0  0
  1  2  1  0  0  0
  1  5  1  0  0  0
  1 14  1  0  0  0
  2  3  1  0  0  0
  4  3  1  0  0  0
  4  5  1  0  0  0
  4  8  1  0  0  0
  5  6  1  0  0  0
  6  7  1  0  0  0
  7  8  1  0  0  0
  8 18  1  0  0  0
 18 19  2  0  0  0
 18 26  1  0  0  0
 19 20  1  0  0  0
 20 21  2  0  0  0
 21 22  1  0  0  0
 21 25  1  0  0  0
 22 23  1  0  0  0
 23 24  1  0  0  0
 24 25  1  0  0  0
 25 26  2  0  0  0
M  END
> <minimizedAffinity>
-9.92714

$$$$
S5467 Asarinin.cdx


 26 31  0  0  0  0  0  0  0  0999 V2000
    5.2625   18.3131   48.4834 C   0  0  0  0  0  0  0  0  0  0  0  0
    6.5130   18.3115   49.0912 O   0  0  0  0  0  0  0  0  0  0  0  0
    6.2196   19.1137   50.2186 C   0  0  0  0  0  0  0  0  0  0  0  0
    5.3289   20.2329   49.7080 C   0  0  0  0  0  0  0  0  0  0  0  0
    5.0824   19.7811   48.2581 C   0  0  0  0  0  0  0  0  0  0  0  0
    6.2581   20.4480   47.5945 C   0  0  0  0  0  0  0  0  0  0  0  0
    6.4757   21.6529   48.2534 O   0  0  0  0  0  0  0  0  0  0  0  0
    6.1325   21.4708   49.5781 C   0  0  0  0  0  0  0  0  0  0  0  0
    5.8928   15.5479   43.1802 C   0  0  0  0  0  0  0  0  0  0  0  0
    4.8755   14.9523   43.9836 O   0  0  0  0  0  0  0  0  0  0  0  0
    4.7587   15.6877   45.1569 C   0  0  0  0  0  0  0  0  0  0  0  0
    3.8130   15.7605   46.1481 C   0  0  0  0  0  0  0  0  0  0  0  0
    3.9805   16.6100   47.2203 C   0  0  0  0  0  0  0  0  0  0  0  0
    5.1065   17.4286   47.3498 C   0  0  0  0  0  0  0  0  0  0  0  0
    6.0392   17.3301   46.3336 C   0  0  0  0  0  0  0  0  0  0  0  0
    5.8697   16.4726   45.2518 C   0  0  0  0  0  0  0  0  0  0  0  0
    6.6747   16.2272   44.1427 O   0  0  0  0  0  0  0  0  0  0  0  0
    5.4737   22.6610   50.1816 C   0  0  0  0  0  0  0  0  0  0  0  0
    5.3694   22.7525   51.5748 C   0  0  0  0  0  0  0  0  0  0  0  0
    4.7562   23.8597   52.1451 C   0  0  0  0  0  0  0  0  0  0  0  0
    4.2443   24.8797   51.3385 C   0  0  0  0  0  0  0  0  0  0  0  0
    3.5980   26.0695   51.6322 O   0  0  0  0  0  0  0  0  0  0  0  0
    3.5820   26.8842   50.4595 C   0  0  0  0  0  0  0  0  0  0  0  0
    3.7697   25.9110   49.4412 O   0  0  0  0  0  0  0  0  0  0  0  0
    4.3549   24.7744   49.9712 C   0  0  0  0  0  0  0  0  0  0  0  0
    4.9572   23.6883   49.3926 C   0  0  0  0  0  0  0  0  0  0  0  0
  9 10  1  0  0  0
  9 17  1  0  0  0
 10 11  1  0  0  0
 11 12  2  0  0  0
 11 16  1  0  0  0
 12 13  1  0  0  0
 13 14  2  0  0  0
 14 15  1  0  0  0
 15 16  2  0  0  0
 16 17  1  0  0  0
  1  2  1  0  0  0
  1  5  1  0  0  0
  1 14  1  0  0  0
  2  3  1  0  0  0
  4  3  1  0  0  0
  4  5  1  0  0  0
  4  8  1  0  0  0
  5  6  1  0  0  0
  6  7  1  0  0  0
  7  8  1  0  0  0
  8 18  1  0  0  0
 18 19  2  0  0  0
 18 26  1  0  0  0
 19 20  1  0  0  0
 20 21  2  0  0  0
 21 22  1  0  0  0
 21 25  1  0  0  0
 22 23  1  0  0  0
 23 24  1  0  0  0
 24 25  1  0  0  0
 25 26  2  0  0  0
M  END
> <minimizedAffinity>
-9.86296

$$$$
