S5661 Tiaprofenic acid.cdx


 19 20  0  0  0  0  0  0  0  0999 V2000
    5.5748   21.7480   51.0971 C   0  0  0  0  0  0  0  0  0  0  0  0
    4.8686   22.7615   49.8690 S   0  0  0  0  0  0  0  0  0  0  0  0
    5.4352   22.4651   52.2417 C   0  0  0  0  0  0  0  0  0  0  0  0
    4.4232   24.0901   50.9382 C   0  0  0  0  0  0  0  0  0  0  0  0
    4.8466   23.6654   52.1672 C   0  0  0  0  0  0  0  0  0  0  0  0
    6.1277   20.4442   50.7968 C   0  0  0  0  0  0  0  0  0  0  0  0
    7.2342   20.1467   51.3703 O   0  0  0  0  0  0  0  0  0  0  0  0
    5.5769   19.4487   49.9295 C   0  0  0  0  0  0  0  0  0  0  0  0
    4.2736   19.0150   50.1968 C   0  0  0  0  0  0  0  0  0  0  0  0
    6.1851   18.8798   48.8403 C   0  0  0  0  0  0  0  0  0  0  0  0
    3.6436   18.0718   49.4095 C   0  0  0  0  0  0  0  0  0  0  0  0
    5.5553   17.9357   48.0522 C   0  0  0  0  0  0  0  0  0  0  0  0
    4.2824   17.5240   48.3286 C   0  0  0  0  0  0  0  0  0  0  0  0
    3.7453   25.3666   50.5702 C   0  0  0  0  0  0  0  0  0  0  0  0
    4.1899   25.7452   49.1931 C   0  0  0  0  0  0  0  0  0  0  0  0
    4.1361   26.3700   51.5929 C   0  0  0  0  0  0  0  0  0  0  0  0
    5.4033   26.9302   51.4979 O   0  0  0  0  0  0  0  0  0  0  0  0
    3.3651   26.7161   52.5210 O   0  0  0  0  0  0  0  0  0  0  0  0
    5.7263   27.6717   52.0943 H   0  0  0  0  0  0  0  0  0  0  0  0
  1  2  1  0  0  0
  1  6  1  0  0  0
  1  3  2  0  0  0
  2  4  1  0  0  0
  6  8  1  0  0  0
  6  7  2  0  0  0
  3  5  1  0  0  0
  4 14  1  0  0  0
  4  5  2  0  0  0
  8  9  2  0  0  0
  8 10  1  0  0  0
 14 16  1  0  0  0
 14 15  1  0  0  0
  9 11  1  0  0  0
 10 12  2  0  0  0
 16 17  1  0  0  0
 16 18  2  0  0  0
 11 13  2  0  0  0
 12 13  1  0  0  0
 17 19  1  0  0  0
M  END
> <minimizedAffinity>
-8.02448

$$$$
S5661 Tiaprofenic acid.cdx


 19 20  0  0  0  0  0  0  0  0999 V2000
    4.9589   20.1552   50.7102 C   0  0  0  0  0  0  0  0  0  0  0  0
    5.8343   20.6349   52.1378 S   0  0  0  0  0  0  0  0  0  0  0  0
    4.7348   21.3202   50.0497 C   0  0  0  0  0  0  0  0  0  0  0  0
    5.8585   22.3620   51.7863 C   0  0  0  0  0  0  0  0  0  0  0  0
    5.1926   22.4540   50.5954 C   0  0  0  0  0  0  0  0  0  0  0  0
    4.6389   18.7713   50.4307 C   0  0  0  0  0  0  0  0  0  0  0  0
    4.2713   18.0568   51.4287 O   0  0  0  0  0  0  0  0  0  0  0  0
    4.6877   18.1101   49.1630 C   0  0  0  0  0  0  0  0  0  0  0  0
    5.9262   18.0578   48.5138 C   0  0  0  0  0  0  0  0  0  0  0  0
    3.6463   17.4973   48.5148 C   0  0  0  0  0  0  0  0  0  0  0  0
    6.0845   17.4275   47.2958 C   0  0  0  0  0  0  0  0  0  0  0  0
    3.8040   16.8665   47.2957 C   0  0  0  0  0  0  0  0  0  0  0  0
    5.0210   16.8258   46.6765 C   0  0  0  0  0  0  0  0  0  0  0  0
    6.4666   23.4493   52.6063 C   0  0  0  0  0  0  0  0  0  0  0  0
    6.1840   24.7522   51.9280 C   0  0  0  0  0  0  0  0  0  0  0  0
    7.9195   23.1559   52.6977 C   0  0  0  0  0  0  0  0  0  0  0  0
    8.5050   23.1746   53.9568 O   0  0  0  0  0  0  0  0  0  0  0  0
    8.6158   22.8971   51.6858 O   0  0  0  0  0  0  0  0  0  0  0  0
    9.4601   22.9124   54.1267 H   0  0  0  0  0  0  0  0  0  0  0  0
  1  2  1  0  0  0
  1  6  1  0  0  0
  1  3  2  0  0  0
  2  4  1  0  0  0
  6  8  1  0  0  0
  6  7  2  0  0  0
  3  5  1  0  0  0
  4 14  1  0  0  0
  4  5  2  0  0  0
  8  9  2  0  0  0
  8 10  1  0  0  0
 14 16  1  0  0  0
 14 15  1  0  0  0
  9 11  1  0  0  0
 10 12  2  0  0  0
 16 17  1  0  0  0
 16 18  2  0  0  0
 11 13  2  0  0  0
 12 13  1  0  0  0
 17 19  1  0  0  0
M  END
> <minimizedAffinity>
-7.92385

$$$$
S5661 Tiaprofenic acid.cdx


 19 20  0  0  0  0  0  0  0  0999 V2000
    6.1350   21.7089   49.3585 C   0  0  0  0  0  0  0  0  0  0  0  0
    4.4835   22.1402   49.7063 S   0  0  0  0  0  0  0  0  0  0  0  0
    6.8090   22.8854   49.4314 C   0  0  0  0  0  0  0  0  0  0  0  0
    4.7705   23.8648   49.9306 C   0  0  0  0  0  0  0  0  0  0  0  0
    6.1162   23.9933   49.7237 C   0  0  0  0  0  0  0  0  0  0  0  0
    6.5355   20.3435   49.0915 C   0  0  0  0  0  0  0  0  0  0  0  0
    7.4494   19.8579   49.8469 O   0  0  0  0  0  0  0  0  0  0  0  0
    6.0250   19.4740   48.0767 C   0  0  0  0  0  0  0  0  0  0  0  0
    5.9865   18.1051   48.3646 C   0  0  0  0  0  0  0  0  0  0  0  0
    5.5451   19.8400   46.8456 C   0  0  0  0  0  0  0  0  0  0  0  0
    5.4953   17.1840   47.4610 C   0  0  0  0  0  0  0  0  0  0  0  0
    5.0537   18.9187   45.9408 C   0  0  0  0  0  0  0  0  0  0  0  0
    5.0242   17.5859   46.2391 C   0  0  0  0  0  0  0  0  0  0  0  0
    3.7693   24.9180   50.2666 C   0  0  0  0  0  0  0  0  0  0  0  0
    4.0325   26.1015   49.3904 C   0  0  0  0  0  0  0  0  0  0  0  0
    3.9390   25.2262   51.7094 C   0  0  0  0  0  0  0  0  0  0  0  0
    3.4341   26.4326   52.1766 O   0  0  0  0  0  0  0  0  0  0  0  0
    4.5154   24.4392   52.4994 O   0  0  0  0  0  0  0  0  0  0  0  0
    3.4311   26.6921   53.1474 H   0  0  0  0  0  0  0  0  0  0  0  0
  1  2  1  0  0  0
  1  6  1  0  0  0
  1  3  2  0  0  0
  2  4  1  0  0  0
  6  8  1  0  0  0
  6  7  2  0  0  0
  3  5  1  0  0  0
  4 14  1  0  0  0
  4  5  2  0  0  0
  8  9  2  0  0  0
  8 10  1  0  0  0
 14 16  1  0  0  0
 14 15  1  0  0  0
  9 11  1  0  0  0
 10 12  2  0  0  0
 16 17  1  0  0  0
 16 18  2  0  0  0
 11 13  2  0  0  0
 12 13  1  0  0  0
 17 19  1  0  0  0
M  END
> <minimizedAffinity>
-7.68472

$$$$
S5661 Tiaprofenic acid.cdx


 19 20  0  0  0  0  0  0  0  0999 V2000
    4.9525   16.8463   47.0536 C   0  0  0  0  0  0  0  0  0  0  0  0
    3.7443   17.5167   48.1144 S   0  0  0  0  0  0  0  0  0  0  0  0
    6.1106   17.4289   47.4575 C   0  0  0  0  0  0  0  0  0  0  0  0
    4.8390   18.5398   49.0427 C   0  0  0  0  0  0  0  0  0  0  0  0
    6.0595   18.2972   48.4754 C   0  0  0  0  0  0  0  0  0  0  0  0
    4.6270   15.8754   46.0303 C   0  0  0  0  0  0  0  0  0  0  0  0
    3.4162   15.4573   46.0036 O   0  0  0  0  0  0  0  0  0  0  0  0
    5.5072   15.3285   45.0440 C   0  0  0  0  0  0  0  0  0  0  0  0
    6.2271   16.2323   44.2548 C   0  0  0  0  0  0  0  0  0  0  0  0
    5.7409   14.0003   44.7967 C   0  0  0  0  0  0  0  0  0  0  0  0
    7.1163   15.8077   43.2877 C   0  0  0  0  0  0  0  0  0  0  0  0
    6.6304   13.5747   43.8289 C   0  0  0  0  0  0  0  0  0  0  0  0
    7.3244   14.4718   43.0674 C   0  0  0  0  0  0  0  0  0  0  0  0
    4.4958   19.4476   50.1752 C   0  0  0  0  0  0  0  0  0  0  0  0
    5.0385   20.8053   49.8594 C   0  0  0  0  0  0  0  0  0  0  0  0
    5.1034   18.8591   51.3958 C   0  0  0  0  0  0  0  0  0  0  0  0
    4.5111   17.7217   51.9288 O   0  0  0  0  0  0  0  0  0  0  0  0
    6.1175   19.3545   51.9452 O   0  0  0  0  0  0  0  0  0  0  0  0
    4.8955   17.2090   52.7030 H   0  0  0  0  0  0  0  0  0  0  0  0
  1  2  1  0  0  0
  1  6  1  0  0  0
  1  3  2  0  0  0
  2  4  1  0  0  0
  6  8  1  0  0  0
  6  7  2  0  0  0
  3  5  1  0  0  0
  4 14  1  0  0  0
  4  5  2  0  0  0
  8  9  2  0  0  0
  8 10  1  0  0  0
 14 16  1  0  0  0
 14 15  1  0  0  0
  9 11  1  0  0  0
 10 12  2  0  0  0
 16 17  1  0  0  0
 16 18  2  0  0  0
 11 13  2  0  0  0
 12 13  1  0  0  0
 17 19  1  0  0  0
M  END
> <minimizedAffinity>
-7.64679

$$$$
S5661 Tiaprofenic acid.cdx


 19 20  0  0  0  0  0  0  0  0999 V2000
    6.4830   20.0787   47.7026 C   0  0  0  0  0  0  0  0  0  0  0  0
    6.2774   20.5810   49.3578 S   0  0  0  0  0  0  0  0  0  0  0  0
    6.1030   18.7751   47.7004 C   0  0  0  0  0  0  0  0  0  0  0  0
    5.6970   19.0318   49.9661 C   0  0  0  0  0  0  0  0  0  0  0  0
    5.6997   18.2327   48.8563 C   0  0  0  0  0  0  0  0  0  0  0  0
    6.9480   20.9850   46.6739 C   0  0  0  0  0  0  0  0  0  0  0  0
    6.0675   21.4100   45.8459 O   0  0  0  0  0  0  0  0  0  0  0  0
    8.2830   21.4599   46.4771 C   0  0  0  0  0  0  0  0  0  0  0  0
    8.6676   22.6045   47.1843 C   0  0  0  0  0  0  0  0  0  0  0  0
    9.2454   20.8994   45.6773 C   0  0  0  0  0  0  0  0  0  0  0  0
    9.9387   23.1331   47.0793 C   0  0  0  0  0  0  0  0  0  0  0  0
   10.5175   21.4281   45.5716 C   0  0  0  0  0  0  0  0  0  0  0  0
   10.8751   22.5467   46.2695 C   0  0  0  0  0  0  0  0  0  0  0  0
    5.3015   18.6930   51.3637 C   0  0  0  0  0  0  0  0  0  0  0  0
    3.8184   18.4998   51.3899 C   0  0  0  0  0  0  0  0  0  0  0  0
    5.7460   19.8216   52.2206 C   0  0  0  0  0  0  0  0  0  0  0  0
    4.8139   20.8026   52.5325 O   0  0  0  0  0  0  0  0  0  0  0  0
    6.9187   19.9079   52.6599 O   0  0  0  0  0  0  0  0  0  0  0  0
    4.9989   21.5594   53.1674 H   0  0  0  0  0  0  0  0  0  0  0  0
  1  2  1  0  0  0
  1  6  1  0  0  0
  1  3  2  0  0  0
  2  4  1  0  0  0
  6  8  1  0  0  0
  6  7  2  0  0  0
  3  5  1  0  0  0
  4 14  1  0  0  0
  4  5  2  0  0  0
  8  9  2  0  0  0
  8 10  1  0  0  0
 14 16  1  0  0  0
 14 15  1  0  0  0
  9 11  1  0  0  0
 10 12  2  0  0  0
 16 17  1  0  0  0
 16 18  2  0  0  0
 11 13  2  0  0  0
 12 13  1  0  0  0
 17 19  1  0  0  0
M  END
> <minimizedAffinity>
-7.63440

$$$$
