SBP-3264


 27 30  0  0  0  0  0  0  0  0999 V2000
    7.9557   20.4423   46.6828 N   0  0  0  0  0  0  0  0  0  0  0  0
    9.0428   20.8852   46.0241 C   0  0  0  0  0  0  0  0  0  0  0  0
    9.6348   22.0544   46.3021 N   0  0  0  0  0  0  0  0  0  0  0  0
    9.0842   22.7874   47.2911 C   0  0  0  0  0  0  0  0  0  0  0  0
    7.9582   22.3567   47.9909 C   0  0  0  0  0  0  0  0  0  0  0  0
    7.3706   21.1572   47.6908 C   0  0  0  0  0  0  0  0  0  0  0  0
    9.4505   23.9861   47.7956 N   0  0  0  0  0  0  0  0  0  0  0  0
    8.5940   24.3237   48.7860 C   0  0  0  0  0  0  0  0  0  0  0  0
    7.6448   23.3022   48.9181 C   0  0  0  0  0  0  0  0  0  0  0  0
   10.2751   24.5330   47.4448 H   0  0  0  0  0  0  0  0  0  0  0  0
    6.2540   20.6015   48.3604 N   0  0  0  0  0  0  0  0  0  0  0  0
    6.4128   19.6955   49.5180 C   0  0  0  0  0  0  0  0  0  0  0  0
    5.9944   18.2986   49.0531 C   0  0  0  0  0  0  0  0  0  0  0  0
    5.1584   18.4232   47.8106 C   0  0  0  0  0  0  0  0  0  0  0  0
    4.1316   19.4976   48.0164 C   0  0  0  0  0  0  0  0  0  0  0  0
    4.8750   20.8433   47.9657 C   0  0  0  0  0  0  0  0  0  0  0  0
    4.5731   17.1613   47.4093 N   0  0  0  0  0  0  0  0  0  0  0  0
    4.6629   16.6508   46.0784 C   0  0  0  0  0  0  0  0  0  0  0  0
    5.2449   17.2325   45.1464 O   0  0  0  0  0  0  0  0  0  0  0  0
    4.0228   15.3346   45.7655 C   0  0  0  0  0  0  0  0  0  0  0  0
    4.0591   16.6033   48.1443 H   0  0  0  0  0  0  0  0  0  0  0  0
    6.5547   23.4028   49.8732 C   0  0  0  0  0  0  0  0  0  0  0  0
    5.3145   23.9417   49.5568 C   0  0  0  0  0  0  0  0  0  0  0  0
    4.3047   24.0144   50.4823 C   0  0  0  0  0  0  0  0  0  0  0  0
    4.5434   23.5369   51.7512 C   0  0  0  0  0  0  0  0  0  0  0  0
    5.7722   22.9897   52.1079 C   0  0  0  0  0  0  0  0  0  0  0  0
    6.7679   22.9313   51.1527 C   0  0  0  0  0  0  0  0  0  0  0  0
  1  2  2  0  0  0
  2  3  2  0  0  0
  3  4  2  0  0  0
  4  5  1  0  0  0
  4  7  1  0  0  0
  5  6  2  0  0  0
  6  1  2  0  0  0
  6 11  1  0  0  0
  7  8  1  0  0  0
  8  9  2  0  0  0
  9  5  1  0  0  0
  9 22  1  0  0  0
 11 12  1  0  0  0
 22 23  2  0  0  0
 12 13  1  0  0  0
 13 14  1  0  0  0
 14 15  1  0  0  0
 14 17  1  0  0  0
 15 16  1  0  0  0
 16 11  1  0  0  0
 23 24  1  0  0  0
 24 25  2  0  0  0
 25 26  1  0  0  0
 26 27  2  0  0  0
 27 22  1  0  0  0
 17 18  1  0  0  0
 18 19  2  0  0  0
 18 20  1  0  0  0
  7 10  1  0  0  0
 17 21  1  0  0  0
M  END
> <minimizedAffinity>
-8.16065

$$$$
SBP-3264


 27 30  0  0  0  0  0  0  0  0999 V2000
    3.6237   20.5450   50.0335 N   0  0  0  0  0  0  0  0  0  0  0  0
    2.6865   19.6096   49.7917 C   0  0  0  0  0  0  0  0  0  0  0  0
    2.7627   18.7529   48.7645 N   0  0  0  0  0  0  0  0  0  0  0  0
    3.8411   18.8688   47.9633 C   0  0  0  0  0  0  0  0  0  0  0  0
    4.8281   19.8275   48.1866 C   0  0  0  0  0  0  0  0  0  0  0  0
    4.7303   20.6917   49.2439 C   0  0  0  0  0  0  0  0  0  0  0  0
    4.1949   18.1591   46.8693 N   0  0  0  0  0  0  0  0  0  0  0  0
    5.3678   18.6390   46.3973 C   0  0  0  0  0  0  0  0  0  0  0  0
    5.7777   19.6952   47.2209 C   0  0  0  0  0  0  0  0  0  0  0  0
    3.6214   17.3696   46.4823 H   0  0  0  0  0  0  0  0  0  0  0  0
    5.6891   21.6736   49.5910 N   0  0  0  0  0  0  0  0  0  0  0  0
    6.5067   21.5629   50.8181 C   0  0  0  0  0  0  0  0  0  0  0  0
    6.0186   22.6489   51.7799 C   0  0  0  0  0  0  0  0  0  0  0  0
    5.2655   23.6919   51.0034 C   0  0  0  0  0  0  0  0  0  0  0  0
    6.0531   24.0555   49.7793 C   0  0  0  0  0  0  0  0  0  0  0  0
    5.9376   22.8715   48.8042 C   0  0  0  0  0  0  0  0  0  0  0  0
    4.9256   24.8443   51.8111 N   0  0  0  0  0  0  0  0  0  0  0  0
    3.8796   25.7538   51.4671 C   0  0  0  0  0  0  0  0  0  0  0  0
    3.1676   25.6464   50.4535 O   0  0  0  0  0  0  0  0  0  0  0  0
    3.6073   26.9158   52.3704 C   0  0  0  0  0  0  0  0  0  0  0  0
    5.4850   25.0078   52.6922 H   0  0  0  0  0  0  0  0  0  0  0  0
    6.9855   20.4505   46.9360 C   0  0  0  0  0  0  0  0  0  0  0  0
    8.1544   20.3217   47.6748 C   0  0  0  0  0  0  0  0  0  0  0  0
    9.2795   21.0460   47.3730 C   0  0  0  0  0  0  0  0  0  0  0  0
    9.2315   21.9176   46.3084 C   0  0  0  0  0  0  0  0  0  0  0  0
    8.0797   22.0757   45.5436 C   0  0  0  0  0  0  0  0  0  0  0  0
    6.9641   21.3316   45.8738 C   0  0  0  0  0  0  0  0  0  0  0  0
  1  2  2  0  0  0
  2  3  2  0  0  0
  3  4  2  0  0  0
  4  5  1  0  0  0
  4  7  1  0  0  0
  5  6  2  0  0  0
  6  1  2  0  0  0
  6 11  1  0  0  0
  7  8  1  0  0  0
  8  9  2  0  0  0
  9  5  1  0  0  0
  9 22  1  0  0  0
 11 12  1  0  0  0
 22 23  2  0  0  0
 12 13  1  0  0  0
 13 14  1  0  0  0
 14 15  1  0  0  0
 14 17  1  0  0  0
 15 16  1  0  0  0
 16 11  1  0  0  0
 23 24  1  0  0  0
 24 25  2  0  0  0
 25 26  1  0  0  0
 26 27  2  0  0  0
 27 22  1  0  0  0
 17 18  1  0  0  0
 18 19  2  0  0  0
 18 20  1  0  0  0
  7 10  1  0  0  0
 17 21  1  0  0  0
M  END
> <minimizedAffinity>
-7.98102

$$$$
SBP-3264


 27 30  0  0  0  0  0  0  0  0999 V2000
    6.0268   19.8506   50.6147 N   0  0  0  0  0  0  0  0  0  0  0  0
    6.6809   19.4308   51.7137 C   0  0  0  0  0  0  0  0  0  0  0  0
    7.0328   20.2552   52.7094 N   0  0  0  0  0  0  0  0  0  0  0  0
    6.6983   21.5532   52.5623 C   0  0  0  0  0  0  0  0  0  0  0  0
    6.0221   22.0190   51.4358 C   0  0  0  0  0  0  0  0  0  0  0  0
    5.6708   21.1580   50.4311 C   0  0  0  0  0  0  0  0  0  0  0  0
    6.9085   22.6062   53.3824 N   0  0  0  0  0  0  0  0  0  0  0  0
    6.3897   23.7163   52.8104 C   0  0  0  0  0  0  0  0  0  0  0  0
    5.8277   23.3583   51.5784 C   0  0  0  0  0  0  0  0  0  0  0  0
    7.4003   22.5295   54.3067 H   0  0  0  0  0  0  0  0  0  0  0  0
    4.9485   21.5097   49.2656 N   0  0  0  0  0  0  0  0  0  0  0  0
    3.5036   21.2262   49.1306 C   0  0  0  0  0  0  0  0  0  0  0  0
    3.3614   20.1180   48.0845 C   0  0  0  0  0  0  0  0  0  0  0  0
    4.6162   20.0552   47.2602 C   0  0  0  0  0  0  0  0  0  0  0  0
    5.0034   21.4455   46.8501 C   0  0  0  0  0  0  0  0  0  0  0  0
    5.5514   22.1464   48.1050 C   0  0  0  0  0  0  0  0  0  0  0  0
    4.4928   19.1549   46.1331 N   0  0  0  0  0  0  0  0  0  0  0  0
    5.0344   17.8334   46.1306 C   0  0  0  0  0  0  0  0  0  0  0  0
    5.6568   17.3332   47.0836 O   0  0  0  0  0  0  0  0  0  0  0  0
    4.8521   16.9809   44.9140 C   0  0  0  0  0  0  0  0  0  0  0  0
    3.9763   19.5044   45.2805 H   0  0  0  0  0  0  0  0  0  0  0  0
    5.2343   24.3528   50.7012 C   0  0  0  0  0  0  0  0  0  0  0  0
    3.8674   24.5894   50.6355 C   0  0  0  0  0  0  0  0  0  0  0  0
    3.3418   25.5422   49.8004 C   0  0  0  0  0  0  0  0  0  0  0  0
    4.2046   26.2727   49.0147 C   0  0  0  0  0  0  0  0  0  0  0  0
    5.5803   26.0658   49.0510 C   0  0  0  0  0  0  0  0  0  0  0  0
    6.0773   25.0990   49.9027 C   0  0  0  0  0  0  0  0  0  0  0  0
  1  2  2  0  0  0
  2  3  2  0  0  0
  3  4  2  0  0  0
  4  5  1  0  0  0
  4  7  1  0  0  0
  5  6  2  0  0  0
  6  1  2  0  0  0
  6 11  1  0  0  0
  7  8  1  0  0  0
  8  9  2  0  0  0
  9  5  1  0  0  0
  9 22  1  0  0  0
 11 12  1  0  0  0
 22 23  2  0  0  0
 12 13  1  0  0  0
 13 14  1  0  0  0
 14 15  1  0  0  0
 14 17  1  0  0  0
 15 16  1  0  0  0
 16 11  1  0  0  0
 23 24  1  0  0  0
 24 25  2  0  0  0
 25 26  1  0  0  0
 26 27  2  0  0  0
 27 22  1  0  0  0
 17 18  1  0  0  0
 18 19  2  0  0  0
 18 20  1  0  0  0
  7 10  1  0  0  0
 17 21  1  0  0  0
M  END
> <minimizedAffinity>
-7.69479

$$$$
SBP-3264


 27 30  0  0  0  0  0  0  0  0999 V2000
    7.4186   24.0585   49.3965 N   0  0  0  0  0  0  0  0  0  0  0  0
    7.4506   25.1838   50.1345 C   0  0  0  0  0  0  0  0  0  0  0  0
    6.7800   25.3167   51.2867 N   0  0  0  0  0  0  0  0  0  0  0  0
    6.0539   24.2529   51.6863 C   0  0  0  0  0  0  0  0  0  0  0  0
    5.9997   23.0743   50.9439 C   0  0  0  0  0  0  0  0  0  0  0  0
    6.6946   22.9603   49.7699 C   0  0  0  0  0  0  0  0  0  0  0  0
    5.2878   24.0837   52.7863 N   0  0  0  0  0  0  0  0  0  0  0  0
    4.7537   22.8416   52.7601 C   0  0  0  0  0  0  0  0  0  0  0  0
    5.1951   22.1940   51.5993 C   0  0  0  0  0  0  0  0  0  0  0  0
    5.1564   24.8244   53.5184 H   0  0  0  0  0  0  0  0  0  0  0  0
    6.7471   21.8020   48.9579 N   0  0  0  0  0  0  0  0  0  0  0  0
    7.5212   20.6069   49.3566 C   0  0  0  0  0  0  0  0  0  0  0  0
    8.7233   20.5178   48.4134 C   0  0  0  0  0  0  0  0  0  0  0  0
    8.4471   21.3383   47.1851 C   0  0  0  0  0  0  0  0  0  0  0  0
    7.0650   21.0295   46.6899 C   0  0  0  0  0  0  0  0  0  0  0  0
    6.0801   21.6892   47.6702 C   0  0  0  0  0  0  0  0  0  0  0  0
    9.4582   21.1624   46.1639 N   0  0  0  0  0  0  0  0  0  0  0  0
   10.5879   22.0261   46.0312 C   0  0  0  0  0  0  0  0  0  0  0  0
   10.8108   23.0009   46.7701 O   0  0  0  0  0  0  0  0  0  0  0  0
   11.5773   21.7581   44.9407 C   0  0  0  0  0  0  0  0  0  0  0  0
    9.3425   20.3546   45.4933 H   0  0  0  0  0  0  0  0  0  0  0  0
    4.7457   20.8536   51.2646 C   0  0  0  0  0  0  0  0  0  0  0  0
    3.8546   20.5861   50.2336 C   0  0  0  0  0  0  0  0  0  0  0  0
    3.4572   19.3064   49.9404 C   0  0  0  0  0  0  0  0  0  0  0  0
    3.9635   18.2736   50.6969 C   0  0  0  0  0  0  0  0  0  0  0  0
    4.8582   18.4999   51.7385 C   0  0  0  0  0  0  0  0  0  0  0  0
    5.2382   19.8000   52.0078 C   0  0  0  0  0  0  0  0  0  0  0  0
  1  2  2  0  0  0
  2  3  2  0  0  0
  3  4  2  0  0  0
  4  5  1  0  0  0
  4  7  1  0  0  0
  5  6  2  0  0  0
  6  1  2  0  0  0
  6 11  1  0  0  0
  7  8  1  0  0  0
  8  9  2  0  0  0
  9  5  1  0  0  0
  9 22  1  0  0  0
 11 12  1  0  0  0
 22 23  2  0  0  0
 12 13  1  0  0  0
 13 14  1  0  0  0
 14 15  1  0  0  0
 14 17  1  0  0  0
 15 16  1  0  0  0
 16 11  1  0  0  0
 23 24  1  0  0  0
 24 25  2  0  0  0
 25 26  1  0  0  0
 26 27  2  0  0  0
 27 22  1  0  0  0
 17 18  1  0  0  0
 18 19  2  0  0  0
 18 20  1  0  0  0
  7 10  1  0  0  0
 17 21  1  0  0  0
M  END
> <minimizedAffinity>
-7.59039

$$$$
SBP-3264


 27 30  0  0  0  0  0  0  0  0999 V2000
    7.9200   20.2081   46.5381 N   0  0  0  0  0  0  0  0  0  0  0  0
    8.9519   21.0479   46.7426 C   0  0  0  0  0  0  0  0  0  0  0  0
    9.0183   21.8750   47.7945 N   0  0  0  0  0  0  0  0  0  0  0  0
    7.9851   21.8318   48.6600 C   0  0  0  0  0  0  0  0  0  0  0  0
    6.9019   20.9740   48.4754 C   0  0  0  0  0  0  0  0  0  0  0  0
    6.8559   20.1361   47.3937 C   0  0  0  0  0  0  0  0  0  0  0  0
    7.7705   22.5290   49.7973 N   0  0  0  0  0  0  0  0  0  0  0  0
    6.5909   22.1406   50.3322 C   0  0  0  0  0  0  0  0  0  0  0  0
    6.0312   21.1588   49.5047 C   0  0  0  0  0  0  0  0  0  0  0  0
    8.4393   23.2476   50.1693 H   0  0  0  0  0  0  0  0  0  0  0  0
    5.8309   19.1967   47.1279 N   0  0  0  0  0  0  0  0  0  0  0  0
    5.7102   17.9388   47.8957 C   0  0  0  0  0  0  0  0  0  0  0  0
    6.0914   16.7986   46.9483 C   0  0  0  0  0  0  0  0  0  0  0  0
    5.9853   17.2815   45.5293 C   0  0  0  0  0  0  0  0  0  0  0  0
    4.6878   18.0146   45.3566 C   0  0  0  0  0  0  0  0  0  0  0  0
    4.8360   19.3640   46.0800 C   0  0  0  0  0  0  0  0  0  0  0  0
    6.1547   16.2126   44.5675 N   0  0  0  0  0  0  0  0  0  0  0  0
    5.4007   15.0005   44.6113 C   0  0  0  0  0  0  0  0  0  0  0  0
    4.5362   14.7478   45.4684 O   0  0  0  0  0  0  0  0  0  0  0  0
    5.6518   13.9561   43.5690 C   0  0  0  0  0  0  0  0  0  0  0  0
    6.8721   16.3488   43.8043 H   0  0  0  0  0  0  0  0  0  0  0  0
    4.7300   20.5803   49.7924 C   0  0  0  0  0  0  0  0  0  0  0  0
    4.5328   19.5892   50.7451 C   0  0  0  0  0  0  0  0  0  0  0  0
    3.2880   19.0704   50.9960 C   0  0  0  0  0  0  0  0  0  0  0  0
    2.2190   19.5552   50.2768 C   0  0  0  0  0  0  0  0  0  0  0  0
    2.3748   20.5475   49.3137 C   0  0  0  0  0  0  0  0  0  0  0  0
    3.6412   21.0487   49.0851 C   0  0  0  0  0  0  0  0  0  0  0  0
  1  2  2  0  0  0
  2  3  2  0  0  0
  3  4  2  0  0  0
  4  5  1  0  0  0
  4  7  1  0  0  0
  5  6  2  0  0  0
  6  1  2  0  0  0
  6 11  1  0  0  0
  7  8  1  0  0  0
  8  9  2  0  0  0
  9  5  1  0  0  0
  9 22  1  0  0  0
 11 12  1  0  0  0
 22 23  2  0  0  0
 12 13  1  0  0  0
 13 14  1  0  0  0
 14 15  1  0  0  0
 14 17  1  0  0  0
 15 16  1  0  0  0
 16 11  1  0  0  0
 23 24  1  0  0  0
 24 25  2  0  0  0
 25 26  1  0  0  0
 26 27  2  0  0  0
 27 22  1  0  0  0
 17 18  1  0  0  0
 18 19  2  0  0  0
 18 20  1  0  0  0
  7 10  1  0  0  0
 17 21  1  0  0  0
M  END
> <minimizedAffinity>
-7.48042

$$$$
