STING agonist-1 (G10)


 29 32  0  0  0  0  0  0  0  0999 V2000
    7.3501   22.4550   52.4503 S   0  0  0  0  0  0  0  0  0  0  0  0
    7.7560   24.5683   49.6698 O   0  0  0  0  0  0  0  0  0  0  0  0
    7.0801   22.3861   49.3150 N   0  0  0  0  0  0  0  0  0  0  0  0
    6.4357   21.3278   50.0640 C   0  0  0  0  0  0  0  0  0  0  0  0
    6.4630   21.2343   51.4364 C   0  0  0  0  0  0  0  0  0  0  0  0
    7.7855   23.3820   50.0292 C   0  0  0  0  0  0  0  0  0  0  0  0
    5.7509   20.3013   49.4159 C   0  0  0  0  0  0  0  0  0  0  0  0
    8.6139   23.0981   51.2609 C   0  0  0  0  0  0  0  0  0  0  0  0
    5.1429   19.2668   50.1283 C   0  0  0  0  0  0  0  0  0  0  0  0
    5.8658   20.2166   52.1496 C   0  0  0  0  0  0  0  0  0  0  0  0
    5.1931   19.2139   51.4901 C   0  0  0  0  0  0  0  0  0  0  0  0
    3.5559   17.5004   49.9441 O   0  0  0  0  0  0  0  0  0  0  0  0
    4.6939   17.9560   48.0189 N   0  0  0  0  0  0  0  0  0  0  0  0
    4.4427   18.2264   49.3848 C   0  0  0  0  0  0  0  0  0  0  0  0
    5.3886   18.4860   47.4812 H   0  0  0  0  0  0  0  0  0  0  0  0
    3.9616   16.9012   47.3270 C   0  0  0  0  0  0  0  0  0  0  0  0
    4.5770   15.2330   45.5207 O   0  0  0  0  0  0  0  0  0  0  0  0
    4.6936   16.3769   46.1477 C   0  0  0  0  0  0  0  0  0  0  0  0
    5.6849   17.1029   45.5043 C   0  0  0  0  0  0  0  0  0  0  0  0
    6.1227   16.2998   44.4739 C   0  0  0  0  0  0  0  0  0  0  0  0
    5.3989   15.1261   44.5163 C   0  0  0  0  0  0  0  0  0  0  0  0
    6.9791   22.3534   47.8657 C   0  0  0  0  0  0  0  0  0  0  0  0
    7.4114   19.8684   46.4408 F   0  0  0  0  0  0  0  0  0  0  0  0
    8.2053   22.0477   47.1179 C   0  0  0  0  0  0  0  0  0  0  0  0
    9.2864   22.9165   47.0085 C   0  0  0  0  0  0  0  0  0  0  0  0
    8.3978   20.8094   46.4914 C   0  0  0  0  0  0  0  0  0  0  0  0
   10.4556   22.5726   46.3340 C   0  0  0  0  0  0  0  0  0  0  0  0
    9.5565   20.4742   45.8267 C   0  0  0  0  0  0  0  0  0  0  0  0
   10.6149   21.3473   45.7312 C   0  0  0  0  0  0  0  0  0  0  0  0
  1  5  1  0  0  0
  1  8  1  0  0  0
 23 26  1  0  0  0
  2  6  2  0  0  0
 12 14  2  0  0  0
 17 18  1  0  0  0
 17 21  1  0  0  0
  3  4  1  0  0  0
  3 22  1  0  0  0
  3  6  1  0  0  0
 13 14  1  0  0  0
 13 16  1  0  0  0
  4  5  2  0  0  0
  4  7  1  0  0  0
 22 24  1  0  0  0
  5 10  1  0  0  0
  6  8  1  0  0  0
  7  9  2  0  0  0
 24 25  2  0  0  0
 24 26  1  0  0  0
  9 11  1  0  0  0
  9 14  1  0  0  0
 10 11  2  0  0  0
 25 27  1  0  0  0
 26 28  2  0  0  0
 16 18  1  0  0  0
 27 29  2  0  0  0
 28 29  1  0  0  0
 18 19  2  0  0  0
 19 20  1  0  0  0
 20 21  2  0  0  0
 13 15  1  0  0  0
M  END
> <minimizedAffinity>
-9.09468

$$$$
STING agonist-1 (G10)


 29 32  0  0  0  0  0  0  0  0999 V2000
    6.3524   20.8152   51.6585 S   0  0  0  0  0  0  0  0  0  0  0  0
    7.1488   23.6928   49.8018 O   0  0  0  0  0  0  0  0  0  0  0  0
    6.8076   21.7040   48.6735 N   0  0  0  0  0  0  0  0  0  0  0  0
    6.1272   20.4461   48.8991 C   0  0  0  0  0  0  0  0  0  0  0  0
    5.8532   19.9364   50.1474 C   0  0  0  0  0  0  0  0  0  0  0  0
    7.2227   22.4550   49.7974 C   0  0  0  0  0  0  0  0  0  0  0  0
    5.7204   19.6463   47.8326 C   0  0  0  0  0  0  0  0  0  0  0  0
    7.7765   21.8340   51.0590 C   0  0  0  0  0  0  0  0  0  0  0  0
    5.0809   18.4234   48.0404 C   0  0  0  0  0  0  0  0  0  0  0  0
    5.2222   18.7296   50.3635 C   0  0  0  0  0  0  0  0  0  0  0  0
    4.8271   17.9565   49.2963 C   0  0  0  0  0  0  0  0  0  0  0  0
    3.7144   16.8113   46.9421 O   0  0  0  0  0  0  0  0  0  0  0  0
    5.3287   17.7408   45.6234 N   0  0  0  0  0  0  0  0  0  0  0  0
    4.6823   17.6393   46.8778 C   0  0  0  0  0  0  0  0  0  0  0  0
    6.1175   18.3790   45.4712 H   0  0  0  0  0  0  0  0  0  0  0  0
    4.8853   16.9296   44.4951 C   0  0  0  0  0  0  0  0  0  0  0  0
    6.7886   15.7205   43.3377 O   0  0  0  0  0  0  0  0  0  0  0  0
    5.8085   15.8056   44.2022 C   0  0  0  0  0  0  0  0  0  0  0  0
    5.7399   14.5928   44.8715 C   0  0  0  0  0  0  0  0  0  0  0  0
    6.7417   13.8152   44.3330 C   0  0  0  0  0  0  0  0  0  0  0  0
    7.3830   14.5622   43.3665 C   0  0  0  0  0  0  0  0  0  0  0  0
    7.0412   22.1148   47.2993 C   0  0  0  0  0  0  0  0  0  0  0  0
    9.1746   24.0499   47.6101 F   0  0  0  0  0  0  0  0  0  0  0  0
    8.3962   21.9237   46.7666 C   0  0  0  0  0  0  0  0  0  0  0  0
    8.8027   20.7950   46.0619 C   0  0  0  0  0  0  0  0  0  0  0  0
    9.3826   22.9111   46.8883 C   0  0  0  0  0  0  0  0  0  0  0  0
   10.0822   20.6701   45.5257 C   0  0  0  0  0  0  0  0  0  0  0  0
   10.6459   22.7827   46.3551 C   0  0  0  0  0  0  0  0  0  0  0  0
   11.0278   21.6589   45.6602 C   0  0  0  0  0  0  0  0  0  0  0  0
  1  5  1  0  0  0
  1  8  1  0  0  0
 23 26  1  0  0  0
  2  6  2  0  0  0
 12 14  2  0  0  0
 17 18  1  0  0  0
 17 21  1  0  0  0
  3  4  1  0  0  0
  3 22  1  0  0  0
  3  6  1  0  0  0
 13 14  1  0  0  0
 13 16  1  0  0  0
  4  5  2  0  0  0
  4  7  1  0  0  0
 22 24  1  0  0  0
  5 10  1  0  0  0
  6  8  1  0  0  0
  7  9  2  0  0  0
 24 25  2  0  0  0
 24 26  1  0  0  0
  9 11  1  0  0  0
  9 14  1  0  0  0
 10 11  2  0  0  0
 25 27  1  0  0  0
 26 28  2  0  0  0
 16 18  1  0  0  0
 27 29  2  0  0  0
 28 29  1  0  0  0
 18 19  2  0  0  0
 19 20  1  0  0  0
 20 21  2  0  0  0
 13 15  1  0  0  0
M  END
> <minimizedAffinity>
-9.03830

$$$$
STING agonist-1 (G10)


 29 32  0  0  0  0  0  0  0  0999 V2000
    4.6231   25.0382   49.8635 S   0  0  0  0  0  0  0  0  0  0  0  0
    8.0942   25.2456   49.3432 O   0  0  0  0  0  0  0  0  0  0  0  0
    7.1408   23.1614   49.6474 N   0  0  0  0  0  0  0  0  0  0  0  0
    5.8368   22.5480   49.5076 C   0  0  0  0  0  0  0  0  0  0  0  0
    4.6518   23.2441   49.5718 C   0  0  0  0  0  0  0  0  0  0  0  0
    7.2074   24.5565   49.8688 C   0  0  0  0  0  0  0  0  0  0  0  0
    5.7046   21.1736   49.3178 C   0  0  0  0  0  0  0  0  0  0  0  0
    6.2302   25.3117   50.7398 C   0  0  0  0  0  0  0  0  0  0  0  0
    4.4514   20.5706   49.2010 C   0  0  0  0  0  0  0  0  0  0  0  0
    3.4089   22.6581   49.4578 C   0  0  0  0  0  0  0  0  0  0  0  0
    3.3009   21.2997   49.2688 C   0  0  0  0  0  0  0  0  0  0  0  0
    4.7627   18.3203   49.9166 O   0  0  0  0  0  0  0  0  0  0  0  0
    3.9168   18.5354   47.8078 N   0  0  0  0  0  0  0  0  0  0  0  0
    4.3883   19.1277   49.0031 C   0  0  0  0  0  0  0  0  0  0  0  0
    3.5929   19.1004   47.0150 H   0  0  0  0  0  0  0  0  0  0  0  0
    3.8770   17.0840   47.6672 C   0  0  0  0  0  0  0  0  0  0  0  0
    4.4251   15.5039   45.7628 O   0  0  0  0  0  0  0  0  0  0  0  0
    4.5779   16.6090   46.4487 C   0  0  0  0  0  0  0  0  0  0  0  0
    5.5750   17.3471   45.8286 C   0  0  0  0  0  0  0  0  0  0  0  0
    5.9777   16.5920   44.7488 C   0  0  0  0  0  0  0  0  0  0  0  0
    5.2281   15.4340   44.7400 C   0  0  0  0  0  0  0  0  0  0  0  0
    8.3097   22.3016   49.5694 C   0  0  0  0  0  0  0  0  0  0  0  0
    7.9218   19.9509   47.9214 F   0  0  0  0  0  0  0  0  0  0  0  0
    8.9223   22.1261   48.2465 C   0  0  0  0  0  0  0  0  0  0  0  0
    9.7481   23.0678   47.6408 C   0  0  0  0  0  0  0  0  0  0  0  0
    8.7561   20.9477   47.5073 C   0  0  0  0  0  0  0  0  0  0  0  0
   10.3545   22.8457   46.4066 C   0  0  0  0  0  0  0  0  0  0  0  0
    9.3590   20.7328   46.2878 C   0  0  0  0  0  0  0  0  0  0  0  0
   10.1735   21.6764   45.7065 C   0  0  0  0  0  0  0  0  0  0  0  0
  1  5  1  0  0  0
  1  8  1  0  0  0
 23 26  1  0  0  0
  2  6  2  0  0  0
 12 14  2  0  0  0
 17 18  1  0  0  0
 17 21  1  0  0  0
  3  4  1  0  0  0
  3 22  1  0  0  0
  3  6  1  0  0  0
 13 14  1  0  0  0
 13 16  1  0  0  0
  4  5  2  0  0  0
  4  7  1  0  0  0
 22 24  1  0  0  0
  5 10  1  0  0  0
  6  8  1  0  0  0
  7  9  2  0  0  0
 24 25  2  0  0  0
 24 26  1  0  0  0
  9 11  1  0  0  0
  9 14  1  0  0  0
 10 11  2  0  0  0
 25 27  1  0  0  0
 26 28  2  0  0  0
 16 18  1  0  0  0
 27 29  2  0  0  0
 28 29  1  0  0  0
 18 19  2  0  0  0
 19 20  1  0  0  0
 20 21  2  0  0  0
 13 15  1  0  0  0
M  END
> <minimizedAffinity>
-8.80159

$$$$
STING agonist-1 (G10)


 29 32  0  0  0  0  0  0  0  0999 V2000
    3.0860   18.8376   49.1116 S   0  0  0  0  0  0  0  0  0  0  0  0
    3.8805   22.1002   48.0694 O   0  0  0  0  0  0  0  0  0  0  0  0
    4.9671   20.3211   47.0700 N   0  0  0  0  0  0  0  0  0  0  0  0
    4.7416   18.9060   46.8632 C   0  0  0  0  0  0  0  0  0  0  0  0
    3.9390   18.1322   47.6695 C   0  0  0  0  0  0  0  0  0  0  0  0
    4.3331   20.9499   48.1664 C   0  0  0  0  0  0  0  0  0  0  0  0
    5.3619   18.2234   45.8183 C   0  0  0  0  0  0  0  0  0  0  0  0
    4.1537   20.2943   49.5162 C   0  0  0  0  0  0  0  0  0  0  0  0
    5.1656   16.8557   45.6223 C   0  0  0  0  0  0  0  0  0  0  0  0
    3.7385   16.7806   47.4847 C   0  0  0  0  0  0  0  0  0  0  0  0
    4.3591   16.1265   46.4455 C   0  0  0  0  0  0  0  0  0  0  0  0
    6.9400   16.6700   44.0444 O   0  0  0  0  0  0  0  0  0  0  0  0
    5.3493   15.0419   43.8772 N   0  0  0  0  0  0  0  0  0  0  0  0
    5.8459   16.2068   44.5081 C   0  0  0  0  0  0  0  0  0  0  0  0
    4.4768   14.5936   44.1781 H   0  0  0  0  0  0  0  0  0  0  0  0
    6.0742   14.4367   42.7655 C   0  0  0  0  0  0  0  0  0  0  0  0
    4.7842   12.8651   41.2521 O   0  0  0  0  0  0  0  0  0  0  0  0
    5.1818   14.0495   41.6451 C   0  0  0  0  0  0  0  0  0  0  0  0
    4.6051   14.9829   40.7967 C   0  0  0  0  0  0  0  0  0  0  0  0
    3.8559   14.2543   39.8988 C   0  0  0  0  0  0  0  0  0  0  0  0
    3.9939   12.9194   40.2186 C   0  0  0  0  0  0  0  0  0  0  0  0
    5.8499   21.0122   46.1454 C   0  0  0  0  0  0  0  0  0  0  0  0
    8.0483   21.9769   44.5241 F   0  0  0  0  0  0  0  0  0  0  0  0
    7.0768   21.5949   46.7032 C   0  0  0  0  0  0  0  0  0  0  0  0
    7.3141   21.7511   48.0652 C   0  0  0  0  0  0  0  0  0  0  0  0
    8.1413   21.9954   45.8851 C   0  0  0  0  0  0  0  0  0  0  0  0
    8.5120   22.2604   48.5610 C   0  0  0  0  0  0  0  0  0  0  0  0
    9.3241   22.4973   46.3808 C   0  0  0  0  0  0  0  0  0  0  0  0
    9.5396   22.6425   47.7314 C   0  0  0  0  0  0  0  0  0  0  0  0
  1  5  1  0  0  0
  1  8  1  0  0  0
 23 26  1  0  0  0
  2  6  2  0  0  0
 12 14  2  0  0  0
 17 18  1  0  0  0
 17 21  1  0  0  0
  3  4  1  0  0  0
  3 22  1  0  0  0
  3  6  1  0  0  0
 13 14  1  0  0  0
 13 16  1  0  0  0
  4  5  2  0  0  0
  4  7  1  0  0  0
 22 24  1  0  0  0
  5 10  1  0  0  0
  6  8  1  0  0  0
  7  9  2  0  0  0
 24 25  2  0  0  0
 24 26  1  0  0  0
  9 11  1  0  0  0
  9 14  1  0  0  0
 10 11  2  0  0  0
 25 27  1  0  0  0
 26 28  2  0  0  0
 16 18  1  0  0  0
 27 29  2  0  0  0
 28 29  1  0  0  0
 18 19  2  0  0  0
 19 20  1  0  0  0
 20 21  2  0  0  0
 13 15  1  0  0  0
M  END
> <minimizedAffinity>
-8.68151

$$$$
STING agonist-1 (G10)


 29 32  0  0  0  0  0  0  0  0999 V2000
    4.1734   19.2155   52.4915 S   0  0  0  0  0  0  0  0  0  0  0  0
    5.4330   22.4980   52.4591 O   0  0  0  0  0  0  0  0  0  0  0  0
    5.7261   21.1790   50.5831 N   0  0  0  0  0  0  0  0  0  0  0  0
    5.1089   20.0144   49.9840 C   0  0  0  0  0  0  0  0  0  0  0  0
    4.3936   19.0765   50.6923 C   0  0  0  0  0  0  0  0  0  0  0  0
    5.5949   21.3665   51.9786 C   0  0  0  0  0  0  0  0  0  0  0  0
    5.2280   19.7587   48.6191 C   0  0  0  0  0  0  0  0  0  0  0  0
    5.6376   20.2364   52.9811 C   0  0  0  0  0  0  0  0  0  0  0  0
    4.6528   18.6289   48.0357 C   0  0  0  0  0  0  0  0  0  0  0  0
    3.8216   17.9572   50.1258 C   0  0  0  0  0  0  0  0  0  0  0  0
    3.9496   17.7247   48.7758 C   0  0  0  0  0  0  0  0  0  0  0  0
    4.6912   19.3926   45.7801 O   0  0  0  0  0  0  0  0  0  0  0  0
    5.1210   17.1655   46.0336 N   0  0  0  0  0  0  0  0  0  0  0  0
    4.8170   18.4252   46.6015 C   0  0  0  0  0  0  0  0  0  0  0  0
    5.2420   16.3264   46.6114 H   0  0  0  0  0  0  0  0  0  0  0  0
    5.2734   17.0225   44.5900 C   0  0  0  0  0  0  0  0  0  0  0  0
    6.8817   15.4879   43.3723 O   0  0  0  0  0  0  0  0  0  0  0  0
    5.9032   15.7347   44.2072 C   0  0  0  0  0  0  0  0  0  0  0  0
    5.4939   14.5199   44.7367 C   0  0  0  0  0  0  0  0  0  0  0  0
    6.3010   13.5695   44.1505 C   0  0  0  0  0  0  0  0  0  0  0  0
    7.1655   14.2194   43.2941 C   0  0  0  0  0  0  0  0  0  0  0  0
    6.4626   22.0819   49.7148 C   0  0  0  0  0  0  0  0  0  0  0  0
    3.7220   22.9395   49.3329 F   0  0  0  0  0  0  0  0  0  0  0  0
    6.0448   23.4896   49.7071 C   0  0  0  0  0  0  0  0  0  0  0  0
    6.9152   24.5601   49.8866 C   0  0  0  0  0  0  0  0  0  0  0  0
    4.7174   23.8636   49.4602 C   0  0  0  0  0  0  0  0  0  0  0  0
    6.4921   25.8856   49.8213 C   0  0  0  0  0  0  0  0  0  0  0  0
    4.3048   25.1760   49.3956 C   0  0  0  0  0  0  0  0  0  0  0  0
    5.1817   26.2204   49.5745 C   0  0  0  0  0  0  0  0  0  0  0  0
  1  5  1  0  0  0
  1  8  1  0  0  0
 23 26  1  0  0  0
  2  6  2  0  0  0
 12 14  2  0  0  0
 17 18  1  0  0  0
 17 21  1  0  0  0
  3  4  1  0  0  0
  3 22  1  0  0  0
  3  6  1  0  0  0
 13 14  1  0  0  0
 13 16  1  0  0  0
  4  5  2  0  0  0
  4  7  1  0  0  0
 22 24  1  0  0  0
  5 10  1  0  0  0
  6  8  1  0  0  0
  7  9  2  0  0  0
 24 25  2  0  0  0
 24 26  1  0  0  0
  9 11  1  0  0  0
  9 14  1  0  0  0
 10 11  2  0  0  0
 25 27  1  0  0  0
 26 28  2  0  0  0
 16 18  1  0  0  0
 27 29  2  0  0  0
 28 29  1  0  0  0
 18 19  2  0  0  0
 19 20  1  0  0  0
 20 21  2  0  0  0
 13 15  1  0  0  0
M  END
> <minimizedAffinity>
-8.42718

$$$$
