Urolithin B


 17 19  0  0  0  0  0  0  0  0999 V2000
    6.5948   19.9521   48.8899 O   0  0  0  0  0  0  0  0  0  0  0  0
    4.8935   19.7152   53.2462 O   0  0  0  0  0  0  0  0  0  0  0  0
    7.4862   20.1728   46.8848 O   0  0  0  0  0  0  0  0  0  0  0  0
    4.9358   17.9520   48.0599 C   0  0  0  0  0  0  0  0  0  0  0  0
    4.9067   18.3766   49.3647 C   0  0  0  0  0  0  0  0  0  0  0  0
    5.8278   18.5771   47.2136 C   0  0  0  0  0  0  0  0  0  0  0  0
    5.7601   19.3836   49.7291 C   0  0  0  0  0  0  0  0  0  0  0  0
    4.0418   17.7975   50.2629 C   0  0  0  0  0  0  0  0  0  0  0  0
    4.1060   16.9451   47.6259 C   0  0  0  0  0  0  0  0  0  0  0  0
    6.6631   19.5862   47.6378 C   0  0  0  0  0  0  0  0  0  0  0  0
    5.7952   19.8749   51.0354 C   0  0  0  0  0  0  0  0  0  0  0  0
    5.9236   18.2120   45.8819 C   0  0  0  0  0  0  0  0  0  0  0  0
    4.0612   18.2749   51.5758 C   0  0  0  0  0  0  0  0  0  0  0  0
    4.9263   19.2879   51.9229 C   0  0  0  0  0  0  0  0  0  0  0  0
    4.1913   16.5693   46.2948 C   0  0  0  0  0  0  0  0  0  0  0  0
    5.0879   17.2026   45.4586 C   0  0  0  0  0  0  0  0  0  0  0  0
    4.7899   19.0813   54.0423 H   0  0  0  0  0  0  0  0  0  0  0  0
  1  7  1  0  0  0
  1 10  1  0  0  0
  2 14  1  0  0  0
  3 10  2  0  0  0
  4  5  1  0  0  0
  4  6  2  0  0  0
  4  9  1  0  0  0
  5  7  2  0  0  0
  5  8  1  0  0  0
  6 10  1  0  0  0
  6 12  1  0  0  0
  7 11  1  0  0  0
  8 13  2  0  0  0
  9 15  2  0  0  0
 11 14  2  0  0  0
 12 16  2  0  0  0
 13 14  1  0  0  0
 15 16  1  0  0  0
  2 17  1  0  0  0
M  END
> <minimizedAffinity>
-7.97790

$$$$
Urolithin B


 17 19  0  0  0  0  0  0  0  0999 V2000
    4.1217   22.9749   48.5675 O   0  0  0  0  0  0  0  0  0  0  0  0
    3.7002   26.0459   52.0773 O   0  0  0  0  0  0  0  0  0  0  0  0
    4.2472   21.6252   46.8277 O   0  0  0  0  0  0  0  0  0  0  0  0
    5.4585   21.2201   50.1722 C   0  0  0  0  0  0  0  0  0  0  0  0
    5.0279   22.4233   50.6727 C   0  0  0  0  0  0  0  0  0  0  0  0
    5.1846   20.9547   48.8466 C   0  0  0  0  0  0  0  0  0  0  0  0
    4.3617   23.2674   49.8248 C   0  0  0  0  0  0  0  0  0  0  0  0
    5.2667   22.7532   51.9858 C   0  0  0  0  0  0  0  0  0  0  0  0
    6.1336   20.3248   50.9681 C   0  0  0  0  0  0  0  0  0  0  0  0
    4.5095   21.8440   48.0409 C   0  0  0  0  0  0  0  0  0  0  0  0
    3.8899   24.5100   50.2522 C   0  0  0  0  0  0  0  0  0  0  0  0
    5.5823   19.7657   48.2600 C   0  0  0  0  0  0  0  0  0  0  0  0
    4.8025   23.9927   52.4335 C   0  0  0  0  0  0  0  0  0  0  0  0
    4.1350   24.8274   51.5661 C   0  0  0  0  0  0  0  0  0  0  0  0
    6.5377   19.1301   50.3939 C   0  0  0  0  0  0  0  0  0  0  0  0
    6.2576   18.8768   49.0666 C   0  0  0  0  0  0  0  0  0  0  0  0
    4.2491   26.6141   52.7270 H   0  0  0  0  0  0  0  0  0  0  0  0
  1  7  1  0  0  0
  1 10  1  0  0  0
  2 14  1  0  0  0
  3 10  2  0  0  0
  4  5  1  0  0  0
  4  6  2  0  0  0
  4  9  1  0  0  0
  5  7  2  0  0  0
  5  8  1  0  0  0
  6 10  1  0  0  0
  6 12  1  0  0  0
  7 11  1  0  0  0
  8 13  2  0  0  0
  9 15  2  0  0  0
 11 14  2  0  0  0
 12 16  2  0  0  0
 13 14  1  0  0  0
 15 16  1  0  0  0
  2 17  1  0  0  0
M  END
> <minimizedAffinity>
-7.94354

$$$$
Urolithin B


 17 19  0  0  0  0  0  0  0  0999 V2000
    7.5078   21.0683   51.1153 O   0  0  0  0  0  0  0  0  0  0  0  0
    4.3841   17.6670   51.8909 O   0  0  0  0  0  0  0  0  0  0  0  0
    8.9901   22.6867   50.8977 O   0  0  0  0  0  0  0  0  0  0  0  0
    7.2888   20.7478   48.4151 C   0  0  0  0  0  0  0  0  0  0  0  0
    6.5504   19.9636   49.2658 C   0  0  0  0  0  0  0  0  0  0  0  0
    8.1261   21.6828   48.9871 C   0  0  0  0  0  0  0  0  0  0  0  0
    6.6979   20.1655   50.6122 C   0  0  0  0  0  0  0  0  0  0  0  0
    5.6953   19.0113   48.7639 C   0  0  0  0  0  0  0  0  0  0  0  0
    7.1897   20.5986   47.0518 C   0  0  0  0  0  0  0  0  0  0  0  0
    8.2330   21.8404   50.3509 C   0  0  0  0  0  0  0  0  0  0  0  0
    5.9851   19.4118   51.5465 C   0  0  0  0  0  0  0  0  0  0  0  0
    8.9069   22.5154   48.2040 C   0  0  0  0  0  0  0  0  0  0  0  0
    4.9723   18.2461   49.6827 C   0  0  0  0  0  0  0  0  0  0  0  0
    5.1343   18.4638   51.0322 C   0  0  0  0  0  0  0  0  0  0  0  0
    7.9657   21.4257   46.2555 C   0  0  0  0  0  0  0  0  0  0  0  0
    8.7994   22.3569   46.8402 C   0  0  0  0  0  0  0  0  0  0  0  0
    4.2159   16.6702   51.7342 H   0  0  0  0  0  0  0  0  0  0  0  0
  1  7  1  0  0  0
  1 10  1  0  0  0
  2 14  1  0  0  0
  3 10  2  0  0  0
  4  5  1  0  0  0
  4  6  2  0  0  0
  4  9  1  0  0  0
  5  7  2  0  0  0
  5  8  1  0  0  0
  6 10  1  0  0  0
  6 12  1  0  0  0
  7 11  1  0  0  0
  8 13  2  0  0  0
  9 15  2  0  0  0
 11 14  2  0  0  0
 12 16  2  0  0  0
 13 14  1  0  0  0
 15 16  1  0  0  0
  2 17  1  0  0  0
M  END
> <minimizedAffinity>
-7.90775

$$$$
Urolithin B


 17 19  0  0  0  0  0  0  0  0999 V2000
    5.8667   21.8752   52.4019 O   0  0  0  0  0  0  0  0  0  0  0  0
    3.7139   26.0207   52.0734 O   0  0  0  0  0  0  0  0  0  0  0  0
    6.9135   19.9568   52.6980 O   0  0  0  0  0  0  0  0  0  0  0  0
    5.2527   21.2740   49.8129 C   0  0  0  0  0  0  0  0  0  0  0  0
    4.8560   22.4700   50.3569 C   0  0  0  0  0  0  0  0  0  0  0  0
    5.9610   20.4153   50.6275 C   0  0  0  0  0  0  0  0  0  0  0  0
    5.1902   22.7220   51.6608 C   0  0  0  0  0  0  0  0  0  0  0  0
    4.1467   23.3736   49.6017 C   0  0  0  0  0  0  0  0  0  0  0  0
    4.9512   20.9561   48.5095 C   0  0  0  0  0  0  0  0  0  0  0  0
    6.2682   20.7236   51.9339 C   0  0  0  0  0  0  0  0  0  0  0  0
    4.8262   23.9132   52.2914 C   0  0  0  0  0  0  0  0  0  0  0  0
    6.4000   19.1883   50.1607 C   0  0  0  0  0  0  0  0  0  0  0  0
    3.7727   24.5724   50.2143 C   0  0  0  0  0  0  0  0  0  0  0  0
    4.1178   24.8074   51.5259 C   0  0  0  0  0  0  0  0  0  0  0  0
    5.3846   19.7308   48.0289 C   0  0  0  0  0  0  0  0  0  0  0  0
    6.0922   18.8808   48.8541 C   0  0  0  0  0  0  0  0  0  0  0  0
    2.8032   26.4484   51.8891 H   0  0  0  0  0  0  0  0  0  0  0  0
  1  7  1  0  0  0
  1 10  1  0  0  0
  2 14  1  0  0  0
  3 10  2  0  0  0
  4  5  1  0  0  0
  4  6  2  0  0  0
  4  9  1  0  0  0
  5  7  2  0  0  0
  5  8  1  0  0  0
  6 10  1  0  0  0
  6 12  1  0  0  0
  7 11  1  0  0  0
  8 13  2  0  0  0
  9 15  2  0  0  0
 11 14  2  0  0  0
 12 16  2  0  0  0
 13 14  1  0  0  0
 15 16  1  0  0  0
  2 17  1  0  0  0
M  END
> <minimizedAffinity>
-7.89347

$$$$
Urolithin B


 17 19  0  0  0  0  0  0  0  0999 V2000
    6.6387   19.2791   47.3694 O   0  0  0  0  0  0  0  0  0  0  0  0
    4.9131   16.4282   44.0797 O   0  0  0  0  0  0  0  0  0  0  0  0
    7.5462   20.6743   48.8164 O   0  0  0  0  0  0  0  0  0  0  0  0
    4.8942   18.3046   49.2263 C   0  0  0  0  0  0  0  0  0  0  0  0
    4.8796   17.8183   47.9429 C   0  0  0  0  0  0  0  0  0  0  0  0
    5.8165   19.2881   49.5171 C   0  0  0  0  0  0  0  0  0  0  0  0
    5.7763   18.3419   47.0501 C   0  0  0  0  0  0  0  0  0  0  0  0
    3.9863   16.8370   47.5836 C   0  0  0  0  0  0  0  0  0  0  0  0
    4.0214   17.8237   50.1739 C   0  0  0  0  0  0  0  0  0  0  0  0
    6.6948   19.7767   48.5759 C   0  0  0  0  0  0  0  0  0  0  0  0
    5.8289   17.9044   45.7254 C   0  0  0  0  0  0  0  0  0  0  0  0
    5.9005   19.8350   50.7859 C   0  0  0  0  0  0  0  0  0  0  0  0
    4.0226   16.3851   46.2620 C   0  0  0  0  0  0  0  0  0  0  0  0
    4.9312   16.9238   45.3793 C   0  0  0  0  0  0  0  0  0  0  0  0
    4.0944   18.3623   51.4487 C   0  0  0  0  0  0  0  0  0  0  0  0
    5.0215   19.3458   51.7266 C   0  0  0  0  0  0  0  0  0  0  0  0
    4.0537   16.2020   43.5732 H   0  0  0  0  0  0  0  0  0  0  0  0
  1  7  1  0  0  0
  1 10  1  0  0  0
  2 14  1  0  0  0
  3 10  2  0  0  0
  4  5  1  0  0  0
  4  6  2  0  0  0
  4  9  1  0  0  0
  5  7  2  0  0  0
  5  8  1  0  0  0
  6 10  1  0  0  0
  6 12  1  0  0  0
  7 11  1  0  0  0
  8 13  2  0  0  0
  9 15  2  0  0  0
 11 14  2  0  0  0
 12 16  2  0  0  0
 13 14  1  0  0  0
 15 16  1  0  0  0
  2 17  1  0  0  0
M  END
> <minimizedAffinity>
-7.78969

$$$$
