WAY-311103


 30 33  0  0  0  0  0  0  0  0999 V2000
    5.8511   23.6615   49.3392 C   0  0  0  0  0  0  0  0  0  0  0  0
    7.1944   23.8361   49.1658 C   0  0  0  0  0  0  0  0  0  0  0  0
    5.1153   24.6345   49.8692 C   0  0  0  0  0  0  0  0  0  0  0  0
    5.4040   22.3849   48.9007 C   0  0  0  0  0  0  0  0  0  0  0  0
    8.0495   22.9470   48.6481 N   0  0  0  0  0  0  0  0  0  0  0  0
    7.5444   25.5323   49.7918 S   0  0  0  0  0  0  0  0  0  0  0  0
    5.7567   25.8290   50.2378 C   0  0  0  0  0  0  0  0  0  0  0  0
    3.6359   24.7116   50.1802 C   0  0  0  0  0  0  0  0  0  0  0  0
    6.2839   21.5202   48.3884 N   0  0  0  0  0  0  0  0  0  0  0  0
    4.2080   22.0440   48.9794 O   0  0  0  0  0  0  0  0  0  0  0  0
    7.5972   21.7526   48.2440 C   0  0  0  0  0  0  0  0  0  0  0  0
    5.0822   26.9339   50.8087 C   0  0  0  0  0  0  0  0  0  0  0  0
    3.4258   25.2832   51.5293 C   0  0  0  0  0  0  0  0  0  0  0  0
    4.1268   26.5341   51.8810 C   0  0  0  0  0  0  0  0  0  0  0  0
    5.8049   20.2508   47.9584 C   0  0  0  0  0  0  0  0  0  0  0  0
    5.3102   20.0572   46.6886 C   0  0  0  0  0  0  0  0  0  0  0  0
    5.8436   19.1939   48.8498 C   0  0  0  0  0  0  0  0  0  0  0  0
    4.8583   18.8109   46.3190 C   0  0  0  0  0  0  0  0  0  0  0  0
    5.3923   17.9387   48.4885 C   0  0  0  0  0  0  0  0  0  0  0  0
    4.8993   17.7608   47.2121 C   0  0  0  0  0  0  0  0  0  0  0  0
    4.4523   16.4952   46.8710 O   0  0  0  0  0  0  0  0  0  0  0  0
    4.4795   16.0551   45.5283 C   0  0  0  0  0  0  0  0  0  0  0  0
    5.8169   15.4081   45.2681 C   0  0  0  0  0  0  0  0  0  0  0  0
    8.7173   20.5583   47.5539 S   0  0  0  0  0  0  0  0  0  0  0  0
    9.1856   21.0245   45.8888 C   0  0  0  0  0  0  0  0  0  0  0  0
   10.4335   21.8331   45.9466 C   0  0  0  0  0  0  0  0  0  0  0  0
   10.4887   23.0028   46.7637 N   0  0  0  0  0  0  0  0  0  0  0  0
   11.4590   21.5046   45.2808 O   0  0  0  0  0  0  0  0  0  0  0  0
    9.6203   23.5028   47.0756 H   0  0  0  0  0  0  0  0  0  0  0  0
   11.4199   23.3789   47.0649 H   0  0  0  0  0  0  0  0  0  0  0  0
  1  2  2  0  0  0
  1  3  1  0  0  0
  1  4  1  0  0  0
  2  5  2  0  0  0
  2  6  1  0  0  0
  3  7  2  0  0  0
  3  8  1  0  0  0
  4  9  1  0  0  0
  4 10  2  0  0  0
  5 11  2  0  0  0
  6  7  1  0  0  0
  7 12  1  0  0  0
  8 13  1  0  0  0
  9 15  1  0  0  0
  9 11  1  0  0  0
 11 24  1  0  0  0
 12 14  1  0  0  0
 13 14  1  0  0  0
 15 16  2  0  0  0
 15 17  1  0  0  0
 24 25  1  0  0  0
 16 18  1  0  0  0
 17 19  2  0  0  0
 25 26  1  0  0  0
 18 20  2  0  0  0
 19 20  1  0  0  0
 26 27  1  0  0  0
 26 28  2  0  0  0
 20 21  1  0  0  0
 21 22  1  0  0  0
 22 23  1  0  0  0
 27 29  1  0  0  0
 27 30  1  0  0  0
M  END
> <minimizedAffinity>
-8.47199

$$$$
WAY-311103


 30 33  0  0  0  0  0  0  0  0999 V2000
    5.9696   23.0102   49.7180 C   0  0  0  0  0  0  0  0  0  0  0  0
    4.9382   22.8482   50.5983 C   0  0  0  0  0  0  0  0  0  0  0  0
    6.7369   24.0947   49.7823 C   0  0  0  0  0  0  0  0  0  0  0  0
    6.0823   21.9286   48.8020 C   0  0  0  0  0  0  0  0  0  0  0  0
    4.0923   21.8130   50.6472 N   0  0  0  0  0  0  0  0  0  0  0  0
    4.9823   24.3437   51.6722 S   0  0  0  0  0  0  0  0  0  0  0  0
    6.4550   25.0521   50.7713 C   0  0  0  0  0  0  0  0  0  0  0  0
    7.9199   24.5323   48.9455 C   0  0  0  0  0  0  0  0  0  0  0  0
    5.2215   20.9100   48.8780 N   0  0  0  0  0  0  0  0  0  0  0  0
    6.9656   21.8998   47.9235 O   0  0  0  0  0  0  0  0  0  0  0  0
    4.2247   20.8091   49.7702 C   0  0  0  0  0  0  0  0  0  0  0  0
    7.1994   26.2434   50.9400 C   0  0  0  0  0  0  0  0  0  0  0  0
    7.7889   25.9611   48.5819 C   0  0  0  0  0  0  0  0  0  0  0  0
    7.4816   26.9339   49.6492 C   0  0  0  0  0  0  0  0  0  0  0  0
    5.3608   19.8425   47.9470 C   0  0  0  0  0  0  0  0  0  0  0  0
    5.9900   18.6660   48.2853 C   0  0  0  0  0  0  0  0  0  0  0  0
    4.8462   20.0055   46.6735 C   0  0  0  0  0  0  0  0  0  0  0  0
    6.1004   17.6621   47.3502 C   0  0  0  0  0  0  0  0  0  0  0  0
    4.9518   19.0039   45.7274 C   0  0  0  0  0  0  0  0  0  0  0  0
    5.5853   17.8304   46.0820 C   0  0  0  0  0  0  0  0  0  0  0  0
    5.6803   16.8398   45.1188 O   0  0  0  0  0  0  0  0  0  0  0  0
    5.3215   15.5053   45.4146 C   0  0  0  0  0  0  0  0  0  0  0  0
    6.3199   14.5880   44.7537 C   0  0  0  0  0  0  0  0  0  0  0  0
    3.1110   19.4254   49.8191 S   0  0  0  0  0  0  0  0  0  0  0  0
    3.7048   18.1808   50.9626 C   0  0  0  0  0  0  0  0  0  0  0  0
    4.7490   18.7847   51.8340 C   0  0  0  0  0  0  0  0  0  0  0  0
    4.3720   19.4776   53.0242 N   0  0  0  0  0  0  0  0  0  0  0  0
    5.9777   18.6974   51.5417 O   0  0  0  0  0  0  0  0  0  0  0  0
    3.4041   19.8598   53.1603 H   0  0  0  0  0  0  0  0  0  0  0  0
    5.0768   19.6125   53.7886 H   0  0  0  0  0  0  0  0  0  0  0  0
  1  2  2  0  0  0
  1  3  1  0  0  0
  1  4  1  0  0  0
  2  5  2  0  0  0
  2  6  1  0  0  0
  3  7  2  0  0  0
  3  8  1  0  0  0
  4  9  1  0  0  0
  4 10  2  0  0  0
  5 11  2  0  0  0
  6  7  1  0  0  0
  7 12  1  0  0  0
  8 13  1  0  0  0
  9 15  1  0  0  0
  9 11  1  0  0  0
 11 24  1  0  0  0
 12 14  1  0  0  0
 13 14  1  0  0  0
 15 16  2  0  0  0
 15 17  1  0  0  0
 24 25  1  0  0  0
 16 18  1  0  0  0
 17 19  2  0  0  0
 25 26  1  0  0  0
 18 20  2  0  0  0
 19 20  1  0  0  0
 26 27  1  0  0  0
 26 28  2  0  0  0
 20 21  1  0  0  0
 21 22  1  0  0  0
 22 23  1  0  0  0
 27 29  1  0  0  0
 27 30  1  0  0  0
M  END
> <minimizedAffinity>
-7.63988

$$$$
WAY-311103


 30 33  0  0  0  0  0  0  0  0999 V2000
    5.2959   17.4337   46.3859 C   0  0  0  0  0  0  0  0  0  0  0  0
    4.2918   16.9452   47.1722 C   0  0  0  0  0  0  0  0  0  0  0  0
    5.6191   16.8126   45.2550 C   0  0  0  0  0  0  0  0  0  0  0  0
    5.8884   18.6096   46.9224 C   0  0  0  0  0  0  0  0  0  0  0  0
    3.8648   17.4661   48.3280 N   0  0  0  0  0  0  0  0  0  0  0  0
    3.6795   15.4459   46.2955 S   0  0  0  0  0  0  0  0  0  0  0  0
    4.9034   15.6560   44.9025 C   0  0  0  0  0  0  0  0  0  0  0  0
    6.6744   17.1187   44.2138 C   0  0  0  0  0  0  0  0  0  0  0  0
    5.4383   19.1039   48.0788 N   0  0  0  0  0  0  0  0  0  0  0  0
    6.8215   19.1989   46.3437 O   0  0  0  0  0  0  0  0  0  0  0  0
    4.4436   18.5751   48.8072 C   0  0  0  0  0  0  0  0  0  0  0  0
    5.1535   14.9109   43.7260 C   0  0  0  0  0  0  0  0  0  0  0  0
    7.3966   15.8823   43.8386 C   0  0  0  0  0  0  0  0  0  0  0  0
    6.6074   14.6856   43.4851 C   0  0  0  0  0  0  0  0  0  0  0  0
    6.0521   20.2822   48.5893 C   0  0  0  0  0  0  0  0  0  0  0  0
    5.4256   21.5065   48.5320 C   0  0  0  0  0  0  0  0  0  0  0  0
    7.3104   20.1796   49.1544 C   0  0  0  0  0  0  0  0  0  0  0  0
    6.0597   22.6178   49.0390 C   0  0  0  0  0  0  0  0  0  0  0  0
    7.9556   21.2893   49.6663 C   0  0  0  0  0  0  0  0  0  0  0  0
    7.3143   22.5093   49.6013 C   0  0  0  0  0  0  0  0  0  0  0  0
    7.9787   23.6083   50.1199 O   0  0  0  0  0  0  0  0  0  0  0  0
    7.4133   24.3675   51.1693 C   0  0  0  0  0  0  0  0  0  0  0  0
    7.6101   23.6127   52.4603 C   0  0  0  0  0  0  0  0  0  0  0  0
    3.8905   19.2821   50.3408 S   0  0  0  0  0  0  0  0  0  0  0  0
    4.9479   18.7620   51.6901 C   0  0  0  0  0  0  0  0  0  0  0  0
    5.6436   19.9545   52.2455 C   0  0  0  0  0  0  0  0  0  0  0  0
    4.9885   21.2231   52.2545 N   0  0  0  0  0  0  0  0  0  0  0  0
    6.8161   19.8695   52.7156 O   0  0  0  0  0  0  0  0  0  0  0  0
    4.1831   21.4358   51.6161 H   0  0  0  0  0  0  0  0  0  0  0  0
    5.3157   21.9688   52.9150 H   0  0  0  0  0  0  0  0  0  0  0  0
  1  2  2  0  0  0
  1  3  1  0  0  0
  1  4  1  0  0  0
  2  5  2  0  0  0
  2  6  1  0  0  0
  3  7  2  0  0  0
  3  8  1  0  0  0
  4  9  1  0  0  0
  4 10  2  0  0  0
  5 11  2  0  0  0
  6  7  1  0  0  0
  7 12  1  0  0  0
  8 13  1  0  0  0
  9 15  1  0  0  0
  9 11  1  0  0  0
 11 24  1  0  0  0
 12 14  1  0  0  0
 13 14  1  0  0  0
 15 16  2  0  0  0
 15 17  1  0  0  0
 24 25  1  0  0  0
 16 18  1  0  0  0
 17 19  2  0  0  0
 25 26  1  0  0  0
 18 20  2  0  0  0
 19 20  1  0  0  0
 26 27  1  0  0  0
 26 28  2  0  0  0
 20 21  1  0  0  0
 21 22  1  0  0  0
 22 23  1  0  0  0
 27 29  1  0  0  0
 27 30  1  0  0  0
M  END
> <minimizedAffinity>
-7.05165

$$$$
WAY-311103


 30 33  0  0  0  0  0  0  0  0999 V2000
    5.4381   17.1125   46.0726 C   0  0  0  0  0  0  0  0  0  0  0  0
    4.3590   16.7064   46.8046 C   0  0  0  0  0  0  0  0  0  0  0  0
    5.7565   16.4794   44.9470 C   0  0  0  0  0  0  0  0  0  0  0  0
    6.1078   18.2233   46.6550 C   0  0  0  0  0  0  0  0  0  0  0  0
    3.9272   17.2488   47.9486 N   0  0  0  0  0  0  0  0  0  0  0  0
    3.6565   15.2797   45.8760 S   0  0  0  0  0  0  0  0  0  0  0  0
    4.9574   15.3966   44.5432 C   0  0  0  0  0  0  0  0  0  0  0  0
    6.8820   16.7025   43.9597 C   0  0  0  0  0  0  0  0  0  0  0  0
    5.6507   18.7413   47.7982 N   0  0  0  0  0  0  0  0  0  0  0  0
    7.1157   18.7335   46.1289 O   0  0  0  0  0  0  0  0  0  0  0  0
    4.5801   18.2949   48.4721 C   0  0  0  0  0  0  0  0  0  0  0  0
    5.1941   14.6471   43.3667 C   0  0  0  0  0  0  0  0  0  0  0  0
    7.5074   15.4111   43.5964 C   0  0  0  0  0  0  0  0  0  0  0  0
    6.6316   14.2949   43.1876 C   0  0  0  0  0  0  0  0  0  0  0  0
    6.3431   19.8529   48.3556 C   0  0  0  0  0  0  0  0  0  0  0  0
    7.1226   19.7274   49.4831 C   0  0  0  0  0  0  0  0  0  0  0  0
    6.2203   21.0846   47.7382 C   0  0  0  0  0  0  0  0  0  0  0  0
    7.7730   20.8317   49.9849 C   0  0  0  0  0  0  0  0  0  0  0  0
    6.8691   22.1993   48.2341 C   0  0  0  0  0  0  0  0  0  0  0  0
    7.6468   22.0571   49.3650 C   0  0  0  0  0  0  0  0  0  0  0  0
    8.2880   23.1869   49.8451 O   0  0  0  0  0  0  0  0  0  0  0  0
    7.5502   24.2608   50.3926 C   0  0  0  0  0  0  0  0  0  0  0  0
    7.3662   24.0065   51.8679 C   0  0  0  0  0  0  0  0  0  0  0  0
    4.0220   19.0291   49.9909 S   0  0  0  0  0  0  0  0  0  0  0  0
    2.5396   19.9961   49.7141 C   0  0  0  0  0  0  0  0  0  0  0  0
    2.8758   21.1580   48.8473 C   0  0  0  0  0  0  0  0  0  0  0  0
    2.7912   21.0368   47.4270 N   0  0  0  0  0  0  0  0  0  0  0  0
    3.2393   22.2639   49.3450 O   0  0  0  0  0  0  0  0  0  0  0  0
    2.8141   20.1035   46.9478 H   0  0  0  0  0  0  0  0  0  0  0  0
    2.7034   21.9007   46.8393 H   0  0  0  0  0  0  0  0  0  0  0  0
  1  2  2  0  0  0
  1  3  1  0  0  0
  1  4  1  0  0  0
  2  5  2  0  0  0
  2  6  1  0  0  0
  3  7  2  0  0  0
  3  8  1  0  0  0
  4  9  1  0  0  0
  4 10  2  0  0  0
  5 11  2  0  0  0
  6  7  1  0  0  0
  7 12  1  0  0  0
  8 13  1  0  0  0
  9 15  1  0  0  0
  9 11  1  0  0  0
 11 24  1  0  0  0
 12 14  1  0  0  0
 13 14  1  0  0  0
 15 16  2  0  0  0
 15 17  1  0  0  0
 24 25  1  0  0  0
 16 18  1  0  0  0
 17 19  2  0  0  0
 25 26  1  0  0  0
 18 20  2  0  0  0
 19 20  1  0  0  0
 26 27  1  0  0  0
 26 28  2  0  0  0
 20 21  1  0  0  0
 21 22  1  0  0  0
 22 23  1  0  0  0
 27 29  1  0  0  0
 27 30  1  0  0  0
M  END
> <minimizedAffinity>
-6.69252

$$$$
WAY-311103


 30 33  0  0  0  0  0  0  0  0999 V2000
    6.4969   22.8623   49.9732 C   0  0  0  0  0  0  0  0  0  0  0  0
    5.7440   22.5669   51.0736 C   0  0  0  0  0  0  0  0  0  0  0  0
    7.1363   24.0261   49.8957 C   0  0  0  0  0  0  0  0  0  0  0  0
    6.4888   21.8181   49.0082 C   0  0  0  0  0  0  0  0  0  0  0  0
    5.0524   21.4411   51.2825 N   0  0  0  0  0  0  0  0  0  0  0  0
    5.8988   24.0370   52.1719 S   0  0  0  0  0  0  0  0  0  0  0  0
    7.0131   24.9261   50.9676 C   0  0  0  0  0  0  0  0  0  0  0  0
    8.0168   24.6117   48.8126 C   0  0  0  0  0  0  0  0  0  0  0  0
    5.7879   20.7066   49.2478 N   0  0  0  0  0  0  0  0  0  0  0  0
    7.1200   21.9071   47.9373 O   0  0  0  0  0  0  0  0  0  0  0  0
    5.0648   20.4756   50.3539 C   0  0  0  0  0  0  0  0  0  0  0  0
    7.6455   26.1913   51.0018 C   0  0  0  0  0  0  0  0  0  0  0  0
    7.6477   26.0228   48.5606 C   0  0  0  0  0  0  0  0  0  0  0  0
    7.5182   26.9337   49.7153 C   0  0  0  0  0  0  0  0  0  0  0  0
    5.8002   19.6798   48.2622 C   0  0  0  0  0  0  0  0  0  0  0  0
    5.4834   19.9361   46.9475 C   0  0  0  0  0  0  0  0  0  0  0  0
    6.1410   18.3965   48.6497 C   0  0  0  0  0  0  0  0  0  0  0  0
    5.5093   18.9100   46.0306 C   0  0  0  0  0  0  0  0  0  0  0  0
    6.1700   17.3594   47.7370 C   0  0  0  0  0  0  0  0  0  0  0  0
    5.8499   17.6324   46.4229 C   0  0  0  0  0  0  0  0  0  0  0  0
    5.8851   16.5787   45.5249 O   0  0  0  0  0  0  0  0  0  0  0  0
    4.6942   16.0667   44.9621 C   0  0  0  0  0  0  0  0  0  0  0  0
    3.7802   15.6475   46.0864 C   0  0  0  0  0  0  0  0  0  0  0  0
    4.1525   18.9730   50.6129 S   0  0  0  0  0  0  0  0  0  0  0  0
    2.4314   19.1984   50.1704 C   0  0  0  0  0  0  0  0  0  0  0  0
    2.3576   19.8527   48.8359 C   0  0  0  0  0  0  0  0  0  0  0  0
    2.2434   21.2730   48.7428 N   0  0  0  0  0  0  0  0  0  0  0  0
    2.3942   19.1720   47.7690 O   0  0  0  0  0  0  0  0  0  0  0  0
    1.8931   21.8547   49.5429 H   0  0  0  0  0  0  0  0  0  0  0  0
    2.5155   21.7558   47.8527 H   0  0  0  0  0  0  0  0  0  0  0  0
  1  2  2  0  0  0
  1  3  1  0  0  0
  1  4  1  0  0  0
  2  5  2  0  0  0
  2  6  1  0  0  0
  3  7  2  0  0  0
  3  8  1  0  0  0
  4  9  1  0  0  0
  4 10  2  0  0  0
  5 11  2  0  0  0
  6  7  1  0  0  0
  7 12  1  0  0  0
  8 13  1  0  0  0
  9 15  1  0  0  0
  9 11  1  0  0  0
 11 24  1  0  0  0
 12 14  1  0  0  0
 13 14  1  0  0  0
 15 16  2  0  0  0
 15 17  1  0  0  0
 24 25  1  0  0  0
 16 18  1  0  0  0
 17 19  2  0  0  0
 25 26  1  0  0  0
 18 20  2  0  0  0
 19 20  1  0  0  0
 26 27  1  0  0  0
 26 28  2  0  0  0
 20 21  1  0  0  0
 21 22  1  0  0  0
 22 23  1  0  0  0
 27 29  1  0  0  0
 27 30  1  0  0  0
M  END
> <minimizedAffinity>
-6.45250

$$$$
