WAY-332052


 29 31  0  0  0  0  0  0  0  0999 V2000
    6.8767   24.6490   49.9614 S   0  0  0  0  0  0  0  0  0  0  0  0
    6.4750   26.0815   49.5767 O   0  0  0  0  0  0  0  0  0  0  0  0
    7.1282   24.6395   51.7331 C   0  0  0  0  0  0  0  0  0  0  0  0
    7.2774   23.2445   52.1957 C   0  0  0  0  0  0  0  0  0  0  0  0
    6.4166   22.2640   51.6739 N   0  0  0  0  0  0  0  0  0  0  0  0
    8.1664   22.9972   53.0341 O   0  0  0  0  0  0  0  0  0  0  0  0
    5.6890   22.5547   50.9652 H   0  0  0  0  0  0  0  0  0  0  0  0
    6.4345   20.8640   52.0258 C   0  0  0  0  0  0  0  0  0  0  0  0
    3.2360   19.1455   49.8565 C   0  0  0  0  0  0  0  0  0  0  0  0
    5.3341   20.1804   51.3089 C   0  0  0  0  0  0  0  0  0  0  0  0
    2.1937   18.6650   49.1249 F   0  0  0  0  0  0  0  0  0  0  0  0
    3.9253   18.3379   50.7656 C   0  0  0  0  0  0  0  0  0  0  0  0
    3.5749   20.4626   49.6580 C   0  0  0  0  0  0  0  0  0  0  0  0
    4.9797   18.8713   51.4904 C   0  0  0  0  0  0  0  0  0  0  0  0
    4.6248   20.9622   50.3916 C   0  0  0  0  0  0  0  0  0  0  0  0
    8.3966   24.2325   49.0924 C   0  0  0  0  0  0  0  0  0  0  0  0
    7.1189   22.1192   48.4015 N   0  0  0  0  0  0  0  0  0  0  0  0
    8.1559   22.9738   48.3388 C   0  0  0  0  0  0  0  0  0  0  0  0
    7.3225   21.0987   47.5217 C   0  0  0  0  0  0  0  0  0  0  0  0
    8.4717   21.3422   46.9393 O   0  0  0  0  0  0  0  0  0  0  0  0
    9.0045   22.4419   47.3893 C   0  0  0  0  0  0  0  0  0  0  0  0
   10.2953   23.0635   46.9893 C   0  0  0  0  0  0  0  0  0  0  0  0
    6.4228   19.9669   47.2902 C   0  0  0  0  0  0  0  0  0  0  0  0
    5.4010   20.0013   46.3621 C   0  0  0  0  0  0  0  0  0  0  0  0
    6.6157   18.8224   48.0346 C   0  0  0  0  0  0  0  0  0  0  0  0
    4.6192   18.8704   46.2312 C   0  0  0  0  0  0  0  0  0  0  0  0
    5.8341   17.6918   47.9037 C   0  0  0  0  0  0  0  0  0  0  0  0
    4.8117   17.7240   46.9762 C   0  0  0  0  0  0  0  0  0  0  0  0
    3.9741   16.5119   46.8365 C   0  0  0  0  0  0  0  0  0  0  0  0
 18 17  2  0  0  0
 19 17  2  0  0  0
 20 19  1  0  0  0
 21 18  2  0  0  0
 21 20  1  0  0  0
  1 16  1  0  0  0
 16 18  1  0  0  0
  3  1  1  0  0  0
  4  3  1  0  0  0
 23 19  1  0  0  0
  5  4  1  0  0  0
  2  1  2  0  0  0
  6  4  2  0  0  0
 24 23  2  0  0  0
 25 23  1  0  0  0
  8  5  1  0  0  0
  9 13  2  0  0  0
  9 12  1  0  0  0
 10  8  1  0  0  0
 26 24  1  0  0  0
 27 25  2  0  0  0
 28 27  1  0  0  0
 28 26  2  0  0  0
 11  9  1  0  0  0
 12 14  2  0  0  0
 13 15  1  0  0  0
 14 10  1  0  0  0
 15 10  2  0  0  0
 22 21  1  0  0  0
 29 28  1  0  0  0
  5  7  1  0  0  0
M  END
> <minimizedAffinity>
-8.70901

$$$$
WAY-332052


 29 31  0  0  0  0  0  0  0  0999 V2000
    7.1244   22.6286   51.8957 S   0  0  0  0  0  0  0  0  0  0  0  0
    7.8578   22.3181   53.2100 O   0  0  0  0  0  0  0  0  0  0  0  0
    6.9417   24.4067   51.8120 C   0  0  0  0  0  0  0  0  0  0  0  0
    7.5625   24.9013   50.5661 C   0  0  0  0  0  0  0  0  0  0  0  0
    8.0148   23.9666   49.6194 N   0  0  0  0  0  0  0  0  0  0  0  0
    7.6584   26.1344   50.4087 O   0  0  0  0  0  0  0  0  0  0  0  0
    7.8958   22.9376   49.8273 H   0  0  0  0  0  0  0  0  0  0  0  0
    8.6423   24.2900   48.3601 C   0  0  0  0  0  0  0  0  0  0  0  0
    9.5543   20.8178   46.1235 C   0  0  0  0  0  0  0  0  0  0  0  0
    8.8848   23.0340   47.6143 C   0  0  0  0  0  0  0  0  0  0  0  0
    9.9124   19.7394   45.3743 F   0  0  0  0  0  0  0  0  0  0  0  0
    8.3911   20.8163   46.8986 C   0  0  0  0  0  0  0  0  0  0  0  0
   10.3916   21.9068   46.0785 C   0  0  0  0  0  0  0  0  0  0  0  0
    8.0656   21.9385   47.6444 C   0  0  0  0  0  0  0  0  0  0  0  0
   10.0416   23.0042   46.8290 C   0  0  0  0  0  0  0  0  0  0  0  0
    5.5187   21.8168   51.9358 C   0  0  0  0  0  0  0  0  0  0  0  0
    5.5224   20.2271   49.9236 N   0  0  0  0  0  0  0  0  0  0  0  0
    5.2025   21.3723   50.5528 C   0  0  0  0  0  0  0  0  0  0  0  0
    5.0158   20.2514   48.6588 C   0  0  0  0  0  0  0  0  0  0  0  0
    4.3991   21.4019   48.5344 O   0  0  0  0  0  0  0  0  0  0  0  0
    4.4814   22.1017   49.6294 C   0  0  0  0  0  0  0  0  0  0  0  0
    3.9189   23.4525   49.8963 C   0  0  0  0  0  0  0  0  0  0  0  0
    5.1466   19.1920   47.6565 C   0  0  0  0  0  0  0  0  0  0  0  0
    4.9567   19.4119   46.3067 C   0  0  0  0  0  0  0  0  0  0  0  0
    5.4766   17.9257   48.0909 C   0  0  0  0  0  0  0  0  0  0  0  0
    5.1103   18.3344   45.4566 C   0  0  0  0  0  0  0  0  0  0  0  0
    5.6302   16.8485   47.2411 C   0  0  0  0  0  0  0  0  0  0  0  0
    5.4407   17.0660   45.8907 C   0  0  0  0  0  0  0  0  0  0  0  0
    5.6053   15.9109   44.9802 C   0  0  0  0  0  0  0  0  0  0  0  0
 18 17  2  0  0  0
 19 17  2  0  0  0
 20 19  1  0  0  0
 21 18  2  0  0  0
 21 20  1  0  0  0
  1 16  1  0  0  0
 16 18  1  0  0  0
  3  1  1  0  0  0
  4  3  1  0  0  0
 23 19  1  0  0  0
  5  4  1  0  0  0
  2  1  2  0  0  0
  6  4  2  0  0  0
 24 23  2  0  0  0
 25 23  1  0  0  0
  8  5  1  0  0  0
  9 13  2  0  0  0
  9 12  1  0  0  0
 10  8  1  0  0  0
 26 24  1  0  0  0
 27 25  2  0  0  0
 28 27  1  0  0  0
 28 26  2  0  0  0
 11  9  1  0  0  0
 12 14  2  0  0  0
 13 15  1  0  0  0
 14 10  1  0  0  0
 15 10  2  0  0  0
 22 21  1  0  0  0
 29 28  1  0  0  0
  5  7  1  0  0  0
M  END
> <minimizedAffinity>
-8.57920

$$$$
WAY-332052


 29 31  0  0  0  0  0  0  0  0999 V2000
    7.1819   25.0099   49.9657 S   0  0  0  0  0  0  0  0  0  0  0  0
    7.9166   26.3449   50.1650 O   0  0  0  0  0  0  0  0  0  0  0  0
    5.9578   24.8931   51.2657 C   0  0  0  0  0  0  0  0  0  0  0  0
    4.7004   24.3595   50.7032 C   0  0  0  0  0  0  0  0  0  0  0  0
    4.7612   23.2428   49.8524 N   0  0  0  0  0  0  0  0  0  0  0  0
    3.6337   24.9273   51.0103 O   0  0  0  0  0  0  0  0  0  0  0  0
    5.7053   22.8180   49.6416 H   0  0  0  0  0  0  0  0  0  0  0  0
    3.6267   22.6085   49.2243 C   0  0  0  0  0  0  0  0  0  0  0  0
    3.6969   18.6123   50.6081 C   0  0  0  0  0  0  0  0  0  0  0  0
    3.5787   21.1915   49.6511 C   0  0  0  0  0  0  0  0  0  0  0  0
    3.7820   17.3465   51.1010 F   0  0  0  0  0  0  0  0  0  0  0  0
    2.7718   18.9505   49.6164 C   0  0  0  0  0  0  0  0  0  0  0  0
    4.5659   19.5390   51.1326 C   0  0  0  0  0  0  0  0  0  0  0  0
    2.7227   20.2526   49.1433 C   0  0  0  0  0  0  0  0  0  0  0  0
    4.4927   20.8216   50.6428 C   0  0  0  0  0  0  0  0  0  0  0  0
    8.3837   23.6761   50.0903 C   0  0  0  0  0  0  0  0  0  0  0  0
    7.1344   21.6979   49.0406 N   0  0  0  0  0  0  0  0  0  0  0  0
    8.0586   22.6754   49.0400 C   0  0  0  0  0  0  0  0  0  0  0  0
    7.1904   21.0245   47.8571 C   0  0  0  0  0  0  0  0  0  0  0  0
    8.1404   21.5954   47.1566 O   0  0  0  0  0  0  0  0  0  0  0  0
    8.6850   22.5787   47.8140 C   0  0  0  0  0  0  0  0  0  0  0  0
    9.7888   23.4733   47.3739 C   0  0  0  0  0  0  0  0  0  0  0  0
    6.3472   19.8924   47.4680 C   0  0  0  0  0  0  0  0  0  0  0  0
    5.4332   19.9608   46.4352 C   0  0  0  0  0  0  0  0  0  0  0  0
    6.4825   18.7123   48.1682 C   0  0  0  0  0  0  0  0  0  0  0  0
    4.6960   18.8260   46.1591 C   0  0  0  0  0  0  0  0  0  0  0  0
    5.7456   17.5780   47.8921 C   0  0  0  0  0  0  0  0  0  0  0  0
    4.8310   17.6439   46.8597 C   0  0  0  0  0  0  0  0  0  0  0  0
    4.0411   16.4277   46.5643 C   0  0  0  0  0  0  0  0  0  0  0  0
 18 17  2  0  0  0
 19 17  2  0  0  0
 20 19  1  0  0  0
 21 18  2  0  0  0
 21 20  1  0  0  0
  1 16  1  0  0  0
 16 18  1  0  0  0
  3  1  1  0  0  0
  4  3  1  0  0  0
 23 19  1  0  0  0
  5  4  1  0  0  0
  2  1  2  0  0  0
  6  4  2  0  0  0
 24 23  2  0  0  0
 25 23  1  0  0  0
  8  5  1  0  0  0
  9 13  2  0  0  0
  9 12  1  0  0  0
 10  8  1  0  0  0
 26 24  1  0  0  0
 27 25  2  0  0  0
 28 27  1  0  0  0
 28 26  2  0  0  0
 11  9  1  0  0  0
 12 14  2  0  0  0
 13 15  1  0  0  0
 14 10  1  0  0  0
 15 10  2  0  0  0
 22 21  1  0  0  0
 29 28  1  0  0  0
  5  7  1  0  0  0
M  END
> <minimizedAffinity>
-8.56630

$$$$
WAY-332052


 29 31  0  0  0  0  0  0  0  0999 V2000
    6.1797   20.0694   51.3755 S   0  0  0  0  0  0  0  0  0  0  0  0
    6.8247   20.0705   52.7703 O   0  0  0  0  0  0  0  0  0  0  0  0
    5.6700   21.7514   51.0391 C   0  0  0  0  0  0  0  0  0  0  0  0
    5.6500   21.9706   49.5783 C   0  0  0  0  0  0  0  0  0  0  0  0
    6.3221   21.0570   48.7488 N   0  0  0  0  0  0  0  0  0  0  0  0
    5.0335   22.9631   49.1432 O   0  0  0  0  0  0  0  0  0  0  0  0
    6.8209   20.2398   49.1957 H   0  0  0  0  0  0  0  0  0  0  0  0
    6.3967   21.1343   47.3092 C   0  0  0  0  0  0  0  0  0  0  0  0
   10.3653   21.8997   46.0625 C   0  0  0  0  0  0  0  0  0  0  0  0
    7.7835   21.4816   46.9237 C   0  0  0  0  0  0  0  0  0  0  0  0
   11.6400   22.0767   45.6194 F   0  0  0  0  0  0  0  0  0  0  0  0
    9.7679   22.7992   46.9501 C   0  0  0  0  0  0  0  0  0  0  0  0
    9.6970   20.7932   45.5954 C   0  0  0  0  0  0  0  0  0  0  0  0
    8.4675   22.5770   47.3759 C   0  0  0  0  0  0  0  0  0  0  0  0
    8.4090   20.6006   46.0360 C   0  0  0  0  0  0  0  0  0  0  0  0
    4.7628   18.9603   51.4058 C   0  0  0  0  0  0  0  0  0  0  0  0
    5.0983   17.8907   49.0994 N   0  0  0  0  0  0  0  0  0  0  0  0
    4.4199   18.6267   49.9981 C   0  0  0  0  0  0  0  0  0  0  0  0
    4.3986   17.8499   47.9307 C   0  0  0  0  0  0  0  0  0  0  0  0
    3.3121   18.5560   48.1305 O   0  0  0  0  0  0  0  0  0  0  0  0
    3.2783   19.0371   49.3401 C   0  0  0  0  0  0  0  0  0  0  0  0
    2.2239   19.8845   49.9586 C   0  0  0  0  0  0  0  0  0  0  0  0
    4.8003   17.1501   46.7088 C   0  0  0  0  0  0  0  0  0  0  0  0
    5.7794   17.6281   45.8606 C   0  0  0  0  0  0  0  0  0  0  0  0
    4.1687   15.9629   46.4040 C   0  0  0  0  0  0  0  0  0  0  0  0
    6.0740   16.8782   44.7388 C   0  0  0  0  0  0  0  0  0  0  0  0
    4.4633   15.2132   45.2827 C   0  0  0  0  0  0  0  0  0  0  0  0
    5.4421   15.6893   44.4330 C   0  0  0  0  0  0  0  0  0  0  0  0
    5.7572   14.8855   43.2311 C   0  0  0  0  0  0  0  0  0  0  0  0
 18 17  2  0  0  0
 19 17  2  0  0  0
 20 19  1  0  0  0
 21 18  2  0  0  0
 21 20  1  0  0  0
  1 16  1  0  0  0
 16 18  1  0  0  0
  3  1  1  0  0  0
  4  3  1  0  0  0
 23 19  1  0  0  0
  5  4  1  0  0  0
  2  1  2  0  0  0
  6  4  2  0  0  0
 24 23  2  0  0  0
 25 23  1  0  0  0
  8  5  1  0  0  0
  9 13  2  0  0  0
  9 12  1  0  0  0
 10  8  1  0  0  0
 26 24  1  0  0  0
 27 25  2  0  0  0
 28 27  1  0  0  0
 28 26  2  0  0  0
 11  9  1  0  0  0
 12 14  2  0  0  0
 13 15  1  0  0  0
 14 10  1  0  0  0
 15 10  2  0  0  0
 22 21  1  0  0  0
 29 28  1  0  0  0
  5  7  1  0  0  0
M  END
> <minimizedAffinity>
-8.36045

$$$$
WAY-332052


 29 31  0  0  0  0  0  0  0  0999 V2000
    5.8935   22.2088   51.6143 S   0  0  0  0  0  0  0  0  0  0  0  0
    5.4966   22.5431   50.1679 O   0  0  0  0  0  0  0  0  0  0  0  0
    6.9821   23.5164   52.1684 C   0  0  0  0  0  0  0  0  0  0  0  0
    7.4784   24.2656   50.9959 C   0  0  0  0  0  0  0  0  0  0  0  0
    8.0753   23.5530   49.9421 N   0  0  0  0  0  0  0  0  0  0  0  0
    7.3447   25.5052   50.9933 O   0  0  0  0  0  0  0  0  0  0  0  0
    8.1501   22.5021   50.0202 H   0  0  0  0  0  0  0  0  0  0  0  0
    8.6091   24.1382   48.7351 C   0  0  0  0  0  0  0  0  0  0  0  0
    9.4379   20.8850   46.1622 C   0  0  0  0  0  0  0  0  0  0  0  0
    8.9716   23.0491   47.7998 C   0  0  0  0  0  0  0  0  0  0  0  0
    9.6418   19.7991   45.3673 F   0  0  0  0  0  0  0  0  0  0  0  0
   10.2909   21.9917   46.1217 C   0  0  0  0  0  0  0  0  0  0  0  0
    8.3542   20.8380   47.0062 C   0  0  0  0  0  0  0  0  0  0  0  0
   10.0448   23.0746   46.9514 C   0  0  0  0  0  0  0  0  0  0  0  0
    8.1369   21.9272   47.8165 C   0  0  0  0  0  0  0  0  0  0  0  0
    6.7397   20.6204   51.6184 C   0  0  0  0  0  0  0  0  0  0  0  0
    6.1678   19.2902   49.5019 N   0  0  0  0  0  0  0  0  0  0  0  0
    5.9534   19.6873   50.7692 C   0  0  0  0  0  0  0  0  0  0  0  0
    5.1874   18.4195   49.1308 C   0  0  0  0  0  0  0  0  0  0  0  0
    4.3944   18.2986   50.1680 O   0  0  0  0  0  0  0  0  0  0  0  0
    4.8059   19.0298   51.1638 C   0  0  0  0  0  0  0  0  0  0  0  0
    4.1901   19.1719   52.5103 C   0  0  0  0  0  0  0  0  0  0  0  0
    5.0649   17.7626   47.8280 C   0  0  0  0  0  0  0  0  0  0  0  0
    4.1150   16.7958   47.5642 C   0  0  0  0  0  0  0  0  0  0  0  0
    5.9391   18.1355   46.8290 C   0  0  0  0  0  0  0  0  0  0  0  0
    4.0952   16.2497   46.2958 C   0  0  0  0  0  0  0  0  0  0  0  0
    5.9192   17.5896   45.5611 C   0  0  0  0  0  0  0  0  0  0  0  0
    4.9701   16.6225   45.2950 C   0  0  0  0  0  0  0  0  0  0  0  0
    4.9494   16.0375   43.9357 C   0  0  0  0  0  0  0  0  0  0  0  0
 18 17  2  0  0  0
 19 17  2  0  0  0
 20 19  1  0  0  0
 21 18  2  0  0  0
 21 20  1  0  0  0
  1 16  1  0  0  0
 16 18  1  0  0  0
  3  1  1  0  0  0
  4  3  1  0  0  0
 23 19  1  0  0  0
  5  4  1  0  0  0
  2  1  2  0  0  0
  6  4  2  0  0  0
 24 23  2  0  0  0
 25 23  1  0  0  0
  8  5  1  0  0  0
  9 13  2  0  0  0
  9 12  1  0  0  0
 10  8  1  0  0  0
 26 24  1  0  0  0
 27 25  2  0  0  0
 28 27  1  0  0  0
 28 26  2  0  0  0
 11  9  1  0  0  0
 12 14  2  0  0  0
 13 15  1  0  0  0
 14 10  1  0  0  0
 15 10  2  0  0  0
 22 21  1  0  0  0
 29 28  1  0  0  0
  5  7  1  0  0  0
M  END
> <minimizedAffinity>
-8.23943

$$$$
