WAY-330342


 32 36  0  0  0  0  0  0  0  0999 V2000
    4.3573   16.9874   47.3859 C   0  0  0  0  0  0  0  0  0  0  0  0
    4.8738   18.2530   47.7424 N   0  0  0  0  0  0  0  0  0  0  0  0
    5.8111   20.7926   48.6408 N   0  0  0  0  0  0  0  0  0  0  0  0
    5.6401   19.1079   46.8645 C   0  0  0  0  0  0  0  0  0  0  0  0
    4.6186   18.7209   49.0916 C   0  0  0  0  0  0  0  0  0  0  0  0
    3.6867   16.3193   48.2412 O   0  0  0  0  0  0  0  0  0  0  0  0
    6.5427   19.9734   47.7101 C   0  0  0  0  0  0  0  0  0  0  0  0
    4.6094   20.2114   49.2281 C   0  0  0  0  0  0  0  0  0  0  0  0
    4.5202   16.3447   46.0935 C   0  0  0  0  0  0  0  0  0  0  0  0
    4.2455   16.0405   43.9595 C   0  0  0  0  0  0  0  0  0  0  0  0
    3.9430   16.8044   44.9995 O   0  0  0  0  0  0  0  0  0  0  0  0
    3.9145   16.0825   42.6585 N   0  0  0  0  0  0  0  0  0  0  0  0
    5.2379   15.2212   45.7471 C   0  0  0  0  0  0  0  0  0  0  0  0
    5.0663   15.0209   44.3845 C   0  0  0  0  0  0  0  0  0  0  0  0
    4.3719   15.1503   41.7808 C   0  0  0  0  0  0  0  0  0  0  0  0
    5.1961   14.1143   42.1726 C   0  0  0  0  0  0  0  0  0  0  0  0
    5.5522   14.0507   43.5141 C   0  0  0  0  0  0  0  0  0  0  0  0
    5.6468   13.1777   41.2695 C   0  0  0  0  0  0  0  0  0  0  0  0
    3.9750   15.2688   40.4441 C   0  0  0  0  0  0  0  0  0  0  0  0
    5.2624   13.2839   39.9513 C   0  0  0  0  0  0  0  0  0  0  0  0
    4.4329   14.3164   39.5260 C   0  0  0  0  0  0  0  0  0  0  0  0
    5.6631   12.3879   38.9633 O   0  0  0  0  0  0  0  0  0  0  0  0
    7.0145   11.9619   38.9808 C   0  0  0  0  0  0  0  0  0  0  0  0
    6.1678   22.1060   49.0272 C   0  0  0  0  0  0  0  0  0  0  0  0
    6.7884   24.7591   49.8540 C   0  0  0  0  0  0  0  0  0  0  0  0
    5.2137   22.9353   49.5882 C   0  0  0  0  0  0  0  0  0  0  0  0
    7.4330   22.6369   48.8911 C   0  0  0  0  0  0  0  0  0  0  0  0
    7.7406   23.9352   49.2946 C   0  0  0  0  0  0  0  0  0  0  0  0
    5.5118   24.2248   49.9911 C   0  0  0  0  0  0  0  0  0  0  0  0
    7.0425   26.1164   50.2942 C   0  0  0  0  0  0  0  0  0  0  0  0
    8.1654   26.6608   50.0301 O   0  0  0  0  0  0  0  0  0  0  0  0
    6.0734   26.9338   51.0444 C   0  0  0  0  0  0  0  0  0  0  0  0
 10 11  1  0  0  0
 10 14  2  0  0  0
 11  9  1  0  0  0
  1  9  1  0  0  0
 12 10  2  0  0  0
 13  9  2  0  0  0
 14 13  1  0  0  0
  2  1  1  0  0  0
  3  8  1  0  0  0
  3  7  1  0  0  0
 15 12  2  0  0  0
 15 16  1  0  0  0
 16 17  2  0  0  0
 17 14  1  0  0  0
 24  3  1  0  0  0
  4  2  1  0  0  0
  5  2  1  0  0  0
  6  1  2  0  0  0
 25 28  2  0  0  0
 25 29  1  0  0  0
 30 25  1  0  0  0
  7  4  1  0  0  0
  8  5  1  0  0  0
 18 16  1  0  0  0
 31 30  2  0  0  0
 26 24  1  0  0  0
 27 24  2  0  0  0
 28 27  1  0  0  0
 29 26  2  0  0  0
 19 15  1  0  0  0
 20 18  2  0  0  0
 21 19  2  0  0  0
 21 20  1  0  0  0
 22 20  1  0  0  0
 32 30  1  0  0  0
 23 22  1  0  0  0
M  END
> <minimizedAffinity>
-6.40176

$$$$
WAY-330342


 32 36  0  0  0  0  0  0  0  0999 V2000
    4.0659   17.1318   47.9266 C   0  0  0  0  0  0  0  0  0  0  0  0
    4.5572   18.4046   48.2927 N   0  0  0  0  0  0  0  0  0  0  0  0
    5.4253   20.9660   49.1988 N   0  0  0  0  0  0  0  0  0  0  0  0
    5.4218   19.2220   47.4722 C   0  0  0  0  0  0  0  0  0  0  0  0
    4.1672   18.9214   49.5909 C   0  0  0  0  0  0  0  0  0  0  0  0
    3.3011   16.4995   48.7285 O   0  0  0  0  0  0  0  0  0  0  0  0
    6.2408   20.1088   48.3786 C   0  0  0  0  0  0  0  0  0  0  0  0
    4.1617   20.4158   49.6753 C   0  0  0  0  0  0  0  0  0  0  0  0
    4.3560   16.4431   46.6811 C   0  0  0  0  0  0  0  0  0  0  0  0
    5.4779   15.2049   45.2917 C   0  0  0  0  0  0  0  0  0  0  0  0
    5.4489   15.7233   46.5111 O   0  0  0  0  0  0  0  0  0  0  0  0
    6.3552   14.4198   44.6451 N   0  0  0  0  0  0  0  0  0  0  0  0
    3.6340   16.3900   45.5092 C   0  0  0  0  0  0  0  0  0  0  0  0
    4.3457   15.6004   44.6168 C   0  0  0  0  0  0  0  0  0  0  0  0
    6.1393   14.0229   43.3628 C   0  0  0  0  0  0  0  0  0  0  0  0
    5.0153   14.4010   42.6561 C   0  0  0  0  0  0  0  0  0  0  0  0
    4.0933   15.2132   43.3048 C   0  0  0  0  0  0  0  0  0  0  0  0
    4.8155   13.9915   41.3567 C   0  0  0  0  0  0  0  0  0  0  0  0
    7.1070   13.2075   42.7651 C   0  0  0  0  0  0  0  0  0  0  0  0
    5.7613   13.1891   40.7580 C   0  0  0  0  0  0  0  0  0  0  0  0
    6.9041   12.7914   41.4440 C   0  0  0  0  0  0  0  0  0  0  0  0
    5.6520   12.7239   39.4499 O   0  0  0  0  0  0  0  0  0  0  0  0
    4.3484   12.4654   38.9582 C   0  0  0  0  0  0  0  0  0  0  0  0
    5.7552   22.2890   49.5761 C   0  0  0  0  0  0  0  0  0  0  0  0
    6.5183   24.9374   50.2914 C   0  0  0  0  0  0  0  0  0  0  0  0
    7.0612   22.7277   49.4554 C   0  0  0  0  0  0  0  0  0  0  0  0
    4.8468   23.2054   50.0622 C   0  0  0  0  0  0  0  0  0  0  0  0
    5.2165   24.5026   50.4134 C   0  0  0  0  0  0  0  0  0  0  0  0
    7.4354   24.0138   49.8019 C   0  0  0  0  0  0  0  0  0  0  0  0
    6.9676   26.2711   50.6379 C   0  0  0  0  0  0  0  0  0  0  0  0
    6.3360   26.9340   51.5259 O   0  0  0  0  0  0  0  0  0  0  0  0
    8.1305   26.9339   50.0226 C   0  0  0  0  0  0  0  0  0  0  0  0
 10 11  1  0  0  0
 10 14  2  0  0  0
 11  9  1  0  0  0
  1  9  1  0  0  0
 12 10  2  0  0  0
 13  9  2  0  0  0
 14 13  1  0  0  0
  2  1  1  0  0  0
  3  8  1  0  0  0
  3  7  1  0  0  0
 15 12  2  0  0  0
 15 16  1  0  0  0
 16 17  2  0  0  0
 17 14  1  0  0  0
 24  3  1  0  0  0
  4  2  1  0  0  0
  5  2  1  0  0  0
  6  1  2  0  0  0
 25 28  2  0  0  0
 25 29  1  0  0  0
 30 25  1  0  0  0
  7  4  1  0  0  0
  8  5  1  0  0  0
 18 16  1  0  0  0
 31 30  2  0  0  0
 26 24  1  0  0  0
 27 24  2  0  0  0
 28 27  1  0  0  0
 29 26  2  0  0  0
 19 15  1  0  0  0
 20 18  2  0  0  0
 21 19  2  0  0  0
 21 20  1  0  0  0
 22 20  1  0  0  0
 32 30  1  0  0  0
 23 22  1  0  0  0
M  END
> <minimizedAffinity>
-3.54772

$$$$
