WAY-623904


 22 24  0  0  0  0  0  0  0  0999 V2000
    5.9332   19.2501   50.6013 N   0  0  0  0  0  0  0  0  0  0  0  0
    4.8008   18.4314   50.3736 C   0  0  0  0  0  0  0  0  0  0  0  0
    6.6111   19.3935   49.3471 C   0  0  0  0  0  0  0  0  0  0  0  0
    5.8785   18.6447   48.3208 C   0  0  0  0  0  0  0  0  0  0  0  0
    4.7826   18.0634   48.9464 C   0  0  0  0  0  0  0  0  0  0  0  0
    3.9457   18.0699   51.2313 O   0  0  0  0  0  0  0  0  0  0  0  0
    7.6624   20.0504   49.1447 O   0  0  0  0  0  0  0  0  0  0  0  0
    6.0574   18.4272   46.9655 C   0  0  0  0  0  0  0  0  0  0  0  0
    3.8895   17.2791   48.2113 C   0  0  0  0  0  0  0  0  0  0  0  0
    4.0919   17.0746   46.8451 C   0  0  0  0  0  0  0  0  0  0  0  0
    5.1932   17.6610   46.2244 C   0  0  0  0  0  0  0  0  0  0  0  0
    6.3460   19.8390   51.8488 C   0  0  0  0  0  0  0  0  0  0  0  0
    5.2622   20.7360   52.4550 C   0  0  0  0  0  0  0  0  0  0  0  0
    6.1379   23.1396   52.4049 N   0  0  0  0  0  0  0  0  0  0  0  0
    5.4359   22.0743   51.8190 C   0  0  0  0  0  0  0  0  0  0  0  0
    4.9090   22.2284   50.6858 O   0  0  0  0  0  0  0  0  0  0  0  0
    6.5678   23.0185   53.3258 H   0  0  0  0  0  0  0  0  0  0  0  0
    6.2508   24.3637   51.7339 C   0  0  0  0  0  0  0  0  0  0  0  0
    7.3092   24.8485   51.2184 N   0  0  0  0  0  0  0  0  0  0  0  0
    4.9266   25.5643   51.4106 S   0  0  0  0  0  0  0  0  0  0  0  0
    7.2425   26.1003   50.5786 C   0  0  0  0  0  0  0  0  0  0  0  0
    5.8574   26.3765   50.0357 C   0  0  0  0  0  0  0  0  0  0  0  0
  2  1  1  0  0  0
  3  1  1  0  0  0
  4  3  1  0  0  0
  4  5  2  0  0  0
  5  2  1  0  0  0
 18 14  1  0  0  0
 14 15  1  0  0  0
 12  1  1  0  0  0
 19 18  2  0  0  0
 15 13  1  0  0  0
 13 12  1  0  0  0
 20 18  1  0  0  0
  6  2  2  0  0  0
  7  3  2  0  0  0
 16 15  2  0  0  0
  8  4  1  0  0  0
  9  5  1  0  0  0
 21 19  1  0  0  0
 22 20  1  0  0  0
 22 21  1  0  0  0
 10  9  2  0  0  0
 11  8  2  0  0  0
 11 10  1  0  0  0
 14 17  1  0  0  0
M  END
> <minimizedAffinity>
-7.85958

$$$$
WAY-623904


 22 24  0  0  0  0  0  0  0  0999 V2000
    5.9720   19.2742   50.5667 N   0  0  0  0  0  0  0  0  0  0  0  0
    6.6165   19.4326   49.3161 C   0  0  0  0  0  0  0  0  0  0  0  0
    4.8349   18.4289   50.3530 C   0  0  0  0  0  0  0  0  0  0  0  0
    4.7770   18.0571   48.9356 C   0  0  0  0  0  0  0  0  0  0  0  0
    5.8577   18.6668   48.3109 C   0  0  0  0  0  0  0  0  0  0  0  0
    7.6594   20.1079   49.0843 O   0  0  0  0  0  0  0  0  0  0  0  0
    4.0131   18.0586   51.2278 O   0  0  0  0  0  0  0  0  0  0  0  0
    3.9234   17.2811   48.1704 C   0  0  0  0  0  0  0  0  0  0  0  0
    6.0658   18.4920   46.9400 C   0  0  0  0  0  0  0  0  0  0  0  0
    5.1905   17.7044   46.1898 C   0  0  0  0  0  0  0  0  0  0  0  0
    4.1087   17.0957   46.8233 C   0  0  0  0  0  0  0  0  0  0  0  0
    6.3663   19.8449   51.8285 C   0  0  0  0  0  0  0  0  0  0  0  0
    5.2745   20.7353   52.4303 C   0  0  0  0  0  0  0  0  0  0  0  0
    6.1376   23.1437   52.3927 N   0  0  0  0  0  0  0  0  0  0  0  0
    5.4458   22.0760   51.7988 C   0  0  0  0  0  0  0  0  0  0  0  0
    4.9268   22.2300   50.6621 O   0  0  0  0  0  0  0  0  0  0  0  0
    6.5610   23.0227   53.3165 H   0  0  0  0  0  0  0  0  0  0  0  0
    6.2490   24.3700   51.7255 C   0  0  0  0  0  0  0  0  0  0  0  0
    7.3068   24.8578   51.2115 N   0  0  0  0  0  0  0  0  0  0  0  0
    4.9232   25.5699   51.4058 S   0  0  0  0  0  0  0  0  0  0  0  0
    7.2385   26.1114   50.5756 C   0  0  0  0  0  0  0  0  0  0  0  0
    5.8531   26.3875   50.0335 C   0  0  0  0  0  0  0  0  0  0  0  0
  2  1  1  0  0  0
  3  1  1  0  0  0
  4  3  1  0  0  0
  4  5  2  0  0  0
  5  2  1  0  0  0
 18 14  1  0  0  0
 14 15  1  0  0  0
 12  1  1  0  0  0
 19 18  2  0  0  0
 15 13  1  0  0  0
 13 12  1  0  0  0
 20 18  1  0  0  0
  6  2  2  0  0  0
  7  3  2  0  0  0
 16 15  2  0  0  0
  8  4  1  0  0  0
  9  5  1  0  0  0
 21 19  1  0  0  0
 22 20  1  0  0  0
 22 21  1  0  0  0
 10  9  2  0  0  0
 11  8  2  0  0  0
 11 10  1  0  0  0
 14 17  1  0  0  0
M  END
> <minimizedAffinity>
-7.82208

$$$$
WAY-623904


 22 24  0  0  0  0  0  0  0  0999 V2000
    5.1046   19.2648   48.3624 N   0  0  0  0  0  0  0  0  0  0  0  0
    5.8909   19.1944   47.1871 C   0  0  0  0  0  0  0  0  0  0  0  0
    4.2709   18.0997   48.3845 C   0  0  0  0  0  0  0  0  0  0  0  0
    4.5502   17.2910   47.1934 C   0  0  0  0  0  0  0  0  0  0  0  0
    5.5320   17.9573   46.4707 C   0  0  0  0  0  0  0  0  0  0  0  0
    6.7534   20.0352   46.8042 O   0  0  0  0  0  0  0  0  0  0  0  0
    3.4329   17.8058   49.2728 O   0  0  0  0  0  0  0  0  0  0  0  0
    4.0628   16.0940   46.6973 C   0  0  0  0  0  0  0  0  0  0  0  0
    6.0072   17.4194   45.2714 C   0  0  0  0  0  0  0  0  0  0  0  0
    5.4994   16.2105   44.7920 C   0  0  0  0  0  0  0  0  0  0  0  0
    4.5148   15.5477   45.5224 C   0  0  0  0  0  0  0  0  0  0  0  0
    5.1219   20.3015   49.3615 C   0  0  0  0  0  0  0  0  0  0  0  0
    3.8206   21.1096   49.3834 C   0  0  0  0  0  0  0  0  0  0  0  0
    3.3411   23.5934   49.7681 N   0  0  0  0  0  0  0  0  0  0  0  0
    4.1999   22.4840   49.8229 C   0  0  0  0  0  0  0  0  0  0  0  0
    5.3696   22.6273   50.2662 O   0  0  0  0  0  0  0  0  0  0  0  0
    2.3895   23.4812   49.4085 H   0  0  0  0  0  0  0  0  0  0  0  0
    3.7828   24.8491   50.2032 C   0  0  0  0  0  0  0  0  0  0  0  0
    3.5651   25.3742   51.3425 N   0  0  0  0  0  0  0  0  0  0  0  0
    4.7868   26.0426   49.2720 S   0  0  0  0  0  0  0  0  0  0  0  0
    4.0861   26.6533   51.6128 C   0  0  0  0  0  0  0  0  0  0  0  0
    5.3301   26.9329   50.7981 C   0  0  0  0  0  0  0  0  0  0  0  0
  2  1  1  0  0  0
  3  1  1  0  0  0
  4  3  1  0  0  0
  4  5  2  0  0  0
  5  2  1  0  0  0
 18 14  1  0  0  0
 14 15  1  0  0  0
 12  1  1  0  0  0
 19 18  2  0  0  0
 15 13  1  0  0  0
 13 12  1  0  0  0
 20 18  1  0  0  0
  6  2  2  0  0  0
  7  3  2  0  0  0
 16 15  2  0  0  0
  8  4  1  0  0  0
  9  5  1  0  0  0
 21 19  1  0  0  0
 22 20  1  0  0  0
 22 21  1  0  0  0
 10  9  2  0  0  0
 11  8  2  0  0  0
 11 10  1  0  0  0
 14 17  1  0  0  0
M  END
> <minimizedAffinity>
-7.81153

$$$$
WAY-623904


 22 24  0  0  0  0  0  0  0  0999 V2000
    5.0829   19.7063   50.4041 N   0  0  0  0  0  0  0  0  0  0  0  0
    3.8736   19.2526   49.8243 C   0  0  0  0  0  0  0  0  0  0  0  0
    6.1557   19.0770   49.6927 C   0  0  0  0  0  0  0  0  0  0  0  0
    5.5939   18.2141   48.6485 C   0  0  0  0  0  0  0  0  0  0  0  0
    4.2113   18.3232   48.7313 C   0  0  0  0  0  0  0  0  0  0  0  0
    2.7020   19.5771   50.1703 O   0  0  0  0  0  0  0  0  0  0  0  0
    7.3823   19.2301   49.9161 O   0  0  0  0  0  0  0  0  0  0  0  0
    6.1341   17.3845   47.6809 C   0  0  0  0  0  0  0  0  0  0  0  0
    3.3969   17.6055   47.8511 C   0  0  0  0  0  0  0  0  0  0  0  0
    3.9661   16.7751   46.8837 C   0  0  0  0  0  0  0  0  0  0  0  0
    5.3536   16.6708   46.8065 C   0  0  0  0  0  0  0  0  0  0  0  0
    5.2316   20.6260   51.5020 C   0  0  0  0  0  0  0  0  0  0  0  0
    4.9037   22.0678   51.1010 C   0  0  0  0  0  0  0  0  0  0  0  0
    7.2052   22.3143   50.0105 N   0  0  0  0  0  0  0  0  0  0  0  0
    5.8043   22.3886   49.9556 C   0  0  0  0  0  0  0  0  0  0  0  0
    5.2444   22.7454   48.8858 O   0  0  0  0  0  0  0  0  0  0  0  0
    7.6644   22.0247   50.8781 H   0  0  0  0  0  0  0  0  0  0  0  0
    7.9731   22.6346   48.8840 C   0  0  0  0  0  0  0  0  0  0  0  0
    8.6681   23.6884   48.7173 N   0  0  0  0  0  0  0  0  0  0  0  0
    8.1914   21.6338   47.3839 S   0  0  0  0  0  0  0  0  0  0  0  0
    9.3816   23.8496   47.5150 C   0  0  0  0  0  0  0  0  0  0  0  0
    9.7405   22.5164   46.8960 C   0  0  0  0  0  0  0  0  0  0  0  0
  2  1  1  0  0  0
  3  1  1  0  0  0
  4  3  1  0  0  0
  4  5  2  0  0  0
  5  2  1  0  0  0
 18 14  1  0  0  0
 14 15  1  0  0  0
 12  1  1  0  0  0
 19 18  2  0  0  0
 15 13  1  0  0  0
 13 12  1  0  0  0
 20 18  1  0  0  0
  6  2  2  0  0  0
  7  3  2  0  0  0
 16 15  2  0  0  0
  8  4  1  0  0  0
  9  5  1  0  0  0
 21 19  1  0  0  0
 22 20  1  0  0  0
 22 21  1  0  0  0
 10  9  2  0  0  0
 11  8  2  0  0  0
 11 10  1  0  0  0
 14 17  1  0  0  0
M  END
> <minimizedAffinity>
-7.76052

$$$$
WAY-623904


 22 24  0  0  0  0  0  0  0  0999 V2000
    4.6118   20.3100   49.5470 N   0  0  0  0  0  0  0  0  0  0  0  0
    5.1121   20.5907   50.8414 C   0  0  0  0  0  0  0  0  0  0  0  0
    4.1518   21.5488   48.9930 C   0  0  0  0  0  0  0  0  0  0  0  0
    4.3740   22.6197   49.9700 C   0  0  0  0  0  0  0  0  0  0  0  0
    4.9558   22.0354   51.0882 C   0  0  0  0  0  0  0  0  0  0  0  0
    5.6086   19.7609   51.6553 O   0  0  0  0  0  0  0  0  0  0  0  0
    3.6396   21.7068   47.8571 O   0  0  0  0  0  0  0  0  0  0  0  0
    4.1344   23.9830   49.9864 C   0  0  0  0  0  0  0  0  0  0  0  0
    5.2863   22.8189   52.1974 C   0  0  0  0  0  0  0  0  0  0  0  0
    5.0345   24.1922   52.1895 C   0  0  0  0  0  0  0  0  0  0  0  0
    4.4508   24.7712   51.0643 C   0  0  0  0  0  0  0  0  0  0  0  0
    4.5638   19.0295   48.8902 C   0  0  0  0  0  0  0  0  0  0  0  0
    5.9593   18.4382   48.6667 C   0  0  0  0  0  0  0  0  0  0  0  0
    7.8891   20.1072   48.4745 N   0  0  0  0  0  0  0  0  0  0  0  0
    6.7402   19.4907   47.9539 C   0  0  0  0  0  0  0  0  0  0  0  0
    6.3185   19.8267   46.8160 O   0  0  0  0  0  0  0  0  0  0  0  0
    8.2352   19.8370   49.3989 H   0  0  0  0  0  0  0  0  0  0  0  0
    8.5603   21.0879   47.7336 C   0  0  0  0  0  0  0  0  0  0  0  0
    8.7148   22.3088   48.0604 N   0  0  0  0  0  0  0  0  0  0  0  0
    9.3940   20.8759   46.1337 S   0  0  0  0  0  0  0  0  0  0  0  0
    9.4198   23.1618   47.1908 C   0  0  0  0  0  0  0  0  0  0  0  0
   10.4194   22.3986   46.3494 C   0  0  0  0  0  0  0  0  0  0  0  0
  2  1  1  0  0  0
  3  1  1  0  0  0
  4  3  1  0  0  0
  4  5  2  0  0  0
  5  2  1  0  0  0
 18 14  1  0  0  0
 14 15  1  0  0  0
 12  1  1  0  0  0
 19 18  2  0  0  0
 15 13  1  0  0  0
 13 12  1  0  0  0
 20 18  1  0  0  0
  6  2  2  0  0  0
  7  3  2  0  0  0
 16 15  2  0  0  0
  8  4  1  0  0  0
  9  5  1  0  0  0
 21 19  1  0  0  0
 22 20  1  0  0  0
 22 21  1  0  0  0
 10  9  2  0  0  0
 11  8  2  0  0  0
 11 10  1  0  0  0
 14 17  1  0  0  0
M  END
> <minimizedAffinity>
-7.71057

$$$$
