Diltiazem HCl.cdx


 29 31  0  0  0  0  0  0  0  0999 V2000
    6.3267   23.4405   50.0131 C   0  0  0  0  0  0  0  0  0  0  0  0
    7.3771   22.4809   49.8715 N   0  0  0  0  0  0  0  0  0  0  0  0
    7.2114   21.0878   49.9263 C   0  0  0  0  0  0  0  0  0  0  0  0
    5.8223   20.5281   50.3016 C   0  0  0  0  0  0  0  0  0  0  0  0
    4.7909   20.5763   49.1488 C   0  0  0  0  0  0  0  0  0  0  0  0
    4.7915   22.0760   48.0936 S   0  0  0  0  0  0  0  0  0  0  0  0
    5.1101   23.3448   49.3120 C   0  0  0  0  0  0  0  0  0  0  0  0
    8.1684   20.3230   49.7581 O   0  0  0  0  0  0  0  0  0  0  0  0
    4.1736   24.3899   49.4054 C   0  0  0  0  0  0  0  0  0  0  0  0
    4.4278   25.5187   50.1890 C   0  0  0  0  0  0  0  0  0  0  0  0
    5.6141   25.6089   50.9032 C   0  0  0  0  0  0  0  0  0  0  0  0
    6.5468   24.5739   50.8239 C   0  0  0  0  0  0  0  0  0  0  0  0
    4.7531   19.3214   48.2699 C   0  0  0  0  0  0  0  0  0  0  0  0
    5.7277   19.1506   47.2701 C   0  0  0  0  0  0  0  0  0  0  0  0
    5.6568   18.0905   46.3586 C   0  0  0  0  0  0  0  0  0  0  0  0
    4.6109   17.1761   46.4293 C   0  0  0  0  0  0  0  0  0  0  0  0
    3.6790   17.2915   47.4639 C   0  0  0  0  0  0  0  0  0  0  0  0
    3.7458   18.3523   48.3777 C   0  0  0  0  0  0  0  0  0  0  0  0
    4.3909   16.1440   45.5573 O   0  0  0  0  0  0  0  0  0  0  0  0
    5.0252   16.2372   44.2861 C   0  0  0  0  0  0  0  0  0  0  0  0
    5.9141   19.1507   50.7517 O   0  0  0  0  0  0  0  0  0  0  0  0
    5.0550   18.7488   51.7153 C   0  0  0  0  0  0  0  0  0  0  0  0
    4.9811   19.7553   52.8265 C   0  0  0  0  0  0  0  0  0  0  0  0
    4.4507   17.6824   51.7098 O   0  0  0  0  0  0  0  0  0  0  0  0
    8.7436   23.0079   49.6550 C   0  0  0  0  0  0  0  0  0  0  0  0
    9.0044   23.4643   48.1980 C   0  0  0  0  0  0  0  0  0  0  0  0
    9.4486   22.3774   47.2919 N   0  0  0  0  0  0  0  0  0  0  0  0
    8.3875   21.9596   46.3727 C   0  0  0  0  0  0  0  0  0  0  0  0
   10.6113   22.8276   46.5168 C   0  0  0  0  0  0  0  0  0  0  0  0
  1  2  1  0  0  0
  2  3  1  0  0  0
  2 25  1  0  0  0
  3  4  1  0  0  0
  3  8  2  0  0  0
  4  5  1  0  0  0
  4 21  1  0  0  0
  5  6  1  0  0  0
  5 13  1  0  0  0
  6  7  1  0  0  0
  7  1  2  0  0  0
  7  9  1  0  0  0
 21 22  1  0  0  0
 13 14  2  0  0  0
 14 15  1  0  0  0
 15 16  2  0  0  0
 16 17  1  0  0  0
 16 19  1  0  0  0
 17 18  2  0  0  0
 18 13  1  0  0  0
 19 20  1  0  0  0
 22 23  1  0  0  0
 22 24  2  0  0  0
 25 26  1  0  0  0
 26 27  1  0  0  0
 27 28  1  0  0  0
 27 29  1  0  0  0
  9 10  2  0  0  0
 10 11  1  0  0  0
 11 12  2  0  0  0
 12  1  1  0  0  0
M  END
> <minimizedAffinity>
-8.13213

$$$$
Diltiazem HCl.cdx


 29 31  0  0  0  0  0  0  0  0999 V2000
    5.9805   23.1220   50.5112 C   0  0  0  0  0  0  0  0  0  0  0  0
    5.1909   23.1913   49.3211 N   0  0  0  0  0  0  0  0  0  0  0  0
    5.3019   22.3194   48.2263 C   0  0  0  0  0  0  0  0  0  0  0  0
    6.4467   21.2836   48.2259 C   0  0  0  0  0  0  0  0  0  0  0  0
    6.1895   20.0596   49.1373 C   0  0  0  0  0  0  0  0  0  0  0  0
    5.4022   20.3823   50.7617 S   0  0  0  0  0  0  0  0  0  0  0  0
    6.1881   21.9221   51.2169 C   0  0  0  0  0  0  0  0  0  0  0  0
    4.5547   22.4250   47.2466 O   0  0  0  0  0  0  0  0  0  0  0  0
    6.8711   21.9515   52.4459 C   0  0  0  0  0  0  0  0  0  0  0  0
    7.3538   23.1516   52.9747 C   0  0  0  0  0  0  0  0  0  0  0  0
    7.1752   24.3352   52.2727 C   0  0  0  0  0  0  0  0  0  0  0  0
    6.5058   24.3162   51.0483 C   0  0  0  0  0  0  0  0  0  0  0  0
    5.4943   18.8812   48.4468 C   0  0  0  0  0  0  0  0  0  0  0  0
    6.2733   17.8417   47.9070 C   0  0  0  0  0  0  0  0  0  0  0  0
    5.6936   16.8143   47.1534 C   0  0  0  0  0  0  0  0  0  0  0  0
    4.3214   16.8024   46.9259 C   0  0  0  0  0  0  0  0  0  0  0  0
    3.5278   17.7873   47.5196 C   0  0  0  0  0  0  0  0  0  0  0  0
    4.1046   18.8186   48.2738 C   0  0  0  0  0  0  0  0  0  0  0  0
    3.6472   15.8983   46.1501 O   0  0  0  0  0  0  0  0  0  0  0  0
    4.4400   15.0419   45.3345 C   0  0  0  0  0  0  0  0  0  0  0  0
    6.7065   20.7870   46.8864 O   0  0  0  0  0  0  0  0  0  0  0  0
    7.8125   21.2406   46.2546 C   0  0  0  0  0  0  0  0  0  0  0  0
    9.0572   20.6658   46.8658 C   0  0  0  0  0  0  0  0  0  0  0  0
    7.8070   22.0512   45.3352 O   0  0  0  0  0  0  0  0  0  0  0  0
    4.1836   24.2735   49.2456 C   0  0  0  0  0  0  0  0  0  0  0  0
    3.5601   24.6320   50.6175 C   0  0  0  0  0  0  0  0  0  0  0  0
    3.1811   26.0589   50.7576 N   0  0  0  0  0  0  0  0  0  0  0  0
    3.9072   26.7165   51.8465 C   0  0  0  0  0  0  0  0  0  0  0  0
    3.4514   26.7655   49.4994 C   0  0  0  0  0  0  0  0  0  0  0  0
  1  2  1  0  0  0
  2  3  1  0  0  0
  2 25  1  0  0  0
  3  4  1  0  0  0
  3  8  2  0  0  0
  4  5  1  0  0  0
  4 21  1  0  0  0
  5  6  1  0  0  0
  5 13  1  0  0  0
  6  7  1  0  0  0
  7  1  2  0  0  0
  7  9  1  0  0  0
 21 22  1  0  0  0
 13 14  2  0  0  0
 14 15  1  0  0  0
 15 16  2  0  0  0
 16 17  1  0  0  0
 16 19  1  0  0  0
 17 18  2  0  0  0
 18 13  1  0  0  0
 19 20  1  0  0  0
 22 23  1  0  0  0
 22 24  2  0  0  0
 25 26  1  0  0  0
 26 27  1  0  0  0
 27 28  1  0  0  0
 27 29  1  0  0  0
  9 10  2  0  0  0
 10 11  1  0  0  0
 11 12  2  0  0  0
 12  1  1  0  0  0
M  END
> <minimizedAffinity>
-7.72404

$$$$
Diltiazem HCl.cdx


 29 31  0  0  0  0  0  0  0  0999 V2000
    4.7701   20.8078   50.5526 C   0  0  0  0  0  0  0  0  0  0  0  0
    4.6736   21.4420   49.2747 N   0  0  0  0  0  0  0  0  0  0  0  0
    5.3306   21.0154   48.1096 C   0  0  0  0  0  0  0  0  0  0  0  0
    6.3455   19.8574   48.2214 C   0  0  0  0  0  0  0  0  0  0  0  0
    5.6949   18.4576   48.3322 C   0  0  0  0  0  0  0  0  0  0  0  0
    4.1993   18.3158   49.3835 S   0  0  0  0  0  0  0  0  0  0  0  0
    4.6246   19.4186   50.7247 C   0  0  0  0  0  0  0  0  0  0  0  0
    5.1657   21.5997   47.0323 O   0  0  0  0  0  0  0  0  0  0  0  0
    4.6073   18.8804   52.0239 C   0  0  0  0  0  0  0  0  0  0  0  0
    4.7397   19.7014   53.1469 C   0  0  0  0  0  0  0  0  0  0  0  0
    4.9089   21.0691   52.9845 C   0  0  0  0  0  0  0  0  0  0  0  0
    4.9355   21.6127   51.6995 C   0  0  0  0  0  0  0  0  0  0  0  0
    5.4578   17.7532   46.9919 C   0  0  0  0  0  0  0  0  0  0  0  0
    5.8207   16.4016   46.8500 C   0  0  0  0  0  0  0  0  0  0  0  0
    5.7466   15.7549   45.6107 C   0  0  0  0  0  0  0  0  0  0  0  0
    5.3049   16.4451   44.4867 C   0  0  0  0  0  0  0  0  0  0  0  0
    4.8705   17.7654   44.6300 C   0  0  0  0  0  0  0  0  0  0  0  0
    4.9443   18.4170   45.8689 C   0  0  0  0  0  0  0  0  0  0  0  0
    5.2556   15.9490   43.2118 O   0  0  0  0  0  0  0  0  0  0  0  0
    5.7133   14.6133   43.0294 C   0  0  0  0  0  0  0  0  0  0  0  0
    7.2455   19.8347   47.0822 O   0  0  0  0  0  0  0  0  0  0  0  0
    8.4550   20.4210   47.2287 C   0  0  0  0  0  0  0  0  0  0  0  0
    8.9718   20.9281   45.9138 C   0  0  0  0  0  0  0  0  0  0  0  0
    9.0733   20.4892   48.2849 O   0  0  0  0  0  0  0  0  0  0  0  0
    3.8147   22.6445   49.1849 C   0  0  0  0  0  0  0  0  0  0  0  0
    4.5747   23.9664   49.4575 C   0  0  0  0  0  0  0  0  0  0  0  0
    3.7265   25.0520   50.0064 N   0  0  0  0  0  0  0  0  0  0  0  0
    3.9756   25.2771   51.4321 C   0  0  0  0  0  0  0  0  0  0  0  0
    3.9802   26.2954   49.2683 C   0  0  0  0  0  0  0  0  0  0  0  0
  1  2  1  0  0  0
  2  3  1  0  0  0
  2 25  1  0  0  0
  3  4  1  0  0  0
  3  8  2  0  0  0
  4  5  1  0  0  0
  4 21  1  0  0  0
  5  6  1  0  0  0
  5 13  1  0  0  0
  6  7  1  0  0  0
  7  1  2  0  0  0
  7  9  1  0  0  0
 21 22  1  0  0  0
 13 14  2  0  0  0
 14 15  1  0  0  0
 15 16  2  0  0  0
 16 17  1  0  0  0
 16 19  1  0  0  0
 17 18  2  0  0  0
 18 13  1  0  0  0
 19 20  1  0  0  0
 22 23  1  0  0  0
 22 24  2  0  0  0
 25 26  1  0  0  0
 26 27  1  0  0  0
 27 28  1  0  0  0
 27 29  1  0  0  0
  9 10  2  0  0  0
 10 11  1  0  0  0
 11 12  2  0  0  0
 12  1  1  0  0  0
M  END
> <minimizedAffinity>
-7.36011

$$$$
Diltiazem HCl.cdx


 29 31  0  0  0  0  0  0  0  0999 V2000
    5.5379   23.2175   50.9670 C   0  0  0  0  0  0  0  0  0  0  0  0
    6.6200   22.2829   50.9727 N   0  0  0  0  0  0  0  0  0  0  0  0
    6.5148   20.9234   50.6385 C   0  0  0  0  0  0  0  0  0  0  0  0
    5.1106   20.3394   50.3723 C   0  0  0  0  0  0  0  0  0  0  0  0
    4.5330   20.6960   48.9817 C   0  0  0  0  0  0  0  0  0  0  0  0
    4.8188   22.4025   48.3743 S   0  0  0  0  0  0  0  0  0  0  0  0
    4.6396   23.3337   49.8898 C   0  0  0  0  0  0  0  0  0  0  0  0
    7.5086   20.1874   50.6338 O   0  0  0  0  0  0  0  0  0  0  0  0
    3.6767   24.3587   49.8993 C   0  0  0  0  0  0  0  0  0  0  0  0
    3.5922   25.2595   50.9643 C   0  0  0  0  0  0  0  0  0  0  0  0
    4.4579   25.1359   52.0417 C   0  0  0  0  0  0  0  0  0  0  0  0
    5.4120   24.1175   52.0462 C   0  0  0  0  0  0  0  0  0  0  0  0
    4.8593   19.6879   47.8744 C   0  0  0  0  0  0  0  0  0  0  0  0
    3.9246   18.6856   47.5576 C   0  0  0  0  0  0  0  0  0  0  0  0
    4.2316   17.6656   46.6493 C   0  0  0  0  0  0  0  0  0  0  0  0
    5.4793   17.6275   46.0357 C   0  0  0  0  0  0  0  0  0  0  0  0
    6.3884   18.6590   46.2848 C   0  0  0  0  0  0  0  0  0  0  0  0
    6.0853   19.6814   47.1946 C   0  0  0  0  0  0  0  0  0  0  0  0
    5.9246   16.6483   45.1892 O   0  0  0  0  0  0  0  0  0  0  0  0
    5.3031   15.3728   45.3070 C   0  0  0  0  0  0  0  0  0  0  0  0
    5.1118   18.8922   50.4897 O   0  0  0  0  0  0  0  0  0  0  0  0
    4.2288   18.3334   51.3478 C   0  0  0  0  0  0  0  0  0  0  0  0
    2.8358   18.8280   51.0869 C   0  0  0  0  0  0  0  0  0  0  0  0
    4.5283   17.5615   52.2516 O   0  0  0  0  0  0  0  0  0  0  0  0
    7.9504   22.7982   51.3679 C   0  0  0  0  0  0  0  0  0  0  0  0
    8.8980   23.0430   50.1673 C   0  0  0  0  0  0  0  0  0  0  0  0
    8.2511   23.7054   49.0089 N   0  0  0  0  0  0  0  0  0  0  0  0
    7.9719   25.1195   49.2693 C   0  0  0  0  0  0  0  0  0  0  0  0
    9.1186   23.5923   47.8300 C   0  0  0  0  0  0  0  0  0  0  0  0
  1  2  1  0  0  0
  2  3  1  0  0  0
  2 25  1  0  0  0
  3  4  1  0  0  0
  3  8  2  0  0  0
  4  5  1  0  0  0
  4 21  1  0  0  0
  5  6  1  0  0  0
  5 13  1  0  0  0
  6  7  1  0  0  0
  7  1  2  0  0  0
  7  9  1  0  0  0
 21 22  1  0  0  0
 13 14  2  0  0  0
 14 15  1  0  0  0
 15 16  2  0  0  0
 16 17  1  0  0  0
 16 19  1  0  0  0
 17 18  2  0  0  0
 18 13  1  0  0  0
 19 20  1  0  0  0
 22 23  1  0  0  0
 22 24  2  0  0  0
 25 26  1  0  0  0
 26 27  1  0  0  0
 27 28  1  0  0  0
 27 29  1  0  0  0
  9 10  2  0  0  0
 10 11  1  0  0  0
 11 12  2  0  0  0
 12  1  1  0  0  0
M  END
> <minimizedAffinity>
-6.85199

$$$$
Diltiazem HCl.cdx


 29 31  0  0  0  0  0  0  0  0999 V2000
    7.6480   22.0287   48.8344 C   0  0  0  0  0  0  0  0  0  0  0  0
    6.9842   21.0692   49.6610 N   0  0  0  0  0  0  0  0  0  0  0  0
    5.8839   20.2898   49.2698 C   0  0  0  0  0  0  0  0  0  0  0  0
    5.2390   20.5679   47.8949 C   0  0  0  0  0  0  0  0  0  0  0  0
    6.0344   19.9937   46.6980 C   0  0  0  0  0  0  0  0  0  0  0  0
    7.8613   20.1339   46.7686 S   0  0  0  0  0  0  0  0  0  0  0  0
    8.0466   21.7481   47.5141 C   0  0  0  0  0  0  0  0  0  0  0  0
    5.3881   19.4542   50.0348 O   0  0  0  0  0  0  0  0  0  0  0  0
    8.8048   22.6962   46.8040 C   0  0  0  0  0  0  0  0  0  0  0  0
    9.1629   23.9156   47.3852 C   0  0  0  0  0  0  0  0  0  0  0  0
    8.7522   24.2100   48.6775 C   0  0  0  0  0  0  0  0  0  0  0  0
    7.9927   23.2796   49.3882 C   0  0  0  0  0  0  0  0  0  0  0  0
    5.6369   18.5715   46.2876 C   0  0  0  0  0  0  0  0  0  0  0  0
    5.7288   17.5312   47.2300 C   0  0  0  0  0  0  0  0  0  0  0  0
    5.5045   16.1982   46.8660 C   0  0  0  0  0  0  0  0  0  0  0  0
    5.1805   15.8769   45.5520 C   0  0  0  0  0  0  0  0  0  0  0  0
    5.0125   16.9081   44.6242 C   0  0  0  0  0  0  0  0  0  0  0  0
    5.2374   18.2441   44.9844 C   0  0  0  0  0  0  0  0  0  0  0  0
    5.0089   14.6122   45.0571 O   0  0  0  0  0  0  0  0  0  0  0  0
    6.1623   13.9781   44.5145 C   0  0  0  0  0  0  0  0  0  0  0  0
    3.8924   20.0291   47.8267 O   0  0  0  0  0  0  0  0  0  0  0  0
    2.9548   20.5855   48.6262 C   0  0  0  0  0  0  0  0  0  0  0  0
    2.2765   19.5441   49.4682 C   0  0  0  0  0  0  0  0  0  0  0  0
    2.6604   21.7753   48.6318 O   0  0  0  0  0  0  0  0  0  0  0  0
    7.5024   20.8950   51.0367 C   0  0  0  0  0  0  0  0  0  0  0  0
    6.5368   21.4168   52.1297 C   0  0  0  0  0  0  0  0  0  0  0  0
    6.4366   22.8950   52.1956 N   0  0  0  0  0  0  0  0  0  0  0  0
    5.1282   23.3364   52.6841 C   0  0  0  0  0  0  0  0  0  0  0  0
    7.4855   23.4202   53.0784 C   0  0  0  0  0  0  0  0  0  0  0  0
  1  2  1  0  0  0
  2  3  1  0  0  0
  2 25  1  0  0  0
  3  4  1  0  0  0
  3  8  2  0  0  0
  4  5  1  0  0  0
  4 21  1  0  0  0
  5  6  1  0  0  0
  5 13  1  0  0  0
  6  7  1  0  0  0
  7  1  2  0  0  0
  7  9  1  0  0  0
 21 22  1  0  0  0
 13 14  2  0  0  0
 14 15  1  0  0  0
 15 16  2  0  0  0
 16 17  1  0  0  0
 16 19  1  0  0  0
 17 18  2  0  0  0
 18 13  1  0  0  0
 19 20  1  0  0  0
 22 23  1  0  0  0
 22 24  2  0  0  0
 25 26  1  0  0  0
 26 27  1  0  0  0
 27 28  1  0  0  0
 27 29  1  0  0  0
  9 10  2  0  0  0
 10 11  1  0  0  0
 11 12  2  0  0  0
 12  1  1  0  0  0
M  END
> <minimizedAffinity>
-6.38181

$$$$
