HC 030031.cdx


 27 29  0  0  0  0  0  0  0  0999 V2000
    4.6968   19.2797   50.3786 C   0  0  0  0  0  0  0  0  0  0  0  0
    5.2508   21.7252   50.5964 C   0  0  0  0  0  0  0  0  0  0  0  0
    4.7766   22.8348   49.9679 C   0  0  0  0  0  0  0  0  0  0  0  0
    4.5231   20.6874   50.0883 N   0  0  0  0  0  0  0  0  0  0  0  0
    6.2839   21.7647   51.5652 C   0  0  0  0  0  0  0  0  0  0  0  0
    5.3009   24.0812   50.2140 N   0  0  0  0  0  0  0  0  0  0  0  0
    3.7620   22.5352   49.1111 N   0  0  0  0  0  0  0  0  0  0  0  0
    3.6198   21.2269   49.2094 C   0  0  0  0  0  0  0  0  0  0  0  0
    6.8388   23.0352   51.7229 N   0  0  0  0  0  0  0  0  0  0  0  0
    6.6246   20.7711   52.2053 O   0  0  0  0  0  0  0  0  0  0  0  0
    6.3749   24.2108   51.0983 C   0  0  0  0  0  0  0  0  0  0  0  0
    4.7523   25.2468   49.5437 C   0  0  0  0  0  0  0  0  0  0  0  0
    7.9582   23.1311   52.6384 C   0  0  0  0  0  0  0  0  0  0  0  0
    6.8955   25.3071   51.3297 O   0  0  0  0  0  0  0  0  0  0  0  0
    5.3166   18.5519   49.2075 C   0  0  0  0  0  0  0  0  0  0  0  0
    4.3930   18.0449   48.3051 N   0  0  0  0  0  0  0  0  0  0  0  0
    6.5398   18.4992   49.1070 O   0  0  0  0  0  0  0  0  0  0  0  0
    3.4174   18.3234   48.4220 H   0  0  0  0  0  0  0  0  0  0  0  0
    4.7038   17.3407   47.1221 C   0  0  0  0  0  0  0  0  0  0  0  0
    4.0931   16.1369   46.7706 C   0  0  0  0  0  0  0  0  0  0  0  0
    5.6700   17.8799   46.2671 C   0  0  0  0  0  0  0  0  0  0  0  0
    4.4608   15.4631   45.6036 C   0  0  0  0  0  0  0  0  0  0  0  0
    6.0514   17.1965   45.1054 C   0  0  0  0  0  0  0  0  0  0  0  0
    5.4518   15.9766   44.7606 C   0  0  0  0  0  0  0  0  0  0  0  0
    5.8470   15.2021   43.5167 C   0  0  0  0  0  0  0  0  0  0  0  0
    7.2995   15.4724   43.1222 C   0  0  0  0  0  0  0  0  0  0  0  0
    5.5877   13.7036   43.6880 C   0  0  0  0  0  0  0  0  0  0  0  0
  2  4  1  0  0  0
  2  5  1  0  0  0
  2  3  2  0  0  0
  3  6  1  0  0  0
  3  7  2  0  0  0
  4  8  1  0  0  0
  4  1  1  0  0  0
  5  9  1  0  0  0
  5 10  2  0  0  0
  6 11  1  0  0  0
  6 12  1  0  0  0
  7  8  2  0  0  0
  1 15  1  0  0  0
  9 13  1  0  0  0
  9 11  1  0  0  0
 11 14  2  0  0  0
 15 16  1  0  0  0
 15 17  2  0  0  0
 16 19  1  0  0  0
 16 18  1  0  0  0
 19 20  2  0  0  0
 19 21  1  0  0  0
 20 22  1  0  0  0
 21 23  2  0  0  0
 22 24  2  0  0  0
 23 24  1  0  0  0
 24 25  1  0  0  0
 25 26  1  0  0  0
 25 27  1  0  0  0
M  END
> <minimizedAffinity>
-9.59998

$$$$
HC 030031.cdx


 27 29  0  0  0  0  0  0  0  0999 V2000
    4.3621   19.2869   50.0351 C   0  0  0  0  0  0  0  0  0  0  0  0
    5.3953   21.4700   50.7433 C   0  0  0  0  0  0  0  0  0  0  0  0
    6.3159   21.7858   51.6940 C   0  0  0  0  0  0  0  0  0  0  0  0
    5.2768   20.1107   50.7973 N   0  0  0  0  0  0  0  0  0  0  0  0
    4.7640   22.4378   49.9235 C   0  0  0  0  0  0  0  0  0  0  0  0
    6.6738   23.0888   51.9453 N   0  0  0  0  0  0  0  0  0  0  0  0
    6.7989   20.6762   52.3177 N   0  0  0  0  0  0  0  0  0  0  0  0
    6.1603   19.6711   51.7490 C   0  0  0  0  0  0  0  0  0  0  0  0
    5.0968   23.7485   50.2676 N   0  0  0  0  0  0  0  0  0  0  0  0
    4.0191   22.1290   48.9945 O   0  0  0  0  0  0  0  0  0  0  0  0
    6.0486   24.1197   51.2390 C   0  0  0  0  0  0  0  0  0  0  0  0
    7.6790   23.3867   52.9500 C   0  0  0  0  0  0  0  0  0  0  0  0
    4.4212   24.7925   49.5234 C   0  0  0  0  0  0  0  0  0  0  0  0
    6.3188   25.3067   51.4501 O   0  0  0  0  0  0  0  0  0  0  0  0
    5.0950   18.4812   48.9869 C   0  0  0  0  0  0  0  0  0  0  0  0
    4.2895   18.0433   47.9459 N   0  0  0  0  0  0  0  0  0  0  0  0
    6.3076   18.3135   49.0915 O   0  0  0  0  0  0  0  0  0  0  0  0
    3.3387   18.4132   47.8976 H   0  0  0  0  0  0  0  0  0  0  0  0
    4.7233   17.2894   46.8345 C   0  0  0  0  0  0  0  0  0  0  0  0
    5.7137   17.7295   45.9565 C   0  0  0  0  0  0  0  0  0  0  0  0
    4.1282   16.0445   46.6081 C   0  0  0  0  0  0  0  0  0  0  0  0
    6.0836   16.9586   44.8520 C   0  0  0  0  0  0  0  0  0  0  0  0
    4.4865   15.2784   45.4915 C   0  0  0  0  0  0  0  0  0  0  0  0
    5.4686   15.7283   44.5974 C   0  0  0  0  0  0  0  0  0  0  0  0
    5.8746   14.9317   43.3711 C   0  0  0  0  0  0  0  0  0  0  0  0
    7.3221   15.2161   42.9681 C   0  0  0  0  0  0  0  0  0  0  0  0
    5.6397   13.4335   43.5775 C   0  0  0  0  0  0  0  0  0  0  0  0
  2  4  1  0  0  0
  2  5  1  0  0  0
  2  3  2  0  0  0
  3  6  1  0  0  0
  3  7  2  0  0  0
  4  8  1  0  0  0
  4  1  1  0  0  0
  5  9  1  0  0  0
  5 10  2  0  0  0
  6 11  1  0  0  0
  6 12  1  0  0  0
  7  8  2  0  0  0
  1 15  1  0  0  0
  9 13  1  0  0  0
  9 11  1  0  0  0
 11 14  2  0  0  0
 15 16  1  0  0  0
 15 17  2  0  0  0
 16 19  1  0  0  0
 16 18  1  0  0  0
 19 20  2  0  0  0
 19 21  1  0  0  0
 20 22  1  0  0  0
 21 23  2  0  0  0
 22 24  2  0  0  0
 23 24  1  0  0  0
 24 25  1  0  0  0
 25 26  1  0  0  0
 25 27  1  0  0  0
M  END
> <minimizedAffinity>
-9.53863

$$$$
HC 030031.cdx


 27 29  0  0  0  0  0  0  0  0999 V2000
    6.0850   21.0619   52.1296 C   0  0  0  0  0  0  0  0  0  0  0  0
    6.5922   23.2992   51.0943 C   0  0  0  0  0  0  0  0  0  0  0  0
    6.0607   24.5383   51.2765 C   0  0  0  0  0  0  0  0  0  0  0  0
    5.9374   22.4946   51.9822 N   0  0  0  0  0  0  0  0  0  0  0  0
    7.6146   23.0250   50.1526 C   0  0  0  0  0  0  0  0  0  0  0  0
    6.4664   25.6139   50.5233 N   0  0  0  0  0  0  0  0  0  0  0  0
    5.1227   24.5454   52.2633 N   0  0  0  0  0  0  0  0  0  0  0  0
    5.0730   23.2953   52.6832 C   0  0  0  0  0  0  0  0  0  0  0  0
    7.9370   24.1255   49.3577 N   0  0  0  0  0  0  0  0  0  0  0  0
    8.1628   21.9264   50.0770 O   0  0  0  0  0  0  0  0  0  0  0  0
    7.4168   25.4262   49.5164 C   0  0  0  0  0  0  0  0  0  0  0  0
    5.8953   26.9274   50.7631 C   0  0  0  0  0  0  0  0  0  0  0  0
    8.9172   23.8924   48.3159 C   0  0  0  0  0  0  0  0  0  0  0  0
    7.7918   26.3580   48.7970 O   0  0  0  0  0  0  0  0  0  0  0  0
    5.3776   20.3217   51.0176 C   0  0  0  0  0  0  0  0  0  0  0  0
    6.2297   19.8013   50.0545 N   0  0  0  0  0  0  0  0  0  0  0  0
    4.1567   20.1913   51.0588 O   0  0  0  0  0  0  0  0  0  0  0  0
    7.2323   19.8297   50.2468 H   0  0  0  0  0  0  0  0  0  0  0  0
    5.8319   19.0561   48.9239 C   0  0  0  0  0  0  0  0  0  0  0  0
    4.9343   17.9906   48.9923 C   0  0  0  0  0  0  0  0  0  0  0  0
    6.3664   19.4068   47.6803 C   0  0  0  0  0  0  0  0  0  0  0  0
    4.5986   17.2644   47.8473 C   0  0  0  0  0  0  0  0  0  0  0  0
    6.0434   18.6686   46.5346 C   0  0  0  0  0  0  0  0  0  0  0  0
    5.1558   17.5852   46.6051 C   0  0  0  0  0  0  0  0  0  0  0  0
    4.7912   16.7553   45.3880 C   0  0  0  0  0  0  0  0  0  0  0  0
    6.0151   16.4600   44.5200 C   0  0  0  0  0  0  0  0  0  0  0  0
    4.0703   15.4661   45.7886 C   0  0  0  0  0  0  0  0  0  0  0  0
  2  4  1  0  0  0
  2  5  1  0  0  0
  2  3  2  0  0  0
  3  6  1  0  0  0
  3  7  2  0  0  0
  4  8  1  0  0  0
  4  1  1  0  0  0
  5  9  1  0  0  0
  5 10  2  0  0  0
  6 11  1  0  0  0
  6 12  1  0  0  0
  7  8  2  0  0  0
  1 15  1  0  0  0
  9 13  1  0  0  0
  9 11  1  0  0  0
 11 14  2  0  0  0
 15 16  1  0  0  0
 15 17  2  0  0  0
 16 19  1  0  0  0
 16 18  1  0  0  0
 19 20  2  0  0  0
 19 21  1  0  0  0
 20 22  1  0  0  0
 21 23  2  0  0  0
 22 24  2  0  0  0
 23 24  1  0  0  0
 24 25  1  0  0  0
 25 26  1  0  0  0
 25 27  1  0  0  0
M  END
> <minimizedAffinity>
-9.13301

$$$$
HC 030031.cdx


 27 29  0  0  0  0  0  0  0  0999 V2000
    4.1416   20.4902   48.2813 C   0  0  0  0  0  0  0  0  0  0  0  0
    5.5565   22.0695   49.6374 C   0  0  0  0  0  0  0  0  0  0  0  0
    6.8551   22.0249   50.0407 C   0  0  0  0  0  0  0  0  0  0  0  0
    5.3779   20.9469   48.8808 N   0  0  0  0  0  0  0  0  0  0  0  0
    4.6714   23.1188   49.9878 C   0  0  0  0  0  0  0  0  0  0  0  0
    7.3904   22.9951   50.8539 N   0  0  0  0  0  0  0  0  0  0  0  0
    7.5020   20.9361   49.5412 N   0  0  0  0  0  0  0  0  0  0  0  0
    6.5870   20.3026   48.8320 C   0  0  0  0  0  0  0  0  0  0  0  0
    5.2334   24.0358   50.8768 N   0  0  0  0  0  0  0  0  0  0  0  0
    3.5348   23.2037   49.5251 O   0  0  0  0  0  0  0  0  0  0  0  0
    6.5736   24.0311   51.3141 C   0  0  0  0  0  0  0  0  0  0  0  0
    8.7878   22.9286   51.2435 C   0  0  0  0  0  0  0  0  0  0  0  0
    4.3549   25.0900   51.3430 C   0  0  0  0  0  0  0  0  0  0  0  0
    7.0043   24.9100   52.0680 O   0  0  0  0  0  0  0  0  0  0  0  0
    4.4075   19.6161   47.0771 C   0  0  0  0  0  0  0  0  0  0  0  0
    4.5631   18.2711   47.3791 N   0  0  0  0  0  0  0  0  0  0  0  0
    4.4205   20.1184   45.9561 O   0  0  0  0  0  0  0  0  0  0  0  0
    4.3445   17.9731   48.3313 H   0  0  0  0  0  0  0  0  0  0  0  0
    4.8029   17.2427   46.4428 C   0  0  0  0  0  0  0  0  0  0  0  0
    4.0261   16.0866   46.3668 C   0  0  0  0  0  0  0  0  0  0  0  0
    5.8707   17.3956   45.5530 C   0  0  0  0  0  0  0  0  0  0  0  0
    4.3264   15.0835   45.4424 C   0  0  0  0  0  0  0  0  0  0  0  0
    6.1827   16.3828   44.6371 C   0  0  0  0  0  0  0  0  0  0  0  0
    5.4142   15.2116   44.5725 C   0  0  0  0  0  0  0  0  0  0  0  0
    5.7287   14.0882   43.6018 C   0  0  0  0  0  0  0  0  0  0  0  0
    7.0709   14.3068   42.9025 C   0  0  0  0  0  0  0  0  0  0  0  0
    5.6787   12.7240   44.2938 C   0  0  0  0  0  0  0  0  0  0  0  0
  2  4  1  0  0  0
  2  5  1  0  0  0
  2  3  2  0  0  0
  3  6  1  0  0  0
  3  7  2  0  0  0
  4  8  1  0  0  0
  4  1  1  0  0  0
  5  9  1  0  0  0
  5 10  2  0  0  0
  6 11  1  0  0  0
  6 12  1  0  0  0
  7  8  2  0  0  0
  1 15  1  0  0  0
  9 13  1  0  0  0
  9 11  1  0  0  0
 11 14  2  0  0  0
 15 16  1  0  0  0
 15 17  2  0  0  0
 16 19  1  0  0  0
 16 18  1  0  0  0
 19 20  2  0  0  0
 19 21  1  0  0  0
 20 22  1  0  0  0
 21 23  2  0  0  0
 22 24  2  0  0  0
 23 24  1  0  0  0
 24 25  1  0  0  0
 25 26  1  0  0  0
 25 27  1  0  0  0
M  END
> <minimizedAffinity>
-8.91443

$$$$
HC 030031.cdx


 27 29  0  0  0  0  0  0  0  0999 V2000
    3.8530   20.0844   48.1689 C   0  0  0  0  0  0  0  0  0  0  0  0
    6.0625   21.2366   48.5237 C   0  0  0  0  0  0  0  0  0  0  0  0
    6.6589   21.7610   49.6284 C   0  0  0  0  0  0  0  0  0  0  0  0
    4.8904   20.6977   48.9714 N   0  0  0  0  0  0  0  0  0  0  0  0
    6.6389   21.2930   47.2307 C   0  0  0  0  0  0  0  0  0  0  0  0
    7.8638   22.4180   49.5529 N   0  0  0  0  0  0  0  0  0  0  0  0
    5.9211   21.5442   50.7518 N   0  0  0  0  0  0  0  0  0  0  0  0
    4.8571   20.8881   50.3287 C   0  0  0  0  0  0  0  0  0  0  0  0
    7.8187   22.0370   47.1888 N   0  0  0  0  0  0  0  0  0  0  0  0
    6.1430   20.7181   46.2630 O   0  0  0  0  0  0  0  0  0  0  0  0
    8.4735   22.5907   48.3077 C   0  0  0  0  0  0  0  0  0  0  0  0
    8.4834   22.9426   50.7570 C   0  0  0  0  0  0  0  0  0  0  0  0
    8.4177   22.2062   45.8800 C   0  0  0  0  0  0  0  0  0  0  0  0
    9.5430   23.1977   48.1882 O   0  0  0  0  0  0  0  0  0  0  0  0
    4.2022   18.6550   47.8229 C   0  0  0  0  0  0  0  0  0  0  0  0
    4.4268   18.4401   46.4709 N   0  0  0  0  0  0  0  0  0  0  0  0
    4.3079   17.8237   48.7212 O   0  0  0  0  0  0  0  0  0  0  0  0
    4.4835   19.2609   45.8659 H   0  0  0  0  0  0  0  0  0  0  0  0
    4.7829   17.2067   45.8846 C   0  0  0  0  0  0  0  0  0  0  0  0
    4.0975   16.0183   46.1371 C   0  0  0  0  0  0  0  0  0  0  0  0
    5.8747   17.1813   45.0114 C   0  0  0  0  0  0  0  0  0  0  0  0
    4.5114   14.8174   45.5560 C   0  0  0  0  0  0  0  0  0  0  0  0
    6.3007   15.9747   44.4416 C   0  0  0  0  0  0  0  0  0  0  0  0
    5.6242   14.7759   44.7095 C   0  0  0  0  0  0  0  0  0  0  0  0
    6.0632   13.4482   44.1200 C   0  0  0  0  0  0  0  0  0  0  0  0
    5.3277   12.2737   44.7667 C   0  0  0  0  0  0  0  0  0  0  0  0
    5.9021   13.4341   42.5981 C   0  0  0  0  0  0  0  0  0  0  0  0
  2  4  1  0  0  0
  2  5  1  0  0  0
  2  3  2  0  0  0
  3  6  1  0  0  0
  3  7  2  0  0  0
  4  8  1  0  0  0
  4  1  1  0  0  0
  5  9  1  0  0  0
  5 10  2  0  0  0
  6 11  1  0  0  0
  6 12  1  0  0  0
  7  8  2  0  0  0
  1 15  1  0  0  0
  9 13  1  0  0  0
  9 11  1  0  0  0
 11 14  2  0  0  0
 15 16  1  0  0  0
 15 17  2  0  0  0
 16 19  1  0  0  0
 16 18  1  0  0  0
 19 20  2  0  0  0
 19 21  1  0  0  0
 20 22  1  0  0  0
 21 23  2  0  0  0
 22 24  2  0  0  0
 23 24  1  0  0  0
 24 25  1  0  0  0
 25 26  1  0  0  0
 25 27  1  0  0  0
M  END
> <minimizedAffinity>
-8.87805

$$$$
