INH1.cdx


 23 25  0  0  0  0  0  0  0  0999 V2000
    5.2265   17.7772   47.9887 C   0  0  0  0  0  0  0  0  0  0  0  0
    3.6233   17.6993   48.5549 S   0  0  0  0  0  0  0  0  0  0  0  0
    3.9239   19.1000   49.5141 C   0  0  0  0  0  0  0  0  0  0  0  0
    5.2041   19.5683   49.2712 C   0  0  0  0  0  0  0  0  0  0  0  0
    5.9523   18.7640   48.4368 N   0  0  0  0  0  0  0  0  0  0  0  0
    5.7662   20.7927   49.8384 C   0  0  0  0  0  0  0  0  0  0  0  0
    6.3557   20.8232   51.1187 C   0  0  0  0  0  0  0  0  0  0  0  0
    6.8182   22.0529   51.6331 C   0  0  0  0  0  0  0  0  0  0  0  0
    6.7305   23.2367   50.8920 C   0  0  0  0  0  0  0  0  0  0  0  0
    6.1735   23.1927   49.6168 C   0  0  0  0  0  0  0  0  0  0  0  0
    5.6925   21.9871   49.0958 C   0  0  0  0  0  0  0  0  0  0  0  0
    6.5105   19.6249   52.0214 C   0  0  0  0  0  0  0  0  0  0  0  0
    7.2184   24.5231   51.4871 C   0  0  0  0  0  0  0  0  0  0  0  0
    5.4569   16.9523   45.7544 C   0  0  0  0  0  0  0  0  0  0  0  0
    5.5881   16.7824   47.1178 N   0  0  0  0  0  0  0  0  0  0  0  0
    4.9948   17.9381   45.1886 O   0  0  0  0  0  0  0  0  0  0  0  0
    5.9569   15.9419   47.5268 H   0  0  0  0  0  0  0  0  0  0  0  0
    5.9333   15.8316   44.8962 C   0  0  0  0  0  0  0  0  0  0  0  0
    5.3290   14.5774   45.0827 C   0  0  0  0  0  0  0  0  0  0  0  0
    5.6750   13.4958   44.2729 C   0  0  0  0  0  0  0  0  0  0  0  0
    6.6296   13.6574   43.2718 C   0  0  0  0  0  0  0  0  0  0  0  0
    7.2397   14.8978   43.0818 C   0  0  0  0  0  0  0  0  0  0  0  0
    6.8939   15.9867   43.8881 C   0  0  0  0  0  0  0  0  0  0  0  0
 14 15  1  0  0  0
 14 18  1  0  0  0
 14 16  2  0  0  0
 15  1  1  0  0  0
 15 17  1  0  0  0
  1  2  1  0  0  0
  2  3  1  0  0  0
  3  4  2  0  0  0
  4  5  2  0  0  0
  4  6  1  0  0  0
  5  1  2  0  0  0
  6  7  2  0  0  0
  7  8  1  0  0  0
  7 12  1  0  0  0
  8  9  2  0  0  0
  9 10  1  0  0  0
  9 13  1  0  0  0
 10 11  2  0  0  0
 11  6  1  0  0  0
 18 19  2  0  0  0
 19 20  1  0  0  0
 20 21  2  0  0  0
 21 22  1  0  0  0
 22 23  2  0  0  0
 23 18  1  0  0  0
M  END
> <minimizedAffinity>
-8.59499

$$$$
INH1.cdx


 23 25  0  0  0  0  0  0  0  0999 V2000
    5.3151   19.3879   49.4351 C   0  0  0  0  0  0  0  0  0  0  0  0
    4.9835   18.7154   50.9630 S   0  0  0  0  0  0  0  0  0  0  0  0
    4.8639   20.3100   51.6075 C   0  0  0  0  0  0  0  0  0  0  0  0
    5.0101   21.2384   50.5908 C   0  0  0  0  0  0  0  0  0  0  0  0
    5.3234   20.6903   49.3643 N   0  0  0  0  0  0  0  0  0  0  0  0
    4.8712   22.6843   50.7550 C   0  0  0  0  0  0  0  0  0  0  0  0
    5.7217   23.4275   51.5990 C   0  0  0  0  0  0  0  0  0  0  0  0
    5.4899   24.8093   51.7638 C   0  0  0  0  0  0  0  0  0  0  0  0
    4.4537   25.4642   51.0887 C   0  0  0  0  0  0  0  0  0  0  0  0
    3.6364   24.7287   50.2345 C   0  0  0  0  0  0  0  0  0  0  0  0
    3.8382   23.3543   50.0714 C   0  0  0  0  0  0  0  0  0  0  0  0
    6.8711   22.8481   52.3851 C   0  0  0  0  0  0  0  0  0  0  0  0
    4.2340   26.9305   51.3091 C   0  0  0  0  0  0  0  0  0  0  0  0
    4.5163   18.0437   47.6240 C   0  0  0  0  0  0  0  0  0  0  0  0
    5.5449   18.4802   48.4341 N   0  0  0  0  0  0  0  0  0  0  0  0
    3.3357   18.3647   47.7161 O   0  0  0  0  0  0  0  0  0  0  0  0
    6.4931   18.1667   48.3234 H   0  0  0  0  0  0  0  0  0  0  0  0
    4.8857   17.1016   46.5305 C   0  0  0  0  0  0  0  0  0  0  0  0
    4.1358   15.9190   46.4202 C   0  0  0  0  0  0  0  0  0  0  0  0
    4.3787   15.0192   45.3827 C   0  0  0  0  0  0  0  0  0  0  0  0
    5.3746   15.2918   44.4482 C   0  0  0  0  0  0  0  0  0  0  0  0
    6.1289   16.4611   44.5519 C   0  0  0  0  0  0  0  0  0  0  0  0
    5.8871   17.3688   45.5878 C   0  0  0  0  0  0  0  0  0  0  0  0
 14 15  1  0  0  0
 14 18  1  0  0  0
 14 16  2  0  0  0
 15  1  1  0  0  0
 15 17  1  0  0  0
  1  2  1  0  0  0
  2  3  1  0  0  0
  3  4  2  0  0  0
  4  5  2  0  0  0
  4  6  1  0  0  0
  5  1  2  0  0  0
  6  7  2  0  0  0
  7  8  1  0  0  0
  7 12  1  0  0  0
  8  9  2  0  0  0
  9 10  1  0  0  0
  9 13  1  0  0  0
 10 11  2  0  0  0
 11  6  1  0  0  0
 18 19  2  0  0  0
 19 20  1  0  0  0
 20 21  2  0  0  0
 21 22  1  0  0  0
 22 23  2  0  0  0
 23 18  1  0  0  0
M  END
> <minimizedAffinity>
-8.52358

$$$$
INH1.cdx


 23 25  0  0  0  0  0  0  0  0999 V2000
    4.2258   20.6318   49.6685 C   0  0  0  0  0  0  0  0  0  0  0  0
    4.4690   19.6148   51.0112 S   0  0  0  0  0  0  0  0  0  0  0  0
    4.6661   18.2846   49.9323 C   0  0  0  0  0  0  0  0  0  0  0  0
    4.6078   18.7308   48.6229 C   0  0  0  0  0  0  0  0  0  0  0  0
    4.2992   20.0691   48.4940 N   0  0  0  0  0  0  0  0  0  0  0  0
    4.8296   17.8934   47.4454 C   0  0  0  0  0  0  0  0  0  0  0  0
    5.8080   18.2038   46.4789 C   0  0  0  0  0  0  0  0  0  0  0  0
    5.9237   17.3901   45.3322 C   0  0  0  0  0  0  0  0  0  0  0  0
    5.1096   16.2674   45.1452 C   0  0  0  0  0  0  0  0  0  0  0  0
    4.1656   15.9508   46.1184 C   0  0  0  0  0  0  0  0  0  0  0  0
    4.0226   16.7552   47.2537 C   0  0  0  0  0  0  0  0  0  0  0  0
    6.7465   19.3820   46.5552 C   0  0  0  0  0  0  0  0  0  0  0  0
    5.2562   15.4427   43.9021 C   0  0  0  0  0  0  0  0  0  0  0  0
    4.9856   22.8814   49.9645 C   0  0  0  0  0  0  0  0  0  0  0  0
    3.9716   21.9450   49.9679 N   0  0  0  0  0  0  0  0  0  0  0  0
    6.1725   22.6628   49.7433 O   0  0  0  0  0  0  0  0  0  0  0  0
    3.0170   22.1798   50.1762 H   0  0  0  0  0  0  0  0  0  0  0  0
    4.5905   24.2898   50.2472 C   0  0  0  0  0  0  0  0  0  0  0  0
    4.4895   25.1615   49.1504 C   0  0  0  0  0  0  0  0  0  0  0  0
    4.0618   26.4772   49.3271 C   0  0  0  0  0  0  0  0  0  0  0  0
    3.7338   26.9339   50.6012 C   0  0  0  0  0  0  0  0  0  0  0  0
    3.8358   26.0775   51.6981 C   0  0  0  0  0  0  0  0  0  0  0  0
    4.2604   24.7563   51.5264 C   0  0  0  0  0  0  0  0  0  0  0  0
 14 15  1  0  0  0
 14 18  1  0  0  0
 14 16  2  0  0  0
 15  1  1  0  0  0
 15 17  1  0  0  0
  1  2  1  0  0  0
  2  3  1  0  0  0
  3  4  2  0  0  0
  4  5  2  0  0  0
  4  6  1  0  0  0
  5  1  2  0  0  0
  6  7  2  0  0  0
  7  8  1  0  0  0
  7 12  1  0  0  0
  8  9  2  0  0  0
  9 10  1  0  0  0
  9 13  1  0  0  0
 10 11  2  0  0  0
 11  6  1  0  0  0
 18 19  2  0  0  0
 19 20  1  0  0  0
 20 21  2  0  0  0
 21 22  1  0  0  0
 22 23  2  0  0  0
 23 18  1  0  0  0
M  END
> <minimizedAffinity>
-8.49854

$$$$
INH1.cdx


 23 25  0  0  0  0  0  0  0  0999 V2000
    5.6214   19.1523   46.8553 C   0  0  0  0  0  0  0  0  0  0  0  0
    4.2579   20.0591   46.3914 S   0  0  0  0  0  0  0  0  0  0  0  0
    4.4842   21.0566   47.7793 C   0  0  0  0  0  0  0  0  0  0  0  0
    5.6307   20.6698   48.4523 C   0  0  0  0  0  0  0  0  0  0  0  0
    6.2359   19.5419   47.9379 N   0  0  0  0  0  0  0  0  0  0  0  0
    6.1829   21.3530   49.6207 C   0  0  0  0  0  0  0  0  0  0  0  0
    7.3312   22.1671   49.5390 C   0  0  0  0  0  0  0  0  0  0  0  0
    7.8505   22.7429   50.7177 C   0  0  0  0  0  0  0  0  0  0  0  0
    7.2374   22.5475   51.9604 C   0  0  0  0  0  0  0  0  0  0  0  0
    6.0871   21.7661   52.0280 C   0  0  0  0  0  0  0  0  0  0  0  0
    5.5667   21.1715   50.8740 C   0  0  0  0  0  0  0  0  0  0  0  0
    8.0889   22.4576   48.2678 C   0  0  0  0  0  0  0  0  0  0  0  0
    7.8357   23.1643   53.1886 C   0  0  0  0  0  0  0  0  0  0  0  0
    5.2635   16.8927   46.1543 C   0  0  0  0  0  0  0  0  0  0  0  0
    5.9279   18.0967   46.0365 N   0  0  0  0  0  0  0  0  0  0  0  0
    4.3960   16.6218   46.9787 O   0  0  0  0  0  0  0  0  0  0  0  0
    6.6462   18.2552   45.3519 H   0  0  0  0  0  0  0  0  0  0  0  0
    5.6340   15.8309   45.1772 C   0  0  0  0  0  0  0  0  0  0  0  0
    6.5891   16.1603   44.2013 C   0  0  0  0  0  0  0  0  0  0  0  0
    7.0354   15.2005   43.2930 C   0  0  0  0  0  0  0  0  0  0  0  0
    6.5294   13.9043   43.3503 C   0  0  0  0  0  0  0  0  0  0  0  0
    5.5763   13.5682   44.3125 C   0  0  0  0  0  0  0  0  0  0  0  0
    5.1281   14.5253   45.2281 C   0  0  0  0  0  0  0  0  0  0  0  0
 14 15  1  0  0  0
 14 18  1  0  0  0
 14 16  2  0  0  0
 15  1  1  0  0  0
 15 17  1  0  0  0
  1  2  1  0  0  0
  2  3  1  0  0  0
  3  4  2  0  0  0
  4  5  2  0  0  0
  4  6  1  0  0  0
  5  1  2  0  0  0
  6  7  2  0  0  0
  7  8  1  0  0  0
  7 12  1  0  0  0
  8  9  2  0  0  0
  9 10  1  0  0  0
  9 13  1  0  0  0
 10 11  2  0  0  0
 11  6  1  0  0  0
 18 19  2  0  0  0
 19 20  1  0  0  0
 20 21  2  0  0  0
 21 22  1  0  0  0
 22 23  2  0  0  0
 23 18  1  0  0  0
M  END
> <minimizedAffinity>
-8.13252

$$$$
INH1.cdx


 23 25  0  0  0  0  0  0  0  0999 V2000
    6.6275   20.3167   47.9643 C   0  0  0  0  0  0  0  0  0  0  0  0
    8.2367   20.8378   47.7752 S   0  0  0  0  0  0  0  0  0  0  0  0
    7.8031   22.3448   48.4917 C   0  0  0  0  0  0  0  0  0  0  0  0
    6.4783   22.3091   48.8925 C   0  0  0  0  0  0  0  0  0  0  0  0
    5.8081   21.1589   48.5305 N   0  0  0  0  0  0  0  0  0  0  0  0
    5.7983   23.3776   49.6224 C   0  0  0  0  0  0  0  0  0  0  0  0
    4.4062   23.3640   49.8455 C   0  0  0  0  0  0  0  0  0  0  0  0
    3.8043   24.4602   50.4987 C   0  0  0  0  0  0  0  0  0  0  0  0
    4.5596   25.5466   50.9543 C   0  0  0  0  0  0  0  0  0  0  0  0
    5.9377   25.5388   50.7560 C   0  0  0  0  0  0  0  0  0  0  0  0
    6.5513   24.4701   50.0944 C   0  0  0  0  0  0  0  0  0  0  0  0
    3.4770   22.2604   49.4060 C   0  0  0  0  0  0  0  0  0  0  0  0
    3.8740   26.6975   51.6268 C   0  0  0  0  0  0  0  0  0  0  0  0
    5.4970   18.8662   46.4335 C   0  0  0  0  0  0  0  0  0  0  0  0
    6.3612   19.0577   47.4924 N   0  0  0  0  0  0  0  0  0  0  0  0
    4.8700   19.7402   45.8432 O   0  0  0  0  0  0  0  0  0  0  0  0
    6.8337   18.2987   47.9512 H   0  0  0  0  0  0  0  0  0  0  0  0
    5.3230   17.4633   45.9631 C   0  0  0  0  0  0  0  0  0  0  0  0
    4.2653   16.7253   46.5194 C   0  0  0  0  0  0  0  0  0  0  0  0
    3.9984   15.4281   46.0820 C   0  0  0  0  0  0  0  0  0  0  0  0
    4.7876   14.8563   45.0871 C   0  0  0  0  0  0  0  0  0  0  0  0
    5.8441   15.5790   44.5318 C   0  0  0  0  0  0  0  0  0  0  0  0
    6.1139   16.8814   44.9636 C   0  0  0  0  0  0  0  0  0  0  0  0
 14 15  1  0  0  0
 14 18  1  0  0  0
 14 16  2  0  0  0
 15  1  1  0  0  0
 15 17  1  0  0  0
  1  2  1  0  0  0
  2  3  1  0  0  0
  3  4  2  0  0  0
  4  5  2  0  0  0
  4  6  1  0  0  0
  5  1  2  0  0  0
  6  7  2  0  0  0
  7  8  1  0  0  0
  7 12  1  0  0  0
  8  9  2  0  0  0
  9 10  1  0  0  0
  9 13  1  0  0  0
 10 11  2  0  0  0
 11  6  1  0  0  0
 18 19  2  0  0  0
 19 20  1  0  0  0
 20 21  2  0  0  0
 21 22  1  0  0  0
 22 23  2  0  0  0
 23 18  1  0  0  0
M  END
> <minimizedAffinity>
-7.87554

$$$$
