K-Ras(G12C) inhibitor 6.cdx


 25 26  0  0  0  0  0  0  0  0999 V2000
    6.7907   23.3276   49.8509 C   0  0  0  0  0  0  0  0  0  0  0  0
    6.2730   22.0694   50.1410 N   0  0  0  0  0  0  0  0  0  0  0  0
    6.0638   24.3002   49.6282 O   0  0  0  0  0  0  0  0  0  0  0  0
    7.0695   20.8885   50.4550 C   0  0  0  0  0  0  0  0  0  0  0  0
    6.8658   19.8458   49.3662 C   0  0  0  0  0  0  0  0  0  0  0  0
    5.3808   19.4840   49.2669 C   0  0  0  0  0  0  0  0  0  0  0  0
    4.5187   20.7367   49.0359 C   0  0  0  0  0  0  0  0  0  0  0  0
    4.8310   21.8316   50.0625 C   0  0  0  0  0  0  0  0  0  0  0  0
    5.1814   18.4952   48.2143 N   0  0  0  0  0  0  0  0  0  0  0  0
    4.1556   17.5770   48.2629 C   0  0  0  0  0  0  0  0  0  0  0  0
    3.3680   17.4989   49.1984 O   0  0  0  0  0  0  0  0  0  0  0  0
    5.7455   18.5542   47.3752 H   0  0  0  0  0  0  0  0  0  0  0  0
    4.1188   16.6640   47.0516 C   0  0  0  0  0  0  0  0  0  0  0  0
    5.4783   16.4924   46.3696 C   0  0  0  0  0  0  0  0  0  0  0  0
    5.4505   16.1885   44.8692 C   0  0  0  0  0  0  0  0  0  0  0  0
    6.2259   14.6004   44.4459 S   0  0  0  0  0  0  0  0  0  0  0  0
    7.4933   14.9894   44.6464 H   0  0  0  0  0  0  0  0  0  0  0  0
    8.3140   23.4638   49.7228 C   0  0  0  0  0  0  0  0  0  0  0  0
    8.7043   23.9700   48.4540 O   0  0  0  0  0  0  0  0  0  0  0  0
   10.9048   22.3248   46.0712 C   0  0  0  0  0  0  0  0  0  0  0  0
   10.1299   21.2606   45.6173 C   0  0  0  0  0  0  0  0  0  0  0  0
    8.8375   21.0888   46.1073 C   0  0  0  0  0  0  0  0  0  0  0  0
    8.3169   21.9792   47.0522 C   0  0  0  0  0  0  0  0  0  0  0  0
    9.0898   23.0455   47.5176 C   0  0  0  0  0  0  0  0  0  0  0  0
   10.3855   23.2119   47.0187 C   0  0  0  0  0  0  0  0  0  0  0  0
 20 21  2  0  0  0
 21 22  1  0  0  0
 22 23  2  0  0  0
 23 24  1  0  0  0
 24 25  2  0  0  0
 24 19  1  0  0  0
 25 20  1  0  0  0
 19 18  1  0  0  0
 18  1  1  0  0  0
  1  2  1  0  0  0
  1  3  2  0  0  0
  2  4  1  0  0  0
  4  5  1  0  0  0
  5  6  1  0  0  0
  6  7  1  0  0  0
  6  9  1  0  0  0
  7  8  1  0  0  0
  8  2  1  0  0  0
  9 10  1  0  0  0
  9 12  1  0  0  0
 10 13  1  0  0  0
 10 11  2  0  0  0
 13 14  1  0  0  0
 14 15  1  0  0  0
 15 16  1  0  0  0
 16 17  1  0  0  0
M  END
> <minimizedAffinity>
-7.54426

$$$$
K-Ras(G12C) inhibitor 6.cdx


 25 26  0  0  0  0  0  0  0  0999 V2000
    4.3218   17.9143   47.0736 C   0  0  0  0  0  0  0  0  0  0  0  0
    3.8841   19.2044   47.3552 N   0  0  0  0  0  0  0  0  0  0  0  0
    3.8071   16.9195   47.5926 O   0  0  0  0  0  0  0  0  0  0  0  0
    4.4159   20.4198   46.7490 C   0  0  0  0  0  0  0  0  0  0  0  0
    5.0806   21.2643   47.8257 C   0  0  0  0  0  0  0  0  0  0  0  0
    4.0624   21.6069   48.9174 C   0  0  0  0  0  0  0  0  0  0  0  0
    3.4195   20.3349   49.4955 C   0  0  0  0  0  0  0  0  0  0  0  0
    2.8711   19.4283   48.3876 C   0  0  0  0  0  0  0  0  0  0  0  0
    4.7011   22.4044   49.9574 N   0  0  0  0  0  0  0  0  0  0  0  0
    4.5779   23.7757   50.0021 C   0  0  0  0  0  0  0  0  0  0  0  0
    3.9627   24.4224   49.1625 O   0  0  0  0  0  0  0  0  0  0  0  0
    5.1572   21.9290   50.7267 H   0  0  0  0  0  0  0  0  0  0  0  0
    5.2992   24.3979   51.1830 C   0  0  0  0  0  0  0  0  0  0  0  0
    5.6116   23.4050   52.3052 C   0  0  0  0  0  0  0  0  0  0  0  0
    7.0892   23.2360   52.6691 C   0  0  0  0  0  0  0  0  0  0  0  0
    8.1777   23.1396   51.2170 S   0  0  0  0  0  0  0  0  0  0  0  0
    7.8218   21.9032   50.8395 H   0  0  0  0  0  0  0  0  0  0  0  0
    5.5409   17.7556   46.1549 C   0  0  0  0  0  0  0  0  0  0  0  0
    5.1823   17.2947   44.8596 O   0  0  0  0  0  0  0  0  0  0  0  0
    5.6802   13.6978   44.6572 C   0  0  0  0  0  0  0  0  0  0  0  0
    6.7205   13.5801   43.7392 C   0  0  0  0  0  0  0  0  0  0  0  0
    7.2800   14.7258   43.1785 C   0  0  0  0  0  0  0  0  0  0  0  0
    6.8008   15.9913   43.5331 C   0  0  0  0  0  0  0  0  0  0  0  0
    5.7533   16.1179   44.4482 C   0  0  0  0  0  0  0  0  0  0  0  0
    5.1989   14.9626   45.0080 C   0  0  0  0  0  0  0  0  0  0  0  0
 20 21  2  0  0  0
 21 22  1  0  0  0
 22 23  2  0  0  0
 23 24  1  0  0  0
 24 25  2  0  0  0
 24 19  1  0  0  0
 25 20  1  0  0  0
 19 18  1  0  0  0
 18  1  1  0  0  0
  1  2  1  0  0  0
  1  3  2  0  0  0
  2  4  1  0  0  0
  4  5  1  0  0  0
  5  6  1  0  0  0
  6  7  1  0  0  0
  6  9  1  0  0  0
  7  8  1  0  0  0
  8  2  1  0  0  0
  9 10  1  0  0  0
  9 12  1  0  0  0
 10 13  1  0  0  0
 10 11  2  0  0  0
 13 14  1  0  0  0
 14 15  1  0  0  0
 15 16  1  0  0  0
 16 17  1  0  0  0
M  END
> <minimizedAffinity>
-7.49265

$$$$
K-Ras(G12C) inhibitor 6.cdx


 25 26  0  0  0  0  0  0  0  0999 V2000
    5.1203   21.5952   48.9708 C   0  0  0  0  0  0  0  0  0  0  0  0
    4.6469   20.3096   48.7295 N   0  0  0  0  0  0  0  0  0  0  0  0
    4.7666   22.5625   48.2903 O   0  0  0  0  0  0  0  0  0  0  0  0
    4.9880   19.1303   49.5173 C   0  0  0  0  0  0  0  0  0  0  0  0
    5.7599   18.1532   48.6434 C   0  0  0  0  0  0  0  0  0  0  0  0
    4.9123   17.7637   47.4286 C   0  0  0  0  0  0  0  0  0  0  0  0
    4.4611   19.0078   46.6449 C   0  0  0  0  0  0  0  0  0  0  0  0
    3.8028   20.0434   47.5639 C   0  0  0  0  0  0  0  0  0  0  0  0
    5.6557   16.8382   46.5823 N   0  0  0  0  0  0  0  0  0  0  0  0
    5.0330   15.8196   45.8951 C   0  0  0  0  0  0  0  0  0  0  0  0
    3.8308   15.5947   45.9716 O   0  0  0  0  0  0  0  0  0  0  0  0
    6.6383   17.0145   46.4109 H   0  0  0  0  0  0  0  0  0  0  0  0
    5.9925   14.9973   45.0553 C   0  0  0  0  0  0  0  0  0  0  0  0
    6.5695   15.7581   43.8590 C   0  0  0  0  0  0  0  0  0  0  0  0
    7.0927   14.9041   42.7009 C   0  0  0  0  0  0  0  0  0  0  0  0
    5.9496   13.5769   42.2165 S   0  0  0  0  0  0  0  0  0  0  0  0
    6.1629   12.7930   43.2832 H   0  0  0  0  0  0  0  0  0  0  0  0
    6.1812   21.7747   50.0651 C   0  0  0  0  0  0  0  0  0  0  0  0
    7.3884   21.0894   49.7621 O   0  0  0  0  0  0  0  0  0  0  0  0
    9.1812   21.1050   46.5979 C   0  0  0  0  0  0  0  0  0  0  0  0
    9.6422   22.4160   46.5093 C   0  0  0  0  0  0  0  0  0  0  0  0
    9.3595   23.3182   47.5321 C   0  0  0  0  0  0  0  0  0  0  0  0
    8.6151   22.9129   48.6449 C   0  0  0  0  0  0  0  0  0  0  0  0
    8.1433   21.6016   48.7385 C   0  0  0  0  0  0  0  0  0  0  0  0
    8.4337   20.7017   47.7083 C   0  0  0  0  0  0  0  0  0  0  0  0
 20 21  2  0  0  0
 21 22  1  0  0  0
 22 23  2  0  0  0
 23 24  1  0  0  0
 24 25  2  0  0  0
 24 19  1  0  0  0
 25 20  1  0  0  0
 19 18  1  0  0  0
 18  1  1  0  0  0
  1  2  1  0  0  0
  1  3  2  0  0  0
  2  4  1  0  0  0
  4  5  1  0  0  0
  5  6  1  0  0  0
  6  7  1  0  0  0
  6  9  1  0  0  0
  7  8  1  0  0  0
  8  2  1  0  0  0
  9 10  1  0  0  0
  9 12  1  0  0  0
 10 13  1  0  0  0
 10 11  2  0  0  0
 13 14  1  0  0  0
 14 15  1  0  0  0
 15 16  1  0  0  0
 16 17  1  0  0  0
M  END
> <minimizedAffinity>
-7.48647

$$$$
K-Ras(G12C) inhibitor 6.cdx


 25 26  0  0  0  0  0  0  0  0999 V2000
    4.3978   17.6417   46.7678 C   0  0  0  0  0  0  0  0  0  0  0  0
    4.1363   19.0024   46.8914 N   0  0  0  0  0  0  0  0  0  0  0  0
    3.8537   16.8014   47.4901 O   0  0  0  0  0  0  0  0  0  0  0  0
    4.7089   20.0450   46.0471 C   0  0  0  0  0  0  0  0  0  0  0  0
    5.5909   20.9468   46.8975 C   0  0  0  0  0  0  0  0  0  0  0  0
    4.7630   21.5632   48.0290 C   0  0  0  0  0  0  0  0  0  0  0  0
    4.0713   20.4746   48.8671 C   0  0  0  0  0  0  0  0  0  0  0  0
    3.2935   19.4932   47.9827 C   0  0  0  0  0  0  0  0  0  0  0  0
    5.6096   22.4168   48.8537 N   0  0  0  0  0  0  0  0  0  0  0  0
    5.1236   23.5515   49.4650 C   0  0  0  0  0  0  0  0  0  0  0  0
    3.9702   23.9437   49.3335 O   0  0  0  0  0  0  0  0  0  0  0  0
    6.5503   22.1097   49.0695 H   0  0  0  0  0  0  0  0  0  0  0  0
    6.1689   24.2715   50.2964 C   0  0  0  0  0  0  0  0  0  0  0  0
    7.6004   23.8029   50.0241 C   0  0  0  0  0  0  0  0  0  0  0  0
    8.3420   23.1683   51.2038 C   0  0  0  0  0  0  0  0  0  0  0  0
    7.4595   23.3446   52.7826 S   0  0  0  0  0  0  0  0  0  0  0  0
    7.7015   24.6529   52.9492 H   0  0  0  0  0  0  0  0  0  0  0  0
    5.4652   17.2061   45.7548 C   0  0  0  0  0  0  0  0  0  0  0  0
    5.8923   15.8674   45.9650 O   0  0  0  0  0  0  0  0  0  0  0  0
    6.9039   14.9580   42.5921 C   0  0  0  0  0  0  0  0  0  0  0  0
    6.4209   13.6584   42.4634 C   0  0  0  0  0  0  0  0  0  0  0  0
    5.7314   13.0699   43.5208 C   0  0  0  0  0  0  0  0  0  0  0  0
    5.5238   13.7780   44.7092 C   0  0  0  0  0  0  0  0  0  0  0  0
    6.0107   15.0797   44.8489 C   0  0  0  0  0  0  0  0  0  0  0  0
    6.6998   15.6638   43.7815 C   0  0  0  0  0  0  0  0  0  0  0  0
 20 21  2  0  0  0
 21 22  1  0  0  0
 22 23  2  0  0  0
 23 24  1  0  0  0
 24 25  2  0  0  0
 24 19  1  0  0  0
 25 20  1  0  0  0
 19 18  1  0  0  0
 18  1  1  0  0  0
  1  2  1  0  0  0
  1  3  2  0  0  0
  2  4  1  0  0  0
  4  5  1  0  0  0
  5  6  1  0  0  0
  6  7  1  0  0  0
  6  9  1  0  0  0
  7  8  1  0  0  0
  8  2  1  0  0  0
  9 10  1  0  0  0
  9 12  1  0  0  0
 10 13  1  0  0  0
 10 11  2  0  0  0
 13 14  1  0  0  0
 14 15  1  0  0  0
 15 16  1  0  0  0
 16 17  1  0  0  0
M  END
> <minimizedAffinity>
-7.28424

$$$$
K-Ras(G12C) inhibitor 6.cdx


 25 26  0  0  0  0  0  0  0  0999 V2000
    4.9405   18.6822   48.9486 C   0  0  0  0  0  0  0  0  0  0  0  0
    4.4665   19.7907   49.6429 N   0  0  0  0  0  0  0  0  0  0  0  0
    6.0887   18.2551   49.1009 O   0  0  0  0  0  0  0  0  0  0  0  0
    3.1123   20.3237   49.5447 C   0  0  0  0  0  0  0  0  0  0  0  0
    3.1683   21.7192   48.9415 C   0  0  0  0  0  0  0  0  0  0  0  0
    4.0428   22.6254   49.8132 C   0  0  0  0  0  0  0  0  0  0  0  0
    5.4447   22.0233   50.0078 C   0  0  0  0  0  0  0  0  0  0  0  0
    5.3708   20.5699   50.4897 C   0  0  0  0  0  0  0  0  0  0  0  0
    4.1094   23.9597   49.2294 N   0  0  0  0  0  0  0  0  0  0  0  0
    3.7523   25.0841   49.9405 C   0  0  0  0  0  0  0  0  0  0  0  0
    3.3228   25.0451   51.0875 O   0  0  0  0  0  0  0  0  0  0  0  0
    4.5301   24.0724   48.3150 H   0  0  0  0  0  0  0  0  0  0  0  0
    3.9263   26.3667   49.1489 C   0  0  0  0  0  0  0  0  0  0  0  0
    5.3648   26.8895   49.1338 C   0  0  0  0  0  0  0  0  0  0  0  0
    6.2969   26.3409   50.2177 C   0  0  0  0  0  0  0  0  0  0  0  0
    7.5505   25.1951   49.5712 S   0  0  0  0  0  0  0  0  0  0  0  0
    6.7189   24.1674   49.3470 H   0  0  0  0  0  0  0  0  0  0  0  0
    4.0172   18.0430   47.9026 C   0  0  0  0  0  0  0  0  0  0  0  0
    4.5324   18.1641   46.5841 O   0  0  0  0  0  0  0  0  0  0  0  0
    6.2327   15.9264   44.2757 C   0  0  0  0  0  0  0  0  0  0  0  0
    5.5588   14.7217   44.4588 C   0  0  0  0  0  0  0  0  0  0  0  0
    4.5042   14.6511   45.3658 C   0  0  0  0  0  0  0  0  0  0  0  0
    4.1212   15.7834   46.0923 C   0  0  0  0  0  0  0  0  0  0  0  0
    4.7961   16.9940   45.9195 C   0  0  0  0  0  0  0  0  0  0  0  0
    5.8523   17.0566   45.0052 C   0  0  0  0  0  0  0  0  0  0  0  0
 20 21  2  0  0  0
 21 22  1  0  0  0
 22 23  2  0  0  0
 23 24  1  0  0  0
 24 25  2  0  0  0
 24 19  1  0  0  0
 25 20  1  0  0  0
 19 18  1  0  0  0
 18  1  1  0  0  0
  1  2  1  0  0  0
  1  3  2  0  0  0
  2  4  1  0  0  0
  4  5  1  0  0  0
  5  6  1  0  0  0
  6  7  1  0  0  0
  6  9  1  0  0  0
  7  8  1  0  0  0
  8  2  1  0  0  0
  9 10  1  0  0  0
  9 12  1  0  0  0
 10 13  1  0  0  0
 10 11  2  0  0  0
 13 14  1  0  0  0
 14 15  1  0  0  0
 15 16  1  0  0  0
 16 17  1  0  0  0
M  END
> <minimizedAffinity>
-7.23482

$$$$
