matrine.cdx


 18 21  0  0  0  0  0  0  0  0999 V2000
    5.0610   19.7012   51.3130 C   0  0  0  0  0  0  0  0  0  0  0  0
    4.1414   18.5047   51.2925 C   0  0  0  0  0  0  0  0  0  0  0  0
    3.5941   18.3104   49.8953 C   0  0  0  0  0  0  0  0  0  0  0  0
    4.6599   17.9324   48.9919 N   0  0  0  0  0  0  0  0  0  0  0  0
    5.9158   18.6863   49.0146 C   0  0  0  0  0  0  0  0  0  0  0  0
    6.0699   19.7476   50.1492 C   0  0  0  0  0  0  0  0  0  0  0  0
    4.1997   17.2266   47.8115 C   0  0  0  0  0  0  0  0  0  0  0  0
    5.1777   17.2258   46.6520 C   0  0  0  0  0  0  0  0  0  0  0  0
    5.6602   18.6433   46.4323 C   0  0  0  0  0  0  0  0  0  0  0  0
    6.5293   19.0982   47.6192 C   0  0  0  0  0  0  0  0  0  0  0  0
    6.9242   20.5873   47.3993 C   0  0  0  0  0  0  0  0  0  0  0  0
    7.1635   21.3027   48.6443 N   0  0  0  0  0  0  0  0  0  0  0  0
    6.0997   21.1678   49.6125 C   0  0  0  0  0  0  0  0  0  0  0  0
    8.0908   20.7090   46.4050 C   0  0  0  0  0  0  0  0  0  0  0  0
    8.5426   22.1575   46.3314 C   0  0  0  0  0  0  0  0  0  0  0  0
    9.0683   22.5605   47.6913 C   0  0  0  0  0  0  0  0  0  0  0  0
    8.0298   22.3813   48.7714 C   0  0  0  0  0  0  0  0  0  0  0  0
    8.0478   23.1191   49.7586 O   0  0  0  0  0  0  0  0  0  0  0  0
  1  2  1  0  0  0
  2  3  1  0  0  0
  3  4  1  0  0  0
  4  7  1  0  0  0
  5  4  1  0  0  0
  5  6  1  0  0  0
  6  1  1  0  0  0
  7  8  1  0  0  0
  8  9  1  0  0  0
 10  9  1  0  0  0
 10  5  1  0  0  0
 10 11  1  0  0  0
 11 12  1  0  0  0
 11 14  1  0  0  0
 12 13  1  0  0  0
 13  6  1  0  0  0
 14 15  1  0  0  0
 15 16  1  0  0  0
 16 17  1  0  0  0
 17 12  1  0  0  0
 17 18  2  0  0  0
M  END
> <minimizedAffinity>
-7.89042

$$$$
matrine.cdx


 18 21  0  0  0  0  0  0  0  0999 V2000
    6.5507   22.2301   51.2154 C   0  0  0  0  0  0  0  0  0  0  0  0
    7.5020   23.3791   50.9868 C   0  0  0  0  0  0  0  0  0  0  0  0
    8.6005   22.9466   50.0404 C   0  0  0  0  0  0  0  0  0  0  0  0
    8.0527   22.6951   48.7246 N   0  0  0  0  0  0  0  0  0  0  0  0
    6.8383   21.8851   48.5998 C   0  0  0  0  0  0  0  0  0  0  0  0
    6.1235   21.4933   49.9313 C   0  0  0  0  0  0  0  0  0  0  0  0
    9.0298   22.7981   47.6577 C   0  0  0  0  0  0  0  0  0  0  0  0
    8.6332   22.1083   46.3662 C   0  0  0  0  0  0  0  0  0  0  0  0
    8.1564   20.7107   46.6975 C   0  0  0  0  0  0  0  0  0  0  0  0
    6.8310   20.7731   47.4788 C   0  0  0  0  0  0  0  0  0  0  0  0
    6.4267   19.3251   47.8809 C   0  0  0  0  0  0  0  0  0  0  0  0
    5.6211   19.2745   49.0923 N   0  0  0  0  0  0  0  0  0  0  0  0
    6.1882   20.0010   50.2049 C   0  0  0  0  0  0  0  0  0  0  0  0
    5.7790   18.5837   46.6996 C   0  0  0  0  0  0  0  0  0  0  0  0
    5.2657   17.2339   47.1709 C   0  0  0  0  0  0  0  0  0  0  0  0
    4.1828   17.4707   48.2001 C   0  0  0  0  0  0  0  0  0  0  0  0
    4.6842   18.2862   49.3666 C   0  0  0  0  0  0  0  0  0  0  0  0
    4.1845   18.1214   50.4813 O   0  0  0  0  0  0  0  0  0  0  0  0
  1  2  1  0  0  0
  2  3  1  0  0  0
  3  4  1  0  0  0
  4  7  1  0  0  0
  5  4  1  0  0  0
  5  6  1  0  0  0
  6  1  1  0  0  0
  7  8  1  0  0  0
  8  9  1  0  0  0
 10  9  1  0  0  0
 10  5  1  0  0  0
 10 11  1  0  0  0
 11 12  1  0  0  0
 11 14  1  0  0  0
 12 13  1  0  0  0
 13  6  1  0  0  0
 14 15  1  0  0  0
 15 16  1  0  0  0
 16 17  1  0  0  0
 17 12  1  0  0  0
 17 18  2  0  0  0
M  END
> <minimizedAffinity>
-7.82674

$$$$
matrine.cdx


 18 21  0  0  0  0  0  0  0  0999 V2000
    8.6915   21.5680   46.4507 C   0  0  0  0  0  0  0  0  0  0  0  0
    9.4427   22.6479   47.1905 C   0  0  0  0  0  0  0  0  0  0  0  0
    8.5655   23.2165   48.2844 C   0  0  0  0  0  0  0  0  0  0  0  0
    8.3264   22.2146   49.3012 N   0  0  0  0  0  0  0  0  0  0  0  0
    7.9298   20.8645   48.8937 C   0  0  0  0  0  0  0  0  0  0  0  0
    7.9626   20.5621   47.3624 C   0  0  0  0  0  0  0  0  0  0  0  0
    7.9749   22.7696   50.5942 C   0  0  0  0  0  0  0  0  0  0  0  0
    7.2796   21.8010   51.5319 C   0  0  0  0  0  0  0  0  0  0  0  0
    6.1593   21.1223   50.7738 C   0  0  0  0  0  0  0  0  0  0  0  0
    6.7379   20.1980   49.6865 C   0  0  0  0  0  0  0  0  0  0  0  0
    5.5570   19.5959   48.8713 C   0  0  0  0  0  0  0  0  0  0  0  0
    5.9231   19.2583   47.5035 N   0  0  0  0  0  0  0  0  0  0  0  0
    6.5757   20.3309   46.7888 C   0  0  0  0  0  0  0  0  0  0  0  0
    4.9065   18.4234   49.6240 C   0  0  0  0  0  0  0  0  0  0  0  0
    3.8613   17.7707   48.7357 C   0  0  0  0  0  0  0  0  0  0  0  0
    4.5606   17.1939   47.5247 C   0  0  0  0  0  0  0  0  0  0  0  0
    5.3246   18.2478   46.7613 C   0  0  0  0  0  0  0  0  0  0  0  0
    5.4745   18.1260   45.5440 O   0  0  0  0  0  0  0  0  0  0  0  0
  1  2  1  0  0  0
  2  3  1  0  0  0
  3  4  1  0  0  0
  4  7  1  0  0  0
  5  4  1  0  0  0
  5  6  1  0  0  0
  6  1  1  0  0  0
  7  8  1  0  0  0
  8  9  1  0  0  0
 10  9  1  0  0  0
 10  5  1  0  0  0
 10 11  1  0  0  0
 11 12  1  0  0  0
 11 14  1  0  0  0
 12 13  1  0  0  0
 13  6  1  0  0  0
 14 15  1  0  0  0
 15 16  1  0  0  0
 16 17  1  0  0  0
 17 12  1  0  0  0
 17 18  2  0  0  0
M  END
> <minimizedAffinity>
-7.68221

$$$$
matrine.cdx


 18 21  0  0  0  0  0  0  0  0999 V2000
    3.9384   23.5415   50.1752 C   0  0  0  0  0  0  0  0  0  0  0  0
    4.9102   24.6817   50.3572 C   0  0  0  0  0  0  0  0  0  0  0  0
    6.3031   24.1307   50.5708 C   0  0  0  0  0  0  0  0  0  0  0  0
    6.7700   23.4784   49.3661 N   0  0  0  0  0  0  0  0  0  0  0  0
    5.8837   22.5400   48.6732 C   0  0  0  0  0  0  0  0  0  0  0  0
    4.4184   22.4459   49.2037 C   0  0  0  0  0  0  0  0  0  0  0  0
    8.2148   23.3949   49.2717 C   0  0  0  0  0  0  0  0  0  0  0  0
    8.7272   22.3457   48.3034 C   0  0  0  0  0  0  0  0  0  0  0  0
    8.0035   21.0457   48.5800 C   0  0  0  0  0  0  0  0  0  0  0  0
    6.5172   21.1738   48.1985 C   0  0  0  0  0  0  0  0  0  0  0  0
    5.7927   19.8523   48.5863 C   0  0  0  0  0  0  0  0  0  0  0  0
    4.3802   20.0430   48.8819 N   0  0  0  0  0  0  0  0  0  0  0  0
    4.1170   21.0975   49.8337 C   0  0  0  0  0  0  0  0  0  0  0  0
    6.0422   18.7564   47.5368 C   0  0  0  0  0  0  0  0  0  0  0  0
    5.2022   17.5358   47.8718 C   0  0  0  0  0  0  0  0  0  0  0  0
    3.7431   17.9232   47.7777 C   0  0  0  0  0  0  0  0  0  0  0  0
    3.4053   19.0705   48.6980 C   0  0  0  0  0  0  0  0  0  0  0  0
    2.2683   19.1585   49.1656 O   0  0  0  0  0  0  0  0  0  0  0  0
  1  2  1  0  0  0
  2  3  1  0  0  0
  3  4  1  0  0  0
  4  7  1  0  0  0
  5  4  1  0  0  0
  5  6  1  0  0  0
  6  1  1  0  0  0
  7  8  1  0  0  0
  8  9  1  0  0  0
 10  9  1  0  0  0
 10  5  1  0  0  0
 10 11  1  0  0  0
 11 12  1  0  0  0
 11 14  1  0  0  0
 12 13  1  0  0  0
 13  6  1  0  0  0
 14 15  1  0  0  0
 15 16  1  0  0  0
 16 17  1  0  0  0
 17 12  1  0  0  0
 17 18  2  0  0  0
M  END
> <minimizedAffinity>
-7.65370

$$$$
matrine.cdx


 18 21  0  0  0  0  0  0  0  0999 V2000
    3.6423   24.3526   50.3648 C   0  0  0  0  0  0  0  0  0  0  0  0
    4.2779   25.1182   51.4995 C   0  0  0  0  0  0  0  0  0  0  0  0
    5.3166   24.2509   52.1765 C   0  0  0  0  0  0  0  0  0  0  0  0
    6.4219   24.0038   51.2754 N   0  0  0  0  0  0  0  0  0  0  0  0
    6.1413   23.5907   49.8981 C   0  0  0  0  0  0  0  0  0  0  0  0
    4.6444   23.6153   49.4555 C   0  0  0  0  0  0  0  0  0  0  0  0
    7.6589   23.6626   51.9511 C   0  0  0  0  0  0  0  0  0  0  0  0
    8.6834   22.9594   51.0811 C   0  0  0  0  0  0  0  0  0  0  0  0
    7.9933   21.8292   50.3483 C   0  0  0  0  0  0  0  0  0  0  0  0
    6.9947   22.3939   49.3212 C   0  0  0  0  0  0  0  0  0  0  0  0
    6.2409   21.2038   48.6602 C   0  0  0  0  0  0  0  0  0  0  0  0
    4.9092   21.5617   48.1938 N   0  0  0  0  0  0  0  0  0  0  0  0
    4.0974   22.2241   49.1884 C   0  0  0  0  0  0  0  0  0  0  0  0
    7.0998   20.5426   47.5695 C   0  0  0  0  0  0  0  0  0  0  0  0
    6.2776   19.4872   46.8498 C   0  0  0  0  0  0  0  0  0  0  0  0
    5.1235   20.1762   46.1559 C   0  0  0  0  0  0  0  0  0  0  0  0
    4.2646   20.9496   47.1262 C   0  0  0  0  0  0  0  0  0  0  0  0
    3.0634   21.0943   46.8910 O   0  0  0  0  0  0  0  0  0  0  0  0
  1  2  1  0  0  0
  2  3  1  0  0  0
  3  4  1  0  0  0
  4  7  1  0  0  0
  5  4  1  0  0  0
  5  6  1  0  0  0
  6  1  1  0  0  0
  7  8  1  0  0  0
  8  9  1  0  0  0
 10  9  1  0  0  0
 10  5  1  0  0  0
 10 11  1  0  0  0
 11 12  1  0  0  0
 11 14  1  0  0  0
 12 13  1  0  0  0
 13  6  1  0  0  0
 14 15  1  0  0  0
 15 16  1  0  0  0
 16 17  1  0  0  0
 17 12  1  0  0  0
 17 18  2  0  0  0
M  END
> <minimizedAffinity>
-7.60308

$$$$
