Omeprazole.cdx


 25 27  0  0  0  0  0  0  0  0999 V2000
    3.2044   20.1516   48.2666 S   0  0  0  0  0  0  0  0  0  0  0  0
    2.1783   19.4921   49.1377 O   0  0  0  0  0  0  0  0  0  0  0  0
    5.1147   15.0813   45.1224 C   0  0  0  0  0  0  0  0  0  0  0  0
    5.9932   15.9927   44.5276 C   0  0  0  0  0  0  0  0  0  0  0  0
    5.9578   17.3457   44.8959 C   0  0  0  0  0  0  0  0  0  0  0  0
    5.0335   17.7727   45.8622 C   0  0  0  0  0  0  0  0  0  0  0  0
    4.1902   16.8390   46.4517 C   0  0  0  0  0  0  0  0  0  0  0  0
    4.1915   15.4849   46.1020 C   0  0  0  0  0  0  0  0  0  0  0  0
    4.7990   19.0305   46.3602 N   0  0  0  0  0  0  0  0  0  0  0  0
    3.8636   18.8765   47.2739 C   0  0  0  0  0  0  0  0  0  0  0  0
    3.4684   17.5660   47.3632 N   0  0  0  0  0  0  0  0  0  0  0  0
    2.7646   17.2151   47.9975 H   0  0  0  0  0  0  0  0  0  0  0  0
    6.9326   15.6961   43.5750 O   0  0  0  0  0  0  0  0  0  0  0  0
    7.1729   14.3231   43.2983 C   0  0  0  0  0  0  0  0  0  0  0  0
    4.7014   20.5576   49.1984 C   0  0  0  0  0  0  0  0  0  0  0  0
    4.5876   21.8384   49.9971 C   0  0  0  0  0  0  0  0  0  0  0  0
    5.1917   22.0246   51.2578 C   0  0  0  0  0  0  0  0  0  0  0  0
    5.1511   23.3260   51.8081 C   0  0  0  0  0  0  0  0  0  0  0  0
    4.5144   24.3685   51.1114 C   0  0  0  0  0  0  0  0  0  0  0  0
    3.9118   24.0587   49.9052 C   0  0  0  0  0  0  0  0  0  0  0  0
    3.9295   22.8346   49.3434 N   0  0  0  0  0  0  0  0  0  0  0  0
    5.9058   20.8955   51.9451 C   0  0  0  0  0  0  0  0  0  0  0  0
    4.4947   25.7769   51.6249 C   0  0  0  0  0  0  0  0  0  0  0  0
    5.8284   23.7447   52.9290 O   0  0  0  0  0  0  0  0  0  0  0  0
    7.2474   23.6826   52.9260 C   0  0  0  0  0  0  0  0  0  0  0  0
  3  4  2  0  0  0
  4  5  1  0  0  0
  4 13  1  0  0  0
  5  6  2  0  0  0
  6  7  1  0  0  0
  6  9  2  0  0  0
  7  8  2  0  0  0
  8  3  1  0  0  0
  9 10  2  0  0  0
 10 11  1  0  0  0
 10  1  1  0  0  0
 11  7  1  0  0  0
 11 12  1  0  0  0
 13 14  1  0  0  0
  1  2  2  0  0  0
  1 15  1  0  0  0
 15 16  1  0  0  0
 16 17  2  0  0  0
 17 18  1  0  0  0
 17 22  1  0  0  0
 18 19  2  0  0  0
 18 24  1  0  0  0
 19 20  1  0  0  0
 19 23  1  0  0  0
 20 21  2  0  0  0
 21 16  2  0  0  0
 24 25  1  0  0  0
M  END
> <minimizedAffinity>
-8.31279

$$$$
Omeprazole.cdx


 25 27  0  0  0  0  0  0  0  0999 V2000
    4.5230   19.0707   51.8222 S   0  0  0  0  0  0  0  0  0  0  0  0
    4.1338   19.5089   53.2017 O   0  0  0  0  0  0  0  0  0  0  0  0
    8.5063   23.1297   49.1951 C   0  0  0  0  0  0  0  0  0  0  0  0
    7.7733   24.0635   49.9349 C   0  0  0  0  0  0  0  0  0  0  0  0
    6.6967   23.6419   50.7290 C   0  0  0  0  0  0  0  0  0  0  0  0
    6.3638   22.2790   50.7710 C   0  0  0  0  0  0  0  0  0  0  0  0
    7.1257   21.3731   50.0434 C   0  0  0  0  0  0  0  0  0  0  0  0
    8.1989   21.7590   49.2340 C   0  0  0  0  0  0  0  0  0  0  0  0
    5.3532   21.6405   51.4465 N   0  0  0  0  0  0  0  0  0  0  0  0
    5.5110   20.3600   51.1838 C   0  0  0  0  0  0  0  0  0  0  0  0
    6.5731   20.1538   50.3405 N   0  0  0  0  0  0  0  0  0  0  0  0
    6.8806   19.2513   50.0062 H   0  0  0  0  0  0  0  0  0  0  0  0
    8.0009   25.4144   49.9712 O   0  0  0  0  0  0  0  0  0  0  0  0
    6.9881   26.2334   50.5392 C   0  0  0  0  0  0  0  0  0  0  0  0
    3.1362   19.2085   50.6680 C   0  0  0  0  0  0  0  0  0  0  0  0
    3.5073   18.8871   49.2361 C   0  0  0  0  0  0  0  0  0  0  0  0
    3.6800   19.8692   48.2387 C   0  0  0  0  0  0  0  0  0  0  0  0
    4.1969   19.4426   46.9942 C   0  0  0  0  0  0  0  0  0  0  0  0
    4.5027   18.0862   46.7834 C   0  0  0  0  0  0  0  0  0  0  0  0
    4.2455   17.2032   47.8169 C   0  0  0  0  0  0  0  0  0  0  0  0
    3.7574   17.5670   49.0185 N   0  0  0  0  0  0  0  0  0  0  0  0
    3.3888   21.3156   48.5220 C   0  0  0  0  0  0  0  0  0  0  0  0
    5.1067   17.5934   45.5027 C   0  0  0  0  0  0  0  0  0  0  0  0
    4.5988   20.2646   45.9680 O   0  0  0  0  0  0  0  0  0  0  0  0
    5.7936   21.0153   46.1294 C   0  0  0  0  0  0  0  0  0  0  0  0
  3  4  2  0  0  0
  4  5  1  0  0  0
  4 13  1  0  0  0
  5  6  2  0  0  0
  6  7  1  0  0  0
  6  9  2  0  0  0
  7  8  2  0  0  0
  8  3  1  0  0  0
  9 10  2  0  0  0
 10 11  1  0  0  0
 10  1  1  0  0  0
 11  7  1  0  0  0
 11 12  1  0  0  0
 13 14  1  0  0  0
  1  2  2  0  0  0
  1 15  1  0  0  0
 15 16  1  0  0  0
 16 17  2  0  0  0
 17 18  1  0  0  0
 17 22  1  0  0  0
 18 19  2  0  0  0
 18 24  1  0  0  0
 19 20  1  0  0  0
 19 23  1  0  0  0
 20 21  2  0  0  0
 21 16  2  0  0  0
 24 25  1  0  0  0
M  END
> <minimizedAffinity>
-7.88869

$$$$
Omeprazole.cdx


 25 27  0  0  0  0  0  0  0  0999 V2000
    4.9346   20.5151   51.8954 S   0  0  0  0  0  0  0  0  0  0  0  0
    4.5903   19.3587   52.7847 O   0  0  0  0  0  0  0  0  0  0  0  0
    4.9309   18.8083   45.8679 C   0  0  0  0  0  0  0  0  0  0  0  0
    5.4038   17.5991   46.3881 C   0  0  0  0  0  0  0  0  0  0  0  0
    5.6053   17.4590   47.7691 C   0  0  0  0  0  0  0  0  0  0  0  0
    5.3299   18.5418   48.6188 C   0  0  0  0  0  0  0  0  0  0  0  0
    4.8388   19.7220   48.0743 C   0  0  0  0  0  0  0  0  0  0  0  0
    4.6354   19.8999   46.7021 C   0  0  0  0  0  0  0  0  0  0  0  0
    5.4691   18.6492   49.9805 N   0  0  0  0  0  0  0  0  0  0  0  0
    5.0297   19.8528   50.2835 C   0  0  0  0  0  0  0  0  0  0  0  0
    4.6366   20.5347   49.1600 N   0  0  0  0  0  0  0  0  0  0  0  0
    4.2644   21.4740   49.1531 H   0  0  0  0  0  0  0  0  0  0  0  0
    5.7093   16.4783   45.6610 O   0  0  0  0  0  0  0  0  0  0  0  0
    5.0144   16.2830   44.4370 C   0  0  0  0  0  0  0  0  0  0  0  0
    6.6680   20.9999   52.0813 C   0  0  0  0  0  0  0  0  0  0  0  0
    7.1765   21.8707   50.9524 C   0  0  0  0  0  0  0  0  0  0  0  0
    7.1678   23.2805   50.9937 C   0  0  0  0  0  0  0  0  0  0  0  0
    7.8327   23.9618   49.9489 C   0  0  0  0  0  0  0  0  0  0  0  0
    8.4550   23.2376   48.9165 C   0  0  0  0  0  0  0  0  0  0  0  0
    8.3568   21.8581   48.9521 C   0  0  0  0  0  0  0  0  0  0  0  0
    7.7366   21.1691   49.9294 N   0  0  0  0  0  0  0  0  0  0  0  0
    6.5351   24.0145   52.1419 C   0  0  0  0  0  0  0  0  0  0  0  0
    9.2217   23.9113   47.8182 C   0  0  0  0  0  0  0  0  0  0  0  0
    8.0853   25.3126   49.9050 O   0  0  0  0  0  0  0  0  0  0  0  0
    7.0597   26.1790   49.4414 C   0  0  0  0  0  0  0  0  0  0  0  0
  3  4  2  0  0  0
  4  5  1  0  0  0
  4 13  1  0  0  0
  5  6  2  0  0  0
  6  7  1  0  0  0
  6  9  2  0  0  0
  7  8  2  0  0  0
  8  3  1  0  0  0
  9 10  2  0  0  0
 10 11  1  0  0  0
 10  1  1  0  0  0
 11  7  1  0  0  0
 11 12  1  0  0  0
 13 14  1  0  0  0
  1  2  2  0  0  0
  1 15  1  0  0  0
 15 16  1  0  0  0
 16 17  2  0  0  0
 17 18  1  0  0  0
 17 22  1  0  0  0
 18 19  2  0  0  0
 18 24  1  0  0  0
 19 20  1  0  0  0
 19 23  1  0  0  0
 20 21  2  0  0  0
 21 16  2  0  0  0
 24 25  1  0  0  0
M  END
> <minimizedAffinity>
-7.78356

$$$$
Omeprazole.cdx


 25 27  0  0  0  0  0  0  0  0999 V2000
    4.4386   18.2526   47.3794 S   0  0  0  0  0  0  0  0  0  0  0  0
    3.2326   17.6380   48.0231 O   0  0  0  0  0  0  0  0  0  0  0  0
    6.9942   14.5320   43.0355 C   0  0  0  0  0  0  0  0  0  0  0  0
    6.1154   13.5869   43.5750 C   0  0  0  0  0  0  0  0  0  0  0  0
    5.2793   13.9356   44.6459 C   0  0  0  0  0  0  0  0  0  0  0  0
    5.3358   15.2370   45.1687 C   0  0  0  0  0  0  0  0  0  0  0  0
    6.2023   16.1598   44.5958 C   0  0  0  0  0  0  0  0  0  0  0  0
    7.0565   15.8443   43.5344 C   0  0  0  0  0  0  0  0  0  0  0  0
    4.6427   15.7964   46.2136 N   0  0  0  0  0  0  0  0  0  0  0  0
    5.0334   17.0528   46.2602 C   0  0  0  0  0  0  0  0  0  0  0  0
    5.9747   17.3156   45.2976 N   0  0  0  0  0  0  0  0  0  0  0  0
    6.4140   18.2129   45.1467 H   0  0  0  0  0  0  0  0  0  0  0  0
    5.9738   12.2909   43.1528 O   0  0  0  0  0  0  0  0  0  0  0  0
    5.5566   12.0819   41.8106 C   0  0  0  0  0  0  0  0  0  0  0  0
    5.8514   18.2785   48.5098 C   0  0  0  0  0  0  0  0  0  0  0  0
    6.5920   19.5986   48.5215 C   0  0  0  0  0  0  0  0  0  0  0  0
    7.0944   20.1976   49.6953 C   0  0  0  0  0  0  0  0  0  0  0  0
    7.9159   21.3371   49.5387 C   0  0  0  0  0  0  0  0  0  0  0  0
    8.1911   21.8390   48.2542 C   0  0  0  0  0  0  0  0  0  0  0  0
    7.6033   21.2001   47.1771 C   0  0  0  0  0  0  0  0  0  0  0  0
    6.8178   20.1107   47.2807 N   0  0  0  0  0  0  0  0  0  0  0  0
    6.8179   19.5995   51.0455 C   0  0  0  0  0  0  0  0  0  0  0  0
    9.1025   23.0086   48.0321 C   0  0  0  0  0  0  0  0  0  0  0  0
    8.6368   21.9498   50.5364 O   0  0  0  0  0  0  0  0  0  0  0  0
    7.9993   22.9516   51.3158 C   0  0  0  0  0  0  0  0  0  0  0  0
  3  4  2  0  0  0
  4  5  1  0  0  0
  4 13  1  0  0  0
  5  6  2  0  0  0
  6  7  1  0  0  0
  6  9  2  0  0  0
  7  8  2  0  0  0
  8  3  1  0  0  0
  9 10  2  0  0  0
 10 11  1  0  0  0
 10  1  1  0  0  0
 11  7  1  0  0  0
 11 12  1  0  0  0
 13 14  1  0  0  0
  1  2  2  0  0  0
  1 15  1  0  0  0
 15 16  1  0  0  0
 16 17  2  0  0  0
 17 18  1  0  0  0
 17 22  1  0  0  0
 18 19  2  0  0  0
 18 24  1  0  0  0
 19 20  1  0  0  0
 19 23  1  0  0  0
 20 21  2  0  0  0
 21 16  2  0  0  0
 24 25  1  0  0  0
M  END
> <minimizedAffinity>
-7.78134

$$$$
Omeprazole.cdx


 25 27  0  0  0  0  0  0  0  0999 V2000
    4.8885   19.0755   51.7891 S   0  0  0  0  0  0  0  0  0  0  0  0
    4.7165   19.8884   53.0366 O   0  0  0  0  0  0  0  0  0  0  0  0
    8.4012   23.0402   48.4447 C   0  0  0  0  0  0  0  0  0  0  0  0
    8.8655   21.8602   47.8544 C   0  0  0  0  0  0  0  0  0  0  0  0
    8.3739   20.6188   48.2840 C   0  0  0  0  0  0  0  0  0  0  0  0
    7.4166   20.5744   49.3096 C   0  0  0  0  0  0  0  0  0  0  0  0
    6.9578   21.7650   49.8596 C   0  0  0  0  0  0  0  0  0  0  0  0
    7.4327   23.0192   49.4627 C   0  0  0  0  0  0  0  0  0  0  0  0
    6.8142   19.4937   49.9048 N   0  0  0  0  0  0  0  0  0  0  0  0
    5.9643   20.0008   50.7731 C   0  0  0  0  0  0  0  0  0  0  0  0
    6.0173   21.3715   50.7765 N   0  0  0  0  0  0  0  0  0  0  0  0
    5.4526   21.9716   51.3613 H   0  0  0  0  0  0  0  0  0  0  0  0
    9.7963   21.7775   46.8520 O   0  0  0  0  0  0  0  0  0  0  0  0
    9.5614   20.8323   45.8173 C   0  0  0  0  0  0  0  0  0  0  0  0
    3.4139   19.1485   50.7429 C   0  0  0  0  0  0  0  0  0  0  0  0
    3.6886   18.8330   49.2882 C   0  0  0  0  0  0  0  0  0  0  0  0
    3.7436   19.8145   48.2769 C   0  0  0  0  0  0  0  0  0  0  0  0
    4.1822   19.4013   46.9983 C   0  0  0  0  0  0  0  0  0  0  0  0
    4.5282   18.0575   46.7699 C   0  0  0  0  0  0  0  0  0  0  0  0
    4.3876   17.1717   47.8232 C   0  0  0  0  0  0  0  0  0  0  0  0
    3.9770   17.5230   49.0571 N   0  0  0  0  0  0  0  0  0  0  0  0
    3.4139   21.2495   48.5762 C   0  0  0  0  0  0  0  0  0  0  0  0
    5.0536   17.5816   45.4488 C   0  0  0  0  0  0  0  0  0  0  0  0
    4.4701   20.2323   45.9415 O   0  0  0  0  0  0  0  0  0  0  0  0
    5.6669   20.9958   45.9862 C   0  0  0  0  0  0  0  0  0  0  0  0
  3  4  2  0  0  0
  4  5  1  0  0  0
  4 13  1  0  0  0
  5  6  2  0  0  0
  6  7  1  0  0  0
  6  9  2  0  0  0
  7  8  2  0  0  0
  8  3  1  0  0  0
  9 10  2  0  0  0
 10 11  1  0  0  0
 10  1  1  0  0  0
 11  7  1  0  0  0
 11 12  1  0  0  0
 13 14  1  0  0  0
  1  2  2  0  0  0
  1 15  1  0  0  0
 15 16  1  0  0  0
 16 17  2  0  0  0
 17 18  1  0  0  0
 17 22  1  0  0  0
 18 19  2  0  0  0
 18 24  1  0  0  0
 19 20  1  0  0  0
 19 23  1  0  0  0
 20 21  2  0  0  0
 21 16  2  0  0  0
 24 25  1  0  0  0
M  END
> <minimizedAffinity>
-7.78043

$$$$
