ONC206


 30 34  0  0  0  0  0  0  0  0999 V2000
    6.9593   21.3736   46.8688 O   0  0  0  0  0  0  0  0  0  0  0  0
    5.4841   19.5432   50.0610 N   0  0  0  0  0  0  0  0  0  0  0  0
    5.2821   17.5481   46.3393 N   0  0  0  0  0  0  0  0  0  0  0  0
    6.3807   21.5137   49.0961 N   0  0  0  0  0  0  0  0  0  0  0  0
    6.6756   20.9609   51.3955 N   0  0  0  0  0  0  0  0  0  0  0  0
    5.2694   18.9541   48.8390 C   0  0  0  0  0  0  0  0  0  0  0  0
    5.7029   19.5768   47.7262 C   0  0  0  0  0  0  0  0  0  0  0  0
    4.6234   17.6020   48.7375 C   0  0  0  0  0  0  0  0  0  0  0  0
    5.5889   18.9967   46.3536 C   0  0  0  0  0  0  0  0  0  0  0  0
    4.2085   17.2440   47.2987 C   0  0  0  0  0  0  0  0  0  0  0  0
    6.1952   20.7166   50.2023 C   0  0  0  0  0  0  0  0  0  0  0  0
    5.2203   19.0316   51.3826 C   0  0  0  0  0  0  0  0  0  0  0  0
    6.3826   20.9026   47.8545 C   0  0  0  0  0  0  0  0  0  0  0  0
    6.4099   19.6635   52.1064 C   0  0  0  0  0  0  0  0  0  0  0  0
    4.9101   17.1114   44.9820 C   0  0  0  0  0  0  0  0  0  0  0  0
    5.6179   15.8418   44.5421 C   0  0  0  0  0  0  0  0  0  0  0  0
    6.7159   15.8938   43.6711 C   0  0  0  0  0  0  0  0  0  0  0  0
    5.1662   14.5897   44.9843 C   0  0  0  0  0  0  0  0  0  0  0  0
    7.3261   14.7205   43.2265 C   0  0  0  0  0  0  0  0  0  0  0  0
    5.7845   13.4169   44.5477 C   0  0  0  0  0  0  0  0  0  0  0  0
    6.8588   13.4823   43.6620 C   0  0  0  0  0  0  0  0  0  0  0  0
    6.8992   22.8730   49.1937 C   0  0  0  0  0  0  0  0  0  0  0  0
    7.6686   24.5703   51.3419 F   0  0  0  0  0  0  0  0  0  0  0  0
    3.3827   26.4591   51.8480 F   0  0  0  0  0  0  0  0  0  0  0  0
    5.9448   23.8344   49.8913 C   0  0  0  0  0  0  0  0  0  0  0  0
    6.3877   24.6341   50.9504 C   0  0  0  0  0  0  0  0  0  0  0  0
    4.5953   23.9484   49.5068 C   0  0  0  0  0  0  0  0  0  0  0  0
    5.5393   25.5218   51.6124 C   0  0  0  0  0  0  0  0  0  0  0  0
    3.7371   24.8290   50.1678 C   0  0  0  0  0  0  0  0  0  0  0  0
    4.2130   25.6092   51.2158 C   0  0  0  0  0  0  0  0  0  0  0  0
 23 26  1  0  0  0
 24 30  1  0  0  0
  1 13  2  0  0  0
  2  6  1  0  0  0
  2 11  1  0  0  0
  2 12  1  0  0  0
  3  9  1  0  0  0
  3 10  1  0  0  0
  3 15  1  0  0  0
  4 11  1  0  0  0
  4 13  1  0  0  0
  4 22  1  0  0  0
  5 11  2  0  0  0
  5 14  1  0  0  0
  6  7  2  0  0  0
  6  8  1  0  0  0
  7  9  1  0  0  0
  7 13  1  0  0  0
  8 10  1  0  0  0
 12 14  1  0  0  0
 15 16  1  0  0  0
 22 25  1  0  0  0
 16 17  2  0  0  0
 16 18  1  0  0  0
 25 26  2  0  0  0
 25 27  1  0  0  0
 17 19  1  0  0  0
 18 20  2  0  0  0
 26 28  1  0  0  0
 27 29  2  0  0  0
 19 21  2  0  0  0
 20 21  1  0  0  0
 28 30  2  0  0  0
 29 30  1  0  0  0
M  END
> <minimizedAffinity>
-10.59148

$$$$
ONC206


 30 34  0  0  0  0  0  0  0  0999 V2000
    7.9917   20.1688   48.2775 O   0  0  0  0  0  0  0  0  0  0  0  0
    4.6672   19.1444   50.1789 N   0  0  0  0  0  0  0  0  0  0  0  0
    5.3490   17.5315   46.3310 N   0  0  0  0  0  0  0  0  0  0  0  0
    6.6004   20.5124   50.0836 N   0  0  0  0  0  0  0  0  0  0  0  0
    5.6027   19.8409   52.1412 N   0  0  0  0  0  0  0  0  0  0  0  0
    4.7982   18.7410   48.8726 C   0  0  0  0  0  0  0  0  0  0  0  0
    5.8860   19.1210   48.1754 C   0  0  0  0  0  0  0  0  0  0  0  0
    3.7836   17.8312   48.2410 C   0  0  0  0  0  0  0  0  0  0  0  0
    6.1680   18.6827   46.7746 C   0  0  0  0  0  0  0  0  0  0  0  0
    3.9416   17.7287   46.7129 C   0  0  0  0  0  0  0  0  0  0  0  0
    5.6452   19.8646   50.8327 C   0  0  0  0  0  0  0  0  0  0  0  0
    3.6680   18.7823   51.1528 C   0  0  0  0  0  0  0  0  0  0  0  0
    6.9054   19.9914   48.8383 C   0  0  0  0  0  0  0  0  0  0  0  0
    4.5574   18.7915   52.3967 C   0  0  0  0  0  0  0  0  0  0  0  0
    5.4741   17.3378   44.8757 C   0  0  0  0  0  0  0  0  0  0  0  0
    5.8097   15.9093   44.4844 C   0  0  0  0  0  0  0  0  0  0  0  0
    5.1136   14.8270   45.0421 C   0  0  0  0  0  0  0  0  0  0  0  0
    6.8427   15.6490   43.5721 C   0  0  0  0  0  0  0  0  0  0  0  0
    5.4645   13.5154   44.7210 C   0  0  0  0  0  0  0  0  0  0  0  0
    7.1856   14.3366   43.2429 C   0  0  0  0  0  0  0  0  0  0  0  0
    6.5020   13.2699   43.8241 C   0  0  0  0  0  0  0  0  0  0  0  0
    7.5171   21.4864   50.6641 C   0  0  0  0  0  0  0  0  0  0  0  0
    9.2156   23.2125   49.1731 F   0  0  0  0  0  0  0  0  0  0  0  0
    6.2592   26.8746   49.3768 F   0  0  0  0  0  0  0  0  0  0  0  0
    7.1621   22.9281   50.3217 C   0  0  0  0  0  0  0  0  0  0  0  0
    8.0504   23.7263   49.5929 C   0  0  0  0  0  0  0  0  0  0  0  0
    5.9448   23.5079   50.7267 C   0  0  0  0  0  0  0  0  0  0  0  0
    7.7577   25.0505   49.2657 C   0  0  0  0  0  0  0  0  0  0  0  0
    5.6460   24.8342   50.4099 C   0  0  0  0  0  0  0  0  0  0  0  0
    6.5530   25.5972   49.6827 C   0  0  0  0  0  0  0  0  0  0  0  0
 23 26  1  0  0  0
 24 30  1  0  0  0
  1 13  2  0  0  0
  2  6  1  0  0  0
  2 11  1  0  0  0
  2 12  1  0  0  0
  3  9  1  0  0  0
  3 10  1  0  0  0
  3 15  1  0  0  0
  4 11  1  0  0  0
  4 13  1  0  0  0
  4 22  1  0  0  0
  5 11  2  0  0  0
  5 14  1  0  0  0
  6  7  2  0  0  0
  6  8  1  0  0  0
  7  9  1  0  0  0
  7 13  1  0  0  0
  8 10  1  0  0  0
 12 14  1  0  0  0
 15 16  1  0  0  0
 22 25  1  0  0  0
 16 17  2  0  0  0
 16 18  1  0  0  0
 25 26  2  0  0  0
 25 27  1  0  0  0
 17 19  1  0  0  0
 18 20  2  0  0  0
 26 28  1  0  0  0
 27 29  2  0  0  0
 19 21  2  0  0  0
 20 21  1  0  0  0
 28 30  2  0  0  0
 29 30  1  0  0  0
M  END
> <minimizedAffinity>
-10.14679

$$$$
ONC206


 30 34  0  0  0  0  0  0  0  0999 V2000
    4.8274   20.1113   46.2497 O   0  0  0  0  0  0  0  0  0  0  0  0
    5.3702   18.9194   49.9916 N   0  0  0  0  0  0  0  0  0  0  0  0
    7.3313   22.4380   48.7083 N   0  0  0  0  0  0  0  0  0  0  0  0
    4.5054   18.4657   47.8320 N   0  0  0  0  0  0  0  0  0  0  0  0
    3.5073   17.6115   49.8205 N   0  0  0  0  0  0  0  0  0  0  0  0
    6.1352   19.9693   49.5453 C   0  0  0  0  0  0  0  0  0  0  0  0
    6.0223   20.3634   48.2623 C   0  0  0  0  0  0  0  0  0  0  0  0
    7.0370   20.7198   50.4830 C   0  0  0  0  0  0  0  0  0  0  0  0
    6.7492   21.5362   47.6881 C   0  0  0  0  0  0  0  0  0  0  0  0
    8.0154   21.6560   49.7504 C   0  0  0  0  0  0  0  0  0  0  0  0
    4.4316   18.2966   49.1956 C   0  0  0  0  0  0  0  0  0  0  0  0
    5.2296   18.3917   51.3256 C   0  0  0  0  0  0  0  0  0  0  0  0
    5.0855   19.6289   47.3572 C   0  0  0  0  0  0  0  0  0  0  0  0
    3.7547   17.9950   51.2526 C   0  0  0  0  0  0  0  0  0  0  0  0
    8.2570   23.3983   48.0822 C   0  0  0  0  0  0  0  0  0  0  0  0
    9.2007   22.7590   47.0786 C   0  0  0  0  0  0  0  0  0  0  0  0
    8.7701   21.7128   46.2498 C   0  0  0  0  0  0  0  0  0  0  0  0
   10.5312   23.1922   46.9821 C   0  0  0  0  0  0  0  0  0  0  0  0
    9.6575   21.0924   45.3699 C   0  0  0  0  0  0  0  0  0  0  0  0
   11.4153   22.5784   46.0935 C   0  0  0  0  0  0  0  0  0  0  0  0
   10.9805   21.5227   45.2937 C   0  0  0  0  0  0  0  0  0  0  0  0
    3.7192   17.6616   46.9039 C   0  0  0  0  0  0  0  0  0  0  0  0
    3.1809   14.8971   46.5091 F   0  0  0  0  0  0  0  0  0  0  0  0
    6.8613   14.2295   43.6452 F   0  0  0  0  0  0  0  0  0  0  0  0
    4.5686   16.7555   46.0211 C   0  0  0  0  0  0  0  0  0  0  0  0
    4.2529   15.3999   45.8796 C   0  0  0  0  0  0  0  0  0  0  0  0
    5.6943   17.2397   45.3281 C   0  0  0  0  0  0  0  0  0  0  0  0
    5.0115   14.5427   45.0822 C   0  0  0  0  0  0  0  0  0  0  0  0
    6.4635   16.3880   44.5332 C   0  0  0  0  0  0  0  0  0  0  0  0
    6.1187   15.0461   44.4153 C   0  0  0  0  0  0  0  0  0  0  0  0
 23 26  1  0  0  0
 24 30  1  0  0  0
  1 13  2  0  0  0
  2  6  1  0  0  0
  2 11  1  0  0  0
  2 12  1  0  0  0
  3  9  1  0  0  0
  3 10  1  0  0  0
  3 15  1  0  0  0
  4 11  1  0  0  0
  4 13  1  0  0  0
  4 22  1  0  0  0
  5 11  2  0  0  0
  5 14  1  0  0  0
  6  7  2  0  0  0
  6  8  1  0  0  0
  7  9  1  0  0  0
  7 13  1  0  0  0
  8 10  1  0  0  0
 12 14  1  0  0  0
 15 16  1  0  0  0
 22 25  1  0  0  0
 16 17  2  0  0  0
 16 18  1  0  0  0
 25 26  2  0  0  0
 25 27  1  0  0  0
 17 19  1  0  0  0
 18 20  2  0  0  0
 26 28  1  0  0  0
 27 29  2  0  0  0
 19 21  2  0  0  0
 20 21  1  0  0  0
 28 30  2  0  0  0
 29 30  1  0  0  0
M  END
> <minimizedAffinity>
-8.30076

$$$$
ONC206


 30 34  0  0  0  0  0  0  0  0999 V2000
    4.6947   20.6438   47.6337 O   0  0  0  0  0  0  0  0  0  0  0  0
    5.8673   20.2494   51.4001 N   0  0  0  0  0  0  0  0  0  0  0  0
    7.6730   23.2625   49.0478 N   0  0  0  0  0  0  0  0  0  0  0  0
    4.6128   19.4038   49.5756 N   0  0  0  0  0  0  0  0  0  0  0  0
    3.9643   19.0698   51.8445 N   0  0  0  0  0  0  0  0  0  0  0  0
    6.5714   21.1221   50.6069 C   0  0  0  0  0  0  0  0  0  0  0  0
    6.2409   21.2380   49.3064 C   0  0  0  0  0  0  0  0  0  0  0  0
    7.6508   21.9913   51.1860 C   0  0  0  0  0  0  0  0  0  0  0  0
    6.8884   22.2057   48.3694 C   0  0  0  0  0  0  0  0  0  0  0  0
    8.5094   22.6768   50.1074 C   0  0  0  0  0  0  0  0  0  0  0  0
    4.7814   19.5377   50.9347 C   0  0  0  0  0  0  0  0  0  0  0  0
    5.9537   20.0321   52.8225 C   0  0  0  0  0  0  0  0  0  0  0  0
    5.1336   20.3939   48.7610 C   0  0  0  0  0  0  0  0  0  0  0  0
    4.4782   19.7339   53.0911 C   0  0  0  0  0  0  0  0  0  0  0  0
    8.4999   23.9980   48.0749 C   0  0  0  0  0  0  0  0  0  0  0  0
    9.2184   23.0936   47.0889 C   0  0  0  0  0  0  0  0  0  0  0  0
    8.5129   22.1418   46.3382 C   0  0  0  0  0  0  0  0  0  0  0  0
   10.6093   23.1813   46.9312 C   0  0  0  0  0  0  0  0  0  0  0  0
    9.1864   21.2761   45.4759 C   0  0  0  0  0  0  0  0  0  0  0  0
   11.2808   22.3222   46.0599 C   0  0  0  0  0  0  0  0  0  0  0  0
   10.5702   21.3639   45.3389 C   0  0  0  0  0  0  0  0  0  0  0  0
    3.6471   18.4764   48.9982 C   0  0  0  0  0  0  0  0  0  0  0  0
    6.4187   17.8834   48.7658 F   0  0  0  0  0  0  0  0  0  0  0  0
    5.8912   15.2574   44.8905 F   0  0  0  0  0  0  0  0  0  0  0  0
    4.2327   17.6056   47.8934 C   0  0  0  0  0  0  0  0  0  0  0  0
    5.6092   17.3630   47.8321 C   0  0  0  0  0  0  0  0  0  0  0  0
    3.4223   17.0247   46.8995 C   0  0  0  0  0  0  0  0  0  0  0  0
    6.1777   16.5735   46.8323 C   0  0  0  0  0  0  0  0  0  0  0  0
    3.9829   16.2388   45.8911 C   0  0  0  0  0  0  0  0  0  0  0  0
    5.3555   16.0184   45.8628 C   0  0  0  0  0  0  0  0  0  0  0  0
 23 26  1  0  0  0
 24 30  1  0  0  0
  1 13  2  0  0  0
  2  6  1  0  0  0
  2 11  1  0  0  0
  2 12  1  0  0  0
  3  9  1  0  0  0
  3 10  1  0  0  0
  3 15  1  0  0  0
  4 11  1  0  0  0
  4 13  1  0  0  0
  4 22  1  0  0  0
  5 11  2  0  0  0
  5 14  1  0  0  0
  6  7  2  0  0  0
  6  8  1  0  0  0
  7  9  1  0  0  0
  7 13  1  0  0  0
  8 10  1  0  0  0
 12 14  1  0  0  0
 15 16  1  0  0  0
 22 25  1  0  0  0
 16 17  2  0  0  0
 16 18  1  0  0  0
 25 26  2  0  0  0
 25 27  1  0  0  0
 17 19  1  0  0  0
 18 20  2  0  0  0
 26 28  1  0  0  0
 27 29  2  0  0  0
 19 21  2  0  0  0
 20 21  1  0  0  0
 28 30  2  0  0  0
 29 30  1  0  0  0
M  END
> <minimizedAffinity>
-8.15737

$$$$
ONC206


 30 34  0  0  0  0  0  0  0  0999 V2000
    6.6248   21.0572   50.1444 O   0  0  0  0  0  0  0  0  0  0  0  0
    8.6474   22.1036   46.8993 N   0  0  0  0  0  0  0  0  0  0  0  0
    8.0248   25.0203   49.8956 N   0  0  0  0  0  0  0  0  0  0  0  0
    7.3265   20.4882   48.0232 N   0  0  0  0  0  0  0  0  0  0  0  0
    9.0071   19.8967   46.4403 N   0  0  0  0  0  0  0  0  0  0  0  0
    8.3176   23.0986   47.7868 C   0  0  0  0  0  0  0  0  0  0  0  0
    7.5789   22.7917   48.8704 C   0  0  0  0  0  0  0  0  0  0  0  0
    8.8262   24.4993   47.5989 C   0  0  0  0  0  0  0  0  0  0  0  0
    7.2229   23.7761   49.9371 C   0  0  0  0  0  0  0  0  0  0  0  0
    8.1234   25.5184   48.5144 C   0  0  0  0  0  0  0  0  0  0  0  0
    8.3146   20.7821   47.1118 C   0  0  0  0  0  0  0  0  0  0  0  0
    9.5079   22.1561   45.7439 C   0  0  0  0  0  0  0  0  0  0  0  0
    7.1198   21.3813   49.0600 C   0  0  0  0  0  0  0  0  0  0  0  0
   10.0914   20.7458   45.8380 C   0  0  0  0  0  0  0  0  0  0  0  0
    7.4391   26.0430   50.7801 C   0  0  0  0  0  0  0  0  0  0  0  0
    5.9339   26.1787   50.6307 C   0  0  0  0  0  0  0  0  0  0  0  0
    5.0628   25.6280   51.5819 C   0  0  0  0  0  0  0  0  0  0  0  0
    5.3893   26.8402   49.5202 C   0  0  0  0  0  0  0  0  0  0  0  0
    3.6806   25.7075   51.4094 C   0  0  0  0  0  0  0  0  0  0  0  0
    4.0063   26.9289   49.3542 C   0  0  0  0  0  0  0  0  0  0  0  0
    3.1522   26.3549   50.2945 C   0  0  0  0  0  0  0  0  0  0  0  0
    6.7417   19.1573   48.1360 C   0  0  0  0  0  0  0  0  0  0  0  0
    4.5368   20.5574   47.0110 F   0  0  0  0  0  0  0  0  0  0  0  0
    1.5229   19.2282   50.3788 F   0  0  0  0  0  0  0  0  0  0  0  0
    5.3458   19.1612   48.7469 C   0  0  0  0  0  0  0  0  0  0  0  0
    4.3076   19.8815   48.1462 C   0  0  0  0  0  0  0  0  0  0  0  0
    5.0520   18.4549   49.9287 C   0  0  0  0  0  0  0  0  0  0  0  0
    3.0196   19.9087   48.6812 C   0  0  0  0  0  0  0  0  0  0  0  0
    3.7678   18.4817   50.4754 C   0  0  0  0  0  0  0  0  0  0  0  0
    2.7603   19.2079   49.8499 C   0  0  0  0  0  0  0  0  0  0  0  0
 23 26  1  0  0  0
 24 30  1  0  0  0
  1 13  2  0  0  0
  2  6  1  0  0  0
  2 11  1  0  0  0
  2 12  1  0  0  0
  3  9  1  0  0  0
  3 10  1  0  0  0
  3 15  1  0  0  0
  4 11  1  0  0  0
  4 13  1  0  0  0
  4 22  1  0  0  0
  5 11  2  0  0  0
  5 14  1  0  0  0
  6  7  2  0  0  0
  6  8  1  0  0  0
  7  9  1  0  0  0
  7 13  1  0  0  0
  8 10  1  0  0  0
 12 14  1  0  0  0
 15 16  1  0  0  0
 22 25  1  0  0  0
 16 17  2  0  0  0
 16 18  1  0  0  0
 25 26  2  0  0  0
 25 27  1  0  0  0
 17 19  1  0  0  0
 18 20  2  0  0  0
 26 28  1  0  0  0
 27 29  2  0  0  0
 19 21  2  0  0  0
 20 21  1  0  0  0
 28 30  2  0  0  0
 29 30  1  0  0  0
M  END
> <minimizedAffinity>
-6.97758

$$$$
