OSI 420.cdx


 29 31  0  0  0  0  0  0  0  0999 V2000
    6.3687   21.1758   46.6524 C   0  0  0  0  0  0  0  0  0  0  0  0
    7.0917   21.4602   45.5459 N   0  0  0  0  0  0  0  0  0  0  0  0
    8.2930   22.0142   45.7182 C   0  0  0  0  0  0  0  0  0  0  0  0
    8.8775   22.3219   46.8822 N   0  0  0  0  0  0  0  0  0  0  0  0
    8.1727   21.9885   47.9702 C   0  0  0  0  0  0  0  0  0  0  0  0
    6.9296   21.3534   47.9292 C   0  0  0  0  0  0  0  0  0  0  0  0
    8.6865   22.3492   49.2039 C   0  0  0  0  0  0  0  0  0  0  0  0
    8.0081   22.1292   50.4211 C   0  0  0  0  0  0  0  0  0  0  0  0
    6.8889   21.2964   50.3999 C   0  0  0  0  0  0  0  0  0  0  0  0
    6.3426   20.9550   49.1521 C   0  0  0  0  0  0  0  0  0  0  0  0
    8.4207   22.7740   51.5779 O   0  0  0  0  0  0  0  0  0  0  0  0
    7.5958   23.9211   51.8937 C   0  0  0  0  0  0  0  0  0  0  0  0
    6.6801   23.7031   53.0969 C   0  0  0  0  0  0  0  0  0  0  0  0
    5.3442   24.1849   52.8748 O   0  0  0  0  0  0  0  0  0  0  0  0
    4.9670   24.2473   51.5017 C   0  0  0  0  0  0  0  0  0  0  0  0
    6.1777   20.7175   51.4039 O   0  0  0  0  0  0  0  0  0  0  0  0
    6.0495   19.3127   51.5590 C   0  0  0  0  0  0  0  0  0  0  0  0
    4.5709   18.9595   51.6107 C   0  0  0  0  0  0  0  0  0  0  0  0
    4.3994   17.5786   51.9385 O   0  0  0  0  0  0  0  0  0  0  0  0
    4.9951   17.0903   51.3315 H   0  0  0  0  0  0  0  0  0  0  0  0
    5.1039   20.7085   46.4758 N   0  0  0  0  0  0  0  0  0  0  0  0
    5.3706   18.3181   45.9157 C   0  0  0  0  0  0  0  0  0  0  0  0
    5.0858   16.9777   46.2086 C   0  0  0  0  0  0  0  0  0  0  0  0
    4.2189   16.6710   47.2543 C   0  0  0  0  0  0  0  0  0  0  0  0
    3.6339   17.6988   47.9859 C   0  0  0  0  0  0  0  0  0  0  0  0
    3.9353   19.0342   47.6888 C   0  0  0  0  0  0  0  0  0  0  0  0
    4.8364   19.3872   46.6736 C   0  0  0  0  0  0  0  0  0  0  0  0
    5.7018   15.9265   45.4538 C   0  0  0  0  0  0  0  0  0  0  0  0
    6.2184   15.0529   44.8078 C   0  0  0  0  0  0  0  0  0  0  0  0
 22 23  2  0  0  0
 23 24  1  0  0  0
 23 28  1  0  0  0
 24 25  2  0  0  0
 25 26  1  0  0  0
 26 27  2  0  0  0
 27 22  1  0  0  0
 27 21  1  0  0  0
 21  1  1  0  0  0
  1  2  2  0  0  0
  2  3  2  0  0  0
  3  4  2  0  0  0
  4  5  2  0  0  0
  5  6  2  0  0  0
  5  7  1  0  0  0
  6  1  1  0  0  0
  7  8  2  0  0  0
  8  9  1  0  0  0
  8 11  1  0  0  0
  9 10  2  0  0  0
  9 16  1  0  0  0
 10  6  1  0  0  0
 11 12  1  0  0  0
 16 17  1  0  0  0
 12 13  1  0  0  0
 13 14  1  0  0  0
 14 15  1  0  0  0
 17 18  1  0  0  0
 18 19  1  0  0  0
 19 20  1  0  0  0
 28 29  3  0  0  0
M  END
> <minimizedAffinity>
-8.14907

$$$$
OSI 420.cdx


 29 31  0  0  0  0  0  0  0  0999 V2000
    8.0272   20.6117   48.3880 C   0  0  0  0  0  0  0  0  0  0  0  0
    8.4765   20.3084   47.1495 N   0  0  0  0  0  0  0  0  0  0  0  0
    8.9442   21.3080   46.3999 C   0  0  0  0  0  0  0  0  0  0  0  0
    9.0257   22.5995   46.7413 N   0  0  0  0  0  0  0  0  0  0  0  0
    8.6250   22.8775   47.9878 C   0  0  0  0  0  0  0  0  0  0  0  0
    8.1681   21.9165   48.8922 C   0  0  0  0  0  0  0  0  0  0  0  0
    8.6115   24.2058   48.3770 C   0  0  0  0  0  0  0  0  0  0  0  0
    8.1379   24.6415   49.6326 C   0  0  0  0  0  0  0  0  0  0  0  0
    7.9035   23.6738   50.6100 C   0  0  0  0  0  0  0  0  0  0  0  0
    7.8819   22.3266   50.2146 C   0  0  0  0  0  0  0  0  0  0  0  0
    7.8657   25.9842   49.8495 O   0  0  0  0  0  0  0  0  0  0  0  0
    6.8979   26.5093   48.9095 C   0  0  0  0  0  0  0  0  0  0  0  0
    5.5745   26.9142   49.5566 C   0  0  0  0  0  0  0  0  0  0  0  0
    4.7153   25.7917   49.8170 O   0  0  0  0  0  0  0  0  0  0  0  0
    3.3435   26.1357   49.9945 C   0  0  0  0  0  0  0  0  0  0  0  0
    7.6755   23.7801   51.9463 O   0  0  0  0  0  0  0  0  0  0  0  0
    6.7822   22.9350   52.6544 C   0  0  0  0  0  0  0  0  0  0  0  0
    5.3967   23.5626   52.6351 C   0  0  0  0  0  0  0  0  0  0  0  0
    5.4955   24.9867   52.5588 O   0  0  0  0  0  0  0  0  0  0  0  0
    6.1352   25.2418   53.2570 H   0  0  0  0  0  0  0  0  0  0  0  0
    7.4549   19.6134   49.1127 N   0  0  0  0  0  0  0  0  0  0  0  0
    5.8758   18.1624   47.8878 C   0  0  0  0  0  0  0  0  0  0  0  0
    4.5569   17.7484   47.6587 C   0  0  0  0  0  0  0  0  0  0  0  0
    3.5107   18.3854   48.3211 C   0  0  0  0  0  0  0  0  0  0  0  0
    3.7858   19.4353   49.1905 C   0  0  0  0  0  0  0  0  0  0  0  0
    5.1098   19.8323   49.4180 C   0  0  0  0  0  0  0  0  0  0  0  0
    6.1964   19.1901   48.8064 C   0  0  0  0  0  0  0  0  0  0  0  0
    4.2860   16.6590   46.7676 C   0  0  0  0  0  0  0  0  0  0  0  0
    4.0690   15.7362   46.0269 C   0  0  0  0  0  0  0  0  0  0  0  0
 22 23  2  0  0  0
 23 24  1  0  0  0
 23 28  1  0  0  0
 24 25  2  0  0  0
 25 26  1  0  0  0
 26 27  2  0  0  0
 27 22  1  0  0  0
 27 21  1  0  0  0
 21  1  1  0  0  0
  1  2  2  0  0  0
  2  3  2  0  0  0
  3  4  2  0  0  0
  4  5  2  0  0  0
  5  6  2  0  0  0
  5  7  1  0  0  0
  6  1  1  0  0  0
  7  8  2  0  0  0
  8  9  1  0  0  0
  8 11  1  0  0  0
  9 10  2  0  0  0
  9 16  1  0  0  0
 10  6  1  0  0  0
 11 12  1  0  0  0
 16 17  1  0  0  0
 12 13  1  0  0  0
 13 14  1  0  0  0
 14 15  1  0  0  0
 17 18  1  0  0  0
 18 19  1  0  0  0
 19 20  1  0  0  0
 28 29  3  0  0  0
M  END
> <minimizedAffinity>
-7.99319

$$$$
OSI 420.cdx


 29 31  0  0  0  0  0  0  0  0999 V2000
    4.4806   19.9680   47.3095 C   0  0  0  0  0  0  0  0  0  0  0  0
    3.2084   19.7672   47.7207 N   0  0  0  0  0  0  0  0  0  0  0  0
    2.8975   20.1282   48.9668 C   0  0  0  0  0  0  0  0  0  0  0  0
    3.7142   20.6811   49.8716 N   0  0  0  0  0  0  0  0  0  0  0  0
    4.9564   20.9210   49.4348 C   0  0  0  0  0  0  0  0  0  0  0  0
    5.3938   20.6435   48.1379 C   0  0  0  0  0  0  0  0  0  0  0  0
    5.8720   21.4206   50.3448 C   0  0  0  0  0  0  0  0  0  0  0  0
    7.2307   21.6423   50.0360 C   0  0  0  0  0  0  0  0  0  0  0  0
    7.6095   21.5871   48.6943 C   0  0  0  0  0  0  0  0  0  0  0  0
    6.6977   21.0494   47.7716 C   0  0  0  0  0  0  0  0  0  0  0  0
    8.1536   21.8490   51.0507 O   0  0  0  0  0  0  0  0  0  0  0  0
    8.1261   23.2068   51.5525 C   0  0  0  0  0  0  0  0  0  0  0  0
    7.4776   23.3368   52.9296 C   0  0  0  0  0  0  0  0  0  0  0  0
    6.2738   24.1220   52.9066 O   0  0  0  0  0  0  0  0  0  0  0  0
    6.0813   24.8599   51.7024 C   0  0  0  0  0  0  0  0  0  0  0  0
    8.7524   21.9694   48.0646 O   0  0  0  0  0  0  0  0  0  0  0  0
    8.8228   22.2403   46.6734 C   0  0  0  0  0  0  0  0  0  0  0  0
   10.1580   21.7390   46.1446 C   0  0  0  0  0  0  0  0  0  0  0  0
   11.1385   22.7778   46.2016 O   0  0  0  0  0  0  0  0  0  0  0  0
   10.7146   23.5598   45.7887 H   0  0  0  0  0  0  0  0  0  0  0  0
    4.8251   19.5058   46.0778 N   0  0  0  0  0  0  0  0  0  0  0  0
    5.6814   17.5322   44.8649 C   0  0  0  0  0  0  0  0  0  0  0  0
    5.7287   16.1392   44.7213 C   0  0  0  0  0  0  0  0  0  0  0  0
    4.9438   15.3354   45.5441 C   0  0  0  0  0  0  0  0  0  0  0  0
    4.1104   15.9252   46.4882 C   0  0  0  0  0  0  0  0  0  0  0  0
    4.0804   17.3188   46.6279 C   0  0  0  0  0  0  0  0  0  0  0  0
    4.8865   18.1636   45.8511 C   0  0  0  0  0  0  0  0  0  0  0  0
    6.5984   15.5420   43.7511 C   0  0  0  0  0  0  0  0  0  0  0  0
    7.3390   15.0386   42.9476 C   0  0  0  0  0  0  0  0  0  0  0  0
 22 23  2  0  0  0
 23 24  1  0  0  0
 23 28  1  0  0  0
 24 25  2  0  0  0
 25 26  1  0  0  0
 26 27  2  0  0  0
 27 22  1  0  0  0
 27 21  1  0  0  0
 21  1  1  0  0  0
  1  2  2  0  0  0
  2  3  2  0  0  0
  3  4  2  0  0  0
  4  5  2  0  0  0
  5  6  2  0  0  0
  5  7  1  0  0  0
  6  1  1  0  0  0
  7  8  2  0  0  0
  8  9  1  0  0  0
  8 11  1  0  0  0
  9 10  2  0  0  0
  9 16  1  0  0  0
 10  6  1  0  0  0
 11 12  1  0  0  0
 16 17  1  0  0  0
 12 13  1  0  0  0
 13 14  1  0  0  0
 14 15  1  0  0  0
 17 18  1  0  0  0
 18 19  1  0  0  0
 19 20  1  0  0  0
 28 29  3  0  0  0
M  END
> <minimizedAffinity>
-7.81013

$$$$
OSI 420.cdx


 29 31  0  0  0  0  0  0  0  0999 V2000
    6.2051   19.8122   50.5359 C   0  0  0  0  0  0  0  0  0  0  0  0
    5.4253   19.4763   51.5881 N   0  0  0  0  0  0  0  0  0  0  0  0
    5.0650   20.4499   52.4260 C   0  0  0  0  0  0  0  0  0  0  0  0
    5.3887   21.7457   52.3402 N   0  0  0  0  0  0  0  0  0  0  0  0
    6.1181   22.0728   51.2666 C   0  0  0  0  0  0  0  0  0  0  0  0
    6.5130   21.1609   50.2854 C   0  0  0  0  0  0  0  0  0  0  0  0
    6.5512   23.3831   51.1592 C   0  0  0  0  0  0  0  0  0  0  0  0
    7.3908   23.8399   50.1215 C   0  0  0  0  0  0  0  0  0  0  0  0
    7.5913   22.9959   49.0288 C   0  0  0  0  0  0  0  0  0  0  0  0
    7.1851   21.6567   49.1446 C   0  0  0  0  0  0  0  0  0  0  0  0
    8.0320   25.0652   50.2292 O   0  0  0  0  0  0  0  0  0  0  0  0
    7.1221   26.1341   50.5838 C   0  0  0  0  0  0  0  0  0  0  0  0
    6.4313   26.7734   49.3805 C   0  0  0  0  0  0  0  0  0  0  0  0
    5.0061   26.5871   49.3924 O   0  0  0  0  0  0  0  0  0  0  0  0
    4.4050   26.7649   50.6726 C   0  0  0  0  0  0  0  0  0  0  0  0
    8.1356   23.2226   47.8034 O   0  0  0  0  0  0  0  0  0  0  0  0
    9.5298   23.3713   47.5851 C   0  0  0  0  0  0  0  0  0  0  0  0
    9.9596   22.4038   46.4929 C   0  0  0  0  0  0  0  0  0  0  0  0
   11.2788   22.7176   46.0398 O   0  0  0  0  0  0  0  0  0  0  0  0
   11.2705   23.6816   45.8599 H   0  0  0  0  0  0  0  0  0  0  0  0
    6.6586   18.8063   49.7411 N   0  0  0  0  0  0  0  0  0  0  0  0
    6.1911   17.4986   47.6988 C   0  0  0  0  0  0  0  0  0  0  0  0
    5.2602   16.8549   46.8728 C   0  0  0  0  0  0  0  0  0  0  0  0
    3.9035   16.9267   47.1783 C   0  0  0  0  0  0  0  0  0  0  0  0
    3.4870   17.6493   48.2910 C   0  0  0  0  0  0  0  0  0  0  0  0
    4.4292   18.2796   49.1140 C   0  0  0  0  0  0  0  0  0  0  0  0
    5.8077   18.1965   48.8688 C   0  0  0  0  0  0  0  0  0  0  0  0
    5.7017   16.1052   45.7338 C   0  0  0  0  0  0  0  0  0  0  0  0
    6.0693   15.4879   44.7688 C   0  0  0  0  0  0  0  0  0  0  0  0
 22 23  2  0  0  0
 23 24  1  0  0  0
 23 28  1  0  0  0
 24 25  2  0  0  0
 25 26  1  0  0  0
 26 27  2  0  0  0
 27 22  1  0  0  0
 27 21  1  0  0  0
 21  1  1  0  0  0
  1  2  2  0  0  0
  2  3  2  0  0  0
  3  4  2  0  0  0
  4  5  2  0  0  0
  5  6  2  0  0  0
  5  7  1  0  0  0
  6  1  1  0  0  0
  7  8  2  0  0  0
  8  9  1  0  0  0
  8 11  1  0  0  0
  9 10  2  0  0  0
  9 16  1  0  0  0
 10  6  1  0  0  0
 11 12  1  0  0  0
 16 17  1  0  0  0
 12 13  1  0  0  0
 13 14  1  0  0  0
 14 15  1  0  0  0
 17 18  1  0  0  0
 18 19  1  0  0  0
 19 20  1  0  0  0
 28 29  3  0  0  0
M  END
> <minimizedAffinity>
-7.71914

$$$$
OSI 420.cdx


 29 31  0  0  0  0  0  0  0  0999 V2000
    7.5197   21.5596   51.2386 C   0  0  0  0  0  0  0  0  0  0  0  0
    7.0558   21.1368   52.4361 N   0  0  0  0  0  0  0  0  0  0  0  0
    6.2949   20.0411   52.4521 C   0  0  0  0  0  0  0  0  0  0  0  0
    5.9357   19.2958   51.4001 N   0  0  0  0  0  0  0  0  0  0  0  0
    6.4435   19.6963   50.2282 C   0  0  0  0  0  0  0  0  0  0  0  0
    7.2975   20.7916   50.0823 C   0  0  0  0  0  0  0  0  0  0  0  0
    6.0485   19.0142   49.0902 C   0  0  0  0  0  0  0  0  0  0  0  0
    6.4459   19.3830   47.7877 C   0  0  0  0  0  0  0  0  0  0  0  0
    7.4716   20.3203   47.6622 C   0  0  0  0  0  0  0  0  0  0  0  0
    7.8531   21.0399   48.8062 C   0  0  0  0  0  0  0  0  0  0  0  0
    5.7877   18.8636   46.6827 O   0  0  0  0  0  0  0  0  0  0  0  0
    4.8752   19.8165   46.0864 C   0  0  0  0  0  0  0  0  0  0  0  0
    3.5826   20.0036   46.8787 C   0  0  0  0  0  0  0  0  0  0  0  0
    3.4674   21.3152   47.4554 O   0  0  0  0  0  0  0  0  0  0  0  0
    3.1918   21.3157   48.8539 C   0  0  0  0  0  0  0  0  0  0  0  0
    8.2178   20.7011   46.5911 O   0  0  0  0  0  0  0  0  0  0  0  0
    8.9176   21.9340   46.5272 C   0  0  0  0  0  0  0  0  0  0  0  0
   10.2806   21.6903   45.8974 C   0  0  0  0  0  0  0  0  0  0  0  0
   11.1716   22.7649   46.2060 O   0  0  0  0  0  0  0  0  0  0  0  0
   10.6766   23.5840   45.9922 H   0  0  0  0  0  0  0  0  0  0  0  0
    8.2071   22.7326   51.2077 N   0  0  0  0  0  0  0  0  0  0  0  0
    6.4364   24.4535   51.2550 C   0  0  0  0  0  0  0  0  0  0  0  0
    5.9014   25.6397   50.7353 C   0  0  0  0  0  0  0  0  0  0  0  0
    6.5077   26.2451   49.6375 C   0  0  0  0  0  0  0  0  0  0  0  0
    7.6279   25.6571   49.0602 C   0  0  0  0  0  0  0  0  0  0  0  0
    8.1582   24.4764   49.5961 C   0  0  0  0  0  0  0  0  0  0  0  0
    7.6062   23.8572   50.7270 C   0  0  0  0  0  0  0  0  0  0  0  0
    4.7521   26.2418   51.3442 C   0  0  0  0  0  0  0  0  0  0  0  0
    3.7830   26.7334   51.8605 C   0  0  0  0  0  0  0  0  0  0  0  0
 22 23  2  0  0  0
 23 24  1  0  0  0
 23 28  1  0  0  0
 24 25  2  0  0  0
 25 26  1  0  0  0
 26 27  2  0  0  0
 27 22  1  0  0  0
 27 21  1  0  0  0
 21  1  1  0  0  0
  1  2  2  0  0  0
  2  3  2  0  0  0
  3  4  2  0  0  0
  4  5  2  0  0  0
  5  6  2  0  0  0
  5  7  1  0  0  0
  6  1  1  0  0  0
  7  8  2  0  0  0
  8  9  1  0  0  0
  8 11  1  0  0  0
  9 10  2  0  0  0
  9 16  1  0  0  0
 10  6  1  0  0  0
 11 12  1  0  0  0
 16 17  1  0  0  0
 12 13  1  0  0  0
 13 14  1  0  0  0
 14 15  1  0  0  0
 17 18  1  0  0  0
 18 19  1  0  0  0
 19 20  1  0  0  0
 28 29  3  0  0  0
M  END
> <minimizedAffinity>
-7.71888

$$$$
