Oxyimperatorin


 21 24  0  0  0  0  0  0  0  0999 V2000
    6.8284   19.9946   52.9813 O   0  0  0  0  0  0  0  0  0  0  0  0
    6.2939   18.8998   48.4478 C   0  0  0  0  0  0  0  0  0  0  0  0
    5.7379   19.0512   49.7270 C   0  0  0  0  0  0  0  0  0  0  0  0
    5.5937   18.0316   47.5980 C   0  0  0  0  0  0  0  0  0  0  0  0
    4.4693   18.5552   50.0539 C   0  0  0  0  0  0  0  0  0  0  0  0
    6.5111   19.7012   50.7216 O   0  0  0  0  0  0  0  0  0  0  0  0
    4.3626   17.4616   47.9041 C   0  0  0  0  0  0  0  0  0  0  0  0
    5.9936   17.6230   46.3600 O   0  0  0  0  0  0  0  0  0  0  0  0
    3.7581   17.7680   49.1335 C   0  0  0  0  0  0  0  0  0  0  0  0
    3.8839   18.9133   51.3341 C   0  0  0  0  0  0  0  0  0  0  0  0
    6.0866   19.7222   52.0447 C   0  0  0  0  0  0  0  0  0  0  0  0
    4.0093   16.6634   46.7822 C   0  0  0  0  0  0  0  0  0  0  0  0
    5.0374   16.7873   45.8793 C   0  0  0  0  0  0  0  0  0  0  0  0
    4.6545   19.4638   52.2731 C   0  0  0  0  0  0  0  0  0  0  0  0
    7.4528   19.5803   48.1179 O   0  0  0  0  0  0  0  0  0  0  0  0
    7.1880   20.6713   47.2167 C   0  0  0  0  0  0  0  0  0  0  0  0
    9.0185   23.1362   47.6988 C   0  0  0  0  0  0  0  0  0  0  0  0
   10.6667   22.1789   45.9881 C   0  0  0  0  0  0  0  0  0  0  0  0
    8.3991   20.9642   46.3864 C   0  0  0  0  0  0  0  0  0  0  0  0
    9.2854   22.1853   46.5735 C   0  0  0  0  0  0  0  0  0  0  0  0
    8.2566   22.1400   45.5722 O   0  0  0  0  0  0  0  0  0  0  0  0
 15 16  1  0  0  0
 15  2  1  0  0  0
 16 19  1  0  0  0
  1 11  2  0  0  0
 17 20  1  0  0  0
 18 20  1  0  0  0
  2  3  2  0  0  0
  2  4  1  0  0  0
  3  5  1  0  0  0
  3  6  1  0  0  0
  4  7  2  0  0  0
  4  8  1  0  0  0
  5  9  2  0  0  0
  5 10  1  0  0  0
  6 11  1  0  0  0
  7  9  1  0  0  0
  7 12  1  0  0  0
  8 13  1  0  0  0
 10 14  2  0  0  0
 11 14  1  0  0  0
 12 13  2  0  0  0
 19 20  1  0  0  0
 19 21  1  0  0  0
 20 21  1  0  0  0
M  END
> <minimizedAffinity>
-8.89629

$$$$
Oxyimperatorin


 21 24  0  0  0  0  0  0  0  0999 V2000
    2.9325   25.3082   50.5268 O   0  0  0  0  0  0  0  0  0  0  0  0
    5.1563   22.0340   48.0028 C   0  0  0  0  0  0  0  0  0  0  0  0
    5.0230   22.7501   49.2019 C   0  0  0  0  0  0  0  0  0  0  0  0
    6.4296   21.4919   47.7766 C   0  0  0  0  0  0  0  0  0  0  0  0
    6.0107   22.7350   50.1952 C   0  0  0  0  0  0  0  0  0  0  0  0
    3.8589   23.5377   49.3867 O   0  0  0  0  0  0  0  0  0  0  0  0
    7.4639   21.5100   48.7063 C   0  0  0  0  0  0  0  0  0  0  0  0
    6.8463   20.8667   46.6387 O   0  0  0  0  0  0  0  0  0  0  0  0
    7.2390   22.0949   49.9625 C   0  0  0  0  0  0  0  0  0  0  0  0
    5.7216   23.3433   51.4821 C   0  0  0  0  0  0  0  0  0  0  0  0
    3.7553   24.4019   50.4701 C   0  0  0  0  0  0  0  0  0  0  0  0
    8.5633   20.8587   48.0837 C   0  0  0  0  0  0  0  0  0  0  0  0
    8.1395   20.4983   46.8275 C   0  0  0  0  0  0  0  0  0  0  0  0
    4.6538   24.1326   51.6059 C   0  0  0  0  0  0  0  0  0  0  0  0
    4.0736   21.9165   47.1491 O   0  0  0  0  0  0  0  0  0  0  0  0
    3.5832   20.5640   47.0987 C   0  0  0  0  0  0  0  0  0  0  0  0
    4.9663   18.3525   48.7886 C   0  0  0  0  0  0  0  0  0  0  0  0
    3.4285   18.9609   50.7442 C   0  0  0  0  0  0  0  0  0  0  0  0
    3.0916   20.1395   48.4477 C   0  0  0  0  0  0  0  0  0  0  0  0
    3.7235   19.0312   49.2749 C   0  0  0  0  0  0  0  0  0  0  0  0
    2.5610   18.8038   48.4626 O   0  0  0  0  0  0  0  0  0  0  0  0
 15 16  1  0  0  0
 15  2  1  0  0  0
 16 19  1  0  0  0
  1 11  2  0  0  0
 17 20  1  0  0  0
 18 20  1  0  0  0
  2  3  2  0  0  0
  2  4  1  0  0  0
  3  5  1  0  0  0
  3  6  1  0  0  0
  4  7  2  0  0  0
  4  8  1  0  0  0
  5  9  2  0  0  0
  5 10  1  0  0  0
  6 11  1  0  0  0
  7  9  1  0  0  0
  7 12  1  0  0  0
  8 13  1  0  0  0
 10 14  2  0  0  0
 11 14  1  0  0  0
 12 13  2  0  0  0
 19 20  1  0  0  0
 19 21  1  0  0  0
 20 21  1  0  0  0
M  END
> <minimizedAffinity>
-8.31497

$$$$
Oxyimperatorin


 21 24  0  0  0  0  0  0  0  0999 V2000
    5.1011   18.1280   45.2454 O   0  0  0  0  0  0  0  0  0  0  0  0
    6.7221   19.4685   49.4420 C   0  0  0  0  0  0  0  0  0  0  0  0
    5.8018   18.7303   48.6827 C   0  0  0  0  0  0  0  0  0  0  0  0
    6.2942   19.7931   50.7373 C   0  0  0  0  0  0  0  0  0  0  0  0
    4.6471   18.1710   49.2452 C   0  0  0  0  0  0  0  0  0  0  0  0
    6.0445   18.5816   47.2941 O   0  0  0  0  0  0  0  0  0  0  0  0
    5.1233   19.3160   51.3167 C   0  0  0  0  0  0  0  0  0  0  0  0
    6.9463   20.6026   51.6198 O   0  0  0  0  0  0  0  0  0  0  0  0
    4.3059   18.4444   50.5799 C   0  0  0  0  0  0  0  0  0  0  0  0
    3.8435   17.2650   48.4432 C   0  0  0  0  0  0  0  0  0  0  0  0
    5.0829   18.0157   46.4655 C   0  0  0  0  0  0  0  0  0  0  0  0
    5.0738   19.8772   52.6218 C   0  0  0  0  0  0  0  0  0  0  0  0
    6.1967   20.6582   52.7507 C   0  0  0  0  0  0  0  0  0  0  0  0
    4.0530   17.1969   47.1279 C   0  0  0  0  0  0  0  0  0  0  0  0
    7.9403   19.8230   48.8895 O   0  0  0  0  0  0  0  0  0  0  0  0
    7.8863   21.1260   48.2799 C   0  0  0  0  0  0  0  0  0  0  0  0
    9.4401   23.7417   47.6449 C   0  0  0  0  0  0  0  0  0  0  0  0
   10.8991   22.4144   46.0113 C   0  0  0  0  0  0  0  0  0  0  0  0
    8.8998   21.2281   47.1826 C   0  0  0  0  0  0  0  0  0  0  0  0
    9.6411   22.5061   46.8236 C   0  0  0  0  0  0  0  0  0  0  0  0
    8.4786   22.0737   46.0994 O   0  0  0  0  0  0  0  0  0  0  0  0
 15 16  1  0  0  0
 15  2  1  0  0  0
 16 19  1  0  0  0
  1 11  2  0  0  0
 17 20  1  0  0  0
 18 20  1  0  0  0
  2  3  2  0  0  0
  2  4  1  0  0  0
  3  5  1  0  0  0
  3  6  1  0  0  0
  4  7  2  0  0  0
  4  8  1  0  0  0
  5  9  2  0  0  0
  5 10  1  0  0  0
  6 11  1  0  0  0
  7  9  1  0  0  0
  7 12  1  0  0  0
  8 13  1  0  0  0
 10 14  2  0  0  0
 11 14  1  0  0  0
 12 13  2  0  0  0
 19 20  1  0  0  0
 19 21  1  0  0  0
 20 21  1  0  0  0
M  END
> <minimizedAffinity>
-8.18550

$$$$
Oxyimperatorin


 21 24  0  0  0  0  0  0  0  0999 V2000
    3.8108   17.5377   48.2025 O   0  0  0  0  0  0  0  0  0  0  0  0
    7.1915   20.3578   49.8317 C   0  0  0  0  0  0  0  0  0  0  0  0
    6.0412   19.5902   50.0684 C   0  0  0  0  0  0  0  0  0  0  0  0
    7.4204   21.3818   50.7619 C   0  0  0  0  0  0  0  0  0  0  0  0
    5.3067   19.6915   51.2570 C   0  0  0  0  0  0  0  0  0  0  0  0
    5.6003   18.7106   49.0480 O   0  0  0  0  0  0  0  0  0  0  0  0
    6.6775   21.5639   51.9234 C   0  0  0  0  0  0  0  0  0  0  0  0
    8.3911   22.3363   50.6836 O   0  0  0  0  0  0  0  0  0  0  0  0
    5.6320   20.6717   52.2089 C   0  0  0  0  0  0  0  0  0  0  0  0
    4.2434   18.7346   51.5090 C   0  0  0  0  0  0  0  0  0  0  0  0
    4.3763   18.0612   49.1552 C   0  0  0  0  0  0  0  0  0  0  0  0
    7.2377   22.6964   52.5747 C   0  0  0  0  0  0  0  0  0  0  0  0
    8.2663   23.1336   51.7757 C   0  0  0  0  0  0  0  0  0  0  0  0
    3.8059   17.9669   50.5101 C   0  0  0  0  0  0  0  0  0  0  0  0
    7.9921   20.0760   48.7388 O   0  0  0  0  0  0  0  0  0  0  0  0
    7.6496   20.8956   47.6059 C   0  0  0  0  0  0  0  0  0  0  0  0
    9.3113   23.5202   47.5087 C   0  0  0  0  0  0  0  0  0  0  0  0
   11.0236   22.3176   46.0319 C   0  0  0  0  0  0  0  0  0  0  0  0
    8.8406   21.0758   46.7167 C   0  0  0  0  0  0  0  0  0  0  0  0
    9.6434   22.3633   46.6182 C   0  0  0  0  0  0  0  0  0  0  0  0
    8.6225   22.0303   45.6645 O   0  0  0  0  0  0  0  0  0  0  0  0
 15 16  1  0  0  0
 15  2  1  0  0  0
 16 19  1  0  0  0
  1 11  2  0  0  0
 17 20  1  0  0  0
 18 20  1  0  0  0
  2  3  2  0  0  0
  2  4  1  0  0  0
  3  5  1  0  0  0
  3  6  1  0  0  0
  4  7  2  0  0  0
  4  8  1  0  0  0
  5  9  2  0  0  0
  5 10  1  0  0  0
  6 11  1  0  0  0
  7  9  1  0  0  0
  7 12  1  0  0  0
  8 13  1  0  0  0
 10 14  2  0  0  0
 11 14  1  0  0  0
 12 13  2  0  0  0
 19 20  1  0  0  0
 19 21  1  0  0  0
 20 21  1  0  0  0
M  END
> <minimizedAffinity>
-8.15879

$$$$
Oxyimperatorin


 21 24  0  0  0  0  0  0  0  0999 V2000
    4.1071   26.4285   48.5552 O   0  0  0  0  0  0  0  0  0  0  0  0
    4.9950   21.9360   49.5874 C   0  0  0  0  0  0  0  0  0  0  0  0
    4.6624   23.2301   50.0151 C   0  0  0  0  0  0  0  0  0  0  0  0
    5.5920   21.1259   50.5639 C   0  0  0  0  0  0  0  0  0  0  0  0
    4.7145   23.6082   51.3630 C   0  0  0  0  0  0  0  0  0  0  0  0
    4.2947   24.1863   49.0354 O   0  0  0  0  0  0  0  0  0  0  0  0
    5.7265   21.4832   51.9013 C   0  0  0  0  0  0  0  0  0  0  0  0
    6.1165   19.8828   50.3661 O   0  0  0  0  0  0  0  0  0  0  0  0
    5.2317   22.7264   52.3261 C   0  0  0  0  0  0  0  0  0  0  0  0
    4.1769   24.9005   51.7510 C   0  0  0  0  0  0  0  0  0  0  0  0
    4.1279   25.5224   49.3799 C   0  0  0  0  0  0  0  0  0  0  0  0
    6.3722   20.3883   52.5376 C   0  0  0  0  0  0  0  0  0  0  0  0
    6.5967   19.4495   51.5600 C   0  0  0  0  0  0  0  0  0  0  0  0
    3.9027   25.8031   50.8083 C   0  0  0  0  0  0  0  0  0  0  0  0
    4.7326   21.5552   48.2831 O   0  0  0  0  0  0  0  0  0  0  0  0
    3.5951   20.6763   48.2066 C   0  0  0  0  0  0  0  0  0  0  0  0
    3.7259   17.7740   49.3107 C   0  0  0  0  0  0  0  0  0  0  0  0
    3.9382   16.9256   46.9036 C   0  0  0  0  0  0  0  0  0  0  0  0
    3.9125   19.4900   47.3500 C   0  0  0  0  0  0  0  0  0  0  0  0
    4.0255   18.0669   47.8733 C   0  0  0  0  0  0  0  0  0  0  0  0
    5.1820   18.8914   47.6596 O   0  0  0  0  0  0  0  0  0  0  0  0
 15 16  1  0  0  0
 15  2  1  0  0  0
 16 19  1  0  0  0
  1 11  2  0  0  0
 17 20  1  0  0  0
 18 20  1  0  0  0
  2  3  2  0  0  0
  2  4  1  0  0  0
  3  5  1  0  0  0
  3  6  1  0  0  0
  4  7  2  0  0  0
  4  8  1  0  0  0
  5  9  2  0  0  0
  5 10  1  0  0  0
  6 11  1  0  0  0
  7  9  1  0  0  0
  7 12  1  0  0  0
  8 13  1  0  0  0
 10 14  2  0  0  0
 11 14  1  0  0  0
 12 13  2  0  0  0
 19 20  1  0  0  0
 19 21  1  0  0  0
 20 21  1  0  0  0
M  END
> <minimizedAffinity>
-8.15154

$$$$
