Pranlukast.cdx


 38 42  0  0  0  0  0  0  0  0999 V2000
    5.5601   18.3598   49.0048 N   0  0  0  0  0  0  0  0  0  0  0  0
    5.5353   18.4550   47.6164 C   0  0  0  0  0  0  0  0  0  0  0  0
    5.6878   19.4856   46.9654 O   0  0  0  0  0  0  0  0  0  0  0  0
    5.4718   17.4454   49.4278 H   0  0  0  0  0  0  0  0  0  0  0  0
    6.3425   21.6412   51.5607 C   0  0  0  0  0  0  0  0  0  0  0  0
    5.3496   21.7324   50.5988 C   0  0  0  0  0  0  0  0  0  0  0  0
    5.0524   20.6420   49.7850 C   0  0  0  0  0  0  0  0  0  0  0  0
    5.7689   19.4492   49.8893 C   0  0  0  0  0  0  0  0  0  0  0  0
    6.7418   19.3424   50.8942 C   0  0  0  0  0  0  0  0  0  0  0  0
    7.0343   20.4385   51.7270 C   0  0  0  0  0  0  0  0  0  0  0  0
    6.6455   22.8439   52.3570 C   0  0  0  0  0  0  0  0  0  0  0  0
    5.9184   24.0768   51.9972 C   0  0  0  0  0  0  0  0  0  0  0  0
    4.9823   24.0157   51.0403 C   0  0  0  0  0  0  0  0  0  0  0  0
    4.6230   22.8677   50.3676 O   0  0  0  0  0  0  0  0  0  0  0  0
    7.4734   22.8356   53.2569 O   0  0  0  0  0  0  0  0  0  0  0  0
    4.2812   25.1777   50.6274 C   0  0  0  0  0  0  0  0  0  0  0  0
    3.2436   25.8238   51.1186 N   0  0  0  0  0  0  0  0  0  0  0  0
    3.0336   26.9055   50.2933 N   0  0  0  0  0  0  0  0  0  0  0  0
    3.9208   26.9313   49.3090 N   0  0  0  0  0  0  0  0  0  0  0  0
    4.6958   25.8601   49.5152 N   0  0  0  0  0  0  0  0  0  0  0  0
    5.4663   25.6629   48.8855 H   0  0  0  0  0  0  0  0  0  0  0  0
    5.3114   17.2052   46.8374 C   0  0  0  0  0  0  0  0  0  0  0  0
    4.0664   16.5706   46.9784 C   0  0  0  0  0  0  0  0  0  0  0  0
    3.7570   15.4151   46.2497 C   0  0  0  0  0  0  0  0  0  0  0  0
    4.6923   14.8801   45.3661 C   0  0  0  0  0  0  0  0  0  0  0  0
    5.9285   15.5215   45.2160 C   0  0  0  0  0  0  0  0  0  0  0  0
    6.2398   16.6849   45.9356 C   0  0  0  0  0  0  0  0  0  0  0  0
    4.5293   13.7526   44.6045 O   0  0  0  0  0  0  0  0  0  0  0  0
    5.5187   12.7299   44.7396 C   0  0  0  0  0  0  0  0  0  0  0  0
    6.0314   12.3142   43.3570 C   0  0  0  0  0  0  0  0  0  0  0  0
    7.1824   13.1677   42.7999 C   0  0  0  0  0  0  0  0  0  0  0  0
    6.6158   14.4470   42.1577 C   0  0  0  0  0  0  0  0  0  0  0  0
    5.6237   14.2288   41.0393 C   0  0  0  0  0  0  0  0  0  0  0  0
    5.8678   13.2636   40.0499 C   0  0  0  0  0  0  0  0  0  0  0  0
    4.9179   12.9998   39.0592 C   0  0  0  0  0  0  0  0  0  0  0  0
    3.7118   13.6957   39.0458 C   0  0  0  0  0  0  0  0  0  0  0  0
    3.4565   14.6566   40.0218 C   0  0  0  0  0  0  0  0  0  0  0  0
    4.4052   14.9206   41.0137 C   0  0  0  0  0  0  0  0  0  0  0  0
  5  6  1  0  0  0
  5 11  1  0  0  0
  6  7  2  0  0  0
  7  8  1  0  0  0
  8  9  2  0  0  0
  8  1  1  0  0  0
  9 10  1  0  0  0
 10  5  2  0  0  0
 11 12  1  0  0  0
 11 15  2  0  0  0
 12 13  2  0  0  0
 13 14  1  0  0  0
 13 16  1  0  0  0
 14  6  1  0  0  0
 16 17  2  0  0  0
 17 18  1  0  0  0
 18 19  2  0  0  0
 19 20  1  0  0  0
 20 16  1  0  0  0
 20 21  1  0  0  0
  1  2  1  0  0  0
  1  4  1  0  0  0
  2 22  1  0  0  0
  2  3  2  0  0  0
 22 23  2  0  0  0
 23 24  1  0  0  0
 24 25  2  0  0  0
 25 26  1  0  0  0
 25 28  1  0  0  0
 26 27  2  0  0  0
 27 22  1  0  0  0
 28 29  1  0  0  0
 29 30  1  0  0  0
 30 31  1  0  0  0
 31 32  1  0  0  0
 32 33  1  0  0  0
 33 34  2  0  0  0
 34 35  1  0  0  0
 35 36  2  0  0  0
 36 37  1  0  0  0
 37 38  2  0  0  0
 38 33  1  0  0  0
M  END
> <minimizedAffinity>
-9.17802

$$$$
Pranlukast.cdx


 38 42  0  0  0  0  0  0  0  0999 V2000
    4.8179   18.5971   46.6474 N   0  0  0  0  0  0  0  0  0  0  0  0
    5.6542   19.5746   47.1790 C   0  0  0  0  0  0  0  0  0  0  0  0
    6.8816   19.5732   47.1282 O   0  0  0  0  0  0  0  0  0  0  0  0
    3.8175   18.7325   46.7077 H   0  0  0  0  0  0  0  0  0  0  0  0
    6.0198   15.0429   44.6888 C   0  0  0  0  0  0  0  0  0  0  0  0
    5.2759   15.9928   44.0077 C   0  0  0  0  0  0  0  0  0  0  0  0
    4.9163   17.1864   44.6286 C   0  0  0  0  0  0  0  0  0  0  0  0
    5.2597   17.4388   45.9574 C   0  0  0  0  0  0  0  0  0  0  0  0
    6.0523   16.4974   46.6308 C   0  0  0  0  0  0  0  0  0  0  0  0
    6.4285   15.2967   46.0007 C   0  0  0  0  0  0  0  0  0  0  0  0
    6.3265   13.7787   43.9959 C   0  0  0  0  0  0  0  0  0  0  0  0
    5.7345   13.5973   42.6562 C   0  0  0  0  0  0  0  0  0  0  0  0
    5.0330   14.6057   42.1209 C   0  0  0  0  0  0  0  0  0  0  0  0
    4.8344   15.8291   42.7238 O   0  0  0  0  0  0  0  0  0  0  0  0
    7.0166   12.9084   44.5075 O   0  0  0  0  0  0  0  0  0  0  0  0
    4.4092   14.4715   40.8539 C   0  0  0  0  0  0  0  0  0  0  0  0
    3.6414   15.2697   40.1407 N   0  0  0  0  0  0  0  0  0  0  0  0
    3.3625   14.5977   38.9719 N   0  0  0  0  0  0  0  0  0  0  0  0
    3.9434   13.4065   38.9586 N   0  0  0  0  0  0  0  0  0  0  0  0
    4.5935   13.3270   40.1255 N   0  0  0  0  0  0  0  0  0  0  0  0
    5.1297   12.4960   40.3515 H   0  0  0  0  0  0  0  0  0  0  0  0
    5.0198   20.7333   47.8674 C   0  0  0  0  0  0  0  0  0  0  0  0
    3.7520   20.5311   48.4369 C   0  0  0  0  0  0  0  0  0  0  0  0
    3.1033   21.5545   49.1397 C   0  0  0  0  0  0  0  0  0  0  0  0
    3.7188   22.7964   49.2834 C   0  0  0  0  0  0  0  0  0  0  0  0
    4.9891   22.9928   48.7266 C   0  0  0  0  0  0  0  0  0  0  0  0
    5.6478   21.9681   48.0307 C   0  0  0  0  0  0  0  0  0  0  0  0
    3.1957   23.8857   49.9296 O   0  0  0  0  0  0  0  0  0  0  0  0
    4.1073   24.9266   50.2884 C   0  0  0  0  0  0  0  0  0  0  0  0
    4.4420   24.8354   51.7807 C   0  0  0  0  0  0  0  0  0  0  0  0
    5.6356   23.9323   52.1316 C   0  0  0  0  0  0  0  0  0  0  0  0
    5.1311   22.6464   52.8114 C   0  0  0  0  0  0  0  0  0  0  0  0
    5.5735   21.3535   52.1667 C   0  0  0  0  0  0  0  0  0  0  0  0
    4.7506   20.2174   52.2130 C   0  0  0  0  0  0  0  0  0  0  0  0
    5.1164   19.0427   51.5501 C   0  0  0  0  0  0  0  0  0  0  0  0
    6.3079   18.9891   50.8312 C   0  0  0  0  0  0  0  0  0  0  0  0
    7.1343   20.1095   50.7770 C   0  0  0  0  0  0  0  0  0  0  0  0
    6.7691   21.2852   51.4388 C   0  0  0  0  0  0  0  0  0  0  0  0
  5  6  1  0  0  0
  5 11  1  0  0  0
  6  7  2  0  0  0
  7  8  1  0  0  0
  8  9  2  0  0  0
  8  1  1  0  0  0
  9 10  1  0  0  0
 10  5  2  0  0  0
 11 12  1  0  0  0
 11 15  2  0  0  0
 12 13  2  0  0  0
 13 14  1  0  0  0
 13 16  1  0  0  0
 14  6  1  0  0  0
 16 17  2  0  0  0
 17 18  1  0  0  0
 18 19  2  0  0  0
 19 20  1  0  0  0
 20 16  1  0  0  0
 20 21  1  0  0  0
  1  2  1  0  0  0
  1  4  1  0  0  0
  2 22  1  0  0  0
  2  3  2  0  0  0
 22 23  2  0  0  0
 23 24  1  0  0  0
 24 25  2  0  0  0
 25 26  1  0  0  0
 25 28  1  0  0  0
 26 27  2  0  0  0
 27 22  1  0  0  0
 28 29  1  0  0  0
 29 30  1  0  0  0
 30 31  1  0  0  0
 31 32  1  0  0  0
 32 33  1  0  0  0
 33 34  2  0  0  0
 34 35  1  0  0  0
 35 36  2  0  0  0
 36 37  1  0  0  0
 37 38  2  0  0  0
 38 33  1  0  0  0
M  END
> <minimizedAffinity>
-9.00422

$$$$
Pranlukast.cdx


 38 42  0  0  0  0  0  0  0  0999 V2000
    4.5123   20.3710   48.6334 N   0  0  0  0  0  0  0  0  0  0  0  0
    4.5545   20.6614   49.9941 C   0  0  0  0  0  0  0  0  0  0  0  0
    4.5229   19.8371   50.9045 O   0  0  0  0  0  0  0  0  0  0  0  0
    4.5960   21.1334   47.9741 H   0  0  0  0  0  0  0  0  0  0  0  0
    4.1059   16.5274   46.9089 C   0  0  0  0  0  0  0  0  0  0  0  0
    5.1235   17.3704   46.4927 C   0  0  0  0  0  0  0  0  0  0  0  0
    5.2947   18.6180   47.0874 C   0  0  0  0  0  0  0  0  0  0  0  0
    4.4270   19.0656   48.0845 C   0  0  0  0  0  0  0  0  0  0  0  0
    3.4262   18.1931   48.5372 C   0  0  0  0  0  0  0  0  0  0  0  0
    3.2601   16.9264   47.9472 C   0  0  0  0  0  0  0  0  0  0  0  0
    3.9440   15.2413   46.2074 C   0  0  0  0  0  0  0  0  0  0  0  0
    4.8330   14.9992   45.0546 C   0  0  0  0  0  0  0  0  0  0  0  0
    5.7745   15.9081   44.7661 C   0  0  0  0  0  0  0  0  0  0  0  0
    5.9966   17.0622   45.4862 O   0  0  0  0  0  0  0  0  0  0  0  0
    3.1021   14.4201   46.5425 O   0  0  0  0  0  0  0  0  0  0  0  0
    6.6298   15.7455   43.6461 C   0  0  0  0  0  0  0  0  0  0  0  0
    7.7708   16.3041   43.2976 N   0  0  0  0  0  0  0  0  0  0  0  0
    8.1426   15.7182   42.1086 N   0  0  0  0  0  0  0  0  0  0  0  0
    7.2515   14.8152   41.7249 N   0  0  0  0  0  0  0  0  0  0  0  0
    6.3125   14.8308   42.6782 N   0  0  0  0  0  0  0  0  0  0  0  0
    5.5129   14.2100   42.6124 H   0  0  0  0  0  0  0  0  0  0  0  0
    4.6530   22.0919   50.3973 C   0  0  0  0  0  0  0  0  0  0  0  0
    5.3320   22.3809   51.5923 C   0  0  0  0  0  0  0  0  0  0  0  0
    5.5080   23.7021   52.0229 C   0  0  0  0  0  0  0  0  0  0  0  0
    5.0068   24.7541   51.2588 C   0  0  0  0  0  0  0  0  0  0  0  0
    4.3416   24.4656   50.0602 C   0  0  0  0  0  0  0  0  0  0  0  0
    4.1716   23.1447   49.6190 C   0  0  0  0  0  0  0  0  0  0  0  0
    5.0938   26.0867   51.5658 O   0  0  0  0  0  0  0  0  0  0  0  0
    5.7277   26.9337   50.6047 C   0  0  0  0  0  0  0  0  0  0  0  0
    7.2096   26.5648   50.4811 C   0  0  0  0  0  0  0  0  0  0  0  0
    7.5808   25.7485   49.2323 C   0  0  0  0  0  0  0  0  0  0  0  0
    8.1967   24.4028   49.6562 C   0  0  0  0  0  0  0  0  0  0  0  0
    8.4074   23.4043   48.5419 C   0  0  0  0  0  0  0  0  0  0  0  0
    9.4264   23.5980   47.5963 C   0  0  0  0  0  0  0  0  0  0  0  0
    9.6793   22.6388   46.6118 C   0  0  0  0  0  0  0  0  0  0  0  0
    8.9186   21.4734   46.5611 C   0  0  0  0  0  0  0  0  0  0  0  0
    7.9039   21.2683   47.4935 C   0  0  0  0  0  0  0  0  0  0  0  0
    7.6505   22.2265   48.4791 C   0  0  0  0  0  0  0  0  0  0  0  0
  5  6  1  0  0  0
  5 11  1  0  0  0
  6  7  2  0  0  0
  7  8  1  0  0  0
  8  9  2  0  0  0
  8  1  1  0  0  0
  9 10  1  0  0  0
 10  5  2  0  0  0
 11 12  1  0  0  0
 11 15  2  0  0  0
 12 13  2  0  0  0
 13 14  1  0  0  0
 13 16  1  0  0  0
 14  6  1  0  0  0
 16 17  2  0  0  0
 17 18  1  0  0  0
 18 19  2  0  0  0
 19 20  1  0  0  0
 20 16  1  0  0  0
 20 21  1  0  0  0
  1  2  1  0  0  0
  1  4  1  0  0  0
  2 22  1  0  0  0
  2  3  2  0  0  0
 22 23  2  0  0  0
 23 24  1  0  0  0
 24 25  2  0  0  0
 25 26  1  0  0  0
 25 28  1  0  0  0
 26 27  2  0  0  0
 27 22  1  0  0  0
 28 29  1  0  0  0
 29 30  1  0  0  0
 30 31  1  0  0  0
 31 32  1  0  0  0
 32 33  1  0  0  0
 33 34  2  0  0  0
 34 35  1  0  0  0
 35 36  2  0  0  0
 36 37  1  0  0  0
 37 38  2  0  0  0
 38 33  1  0  0  0
M  END
> <minimizedAffinity>
-8.67099

$$$$
Pranlukast.cdx


 38 42  0  0  0  0  0  0  0  0999 V2000
    6.0039   17.7351   47.6167 N   0  0  0  0  0  0  0  0  0  0  0  0
    5.0456   17.0910   46.8394 C   0  0  0  0  0  0  0  0  0  0  0  0
    3.8287   17.2173   46.9509 O   0  0  0  0  0  0  0  0  0  0  0  0
    6.9805   17.5898   47.3978 H   0  0  0  0  0  0  0  0  0  0  0  0
    5.2844   20.3735   50.8468 C   0  0  0  0  0  0  0  0  0  0  0  0
    5.8745   20.8440   49.6849 C   0  0  0  0  0  0  0  0  0  0  0  0
    6.0718   19.9946   48.5991 C   0  0  0  0  0  0  0  0  0  0  0  0
    5.7189   18.6462   48.6662 C   0  0  0  0  0  0  0  0  0  0  0  0
    5.0794   18.1821   49.8252 C   0  0  0  0  0  0  0  0  0  0  0  0
    4.8664   19.0421   50.9186 C   0  0  0  0  0  0  0  0  0  0  0  0
    5.1481   21.3069   51.9793 C   0  0  0  0  0  0  0  0  0  0  0  0
    5.7368   22.6491   51.8058 C   0  0  0  0  0  0  0  0  0  0  0  0
    6.2791   22.9657   50.6220 C   0  0  0  0  0  0  0  0  0  0  0  0
    6.3127   22.1298   49.5266 O   0  0  0  0  0  0  0  0  0  0  0  0
    4.5971   20.9861   53.0228 O   0  0  0  0  0  0  0  0  0  0  0  0
    6.8939   24.2268   50.4126 C   0  0  0  0  0  0  0  0  0  0  0  0
    7.9248   24.6157   49.6906 N   0  0  0  0  0  0  0  0  0  0  0  0
    8.0292   25.9773   49.8649 N   0  0  0  0  0  0  0  0  0  0  0  0
    7.0843   26.4259   50.6787 N   0  0  0  0  0  0  0  0  0  0  0  0
    6.3788   25.3410   51.0190 N   0  0  0  0  0  0  0  0  0  0  0  0
    5.5829   25.4286   51.6418 H   0  0  0  0  0  0  0  0  0  0  0  0
    5.5218   16.1695   45.7703 C   0  0  0  0  0  0  0  0  0  0  0  0
    4.9410   14.8919   45.7130 C   0  0  0  0  0  0  0  0  0  0  0  0
    5.2996   13.9788   44.7132 C   0  0  0  0  0  0  0  0  0  0  0  0
    6.2454   14.3352   43.7539 C   0  0  0  0  0  0  0  0  0  0  0  0
    6.8140   15.6144   43.8039 C   0  0  0  0  0  0  0  0  0  0  0  0
    6.4510   16.5366   44.7969 C   0  0  0  0  0  0  0  0  0  0  0  0
    6.6982   13.5403   42.7336 O   0  0  0  0  0  0  0  0  0  0  0  0
    6.2103   12.1974   42.6922 C   0  0  0  0  0  0  0  0  0  0  0  0
    5.3944   11.9780   41.4141 C   0  0  0  0  0  0  0  0  0  0  0  0
    6.2119   11.9356   40.1128 C   0  0  0  0  0  0  0  0  0  0  0  0
    5.6152   12.9225   39.0929 C   0  0  0  0  0  0  0  0  0  0  0  0
    4.8307   14.0715   39.6821 C   0  0  0  0  0  0  0  0  0  0  0  0
    3.4274   14.0632   39.6543 C   0  0  0  0  0  0  0  0  0  0  0  0
    2.6945   15.0824   40.2687 C   0  0  0  0  0  0  0  0  0  0  0  0
    3.3545   16.1214   40.9199 C   0  0  0  0  0  0  0  0  0  0  0  0
    4.7472   16.1422   40.9550 C   0  0  0  0  0  0  0  0  0  0  0  0
    5.4813   15.1230   40.3418 C   0  0  0  0  0  0  0  0  0  0  0  0
  5  6  1  0  0  0
  5 11  1  0  0  0
  6  7  2  0  0  0
  7  8  1  0  0  0
  8  9  2  0  0  0
  8  1  1  0  0  0
  9 10  1  0  0  0
 10  5  2  0  0  0
 11 12  1  0  0  0
 11 15  2  0  0  0
 12 13  2  0  0  0
 13 14  1  0  0  0
 13 16  1  0  0  0
 14  6  1  0  0  0
 16 17  2  0  0  0
 17 18  1  0  0  0
 18 19  2  0  0  0
 19 20  1  0  0  0
 20 16  1  0  0  0
 20 21  1  0  0  0
  1  2  1  0  0  0
  1  4  1  0  0  0
  2 22  1  0  0  0
  2  3  2  0  0  0
 22 23  2  0  0  0
 23 24  1  0  0  0
 24 25  2  0  0  0
 25 26  1  0  0  0
 25 28  1  0  0  0
 26 27  2  0  0  0
 27 22  1  0  0  0
 28 29  1  0  0  0
 29 30  1  0  0  0
 30 31  1  0  0  0
 31 32  1  0  0  0
 32 33  1  0  0  0
 33 34  2  0  0  0
 34 35  1  0  0  0
 35 36  2  0  0  0
 36 37  1  0  0  0
 37 38  2  0  0  0
 38 33  1  0  0  0
M  END
> <minimizedAffinity>
-8.41170

$$$$
Pranlukast.cdx


 38 42  0  0  0  0  0  0  0  0999 V2000
    6.4741   19.4102   47.3836 N   0  0  0  0  0  0  0  0  0  0  0  0
    5.3786   19.1904   46.5536 C   0  0  0  0  0  0  0  0  0  0  0  0
    4.6222   20.0559   46.1201 O   0  0  0  0  0  0  0  0  0  0  0  0
    7.0548   18.6216   47.6360 H   0  0  0  0  0  0  0  0  0  0  0  0
    7.6743   23.2697   48.6392 C   0  0  0  0  0  0  0  0  0  0  0  0
    6.5138   22.7057   49.1437 C   0  0  0  0  0  0  0  0  0  0  0  0
    6.1356   21.4176   48.7732 C   0  0  0  0  0  0  0  0  0  0  0  0
    6.8898   20.6805   47.8593 C   0  0  0  0  0  0  0  0  0  0  0  0
    8.0885   21.2340   47.3853 C   0  0  0  0  0  0  0  0  0  0  0  0
    8.4797   22.5301   47.7692 C   0  0  0  0  0  0  0  0  0  0  0  0
    7.9954   24.6545   49.0287 C   0  0  0  0  0  0  0  0  0  0  0  0
    6.9984   25.3566   49.8601 C   0  0  0  0  0  0  0  0  0  0  0  0
    5.9171   24.6826   50.2748 C   0  0  0  0  0  0  0  0  0  0  0  0
    5.6675   23.3553   49.9993 O   0  0  0  0  0  0  0  0  0  0  0  0
    9.0229   25.2096   48.6663 O   0  0  0  0  0  0  0  0  0  0  0  0
    4.9081   25.3189   51.0425 C   0  0  0  0  0  0  0  0  0  0  0  0
    4.3454   25.0354   52.1993 N   0  0  0  0  0  0  0  0  0  0  0  0
    3.4412   26.0431   52.4485 N   0  0  0  0  0  0  0  0  0  0  0  0
    3.4404   26.9340   51.4673 N   0  0  0  0  0  0  0  0  0  0  0  0
    4.3504   26.4862   50.5944 N   0  0  0  0  0  0  0  0  0  0  0  0
    4.5398   27.0095   49.7462 H   0  0  0  0  0  0  0  0  0  0  0  0
    5.0887   17.7887   46.1411 C   0  0  0  0  0  0  0  0  0  0  0  0
    5.9653   17.1921   45.2201 C   0  0  0  0  0  0  0  0  0  0  0  0
    5.7910   15.8636   44.8119 C   0  0  0  0  0  0  0  0  0  0  0  0
    4.7347   15.1127   45.3240 C   0  0  0  0  0  0  0  0  0  0  0  0
    3.8690   15.7043   46.2528 C   0  0  0  0  0  0  0  0  0  0  0  0
    4.0451   17.0312   46.6730 C   0  0  0  0  0  0  0  0  0  0  0  0
    4.4386   13.8138   45.0030 O   0  0  0  0  0  0  0  0  0  0  0  0
    5.5185   12.8776   45.0260 C   0  0  0  0  0  0  0  0  0  0  0  0
    5.7456   12.3085   43.6218 C   0  0  0  0  0  0  0  0  0  0  0  0
    7.0124   12.8079   42.9081 C   0  0  0  0  0  0  0  0  0  0  0  0
    6.7340   14.1719   42.2508 C   0  0  0  0  0  0  0  0  0  0  0  0
    5.6402   14.1805   41.2086 C   0  0  0  0  0  0  0  0  0  0  0  0
    5.5538   13.1501   40.2593 C   0  0  0  0  0  0  0  0  0  0  0  0
    4.4984   13.1082   39.3442 C   0  0  0  0  0  0  0  0  0  0  0  0
    3.5152   14.0942   39.3672 C   0  0  0  0  0  0  0  0  0  0  0  0
    3.5887   15.1229   40.3040 C   0  0  0  0  0  0  0  0  0  0  0  0
    4.6432   15.1653   41.2204 C   0  0  0  0  0  0  0  0  0  0  0  0
  5  6  1  0  0  0
  5 11  1  0  0  0
  6  7  2  0  0  0
  7  8  1  0  0  0
  8  9  2  0  0  0
  8  1  1  0  0  0
  9 10  1  0  0  0
 10  5  2  0  0  0
 11 12  1  0  0  0
 11 15  2  0  0  0
 12 13  2  0  0  0
 13 14  1  0  0  0
 13 16  1  0  0  0
 14  6  1  0  0  0
 16 17  2  0  0  0
 17 18  1  0  0  0
 18 19  2  0  0  0
 19 20  1  0  0  0
 20 16  1  0  0  0
 20 21  1  0  0  0
  1  2  1  0  0  0
  1  4  1  0  0  0
  2 22  1  0  0  0
  2  3  2  0  0  0
 22 23  2  0  0  0
 23 24  1  0  0  0
 24 25  2  0  0  0
 25 26  1  0  0  0
 25 28  1  0  0  0
 26 27  2  0  0  0
 27 22  1  0  0  0
 28 29  1  0  0  0
 29 30  1  0  0  0
 30 31  1  0  0  0
 31 32  1  0  0  0
 32 33  1  0  0  0
 33 34  2  0  0  0
 34 35  1  0  0  0
 35 36  2  0  0  0
 36 37  1  0  0  0
 37 38  2  0  0  0
 38 33  1  0  0  0
M  END
> <minimizedAffinity>
-8.11551

$$$$
