S5079 Sitagliptin.cdx


 30 32  0  0  0  0  0  0  0  0999 V2000
    4.8351   18.8263   47.0018 C   0  0  0  0  0  0  0  0  0  0  0  0
    4.6971   19.5798   48.1339 N   0  0  0  0  0  0  0  0  0  0  0  0
    4.6396   20.9016   47.7270 C   0  0  0  0  0  0  0  0  0  0  0  0
    4.8623   19.6490   45.9656 N   0  0  0  0  0  0  0  0  0  0  0  0
    4.7393   20.9364   46.4229 N   0  0  0  0  0  0  0  0  0  0  0  0
    4.5884   21.6351   50.0575 N   0  0  0  0  0  0  0  0  0  0  0  0
    5.2031   22.3408   51.0778 C   0  0  0  0  0  0  0  0  0  0  0  0
    4.4241   22.0592   48.6577 C   0  0  0  0  0  0  0  0  0  0  0  0
    4.6458   19.2110   49.5371 C   0  0  0  0  0  0  0  0  0  0  0  0
    4.0016   20.3238   50.3702 C   0  0  0  0  0  0  0  0  0  0  0  0
    5.3323   21.8379   52.1999 O   0  0  0  0  0  0  0  0  0  0  0  0
    4.9335   17.3351   46.8934 C   0  0  0  0  0  0  0  0  0  0  0  0
    6.0047   16.8230   47.5539 F   0  0  0  0  0  0  0  0  0  0  0  0
    3.8366   16.7159   47.4055 F   0  0  0  0  0  0  0  0  0  0  0  0
    5.0445   16.9224   45.6033 F   0  0  0  0  0  0  0  0  0  0  0  0
    5.7602   23.7378   50.8651 C   0  0  0  0  0  0  0  0  0  0  0  0
    7.1151   24.0669   51.5473 C   0  0  0  0  0  0  0  0  0  0  0  0
    7.2929   25.5016   51.2572 N   0  0  0  0  0  0  0  0  0  0  0  0
    8.1630   25.8480   51.6647 H   0  0  0  0  0  0  0  0  0  0  0  0
    7.3697   25.6676   50.2533 H   0  0  0  0  0  0  0  0  0  0  0  0
    8.3027   23.1459   51.0651 C   0  0  0  0  0  0  0  0  0  0  0  0
    8.3191   22.4152   49.7104 C   0  0  0  0  0  0  0  0  0  0  0  0
    8.1981   20.4075   48.2942 C   0  0  0  0  0  0  0  0  0  0  0  0
    8.0595   21.0521   49.5326 C   0  0  0  0  0  0  0  0  0  0  0  0
    8.6161   21.1271   47.1911 C   0  0  0  0  0  0  0  0  0  0  0  0
    8.8920   22.4783   47.3158 C   0  0  0  0  0  0  0  0  0  0  0  0
    8.7510   23.1196   48.5562 C   0  0  0  0  0  0  0  0  0  0  0  0
    7.6847   20.2853   50.5615 F   0  0  0  0  0  0  0  0  0  0  0  0
    8.7641   20.5050   46.0120 F   0  0  0  0  0  0  0  0  0  0  0  0
    9.3163   23.1749   46.2511 F   0  0  0  0  0  0  0  0  0  0  0  0
  2  1  1  0  0  0
  3  2  1  0  0  0
  4  1  2  0  0  0
  5  3  2  0  0  0
  5  4  1  0  0  0
 12  1  1  0  0  0
  6 10  1  0  0  0
  7  6  1  0  0  0
  8  3  1  0  0  0
  8  6  1  0  0  0
 16  7  1  0  0  0
 22 21  1  0  0  0
  9  2  1  0  0  0
 23 24  2  0  0  0
 23 25  1  0  0  0
 24 22  1  0  0  0
 25 26  2  0  0  0
 26 27  1  0  0  0
 27 22  2  0  0  0
 10  9  1  0  0  0
 21 17  1  0  0  0
 11  7  2  0  0  0
 17 16  1  0  0  0
 17 18  1  0  0  0
 13 12  1  0  0  0
 14 12  1  0  0  0
 15 12  1  0  0  0
 28 24  1  0  0  0
 29 25  1  0  0  0
 30 26  1  0  0  0
 18 19  1  0  0  0
 18 20  1  0  0  0
M  END
> <minimizedAffinity>
-9.23768

$$$$
S5079 Sitagliptin.cdx


 30 32  0  0  0  0  0  0  0  0999 V2000
    6.7319   22.0949   52.1185 C   0  0  0  0  0  0  0  0  0  0  0  0
    5.8653   21.9397   51.0728 N   0  0  0  0  0  0  0  0  0  0  0  0
    5.6501   20.5794   50.9334 C   0  0  0  0  0  0  0  0  0  0  0  0
    7.0271   20.8921   52.5849 N   0  0  0  0  0  0  0  0  0  0  0  0
    6.3510   19.9555   51.8451 N   0  0  0  0  0  0  0  0  0  0  0  0
    4.2848   20.9812   48.9470 N   0  0  0  0  0  0  0  0  0  0  0  0
    4.1117   20.7935   47.5862 C   0  0  0  0  0  0  0  0  0  0  0  0
    4.7050   19.9756   49.9361 C   0  0  0  0  0  0  0  0  0  0  0  0
    5.2488   22.9047   50.1805 C   0  0  0  0  0  0  0  0  0  0  0  0
    4.0060   22.3107   49.5096 C   0  0  0  0  0  0  0  0  0  0  0  0
    3.8175   21.7449   46.8534 O   0  0  0  0  0  0  0  0  0  0  0  0
    7.2756   23.3718   52.6834 C   0  0  0  0  0  0  0  0  0  0  0  0
    7.9163   24.1328   51.7581 F   0  0  0  0  0  0  0  0  0  0  0  0
    6.2939   24.1529   53.2077 F   0  0  0  0  0  0  0  0  0  0  0  0
    8.1691   23.1492   53.6829 F   0  0  0  0  0  0  0  0  0  0  0  0
    4.2941   19.4339   46.9339 C   0  0  0  0  0  0  0  0  0  0  0  0
    5.6529   19.1659   46.2330 C   0  0  0  0  0  0  0  0  0  0  0  0
    5.5065   17.7829   45.7430 N   0  0  0  0  0  0  0  0  0  0  0  0
    6.3485   17.4830   45.2489 H   0  0  0  0  0  0  0  0  0  0  0  0
    5.3894   17.1284   46.5171 H   0  0  0  0  0  0  0  0  0  0  0  0
    6.9015   19.4038   47.1686 C   0  0  0  0  0  0  0  0  0  0  0  0
    7.8570   20.6023   47.0270 C   0  0  0  0  0  0  0  0  0  0  0  0
    9.8772   21.7135   46.1696 C   0  0  0  0  0  0  0  0  0  0  0  0
    8.9701   20.6433   46.1805 C   0  0  0  0  0  0  0  0  0  0  0  0
    9.6888   22.7792   47.0288 C   0  0  0  0  0  0  0  0  0  0  0  0
    8.6054   22.7839   47.8912 C   0  0  0  0  0  0  0  0  0  0  0  0
    7.6996   21.7118   47.8982 C   0  0  0  0  0  0  0  0  0  0  0  0
    9.2355   19.6324   45.3470 F   0  0  0  0  0  0  0  0  0  0  0  0
   10.5667   23.7933   47.0282 F   0  0  0  0  0  0  0  0  0  0  0  0
    8.4308   23.8080   48.7395 F   0  0  0  0  0  0  0  0  0  0  0  0
  2  1  1  0  0  0
  3  2  1  0  0  0
  4  1  2  0  0  0
  5  3  2  0  0  0
  5  4  1  0  0  0
 12  1  1  0  0  0
  6 10  1  0  0  0
  7  6  1  0  0  0
  8  3  1  0  0  0
  8  6  1  0  0  0
 16  7  1  0  0  0
 22 21  1  0  0  0
  9  2  1  0  0  0
 23 24  2  0  0  0
 23 25  1  0  0  0
 24 22  1  0  0  0
 25 26  2  0  0  0
 26 27  1  0  0  0
 27 22  2  0  0  0
 10  9  1  0  0  0
 21 17  1  0  0  0
 11  7  2  0  0  0
 17 16  1  0  0  0
 17 18  1  0  0  0
 13 12  1  0  0  0
 14 12  1  0  0  0
 15 12  1  0  0  0
 28 24  1  0  0  0
 29 25  1  0  0  0
 30 26  1  0  0  0
 18 19  1  0  0  0
 18 20  1  0  0  0
M  END
> <minimizedAffinity>
-9.09418

$$$$
S5079 Sitagliptin.cdx


 30 32  0  0  0  0  0  0  0  0999 V2000
    4.3757   18.5636   47.2998 C   0  0  0  0  0  0  0  0  0  0  0  0
    4.6543   19.0132   48.5602 N   0  0  0  0  0  0  0  0  0  0  0  0
    4.2427   20.3338   48.6111 C   0  0  0  0  0  0  0  0  0  0  0  0
    3.8272   19.5603   46.6236 N   0  0  0  0  0  0  0  0  0  0  0  0
    3.7465   20.6565   47.4443 N   0  0  0  0  0  0  0  0  0  0  0  0
    5.1336   20.5423   50.8771 N   0  0  0  0  0  0  0  0  0  0  0  0
    6.0354   21.1557   51.7300 C   0  0  0  0  0  0  0  0  0  0  0  0
    4.3082   21.1879   49.8435 C   0  0  0  0  0  0  0  0  0  0  0  0
    5.2829   18.3659   49.6975 C   0  0  0  0  0  0  0  0  0  0  0  0
    4.9316   19.0913   51.0005 C   0  0  0  0  0  0  0  0  0  0  0  0
    6.7171   20.4833   52.5122 O   0  0  0  0  0  0  0  0  0  0  0  0
    4.6175   17.1974   46.7339 C   0  0  0  0  0  0  0  0  0  0  0  0
    5.8286   16.6860   47.0770 F   0  0  0  0  0  0  0  0  0  0  0  0
    3.6889   16.3003   47.1603 F   0  0  0  0  0  0  0  0  0  0  0  0
    4.5683   17.1903   45.3759 F   0  0  0  0  0  0  0  0  0  0  0  0
    6.2441   22.6602   51.7303 C   0  0  0  0  0  0  0  0  0  0  0  0
    7.5830   23.1855   51.1465 C   0  0  0  0  0  0  0  0  0  0  0  0
    7.9108   24.3168   52.0335 N   0  0  0  0  0  0  0  0  0  0  0  0
    8.7903   24.7536   51.7530 H   0  0  0  0  0  0  0  0  0  0  0  0
    7.2034   25.0498   51.9722 H   0  0  0  0  0  0  0  0  0  0  0  0
    7.5001   23.5535   49.6139 C   0  0  0  0  0  0  0  0  0  0  0  0
    8.1048   22.6865   48.4949 C   0  0  0  0  0  0  0  0  0  0  0  0
    9.5157   22.3270   46.5122 C   0  0  0  0  0  0  0  0  0  0  0  0
    9.0778   23.1163   47.5863 C   0  0  0  0  0  0  0  0  0  0  0  0
    8.9708   21.0720   46.3183 C   0  0  0  0  0  0  0  0  0  0  0  0
    7.9996   20.6025   47.1865 C   0  0  0  0  0  0  0  0  0  0  0  0
    7.5651   21.3948   48.2604 C   0  0  0  0  0  0  0  0  0  0  0  0
    9.6246   24.3317   47.6906 F   0  0  0  0  0  0  0  0  0  0  0  0
    9.3791   20.3262   45.2810 F   0  0  0  0  0  0  0  0  0  0  0  0
    7.4554   19.3926   46.9894 F   0  0  0  0  0  0  0  0  0  0  0  0
  2  1  1  0  0  0
  3  2  1  0  0  0
  4  1  2  0  0  0
  5  3  2  0  0  0
  5  4  1  0  0  0
 12  1  1  0  0  0
  6 10  1  0  0  0
  7  6  1  0  0  0
  8  3  1  0  0  0
  8  6  1  0  0  0
 16  7  1  0  0  0
 22 21  1  0  0  0
  9  2  1  0  0  0
 23 24  2  0  0  0
 23 25  1  0  0  0
 24 22  1  0  0  0
 25 26  2  0  0  0
 26 27  1  0  0  0
 27 22  2  0  0  0
 10  9  1  0  0  0
 21 17  1  0  0  0
 11  7  2  0  0  0
 17 16  1  0  0  0
 17 18  1  0  0  0
 13 12  1  0  0  0
 14 12  1  0  0  0
 15 12  1  0  0  0
 28 24  1  0  0  0
 29 25  1  0  0  0
 30 26  1  0  0  0
 18 19  1  0  0  0
 18 20  1  0  0  0
M  END
> <minimizedAffinity>
-9.08826

$$$$
S5079 Sitagliptin.cdx


 30 32  0  0  0  0  0  0  0  0999 V2000
    4.4576   24.8651   50.3601 C   0  0  0  0  0  0  0  0  0  0  0  0
    5.1980   23.8061   50.8057 N   0  0  0  0  0  0  0  0  0  0  0  0
    5.2340   22.8841   49.7738 C   0  0  0  0  0  0  0  0  0  0  0  0
    4.0643   24.5966   49.1253 N   0  0  0  0  0  0  0  0  0  0  0  0
    4.5509   23.3651   48.7669 N   0  0  0  0  0  0  0  0  0  0  0  0
    6.4470   21.3116   51.1978 N   0  0  0  0  0  0  0  0  0  0  0  0
    6.4689   20.0806   51.8311 C   0  0  0  0  0  0  0  0  0  0  0  0
    6.0026   21.5960   49.8238 C   0  0  0  0  0  0  0  0  0  0  0  0
    5.8406   23.5481   52.0817 C   0  0  0  0  0  0  0  0  0  0  0  0
    6.9350   22.4857   51.9361 C   0  0  0  0  0  0  0  0  0  0  0  0
    6.8060   19.9906   53.0173 O   0  0  0  0  0  0  0  0  0  0  0  0
    4.1264   26.1308   51.0907 C   0  0  0  0  0  0  0  0  0  0  0  0
    3.5161   25.9120   52.2846 F   0  0  0  0  0  0  0  0  0  0  0  0
    5.2376   26.8673   51.3584 F   0  0  0  0  0  0  0  0  0  0  0  0
    3.2940   26.9316   50.3748 F   0  0  0  0  0  0  0  0  0  0  0  0
    6.0642   18.8030   51.1163 C   0  0  0  0  0  0  0  0  0  0  0  0
    4.5593   18.4241   51.1494 C   0  0  0  0  0  0  0  0  0  0  0  0
    4.4575   17.5733   52.3494 N   0  0  0  0  0  0  0  0  0  0  0  0
    3.4965   17.2569   52.4881 H   0  0  0  0  0  0  0  0  0  0  0  0
    5.0182   16.7266   52.2491 H   0  0  0  0  0  0  0  0  0  0  0  0
    4.0513   17.7466   49.8174 C   0  0  0  0  0  0  0  0  0  0  0  0
    4.2605   18.3538   48.4185 C   0  0  0  0  0  0  0  0  0  0  0  0
    5.3916   18.5177   46.2402 C   0  0  0  0  0  0  0  0  0  0  0  0
    5.1521   17.8638   47.4581 C   0  0  0  0  0  0  0  0  0  0  0  0
    4.7374   19.7020   45.9590 C   0  0  0  0  0  0  0  0  0  0  0  0
    3.8493   20.2323   46.8796 C   0  0  0  0  0  0  0  0  0  0  0  0
    3.6117   19.5744   48.0964 C   0  0  0  0  0  0  0  0  0  0  0  0
    5.8461   16.7421   47.6755 F   0  0  0  0  0  0  0  0  0  0  0  0
    4.9807   20.3340   44.8012 F   0  0  0  0  0  0  0  0  0  0  0  0
    3.2276   21.3915   46.6175 F   0  0  0  0  0  0  0  0  0  0  0  0
  2  1  1  0  0  0
  3  2  1  0  0  0
  4  1  2  0  0  0
  5  3  2  0  0  0
  5  4  1  0  0  0
 12  1  1  0  0  0
  6 10  1  0  0  0
  7  6  1  0  0  0
  8  3  1  0  0  0
  8  6  1  0  0  0
 16  7  1  0  0  0
 22 21  1  0  0  0
  9  2  1  0  0  0
 23 24  2  0  0  0
 23 25  1  0  0  0
 24 22  1  0  0  0
 25 26  2  0  0  0
 26 27  1  0  0  0
 27 22  2  0  0  0
 10  9  1  0  0  0
 21 17  1  0  0  0
 11  7  2  0  0  0
 17 16  1  0  0  0
 17 18  1  0  0  0
 13 12  1  0  0  0
 14 12  1  0  0  0
 15 12  1  0  0  0
 28 24  1  0  0  0
 29 25  1  0  0  0
 30 26  1  0  0  0
 18 19  1  0  0  0
 18 20  1  0  0  0
M  END
> <minimizedAffinity>
-8.82785

$$$$
S5079 Sitagliptin.cdx


 30 32  0  0  0  0  0  0  0  0999 V2000
    9.0236   21.1610   47.2203 C   0  0  0  0  0  0  0  0  0  0  0  0
    8.6266   22.2828   47.8929 N   0  0  0  0  0  0  0  0  0  0  0  0
    7.9906   21.8516   49.0443 C   0  0  0  0  0  0  0  0  0  0  0  0
    8.6452   20.1074   47.9262 N   0  0  0  0  0  0  0  0  0  0  0  0
    8.0052   20.5434   49.0583 N   0  0  0  0  0  0  0  0  0  0  0  0
    7.4249   24.1590   49.6168 N   0  0  0  0  0  0  0  0  0  0  0  0
    6.4366   25.1019   49.8427 C   0  0  0  0  0  0  0  0  0  0  0  0
    7.4559   22.7704   50.1038 C   0  0  0  0  0  0  0  0  0  0  0  0
    8.7449   23.6931   47.5696 C   0  0  0  0  0  0  0  0  0  0  0  0
    8.6008   24.5550   48.8281 C   0  0  0  0  0  0  0  0  0  0  0  0
    6.5025   26.2191   49.3171 O   0  0  0  0  0  0  0  0  0  0  0  0
    9.7640   21.0793   45.9202 C   0  0  0  0  0  0  0  0  0  0  0  0
   10.9587   21.7257   45.9466 F   0  0  0  0  0  0  0  0  0  0  0  0
   10.0325   19.7933   45.5695 F   0  0  0  0  0  0  0  0  0  0  0  0
    9.0567   21.6212   44.8940 F   0  0  0  0  0  0  0  0  0  0  0  0
    5.2298   24.8062   50.7164 C   0  0  0  0  0  0  0  0  0  0  0  0
    3.9309   24.3576   49.9945 C   0  0  0  0  0  0  0  0  0  0  0  0
    2.8937   25.1924   50.6282 N   0  0  0  0  0  0  0  0  0  0  0  0
    1.9750   24.9928   50.2294 H   0  0  0  0  0  0  0  0  0  0  0  0
    2.8152   24.9887   51.6250 H   0  0  0  0  0  0  0  0  0  0  0  0
    3.6679   22.8036   50.0800 C   0  0  0  0  0  0  0  0  0  0  0  0
    3.7789   21.8525   48.8749 C   0  0  0  0  0  0  0  0  0  0  0  0
    3.2358   19.7946   47.6415 C   0  0  0  0  0  0  0  0  0  0  0  0
    3.0196   20.6907   48.6991 C   0  0  0  0  0  0  0  0  0  0  0  0
    4.2416   20.0445   46.7274 C   0  0  0  0  0  0  0  0  0  0  0  0
    5.0257   21.1780   46.8607 C   0  0  0  0  0  0  0  0  0  0  0  0
    4.8054   22.0726   47.9195 C   0  0  0  0  0  0  0  0  0  0  0  0
    2.0526   20.3661   49.5631 F   0  0  0  0  0  0  0  0  0  0  0  0
    4.4572   19.1777   45.7269 F   0  0  0  0  0  0  0  0  0  0  0  0
    6.0149   21.4131   45.9860 F   0  0  0  0  0  0  0  0  0  0  0  0
  2  1  1  0  0  0
  3  2  1  0  0  0
  4  1  2  0  0  0
  5  3  2  0  0  0
  5  4  1  0  0  0
 12  1  1  0  0  0
  6 10  1  0  0  0
  7  6  1  0  0  0
  8  3  1  0  0  0
  8  6  1  0  0  0
 16  7  1  0  0  0
 22 21  1  0  0  0
  9  2  1  0  0  0
 23 24  2  0  0  0
 23 25  1  0  0  0
 24 22  1  0  0  0
 25 26  2  0  0  0
 26 27  1  0  0  0
 27 22  2  0  0  0
 10  9  1  0  0  0
 21 17  1  0  0  0
 11  7  2  0  0  0
 17 16  1  0  0  0
 17 18  1  0  0  0
 13 12  1  0  0  0
 14 12  1  0  0  0
 15 12  1  0  0  0
 28 24  1  0  0  0
 29 25  1  0  0  0
 30 26  1  0  0  0
 18 19  1  0  0  0
 18 20  1  0  0  0
M  END
> <minimizedAffinity>
-8.71372

$$$$
