S5143 Citropten.cdx


 15 16  0  0  0  0  0  0  0  0999 V2000
    4.7217   23.7272   50.2358 C   0  0  0  0  0  0  0  0  0  0  0  0
    4.9413   23.8188   51.6230 C   0  0  0  0  0  0  0  0  0  0  0  0
    5.1555   22.5482   49.6018 C   0  0  0  0  0  0  0  0  0  0  0  0
    4.0733   24.8911   49.6278 C   0  0  0  0  0  0  0  0  0  0  0  0
    5.5799   22.8311   52.3754 C   0  0  0  0  0  0  0  0  0  0  0  0
    4.5101   24.9336   52.3838 O   0  0  0  0  0  0  0  0  0  0  0  0
    5.7963   21.5487   50.3725 C   0  0  0  0  0  0  0  0  0  0  0  0
    3.6563   25.9290   50.3600 C   0  0  0  0  0  0  0  0  0  0  0  0
    6.0182   21.6817   51.7449 C   0  0  0  0  0  0  0  0  0  0  0  0
    3.8295   25.9863   51.8122 C   0  0  0  0  0  0  0  0  0  0  0  0
    3.4037   26.9338   52.4640 O   0  0  0  0  0  0  0  0  0  0  0  0
    5.0686   22.1487   48.2964 O   0  0  0  0  0  0  0  0  0  0  0  0
    5.9149   21.1502   47.7661 C   0  0  0  0  0  0  0  0  0  0  0  0
    6.6576   20.6348   52.3474 O   0  0  0  0  0  0  0  0  0  0  0  0
    6.6599   19.3993   51.6371 C   0  0  0  0  0  0  0  0  0  0  0  0
  1  2  1  0  0  0
  1  3  2  0  0  0
  1  4  1  0  0  0
  2  5  2  0  0  0
  2  6  1  0  0  0
  3  7  1  0  0  0
  3 12  1  0  0  0
  4  8  2  0  0  0
  5  9  1  0  0  0
  6 10  1  0  0  0
  7  9  2  0  0  0
 12 13  1  0  0  0
  8 10  1  0  0  0
  9 14  1  0  0  0
 10 11  2  0  0  0
 14 15  1  0  0  0
M  END
> <minimizedAffinity>
-6.74647

$$$$
S5143 Citropten.cdx


 15 16  0  0  0  0  0  0  0  0999 V2000
    5.1609   18.8085   48.2243 C   0  0  0  0  0  0  0  0  0  0  0  0
    4.8959   19.5713   47.0717 C   0  0  0  0  0  0  0  0  0  0  0  0
    5.0802   19.4775   49.4597 C   0  0  0  0  0  0  0  0  0  0  0  0
    5.5011   17.4051   47.9801 C   0  0  0  0  0  0  0  0  0  0  0  0
    4.5928   20.9341   47.0947 C   0  0  0  0  0  0  0  0  0  0  0  0
    4.9000   19.0041   45.7733 O   0  0  0  0  0  0  0  0  0  0  0  0
    4.7660   20.8576   49.4752 C   0  0  0  0  0  0  0  0  0  0  0  0
    5.4847   16.8788   46.7513 C   0  0  0  0  0  0  0  0  0  0  0  0
    4.5302   21.5901   48.3098 C   0  0  0  0  0  0  0  0  0  0  0  0
    5.1430   17.6642   45.5645 C   0  0  0  0  0  0  0  0  0  0  0  0
    5.0991   17.1467   44.4535 O   0  0  0  0  0  0  0  0  0  0  0  0
    5.2529   19.0224   50.7381 O   0  0  0  0  0  0  0  0  0  0  0  0
    4.2723   18.2416   51.3887 C   0  0  0  0  0  0  0  0  0  0  0  0
    4.2480   22.9154   48.4881 O   0  0  0  0  0  0  0  0  0  0  0  0
    4.1236   23.3617   49.8358 C   0  0  0  0  0  0  0  0  0  0  0  0
  1  2  1  0  0  0
  1  3  2  0  0  0
  1  4  1  0  0  0
  2  5  2  0  0  0
  2  6  1  0  0  0
  3  7  1  0  0  0
  3 12  1  0  0  0
  4  8  2  0  0  0
  5  9  1  0  0  0
  6 10  1  0  0  0
  7  9  2  0  0  0
 12 13  1  0  0  0
  8 10  1  0  0  0
  9 14  1  0  0  0
 10 11  2  0  0  0
 14 15  1  0  0  0
M  END
> <minimizedAffinity>
-6.40581

$$$$
S5143 Citropten.cdx


 15 16  0  0  0  0  0  0  0  0999 V2000
    5.3440   22.5131   50.7213 C   0  0  0  0  0  0  0  0  0  0  0  0
    4.6299   22.8015   49.5433 C   0  0  0  0  0  0  0  0  0  0  0  0
    6.1762   21.3786   50.6964 C   0  0  0  0  0  0  0  0  0  0  0  0
    5.1136   23.4374   51.8337 C   0  0  0  0  0  0  0  0  0  0  0  0
    4.6852   22.0171   48.3895 C   0  0  0  0  0  0  0  0  0  0  0  0
    3.7948   23.9401   49.4261 O   0  0  0  0  0  0  0  0  0  0  0  0
    6.2319   20.5921   49.5208 C   0  0  0  0  0  0  0  0  0  0  0  0
    4.3362   24.5173   51.7041 C   0  0  0  0  0  0  0  0  0  0  0  0
    5.4922   20.8949   48.3756 C   0  0  0  0  0  0  0  0  0  0  0  0
    3.6495   24.8458   50.4540 C   0  0  0  0  0  0  0  0  0  0  0  0
    2.9725   25.8633   50.3517 O   0  0  0  0  0  0  0  0  0  0  0  0
    7.0036   20.8532   51.6506 O   0  0  0  0  0  0  0  0  0  0  0  0
    6.5219   19.9912   52.6603 C   0  0  0  0  0  0  0  0  0  0  0  0
    5.6457   20.0348   47.3247 O   0  0  0  0  0  0  0  0  0  0  0  0
    4.9488   20.3663   46.1266 C   0  0  0  0  0  0  0  0  0  0  0  0
  1  2  1  0  0  0
  1  3  2  0  0  0
  1  4  1  0  0  0
  2  5  2  0  0  0
  2  6  1  0  0  0
  3  7  1  0  0  0
  3 12  1  0  0  0
  4  8  2  0  0  0
  5  9  1  0  0  0
  6 10  1  0  0  0
  7  9  2  0  0  0
 12 13  1  0  0  0
  8 10  1  0  0  0
  9 14  1  0  0  0
 10 11  2  0  0  0
 14 15  1  0  0  0
M  END
> <minimizedAffinity>
-6.23356

$$$$
S5143 Citropten.cdx


 15 16  0  0  0  0  0  0  0  0999 V2000
    5.8320   22.3946   50.2542 C   0  0  0  0  0  0  0  0  0  0  0  0
    4.7271   23.0753   49.7097 C   0  0  0  0  0  0  0  0  0  0  0  0
    6.2678   22.8089   51.5264 C   0  0  0  0  0  0  0  0  0  0  0  0
    6.3953   21.3404   49.4080 C   0  0  0  0  0  0  0  0  0  0  0  0
    4.0776   24.1355   50.3450 C   0  0  0  0  0  0  0  0  0  0  0  0
    4.1649   22.7227   48.4578 O   0  0  0  0  0  0  0  0  0  0  0  0
    5.6002   23.8803   52.1669 C   0  0  0  0  0  0  0  0  0  0  0  0
    5.8446   21.0066   48.2363 C   0  0  0  0  0  0  0  0  0  0  0  0
    4.5195   24.5490   51.5878 C   0  0  0  0  0  0  0  0  0  0  0  0
    4.6550   21.6759   47.7081 C   0  0  0  0  0  0  0  0  0  0  0  0
    4.1485   21.3242   46.6481 O   0  0  0  0  0  0  0  0  0  0  0  0
    7.2774   22.3433   52.3234 O   0  0  0  0  0  0  0  0  0  0  0  0
    7.8790   23.1534   53.3115 C   0  0  0  0  0  0  0  0  0  0  0  0
    3.9870   25.5684   52.3262 O   0  0  0  0  0  0  0  0  0  0  0  0
    3.9291   26.8452   51.6957 C   0  0  0  0  0  0  0  0  0  0  0  0
  1  2  1  0  0  0
  1  3  2  0  0  0
  1  4  1  0  0  0
  2  5  2  0  0  0
  2  6  1  0  0  0
  3  7  1  0  0  0
  3 12  1  0  0  0
  4  8  2  0  0  0
  5  9  1  0  0  0
  6 10  1  0  0  0
  7  9  2  0  0  0
 12 13  1  0  0  0
  8 10  1  0  0  0
  9 14  1  0  0  0
 10 11  2  0  0  0
 14 15  1  0  0  0
M  END
> <minimizedAffinity>
-6.12404

$$$$
S5143 Citropten.cdx


 15 16  0  0  0  0  0  0  0  0999 V2000
    4.7226   17.6638   47.7031 C   0  0  0  0  0  0  0  0  0  0  0  0
    5.5999   18.2463   46.7694 C   0  0  0  0  0  0  0  0  0  0  0  0
    4.6622   18.2623   48.9753 C   0  0  0  0  0  0  0  0  0  0  0  0
    3.9891   16.4904   47.2236 C   0  0  0  0  0  0  0  0  0  0  0  0
    6.4143   19.3454   47.0492 C   0  0  0  0  0  0  0  0  0  0  0  0
    5.7176   17.7654   45.4418 O   0  0  0  0  0  0  0  0  0  0  0  0
    5.4862   19.3802   49.2492 C   0  0  0  0  0  0  0  0  0  0  0  0
    4.0969   16.0576   45.9633 C   0  0  0  0  0  0  0  0  0  0  0  0
    6.3627   19.9199   48.3053 C   0  0  0  0  0  0  0  0  0  0  0  0
    4.9621   16.7102   44.9796 C   0  0  0  0  0  0  0  0  0  0  0  0
    5.0133   16.3147   43.8199 O   0  0  0  0  0  0  0  0  0  0  0  0
    3.9067   17.9574   50.0741 O   0  0  0  0  0  0  0  0  0  0  0  0
    4.3564   18.2293   51.3849 C   0  0  0  0  0  0  0  0  0  0  0  0
    7.0983   20.9933   48.7233 O   0  0  0  0  0  0  0  0  0  0  0  0
    7.8469   20.8205   49.9237 C   0  0  0  0  0  0  0  0  0  0  0  0
  1  2  1  0  0  0
  1  3  2  0  0  0
  1  4  1  0  0  0
  2  5  2  0  0  0
  2  6  1  0  0  0
  3  7  1  0  0  0
  3 12  1  0  0  0
  4  8  2  0  0  0
  5  9  1  0  0  0
  6 10  1  0  0  0
  7  9  2  0  0  0
 12 13  1  0  0  0
  8 10  1  0  0  0
  9 14  1  0  0  0
 10 11  2  0  0  0
 14 15  1  0  0  0
M  END
> <minimizedAffinity>
-6.10471

$$$$
