1-EBIO


 13 14  0  0  0  0  0  0  0  0999 V2000
   41.4361   18.1012   31.7451 O   0  0  0  0  0  0  0  0  0  0  0  0
   43.5498   17.6109   32.4618 N   0  0  0  0  0  0  0  0  0  0  0  0
   43.0103   19.7187   32.3265 N   0  0  0  0  0  0  0  0  0  0  0  0
   44.6249   18.3585   32.8504 C   0  0  0  0  0  0  0  0  0  0  0  0
   44.2725   19.7070   32.7612 C   0  0  0  0  0  0  0  0  0  0  0  0
   42.5569   18.4641   32.1401 C   0  0  0  0  0  0  0  0  0  0  0  0
   45.8930   18.0012   33.2789 C   0  0  0  0  0  0  0  0  0  0  0  0
   45.2148   20.6721   33.1093 C   0  0  0  0  0  0  0  0  0  0  0  0
   46.8397   18.9632   33.6283 C   0  0  0  0  0  0  0  0  0  0  0  0
   46.4818   20.2984   33.5370 C   0  0  0  0  0  0  0  0  0  0  0  0
   42.4319   20.5530   32.1472 H   0  0  0  0  0  0  0  0  0  0  0  0
   43.5690   16.1663   32.4337 C   0  0  0  0  0  0  0  0  0  0  0  0
   43.0074   15.5938   33.7212 C   0  0  0  0  0  0  0  0  0  0  0  0
  1  6  2  0  0  0
  2  4  1  0  0  0
  2 12  1  0  0  0
  2  6  1  0  0  0
  3  5  1  0  0  0
  3  6  1  0  0  0
  4  5  2  0  0  0
  4  7  1  0  0  0
  5  8  1  0  0  0
 12 13  1  0  0  0
  7  9  2  0  0  0
  8 10  2  0  0  0
  9 10  1  0  0  0
  3 11  1  0  0  0
M  END
> <minimizedAffinity>
-6.65946

$$$$
1-EBIO


 13 14  0  0  0  0  0  0  0  0999 V2000
   40.4557    9.8096   36.1933 O   0  0  0  0  0  0  0  0  0  0  0  0
   41.5631    9.9942   34.2030 N   0  0  0  0  0  0  0  0  0  0  0  0
   41.8331   11.6076   35.6439 N   0  0  0  0  0  0  0  0  0  0  0  0
   42.4044   10.9230   33.6598 C   0  0  0  0  0  0  0  0  0  0  0  0
   42.5728   11.9533   34.5876 C   0  0  0  0  0  0  0  0  0  0  0  0
   41.2164   10.4291   35.4310 C   0  0  0  0  0  0  0  0  0  0  0  0
   43.0512   10.9809   32.4360 C   0  0  0  0  0  0  0  0  0  0  0  0
   43.3966   13.0269   34.2573 C   0  0  0  0  0  0  0  0  0  0  0  0
   43.8766   12.0532   32.1005 C   0  0  0  0  0  0  0  0  0  0  0  0
   44.0382   13.0708   33.0268 C   0  0  0  0  0  0  0  0  0  0  0  0
   41.7253   12.1435   36.5179 H   0  0  0  0  0  0  0  0  0  0  0  0
   41.1716    8.7897   33.5073 C   0  0  0  0  0  0  0  0  0  0  0  0
   42.0729    7.6301   33.8867 C   0  0  0  0  0  0  0  0  0  0  0  0
  1  6  2  0  0  0
  2  4  1  0  0  0
  2 12  1  0  0  0
  2  6  1  0  0  0
  3  5  1  0  0  0
  3  6  1  0  0  0
  4  5  2  0  0  0
  4  7  1  0  0  0
  5  8  1  0  0  0
 12 13  1  0  0  0
  7  9  2  0  0  0
  8 10  2  0  0  0
  9 10  1  0  0  0
  3 11  1  0  0  0
M  END
> <minimizedAffinity>
-5.46919

$$$$
1-EBIO


 13 14  0  0  0  0  0  0  0  0999 V2000
   43.0112   19.3935   32.4502 O   0  0  0  0  0  0  0  0  0  0  0  0
   44.2936   17.5026   32.4900 N   0  0  0  0  0  0  0  0  0  0  0  0
   42.1315   17.2390   32.5782 N   0  0  0  0  0  0  0  0  0  0  0  0
   44.0233   16.1655   32.5596 C   0  0  0  0  0  0  0  0  0  0  0  0
   42.6371   16.0040   32.6159 C   0  0  0  0  0  0  0  0  0  0  0  0
   43.1149   18.1564   32.5023 C   0  0  0  0  0  0  0  0  0  0  0  0
   44.8511   15.0548   32.5803 C   0  0  0  0  0  0  0  0  0  0  0  0
   42.1135   14.7155   32.6923 C   0  0  0  0  0  0  0  0  0  0  0  0
   44.3320   13.7631   32.6567 C   0  0  0  0  0  0  0  0  0  0  0  0
   42.9560   13.6120   32.7122 C   0  0  0  0  0  0  0  0  0  0  0  0
   41.1326   17.4929   32.6021 H   0  0  0  0  0  0  0  0  0  0  0  0
   45.6381   18.0275   32.4189 C   0  0  0  0  0  0  0  0  0  0  0  0
   45.9868   18.7915   33.6819 C   0  0  0  0  0  0  0  0  0  0  0  0
  1  6  2  0  0  0
  2  4  1  0  0  0
  2 12  1  0  0  0
  2  6  1  0  0  0
  3  5  1  0  0  0
  3  6  1  0  0  0
  4  5  2  0  0  0
  4  7  1  0  0  0
  5  8  1  0  0  0
 12 13  1  0  0  0
  7  9  2  0  0  0
  8 10  2  0  0  0
  9 10  1  0  0  0
  3 11  1  0  0  0
M  END
> <minimizedAffinity>
-5.35943

$$$$
1-EBIO


 13 14  0  0  0  0  0  0  0  0999 V2000
   42.5281   15.1653   33.9732 O   0  0  0  0  0  0  0  0  0  0  0  0
   43.0257   13.2057   32.9083 N   0  0  0  0  0  0  0  0  0  0  0  0
   41.8149   13.0745   34.7163 N   0  0  0  0  0  0  0  0  0  0  0  0
   42.7338   11.8915   33.1390 C   0  0  0  0  0  0  0  0  0  0  0  0
   41.9584   11.8147   34.2982 C   0  0  0  0  0  0  0  0  0  0  0  0
   42.4515   13.9279   33.8911 C   0  0  0  0  0  0  0  0  0  0  0  0
   43.0669   10.7359   32.4512 C   0  0  0  0  0  0  0  0  0  0  0  0
   41.5331   10.5642   34.7404 C   0  0  0  0  0  0  0  0  0  0  0  0
   42.6438    9.4819   32.8897 C   0  0  0  0  0  0  0  0  0  0  0  0
   41.8750    9.4150   34.0403 C   0  0  0  0  0  0  0  0  0  0  0  0
   41.2960   13.3877   35.5502 H   0  0  0  0  0  0  0  0  0  0  0  0
   43.8175   13.6465   31.7828 C   0  0  0  0  0  0  0  0  0  0  0  0
   45.2927   13.6661   32.1351 C   0  0  0  0  0  0  0  0  0  0  0  0
  1  6  2  0  0  0
  2  4  1  0  0  0
  2 12  1  0  0  0
  2  6  1  0  0  0
  3  5  1  0  0  0
  3  6  1  0  0  0
  4  5  2  0  0  0
  4  7  1  0  0  0
  5  8  1  0  0  0
 12 13  1  0  0  0
  7  9  2  0  0  0
  8 10  2  0  0  0
  9 10  1  0  0  0
  3 11  1  0  0  0
M  END
> <minimizedAffinity>
-5.12437

$$$$
1-EBIO


 13 14  0  0  0  0  0  0  0  0999 V2000
   40.3764   11.8156   33.5718 O   0  0  0  0  0  0  0  0  0  0  0  0
   42.1441   12.8369   32.5453 N   0  0  0  0  0  0  0  0  0  0  0  0
   41.2586   13.8624   34.2530 N   0  0  0  0  0  0  0  0  0  0  0  0
   42.8249   14.0031   32.7502 C   0  0  0  0  0  0  0  0  0  0  0  0
   42.2527   14.6547   33.8450 C   0  0  0  0  0  0  0  0  0  0  0  0
   41.1772   12.7612   33.4816 C   0  0  0  0  0  0  0  0  0  0  0  0
   43.8993   14.5749   32.0883 C   0  0  0  0  0  0  0  0  0  0  0  0
   42.7816   15.8778   34.2506 C   0  0  0  0  0  0  0  0  0  0  0  0
   44.4323   15.7989   32.4901 C   0  0  0  0  0  0  0  0  0  0  0  0
   43.8587   16.4383   33.5771 C   0  0  0  0  0  0  0  0  0  0  0  0
   40.6216   14.0372   35.0445 H   0  0  0  0  0  0  0  0  0  0  0  0
   42.4755   11.9119   31.4858 C   0  0  0  0  0  0  0  0  0  0  0  0
   43.2982   10.7539   32.0178 C   0  0  0  0  0  0  0  0  0  0  0  0
  1  6  2  0  0  0
  2  4  1  0  0  0
  2 12  1  0  0  0
  2  6  1  0  0  0
  3  5  1  0  0  0
  3  6  1  0  0  0
  4  5  2  0  0  0
  4  7  1  0  0  0
  5  8  1  0  0  0
 12 13  1  0  0  0
  7  9  2  0  0  0
  8 10  2  0  0  0
  9 10  1  0  0  0
  3 11  1  0  0  0
M  END
> <minimizedAffinity>
-4.74597

$$$$
