2-Methyltetrahydrofuran-3-one


  7  7  0  0  0  0  0  0  0  0999 V2000
   45.9604   18.0929   32.7288 C   0  0  0  0  0  0  0  0  0  0  0  0
   44.4978   18.1797   33.0541 C   0  0  0  0  0  0  0  0  0  0  0  0
   46.5149   19.4144   33.1973 C   0  0  0  0  0  0  0  0  0  0  0  0
   46.5370   17.1659   32.2104 O   0  0  0  0  0  0  0  0  0  0  0  0
   44.2374   19.4995   32.6707 O   0  0  0  0  0  0  0  0  0  0  0  0
   43.7063   17.1687   32.2688 C   0  0  0  0  0  0  0  0  0  0  0  0
   45.2334   20.2118   33.3340 C   0  0  0  0  0  0  0  0  0  0  0  0
  1  2  1  0  0  0
  1  3  1  0  0  0
  1  4  2  0  0  0
  2  5  1  0  0  0
  2  6  1  0  0  0
  3  7  1  0  0  0
  5  7  1  0  0  0
M  END
> <minimizedAffinity>
-4.58464

$$$$
2-Methyltetrahydrofuran-3-one


  7  7  0  0  0  0  0  0  0  0999 V2000
   44.0441   18.4172   32.7757 C   0  0  0  0  0  0  0  0  0  0  0  0
   45.3282   17.9877   33.4233 C   0  0  0  0  0  0  0  0  0  0  0  0
   43.3494   17.1189   32.4520 C   0  0  0  0  0  0  0  0  0  0  0  0
   43.6750   19.5499   32.5720 O   0  0  0  0  0  0  0  0  0  0  0  0
   45.6752   16.9146   32.5958 O   0  0  0  0  0  0  0  0  0  0  0  0
   46.3427   19.0993   33.4068 C   0  0  0  0  0  0  0  0  0  0  0  0
   44.5098   16.1524   32.5801 C   0  0  0  0  0  0  0  0  0  0  0  0
  1  2  1  0  0  0
  1  3  1  0  0  0
  1  4  2  0  0  0
  2  5  1  0  0  0
  2  6  1  0  0  0
  3  7  1  0  0  0
  5  7  1  0  0  0
M  END
> <minimizedAffinity>
-4.17852

$$$$
2-Methyltetrahydrofuran-3-one


  7  7  0  0  0  0  0  0  0  0999 V2000
   44.4355   19.4212   32.8027 C   0  0  0  0  0  0  0  0  0  0  0  0
   45.2193   18.1491   32.9437 C   0  0  0  0  0  0  0  0  0  0  0  0
   45.4418   20.5024   33.1053 C   0  0  0  0  0  0  0  0  0  0  0  0
   43.2672   19.5280   32.5124 O   0  0  0  0  0  0  0  0  0  0  0  0
   45.9678   18.4456   34.0876 O   0  0  0  0  0  0  0  0  0  0  0  0
   44.3062   16.9663   33.1247 C   0  0  0  0  0  0  0  0  0  0  0  0
   46.5266   19.6820   33.7741 C   0  0  0  0  0  0  0  0  0  0  0  0
  1  2  1  0  0  0
  1  3  1  0  0  0
  1  4  2  0  0  0
  2  5  1  0  0  0
  2  6  1  0  0  0
  3  7  1  0  0  0
  5  7  1  0  0  0
M  END
> <minimizedAffinity>
-4.12896

$$$$
2-Methyltetrahydrofuran-3-one


  7  7  0  0  0  0  0  0  0  0999 V2000
   43.5029   16.4874   33.4860 C   0  0  0  0  0  0  0  0  0  0  0  0
   44.6290   17.0519   32.6699 C   0  0  0  0  0  0  0  0  0  0  0  0
   42.6093   15.8302   32.4649 C   0  0  0  0  0  0  0  0  0  0  0  0
   43.3666   16.5572   34.6848 O   0  0  0  0  0  0  0  0  0  0  0  0
   43.9142   17.5578   31.5791 O   0  0  0  0  0  0  0  0  0  0  0  0
   45.3731   18.1143   33.4334 C   0  0  0  0  0  0  0  0  0  0  0  0
   43.1339   16.4701   31.1951 C   0  0  0  0  0  0  0  0  0  0  0  0
  1  2  1  0  0  0
  1  3  1  0  0  0
  1  4  2  0  0  0
  2  5  1  0  0  0
  2  6  1  0  0  0
  3  7  1  0  0  0
  5  7  1  0  0  0
M  END
> <minimizedAffinity>
-3.82499

$$$$
2-Methyltetrahydrofuran-3-one


  7  7  0  0  0  0  0  0  0  0999 V2000
   44.5714   15.4834   32.7397 C   0  0  0  0  0  0  0  0  0  0  0  0
   44.1542   16.8888   33.0611 C   0  0  0  0  0  0  0  0  0  0  0  0
   43.4049   14.6453   33.1978 C   0  0  0  0  0  0  0  0  0  0  0  0
   45.6091   15.1306   32.2306 O   0  0  0  0  0  0  0  0  0  0  0  0
   43.5716   16.6923   34.3175 O   0  0  0  0  0  0  0  0  0  0  0  0
   45.3419   17.8125   33.0980 C   0  0  0  0  0  0  0  0  0  0  0  0
   42.6855   15.6441   34.0821 C   0  0  0  0  0  0  0  0  0  0  0  0
  1  2  1  0  0  0
  1  3  1  0  0  0
  1  4  2  0  0  0
  2  5  1  0  0  0
  2  6  1  0  0  0
  3  7  1  0  0  0
  5  7  1  0  0  0
M  END
> <minimizedAffinity>
-3.81830

$$$$
