3-Hydroxybutyric acid


  9  8  0  0  0  0  0  0  0  0999 V2000
   45.7646   18.8302   33.6244 C   0  0  0  0  0  0  0  0  0  0  0  0
   45.1003   19.9377   32.8643 C   0  0  0  0  0  0  0  0  0  0  0  0
   45.8756   20.8043   32.3094 O   0  0  0  0  0  0  0  0  0  0  0  0
   43.7322   20.0462   32.7512 O   0  0  0  0  0  0  0  0  0  0  0  0
   43.2976   20.9302   32.5040 H   0  0  0  0  0  0  0  0  0  0  0  0
   45.5983   17.5962   32.7961 C   0  0  0  0  0  0  0  0  0  0  0  0
   44.4214   16.7643   33.1850 C   0  0  0  0  0  0  0  0  0  0  0  0
   45.4566   18.0132   31.4748 O   0  0  0  0  0  0  0  0  0  0  0  0
   44.7474   18.7083   31.4200 H   0  0  0  0  0  0  0  0  0  0  0  0
  2  1  1  0  0  0
  2  3  2  0  0  0
  2  4  1  0  0  0
  1  6  1  0  0  0
  6  7  1  0  0  0
  6  8  1  0  0  0
  4  5  1  0  0  0
  8  9  1  0  0  0
M  END
> <minimizedAffinity>
-4.70541

$$$$
3-Hydroxybutyric acid


  9  8  0  0  0  0  0  0  0  0999 V2000
   44.2909   17.3371   33.2283 C   0  0  0  0  0  0  0  0  0  0  0  0
   43.1992   17.4944   32.2138 C   0  0  0  0  0  0  0  0  0  0  0  0
   43.5413   17.3928   30.9757 O   0  0  0  0  0  0  0  0  0  0  0  0
   41.8893   17.7371   32.5620 O   0  0  0  0  0  0  0  0  0  0  0  0
   41.2355   18.1303   31.8916 H   0  0  0  0  0  0  0  0  0  0  0  0
   45.4643   18.1001   32.7015 C   0  0  0  0  0  0  0  0  0  0  0  0
   46.1207   18.9731   33.7190 C   0  0  0  0  0  0  0  0  0  0  0  0
   46.3802   17.1603   32.2349 O   0  0  0  0  0  0  0  0  0  0  0  0
   46.5476   16.4804   32.9412 H   0  0  0  0  0  0  0  0  0  0  0  0
  2  1  1  0  0  0
  2  3  2  0  0  0
  2  4  1  0  0  0
  1  6  1  0  0  0
  6  7  1  0  0  0
  6  8  1  0  0  0
  4  5  1  0  0  0
  8  9  1  0  0  0
M  END
> <minimizedAffinity>
-4.50124

$$$$
3-Hydroxybutyric acid


  9  8  0  0  0  0  0  0  0  0999 V2000
   43.7669   16.5684   32.9139 C   0  0  0  0  0  0  0  0  0  0  0  0
   43.0156   17.8282   32.6070 C   0  0  0  0  0  0  0  0  0  0  0  0
   43.7172   18.8989   32.4610 O   0  0  0  0  0  0  0  0  0  0  0  0
   41.6446   17.8655   32.4836 O   0  0  0  0  0  0  0  0  0  0  0  0
   41.1362   18.7400   32.5747 H   0  0  0  0  0  0  0  0  0  0  0  0
   42.7560   15.5932   33.4273 C   0  0  0  0  0  0  0  0  0  0  0  0
   43.2980   14.2181   33.6358 C   0  0  0  0  0  0  0  0  0  0  0  0
   42.2880   16.0971   34.6385 O   0  0  0  0  0  0  0  0  0  0  0  0
   43.0591   16.3192   35.2260 H   0  0  0  0  0  0  0  0  0  0  0  0
  2  1  1  0  0  0
  2  3  2  0  0  0
  2  4  1  0  0  0
  1  6  1  0  0  0
  6  7  1  0  0  0
  6  8  1  0  0  0
  4  5  1  0  0  0
  8  9  1  0  0  0
M  END
> <minimizedAffinity>
-3.99438

$$$$
3-Hydroxybutyric acid


  9  8  0  0  0  0  0  0  0  0999 V2000
   42.8142   11.2747   34.4448 C   0  0  0  0  0  0  0  0  0  0  0  0
   42.2921   11.0580   35.8327 C   0  0  0  0  0  0  0  0  0  0  0  0
   41.1751   10.4245   35.9379 O   0  0  0  0  0  0  0  0  0  0  0  0
   42.9537   11.5048   36.9546 O   0  0  0  0  0  0  0  0  0  0  0  0
   42.4650   11.6193   37.8375 H   0  0  0  0  0  0  0  0  0  0  0  0
   42.7750   12.7509   34.2091 C   0  0  0  0  0  0  0  0  0  0  0  0
   42.7967   13.1309   32.7657 C   0  0  0  0  0  0  0  0  0  0  0  0
   41.6033   13.2224   34.7963 O   0  0  0  0  0  0  0  0  0  0  0  0
   40.8317   12.6809   34.4794 H   0  0  0  0  0  0  0  0  0  0  0  0
  2  1  1  0  0  0
  2  3  2  0  0  0
  2  4  1  0  0  0
  1  6  1  0  0  0
  6  7  1  0  0  0
  6  8  1  0  0  0
  4  5  1  0  0  0
  8  9  1  0  0  0
M  END
> <minimizedAffinity>
-3.88339

$$$$
3-Hydroxybutyric acid


  9  8  0  0  0  0  0  0  0  0999 V2000
   42.9601   12.1083   34.7004 C   0  0  0  0  0  0  0  0  0  0  0  0
   41.9801   12.9804   33.9759 C   0  0  0  0  0  0  0  0  0  0  0  0
   41.8174   12.7472   32.7193 O   0  0  0  0  0  0  0  0  0  0  0  0
   41.2777   13.9874   34.5993 O   0  0  0  0  0  0  0  0  0  0  0  0
   40.8605   14.7420   34.0627 H   0  0  0  0  0  0  0  0  0  0  0  0
   42.1921   11.4335   35.7918 C   0  0  0  0  0  0  0  0  0  0  0  0
   41.8626   10.0065   35.5025 C   0  0  0  0  0  0  0  0  0  0  0  0
   42.9757   11.5059   36.9410 O   0  0  0  0  0  0  0  0  0  0  0  0
   43.8904   11.1706   36.7410 H   0  0  0  0  0  0  0  0  0  0  0  0
  2  1  1  0  0  0
  2  3  2  0  0  0
  2  4  1  0  0  0
  1  6  1  0  0  0
  6  7  1  0  0  0
  6  8  1  0  0  0
  4  5  1  0  0  0
  8  9  1  0  0  0
M  END
> <minimizedAffinity>
-3.75578

$$$$
