3-Methoxyflavone


 19 21  0  0  0  0  0  0  0  0999 V2000
   41.9805   18.4129   31.1108 O   0  0  0  0  0  0  0  0  0  0  0  0
   43.5985   15.5163   32.4098 C   0  0  0  0  0  0  0  0  0  0  0  0
   42.7022   16.3035   31.7397 C   0  0  0  0  0  0  0  0  0  0  0  0
   44.5738   16.1343   33.0440 O   0  0  0  0  0  0  0  0  0  0  0  0
   42.7952   17.7049   31.7172 C   0  0  0  0  0  0  0  0  0  0  0  0
   44.7010   17.4316   33.0503 C   0  0  0  0  0  0  0  0  0  0  0  0
   43.8341   18.2862   32.3988 C   0  0  0  0  0  0  0  0  0  0  0  0
   45.7616   17.9713   33.7484 C   0  0  0  0  0  0  0  0  0  0  0  0
   44.0320   19.6451   32.4504 C   0  0  0  0  0  0  0  0  0  0  0  0
   45.9710   19.3347   33.8077 C   0  0  0  0  0  0  0  0  0  0  0  0
   45.0968   20.1990   33.1505 C   0  0  0  0  0  0  0  0  0  0  0  0
   43.5716   14.0742   32.4839 C   0  0  0  0  0  0  0  0  0  0  0  0
   43.0879   13.3177   33.5150 C   0  0  0  0  0  0  0  0  0  0  0  0
   44.0538   13.3482   31.3855 C   0  0  0  0  0  0  0  0  0  0  0  0
   43.0692   11.9175   33.4858 C   0  0  0  0  0  0  0  0  0  0  0  0
   44.0393   11.9750   31.3494 C   0  0  0  0  0  0  0  0  0  0  0  0
   43.5490   11.2287   32.3931 C   0  0  0  0  0  0  0  0  0  0  0  0
   41.6389   15.7840   31.0259 O   0  0  0  0  0  0  0  0  0  0  0  0
   41.8727   15.4963   29.6335 C   0  0  0  0  0  0  0  0  0  0  0  0
 18 19  1  0  0  0
 18  3  1  0  0  0
  1  5  2  0  0  0
  2  3  2  0  0  0
  2  4  1  0  0  0
  2 12  1  0  0  0
  3  5  1  0  0  0
  4  6  1  0  0  0
  5  7  1  0  0  0
  6  7  2  0  0  0
  6  8  1  0  0  0
  7  9  1  0  0  0
  8 10  2  0  0  0
  9 11  2  0  0  0
 10 11  1  0  0  0
 12 13  2  0  0  0
 12 14  1  0  0  0
 13 15  1  0  0  0
 14 16  2  0  0  0
 15 17  2  0  0  0
 16 17  1  0  0  0
M  END
> <minimizedAffinity>
-7.27328

$$$$
3-Methoxyflavone


 19 21  0  0  0  0  0  0  0  0999 V2000
   41.0678   14.7914   30.3078 O   0  0  0  0  0  0  0  0  0  0  0  0
   43.5274   16.4005   32.3219 C   0  0  0  0  0  0  0  0  0  0  0  0
   42.5736   16.2016   31.3614 C   0  0  0  0  0  0  0  0  0  0  0  0
   43.8229   15.3703   33.0878 O   0  0  0  0  0  0  0  0  0  0  0  0
   41.9290   14.9669   31.1797 C   0  0  0  0  0  0  0  0  0  0  0  0
   43.2507   14.2064   32.9570 C   0  0  0  0  0  0  0  0  0  0  0  0
   42.2835   13.9340   32.0101 C   0  0  0  0  0  0  0  0  0  0  0  0
   43.6386   13.1980   33.8151 C   0  0  0  0  0  0  0  0  0  0  0  0
   41.7246   12.6811   31.9316 C   0  0  0  0  0  0  0  0  0  0  0  0
   43.0846   11.9352   33.7461 C   0  0  0  0  0  0  0  0  0  0  0  0
   42.1080   11.6585   32.7906 C   0  0  0  0  0  0  0  0  0  0  0  0
   44.2365   17.6339   32.5707 C   0  0  0  0  0  0  0  0  0  0  0  0
   43.7049   18.8935   32.5863 C   0  0  0  0  0  0  0  0  0  0  0  0
   45.6060   17.5600   32.8626 C   0  0  0  0  0  0  0  0  0  0  0  0
   44.4643   20.0347   32.8734 C   0  0  0  0  0  0  0  0  0  0  0  0
   46.3577   18.6746   33.1448 C   0  0  0  0  0  0  0  0  0  0  0  0
   45.8088   19.9337   33.1576 C   0  0  0  0  0  0  0  0  0  0  0  0
   42.1626   17.1997   30.4983 O   0  0  0  0  0  0  0  0  0  0  0  0
   42.7264   17.1818   29.1724 C   0  0  0  0  0  0  0  0  0  0  0  0
 18 19  1  0  0  0
 18  3  1  0  0  0
  1  5  2  0  0  0
  2  3  2  0  0  0
  2  4  1  0  0  0
  2 12  1  0  0  0
  3  5  1  0  0  0
  4  6  1  0  0  0
  5  7  1  0  0  0
  6  7  2  0  0  0
  6  8  1  0  0  0
  7  9  1  0  0  0
  8 10  2  0  0  0
  9 11  2  0  0  0
 10 11  1  0  0  0
 12 13  2  0  0  0
 12 14  1  0  0  0
 13 15  1  0  0  0
 14 16  2  0  0  0
 15 17  2  0  0  0
 16 17  1  0  0  0
M  END
> <minimizedAffinity>
-7.15249

$$$$
3-Methoxyflavone


 19 21  0  0  0  0  0  0  0  0999 V2000
   43.6667   11.2389   30.5398 O   0  0  0  0  0  0  0  0  0  0  0  0
   43.3140   14.2254   32.4509 C   0  0  0  0  0  0  0  0  0  0  0  0
   43.5841   13.3864   31.4044 C   0  0  0  0  0  0  0  0  0  0  0  0
   42.8817   13.6674   33.5631 O   0  0  0  0  0  0  0  0  0  0  0  0
   43.4191   11.9941   31.4891 C   0  0  0  0  0  0  0  0  0  0  0  0
   42.7124   12.3809   33.6879 C   0  0  0  0  0  0  0  0  0  0  0  0
   42.9665   11.4765   32.6762 C   0  0  0  0  0  0  0  0  0  0  0  0
   42.2546   11.9062   34.8998 C   0  0  0  0  0  0  0  0  0  0  0  0
   42.7645   10.1328   32.8816 C   0  0  0  0  0  0  0  0  0  0  0  0
   42.0478   10.5587   35.1184 C   0  0  0  0  0  0  0  0  0  0  0  0
   42.3039    9.6441   34.0980 C   0  0  0  0  0  0  0  0  0  0  0  0
   43.4594   15.6623   32.4456 C   0  0  0  0  0  0  0  0  0  0  0  0
   42.5183   16.5776   32.0635 C   0  0  0  0  0  0  0  0  0  0  0  0
   44.6675   16.2047   32.9064 C   0  0  0  0  0  0  0  0  0  0  0  0
   42.7346   17.9600   32.1252 C   0  0  0  0  0  0  0  0  0  0  0  0
   44.8875   17.5592   32.9696 C   0  0  0  0  0  0  0  0  0  0  0  0
   43.9315   18.4665   32.5829 C   0  0  0  0  0  0  0  0  0  0  0  0
   44.0335   13.8409   30.1790 O   0  0  0  0  0  0  0  0  0  0  0  0
   43.0279   14.1474   29.1937 C   0  0  0  0  0  0  0  0  0  0  0  0
 18 19  1  0  0  0
 18  3  1  0  0  0
  1  5  2  0  0  0
  2  3  2  0  0  0
  2  4  1  0  0  0
  2 12  1  0  0  0
  3  5  1  0  0  0
  4  6  1  0  0  0
  5  7  1  0  0  0
  6  7  2  0  0  0
  6  8  1  0  0  0
  7  9  1  0  0  0
  8 10  2  0  0  0
  9 11  2  0  0  0
 10 11  1  0  0  0
 12 13  2  0  0  0
 12 14  1  0  0  0
 13 15  1  0  0  0
 14 16  2  0  0  0
 15 17  2  0  0  0
 16 17  1  0  0  0
M  END
> <minimizedAffinity>
-6.72303

$$$$
3-Methoxyflavone


 19 21  0  0  0  0  0  0  0  0999 V2000
   42.8199    8.6772   31.6356 O   0  0  0  0  0  0  0  0  0  0  0  0
   42.9849   11.7914   33.3590 C   0  0  0  0  0  0  0  0  0  0  0  0
   43.0920   10.8597   32.3628 C   0  0  0  0  0  0  0  0  0  0  0  0
   42.5065   11.3744   34.5133 O   0  0  0  0  0  0  0  0  0  0  0  0
   42.7193    9.5170   32.5397 C   0  0  0  0  0  0  0  0  0  0  0  0
   42.1469   10.1392   34.7236 C   0  0  0  0  0  0  0  0  0  0  0  0
   42.2293    9.1474   33.7666 C   0  0  0  0  0  0  0  0  0  0  0  0
   41.6591    9.8141   35.9725 C   0  0  0  0  0  0  0  0  0  0  0  0
   41.8311    7.8656   34.0616 C   0  0  0  0  0  0  0  0  0  0  0  0
   41.2560    8.5301   36.2811 C   0  0  0  0  0  0  0  0  0  0  0  0
   41.3385    7.5275   35.3160 C   0  0  0  0  0  0  0  0  0  0  0  0
   43.3475   13.1858   33.2589 C   0  0  0  0  0  0  0  0  0  0  0  0
   44.4170   13.7058   32.5842 C   0  0  0  0  0  0  0  0  0  0  0  0
   42.5167   14.1296   33.8795 C   0  0  0  0  0  0  0  0  0  0  0  0
   44.6729   15.0808   32.5106 C   0  0  0  0  0  0  0  0  0  0  0  0
   42.7610   15.4797   33.8123 C   0  0  0  0  0  0  0  0  0  0  0  0
   43.8395   15.9870   33.1295 C   0  0  0  0  0  0  0  0  0  0  0  0
   43.5680   11.1652   31.1018 O   0  0  0  0  0  0  0  0  0  0  0  0
   42.5975   11.6074   30.1331 C   0  0  0  0  0  0  0  0  0  0  0  0
 18 19  1  0  0  0
 18  3  1  0  0  0
  1  5  2  0  0  0
  2  3  2  0  0  0
  2  4  1  0  0  0
  2 12  1  0  0  0
  3  5  1  0  0  0
  4  6  1  0  0  0
  5  7  1  0  0  0
  6  7  2  0  0  0
  6  8  1  0  0  0
  7  9  1  0  0  0
  8 10  2  0  0  0
  9 11  2  0  0  0
 10 11  1  0  0  0
 12 13  2  0  0  0
 12 14  1  0  0  0
 13 15  1  0  0  0
 14 16  2  0  0  0
 15 17  2  0  0  0
 16 17  1  0  0  0
M  END
> <minimizedAffinity>
-6.65519

$$$$
3-Methoxyflavone


 19 21  0  0  0  0  0  0  0  0999 V2000
   39.6705   13.5132   32.3947 O   0  0  0  0  0  0  0  0  0  0  0  0
   41.7896   10.8429   33.4317 C   0  0  0  0  0  0  0  0  0  0  0  0
   40.6599   11.5438   33.1080 C   0  0  0  0  0  0  0  0  0  0  0  0
   42.9361   11.4830   33.3269 O   0  0  0  0  0  0  0  0  0  0  0  0
   40.6958   12.8827   32.6848 C   0  0  0  0  0  0  0  0  0  0  0  0
   43.0185   12.7244   32.9377 C   0  0  0  0  0  0  0  0  0  0  0  0
   41.9220   13.4916   32.5979 C   0  0  0  0  0  0  0  0  0  0  0  0
   44.2728   13.2945   32.8646 C   0  0  0  0  0  0  0  0  0  0  0  0
   42.0868   14.7954   32.1962 C   0  0  0  0  0  0  0  0  0  0  0  0
   44.4512   14.6033   32.4627 C   0  0  0  0  0  0  0  0  0  0  0  0
   43.3452   15.3793   32.1192 C   0  0  0  0  0  0  0  0  0  0  0  0
   41.8376    9.4696   33.8761 C   0  0  0  0  0  0  0  0  0  0  0  0
   41.4893    8.9976   35.1112 C   0  0  0  0  0  0  0  0  0  0  0  0
   42.2478    8.4930   32.9574 C   0  0  0  0  0  0  0  0  0  0  0  0
   41.5339    7.6380   35.4448 C   0  0  0  0  0  0  0  0  0  0  0  0
   42.2946    7.1578   33.2770 C   0  0  0  0  0  0  0  0  0  0  0  0
   41.9405    6.6988   34.5222 C   0  0  0  0  0  0  0  0  0  0  0  0
   39.3950   10.9899   33.1641 O   0  0  0  0  0  0  0  0  0  0  0  0
   38.9160   10.3473   31.9667 C   0  0  0  0  0  0  0  0  0  0  0  0
 18 19  1  0  0  0
 18  3  1  0  0  0
  1  5  2  0  0  0
  2  3  2  0  0  0
  2  4  1  0  0  0
  2 12  1  0  0  0
  3  5  1  0  0  0
  4  6  1  0  0  0
  5  7  1  0  0  0
  6  7  2  0  0  0
  6  8  1  0  0  0
  7  9  1  0  0  0
  8 10  2  0  0  0
  9 11  2  0  0  0
 10 11  1  0  0  0
 12 13  2  0  0  0
 12 14  1  0  0  0
 13 15  1  0  0  0
 14 16  2  0  0  0
 15 17  2  0  0  0
 16 17  1  0  0  0
M  END
> <minimizedAffinity>
-6.65448

$$$$
