7-Methoxyflavone


 19 21  0  0  0  0  0  0  0  0999 V2000
   41.4945   15.7225   29.9531 O   0  0  0  0  0  0  0  0  0  0  0  0
   42.3540   14.6241   31.7706 C   0  0  0  0  0  0  0  0  0  0  0  0
   43.1980   14.7235   32.8559 C   0  0  0  0  0  0  0  0  0  0  0  0
   42.2449   15.7356   30.9627 C   0  0  0  0  0  0  0  0  0  0  0  0
   41.6515   13.4723   31.5022 C   0  0  0  0  0  0  0  0  0  0  0  0
   43.8752   15.8046   33.1321 O   0  0  0  0  0  0  0  0  0  0  0  0
   43.3242   13.6200   33.6825 C   0  0  0  0  0  0  0  0  0  0  0  0
   42.9824   16.8509   31.3002 C   0  0  0  0  0  0  0  0  0  0  0  0
   41.8088   12.3980   32.3535 C   0  0  0  0  0  0  0  0  0  0  0  0
   43.8161   16.9094   32.3960 C   0  0  0  0  0  0  0  0  0  0  0  0
   42.6404   12.4441   33.4537 C   0  0  0  0  0  0  0  0  0  0  0  0
   44.5950   18.0872   32.7524 C   0  0  0  0  0  0  0  0  0  0  0  0
   44.0990   19.3703   32.7186 C   0  0  0  0  0  0  0  0  0  0  0  0
   45.9003   17.9228   33.1467 C   0  0  0  0  0  0  0  0  0  0  0  0
   44.8782   20.4543   33.0663 C   0  0  0  0  0  0  0  0  0  0  0  0
   46.6890   19.0096   33.4978 C   0  0  0  0  0  0  0  0  0  0  0  0
   46.1919   20.2997   33.4642 C   0  0  0  0  0  0  0  0  0  0  0  0
   42.7288   11.3241   34.2387 O   0  0  0  0  0  0  0  0  0  0  0  0
   42.4796   11.2837   35.6246 C   0  0  0  0  0  0  0  0  0  0  0  0
  1  4  2  0  0  0
 18 19  1  0  0  0
 18 11  1  0  0  0
  2  3  2  0  0  0
  2  4  1  0  0  0
  2  5  1  0  0  0
  3  6  1  0  0  0
  3  7  1  0  0  0
  4  8  1  0  0  0
  5  9  2  0  0  0
  6 10  1  0  0  0
  7 11  2  0  0  0
  8 10  2  0  0  0
  9 11  1  0  0  0
 10 12  1  0  0  0
 12 13  2  0  0  0
 12 14  1  0  0  0
 13 15  1  0  0  0
 14 16  2  0  0  0
 15 17  2  0  0  0
 16 17  1  0  0  0
M  END
> <minimizedAffinity>
-7.34884

$$$$
7-Methoxyflavone


 19 21  0  0  0  0  0  0  0  0999 V2000
   41.6318   14.0489   34.3112 O   0  0  0  0  0  0  0  0  0  0  0  0
   43.1953   13.6062   32.6963 C   0  0  0  0  0  0  0  0  0  0  0  0
   44.2289   14.1306   31.9502 C   0  0  0  0  0  0  0  0  0  0  0  0
   42.5829   14.4539   33.5942 C   0  0  0  0  0  0  0  0  0  0  0  0
   42.7903   12.2991   32.5552 C   0  0  0  0  0  0  0  0  0  0  0  0
   44.6318   15.3667   32.0654 O   0  0  0  0  0  0  0  0  0  0  0  0
   44.8600   13.2983   31.0413 C   0  0  0  0  0  0  0  0  0  0  0  0
   43.0479   15.7497   33.6755 C   0  0  0  0  0  0  0  0  0  0  0  0
   43.4485   11.5069   31.6371 C   0  0  0  0  0  0  0  0  0  0  0  0
   44.0860   16.2353   32.9101 C   0  0  0  0  0  0  0  0  0  0  0  0
   44.4891   11.9815   30.8650 C   0  0  0  0  0  0  0  0  0  0  0  0
   44.5771   17.6036   32.9958 C   0  0  0  0  0  0  0  0  0  0  0  0
   45.8449   17.9357   33.4154 C   0  0  0  0  0  0  0  0  0  0  0  0
   43.7380   18.6312   32.6406 C   0  0  0  0  0  0  0  0  0  0  0  0
   46.2630   19.2487   33.4791 C   0  0  0  0  0  0  0  0  0  0  0  0
   44.1531   19.9543   32.7026 C   0  0  0  0  0  0  0  0  0  0  0  0
   45.4269   20.2894   33.1242 C   0  0  0  0  0  0  0  0  0  0  0  0
   45.0789   11.1159   29.9810 O   0  0  0  0  0  0  0  0  0  0  0  0
   46.2005   11.4125   29.1819 C   0  0  0  0  0  0  0  0  0  0  0  0
  1  4  2  0  0  0
 18 19  1  0  0  0
 18 11  1  0  0  0
  2  3  2  0  0  0
  2  4  1  0  0  0
  2  5  1  0  0  0
  3  6  1  0  0  0
  3  7  1  0  0  0
  4  8  1  0  0  0
  5  9  2  0  0  0
  6 10  1  0  0  0
  7 11  2  0  0  0
  8 10  2  0  0  0
  9 11  1  0  0  0
 10 12  1  0  0  0
 12 13  2  0  0  0
 12 14  1  0  0  0
 13 15  1  0  0  0
 14 16  2  0  0  0
 15 17  2  0  0  0
 16 17  1  0  0  0
M  END
> <minimizedAffinity>
-7.27698

$$$$
7-Methoxyflavone


 19 21  0  0  0  0  0  0  0  0999 V2000
   44.5702   11.6370   30.7338 O   0  0  0  0  0  0  0  0  0  0  0  0
   43.2399   11.7479   32.5957 C   0  0  0  0  0  0  0  0  0  0  0  0
   42.6485   12.5894   33.5134 C   0  0  0  0  0  0  0  0  0  0  0  0
   43.9987   12.3384   31.6080 C   0  0  0  0  0  0  0  0  0  0  0  0
   43.0833   10.3827   32.6582 C   0  0  0  0  0  0  0  0  0  0  0  0
   42.7817   13.8872   33.4757 O   0  0  0  0  0  0  0  0  0  0  0  0
   41.8811   12.0197   34.5152 C   0  0  0  0  0  0  0  0  0  0  0  0
   44.1062   13.7132   31.6148 C   0  0  0  0  0  0  0  0  0  0  0  0
   42.3096    9.8599   33.6740 C   0  0  0  0  0  0  0  0  0  0  0  0
   43.4978   14.5197   32.5521 C   0  0  0  0  0  0  0  0  0  0  0  0
   41.6954   10.6568   34.6184 C   0  0  0  0  0  0  0  0  0  0  0  0
   43.6113   15.9716   32.5595 C   0  0  0  0  0  0  0  0  0  0  0  0
   44.7335   16.6483   32.9795 C   0  0  0  0  0  0  0  0  0  0  0  0
   42.5453   16.7208   32.1251 C   0  0  0  0  0  0  0  0  0  0  0  0
   44.7917   18.0264   32.9671 C   0  0  0  0  0  0  0  0  0  0  0  0
   42.5981   18.1077   32.1103 C   0  0  0  0  0  0  0  0  0  0  0  0
   43.7252   18.7891   32.5322 C   0  0  0  0  0  0  0  0  0  0  0  0
   40.9473   10.0419   35.5884 O   0  0  0  0  0  0  0  0  0  0  0  0
   41.2589    8.8077   36.1918 C   0  0  0  0  0  0  0  0  0  0  0  0
  1  4  2  0  0  0
 18 19  1  0  0  0
 18 11  1  0  0  0
  2  3  2  0  0  0
  2  4  1  0  0  0
  2  5  1  0  0  0
  3  6  1  0  0  0
  3  7  1  0  0  0
  4  8  1  0  0  0
  5  9  2  0  0  0
  6 10  1  0  0  0
  7 11  2  0  0  0
  8 10  2  0  0  0
  9 11  1  0  0  0
 10 12  1  0  0  0
 12 13  2  0  0  0
 12 14  1  0  0  0
 13 15  1  0  0  0
 14 16  2  0  0  0
 15 17  2  0  0  0
 16 17  1  0  0  0
M  END
> <minimizedAffinity>
-6.96131

$$$$
7-Methoxyflavone


 19 21  0  0  0  0  0  0  0  0999 V2000
   41.1543   14.7283   30.1123 O   0  0  0  0  0  0  0  0  0  0  0  0
   42.5391   15.4834   31.7738 C   0  0  0  0  0  0  0  0  0  0  0  0
   43.1555   15.1622   32.9641 C   0  0  0  0  0  0  0  0  0  0  0  0
   41.7499   14.5106   31.1988 C   0  0  0  0  0  0  0  0  0  0  0  0
   42.7008   16.7154   31.1834 C   0  0  0  0  0  0  0  0  0  0  0  0
   43.0181   14.0011   33.5442 O   0  0  0  0  0  0  0  0  0  0  0  0
   43.9537   16.1233   33.5611 C   0  0  0  0  0  0  0  0  0  0  0  0
   41.6393   13.3020   31.8537 C   0  0  0  0  0  0  0  0  0  0  0  0
   43.5056   17.6415   31.8146 C   0  0  0  0  0  0  0  0  0  0  0  0
   42.2733   13.0206   33.0444 C   0  0  0  0  0  0  0  0  0  0  0  0
   44.1457   17.3717   33.0070 C   0  0  0  0  0  0  0  0  0  0  0  0
   42.1565   11.7443   33.7361 C   0  0  0  0  0  0  0  0  0  0  0  0
   41.9793   11.6252   35.0955 C   0  0  0  0  0  0  0  0  0  0  0  0
   42.2253   10.5853   33.0024 C   0  0  0  0  0  0  0  0  0  0  0  0
   41.8741   10.3917   35.7040 C   0  0  0  0  0  0  0  0  0  0  0  0
   42.1201    9.3414   33.6091 C   0  0  0  0  0  0  0  0  0  0  0  0
   41.9420    9.2202   34.9752 C   0  0  0  0  0  0  0  0  0  0  0  0
   44.9237   18.3580   33.5551 O   0  0  0  0  0  0  0  0  0  0  0  0
   46.1218   18.8483   32.9993 C   0  0  0  0  0  0  0  0  0  0  0  0
  1  4  2  0  0  0
 18 19  1  0  0  0
 18 11  1  0  0  0
  2  3  2  0  0  0
  2  4  1  0  0  0
  2  5  1  0  0  0
  3  6  1  0  0  0
  3  7  1  0  0  0
  4  8  1  0  0  0
  5  9  2  0  0  0
  6 10  1  0  0  0
  7 11  2  0  0  0
  8 10  2  0  0  0
  9 11  1  0  0  0
 10 12  1  0  0  0
 12 13  2  0  0  0
 12 14  1  0  0  0
 13 15  1  0  0  0
 14 16  2  0  0  0
 15 17  2  0  0  0
 16 17  1  0  0  0
M  END
> <minimizedAffinity>
-6.95252

$$$$
7-Methoxyflavone


 19 21  0  0  0  0  0  0  0  0999 V2000
   43.0459   16.3170   34.6592 O   0  0  0  0  0  0  0  0  0  0  0  0
   42.7132   15.9412   32.4238 C   0  0  0  0  0  0  0  0  0  0  0  0
   42.5045   14.9798   31.4584 C   0  0  0  0  0  0  0  0  0  0  0  0
   42.8528   15.5000   33.7222 C   0  0  0  0  0  0  0  0  0  0  0  0
   42.7797   17.2793   32.1115 C   0  0  0  0  0  0  0  0  0  0  0  0
   42.4375   13.7047   31.7290 O   0  0  0  0  0  0  0  0  0  0  0  0
   42.3611   15.3985   30.1465 C   0  0  0  0  0  0  0  0  0  0  0  0
   42.7736   14.1426   33.9523 C   0  0  0  0  0  0  0  0  0  0  0  0
   42.6312   17.6497   30.7907 C   0  0  0  0  0  0  0  0  0  0  0  0
   42.5635   13.2128   32.9571 C   0  0  0  0  0  0  0  0  0  0  0  0
   42.4204   16.7284   29.7853 C   0  0  0  0  0  0  0  0  0  0  0  0
   42.4799   11.7793   33.1999 C   0  0  0  0  0  0  0  0  0  0  0  0
   42.0661   11.2288   34.3913 C   0  0  0  0  0  0  0  0  0  0  0  0
   42.8309   10.9158   32.1912 C   0  0  0  0  0  0  0  0  0  0  0  0
   42.0040    9.8627   34.5717 C   0  0  0  0  0  0  0  0  0  0  0  0
   42.7704    9.5403   32.3670 C   0  0  0  0  0  0  0  0  0  0  0  0
   42.3548    8.9857   33.5638 C   0  0  0  0  0  0  0  0  0  0  0  0
   42.2852   17.1963   28.5041 O   0  0  0  0  0  0  0  0  0  0  0  0
   41.2838   18.0856   28.0673 C   0  0  0  0  0  0  0  0  0  0  0  0
  1  4  2  0  0  0
 18 19  1  0  0  0
 18 11  1  0  0  0
  2  3  2  0  0  0
  2  4  1  0  0  0
  2  5  1  0  0  0
  3  6  1  0  0  0
  3  7  1  0  0  0
  4  8  1  0  0  0
  5  9  2  0  0  0
  6 10  1  0  0  0
  7 11  2  0  0  0
  8 10  2  0  0  0
  9 11  1  0  0  0
 10 12  1  0  0  0
 12 13  2  0  0  0
 12 14  1  0  0  0
 13 15  1  0  0  0
 14 16  2  0  0  0
 15 17  2  0  0  0
 16 17  1  0  0  0
M  END
> <minimizedAffinity>
-6.95105

$$$$
