ALESSE (ethinyl estradiol).cdx


 24 27  0  0  0  0  0  0  0  0999 V2000
   45.2119    8.1128   29.0025 C   0  0  0  0  0  0  0  0  0  0  0  0
   46.0528    8.8062   28.1416 C   0  0  0  0  0  0  0  0  0  0  0  0
   46.0977   10.1976   28.1872 C   0  0  0  0  0  0  0  0  0  0  0  0
   45.3072   10.8826   29.0870 C   0  0  0  0  0  0  0  0  0  0  0  0
   44.4503   10.2068   29.9663 C   0  0  0  0  0  0  0  0  0  0  0  0
   44.4282    8.8185   29.8963 C   0  0  0  0  0  0  0  0  0  0  0  0
   45.3370   12.3688   29.1554 C   0  0  0  0  0  0  0  0  0  0  0  0
   45.4055   12.7943   30.5854 C   0  0  0  0  0  0  0  0  0  0  0  0
   44.4144   12.1829   31.4991 C   0  0  0  0  0  0  0  0  0  0  0  0
   43.6542   11.0076   30.8801 C   0  0  0  0  0  0  0  0  0  0  0  0
   43.3411   13.0550   32.0161 C   0  0  0  0  0  0  0  0  0  0  0  0
   42.7926   12.4002   33.2713 C   0  0  0  0  0  0  0  0  0  0  0  0
   42.2763   11.0451   32.9552 C   0  0  0  0  0  0  0  0  0  0  0  0
   43.1035   10.2148   32.0419 C   0  0  0  0  0  0  0  0  0  0  0  0
   43.6619   14.4048   32.4903 C   0  0  0  0  0  0  0  0  0  0  0  0
   42.4083   14.7462   33.3078 C   0  0  0  0  0  0  0  0  0  0  0  0
   41.7240   13.4111   33.5921 C   0  0  0  0  0  0  0  0  0  0  0  0
   46.8508    8.1295   27.2341 O   0  0  0  0  0  0  0  0  0  0  0  0
   43.7778   12.4181   34.4048 C   0  0  0  0  0  0  0  0  0  0  0  0
   41.3896   13.4091   34.9403 O   0  0  0  0  0  0  0  0  0  0  0  0
   47.7815    7.8554   27.5067 H   0  0  0  0  0  0  0  0  0  0  0  0
   40.6985   14.1069   35.0531 H   0  0  0  0  0  0  0  0  0  0  0  0
   40.5308   13.2244   32.7913 C   0  0  0  0  0  0  0  0  0  0  0  0
   39.5416   13.0492   32.1185 C   0  0  0  0  0  0  0  0  0  0  0  0
  1  2  2  0  0  0
  2  3  1  0  0  0
  2 18  1  0  0  0
  3  4  2  0  0  0
  4  5  1  0  0  0
  4  7  1  0  0  0
  5  6  2  0  0  0
  6  1  1  0  0  0
  7  8  1  0  0  0
  9  8  1  0  0  0
  9 10  1  0  0  0
  9 11  1  0  0  0
 10  5  1  0  0  0
 10 14  1  0  0  0
 11 12  1  0  0  0
 11 15  1  0  0  0
 12 13  1  0  0  0
 12 19  1  0  0  0
 13 14  1  0  0  0
 15 16  1  0  0  0
 16 17  1  0  0  0
 17 12  1  0  0  0
 17 20  1  0  0  0
 17 23  1  0  0  0
 23 24  3  0  0  0
 18 21  1  0  0  0
 20 22  1  0  0  0
M  END
> <minimizedAffinity>
-7.96948

$$$$
ALESSE (ethinyl estradiol).cdx


 24 27  0  0  0  0  0  0  0  0999 V2000
   43.2351   16.9806   33.3474 C   0  0  0  0  0  0  0  0  0  0  0  0
   44.4960   17.0714   32.7720 C   0  0  0  0  0  0  0  0  0  0  0  0
   45.1637   15.9143   32.3780 C   0  0  0  0  0  0  0  0  0  0  0  0
   44.5708   14.6818   32.5603 C   0  0  0  0  0  0  0  0  0  0  0  0
   43.2997   14.5628   33.1384 C   0  0  0  0  0  0  0  0  0  0  0  0
   42.6592   15.7359   33.5209 C   0  0  0  0  0  0  0  0  0  0  0  0
   45.2633   13.4308   32.1479 C   0  0  0  0  0  0  0  0  0  0  0  0
   44.2989   12.5510   31.4224 C   0  0  0  0  0  0  0  0  0  0  0  0
   43.0000   12.3116   32.0905 C   0  0  0  0  0  0  0  0  0  0  0  0
   42.7517   13.2263   33.2922 C   0  0  0  0  0  0  0  0  0  0  0  0
   42.7539   10.9591   32.6289 C   0  0  0  0  0  0  0  0  0  0  0  0
   41.2517   10.7999   32.7806 C   0  0  0  0  0  0  0  0  0  0  0  0
   40.7178   11.8440   33.6903 C   0  0  0  0  0  0  0  0  0  0  0  0
   41.2579   13.2172   33.5158 C   0  0  0  0  0  0  0  0  0  0  0  0
   43.1076    9.7804   31.8318 C   0  0  0  0  0  0  0  0  0  0  0  0
   42.3037    8.6813   32.5403 C   0  0  0  0  0  0  0  0  0  0  0  0
   41.2398    9.4096   33.3583 C   0  0  0  0  0  0  0  0  0  0  0  0
   45.1012   18.3031   32.5841 O   0  0  0  0  0  0  0  0  0  0  0  0
   40.5450   10.7384   31.4567 C   0  0  0  0  0  0  0  0  0  0  0  0
   40.0361    8.7566   33.1258 O   0  0  0  0  0  0  0  0  0  0  0  0
   44.9540   18.7960   31.7174 H   0  0  0  0  0  0  0  0  0  0  0  0
   40.1293    7.8575   33.5260 H   0  0  0  0  0  0  0  0  0  0  0  0
   41.5360    9.4000   34.7768 C   0  0  0  0  0  0  0  0  0  0  0  0
   41.7634    9.3972   35.9643 C   0  0  0  0  0  0  0  0  0  0  0  0
  1  2  2  0  0  0
  2  3  1  0  0  0
  2 18  1  0  0  0
  3  4  2  0  0  0
  4  5  1  0  0  0
  4  7  1  0  0  0
  5  6  2  0  0  0
  6  1  1  0  0  0
  7  8  1  0  0  0
  9  8  1  0  0  0
  9 10  1  0  0  0
  9 11  1  0  0  0
 10  5  1  0  0  0
 10 14  1  0  0  0
 11 12  1  0  0  0
 11 15  1  0  0  0
 12 13  1  0  0  0
 12 19  1  0  0  0
 13 14  1  0  0  0
 15 16  1  0  0  0
 16 17  1  0  0  0
 17 12  1  0  0  0
 17 20  1  0  0  0
 17 23  1  0  0  0
 23 24  3  0  0  0
 18 21  1  0  0  0
 20 22  1  0  0  0
M  END
> <minimizedAffinity>
-7.62834

$$$$
ALESSE (ethinyl estradiol).cdx


 24 27  0  0  0  0  0  0  0  0999 V2000
   41.4980    8.0959   34.9746 C   0  0  0  0  0  0  0  0  0  0  0  0
   41.4677    9.0511   35.9825 C   0  0  0  0  0  0  0  0  0  0  0  0
   41.9435   10.3365   35.7345 C   0  0  0  0  0  0  0  0  0  0  0  0
   42.4433   10.6569   34.4890 C   0  0  0  0  0  0  0  0  0  0  0  0
   42.4851    9.7117   33.4551 C   0  0  0  0  0  0  0  0  0  0  0  0
   42.0029    8.4379   33.7340 C   0  0  0  0  0  0  0  0  0  0  0  0
   42.9575   12.0229   34.1988 C   0  0  0  0  0  0  0  0  0  0  0  0
   42.4264   12.4785   32.8794 C   0  0  0  0  0  0  0  0  0  0  0  0
   42.5861   11.5372   31.7485 C   0  0  0  0  0  0  0  0  0  0  0  0
   43.0276   10.1354   32.1760 C   0  0  0  0  0  0  0  0  0  0  0  0
   43.5571   11.8997   30.6970 C   0  0  0  0  0  0  0  0  0  0  0  0
   43.1898   11.1120   29.4521 C   0  0  0  0  0  0  0  0  0  0  0  0
   43.2298    9.6565   29.7397 C   0  0  0  0  0  0  0  0  0  0  0  0
   42.6508    9.2188   31.0361 C   0  0  0  0  0  0  0  0  0  0  0  0
   43.6026   13.2737   30.1874 C   0  0  0  0  0  0  0  0  0  0  0  0
   44.3822   13.0872   28.8783 C   0  0  0  0  0  0  0  0  0  0  0  0
   44.2977   11.5972   28.5556 C   0  0  0  0  0  0  0  0  0  0  0  0
   40.9685    8.7411   37.2367 O   0  0  0  0  0  0  0  0  0  0  0  0
   41.8937   11.5689   28.8461 C   0  0  0  0  0  0  0  0  0  0  0  0
   43.9655   11.4947   27.2107 O   0  0  0  0  0  0  0  0  0  0  0  0
   39.9891    8.8855   37.4254 H   0  0  0  0  0  0  0  0  0  0  0  0
   44.7411   11.8458   26.7085 H   0  0  0  0  0  0  0  0  0  0  0  0
   45.5489   10.9098   28.8047 C   0  0  0  0  0  0  0  0  0  0  0  0
   46.6016   10.3473   28.9972 C   0  0  0  0  0  0  0  0  0  0  0  0
  1  2  2  0  0  0
  2  3  1  0  0  0
  2 18  1  0  0  0
  3  4  2  0  0  0
  4  5  1  0  0  0
  4  7  1  0  0  0
  5  6  2  0  0  0
  6  1  1  0  0  0
  7  8  1  0  0  0
  9  8  1  0  0  0
  9 10  1  0  0  0
  9 11  1  0  0  0
 10  5  1  0  0  0
 10 14  1  0  0  0
 11 12  1  0  0  0
 11 15  1  0  0  0
 12 13  1  0  0  0
 12 19  1  0  0  0
 13 14  1  0  0  0
 15 16  1  0  0  0
 16 17  1  0  0  0
 17 12  1  0  0  0
 17 20  1  0  0  0
 17 23  1  0  0  0
 23 24  3  0  0  0
 18 21  1  0  0  0
 20 22  1  0  0  0
M  END
> <minimizedAffinity>
-7.58121

$$$$
ALESSE (ethinyl estradiol).cdx


 24 27  0  0  0  0  0  0  0  0999 V2000
   42.4924   10.9052   36.0646 C   0  0  0  0  0  0  0  0  0  0  0  0
   41.9882    9.6110   36.0586 C   0  0  0  0  0  0  0  0  0  0  0  0
   41.7641    8.9594   34.8481 C   0  0  0  0  0  0  0  0  0  0  0  0
   42.0435    9.6013   33.6591 C   0  0  0  0  0  0  0  0  0  0  0  0
   42.5527   10.9068   33.6376 C   0  0  0  0  0  0  0  0  0  0  0  0
   42.7654   11.5300   34.8620 C   0  0  0  0  0  0  0  0  0  0  0  0
   41.8129    8.9270   32.3527 C   0  0  0  0  0  0  0  0  0  0  0  0
   42.9961    9.1489   31.4689 C   0  0  0  0  0  0  0  0  0  0  0  0
   43.4607   10.5478   31.3350 C   0  0  0  0  0  0  0  0  0  0  0  0
   42.8179   11.5055   32.3410 C   0  0  0  0  0  0  0  0  0  0  0  0
   43.2413   11.2133   30.0354 C   0  0  0  0  0  0  0  0  0  0  0  0
   44.2124   12.3776   29.9548 C   0  0  0  0  0  0  0  0  0  0  0  0
   43.9799   13.3143   31.0824 C   0  0  0  0  0  0  0  0  0  0  0  0
   43.7353   12.7033   32.4145 C   0  0  0  0  0  0  0  0  0  0  0  0
   43.5228   10.4932   28.7896 C   0  0  0  0  0  0  0  0  0  0  0  0
   43.5899   11.6471   27.7796 C   0  0  0  0  0  0  0  0  0  0  0  0
   43.7969   12.9117   28.6098 C   0  0  0  0  0  0  0  0  0  0  0  0
   41.7040    8.9566   37.2458 O   0  0  0  0  0  0  0  0  0  0  0  0
   45.6398   11.9265   29.8335 C   0  0  0  0  0  0  0  0  0  0  0  0
   44.8128   13.6340   27.9970 O   0  0  0  0  0  0  0  0  0  0  0  0
   42.4203    8.3990   37.6836 H   0  0  0  0  0  0  0  0  0  0  0  0
   44.4531   13.9283   27.1246 H   0  0  0  0  0  0  0  0  0  0  0  0
   42.5973   13.7213   28.6853 C   0  0  0  0  0  0  0  0  0  0  0  0
   41.5914   14.3906   28.7291 C   0  0  0  0  0  0  0  0  0  0  0  0
  1  2  2  0  0  0
  2  3  1  0  0  0
  2 18  1  0  0  0
  3  4  2  0  0  0
  4  5  1  0  0  0
  4  7  1  0  0  0
  5  6  2  0  0  0
  6  1  1  0  0  0
  7  8  1  0  0  0
  9  8  1  0  0  0
  9 10  1  0  0  0
  9 11  1  0  0  0
 10  5  1  0  0  0
 10 14  1  0  0  0
 11 12  1  0  0  0
 11 15  1  0  0  0
 12 13  1  0  0  0
 12 19  1  0  0  0
 13 14  1  0  0  0
 15 16  1  0  0  0
 16 17  1  0  0  0
 17 12  1  0  0  0
 17 20  1  0  0  0
 17 23  1  0  0  0
 23 24  3  0  0  0
 18 21  1  0  0  0
 20 22  1  0  0  0
M  END
> <minimizedAffinity>
-7.54887

$$$$
ALESSE (ethinyl estradiol).cdx


 24 27  0  0  0  0  0  0  0  0999 V2000
   42.2836   10.2867   34.4482 C   0  0  0  0  0  0  0  0  0  0  0  0
   42.6275   11.4658   35.0967 C   0  0  0  0  0  0  0  0  0  0  0  0
   43.3218   12.4585   34.4092 C   0  0  0  0  0  0  0  0  0  0  0  0
   43.6656   12.2677   33.0866 C   0  0  0  0  0  0  0  0  0  0  0  0
   43.3306   11.0874   32.4094 C   0  0  0  0  0  0  0  0  0  0  0  0
   42.6378   10.1159   33.1228 C   0  0  0  0  0  0  0  0  0  0  0  0
   44.4072   13.3128   32.3301 C   0  0  0  0  0  0  0  0  0  0  0  0
   43.7759   13.4900   30.9883 C   0  0  0  0  0  0  0  0  0  0  0  0
   43.5391   12.2551   30.2075 C   0  0  0  0  0  0  0  0  0  0  0  0
   43.7322   10.9714   31.0182 C   0  0  0  0  0  0  0  0  0  0  0  0
   44.3776   12.0381   29.0117 C   0  0  0  0  0  0  0  0  0  0  0  0
   43.6479   11.0474   28.1223 C   0  0  0  0  0  0  0  0  0  0  0  0
   43.4199    9.7767   28.8546 C   0  0  0  0  0  0  0  0  0  0  0  0
   42.9829    9.8943   30.2698 C   0  0  0  0  0  0  0  0  0  0  0  0
   44.6335   13.1477   28.0882 C   0  0  0  0  0  0  0  0  0  0  0  0
   45.1266   12.3991   26.8422 C   0  0  0  0  0  0  0  0  0  0  0  0
   44.6703   10.9531   27.0211 C   0  0  0  0  0  0  0  0  0  0  0  0
   42.2879   11.6685   36.4241 O   0  0  0  0  0  0  0  0  0  0  0  0
   42.3990   11.6271   27.5224 C   0  0  0  0  0  0  0  0  0  0  0  0
   44.1057   10.5568   25.8154 O   0  0  0  0  0  0  0  0  0  0  0  0
   41.4079   12.1073   36.6448 H   0  0  0  0  0  0  0  0  0  0  0  0
   44.8447   10.5374   25.1591 H   0  0  0  0  0  0  0  0  0  0  0  0
   45.7672   10.0695   27.3621 C   0  0  0  0  0  0  0  0  0  0  0  0
   46.6869    9.3305   27.6263 C   0  0  0  0  0  0  0  0  0  0  0  0
  1  2  2  0  0  0
  2  3  1  0  0  0
  2 18  1  0  0  0
  3  4  2  0  0  0
  4  5  1  0  0  0
  4  7  1  0  0  0
  5  6  2  0  0  0
  6  1  1  0  0  0
  7  8  1  0  0  0
  9  8  1  0  0  0
  9 10  1  0  0  0
  9 11  1  0  0  0
 10  5  1  0  0  0
 10 14  1  0  0  0
 11 12  1  0  0  0
 11 15  1  0  0  0
 12 13  1  0  0  0
 12 19  1  0  0  0
 13 14  1  0  0  0
 15 16  1  0  0  0
 16 17  1  0  0  0
 17 12  1  0  0  0
 17 20  1  0  0  0
 17 23  1  0  0  0
 23 24  3  0  0  0
 18 21  1  0  0  0
 20 22  1  0  0  0
M  END
> <minimizedAffinity>
-7.32600

$$$$
