BRD0705


 26 29  0  0  0  0  0  0  0  0999 V2000
   42.5277   14.3375   34.2471 N   0  0  0  0  0  0  0  0  0  0  0  0
   42.6177   13.0594   34.1694 C   0  0  0  0  0  0  0  0  0  0  0  0
   42.8826   12.3251   32.9388 C   0  0  0  0  0  0  0  0  0  0  0  0
   43.0611   13.1031   31.6801 C   0  0  0  0  0  0  0  0  0  0  0  0
   42.9276   14.5607   31.9375 C   0  0  0  0  0  0  0  0  0  0  0  0
   43.0508   15.4302   30.7417 C   0  0  0  0  0  0  0  0  0  0  0  0
   42.8119   16.8980   30.8171 C   0  0  0  0  0  0  0  0  0  0  0  0
   43.1864   17.4016   32.1916 C   0  0  0  0  0  0  0  0  0  0  0  0
   42.5640   16.6085   33.2868 C   0  0  0  0  0  0  0  0  0  0  0  0
   42.6870   15.1197   33.0980 C   0  0  0  0  0  0  0  0  0  0  0  0
   42.6736   10.8884   34.6954 N   0  0  0  0  0  0  0  0  0  0  0  0
   42.4870   12.1372   35.2751 N   0  0  0  0  0  0  0  0  0  0  0  0
   42.9102   11.0510   33.2809 C   0  0  0  0  0  0  0  0  0  0  0  0
   43.3609   14.9832   29.6060 O   0  0  0  0  0  0  0  0  0  0  0  0
   44.6727   17.4472   32.3990 C   0  0  0  0  0  0  0  0  0  0  0  0
   42.6009   18.8191   32.2704 C   0  0  0  0  0  0  0  0  0  0  0  0
   42.6379   10.0005   35.2450 H   0  0  0  0  0  0  0  0  0  0  0  0
   42.2959   12.3642   36.2780 H   0  0  0  0  0  0  0  0  0  0  0  0
   44.4197   12.7866   31.1690 C   0  0  0  0  0  0  0  0  0  0  0  0
   45.5670   13.3464   31.7513 C   0  0  0  0  0  0  0  0  0  0  0  0
   46.8329   13.0988   31.2610 C   0  0  0  0  0  0  0  0  0  0  0  0
   47.0434   12.2862   30.1718 C   0  0  0  0  0  0  0  0  0  0  0  0
   45.9334   11.7251   29.5851 C   0  0  0  0  0  0  0  0  0  0  0  0
   44.6569   11.9766   30.0804 C   0  0  0  0  0  0  0  0  0  0  0  0
   41.9112   12.7836   30.8072 C   0  0  0  0  0  0  0  0  0  0  0  0
   40.5204   12.9658   31.2124 C   0  0  0  0  0  0  0  0  0  0  0  0
  1  2  2  0  0  0
  1 10  2  0  0  0
  2  3  1  0  0  0
  3  4  1  0  0  0
  4  5  1  0  0  0
  4 25  1  0  0  0
  4 19  1  0  0  0
  5  6  1  0  0  0
  5 10  2  0  0  0
  6  7  1  0  0  0
  6 14  2  0  0  0
  7  8  1  0  0  0
  8  9  1  0  0  0
  8 15  1  0  0  0
  8 16  1  0  0  0
  9 10  1  0  0  0
 11 12  1  0  0  0
 11 13  1  0  0  0
 12  2  1  0  0  0
 13  3  2  0  0  0
 19 20  2  0  0  0
 19 24  1  0  0  0
 20 21  1  0  0  0
 21 22  2  0  0  0
 22 23  1  0  0  0
 23 24  2  0  0  0
 25 26  1  0  0  0
 11 17  1  0  0  0
 12 18  1  0  0  0
M  END
> <minimizedAffinity>
-7.44729

$$$$
BRD0705


 26 29  0  0  0  0  0  0  0  0999 V2000
   42.1224   11.2217   30.9917 N   0  0  0  0  0  0  0  0  0  0  0  0
   41.3123   11.8234   31.7850 C   0  0  0  0  0  0  0  0  0  0  0  0
   41.6516   13.0031   32.5704 C   0  0  0  0  0  0  0  0  0  0  0  0
   43.0313   13.5543   32.4515 C   0  0  0  0  0  0  0  0  0  0  0  0
   43.8408   12.7489   31.5002 C   0  0  0  0  0  0  0  0  0  0  0  0
   45.2480   13.1888   31.3338 C   0  0  0  0  0  0  0  0  0  0  0  0
   46.2175   12.4077   30.5172 C   0  0  0  0  0  0  0  0  0  0  0  0
   45.4840   11.6966   29.4038 C   0  0  0  0  0  0  0  0  0  0  0  0
   44.3076   10.9240   29.8884 C   0  0  0  0  0  0  0  0  0  0  0  0
   43.4304   11.6944   30.8393 C   0  0  0  0  0  0  0  0  0  0  0  0
   39.4851   12.3982   32.9356 N   0  0  0  0  0  0  0  0  0  0  0  0
   39.9365   11.4501   32.0259 N   0  0  0  0  0  0  0  0  0  0  0  0
   40.5564   13.3176   33.2358 C   0  0  0  0  0  0  0  0  0  0  0  0
   45.6997   14.2361   31.8673 O   0  0  0  0  0  0  0  0  0  0  0  0
   45.0443   12.6353   28.3176 C   0  0  0  0  0  0  0  0  0  0  0  0
   46.4927   10.6822   28.8455 C   0  0  0  0  0  0  0  0  0  0  0  0
   38.5105   12.3991   33.3122 H   0  0  0  0  0  0  0  0  0  0  0  0
   39.4086   10.6495   31.6083 H   0  0  0  0  0  0  0  0  0  0  0  0
   42.8949   14.9518   31.9661 C   0  0  0  0  0  0  0  0  0  0  0  0
   43.0596   16.0439   32.8315 C   0  0  0  0  0  0  0  0  0  0  0  0
   42.8921   17.3464   32.4076 C   0  0  0  0  0  0  0  0  0  0  0  0
   42.5547   17.6497   31.1094 C   0  0  0  0  0  0  0  0  0  0  0  0
   42.3892   16.5950   30.2426 C   0  0  0  0  0  0  0  0  0  0  0  0
   42.5578   15.2816   30.6719 C   0  0  0  0  0  0  0  0  0  0  0  0
   43.6945   13.3459   33.7565 C   0  0  0  0  0  0  0  0  0  0  0  0
   43.3383   12.2686   34.6754 C   0  0  0  0  0  0  0  0  0  0  0  0
  1  2  2  0  0  0
  1 10  2  0  0  0
  2  3  1  0  0  0
  3  4  1  0  0  0
  4  5  1  0  0  0
  4 25  1  0  0  0
  4 19  1  0  0  0
  5  6  1  0  0  0
  5 10  2  0  0  0
  6  7  1  0  0  0
  6 14  2  0  0  0
  7  8  1  0  0  0
  8  9  1  0  0  0
  8 15  1  0  0  0
  8 16  1  0  0  0
  9 10  1  0  0  0
 11 12  1  0  0  0
 11 13  1  0  0  0
 12  2  1  0  0  0
 13  3  2  0  0  0
 19 20  2  0  0  0
 19 24  1  0  0  0
 20 21  1  0  0  0
 21 22  2  0  0  0
 22 23  1  0  0  0
 23 24  2  0  0  0
 25 26  1  0  0  0
 11 17  1  0  0  0
 12 18  1  0  0  0
M  END
> <minimizedAffinity>
-7.25541

$$$$
BRD0705


 26 29  0  0  0  0  0  0  0  0999 V2000
   42.1652   13.3402   34.2186 N   0  0  0  0  0  0  0  0  0  0  0  0
   42.4181   14.4880   33.7025 C   0  0  0  0  0  0  0  0  0  0  0  0
   42.9666   14.6886   32.3674 C   0  0  0  0  0  0  0  0  0  0  0  0
   43.2579   13.4846   31.5384 C   0  0  0  0  0  0  0  0  0  0  0  0
   42.9126   12.2409   32.2751 C   0  0  0  0  0  0  0  0  0  0  0  0
   43.1988   10.9762   31.5542 C   0  0  0  0  0  0  0  0  0  0  0  0
   43.0291    9.6498   32.2094 C   0  0  0  0  0  0  0  0  0  0  0  0
   41.9247    9.7308   33.2375 C   0  0  0  0  0  0  0  0  0  0  0  0
   42.0905   10.8758   34.1743 C   0  0  0  0  0  0  0  0  0  0  0  0
   42.4180   12.1747   33.4868 C   0  0  0  0  0  0  0  0  0  0  0  0
   42.6060   16.6926   33.3906 N   0  0  0  0  0  0  0  0  0  0  0  0
   42.1945   15.7659   34.3405 N   0  0  0  0  0  0  0  0  0  0  0  0
   43.0648   15.9954   32.2131 C   0  0  0  0  0  0  0  0  0  0  0  0
   43.5974   10.9503   30.3600 O   0  0  0  0  0  0  0  0  0  0  0  0
   40.5627    9.8004   32.6097 C   0  0  0  0  0  0  0  0  0  0  0  0
   42.0563    8.4451   34.0667 C   0  0  0  0  0  0  0  0  0  0  0  0
   42.5679   17.7237   33.5553 H   0  0  0  0  0  0  0  0  0  0  0  0
   41.8110   15.9448   35.2970 H   0  0  0  0  0  0  0  0  0  0  0  0
   42.4384   13.6041   30.3051 C   0  0  0  0  0  0  0  0  0  0  0  0
   41.0834   13.2399   30.2914 C   0  0  0  0  0  0  0  0  0  0  0  0
   40.3195   13.3020   29.1438 C   0  0  0  0  0  0  0  0  0  0  0  0
   40.8431   13.7267   27.9452 C   0  0  0  0  0  0  0  0  0  0  0  0
   42.1694   14.0902   27.9348 C   0  0  0  0  0  0  0  0  0  0  0  0
   42.9389   14.0262   29.0932 C   0  0  0  0  0  0  0  0  0  0  0  0
   44.7262   13.4141   31.3789 C   0  0  0  0  0  0  0  0  0  0  0  0
   45.6646   13.6322   32.4760 C   0  0  0  0  0  0  0  0  0  0  0  0
  1  2  2  0  0  0
  1 10  2  0  0  0
  2  3  1  0  0  0
  3  4  1  0  0  0
  4  5  1  0  0  0
  4 25  1  0  0  0
  4 19  1  0  0  0
  5  6  1  0  0  0
  5 10  2  0  0  0
  6  7  1  0  0  0
  6 14  2  0  0  0
  7  8  1  0  0  0
  8  9  1  0  0  0
  8 15  1  0  0  0
  8 16  1  0  0  0
  9 10  1  0  0  0
 11 12  1  0  0  0
 11 13  1  0  0  0
 12  2  1  0  0  0
 13  3  2  0  0  0
 19 20  2  0  0  0
 19 24  1  0  0  0
 20 21  1  0  0  0
 21 22  2  0  0  0
 22 23  1  0  0  0
 23 24  2  0  0  0
 25 26  1  0  0  0
 11 17  1  0  0  0
 12 18  1  0  0  0
M  END
> <minimizedAffinity>
-7.14526

$$$$
BRD0705


 26 29  0  0  0  0  0  0  0  0999 V2000
   43.7783   12.4881   33.2759 N   0  0  0  0  0  0  0  0  0  0  0  0
   43.1122   12.0200   34.2682 C   0  0  0  0  0  0  0  0  0  0  0  0
   41.9174   11.1951   34.1432 C   0  0  0  0  0  0  0  0  0  0  0  0
   41.4278   10.8692   32.7737 C   0  0  0  0  0  0  0  0  0  0  0  0
   42.3028   11.4827   31.7409 C   0  0  0  0  0  0  0  0  0  0  0  0
   41.8843   11.2522   30.3363 C   0  0  0  0  0  0  0  0  0  0  0  0
   42.5829   11.9088   29.1969 C   0  0  0  0  0  0  0  0  0  0  0  0
   44.0343   12.1310   29.5536 C   0  0  0  0  0  0  0  0  0  0  0  0
   44.2091   12.8062   30.8687 C   0  0  0  0  0  0  0  0  0  0  0  0
   43.3662   12.2144   31.9670 C   0  0  0  0  0  0  0  0  0  0  0  0
   42.4402   11.5138   36.3383 N   0  0  0  0  0  0  0  0  0  0  0  0
   43.4327   12.2148   35.6644 N   0  0  0  0  0  0  0  0  0  0  0  0
   41.5462   10.9130   35.3777 C   0  0  0  0  0  0  0  0  0  0  0  0
   40.9250   10.4968   30.0287 O   0  0  0  0  0  0  0  0  0  0  0  0
   44.8274   10.8563   29.5444 C   0  0  0  0  0  0  0  0  0  0  0  0
   44.5672   13.0894   28.4786 C   0  0  0  0  0  0  0  0  0  0  0  0
   42.3951   11.4623   37.3809 H   0  0  0  0  0  0  0  0  0  0  0  0
   44.2295   12.7591   36.0678 H   0  0  0  0  0  0  0  0  0  0  0  0
   41.4405    9.3884   32.6545 C   0  0  0  0  0  0  0  0  0  0  0  0
   40.2501    8.6458   32.6610 C   0  0  0  0  0  0  0  0  0  0  0  0
   40.2459    7.2673   32.5966 C   0  0  0  0  0  0  0  0  0  0  0  0
   41.4110    6.5406   32.5207 C   0  0  0  0  0  0  0  0  0  0  0  0
   42.5905    7.2474   32.5116 C   0  0  0  0  0  0  0  0  0  0  0  0
   42.5930    8.6380   32.5774 C   0  0  0  0  0  0  0  0  0  0  0  0
   40.1302   11.5573   32.6029 C   0  0  0  0  0  0  0  0  0  0  0  0
   39.9686   13.0045   32.7088 C   0  0  0  0  0  0  0  0  0  0  0  0
  1  2  2  0  0  0
  1 10  2  0  0  0
  2  3  1  0  0  0
  3  4  1  0  0  0
  4  5  1  0  0  0
  4 25  1  0  0  0
  4 19  1  0  0  0
  5  6  1  0  0  0
  5 10  2  0  0  0
  6  7  1  0  0  0
  6 14  2  0  0  0
  7  8  1  0  0  0
  8  9  1  0  0  0
  8 15  1  0  0  0
  8 16  1  0  0  0
  9 10  1  0  0  0
 11 12  1  0  0  0
 11 13  1  0  0  0
 12  2  1  0  0  0
 13  3  2  0  0  0
 19 20  2  0  0  0
 19 24  1  0  0  0
 20 21  1  0  0  0
 21 22  2  0  0  0
 22 23  1  0  0  0
 23 24  2  0  0  0
 25 26  1  0  0  0
 11 17  1  0  0  0
 12 18  1  0  0  0
M  END
> <minimizedAffinity>
-6.73019

$$$$
BRD0705


 26 29  0  0  0  0  0  0  0  0999 V2000
   46.4614   12.1037   30.0560 N   0  0  0  0  0  0  0  0  0  0  0  0
   45.9038   12.9381   30.8563 C   0  0  0  0  0  0  0  0  0  0  0  0
   44.4640   13.0671   31.0408 C   0  0  0  0  0  0  0  0  0  0  0  0
   43.5708   12.1741   30.2494 C   0  0  0  0  0  0  0  0  0  0  0  0
   44.3660   11.2726   29.3755 C   0  0  0  0  0  0  0  0  0  0  0  0
   43.5727   10.3632   28.5126 C   0  0  0  0  0  0  0  0  0  0  0  0
   44.2211    9.4947   27.4915 C   0  0  0  0  0  0  0  0  0  0  0  0
   45.6096    9.1193   27.9545 C   0  0  0  0  0  0  0  0  0  0  0  0
   46.4153   10.2972   28.3780 C   0  0  0  0  0  0  0  0  0  0  0  0
   45.6731   11.2397   29.2878 C   0  0  0  0  0  0  0  0  0  0  0  0
   45.5746   14.5355   32.3837 N   0  0  0  0  0  0  0  0  0  0  0  0
   46.5962   13.8746   31.7128 N   0  0  0  0  0  0  0  0  0  0  0  0
   44.3022   14.0138   31.9456 C   0  0  0  0  0  0  0  0  0  0  0  0
   42.3192   10.2733   28.5919 O   0  0  0  0  0  0  0  0  0  0  0  0
   45.5887    8.1105   29.0661 C   0  0  0  0  0  0  0  0  0  0  0  0
   46.2955    8.5235   26.7165 C   0  0  0  0  0  0  0  0  0  0  0  0
   45.7556   15.2866   33.0871 H   0  0  0  0  0  0  0  0  0  0  0  0
   47.6285   14.0169   31.8022 H   0  0  0  0  0  0  0  0  0  0  0  0
   42.7772   11.3853   31.2268 C   0  0  0  0  0  0  0  0  0  0  0  0
   41.4272   11.6764   31.4745 C   0  0  0  0  0  0  0  0  0  0  0  0
   40.6880   10.9833   32.4113 C   0  0  0  0  0  0  0  0  0  0  0  0
   41.2330    9.9642   33.1568 C   0  0  0  0  0  0  0  0  0  0  0  0
   42.5549    9.6603   32.9302 C   0  0  0  0  0  0  0  0  0  0  0  0
   43.2994   10.3609   31.9853 C   0  0  0  0  0  0  0  0  0  0  0  0
   42.8289   13.0335   29.3021 C   0  0  0  0  0  0  0  0  0  0  0  0
   43.4807   13.9143   28.3373 C   0  0  0  0  0  0  0  0  0  0  0  0
  1  2  2  0  0  0
  1 10  2  0  0  0
  2  3  1  0  0  0
  3  4  1  0  0  0
  4  5  1  0  0  0
  4 25  1  0  0  0
  4 19  1  0  0  0
  5  6  1  0  0  0
  5 10  2  0  0  0
  6  7  1  0  0  0
  6 14  2  0  0  0
  7  8  1  0  0  0
  8  9  1  0  0  0
  8 15  1  0  0  0
  8 16  1  0  0  0
  9 10  1  0  0  0
 11 12  1  0  0  0
 11 13  1  0  0  0
 12  2  1  0  0  0
 13  3  2  0  0  0
 19 20  2  0  0  0
 19 24  1  0  0  0
 20 21  1  0  0  0
 21 22  2  0  0  0
 22 23  1  0  0  0
 23 24  2  0  0  0
 25 26  1  0  0  0
 11 17  1  0  0  0
 12 18  1  0  0  0
M  END
> <minimizedAffinity>
-6.69190

$$$$
