CETACORT (hydrocortisone).cdx


 29 32  0  0  0  0  0  0  0  0999 V2000
   42.9499   16.6346   33.8550 C   0  0  0  0  0  0  0  0  0  0  0  0
   43.9820   16.9176   32.8002 C   0  0  0  0  0  0  0  0  0  0  0  0
   44.8673   15.8080   32.4152 C   0  0  0  0  0  0  0  0  0  0  0  0
   44.4147   14.5635   32.4162 C   0  0  0  0  0  0  0  0  0  0  0  0
   42.9812   14.3705   32.8242 C   0  0  0  0  0  0  0  0  0  0  0  0
   42.8643   15.1485   34.1182 C   0  0  0  0  0  0  0  0  0  0  0  0
   45.2506   13.3920   32.0419 C   0  0  0  0  0  0  0  0  0  0  0  0
   44.4426   12.4399   31.2204 C   0  0  0  0  0  0  0  0  0  0  0  0
   43.1244   12.0662   31.8596 C   0  0  0  0  0  0  0  0  0  0  0  0
   42.8223   12.8999   33.1005 C   0  0  0  0  0  0  0  0  0  0  0  0
   43.2319   10.6097   32.2953 C   0  0  0  0  0  0  0  0  0  0  0  0
   41.9905   10.1312   33.0191 C   0  0  0  0  0  0  0  0  0  0  0  0
   40.9616   11.2306   32.9187 C   0  0  0  0  0  0  0  0  0  0  0  0
   41.4848   12.4786   33.5964 C   0  0  0  0  0  0  0  0  0  0  0  0
   43.3725    9.7915   31.0342 C   0  0  0  0  0  0  0  0  0  0  0  0
   41.9831    9.2296   30.8413 C   0  0  0  0  0  0  0  0  0  0  0  0
   41.5927    8.8967   32.2637 C   0  0  0  0  0  0  0  0  0  0  0  0
   44.1055   18.0243   32.2615 O   0  0  0  0  0  0  0  0  0  0  0  0
   42.0498   14.9037   31.7955 C   0  0  0  0  0  0  0  0  0  0  0  0
   42.2135    9.7782   34.4526 C   0  0  0  0  0  0  0  0  0  0  0  0
   40.5279   13.4917   33.5641 O   0  0  0  0  0  0  0  0  0  0  0  0
   42.4520    7.8754   32.6690 O   0  0  0  0  0  0  0  0  0  0  0  0
   39.8284   13.3959   34.2545 H   0  0  0  0  0  0  0  0  0  0  0  0
   43.3424    8.2091   32.9385 H   0  0  0  0  0  0  0  0  0  0  0  0
   40.2190    8.4422   32.4358 C   0  0  0  0  0  0  0  0  0  0  0  0
   39.2626    9.1622   32.1494 O   0  0  0  0  0  0  0  0  0  0  0  0
   39.8918    7.0774   32.9691 C   0  0  0  0  0  0  0  0  0  0  0  0
   40.0716    7.0010   34.3285 O   0  0  0  0  0  0  0  0  0  0  0  0
   39.9530    7.8572   34.8057 H   0  0  0  0  0  0  0  0  0  0  0  0
  1  2  1  0  0  0
  2  3  1  0  0  0
  2 18  2  0  0  0
  3  4  2  0  0  0
  4  5  1  0  0  0
  4  7  1  0  0  0
  5  6  1  0  0  0
  5 19  1  0  0  0
  6  1  1  0  0  0
  7  8  1  0  0  0
  9  8  1  0  0  0
  9 10  1  0  0  0
  9 11  1  0  0  0
 10  5  1  0  0  0
 10 14  1  0  0  0
 11 12  1  0  0  0
 11 15  1  0  0  0
 12 13  1  0  0  0
 12 20  1  0  0  0
 13 14  1  0  0  0
 14 21  1  0  0  0
 15 16  1  0  0  0
 16 17  1  0  0  0
 17 12  1  0  0  0
 17 25  1  0  0  0
 17 22  1  0  0  0
 25 26  2  0  0  0
 25 27  1  0  0  0
 27 28  1  0  0  0
 21 23  1  0  0  0
 28 29  1  0  0  0
 22 24  1  0  0  0
M  END
> <minimizedAffinity>
-8.57281

$$$$
CETACORT (hydrocortisone).cdx


 29 32  0  0  0  0  0  0  0  0999 V2000
   41.4091    7.2590   33.8270 C   0  0  0  0  0  0  0  0  0  0  0  0
   40.9080    7.5473   35.2140 C   0  0  0  0  0  0  0  0  0  0  0  0
   41.5360    8.6658   35.9336 C   0  0  0  0  0  0  0  0  0  0  0  0
   41.9536    9.7336   35.2711 C   0  0  0  0  0  0  0  0  0  0  0  0
   41.7475    9.7234   33.7824 C   0  0  0  0  0  0  0  0  0  0  0  0
   42.3008    8.3821   33.3487 C   0  0  0  0  0  0  0  0  0  0  0  0
   42.5988   10.9004   35.9294 C   0  0  0  0  0  0  0  0  0  0  0  0
   42.0962   12.1664   35.3139 C   0  0  0  0  0  0  0  0  0  0  0  0
   42.2036   12.1835   33.8060 C   0  0  0  0  0  0  0  0  0  0  0  0
   42.6103   10.8285   33.2361 C   0  0  0  0  0  0  0  0  0  0  0  0
   43.2944   13.1845   33.4434 C   0  0  0  0  0  0  0  0  0  0  0  0
   43.5503   13.2434   31.9518 C   0  0  0  0  0  0  0  0  0  0  0  0
   42.4970   12.3948   31.2826 C   0  0  0  0  0  0  0  0  0  0  0  0
   42.6240   10.9625   31.7547 C   0  0  0  0  0  0  0  0  0  0  0  0
   42.7959   14.5417   33.8780 C   0  0  0  0  0  0  0  0  0  0  0  0
   42.3324   15.1612   32.5800 C   0  0  0  0  0  0  0  0  0  0  0  0
   43.4109   14.7017   31.6250 C   0  0  0  0  0  0  0  0  0  0  0  0
   40.0088    6.8906   35.7530 O   0  0  0  0  0  0  0  0  0  0  0  0
   40.3070    9.8435   33.4351 C   0  0  0  0  0  0  0  0  0  0  0  0
   44.9085   12.7770   31.5431 C   0  0  0  0  0  0  0  0  0  0  0  0
   41.6954   10.1489   31.1076 O   0  0  0  0  0  0  0  0  0  0  0  0
   44.5857   15.3277   32.0422 O   0  0  0  0  0  0  0  0  0  0  0  0
   41.9694    9.8852   30.1963 H   0  0  0  0  0  0  0  0  0  0  0  0
   45.0066   14.8758   32.8138 H   0  0  0  0  0  0  0  0  0  0  0  0
   43.1791   15.0364   30.2259 C   0  0  0  0  0  0  0  0  0  0  0  0
   43.5158   14.2761   29.3183 O   0  0  0  0  0  0  0  0  0  0  0  0
   42.5201   16.3203   29.8120 C   0  0  0  0  0  0  0  0  0  0  0  0
   43.3561   17.3991   29.9656 O   0  0  0  0  0  0  0  0  0  0  0  0
   44.3173   17.1860   29.8892 H   0  0  0  0  0  0  0  0  0  0  0  0
  1  2  1  0  0  0
  2  3  1  0  0  0
  2 18  2  0  0  0
  3  4  2  0  0  0
  4  5  1  0  0  0
  4  7  1  0  0  0
  5  6  1  0  0  0
  5 19  1  0  0  0
  6  1  1  0  0  0
  7  8  1  0  0  0
  9  8  1  0  0  0
  9 10  1  0  0  0
  9 11  1  0  0  0
 10  5  1  0  0  0
 10 14  1  0  0  0
 11 12  1  0  0  0
 11 15  1  0  0  0
 12 13  1  0  0  0
 12 20  1  0  0  0
 13 14  1  0  0  0
 14 21  1  0  0  0
 15 16  1  0  0  0
 16 17  1  0  0  0
 17 12  1  0  0  0
 17 25  1  0  0  0
 17 22  1  0  0  0
 25 26  2  0  0  0
 25 27  1  0  0  0
 27 28  1  0  0  0
 21 23  1  0  0  0
 28 29  1  0  0  0
 22 24  1  0  0  0
M  END
> <minimizedAffinity>
-8.34679

$$$$
CETACORT (hydrocortisone).cdx


 29 32  0  0  0  0  0  0  0  0999 V2000
   46.6167    9.5359   27.3505 C   0  0  0  0  0  0  0  0  0  0  0  0
   45.7371    8.3232   27.2341 C   0  0  0  0  0  0  0  0  0  0  0  0
   44.9705    7.9352   28.4278 C   0  0  0  0  0  0  0  0  0  0  0  0
   44.5161    8.8616   29.2579 C   0  0  0  0  0  0  0  0  0  0  0  0
   44.8276   10.2892   28.9065 C   0  0  0  0  0  0  0  0  0  0  0  0
   46.3170   10.2788   28.6324 C   0  0  0  0  0  0  0  0  0  0  0  0
   43.7367    8.5455   30.4841 C   0  0  0  0  0  0  0  0  0  0  0  0
   42.6250    9.5321   30.6415 C   0  0  0  0  0  0  0  0  0  0  0  0
   43.0851   10.9703   30.5680 C   0  0  0  0  0  0  0  0  0  0  0  0
   44.5458   11.0932   30.1468 C   0  0  0  0  0  0  0  0  0  0  0  0
   42.9563   11.5567   31.9689 C   0  0  0  0  0  0  0  0  0  0  0  0
   43.4567   12.9841   32.0449 C   0  0  0  0  0  0  0  0  0  0  0  0
   43.7683   13.4252   30.6357 C   0  0  0  0  0  0  0  0  0  0  0  0
   44.8553   12.5453   30.0573 C   0  0  0  0  0  0  0  0  0  0  0  0
   41.4828   11.5682   32.2979 C   0  0  0  0  0  0  0  0  0  0  0  0
   41.1000   13.0130   32.0756 C   0  0  0  0  0  0  0  0  0  0  0  0
   42.3021   13.7337   32.6430 C   0  0  0  0  0  0  0  0  0  0  0  0
   45.6414    7.6605   26.1939 O   0  0  0  0  0  0  0  0  0  0  0  0
   44.0677   10.7290   27.7068 C   0  0  0  0  0  0  0  0  0  0  0  0
   44.6606   13.1675   32.9088 C   0  0  0  0  0  0  0  0  0  0  0  0
   45.1984   12.9694   28.7746 O   0  0  0  0  0  0  0  0  0  0  0  0
   42.3030   13.4612   34.0111 O   0  0  0  0  0  0  0  0  0  0  0  0
   45.8070   13.7470   28.7657 H   0  0  0  0  0  0  0  0  0  0  0  0
   42.6745   12.5702   34.2233 H   0  0  0  0  0  0  0  0  0  0  0  0
   42.2981   15.1791   32.4585 C   0  0  0  0  0  0  0  0  0  0  0  0
   41.7485   15.7023   31.4892 O   0  0  0  0  0  0  0  0  0  0  0  0
   42.9600   16.1091   33.4336 C   0  0  0  0  0  0  0  0  0  0  0  0
   42.2859   16.1640   34.6289 O   0  0  0  0  0  0  0  0  0  0  0  0
   41.7846   15.3437   34.8540 H   0  0  0  0  0  0  0  0  0  0  0  0
  1  2  1  0  0  0
  2  3  1  0  0  0
  2 18  2  0  0  0
  3  4  2  0  0  0
  4  5  1  0  0  0
  4  7  1  0  0  0
  5  6  1  0  0  0
  5 19  1  0  0  0
  6  1  1  0  0  0
  7  8  1  0  0  0
  9  8  1  0  0  0
  9 10  1  0  0  0
  9 11  1  0  0  0
 10  5  1  0  0  0
 10 14  1  0  0  0
 11 12  1  0  0  0
 11 15  1  0  0  0
 12 13  1  0  0  0
 12 20  1  0  0  0
 13 14  1  0  0  0
 14 21  1  0  0  0
 15 16  1  0  0  0
 16 17  1  0  0  0
 17 12  1  0  0  0
 17 25  1  0  0  0
 17 22  1  0  0  0
 25 26  2  0  0  0
 25 27  1  0  0  0
 27 28  1  0  0  0
 21 23  1  0  0  0
 28 29  1  0  0  0
 22 24  1  0  0  0
M  END
> <minimizedAffinity>
-7.90248

$$$$
CETACORT (hydrocortisone).cdx


 29 32  0  0  0  0  0  0  0  0999 V2000
   45.0612    9.0774   26.8959 C   0  0  0  0  0  0  0  0  0  0  0  0
   46.0987   10.1289   26.6204 C   0  0  0  0  0  0  0  0  0  0  0  0
   45.8137   11.4912   27.0959 C   0  0  0  0  0  0  0  0  0  0  0  0
   45.1321   11.6769   28.2160 C   0  0  0  0  0  0  0  0  0  0  0  0
   44.6855   10.4399   28.9433 C   0  0  0  0  0  0  0  0  0  0  0  0
   44.0279    9.6030   27.8660 C   0  0  0  0  0  0  0  0  0  0  0  0
   44.8044   13.0227   28.7570 C   0  0  0  0  0  0  0  0  0  0  0  0
   44.9713   13.0218   30.2423 C   0  0  0  0  0  0  0  0  0  0  0  0
   44.2323   11.8950   30.9278 C   0  0  0  0  0  0  0  0  0  0  0  0
   43.6497   10.8931   29.9363 C   0  0  0  0  0  0  0  0  0  0  0  0
   43.0707   12.5179   31.6930 C   0  0  0  0  0  0  0  0  0  0  0  0
   42.2034   11.4781   32.3715 C   0  0  0  0  0  0  0  0  0  0  0  0
   42.8891   10.1443   32.2041 C   0  0  0  0  0  0  0  0  0  0  0  0
   43.0044    9.8144   30.7316 C   0  0  0  0  0  0  0  0  0  0  0  0
   43.6786   13.3832   32.7706 C   0  0  0  0  0  0  0  0  0  0  0  0
   43.5331   12.5297   34.0091 C   0  0  0  0  0  0  0  0  0  0  0  0
   42.1605   11.9303   33.8021 C   0  0  0  0  0  0  0  0  0  0  0  0
   47.1550    9.8896   26.0228 O   0  0  0  0  0  0  0  0  0  0  0  0
   45.8386    9.7215   29.5470 C   0  0  0  0  0  0  0  0  0  0  0  0
   40.8102   11.3994   31.8403 C   0  0  0  0  0  0  0  0  0  0  0  0
   43.5860    8.5600   30.5544 O   0  0  0  0  0  0  0  0  0  0  0  0
   41.2622   12.9956   33.8669 O   0  0  0  0  0  0  0  0  0  0  0  0
   42.9558    7.8110   30.6848 H   0  0  0  0  0  0  0  0  0  0  0  0
   41.2189   13.5111   33.0247 H   0  0  0  0  0  0  0  0  0  0  0  0
   41.7682   10.9326   34.7890 C   0  0  0  0  0  0  0  0  0  0  0  0
   40.6679   10.3824   34.7452 O   0  0  0  0  0  0  0  0  0  0  0  0
   42.6773   10.5200   35.9103 C   0  0  0  0  0  0  0  0  0  0  0  0
   42.7869   11.4978   36.8684 O   0  0  0  0  0  0  0  0  0  0  0  0
   41.9979   12.0866   36.9443 H   0  0  0  0  0  0  0  0  0  0  0  0
  1  2  1  0  0  0
  2  3  1  0  0  0
  2 18  2  0  0  0
  3  4  2  0  0  0
  4  5  1  0  0  0
  4  7  1  0  0  0
  5  6  1  0  0  0
  5 19  1  0  0  0
  6  1  1  0  0  0
  7  8  1  0  0  0
  9  8  1  0  0  0
  9 10  1  0  0  0
  9 11  1  0  0  0
 10  5  1  0  0  0
 10 14  1  0  0  0
 11 12  1  0  0  0
 11 15  1  0  0  0
 12 13  1  0  0  0
 12 20  1  0  0  0
 13 14  1  0  0  0
 14 21  1  0  0  0
 15 16  1  0  0  0
 16 17  1  0  0  0
 17 12  1  0  0  0
 17 25  1  0  0  0
 17 22  1  0  0  0
 25 26  2  0  0  0
 25 27  1  0  0  0
 27 28  1  0  0  0
 21 23  1  0  0  0
 28 29  1  0  0  0
 22 24  1  0  0  0
M  END
> <minimizedAffinity>
-7.65261

$$$$
CETACORT (hydrocortisone).cdx


 29 32  0  0  0  0  0  0  0  0999 V2000
   44.6571   16.7580   33.0726 C   0  0  0  0  0  0  0  0  0  0  0  0
   43.6492   17.5632   32.3021 C   0  0  0  0  0  0  0  0  0  0  0  0
   42.9138   16.8696   31.2337 C   0  0  0  0  0  0  0  0  0  0  0  0
   42.6069   15.5877   31.3601 C   0  0  0  0  0  0  0  0  0  0  0  0
   43.0473   14.9136   32.6291 C   0  0  0  0  0  0  0  0  0  0  0  0
   44.5096   15.2884   32.7505 C   0  0  0  0  0  0  0  0  0  0  0  0
   41.8683   14.8204   30.3224 C   0  0  0  0  0  0  0  0  0  0  0  0
   40.8775   13.9133   30.9779 C   0  0  0  0  0  0  0  0  0  0  0  0
   41.4821   13.0466   32.0590 C   0  0  0  0  0  0  0  0  0  0  0  0
   42.9217   13.4351   32.3792 C   0  0  0  0  0  0  0  0  0  0  0  0
   41.4944   11.6155   31.5348 C   0  0  0  0  0  0  0  0  0  0  0  0
   42.1462   10.6517   32.5044 C   0  0  0  0  0  0  0  0  0  0  0  0
   42.4233   11.4149   33.7765 C   0  0  0  0  0  0  0  0  0  0  0  0
   43.3773   12.5536   33.4874 C   0  0  0  0  0  0  0  0  0  0  0  0
   40.0511   11.2018   31.3761 C   0  0  0  0  0  0  0  0  0  0  0  0
   39.8111   10.3438   32.5966 C   0  0  0  0  0  0  0  0  0  0  0  0
   41.1124    9.5791   32.6877 C   0  0  0  0  0  0  0  0  0  0  0  0
   43.4261   18.7579   32.5330 O   0  0  0  0  0  0  0  0  0  0  0  0
   42.2722   15.4042   33.7991 C   0  0  0  0  0  0  0  0  0  0  0  0
   43.4091   10.0346   32.0010 C   0  0  0  0  0  0  0  0  0  0  0  0
   43.6911   13.2398   34.6594 O   0  0  0  0  0  0  0  0  0  0  0  0
   41.1611    8.7672   31.5544 O   0  0  0  0  0  0  0  0  0  0  0  0
   44.3769   12.7893   35.2088 H   0  0  0  0  0  0  0  0  0  0  0  0
   41.4477    9.2569   30.7451 H   0  0  0  0  0  0  0  0  0  0  0  0
   41.2507    8.7360   33.8680 C   0  0  0  0  0  0  0  0  0  0  0  0
   40.7972    9.0785   34.9599 O   0  0  0  0  0  0  0  0  0  0  0  0
   41.9502    7.4083   33.8218 C   0  0  0  0  0  0  0  0  0  0  0  0
   41.2056    6.4585   33.1664 O   0  0  0  0  0  0  0  0  0  0  0  0
   40.5943    6.8196   32.4802 H   0  0  0  0  0  0  0  0  0  0  0  0
  1  2  1  0  0  0
  2  3  1  0  0  0
  2 18  2  0  0  0
  3  4  2  0  0  0
  4  5  1  0  0  0
  4  7  1  0  0  0
  5  6  1  0  0  0
  5 19  1  0  0  0
  6  1  1  0  0  0
  7  8  1  0  0  0
  9  8  1  0  0  0
  9 10  1  0  0  0
  9 11  1  0  0  0
 10  5  1  0  0  0
 10 14  1  0  0  0
 11 12  1  0  0  0
 11 15  1  0  0  0
 12 13  1  0  0  0
 12 20  1  0  0  0
 13 14  1  0  0  0
 14 21  1  0  0  0
 15 16  1  0  0  0
 16 17  1  0  0  0
 17 12  1  0  0  0
 17 25  1  0  0  0
 17 22  1  0  0  0
 25 26  2  0  0  0
 25 27  1  0  0  0
 27 28  1  0  0  0
 21 23  1  0  0  0
 28 29  1  0  0  0
 22 24  1  0  0  0
M  END
> <minimizedAffinity>
-7.64029

$$$$
