D-Allothreonine


 12 11  0  0  0  0  0  0  0  0999 V2000
   43.9168   17.1896   32.7833 C   0  0  0  0  0  0  0  0  0  0  0  0
   43.4783   16.4781   33.9771 N   0  0  0  0  0  0  0  0  0  0  0  0
   44.2143   15.8407   34.3423 H   0  0  0  0  0  0  0  0  0  0  0  0
   43.1092   17.1153   34.7146 H   0  0  0  0  0  0  0  0  0  0  0  0
   44.8393   18.3413   33.1439 C   0  0  0  0  0  0  0  0  0  0  0  0
   46.1985   18.0793   32.5717 C   0  0  0  0  0  0  0  0  0  0  0  0
   44.3188   19.5649   32.8247 O   0  0  0  0  0  0  0  0  0  0  0  0
   43.5030   19.5306   32.2617 H   0  0  0  0  0  0  0  0  0  0  0  0
   42.7665   17.6207   31.9833 C   0  0  0  0  0  0  0  0  0  0  0  0
   41.5493   17.9564   32.5858 O   0  0  0  0  0  0  0  0  0  0  0  0
   42.7869   17.7193   30.7189 O   0  0  0  0  0  0  0  0  0  0  0  0
   40.9837   18.7153   32.1819 H   0  0  0  0  0  0  0  0  0  0  0  0
  1  5  1  0  0  0
  1  9  1  0  0  0
  1  2  1  0  0  0
  5  6  1  0  0  0
  5  7  1  0  0  0
  9 10  1  0  0  0
  9 11  2  0  0  0
  2  3  1  0  0  0
  2  4  1  0  0  0
  7  8  1  0  0  0
 10 12  1  0  0  0
M  END
> <minimizedAffinity>
-4.82390

$$$$
D-Allothreonine


 12 11  0  0  0  0  0  0  0  0999 V2000
   42.8414   16.8734   32.3794 C   0  0  0  0  0  0  0  0  0  0  0  0
   41.8227   17.9047   32.5287 N   0  0  0  0  0  0  0  0  0  0  0  0
   40.9455   17.6605   32.0264 H   0  0  0  0  0  0  0  0  0  0  0  0
   41.6476   18.1588   33.5242 H   0  0  0  0  0  0  0  0  0  0  0  0
   42.5595   15.6933   33.2934 C   0  0  0  0  0  0  0  0  0  0  0  0
   43.5783   14.6242   33.0431 C   0  0  0  0  0  0  0  0  0  0  0  0
   42.4285   16.0518   34.6065 O   0  0  0  0  0  0  0  0  0  0  0  0
   42.6947   16.9861   34.8062 H   0  0  0  0  0  0  0  0  0  0  0  0
   44.1812   17.4331   32.5820 C   0  0  0  0  0  0  0  0  0  0  0  0
   44.6845   17.6623   33.8671 O   0  0  0  0  0  0  0  0  0  0  0  0
   44.9641   17.7436   31.6336 O   0  0  0  0  0  0  0  0  0  0  0  0
   45.6882   17.5200   34.0439 H   0  0  0  0  0  0  0  0  0  0  0  0
  1  5  1  0  0  0
  1  9  1  0  0  0
  1  2  1  0  0  0
  5  6  1  0  0  0
  5  7  1  0  0  0
  9 10  1  0  0  0
  9 11  2  0  0  0
  2  3  1  0  0  0
  2  4  1  0  0  0
  7  8  1  0  0  0
 10 12  1  0  0  0
M  END
> <minimizedAffinity>
-4.80033

$$$$
D-Allothreonine


 12 11  0  0  0  0  0  0  0  0999 V2000
   42.6796   15.9888   32.1636 C   0  0  0  0  0  0  0  0  0  0  0  0
   41.4992   15.1365   32.1001 N   0  0  0  0  0  0  0  0  0  0  0  0
   41.7496   14.1285   32.0493 H   0  0  0  0  0  0  0  0  0  0  0  0
   40.8167   15.3338   32.8626 H   0  0  0  0  0  0  0  0  0  0  0  0
   43.2752   15.9907   33.5609 C   0  0  0  0  0  0  0  0  0  0  0  0
   44.4312   16.9424   33.6005 C   0  0  0  0  0  0  0  0  0  0  0  0
   42.3431   16.1938   34.5405 O   0  0  0  0  0  0  0  0  0  0  0  0
   41.4514   16.4734   34.2081 H   0  0  0  0  0  0  0  0  0  0  0  0
   42.3722   17.3391   31.6824 C   0  0  0  0  0  0  0  0  0  0  0  0
   41.5694   18.2092   32.4278 O   0  0  0  0  0  0  0  0  0  0  0  0
   42.7989   17.8080   30.5838 O   0  0  0  0  0  0  0  0  0  0  0  0
   41.7793   19.2165   32.4168 H   0  0  0  0  0  0  0  0  0  0  0  0
  1  5  1  0  0  0
  1  9  1  0  0  0
  1  2  1  0  0  0
  5  6  1  0  0  0
  5  7  1  0  0  0
  9 10  1  0  0  0
  9 11  2  0  0  0
  2  3  1  0  0  0
  2  4  1  0  0  0
  7  8  1  0  0  0
 10 12  1  0  0  0
M  END
> <minimizedAffinity>
-4.70883

$$$$
D-Allothreonine


 12 11  0  0  0  0  0  0  0  0999 V2000
   45.4149   18.0529   33.0675 C   0  0  0  0  0  0  0  0  0  0  0  0
   46.3754   17.2617   32.3091 N   0  0  0  0  0  0  0  0  0  0  0  0
   46.2635   16.2426   32.4833 H   0  0  0  0  0  0  0  0  0  0  0  0
   46.3727   17.4890   31.2920 H   0  0  0  0  0  0  0  0  0  0  0  0
   44.0438   18.0169   32.4148 C   0  0  0  0  0  0  0  0  0  0  0  0
   43.3288   16.7724   32.8432 C   0  0  0  0  0  0  0  0  0  0  0  0
   43.3315   19.1693   32.6004 O   0  0  0  0  0  0  0  0  0  0  0  0
   43.7262   19.7948   33.2612 H   0  0  0  0  0  0  0  0  0  0  0  0
   45.9075   19.4197   33.2641 C   0  0  0  0  0  0  0  0  0  0  0  0
   45.8486   20.3665   32.2359 O   0  0  0  0  0  0  0  0  0  0  0  0
   46.4108   19.8359   34.3515 O   0  0  0  0  0  0  0  0  0  0  0  0
   45.6641   21.3509   32.4724 H   0  0  0  0  0  0  0  0  0  0  0  0
  1  5  1  0  0  0
  1  9  1  0  0  0
  1  2  1  0  0  0
  5  6  1  0  0  0
  5  7  1  0  0  0
  9 10  1  0  0  0
  9 11  2  0  0  0
  2  3  1  0  0  0
  2  4  1  0  0  0
  7  8  1  0  0  0
 10 12  1  0  0  0
M  END
> <minimizedAffinity>
-4.68722

$$$$
D-Allothreonine


 12 11  0  0  0  0  0  0  0  0999 V2000
   43.3202   16.1158   32.5438 C   0  0  0  0  0  0  0  0  0  0  0  0
   44.7750   16.1243   32.4594 N   0  0  0  0  0  0  0  0  0  0  0  0
   45.1107   15.8809   31.5058 H   0  0  0  0  0  0  0  0  0  0  0  0
   45.1950   17.0117   32.8091 H   0  0  0  0  0  0  0  0  0  0  0  0
   42.7321   17.3771   31.9348 C   0  0  0  0  0  0  0  0  0  0  0  0
   42.5271   17.1637   30.4665 C   0  0  0  0  0  0  0  0  0  0  0  0
   41.6254   17.8275   32.5997 O   0  0  0  0  0  0  0  0  0  0  0  0
   41.2635   17.1944   33.2719 H   0  0  0  0  0  0  0  0  0  0  0  0
   42.8810   15.9022   33.9261 C   0  0  0  0  0  0  0  0  0  0  0  0
   41.8745   14.9801   34.2328 O   0  0  0  0  0  0  0  0  0  0  0  0
   43.3668   16.5202   34.9215 O   0  0  0  0  0  0  0  0  0  0  0  0
   41.9353   14.4469   35.1108 H   0  0  0  0  0  0  0  0  0  0  0  0
  1  5  1  0  0  0
  1  9  1  0  0  0
  1  2  1  0  0  0
  5  6  1  0  0  0
  5  7  1  0  0  0
  9 10  1  0  0  0
  9 11  2  0  0  0
  2  3  1  0  0  0
  2  4  1  0  0  0
  7  8  1  0  0  0
 10 12  1  0  0  0
M  END
> <minimizedAffinity>
-4.52625

$$$$
