Deoxycorticosterone acetate.cdx


 27 30  0  0  0  0  0  0  0  0999 V2000
   46.0286    9.1942   28.7545 C   0  0  0  0  0  0  0  0  0  0  0  0
   45.1466    8.0097   28.6167 C   0  0  0  0  0  0  0  0  0  0  0  0
   44.1143    7.8588   29.6667 C   0  0  0  0  0  0  0  0  0  0  0  0
   43.5855    8.9871   30.1043 C   0  0  0  0  0  0  0  0  0  0  0  0
   43.9366   10.3306   29.6376 C   0  0  0  0  0  0  0  0  0  0  0  0
   45.2155   10.4321   28.8516 C   0  0  0  0  0  0  0  0  0  0  0  0
   42.5352    8.8893   31.1777 C   0  0  0  0  0  0  0  0  0  0  0  0
   43.0373    9.7695   32.3334 C   0  0  0  0  0  0  0  0  0  0  0  0
   42.9137   11.1731   31.7966 C   0  0  0  0  0  0  0  0  0  0  0  0
   43.9859   11.3527   30.7378 C   0  0  0  0  0  0  0  0  0  0  0  0
   43.2571   12.1451   32.8553 C   0  0  0  0  0  0  0  0  0  0  0  0
   43.0844   13.5946   32.3766 C   0  0  0  0  0  0  0  0  0  0  0  0
   44.0443   13.7912   31.2489 C   0  0  0  0  0  0  0  0  0  0  0  0
   43.9175   12.7581   30.1811 C   0  0  0  0  0  0  0  0  0  0  0  0
   42.4570   12.1259   34.0977 C   0  0  0  0  0  0  0  0  0  0  0  0
   42.6129   13.5363   34.6588 C   0  0  0  0  0  0  0  0  0  0  0  0
   43.4562   14.2815   33.6365 C   0  0  0  0  0  0  0  0  0  0  0  0
   45.2322    7.1688   27.6935 O   0  0  0  0  0  0  0  0  0  0  0  0
   42.8185   10.7197   28.6493 C   0  0  0  0  0  0  0  0  0  0  0  0
   41.6572   13.7691   31.9490 C   0  0  0  0  0  0  0  0  0  0  0  0
   43.2271   15.7263   33.6829 C   0  0  0  0  0  0  0  0  0  0  0  0
   42.5584   16.2806   34.5699 O   0  0  0  0  0  0  0  0  0  0  0  0
   43.7901   16.6431   32.6518 C   0  0  0  0  0  0  0  0  0  0  0  0
   44.3569   17.7464   33.3305 O   0  0  0  0  0  0  0  0  0  0  0  0
   45.4847   18.4121   32.8727 C   0  0  0  0  0  0  0  0  0  0  0  0
   45.8107   18.3362   31.6693 O   0  0  0  0  0  0  0  0  0  0  0  0
   46.2942   19.2098   33.8215 C   0  0  0  0  0  0  0  0  0  0  0  0
  1  2  1  0  0  0
  2  3  1  0  0  0
  2 18  2  0  0  0
  3  4  2  0  0  0
  4  5  1  0  0  0
  4  7  1  0  0  0
  5  6  1  0  0  0
  5 19  1  0  0  0
  6  1  1  0  0  0
  7  8  1  0  0  0
  9  8  1  0  0  0
  9 10  1  0  0  0
  9 11  1  0  0  0
 10  5  1  0  0  0
 10 14  1  0  0  0
 11 12  1  0  0  0
 11 15  1  0  0  0
 12 13  1  0  0  0
 12 20  1  0  0  0
 13 14  1  0  0  0
 15 16  1  0  0  0
 16 17  1  0  0  0
 17 12  1  0  0  0
 17 21  1  0  0  0
 21 23  1  0  0  0
 21 22  2  0  0  0
 23 24  1  0  0  0
 24 25  1  0  0  0
 25 26  2  0  0  0
 25 27  1  0  0  0
M  END
> <minimizedAffinity>
-9.05307

$$$$
Deoxycorticosterone acetate.cdx


 27 30  0  0  0  0  0  0  0  0999 V2000
   42.0319    8.8701   34.8364 C   0  0  0  0  0  0  0  0  0  0  0  0
   41.2276   10.0258   35.3026 C   0  0  0  0  0  0  0  0  0  0  0  0
   41.6006   11.3362   34.7239 C   0  0  0  0  0  0  0  0  0  0  0  0
   41.9822   11.3066   33.4599 C   0  0  0  0  0  0  0  0  0  0  0  0
   42.0578   10.1087   32.6199 C   0  0  0  0  0  0  0  0  0  0  0  0
   42.0146    8.7962   33.3542 C   0  0  0  0  0  0  0  0  0  0  0  0
   42.3788   12.6123   32.8254 C   0  0  0  0  0  0  0  0  0  0  0  0
   43.8012   12.3975   32.2841 C   0  0  0  0  0  0  0  0  0  0  0  0
   43.6070   11.4482   31.1289 C   0  0  0  0  0  0  0  0  0  0  0  0
   43.2519   10.0912   31.7082 C   0  0  0  0  0  0  0  0  0  0  0  0
   44.8930   11.2400   30.4315 C   0  0  0  0  0  0  0  0  0  0  0  0
   44.7356   10.3285   29.2048 C   0  0  0  0  0  0  0  0  0  0  0  0
   44.2728    9.0020   29.7126 C   0  0  0  0  0  0  0  0  0  0  0  0
   43.0672    9.0938   30.5854 C   0  0  0  0  0  0  0  0  0  0  0  0
   45.5695   12.4234   29.8603 C   0  0  0  0  0  0  0  0  0  0  0  0
   46.4436   11.8483   28.7497 C   0  0  0  0  0  0  0  0  0  0  0  0
   46.1412   10.3584   28.7347 C   0  0  0  0  0  0  0  0  0  0  0  0
   40.2893    9.9468   36.1273 O   0  0  0  0  0  0  0  0  0  0  0  0
   40.7779   10.1374   31.7600 C   0  0  0  0  0  0  0  0  0  0  0  0
   43.7385   10.9674   28.2841 C   0  0  0  0  0  0  0  0  0  0  0  0
   46.4033    9.7572   27.4263 C   0  0  0  0  0  0  0  0  0  0  0  0
   46.9021    8.6293   27.2839 O   0  0  0  0  0  0  0  0  0  0  0  0
   46.0839   10.4702   26.1574 C   0  0  0  0  0  0  0  0  0  0  0  0
   47.3101   10.8514   25.5656 O   0  0  0  0  0  0  0  0  0  0  0  0
   47.6220   12.1692   25.2643 C   0  0  0  0  0  0  0  0  0  0  0  0
   48.8144   12.5136   25.1240 O   0  0  0  0  0  0  0  0  0  0  0  0
   46.5312   13.1585   25.1115 C   0  0  0  0  0  0  0  0  0  0  0  0
  1  2  1  0  0  0
  2  3  1  0  0  0
  2 18  2  0  0  0
  3  4  2  0  0  0
  4  5  1  0  0  0
  4  7  1  0  0  0
  5  6  1  0  0  0
  5 19  1  0  0  0
  6  1  1  0  0  0
  7  8  1  0  0  0
  9  8  1  0  0  0
  9 10  1  0  0  0
  9 11  1  0  0  0
 10  5  1  0  0  0
 10 14  1  0  0  0
 11 12  1  0  0  0
 11 15  1  0  0  0
 12 13  1  0  0  0
 12 20  1  0  0  0
 13 14  1  0  0  0
 15 16  1  0  0  0
 16 17  1  0  0  0
 17 12  1  0  0  0
 17 21  1  0  0  0
 21 23  1  0  0  0
 21 22  2  0  0  0
 23 24  1  0  0  0
 24 25  1  0  0  0
 25 26  2  0  0  0
 25 27  1  0  0  0
M  END
> <minimizedAffinity>
-8.34552

$$$$
Deoxycorticosterone acetate.cdx


 27 30  0  0  0  0  0  0  0  0999 V2000
   38.7393    9.6895   31.0324 C   0  0  0  0  0  0  0  0  0  0  0  0
   39.2313    8.3629   31.4774 C   0  0  0  0  0  0  0  0  0  0  0  0
   40.6865    8.2771   31.7350 C   0  0  0  0  0  0  0  0  0  0  0  0
   41.2304    9.3579   32.2644 C   0  0  0  0  0  0  0  0  0  0  0  0
   40.5179   10.5921   32.6038 C   0  0  0  0  0  0  0  0  0  0  0  0
   39.1490   10.7400   31.9974 C   0  0  0  0  0  0  0  0  0  0  0  0
   42.7096    9.3248   32.5399 C   0  0  0  0  0  0  0  0  0  0  0  0
   43.2990   10.5337   31.7959 C   0  0  0  0  0  0  0  0  0  0  0  0
   42.7862   11.7196   32.5732 C   0  0  0  0  0  0  0  0  0  0  0  0
   41.2988   11.8382   32.2960 C   0  0  0  0  0  0  0  0  0  0  0  0
   43.3746   12.9632   32.0337 C   0  0  0  0  0  0  0  0  0  0  0  0
   42.9324   14.1975   32.8344 C   0  0  0  0  0  0  0  0  0  0  0  0
   41.4488   14.2947   32.6882 C   0  0  0  0  0  0  0  0  0  0  0  0
   40.7387   13.0313   33.0391 C   0  0  0  0  0  0  0  0  0  0  0  0
   44.8468   13.0922   32.0427 C   0  0  0  0  0  0  0  0  0  0  0  0
   45.0851   14.5994   32.0351 C   0  0  0  0  0  0  0  0  0  0  0  0
   43.6993   15.2228   32.0872 C   0  0  0  0  0  0  0  0  0  0  0  0
   38.5040    7.3569   31.6376 O   0  0  0  0  0  0  0  0  0  0  0  0
   40.2837   10.5173   34.1263 C   0  0  0  0  0  0  0  0  0  0  0  0
   43.3540   13.9945   34.2595 C   0  0  0  0  0  0  0  0  0  0  0  0
   43.7227   16.5675   32.6643 C   0  0  0  0  0  0  0  0  0  0  0  0
   42.7008   17.1639   33.0404 O   0  0  0  0  0  0  0  0  0  0  0  0
   44.9949   17.3229   32.8416 C   0  0  0  0  0  0  0  0  0  0  0  0
   44.6992   18.6954   32.6744 O   0  0  0  0  0  0  0  0  0  0  0  0
   45.6072   19.7016   32.9710 C   0  0  0  0  0  0  0  0  0  0  0  0
   45.6901   20.7066   32.2340 O   0  0  0  0  0  0  0  0  0  0  0  0
   46.4728   19.5719   34.1650 C   0  0  0  0  0  0  0  0  0  0  0  0
  1  2  1  0  0  0
  2  3  1  0  0  0
  2 18  2  0  0  0
  3  4  2  0  0  0
  4  5  1  0  0  0
  4  7  1  0  0  0
  5  6  1  0  0  0
  5 19  1  0  0  0
  6  1  1  0  0  0
  7  8  1  0  0  0
  9  8  1  0  0  0
  9 10  1  0  0  0
  9 11  1  0  0  0
 10  5  1  0  0  0
 10 14  1  0  0  0
 11 12  1  0  0  0
 11 15  1  0  0  0
 12 13  1  0  0  0
 12 20  1  0  0  0
 13 14  1  0  0  0
 15 16  1  0  0  0
 16 17  1  0  0  0
 17 12  1  0  0  0
 17 21  1  0  0  0
 21 23  1  0  0  0
 21 22  2  0  0  0
 23 24  1  0  0  0
 24 25  1  0  0  0
 25 26  2  0  0  0
 25 27  1  0  0  0
M  END
> <minimizedAffinity>
-8.19095

$$$$
Deoxycorticosterone acetate.cdx


 27 30  0  0  0  0  0  0  0  0999 V2000
   41.9755    8.2093   35.1206 C   0  0  0  0  0  0  0  0  0  0  0  0
   41.1259    9.2288   35.7828 C   0  0  0  0  0  0  0  0  0  0  0  0
   41.4050   10.6328   35.4057 C   0  0  0  0  0  0  0  0  0  0  0  0
   41.7421   10.8214   34.1428 C   0  0  0  0  0  0  0  0  0  0  0  0
   41.8536    9.7741   33.1246 C   0  0  0  0  0  0  0  0  0  0  0  0
   41.9093    8.3639   33.6460 C   0  0  0  0  0  0  0  0  0  0  0  0
   42.0430   12.2308   33.7094 C   0  0  0  0  0  0  0  0  0  0  0  0
   43.4548   12.1879   33.1033 C   0  0  0  0  0  0  0  0  0  0  0  0
   43.2721   11.4181   31.8197 C   0  0  0  0  0  0  0  0  0  0  0  0
   43.0134    9.9691   32.1896 C   0  0  0  0  0  0  0  0  0  0  0  0
   44.5419   11.3975   31.0641 C   0  0  0  0  0  0  0  0  0  0  0  0
   44.3912   10.6783   29.7150 C   0  0  0  0  0  0  0  0  0  0  0  0
   44.0208    9.2639   30.0219 C   0  0  0  0  0  0  0  0  0  0  0  0
   42.8440    9.1475   30.9303 C   0  0  0  0  0  0  0  0  0  0  0  0
   45.1310   12.6934   30.6667 C   0  0  0  0  0  0  0  0  0  0  0  0
   45.9953   12.3500   29.4569 C   0  0  0  0  0  0  0  0  0  0  0  0
   45.7752   10.8648   29.2178 C   0  0  0  0  0  0  0  0  0  0  0  0
   40.2234    8.9674   36.6099 O   0  0  0  0  0  0  0  0  0  0  0  0
   40.5441    9.8580   32.3142 C   0  0  0  0  0  0  0  0  0  0  0  0
   43.3280   11.3904   28.9323 C   0  0  0  0  0  0  0  0  0  0  0  0
   46.0231   10.4893   27.8251 C   0  0  0  0  0  0  0  0  0  0  0  0
   45.9556   11.2935   26.8817 O   0  0  0  0  0  0  0  0  0  0  0  0
   46.3787    9.0943   27.4404 C   0  0  0  0  0  0  0  0  0  0  0  0
   47.1617    9.1657   26.2652 O   0  0  0  0  0  0  0  0  0  0  0  0
   46.8133    8.5177   25.0890 C   0  0  0  0  0  0  0  0  0  0  0  0
   46.1114    9.1021   24.2370 O   0  0  0  0  0  0  0  0  0  0  0  0
   47.2801    7.1323   24.8557 C   0  0  0  0  0  0  0  0  0  0  0  0
  1  2  1  0  0  0
  2  3  1  0  0  0
  2 18  2  0  0  0
  3  4  2  0  0  0
  4  5  1  0  0  0
  4  7  1  0  0  0
  5  6  1  0  0  0
  5 19  1  0  0  0
  6  1  1  0  0  0
  7  8  1  0  0  0
  9  8  1  0  0  0
  9 10  1  0  0  0
  9 11  1  0  0  0
 10  5  1  0  0  0
 10 14  1  0  0  0
 11 12  1  0  0  0
 11 15  1  0  0  0
 12 13  1  0  0  0
 12 20  1  0  0  0
 13 14  1  0  0  0
 15 16  1  0  0  0
 16 17  1  0  0  0
 17 12  1  0  0  0
 17 21  1  0  0  0
 21 23  1  0  0  0
 21 22  2  0  0  0
 23 24  1  0  0  0
 24 25  1  0  0  0
 25 26  2  0  0  0
 25 27  1  0  0  0
M  END
> <minimizedAffinity>
-8.07072

$$$$
Deoxycorticosterone acetate.cdx


 27 30  0  0  0  0  0  0  0  0999 V2000
   41.8762   18.1612   27.9954 C   0  0  0  0  0  0  0  0  0  0  0  0
   41.4511   18.9768   26.8318 C   0  0  0  0  0  0  0  0  0  0  0  0
   42.2301   18.7696   25.5903 C   0  0  0  0  0  0  0  0  0  0  0  0
   42.6287   17.5291   25.3747 C   0  0  0  0  0  0  0  0  0  0  0  0
   42.3613   16.3838   26.2481 C   0  0  0  0  0  0  0  0  0  0  0  0
   41.8897   16.7211   27.6364 C   0  0  0  0  0  0  0  0  0  0  0  0
   43.4306   17.2660   24.1287 C   0  0  0  0  0  0  0  0  0  0  0  0
   44.7359   16.6085   24.6044 C   0  0  0  0  0  0  0  0  0  0  0  0
   44.2998   15.2457   25.0800 C   0  0  0  0  0  0  0  0  0  0  0  0
   43.5235   15.4394   26.3696 C   0  0  0  0  0  0  0  0  0  0  0  0
   45.4831   14.4481   25.4638 C   0  0  0  0  0  0  0  0  0  0  0  0
   45.0962   13.0255   25.8959 C   0  0  0  0  0  0  0  0  0  0  0  0
   44.2295   13.1651   27.1046 C   0  0  0  0  0  0  0  0  0  0  0  0
   43.0806   14.0937   26.9010 C   0  0  0  0  0  0  0  0  0  0  0  0
   46.5111   14.1958   24.4324 C   0  0  0  0  0  0  0  0  0  0  0  0
   47.2045   12.9219   24.9065 C   0  0  0  0  0  0  0  0  0  0  0  0
   46.4584   12.5058   26.1643 C   0  0  0  0  0  0  0  0  0  0  0  0
   40.5054   19.7965   26.8514 O   0  0  0  0  0  0  0  0  0  0  0  0
   41.1840   15.6385   25.5872 C   0  0  0  0  0  0  0  0  0  0  0  0
   44.3779   12.3777   24.7494 C   0  0  0  0  0  0  0  0  0  0  0  0
   46.5689   11.0689   26.4192 C   0  0  0  0  0  0  0  0  0  0  0  0
   46.5527   10.5773   27.5591 O   0  0  0  0  0  0  0  0  0  0  0  0
   46.7103   10.0842   25.3098 C   0  0  0  0  0  0  0  0  0  0  0  0
   47.4558    8.9904   25.8069 O   0  0  0  0  0  0  0  0  0  0  0  0
   46.9706    7.6907   25.8134 C   0  0  0  0  0  0  0  0  0  0  0  0
   46.3058    7.2759   26.7860 O   0  0  0  0  0  0  0  0  0  0  0  0
   47.2482    6.8047   24.6602 C   0  0  0  0  0  0  0  0  0  0  0  0
  1  2  1  0  0  0
  2  3  1  0  0  0
  2 18  2  0  0  0
  3  4  2  0  0  0
  4  5  1  0  0  0
  4  7  1  0  0  0
  5  6  1  0  0  0
  5 19  1  0  0  0
  6  1  1  0  0  0
  7  8  1  0  0  0
  9  8  1  0  0  0
  9 10  1  0  0  0
  9 11  1  0  0  0
 10  5  1  0  0  0
 10 14  1  0  0  0
 11 12  1  0  0  0
 11 15  1  0  0  0
 12 13  1  0  0  0
 12 20  1  0  0  0
 13 14  1  0  0  0
 15 16  1  0  0  0
 16 17  1  0  0  0
 17 12  1  0  0  0
 17 21  1  0  0  0
 21 23  1  0  0  0
 21 22  2  0  0  0
 23 24  1  0  0  0
 24 25  1  0  0  0
 25 26  2  0  0  0
 25 27  1  0  0  0
M  END
> <minimizedAffinity>
-7.80057

$$$$
