DMXAA.cdx


 22 24  0  0  0  0  0  0  0  0999 V2000
   44.5754   12.1489   30.3171 C   0  0  0  0  0  0  0  0  0  0  0  0
   44.1762   10.8375   30.1644 C   0  0  0  0  0  0  0  0  0  0  0  0
   44.3909   10.1115   29.0086 C   0  0  0  0  0  0  0  0  0  0  0  0
   45.0362   10.7326   27.9595 C   0  0  0  0  0  0  0  0  0  0  0  0
   45.4487   12.0436   28.0793 C   0  0  0  0  0  0  0  0  0  0  0  0
   45.2262   12.7609   29.2467 C   0  0  0  0  0  0  0  0  0  0  0  0
   44.3375   12.8452   31.5050 C   0  0  0  0  0  0  0  0  0  0  0  0
   43.6784   12.1575   32.5306 C   0  0  0  0  0  0  0  0  0  0  0  0
   43.3000   10.8272   32.3103 C   0  0  0  0  0  0  0  0  0  0  0  0
   43.5634   10.2500   31.1631 O   0  0  0  0  0  0  0  0  0  0  0  0
   43.4069   12.7766   33.7339 C   0  0  0  0  0  0  0  0  0  0  0  0
   42.7569   12.1260   34.7692 C   0  0  0  0  0  0  0  0  0  0  0  0
   42.3786   10.7985   34.5508 C   0  0  0  0  0  0  0  0  0  0  0  0
   42.6518   10.1849   33.3483 C   0  0  0  0  0  0  0  0  0  0  0  0
   42.2534    8.7689   33.1046 C   0  0  0  0  0  0  0  0  0  0  0  0
   41.6717   10.0536   35.6423 C   0  0  0  0  0  0  0  0  0  0  0  0
   44.6998   14.0303   31.6393 O   0  0  0  0  0  0  0  0  0  0  0  0
   43.9211    8.7145   28.9534 C   0  0  0  0  0  0  0  0  0  0  0  0
   45.0578    7.8209   28.5333 C   0  0  0  0  0  0  0  0  0  0  0  0
   46.2849    7.8648   29.1659 O   0  0  0  0  0  0  0  0  0  0  0  0
   44.8432    7.0369   27.5871 O   0  0  0  0  0  0  0  0  0  0  0  0
   46.9363    7.0659   29.1396 H   0  0  0  0  0  0  0  0  0  0  0  0
  1  2  1  0  0  0
  1  7  1  0  0  0
  2  3  2  0  0  0
  3  4  1  0  0  0
  3 18  1  0  0  0
  4  5  2  0  0  0
  5  6  1  0  0  0
  6  1  2  0  0  0
  7  8  1  0  0  0
  7 17  2  0  0  0
  8  9  2  0  0  0
  8 11  1  0  0  0
  9 10  1  0  0  0
 10  2  1  0  0  0
 11 12  2  0  0  0
 12 13  1  0  0  0
 13 14  2  0  0  0
 13 16  1  0  0  0
 14  9  1  0  0  0
 14 15  1  0  0  0
 18 19  1  0  0  0
 19 20  1  0  0  0
 19 21  2  0  0  0
 20 22  1  0  0  0
M  END
> <minimizedAffinity>
-7.45634

$$$$
DMXAA.cdx


 22 24  0  0  0  0  0  0  0  0999 V2000
   43.6324   10.6661   30.9742 C   0  0  0  0  0  0  0  0  0  0  0  0
   43.6436   11.6979   31.8894 C   0  0  0  0  0  0  0  0  0  0  0  0
   44.1474   12.9532   31.6075 C   0  0  0  0  0  0  0  0  0  0  0  0
   44.6628   13.1806   30.3483 C   0  0  0  0  0  0  0  0  0  0  0  0
   44.6667   12.1702   29.4091 C   0  0  0  0  0  0  0  0  0  0  0  0
   44.1572   10.9137   29.7065 C   0  0  0  0  0  0  0  0  0  0  0  0
   43.1122    9.4116   31.3029 C   0  0  0  0  0  0  0  0  0  0  0  0
   42.6047    9.2466   32.5968 C   0  0  0  0  0  0  0  0  0  0  0  0
   42.6466   10.3350   33.4772 C   0  0  0  0  0  0  0  0  0  0  0  0
   43.1531   11.4788   33.0850 O   0  0  0  0  0  0  0  0  0  0  0  0
   42.0739    8.0371   32.9975 C   0  0  0  0  0  0  0  0  0  0  0  0
   41.5636    7.8395   34.2695 C   0  0  0  0  0  0  0  0  0  0  0  0
   41.6048    8.9248   35.1491 C   0  0  0  0  0  0  0  0  0  0  0  0
   42.1353   10.1297   34.7447 C   0  0  0  0  0  0  0  0  0  0  0  0
   42.1837   11.2943   35.6745 C   0  0  0  0  0  0  0  0  0  0  0  0
   41.0646    8.7582   36.5371 C   0  0  0  0  0  0  0  0  0  0  0  0
   43.1038    8.4814   30.4730 O   0  0  0  0  0  0  0  0  0  0  0  0
   44.1100   13.9836   32.6621 C   0  0  0  0  0  0  0  0  0  0  0  0
   43.2011   15.1050   32.2338 C   0  0  0  0  0  0  0  0  0  0  0  0
   41.8263   14.9825   32.2863 O   0  0  0  0  0  0  0  0  0  0  0  0
   43.7443   16.1521   31.8285 O   0  0  0  0  0  0  0  0  0  0  0  0
   41.2108   15.8085   32.3336 H   0  0  0  0  0  0  0  0  0  0  0  0
  1  2  1  0  0  0
  1  7  1  0  0  0
  2  3  2  0  0  0
  3  4  1  0  0  0
  3 18  1  0  0  0
  4  5  2  0  0  0
  5  6  1  0  0  0
  6  1  2  0  0  0
  7  8  1  0  0  0
  7 17  2  0  0  0
  8  9  2  0  0  0
  8 11  1  0  0  0
  9 10  1  0  0  0
 10  2  1  0  0  0
 11 12  2  0  0  0
 12 13  1  0  0  0
 13 14  2  0  0  0
 13 16  1  0  0  0
 14  9  1  0  0  0
 14 15  1  0  0  0
 18 19  1  0  0  0
 19 20  1  0  0  0
 19 21  2  0  0  0
 20 22  1  0  0  0
M  END
> <minimizedAffinity>
-7.45089

$$$$
DMXAA.cdx


 22 24  0  0  0  0  0  0  0  0999 V2000
   42.5081    9.8304   33.1861 C   0  0  0  0  0  0  0  0  0  0  0  0
   42.9993   11.1176   33.1225 C   0  0  0  0  0  0  0  0  0  0  0  0
   42.8651   12.0299   34.1515 C   0  0  0  0  0  0  0  0  0  0  0  0
   42.2073   11.6290   35.2959 C   0  0  0  0  0  0  0  0  0  0  0  0
   41.7039   10.3482   35.3922 C   0  0  0  0  0  0  0  0  0  0  0  0
   41.8461    9.4422   34.3502 C   0  0  0  0  0  0  0  0  0  0  0  0
   42.6671    8.9406   32.1205 C   0  0  0  0  0  0  0  0  0  0  0  0
   43.3438    9.4097   30.9887 C   0  0  0  0  0  0  0  0  0  0  0  0
   43.8172   10.7278   30.9891 C   0  0  0  0  0  0  0  0  0  0  0  0
   43.6240   11.4955   32.0339 O   0  0  0  0  0  0  0  0  0  0  0  0
   43.5409    8.5912   29.8950 C   0  0  0  0  0  0  0  0  0  0  0  0
   44.2057    9.0229   28.7595 C   0  0  0  0  0  0  0  0  0  0  0  0
   44.6787   10.3380   28.7584 C   0  0  0  0  0  0  0  0  0  0  0  0
   44.4797   11.1509   29.8523 C   0  0  0  0  0  0  0  0  0  0  0  0
   44.9805   12.5553   29.8622 C   0  0  0  0  0  0  0  0  0  0  0  0
   45.4038   10.8502   27.5511 C   0  0  0  0  0  0  0  0  0  0  0  0
   42.2217    7.7779   32.1818 O   0  0  0  0  0  0  0  0  0  0  0  0
   43.4287   13.3815   33.9764 C   0  0  0  0  0  0  0  0  0  0  0  0
   42.3141   14.3570   33.7060 C   0  0  0  0  0  0  0  0  0  0  0  0
   42.0568   15.4156   34.5552 O   0  0  0  0  0  0  0  0  0  0  0  0
   41.6312   14.1678   32.6795 O   0  0  0  0  0  0  0  0  0  0  0  0
   41.5582   16.2589   34.2333 H   0  0  0  0  0  0  0  0  0  0  0  0
  1  2  1  0  0  0
  1  7  1  0  0  0
  2  3  2  0  0  0
  3  4  1  0  0  0
  3 18  1  0  0  0
  4  5  2  0  0  0
  5  6  1  0  0  0
  6  1  2  0  0  0
  7  8  1  0  0  0
  7 17  2  0  0  0
  8  9  2  0  0  0
  8 11  1  0  0  0
  9 10  1  0  0  0
 10  2  1  0  0  0
 11 12  2  0  0  0
 12 13  1  0  0  0
 13 14  2  0  0  0
 13 16  1  0  0  0
 14  9  1  0  0  0
 14 15  1  0  0  0
 18 19  1  0  0  0
 19 20  1  0  0  0
 19 21  2  0  0  0
 20 22  1  0  0  0
M  END
> <minimizedAffinity>
-7.40677

$$$$
DMXAA.cdx


 22 24  0  0  0  0  0  0  0  0999 V2000
   42.7957   11.3179   33.9613 C   0  0  0  0  0  0  0  0  0  0  0  0
   42.5699   10.0650   33.4308 C   0  0  0  0  0  0  0  0  0  0  0  0
   41.9383    9.0518   34.1264 C   0  0  0  0  0  0  0  0  0  0  0  0
   41.5148    9.3111   35.4134 C   0  0  0  0  0  0  0  0  0  0  0  0
   41.7248   10.5539   35.9741 C   0  0  0  0  0  0  0  0  0  0  0  0
   42.3610   11.5623   35.2633 C   0  0  0  0  0  0  0  0  0  0  0  0
   43.4388   12.3132   33.2209 C   0  0  0  0  0  0  0  0  0  0  0  0
   43.8434   11.9858   31.9216 C   0  0  0  0  0  0  0  0  0  0  0  0
   43.5835   10.6952   31.4438 C   0  0  0  0  0  0  0  0  0  0  0  0
   42.9734    9.8217   32.2077 O   0  0  0  0  0  0  0  0  0  0  0  0
   44.4849   12.9146   31.1274 C   0  0  0  0  0  0  0  0  0  0  0  0
   44.8984   12.6242   29.8381 C   0  0  0  0  0  0  0  0  0  0  0  0
   44.6398   11.3367   29.3600 C   0  0  0  0  0  0  0  0  0  0  0  0
   43.9992   10.4133   30.1563 C   0  0  0  0  0  0  0  0  0  0  0  0
   43.7177    9.0371   29.6562 C   0  0  0  0  0  0  0  0  0  0  0  0
   45.0696   10.9758   27.9704 C   0  0  0  0  0  0  0  0  0  0  0  0
   43.6411   13.4445   33.7039 O   0  0  0  0  0  0  0  0  0  0  0  0
   41.7493    7.7488   33.4619 C   0  0  0  0  0  0  0  0  0  0  0  0
   40.2812    7.5200   33.2181 C   0  0  0  0  0  0  0  0  0  0  0  0
   39.5652    8.2982   32.3294 O   0  0  0  0  0  0  0  0  0  0  0  0
   39.7379    6.5950   33.8545 O   0  0  0  0  0  0  0  0  0  0  0  0
   38.6911    7.9619   31.8979 H   0  0  0  0  0  0  0  0  0  0  0  0
  1  2  1  0  0  0
  1  7  1  0  0  0
  2  3  2  0  0  0
  3  4  1  0  0  0
  3 18  1  0  0  0
  4  5  2  0  0  0
  5  6  1  0  0  0
  6  1  2  0  0  0
  7  8  1  0  0  0
  7 17  2  0  0  0
  8  9  2  0  0  0
  8 11  1  0  0  0
  9 10  1  0  0  0
 10  2  1  0  0  0
 11 12  2  0  0  0
 12 13  1  0  0  0
 13 14  2  0  0  0
 13 16  1  0  0  0
 14  9  1  0  0  0
 14 15  1  0  0  0
 18 19  1  0  0  0
 19 20  1  0  0  0
 19 21  2  0  0  0
 20 22  1  0  0  0
M  END
> <minimizedAffinity>
-7.21460

$$$$
DMXAA.cdx


 22 24  0  0  0  0  0  0  0  0999 V2000
   44.0017   12.3546   31.7170 C   0  0  0  0  0  0  0  0  0  0  0  0
   43.4156   11.2815   32.3552 C   0  0  0  0  0  0  0  0  0  0  0  0
   42.8857   11.3567   33.6290 C   0  0  0  0  0  0  0  0  0  0  0  0
   42.9480   12.5657   34.2902 C   0  0  0  0  0  0  0  0  0  0  0  0
   43.5274   13.6591   33.6804 C   0  0  0  0  0  0  0  0  0  0  0  0
   44.0560   13.5688   32.4001 C   0  0  0  0  0  0  0  0  0  0  0  0
   44.5251   12.2330   30.4271 C   0  0  0  0  0  0  0  0  0  0  0  0
   44.4299   10.9795   29.8118 C   0  0  0  0  0  0  0  0  0  0  0  0
   43.8229    9.9317   30.5154 C   0  0  0  0  0  0  0  0  0  0  0  0
   43.3578   10.1341   31.7243 O   0  0  0  0  0  0  0  0  0  0  0  0
   44.9236   10.7794   28.5385 C   0  0  0  0  0  0  0  0  0  0  0  0
   44.8461    9.5528   27.9005 C   0  0  0  0  0  0  0  0  0  0  0  0
   44.2407    8.5062   28.6015 C   0  0  0  0  0  0  0  0  0  0  0  0
   43.7495    8.7108   29.8718 C   0  0  0  0  0  0  0  0  0  0  0  0
   43.1011    7.6016   30.6286 C   0  0  0  0  0  0  0  0  0  0  0  0
   44.1345    7.1599   27.9518 C   0  0  0  0  0  0  0  0  0  0  0  0
   45.0540   13.2052   29.8535 O   0  0  0  0  0  0  0  0  0  0  0  0
   42.2825   10.1458   34.2167 C   0  0  0  0  0  0  0  0  0  0  0  0
   40.8346   10.4114   34.5330 C   0  0  0  0  0  0  0  0  0  0  0  0
   40.3764   10.4661   35.8349 O   0  0  0  0  0  0  0  0  0  0  0  0
   40.0645   10.5803   33.5664 O   0  0  0  0  0  0  0  0  0  0  0  0
   39.5107   10.9683   36.0833 H   0  0  0  0  0  0  0  0  0  0  0  0
  1  2  1  0  0  0
  1  7  1  0  0  0
  2  3  2  0  0  0
  3  4  1  0  0  0
  3 18  1  0  0  0
  4  5  2  0  0  0
  5  6  1  0  0  0
  6  1  2  0  0  0
  7  8  1  0  0  0
  7 17  2  0  0  0
  8  9  2  0  0  0
  8 11  1  0  0  0
  9 10  1  0  0  0
 10  2  1  0  0  0
 11 12  2  0  0  0
 12 13  1  0  0  0
 13 14  2  0  0  0
 13 16  1  0  0  0
 14  9  1  0  0  0
 14 15  1  0  0  0
 18 19  1  0  0  0
 19 20  1  0  0  0
 19 21  2  0  0  0
 20 22  1  0  0  0
M  END
> <minimizedAffinity>
-7.18051

$$$$
