Enrofloxacin.cdx


 27 30  0  0  0  0  0  0  0  0999 V2000
   43.6867   12.8126   32.7361 N   0  0  0  0  0  0  0  0  0  0  0  0
   43.2339   12.6015   34.0064 C   0  0  0  0  0  0  0  0  0  0  0  0
   42.7576   11.3561   34.3935 C   0  0  0  0  0  0  0  0  0  0  0  0
   42.7244   10.2956   33.5129 C   0  0  0  0  0  0  0  0  0  0  0  0
   43.1854   10.5373   32.2388 C   0  0  0  0  0  0  0  0  0  0  0  0
   43.1908    9.5105   31.2885 C   0  0  0  0  0  0  0  0  0  0  0  0
   43.6491    9.7097   30.0023 C   0  0  0  0  0  0  0  0  0  0  0  0
   44.1260   10.9340   29.5903 C   0  0  0  0  0  0  0  0  0  0  0  0
   44.1143   11.9444   30.5512 C   0  0  0  0  0  0  0  0  0  0  0  0
   43.6672   11.7776   31.8326 C   0  0  0  0  0  0  0  0  0  0  0  0
   42.3026    9.1510   33.8141 O   0  0  0  0  0  0  0  0  0  0  0  0
   43.5887    8.6290   29.1750 F   0  0  0  0  0  0  0  0  0  0  0  0
   44.6388   11.1518   28.2810 N   0  0  0  0  0  0  0  0  0  0  0  0
   46.0666   11.3011   28.0503 C   0  0  0  0  0  0  0  0  0  0  0  0
   46.3457   10.9837   26.6244 C   0  0  0  0  0  0  0  0  0  0  0  0
   45.6633   11.8282   25.6626 N   0  0  0  0  0  0  0  0  0  0  0  0
   44.3707   12.2617   26.1867 C   0  0  0  0  0  0  0  0  0  0  0  0
   43.8010   11.2020   27.0865 C   0  0  0  0  0  0  0  0  0  0  0  0
   46.4758   13.0028   25.3533 C   0  0  0  0  0  0  0  0  0  0  0  0
   45.6510   14.2686   25.2631 C   0  0  0  0  0  0  0  0  0  0  0  0
   42.2847   11.1628   35.7681 C   0  0  0  0  0  0  0  0  0  0  0  0
   43.0161   11.3419   36.7739 O   0  0  0  0  0  0  0  0  0  0  0  0
   40.9782   10.7662   36.0062 O   0  0  0  0  0  0  0  0  0  0  0  0
   40.4523   11.0834   36.8229 H   0  0  0  0  0  0  0  0  0  0  0  0
   44.1749   14.1165   32.3883 C   0  0  0  0  0  0  0  0  0  0  0  0
   43.0826   15.0588   31.8527 C   0  0  0  0  0  0  0  0  0  0  0  0
   43.7677   15.3462   33.1396 C   0  0  0  0  0  0  0  0  0  0  0  0
  1  2  1  0  0  0
  1 10  1  0  0  0
  1 25  1  0  0  0
  2  3  2  0  0  0
  3  4  1  0  0  0
  3 21  1  0  0  0
  4  5  1  0  0  0
  4 11  2  0  0  0
  5  6  1  0  0  0
  5 10  2  0  0  0
  6  7  2  0  0  0
  7  8  1  0  0  0
  7 12  1  0  0  0
  8  9  2  0  0  0
  8 13  1  0  0  0
  9 10  1  0  0  0
 21 22  2  0  0  0
 21 23  1  0  0  0
 13 14  1  0  0  0
 13 18  1  0  0  0
 14 15  1  0  0  0
 15 16  1  0  0  0
 16 17  1  0  0  0
 16 19  1  0  0  0
 17 18  1  0  0  0
 19 20  1  0  0  0
 25 26  1  0  0  0
 25 27  1  0  0  0
 26 27  1  0  0  0
 23 24  1  0  0  0
M  END
> <minimizedAffinity>
-7.53545

$$$$
Enrofloxacin.cdx


 27 30  0  0  0  0  0  0  0  0999 V2000
   43.6205   13.3687   32.9689 N   0  0  0  0  0  0  0  0  0  0  0  0
   43.1720   12.9723   34.1956 C   0  0  0  0  0  0  0  0  0  0  0  0
   42.8035   11.6536   34.4258 C   0  0  0  0  0  0  0  0  0  0  0  0
   42.8763   10.7041   33.4286 C   0  0  0  0  0  0  0  0  0  0  0  0
   43.3304   11.1319   32.2018 C   0  0  0  0  0  0  0  0  0  0  0  0
   43.4396   10.2272   31.1401 C   0  0  0  0  0  0  0  0  0  0  0  0
   43.8949   10.6141   29.8963 C   0  0  0  0  0  0  0  0  0  0  0  0
   44.2661   11.9150   29.6390 C   0  0  0  0  0  0  0  0  0  0  0  0
   44.1520   12.8016   30.7091 C   0  0  0  0  0  0  0  0  0  0  0  0
   43.7050   12.4483   31.9522 C   0  0  0  0  0  0  0  0  0  0  0  0
   42.5543    9.4999   33.5863 O   0  0  0  0  0  0  0  0  0  0  0  0
   43.9418    9.6362   28.9491 F   0  0  0  0  0  0  0  0  0  0  0  0
   44.7745   12.3277   28.3756 N   0  0  0  0  0  0  0  0  0  0  0  0
   43.9578   13.1033   27.4560 C   0  0  0  0  0  0  0  0  0  0  0  0
   44.8623   13.8195   26.5175 C   0  0  0  0  0  0  0  0  0  0  0  0
   45.7185   12.9647   25.7175 N   0  0  0  0  0  0  0  0  0  0  0  0
   46.0660   11.7525   26.4544 C   0  0  0  0  0  0  0  0  0  0  0  0
   46.1350   12.0492   27.9256 C   0  0  0  0  0  0  0  0  0  0  0  0
   45.0461   12.5958   24.4736 C   0  0  0  0  0  0  0  0  0  0  0  0
   44.8003   11.1059   24.3694 C   0  0  0  0  0  0  0  0  0  0  0  0
   42.3319   11.2609   35.7577 C   0  0  0  0  0  0  0  0  0  0  0  0
   43.0678   11.2792   36.7760 O   0  0  0  0  0  0  0  0  0  0  0  0
   41.0218   10.8467   35.9389 O   0  0  0  0  0  0  0  0  0  0  0  0
   40.5015   11.0432   36.7961 H   0  0  0  0  0  0  0  0  0  0  0  0
   43.9951   14.7417   32.7847 C   0  0  0  0  0  0  0  0  0  0  0  0
   42.8329   15.6391   32.3244 C   0  0  0  0  0  0  0  0  0  0  0  0
   43.4619   15.8367   33.6561 C   0  0  0  0  0  0  0  0  0  0  0  0
  1  2  1  0  0  0
  1 10  1  0  0  0
  1 25  1  0  0  0
  2  3  2  0  0  0
  3  4  1  0  0  0
  3 21  1  0  0  0
  4  5  1  0  0  0
  4 11  2  0  0  0
  5  6  1  0  0  0
  5 10  2  0  0  0
  6  7  2  0  0  0
  7  8  1  0  0  0
  7 12  1  0  0  0
  8  9  2  0  0  0
  8 13  1  0  0  0
  9 10  1  0  0  0
 21 22  2  0  0  0
 21 23  1  0  0  0
 13 14  1  0  0  0
 13 18  1  0  0  0
 14 15  1  0  0  0
 15 16  1  0  0  0
 16 17  1  0  0  0
 16 19  1  0  0  0
 17 18  1  0  0  0
 19 20  1  0  0  0
 25 26  1  0  0  0
 25 27  1  0  0  0
 26 27  1  0  0  0
 23 24  1  0  0  0
M  END
> <minimizedAffinity>
-7.36257

$$$$
Enrofloxacin.cdx


 27 30  0  0  0  0  0  0  0  0999 V2000
   43.6267   12.1672   32.3435 N   0  0  0  0  0  0  0  0  0  0  0  0
   43.0479   12.1197   33.5788 C   0  0  0  0  0  0  0  0  0  0  0  0
   42.4701   10.9478   34.0485 C   0  0  0  0  0  0  0  0  0  0  0  0
   42.4599    9.7981   33.2874 C   0  0  0  0  0  0  0  0  0  0  0  0
   43.0489    9.8752   32.0459 C   0  0  0  0  0  0  0  0  0  0  0  0
   43.0854    8.7494   31.2159 C   0  0  0  0  0  0  0  0  0  0  0  0
   43.6705    8.7831   29.9667 C   0  0  0  0  0  0  0  0  0  0  0  0
   44.2500    9.9312   29.4746 C   0  0  0  0  0  0  0  0  0  0  0  0
   44.2054   11.0421   30.3162 C   0  0  0  0  0  0  0  0  0  0  0  0
   43.6336   11.0396   31.5583 C   0  0  0  0  0  0  0  0  0  0  0  0
   41.9498    8.7143   33.6667 O   0  0  0  0  0  0  0  0  0  0  0  0
   43.6272    7.6205   29.2579 F   0  0  0  0  0  0  0  0  0  0  0  0
   44.8925    9.9783   28.2059 N   0  0  0  0  0  0  0  0  0  0  0  0
   44.1394    9.7883   26.9767 C   0  0  0  0  0  0  0  0  0  0  0  0
   44.9079   10.3976   25.8586 C   0  0  0  0  0  0  0  0  0  0  0  0
   46.2291    9.8382   25.6453 N   0  0  0  0  0  0  0  0  0  0  0  0
   46.8052    9.3866   26.9092 C   0  0  0  0  0  0  0  0  0  0  0  0
   46.3158   10.2537   28.0343 C   0  0  0  0  0  0  0  0  0  0  0  0
   46.1582    8.7106   24.7184 C   0  0  0  0  0  0  0  0  0  0  0  0
   46.9569    7.5176   25.1975 C   0  0  0  0  0  0  0  0  0  0  0  0
   41.8626   10.9305   35.3832 C   0  0  0  0  0  0  0  0  0  0  0  0
   42.4988   11.2200   36.4273 O   0  0  0  0  0  0  0  0  0  0  0  0
   40.5292   10.5854   35.5373 O   0  0  0  0  0  0  0  0  0  0  0  0
   39.9361   11.0077   36.2544 H   0  0  0  0  0  0  0  0  0  0  0  0
   44.2159   13.4010   31.9075 C   0  0  0  0  0  0  0  0  0  0  0  0
   43.1916   14.4128   31.3642 C   0  0  0  0  0  0  0  0  0  0  0  0
   43.9547   14.6993   32.6067 C   0  0  0  0  0  0  0  0  0  0  0  0
  1  2  1  0  0  0
  1 10  1  0  0  0
  1 25  1  0  0  0
  2  3  2  0  0  0
  3  4  1  0  0  0
  3 21  1  0  0  0
  4  5  1  0  0  0
  4 11  2  0  0  0
  5  6  1  0  0  0
  5 10  2  0  0  0
  6  7  2  0  0  0
  7  8  1  0  0  0
  7 12  1  0  0  0
  8  9  2  0  0  0
  8 13  1  0  0  0
  9 10  1  0  0  0
 21 22  2  0  0  0
 21 23  1  0  0  0
 13 14  1  0  0  0
 13 18  1  0  0  0
 14 15  1  0  0  0
 15 16  1  0  0  0
 16 17  1  0  0  0
 16 19  1  0  0  0
 17 18  1  0  0  0
 19 20  1  0  0  0
 25 26  1  0  0  0
 25 27  1  0  0  0
 26 27  1  0  0  0
 23 24  1  0  0  0
M  END
> <minimizedAffinity>
-7.14469

$$$$
Enrofloxacin.cdx


 27 30  0  0  0  0  0  0  0  0999 V2000
   42.4536    9.1074   32.2806 N   0  0  0  0  0  0  0  0  0  0  0  0
   41.9684    9.2825   33.5444 C   0  0  0  0  0  0  0  0  0  0  0  0
   42.2100   10.4584   34.2420 C   0  0  0  0  0  0  0  0  0  0  0  0
   42.9453   11.4838   33.6862 C   0  0  0  0  0  0  0  0  0  0  0  0
   43.4234   11.2795   32.4119 C   0  0  0  0  0  0  0  0  0  0  0  0
   44.1725   12.2754   31.7759 C   0  0  0  0  0  0  0  0  0  0  0  0
   44.6657   12.1125   30.4975 C   0  0  0  0  0  0  0  0  0  0  0  0
   44.4427   10.9570   29.7825 C   0  0  0  0  0  0  0  0  0  0  0  0
   43.6931    9.9768   30.4317 C   0  0  0  0  0  0  0  0  0  0  0  0
   43.1910   10.1090   31.6967 C   0  0  0  0  0  0  0  0  0  0  0  0
   43.1918   12.5655   34.2761 O   0  0  0  0  0  0  0  0  0  0  0  0
   45.3881   13.1554   30.0010 F   0  0  0  0  0  0  0  0  0  0  0  0
   44.9088   10.7828   28.4494 N   0  0  0  0  0  0  0  0  0  0  0  0
   46.2971   10.4462   28.1785 C   0  0  0  0  0  0  0  0  0  0  0  0
   46.3726    9.8226   26.8305 C   0  0  0  0  0  0  0  0  0  0  0  0
   45.9118   10.6604   25.7398 N   0  0  0  0  0  0  0  0  0  0  0  0
   44.8462   11.5511   26.1920 C   0  0  0  0  0  0  0  0  0  0  0  0
   44.0468   10.8849   27.2757 C   0  0  0  0  0  0  0  0  0  0  0  0
   47.0162   11.4596   25.2132 C   0  0  0  0  0  0  0  0  0  0  0  0
   46.6833   12.9347   25.1502 C   0  0  0  0  0  0  0  0  0  0  0  0
   41.6681   10.6154   35.5957 C   0  0  0  0  0  0  0  0  0  0  0  0
   40.5670   10.1264   35.9519 O   0  0  0  0  0  0  0  0  0  0  0  0
   42.3756   11.3279   36.5510 O   0  0  0  0  0  0  0  0  0  0  0  0
   42.3594   11.0768   37.5414 H   0  0  0  0  0  0  0  0  0  0  0  0
   42.1702    7.8761   31.6000 C   0  0  0  0  0  0  0  0  0  0  0  0
   43.0264    6.6939   32.0869 C   0  0  0  0  0  0  0  0  0  0  0  0
   41.5557    6.7029   32.2988 C   0  0  0  0  0  0  0  0  0  0  0  0
  1  2  1  0  0  0
  1 10  1  0  0  0
  1 25  1  0  0  0
  2  3  2  0  0  0
  3  4  1  0  0  0
  3 21  1  0  0  0
  4  5  1  0  0  0
  4 11  2  0  0  0
  5  6  1  0  0  0
  5 10  2  0  0  0
  6  7  2  0  0  0
  7  8  1  0  0  0
  7 12  1  0  0  0
  8  9  2  0  0  0
  8 13  1  0  0  0
  9 10  1  0  0  0
 21 22  2  0  0  0
 21 23  1  0  0  0
 13 14  1  0  0  0
 13 18  1  0  0  0
 14 15  1  0  0  0
 15 16  1  0  0  0
 16 17  1  0  0  0
 16 19  1  0  0  0
 17 18  1  0  0  0
 19 20  1  0  0  0
 25 26  1  0  0  0
 25 27  1  0  0  0
 26 27  1  0  0  0
 23 24  1  0  0  0
M  END
> <minimizedAffinity>
-7.10536

$$$$
Enrofloxacin.cdx


 27 30  0  0  0  0  0  0  0  0999 V2000
   42.5775   14.9905   30.7503 N   0  0  0  0  0  0  0  0  0  0  0  0
   42.8344   16.3146   30.9600 C   0  0  0  0  0  0  0  0  0  0  0  0
   42.8807   16.8347   32.2465 C   0  0  0  0  0  0  0  0  0  0  0  0
   42.6689   16.0365   33.3507 C   0  0  0  0  0  0  0  0  0  0  0  0
   42.4106   14.7063   33.1098 C   0  0  0  0  0  0  0  0  0  0  0  0
   42.1917   13.8298   34.1780 C   0  0  0  0  0  0  0  0  0  0  0  0
   41.9346   12.4886   33.9799 C   0  0  0  0  0  0  0  0  0  0  0  0
   41.8816   11.9456   32.7156 C   0  0  0  0  0  0  0  0  0  0  0  0
   42.1038   12.8338   31.6639 C   0  0  0  0  0  0  0  0  0  0  0  0
   42.3611   14.1667   31.8284 C   0  0  0  0  0  0  0  0  0  0  0  0
   42.6994   16.4590   34.5337 O   0  0  0  0  0  0  0  0  0  0  0  0
   41.7290   11.7496   35.1057 F   0  0  0  0  0  0  0  0  0  0  0  0
   41.6563   10.5589   32.4897 N   0  0  0  0  0  0  0  0  0  0  0  0
   40.3080   10.0171   32.4378 C   0  0  0  0  0  0  0  0  0  0  0  0
   40.3486    8.7329   31.6889 C   0  0  0  0  0  0  0  0  0  0  0  0
   41.2012    7.7118   32.2671 N   0  0  0  0  0  0  0  0  0  0  0  0
   42.3408    8.3204   32.9484 C   0  0  0  0  0  0  0  0  0  0  0  0
   42.7292    9.5966   32.2573 C   0  0  0  0  0  0  0  0  0  0  0  0
   40.4464    6.9020   33.2211 C   0  0  0  0  0  0  0  0  0  0  0  0
   41.0714    6.9006   34.5996 C   0  0  0  0  0  0  0  0  0  0  0  0
   43.1656   18.2608   32.4356 C   0  0  0  0  0  0  0  0  0  0  0  0
   44.3189   18.7024   32.6669 O   0  0  0  0  0  0  0  0  0  0  0  0
   42.1415   19.1917   32.3616 O   0  0  0  0  0  0  0  0  0  0  0  0
   42.2849   20.1313   31.9865 H   0  0  0  0  0  0  0  0  0  0  0  0
   42.5471   14.5015   29.4014 C   0  0  0  0  0  0  0  0  0  0  0  0
   41.4512   15.1500   28.5374 C   0  0  0  0  0  0  0  0  0  0  0  0
   42.8884   15.3710   28.2309 C   0  0  0  0  0  0  0  0  0  0  0  0
  1  2  1  0  0  0
  1 10  1  0  0  0
  1 25  1  0  0  0
  2  3  2  0  0  0
  3  4  1  0  0  0
  3 21  1  0  0  0
  4  5  1  0  0  0
  4 11  2  0  0  0
  5  6  1  0  0  0
  5 10  2  0  0  0
  6  7  2  0  0  0
  7  8  1  0  0  0
  7 12  1  0  0  0
  8  9  2  0  0  0
  8 13  1  0  0  0
  9 10  1  0  0  0
 21 22  2  0  0  0
 21 23  1  0  0  0
 13 14  1  0  0  0
 13 18  1  0  0  0
 14 15  1  0  0  0
 15 16  1  0  0  0
 16 17  1  0  0  0
 16 19  1  0  0  0
 17 18  1  0  0  0
 19 20  1  0  0  0
 25 26  1  0  0  0
 25 27  1  0  0  0
 26 27  1  0  0  0
 23 24  1  0  0  0
M  END
> <minimizedAffinity>
-6.79861

$$$$
