IRBESARTAN (irbesartan).cdx


 33 37  0  0  0  0  0  0  0  0999 V2000
   41.9057   13.2786   32.7730 C   0  0  0  0  0  0  0  0  0  0  0  0
   40.8091   12.4528   32.6470 C   0  0  0  0  0  0  0  0  0  0  0  0
   40.9579   11.0732   32.4715 C   0  0  0  0  0  0  0  0  0  0  0  0
   42.2177   10.5181   32.4223 C   0  0  0  0  0  0  0  0  0  0  0  0
   43.3425   11.3320   32.5476 C   0  0  0  0  0  0  0  0  0  0  0  0
   43.1454   12.6827   32.7183 C   0  0  0  0  0  0  0  0  0  0  0  0
   42.4701    9.0966   32.2414 C   0  0  0  0  0  0  0  0  0  0  0  0
   42.9749    8.7099   30.9959 C   0  0  0  0  0  0  0  0  0  0  0  0
   43.2208    7.3522   30.7923 C   0  0  0  0  0  0  0  0  0  0  0  0
   42.9766    6.4166   31.7822 C   0  0  0  0  0  0  0  0  0  0  0  0
   42.4780    6.8609   32.9914 C   0  0  0  0  0  0  0  0  0  0  0  0
   42.2177    8.1910   33.2436 C   0  0  0  0  0  0  0  0  0  0  0  0
   41.6952    8.5744   34.5463 C   0  0  0  0  0  0  0  0  0  0  0  0
   40.6345    7.9767   35.1107 N   0  0  0  0  0  0  0  0  0  0  0  0
   40.4435    8.5675   36.2735 N   0  0  0  0  0  0  0  0  0  0  0  0
   41.3340    9.5204   36.4847 N   0  0  0  0  0  0  0  0  0  0  0  0
   42.1038    9.5157   35.4090 N   0  0  0  0  0  0  0  0  0  0  0  0
   41.3946   10.1334   37.3318 H   0  0  0  0  0  0  0  0  0  0  0  0
   41.8035   14.7505   32.9585 C   0  0  0  0  0  0  0  0  0  0  0  0
   42.3679   15.4586   31.8420 N   0  0  0  0  0  0  0  0  0  0  0  0
   41.8132   15.3419   30.5129 C   0  0  0  0  0  0  0  0  0  0  0  0
   42.6023   16.1893   29.6218 C   0  0  0  0  0  0  0  0  0  0  0  0
   43.5939   16.7602   30.4989 N   0  0  0  0  0  0  0  0  0  0  0  0
   43.4446   16.3439   31.7127 C   0  0  0  0  0  0  0  0  0  0  0  0
   40.8299   14.6475   30.1462 O   0  0  0  0  0  0  0  0  0  0  0  0
   43.1992   15.4444   28.4571 C   0  0  0  0  0  0  0  0  0  0  0  0
   42.9357   16.2887   27.2434 C   0  0  0  0  0  0  0  0  0  0  0  0
   42.5103   17.6506   27.7512 C   0  0  0  0  0  0  0  0  0  0  0  0
   41.8158   17.3453   29.0502 C   0  0  0  0  0  0  0  0  0  0  0  0
   44.3538   16.7709   32.8080 C   0  0  0  0  0  0  0  0  0  0  0  0
   44.6188   18.2366   32.7789 C   0  0  0  0  0  0  0  0  0  0  0  0
   46.0838   18.4070   33.2103 C   0  0  0  0  0  0  0  0  0  0  0  0
   46.2004   19.7674   33.8588 C   0  0  0  0  0  0  0  0  0  0  0  0
  1  2  2  0  0  0
  1 19  1  0  0  0
  2  3  1  0  0  0
  3  4  2  0  0  0
  4  5  1  0  0  0
  4  7  1  0  0  0
  5  6  2  0  0  0
  6  1  1  0  0  0
  7  8  2  0  0  0
  8  9  1  0  0  0
  9 10  2  0  0  0
 10 11  1  0  0  0
 11 12  2  0  0  0
 12  7  1  0  0  0
 12 13  1  0  0  0
 13 14  2  0  0  0
 14 15  2  0  0  0
 15 16  1  0  0  0
 16 17  1  0  0  0
 17 13  2  0  0  0
 19 20  1  0  0  0
 20 21  1  0  0  0
 21 22  1  0  0  0
 21 25  2  0  0  0
 22 23  1  0  0  0
 22 26  1  0  0  0
 23 24  2  0  0  0
 24 20  1  0  0  0
 24 30  1  0  0  0
 26 27  1  0  0  0
 27 28  1  0  0  0
 28 29  1  0  0  0
 29 22  1  0  0  0
 30 31  1  0  0  0
 31 32  1  0  0  0
 32 33  1  0  0  0
 16 18  1  0  0  0
M  END
> <minimizedAffinity>
-8.81915

$$$$
IRBESARTAN (irbesartan).cdx


 33 37  0  0  0  0  0  0  0  0999 V2000
   41.5196   13.3011   32.3638 C   0  0  0  0  0  0  0  0  0  0  0  0
   42.7803   12.8884   32.7386 C   0  0  0  0  0  0  0  0  0  0  0  0
   43.1582   11.5446   32.6513 C   0  0  0  0  0  0  0  0  0  0  0  0
   42.2631   10.6076   32.1839 C   0  0  0  0  0  0  0  0  0  0  0  0
   40.9823   10.9998   31.7984 C   0  0  0  0  0  0  0  0  0  0  0  0
   40.6571   12.3324   31.9025 C   0  0  0  0  0  0  0  0  0  0  0  0
   42.5656    9.1897   32.0600 C   0  0  0  0  0  0  0  0  0  0  0  0
   43.1091    8.7758   30.8399 C   0  0  0  0  0  0  0  0  0  0  0  0
   43.4036    7.4206   30.6909 C   0  0  0  0  0  0  0  0  0  0  0  0
   43.1691    6.5134   31.7092 C   0  0  0  0  0  0  0  0  0  0  0  0
   42.6307    6.9838   32.8911 C   0  0  0  0  0  0  0  0  0  0  0  0
   42.3218    8.3126   33.0893 C   0  0  0  0  0  0  0  0  0  0  0  0
   41.7594    8.7247   34.3665 C   0  0  0  0  0  0  0  0  0  0  0  0
   40.7859    8.0418   34.9884 N   0  0  0  0  0  0  0  0  0  0  0  0
   40.5253    8.6904   36.1060 N   0  0  0  0  0  0  0  0  0  0  0  0
   41.2876    9.7620   36.2330 N   0  0  0  0  0  0  0  0  0  0  0  0
   42.0477    9.7732   35.1504 N   0  0  0  0  0  0  0  0  0  0  0  0
   41.2725   10.4406   37.0308 H   0  0  0  0  0  0  0  0  0  0  0  0
   41.0664   14.7155   32.4391 C   0  0  0  0  0  0  0  0  0  0  0  0
   42.1269   15.6233   32.0958 N   0  0  0  0  0  0  0  0  0  0  0  0
   42.8619   16.3460   33.1083 C   0  0  0  0  0  0  0  0  0  0  0  0
   43.8681   17.1634   32.4342 C   0  0  0  0  0  0  0  0  0  0  0  0
   43.6555   16.8674   31.0393 N   0  0  0  0  0  0  0  0  0  0  0  0
   42.6943   16.0194   30.8789 C   0  0  0  0  0  0  0  0  0  0  0  0
   42.6976   16.3076   34.3553 O   0  0  0  0  0  0  0  0  0  0  0  0
   43.7607   18.6314   32.7519 C   0  0  0  0  0  0  0  0  0  0  0  0
   45.1579   19.0975   33.0451 C   0  0  0  0  0  0  0  0  0  0  0  0
   46.0865   18.0033   32.5615 C   0  0  0  0  0  0  0  0  0  0  0  0
   45.2842   16.7452   32.7525 C   0  0  0  0  0  0  0  0  0  0  0  0
   42.2642   15.5636   29.5314 C   0  0  0  0  0  0  0  0  0  0  0  0
   43.3101   14.7473   28.8541 C   0  0  0  0  0  0  0  0  0  0  0  0
   42.9358   13.2808   29.1200 C   0  0  0  0  0  0  0  0  0  0  0  0
   44.2267   12.4968   29.1805 C   0  0  0  0  0  0  0  0  0  0  0  0
  1  2  2  0  0  0
  1 19  1  0  0  0
  2  3  1  0  0  0
  3  4  2  0  0  0
  4  5  1  0  0  0
  4  7  1  0  0  0
  5  6  2  0  0  0
  6  1  1  0  0  0
  7  8  2  0  0  0
  8  9  1  0  0  0
  9 10  2  0  0  0
 10 11  1  0  0  0
 11 12  2  0  0  0
 12  7  1  0  0  0
 12 13  1  0  0  0
 13 14  2  0  0  0
 14 15  2  0  0  0
 15 16  1  0  0  0
 16 17  1  0  0  0
 17 13  2  0  0  0
 19 20  1  0  0  0
 20 21  1  0  0  0
 21 22  1  0  0  0
 21 25  2  0  0  0
 22 23  1  0  0  0
 22 26  1  0  0  0
 23 24  2  0  0  0
 24 20  1  0  0  0
 24 30  1  0  0  0
 26 27  1  0  0  0
 27 28  1  0  0  0
 28 29  1  0  0  0
 29 22  1  0  0  0
 30 31  1  0  0  0
 31 32  1  0  0  0
 32 33  1  0  0  0
 16 18  1  0  0  0
M  END
> <minimizedAffinity>
-8.65335

$$$$
IRBESARTAN (irbesartan).cdx


 33 37  0  0  0  0  0  0  0  0999 V2000
   42.7160   13.9893   33.5562 C   0  0  0  0  0  0  0  0  0  0  0  0
   43.7739   13.2501   33.0718 C   0  0  0  0  0  0  0  0  0  0  0  0
   43.6963   11.8576   32.9662 C   0  0  0  0  0  0  0  0  0  0  0  0
   42.5471   11.2019   33.3500 C   0  0  0  0  0  0  0  0  0  0  0  0
   41.4633   11.9269   33.8428 C   0  0  0  0  0  0  0  0  0  0  0  0
   41.5873   13.2944   33.9280 C   0  0  0  0  0  0  0  0  0  0  0  0
   42.3755    9.7588   33.2780 C   0  0  0  0  0  0  0  0  0  0  0  0
   42.0435    9.1134   34.4733 C   0  0  0  0  0  0  0  0  0  0  0  0
   41.8785    7.7289   34.4352 C   0  0  0  0  0  0  0  0  0  0  0  0
   42.0359    7.0140   33.2609 C   0  0  0  0  0  0  0  0  0  0  0  0
   42.3640    7.7086   32.1129 C   0  0  0  0  0  0  0  0  0  0  0  0
   42.5383    9.0760   32.0967 C   0  0  0  0  0  0  0  0  0  0  0  0
   42.8809    9.7302   30.8429 C   0  0  0  0  0  0  0  0  0  0  0  0
   41.9841   10.3969   30.0999 N   0  0  0  0  0  0  0  0  0  0  0  0
   42.6329   10.8565   29.0485 N   0  0  0  0  0  0  0  0  0  0  0  0
   43.9091   10.5159   29.0799 N   0  0  0  0  0  0  0  0  0  0  0  0
   44.0513    9.8189   30.1952 N   0  0  0  0  0  0  0  0  0  0  0  0
   44.6318   10.7591   28.3619 H   0  0  0  0  0  0  0  0  0  0  0  0
   42.7473   15.4699   33.6914 C   0  0  0  0  0  0  0  0  0  0  0  0
   43.0025   16.1051   32.4273 N   0  0  0  0  0  0  0  0  0  0  0  0
   42.1514   15.8799   31.2816 C   0  0  0  0  0  0  0  0  0  0  0  0
   42.6731   16.6750   30.1724 C   0  0  0  0  0  0  0  0  0  0  0  0
   43.8236   17.3284   30.7450 N   0  0  0  0  0  0  0  0  0  0  0  0
   43.9838   16.9996   31.9840 C   0  0  0  0  0  0  0  0  0  0  0  0
   41.1353   15.1411   31.2094 O   0  0  0  0  0  0  0  0  0  0  0  0
   43.0019   15.8585   28.9505 C   0  0  0  0  0  0  0  0  0  0  0  0
   42.4254   16.6059   27.7825 C   0  0  0  0  0  0  0  0  0  0  0  0
   42.0835   17.9927   28.2858 C   0  0  0  0  0  0  0  0  0  0  0  0
   41.7309   17.7700   29.7312 C   0  0  0  0  0  0  0  0  0  0  0  0
   45.1117   17.5239   32.7973 C   0  0  0  0  0  0  0  0  0  0  0  0
   44.9238   18.9563   33.1611 C   0  0  0  0  0  0  0  0  0  0  0  0
   46.1597   19.3453   33.9871 C   0  0  0  0  0  0  0  0  0  0  0  0
   46.9704   20.3062   33.1478 C   0  0  0  0  0  0  0  0  0  0  0  0
  1  2  2  0  0  0
  1 19  1  0  0  0
  2  3  1  0  0  0
  3  4  2  0  0  0
  4  5  1  0  0  0
  4  7  1  0  0  0
  5  6  2  0  0  0
  6  1  1  0  0  0
  7  8  2  0  0  0
  8  9  1  0  0  0
  9 10  2  0  0  0
 10 11  1  0  0  0
 11 12  2  0  0  0
 12  7  1  0  0  0
 12 13  1  0  0  0
 13 14  2  0  0  0
 14 15  2  0  0  0
 15 16  1  0  0  0
 16 17  1  0  0  0
 17 13  2  0  0  0
 19 20  1  0  0  0
 20 21  1  0  0  0
 21 22  1  0  0  0
 21 25  2  0  0  0
 22 23  1  0  0  0
 22 26  1  0  0  0
 23 24  2  0  0  0
 24 20  1  0  0  0
 24 30  1  0  0  0
 26 27  1  0  0  0
 27 28  1  0  0  0
 28 29  1  0  0  0
 29 22  1  0  0  0
 30 31  1  0  0  0
 31 32  1  0  0  0
 32 33  1  0  0  0
 16 18  1  0  0  0
M  END
> <minimizedAffinity>
-8.53213

$$$$
IRBESARTAN (irbesartan).cdx


 33 37  0  0  0  0  0  0  0  0999 V2000
   42.8703   11.1035   28.8035 C   0  0  0  0  0  0  0  0  0  0  0  0
   43.8252   10.4103   29.5161 C   0  0  0  0  0  0  0  0  0  0  0  0
   43.8338   10.4196   30.9146 C   0  0  0  0  0  0  0  0  0  0  0  0
   42.8758   11.1307   31.6034 C   0  0  0  0  0  0  0  0  0  0  0  0
   41.8992   11.8396   30.9058 C   0  0  0  0  0  0  0  0  0  0  0  0
   41.9321   11.8002   29.5310 C   0  0  0  0  0  0  0  0  0  0  0  0
   42.8064   11.2002   33.0551 C   0  0  0  0  0  0  0  0  0  0  0  0
   42.1272   10.1581   33.6942 C   0  0  0  0  0  0  0  0  0  0  0  0
   42.0400   10.2019   35.0856 C   0  0  0  0  0  0  0  0  0  0  0  0
   42.6028   11.2356   35.8132 C   0  0  0  0  0  0  0  0  0  0  0  0
   43.2610   12.2358   35.1244 C   0  0  0  0  0  0  0  0  0  0  0  0
   43.3755   12.2398   33.7506 C   0  0  0  0  0  0  0  0  0  0  0  0
   44.0880   13.3312   33.1038 C   0  0  0  0  0  0  0  0  0  0  0  0
   43.5533   14.5499   32.9318 N   0  0  0  0  0  0  0  0  0  0  0  0
   44.4662   15.2793   32.3216 N   0  0  0  0  0  0  0  0  0  0  0  0
   45.5667   14.5852   32.0920 N   0  0  0  0  0  0  0  0  0  0  0  0
   45.3213   13.3806   32.5805 N   0  0  0  0  0  0  0  0  0  0  0  0
   46.4335   14.9380   31.6217 H   0  0  0  0  0  0  0  0  0  0  0  0
   42.8176   11.1289   27.3175 C   0  0  0  0  0  0  0  0  0  0  0  0
   44.0380   10.6323   26.7425 N   0  0  0  0  0  0  0  0  0  0  0  0
   44.1820    9.2491   26.3504 C   0  0  0  0  0  0  0  0  0  0  0  0
   45.5228    9.0777   25.7956 C   0  0  0  0  0  0  0  0  0  0  0  0
   46.0965   10.3961   25.9014 N   0  0  0  0  0  0  0  0  0  0  0  0
   45.2622   11.2322   26.4244 C   0  0  0  0  0  0  0  0  0  0  0  0
   43.3320    8.3267   26.4511 O   0  0  0  0  0  0  0  0  0  0  0  0
   46.3329    8.0203   26.4980 C   0  0  0  0  0  0  0  0  0  0  0  0
   46.9645    7.1922   25.4161 C   0  0  0  0  0  0  0  0  0  0  0  0
   46.8043    7.9728   24.1283 C   0  0  0  0  0  0  0  0  0  0  0  0
   45.5177    8.7266   24.3265 C   0  0  0  0  0  0  0  0  0  0  0  0
   45.6185   12.6556   26.6598 C   0  0  0  0  0  0  0  0  0  0  0  0
   46.0584   13.3386   25.4111 C   0  0  0  0  0  0  0  0  0  0  0  0
   45.2059   14.6128   25.3068 C   0  0  0  0  0  0  0  0  0  0  0  0
   44.2372   14.5952   26.4671 C   0  0  0  0  0  0  0  0  0  0  0  0
  1  2  2  0  0  0
  1 19  1  0  0  0
  2  3  1  0  0  0
  3  4  2  0  0  0
  4  5  1  0  0  0
  4  7  1  0  0  0
  5  6  2  0  0  0
  6  1  1  0  0  0
  7  8  2  0  0  0
  8  9  1  0  0  0
  9 10  2  0  0  0
 10 11  1  0  0  0
 11 12  2  0  0  0
 12  7  1  0  0  0
 12 13  1  0  0  0
 13 14  2  0  0  0
 14 15  2  0  0  0
 15 16  1  0  0  0
 16 17  1  0  0  0
 17 13  2  0  0  0
 19 20  1  0  0  0
 20 21  1  0  0  0
 21 22  1  0  0  0
 21 25  2  0  0  0
 22 23  1  0  0  0
 22 26  1  0  0  0
 23 24  2  0  0  0
 24 20  1  0  0  0
 24 30  1  0  0  0
 26 27  1  0  0  0
 27 28  1  0  0  0
 28 29  1  0  0  0
 29 22  1  0  0  0
 30 31  1  0  0  0
 31 32  1  0  0  0
 32 33  1  0  0  0
 16 18  1  0  0  0
M  END
> <minimizedAffinity>
-8.26060

$$$$
IRBESARTAN (irbesartan).cdx


 33 37  0  0  0  0  0  0  0  0999 V2000
   41.3471   13.7966   31.2428 C   0  0  0  0  0  0  0  0  0  0  0  0
   41.2446   12.9520   30.1582 C   0  0  0  0  0  0  0  0  0  0  0  0
   41.8554   13.2618   28.9388 C   0  0  0  0  0  0  0  0  0  0  0  0
   42.5752   14.4291   28.8072 C   0  0  0  0  0  0  0  0  0  0  0  0
   42.6938   15.2996   29.8894 C   0  0  0  0  0  0  0  0  0  0  0  0
   42.0753   14.9517   31.0678 C   0  0  0  0  0  0  0  0  0  0  0  0
   43.2423   14.8352   27.5796 C   0  0  0  0  0  0  0  0  0  0  0  0
   44.2577   13.9921   27.1173 C   0  0  0  0  0  0  0  0  0  0  0  0
   44.9187   14.3598   25.9454 C   0  0  0  0  0  0  0  0  0  0  0  0
   44.5868   15.5153   25.2601 C   0  0  0  0  0  0  0  0  0  0  0  0
   43.5745   16.3068   25.7670 C   0  0  0  0  0  0  0  0  0  0  0  0
   42.8903   15.9886   26.9208 C   0  0  0  0  0  0  0  0  0  0  0  0
   41.8353   16.8768   27.3846 C   0  0  0  0  0  0  0  0  0  0  0  0
   40.5345   16.5506   27.3365 N   0  0  0  0  0  0  0  0  0  0  0  0
   39.8703   17.5749   27.8339 N   0  0  0  0  0  0  0  0  0  0  0  0
   40.6850   18.5481   28.2011 N   0  0  0  0  0  0  0  0  0  0  0  0
   41.8989   18.1049   27.9183 N   0  0  0  0  0  0  0  0  0  0  0  0
   40.4031   19.4643   28.6232 H   0  0  0  0  0  0  0  0  0  0  0  0
   40.7154   13.5165   32.5596 C   0  0  0  0  0  0  0  0  0  0  0  0
   41.3323   12.3906   33.2064 N   0  0  0  0  0  0  0  0  0  0  0  0
   40.5668   11.2289   33.5968 C   0  0  0  0  0  0  0  0  0  0  0  0
   41.4853   10.2719   34.2094 C   0  0  0  0  0  0  0  0  0  0  0  0
   42.7584   10.9451   34.1433 N   0  0  0  0  0  0  0  0  0  0  0  0
   42.6488   12.1066   33.5886 C   0  0  0  0  0  0  0  0  0  0  0  0
   39.3316   11.0359   33.4536 O   0  0  0  0  0  0  0  0  0  0  0  0
   41.0954    9.8768   35.6093 C   0  0  0  0  0  0  0  0  0  0  0  0
   41.2262    8.3821   35.6720 C   0  0  0  0  0  0  0  0  0  0  0  0
   42.0110    7.9673   34.4449 C   0  0  0  0  0  0  0  0  0  0  0  0
   41.6310    8.9956   33.4148 C   0  0  0  0  0  0  0  0  0  0  0  0
   43.8163   13.0101   33.4179 C   0  0  0  0  0  0  0  0  0  0  0  0
   44.5896   12.7016   32.1826 C   0  0  0  0  0  0  0  0  0  0  0  0
   45.6779   13.7823   32.0876 C   0  0  0  0  0  0  0  0  0  0  0  0
   46.8371   13.1796   31.3273 C   0  0  0  0  0  0  0  0  0  0  0  0
  1  2  2  0  0  0
  1 19  1  0  0  0
  2  3  1  0  0  0
  3  4  2  0  0  0
  4  5  1  0  0  0
  4  7  1  0  0  0
  5  6  2  0  0  0
  6  1  1  0  0  0
  7  8  2  0  0  0
  8  9  1  0  0  0
  9 10  2  0  0  0
 10 11  1  0  0  0
 11 12  2  0  0  0
 12  7  1  0  0  0
 12 13  1  0  0  0
 13 14  2  0  0  0
 14 15  2  0  0  0
 15 16  1  0  0  0
 16 17  1  0  0  0
 17 13  2  0  0  0
 19 20  1  0  0  0
 20 21  1  0  0  0
 21 22  1  0  0  0
 21 25  2  0  0  0
 22 23  1  0  0  0
 22 26  1  0  0  0
 23 24  2  0  0  0
 24 20  1  0  0  0
 24 30  1  0  0  0
 26 27  1  0  0  0
 27 28  1  0  0  0
 28 29  1  0  0  0
 29 22  1  0  0  0
 30 31  1  0  0  0
 31 32  1  0  0  0
 32 33  1  0  0  0
 16 18  1  0  0  0
M  END
> <minimizedAffinity>
-8.25833

$$$$
