Mequinol.cdx


 10 10  0  0  0  0  0  0  0  0999 V2000
   43.4560   12.4546   34.7580 C   0  0  0  0  0  0  0  0  0  0  0  0
   43.4307   12.3201   33.3757 C   0  0  0  0  0  0  0  0  0  0  0  0
   42.8606   11.2024   32.7850 C   0  0  0  0  0  0  0  0  0  0  0  0
   42.3227   10.2342   33.6049 C   0  0  0  0  0  0  0  0  0  0  0  0
   42.3347   10.3430   34.9798 C   0  0  0  0  0  0  0  0  0  0  0  0
   42.9041   11.4590   35.5637 C   0  0  0  0  0  0  0  0  0  0  0  0
   42.9325   11.5999   36.9577 O   0  0  0  0  0  0  0  0  0  0  0  0
   43.8124   11.6521   37.4524 H   0  0  0  0  0  0  0  0  0  0  0  0
   42.8658   11.1257   31.4025 O   0  0  0  0  0  0  0  0  0  0  0  0
   43.9817   11.2063   30.5728 C   0  0  0  0  0  0  0  0  0  0  0  0
  1  2  2  0  0  0
  2  3  1  0  0  0
  3  4  2  0  0  0
  3  9  1  0  0  0
  4  5  1  0  0  0
  5  6  2  0  0  0
  6  1  1  0  0  0
  6  7  1  0  0  0
  9 10  1  0  0  0
  7  8  1  0  0  0
M  END
> <minimizedAffinity>
-4.52084

$$$$
Mequinol.cdx


 10 10  0  0  0  0  0  0  0  0999 V2000
   41.9494   10.0635   35.8376 C   0  0  0  0  0  0  0  0  0  0  0  0
   41.6168    9.4703   34.6264 C   0  0  0  0  0  0  0  0  0  0  0  0
   42.0161   10.0410   33.4271 C   0  0  0  0  0  0  0  0  0  0  0  0
   42.7486   11.2073   33.4718 C   0  0  0  0  0  0  0  0  0  0  0  0
   43.0922   11.8167   34.6605 C   0  0  0  0  0  0  0  0  0  0  0  0
   42.6918   11.2439   35.8531 C   0  0  0  0  0  0  0  0  0  0  0  0
   43.0245   11.8380   37.0780 O   0  0  0  0  0  0  0  0  0  0  0  0
   42.3023   12.1663   37.7043 H   0  0  0  0  0  0  0  0  0  0  0  0
   41.6539    9.4028   32.2530 O   0  0  0  0  0  0  0  0  0  0  0  0
   40.3563    9.1622   31.8074 C   0  0  0  0  0  0  0  0  0  0  0  0
  1  2  2  0  0  0
  2  3  1  0  0  0
  3  4  2  0  0  0
  3  9  1  0  0  0
  4  5  1  0  0  0
  5  6  2  0  0  0
  6  1  1  0  0  0
  6  7  1  0  0  0
  9 10  1  0  0  0
  7  8  1  0  0  0
M  END
> <minimizedAffinity>
-4.41925

$$$$
Mequinol.cdx


 10 10  0  0  0  0  0  0  0  0999 V2000
   41.9452    9.5293   34.3021 C   0  0  0  0  0  0  0  0  0  0  0  0
   42.5278   10.2723   33.2834 C   0  0  0  0  0  0  0  0  0  0  0  0
   43.0653   11.5246   33.5408 C   0  0  0  0  0  0  0  0  0  0  0  0
   43.0050   12.0078   34.8299 C   0  0  0  0  0  0  0  0  0  0  0  0
   42.4322   11.2907   35.8596 C   0  0  0  0  0  0  0  0  0  0  0  0
   41.8979   10.0430   35.5978 C   0  0  0  0  0  0  0  0  0  0  0  0
   41.3089    9.2891   36.6217 O   0  0  0  0  0  0  0  0  0  0  0  0
   40.3310    9.0371   36.5787 H   0  0  0  0  0  0  0  0  0  0  0  0
   43.6323   12.2167   32.4841 O   0  0  0  0  0  0  0  0  0  0  0  0
   44.4058   13.3719   32.5706 C   0  0  0  0  0  0  0  0  0  0  0  0
  1  2  2  0  0  0
  2  3  1  0  0  0
  3  4  2  0  0  0
  3  9  1  0  0  0
  4  5  1  0  0  0
  5  6  2  0  0  0
  6  1  1  0  0  0
  6  7  1  0  0  0
  9 10  1  0  0  0
  7  8  1  0  0  0
M  END
> <minimizedAffinity>
-4.29464

$$$$
Mequinol.cdx


 10 10  0  0  0  0  0  0  0  0999 V2000
   42.7812   12.6941   33.3995 C   0  0  0  0  0  0  0  0  0  0  0  0
   43.8917   12.5518   32.5774 C   0  0  0  0  0  0  0  0  0  0  0  0
   44.5944   13.6647   32.1404 C   0  0  0  0  0  0  0  0  0  0  0  0
   44.1611   14.9093   32.5435 C   0  0  0  0  0  0  0  0  0  0  0  0
   43.0619   15.0784   33.3593 C   0  0  0  0  0  0  0  0  0  0  0  0
   42.3649   13.9659   33.7921 C   0  0  0  0  0  0  0  0  0  0  0  0
   41.2438   14.1035   34.6215 O   0  0  0  0  0  0  0  0  0  0  0  0
   40.3332   13.7916   34.3130 H   0  0  0  0  0  0  0  0  0  0  0  0
   45.6926   13.4585   31.3229 O   0  0  0  0  0  0  0  0  0  0  0  0
   45.7904   12.5349   30.2848 C   0  0  0  0  0  0  0  0  0  0  0  0
  1  2  2  0  0  0
  2  3  1  0  0  0
  3  4  2  0  0  0
  3  9  1  0  0  0
  4  5  1  0  0  0
  5  6  2  0  0  0
  6  1  1  0  0  0
  6  7  1  0  0  0
  9 10  1  0  0  0
  7  8  1  0  0  0
M  END
> <minimizedAffinity>
-4.28248

$$$$
Mequinol.cdx


 10 10  0  0  0  0  0  0  0  0999 V2000
   41.7520   10.6306   35.7709 C   0  0  0  0  0  0  0  0  0  0  0  0
   42.4518   11.0986   34.6661 C   0  0  0  0  0  0  0  0  0  0  0  0
   42.6528   10.2855   33.5608 C   0  0  0  0  0  0  0  0  0  0  0  0
   42.1406    9.0065   33.5902 C   0  0  0  0  0  0  0  0  0  0  0  0
   41.4422    8.5172   34.6743 C   0  0  0  0  0  0  0  0  0  0  0  0
   41.2446    9.3316   35.7735 C   0  0  0  0  0  0  0  0  0  0  0  0
   40.5394    8.8647   36.8909 O   0  0  0  0  0  0  0  0  0  0  0  0
   40.9898    8.7975   37.7932 H   0  0  0  0  0  0  0  0  0  0  0  0
   43.3580   10.8088   32.4904 O   0  0  0  0  0  0  0  0  0  0  0  0
   42.8197   11.2854   31.2974 C   0  0  0  0  0  0  0  0  0  0  0  0
  1  2  2  0  0  0
  2  3  1  0  0  0
  3  4  2  0  0  0
  3  9  1  0  0  0
  4  5  1  0  0  0
  5  6  2  0  0  0
  6  1  1  0  0  0
  6  7  1  0  0  0
  9 10  1  0  0  0
  7  8  1  0  0  0
M  END
> <minimizedAffinity>
-4.12425

$$$$
