Metoclopramide


 22 22  0  0  0  0  0  0  0  0999 V2000
   42.7014   12.2379   34.1683 C   0  0  0  0  0  0  0  0  0  0  0  0
   41.5355   11.6881   33.7068 C   0  0  0  0  0  0  0  0  0  0  0  0
   43.1641   11.7717   35.3986 C   0  0  0  0  0  0  0  0  0  0  0  0
   40.8726   10.7225   34.4431 C   0  0  0  0  0  0  0  0  0  0  0  0
   42.5026   10.8123   36.1268 C   0  0  0  0  0  0  0  0  0  0  0  0
   41.3352   10.2671   35.6576 C   0  0  0  0  0  0  0  0  0  0  0  0
   40.6770    9.2788   36.4311 N   0  0  0  0  0  0  0  0  0  0  0  0
   40.6305    9.3931   37.4591 H   0  0  0  0  0  0  0  0  0  0  0  0
   40.2272    8.4209   36.0279 H   0  0  0  0  0  0  0  0  0  0  0  0
   43.4888   13.2522   33.5106 C   0  0  0  0  0  0  0  0  0  0  0  0
   44.6480   12.9441   33.0509 O   0  0  0  0  0  0  0  0  0  0  0  0
   43.1166   14.5949   33.3097 N   0  0  0  0  0  0  0  0  0  0  0  0
   42.2304   14.9678   33.6210 H   0  0  0  0  0  0  0  0  0  0  0  0
   44.1016   15.4463   32.6095 C   0  0  0  0  0  0  0  0  0  0  0  0
   44.2243   16.7727   33.2875 C   0  0  0  0  0  0  0  0  0  0  0  0
   44.6939   17.7704   32.2867 N   0  0  0  0  0  0  0  0  0  0  0  0
   43.7239   18.8572   32.3255 C   0  0  0  0  0  0  0  0  0  0  0  0
   42.3564   18.4701   31.9735 C   0  0  0  0  0  0  0  0  0  0  0  0
   46.0394   18.1494   32.5749 C   0  0  0  0  0  0  0  0  0  0  0  0
   46.0937   19.4897   33.2576 C   0  0  0  0  0  0  0  0  0  0  0  0
   39.8748   12.9171   32.4635 C   0  0  0  0  0  0  0  0  0  0  0  0
   41.0247   12.1042   32.5011 O   0  0  0  0  0  0  0  0  0  0  0  0
  2  1  2  0  0  0
 21 22  1  0  0  0
  3  1  1  0  0  0
 10  1  1  0  0  0
  4  2  1  0  0  0
 22  2  1  0  0  0
  5  3  2  0  0  0
  6  4  2  0  0  0
  6  5  1  0  0  0
 11 10  2  0  0  0
 12 10  1  0  0  0
  7  6  1  0  0  0
 16 15  1  0  0  0
 14 12  1  0  0  0
 15 14  1  0  0  0
 19 16  1  0  0  0
 17 16  1  0  0  0
 20 19  1  0  0  0
 18 17  1  0  0  0
 12 13  1  0  0  0
  7  8  1  0  0  0
  7  9  1  0  0  0
M  END
> <minimizedAffinity>
-6.11738

$$$$
Metoclopramide


 22 22  0  0  0  0  0  0  0  0999 V2000
   42.8856   11.0324   32.9041 C   0  0  0  0  0  0  0  0  0  0  0  0
   42.3401   10.5437   34.0609 C   0  0  0  0  0  0  0  0  0  0  0  0
   43.0642   10.1180   31.8663 C   0  0  0  0  0  0  0  0  0  0  0  0
   41.9936    9.2086   34.1667 C   0  0  0  0  0  0  0  0  0  0  0  0
   42.7186    8.7925   31.9755 C   0  0  0  0  0  0  0  0  0  0  0  0
   42.1733    8.3110   33.1378 C   0  0  0  0  0  0  0  0  0  0  0  0
   41.8261    6.9394   33.2192 N   0  0  0  0  0  0  0  0  0  0  0  0
   42.4600    6.2346   32.8028 H   0  0  0  0  0  0  0  0  0  0  0  0
   40.9533    6.5809   33.6782 H   0  0  0  0  0  0  0  0  0  0  0  0
   43.2970   12.3936   32.6598 C   0  0  0  0  0  0  0  0  0  0  0  0
   43.7665   12.7077   31.5062 O   0  0  0  0  0  0  0  0  0  0  0  0
   43.2419   13.4576   33.5798 N   0  0  0  0  0  0  0  0  0  0  0  0
   42.8925   13.3471   34.5216 H   0  0  0  0  0  0  0  0  0  0  0  0
   43.7280   14.7660   33.0926 C   0  0  0  0  0  0  0  0  0  0  0  0
   43.2512   15.8675   33.9833 C   0  0  0  0  0  0  0  0  0  0  0  0
   43.4713   17.1646   33.2857 N   0  0  0  0  0  0  0  0  0  0  0  0
   44.9069   17.2491   33.0500 C   0  0  0  0  0  0  0  0  0  0  0  0
   45.5386   18.4713   33.5509 C   0  0  0  0  0  0  0  0  0  0  0  0
   42.6606   17.2275   32.1127 C   0  0  0  0  0  0  0  0  0  0  0  0
   42.1843   18.6317   31.8541 C   0  0  0  0  0  0  0  0  0  0  0  0
   42.7984   11.1634   36.3457 C   0  0  0  0  0  0  0  0  0  0  0  0
   42.1384   11.3925   35.1223 O   0  0  0  0  0  0  0  0  0  0  0  0
  2  1  2  0  0  0
 21 22  1  0  0  0
  3  1  1  0  0  0
 10  1  1  0  0  0
  4  2  1  0  0  0
 22  2  1  0  0  0
  5  3  2  0  0  0
  6  4  2  0  0  0
  6  5  1  0  0  0
 11 10  2  0  0  0
 12 10  1  0  0  0
  7  6  1  0  0  0
 16 15  1  0  0  0
 14 12  1  0  0  0
 15 14  1  0  0  0
 19 16  1  0  0  0
 17 16  1  0  0  0
 20 19  1  0  0  0
 18 17  1  0  0  0
 12 13  1  0  0  0
  7  8  1  0  0  0
  7  9  1  0  0  0
M  END
> <minimizedAffinity>
-5.96080

$$$$
Metoclopramide


 22 22  0  0  0  0  0  0  0  0999 V2000
   42.5073   11.6129   34.3285 C   0  0  0  0  0  0  0  0  0  0  0  0
   42.1851   10.7251   33.3372 C   0  0  0  0  0  0  0  0  0  0  0  0
   42.2974   11.1844   35.6391 C   0  0  0  0  0  0  0  0  0  0  0  0
   41.6799    9.4753   33.6483 C   0  0  0  0  0  0  0  0  0  0  0  0
   41.7955    9.9420   35.9437 C   0  0  0  0  0  0  0  0  0  0  0  0
   41.4748    9.0590   34.9449 C   0  0  0  0  0  0  0  0  0  0  0  0
   40.9603    7.7847   35.2911 N   0  0  0  0  0  0  0  0  0  0  0  0
   40.2773    7.7117   36.0659 H   0  0  0  0  0  0  0  0  0  0  0  0
   41.2302    6.8921   34.8102 H   0  0  0  0  0  0  0  0  0  0  0  0
   43.0338   12.9440   34.1478 C   0  0  0  0  0  0  0  0  0  0  0  0
   44.2667   13.0897   33.8184 O   0  0  0  0  0  0  0  0  0  0  0  0
   42.3214   14.1486   34.2999 N   0  0  0  0  0  0  0  0  0  0  0  0
   41.3440   14.1760   34.5553 H   0  0  0  0  0  0  0  0  0  0  0  0
   43.0857   15.3918   34.0636 C   0  0  0  0  0  0  0  0  0  0  0  0
   42.6744   16.0229   32.7726 C   0  0  0  0  0  0  0  0  0  0  0  0
   43.1191   17.4441   32.7817 N   0  0  0  0  0  0  0  0  0  0  0  0
   44.5586   17.4103   32.5572 C   0  0  0  0  0  0  0  0  0  0  0  0
   45.3351   18.2934   33.4295 C   0  0  0  0  0  0  0  0  0  0  0  0
   42.3740   18.1911   31.8206 C   0  0  0  0  0  0  0  0  0  0  0  0
   42.3944   17.5197   30.4737 C   0  0  0  0  0  0  0  0  0  0  0  0
   43.3706   10.4655   31.2536 C   0  0  0  0  0  0  0  0  0  0  0  0
   42.3672   11.0855   32.0240 O   0  0  0  0  0  0  0  0  0  0  0  0
  2  1  2  0  0  0
 21 22  1  0  0  0
  3  1  1  0  0  0
 10  1  1  0  0  0
  4  2  1  0  0  0
 22  2  1  0  0  0
  5  3  2  0  0  0
  6  4  2  0  0  0
  6  5  1  0  0  0
 11 10  2  0  0  0
 12 10  1  0  0  0
  7  6  1  0  0  0
 16 15  1  0  0  0
 14 12  1  0  0  0
 15 14  1  0  0  0
 19 16  1  0  0  0
 17 16  1  0  0  0
 20 19  1  0  0  0
 18 17  1  0  0  0
 12 13  1  0  0  0
  7  8  1  0  0  0
  7  9  1  0  0  0
M  END
> <minimizedAffinity>
-5.95821

$$$$
Metoclopramide


 22 22  0  0  0  0  0  0  0  0999 V2000
   43.6916   15.6660   32.1762 C   0  0  0  0  0  0  0  0  0  0  0  0
   42.5932   16.2436   31.5976 C   0  0  0  0  0  0  0  0  0  0  0  0
   44.5728   16.5252   32.8320 C   0  0  0  0  0  0  0  0  0  0  0  0
   42.3934   17.6103   31.6753 C   0  0  0  0  0  0  0  0  0  0  0  0
   44.3705   17.8823   32.9070 C   0  0  0  0  0  0  0  0  0  0  0  0
   43.2682   18.4529   32.3244 C   0  0  0  0  0  0  0  0  0  0  0  0
   43.0867   19.8552   32.4200 N   0  0  0  0  0  0  0  0  0  0  0  0
   43.9082   20.4768   32.3161 H   0  0  0  0  0  0  0  0  0  0  0  0
   42.1609   20.3169   32.5950 H   0  0  0  0  0  0  0  0  0  0  0  0
   44.0259   14.2625   32.1665 C   0  0  0  0  0  0  0  0  0  0  0  0
   45.2264   13.9073   31.8792 O   0  0  0  0  0  0  0  0  0  0  0  0
   43.1500   13.1963   32.4451 N   0  0  0  0  0  0  0  0  0  0  0  0
   42.1788   13.3368   32.6867 H   0  0  0  0  0  0  0  0  0  0  0  0
   43.7302   11.8388   32.3660 C   0  0  0  0  0  0  0  0  0  0  0  0
   42.6500   10.8056   32.3709 C   0  0  0  0  0  0  0  0  0  0  0  0
   41.6675   11.1581   33.4330 N   0  0  0  0  0  0  0  0  0  0  0  0
   40.3523   10.9674   32.8350 C   0  0  0  0  0  0  0  0  0  0  0  0
   39.5126   12.1666   32.8077 C   0  0  0  0  0  0  0  0  0  0  0  0
   41.9190   10.3805   34.6031 C   0  0  0  0  0  0  0  0  0  0  0  0
   42.4021   11.2435   35.7376 C   0  0  0  0  0  0  0  0  0  0  0  0
   41.7464   15.3304   29.5328 C   0  0  0  0  0  0  0  0  0  0  0  0
   41.6859   15.4527   30.9350 O   0  0  0  0  0  0  0  0  0  0  0  0
  2  1  2  0  0  0
 21 22  1  0  0  0
  3  1  1  0  0  0
 10  1  1  0  0  0
  4  2  1  0  0  0
 22  2  1  0  0  0
  5  3  2  0  0  0
  6  4  2  0  0  0
  6  5  1  0  0  0
 11 10  2  0  0  0
 12 10  1  0  0  0
  7  6  1  0  0  0
 16 15  1  0  0  0
 14 12  1  0  0  0
 15 14  1  0  0  0
 19 16  1  0  0  0
 17 16  1  0  0  0
 20 19  1  0  0  0
 18 17  1  0  0  0
 12 13  1  0  0  0
  7  8  1  0  0  0
  7  9  1  0  0  0
M  END
> <minimizedAffinity>
-5.77538

$$$$
Metoclopramide


 22 22  0  0  0  0  0  0  0  0999 V2000
   42.8211   10.9683   33.3467 C   0  0  0  0  0  0  0  0  0  0  0  0
   42.9967   10.2937   32.1683 C   0  0  0  0  0  0  0  0  0  0  0  0
   42.2955   10.2352   34.4103 C   0  0  0  0  0  0  0  0  0  0  0  0
   42.6618    8.9553   32.0666 C   0  0  0  0  0  0  0  0  0  0  0  0
   41.9642    8.9057   34.3052 C   0  0  0  0  0  0  0  0  0  0  0  0
   42.1427    8.2376   33.1212 C   0  0  0  0  0  0  0  0  0  0  0  0
   41.7927    6.8665   33.0445 N   0  0  0  0  0  0  0  0  0  0  0  0
   40.9278    6.5413   33.5117 H   0  0  0  0  0  0  0  0  0  0  0  0
   42.3609    6.1427   32.5403 H   0  0  0  0  0  0  0  0  0  0  0  0
   43.1199   12.3587   33.5900 C   0  0  0  0  0  0  0  0  0  0  0  0
   43.6741   12.6948   34.6990 O   0  0  0  0  0  0  0  0  0  0  0  0
   42.8603   13.4312   32.7158 N   0  0  0  0  0  0  0  0  0  0  0  0
   42.4291   13.3052   31.8106 H   0  0  0  0  0  0  0  0  0  0  0  0
   43.2561   14.7726   33.1948 C   0  0  0  0  0  0  0  0  0  0  0  0
   44.4696   15.2528   32.4661 C   0  0  0  0  0  0  0  0  0  0  0  0
   44.2782   16.6911   32.1313 N   0  0  0  0  0  0  0  0  0  0  0  0
   42.8668   16.8360   31.7986 C   0  0  0  0  0  0  0  0  0  0  0  0
   42.3392   18.1938   31.9467 C   0  0  0  0  0  0  0  0  0  0  0  0
   44.7319   17.5049   33.2124 C   0  0  0  0  0  0  0  0  0  0  0  0
   45.9843   18.2534   32.8429 C   0  0  0  0  0  0  0  0  0  0  0  0
   44.0855   10.2352   30.0177 C   0  0  0  0  0  0  0  0  0  0  0  0
   43.5100   10.9584   31.0809 O   0  0  0  0  0  0  0  0  0  0  0  0
  2  1  2  0  0  0
 21 22  1  0  0  0
  3  1  1  0  0  0
 10  1  1  0  0  0
  4  2  1  0  0  0
 22  2  1  0  0  0
  5  3  2  0  0  0
  6  4  2  0  0  0
  6  5  1  0  0  0
 11 10  2  0  0  0
 12 10  1  0  0  0
  7  6  1  0  0  0
 16 15  1  0  0  0
 14 12  1  0  0  0
 15 14  1  0  0  0
 19 16  1  0  0  0
 17 16  1  0  0  0
 20 19  1  0  0  0
 18 17  1  0  0  0
 12 13  1  0  0  0
  7  8  1  0  0  0
  7  9  1  0  0  0
M  END
> <minimizedAffinity>
-5.68587

$$$$
