MINTEZOL (thiabendazole).cdx


 15 17  0  0  0  0  0  0  0  0999 V2000
   44.4161   16.7176   32.9985 C   0  0  0  0  0  0  0  0  0  0  0  0
   44.8687   15.6177   32.3553 N   0  0  0  0  0  0  0  0  0  0  0  0
   44.1152   14.5489   32.6530 C   0  0  0  0  0  0  0  0  0  0  0  0
   43.1441   14.9752   33.5176 C   0  0  0  0  0  0  0  0  0  0  0  0
   43.3555   16.2822   33.7027 N   0  0  0  0  0  0  0  0  0  0  0  0
   44.2107   13.2400   32.2302 C   0  0  0  0  0  0  0  0  0  0  0  0
   43.2773   12.3332   32.7101 C   0  0  0  0  0  0  0  0  0  0  0  0
   42.2830   12.7618   33.5934 C   0  0  0  0  0  0  0  0  0  0  0  0
   42.2007   14.0747   34.0071 C   0  0  0  0  0  0  0  0  0  0  0  0
   45.6930   15.6474   31.7257 H   0  0  0  0  0  0  0  0  0  0  0  0
   44.1721   19.1583   32.8266 N   0  0  0  0  0  0  0  0  0  0  0  0
   44.4175   20.2399   32.7891 C   0  0  0  0  0  0  0  0  0  0  0  0
   46.3038   20.2406   32.9955 S   0  0  0  0  0  0  0  0  0  0  0  0
   46.2694   18.3863   33.1020 C   0  0  0  0  0  0  0  0  0  0  0  0
   44.9211   18.0844   32.9725 C   0  0  0  0  0  0  0  0  0  0  0  0
 11 12  2  0  0  0
 12 13  1  0  0  0
 13 14  1  0  0  0
 14 15  2  0  0  0
 15 11  2  0  0  0
 15  1  1  0  0  0
  1  2  1  0  0  0
  2  3  1  0  0  0
  3  4  2  0  0  0
  3  6  1  0  0  0
  4  5  2  0  0  0
  5  1  2  0  0  0
  6  7  2  0  0  0
  7  8  1  0  0  0
  8  9  2  0  0  0
  9  4  1  0  0  0
  2 10  1  0  0  0
M  END
> <minimizedAffinity>
-6.14273

$$$$
MINTEZOL (thiabendazole).cdx


 15 17  0  0  0  0  0  0  0  0999 V2000
   43.6095   16.3849   32.4515 C   0  0  0  0  0  0  0  0  0  0  0  0
   43.1371   17.6511   32.4952 N   0  0  0  0  0  0  0  0  0  0  0  0
   44.1309   18.5218   32.7255 C   0  0  0  0  0  0  0  0  0  0  0  0
   45.2827   17.7911   32.8339 C   0  0  0  0  0  0  0  0  0  0  0  0
   44.9319   16.5122   32.6641 N   0  0  0  0  0  0  0  0  0  0  0  0
   44.1082   19.8950   32.8472 C   0  0  0  0  0  0  0  0  0  0  0  0
   45.3093   20.5451   33.0889 C   0  0  0  0  0  0  0  0  0  0  0  0
   46.4893   19.8050   33.2008 C   0  0  0  0  0  0  0  0  0  0  0  0
   46.4957   18.4317   33.0766 C   0  0  0  0  0  0  0  0  0  0  0  0
   42.1313   17.8691   32.3622 H   0  0  0  0  0  0  0  0  0  0  0  0
   41.7516   15.0257   31.5869 N   0  0  0  0  0  0  0  0  0  0  0  0
   41.1091   14.1531   31.3480 C   0  0  0  0  0  0  0  0  0  0  0  0
   42.0722   12.7105   32.1176 S   0  0  0  0  0  0  0  0  0  0  0  0
   43.3713   13.9112   32.6849 C   0  0  0  0  0  0  0  0  0  0  0  0
   42.8969   15.1331   32.2292 C   0  0  0  0  0  0  0  0  0  0  0  0
 11 12  2  0  0  0
 12 13  1  0  0  0
 13 14  1  0  0  0
 14 15  2  0  0  0
 15 11  2  0  0  0
 15  1  1  0  0  0
  1  2  1  0  0  0
  2  3  1  0  0  0
  3  4  2  0  0  0
  3  6  1  0  0  0
  4  5  2  0  0  0
  5  1  2  0  0  0
  6  7  2  0  0  0
  7  8  1  0  0  0
  8  9  2  0  0  0
  9  4  1  0  0  0
  2 10  1  0  0  0
M  END
> <minimizedAffinity>
-5.97923

$$$$
MINTEZOL (thiabendazole).cdx


 15 17  0  0  0  0  0  0  0  0999 V2000
   44.3545   15.9033   32.4022 C   0  0  0  0  0  0  0  0  0  0  0  0
   45.5746   16.4287   32.6545 N   0  0  0  0  0  0  0  0  0  0  0  0
   45.4977   17.7592   32.8042 C   0  0  0  0  0  0  0  0  0  0  0  0
   44.1830   18.1024   32.6427 C   0  0  0  0  0  0  0  0  0  0  0  0
   43.5257   16.9633   32.4027 N   0  0  0  0  0  0  0  0  0  0  0  0
   46.4809   18.6889   33.0690 C   0  0  0  0  0  0  0  0  0  0  0  0
   46.1047   20.0199   33.1725 C   0  0  0  0  0  0  0  0  0  0  0  0
   44.7638   20.3774   33.0086 C   0  0  0  0  0  0  0  0  0  0  0  0
   43.7919   19.4356   32.7441 C   0  0  0  0  0  0  0  0  0  0  0  0
   46.4267   15.8396   32.7147 H   0  0  0  0  0  0  0  0  0  0  0  0
   44.1420   13.8658   31.0420 N   0  0  0  0  0  0  0  0  0  0  0  0
   43.9002   12.8278   30.7333 C   0  0  0  0  0  0  0  0  0  0  0  0
   43.1123   12.1056   32.3014 S   0  0  0  0  0  0  0  0  0  0  0  0
   43.3655   13.7376   33.1519 C   0  0  0  0  0  0  0  0  0  0  0  0
   43.9675   14.5169   32.1740 C   0  0  0  0  0  0  0  0  0  0  0  0
 11 12  2  0  0  0
 12 13  1  0  0  0
 13 14  1  0  0  0
 14 15  2  0  0  0
 15 11  2  0  0  0
 15  1  1  0  0  0
  1  2  1  0  0  0
  2  3  1  0  0  0
  3  4  2  0  0  0
  3  6  1  0  0  0
  4  5  2  0  0  0
  5  1  2  0  0  0
  6  7  2  0  0  0
  7  8  1  0  0  0
  8  9  2  0  0  0
  9  4  1  0  0  0
  2 10  1  0  0  0
M  END
> <minimizedAffinity>
-5.57850

$$$$
MINTEZOL (thiabendazole).cdx


 15 17  0  0  0  0  0  0  0  0999 V2000
   42.4104   13.2097   33.5667 C   0  0  0  0  0  0  0  0  0  0  0  0
   41.9140   12.7632   34.7426 N   0  0  0  0  0  0  0  0  0  0  0  0
   41.8618   11.4231   34.7585 C   0  0  0  0  0  0  0  0  0  0  0  0
   42.3410   10.9919   33.5516 C   0  0  0  0  0  0  0  0  0  0  0  0
   42.6608   12.0914   32.8616 N   0  0  0  0  0  0  0  0  0  0  0  0
   41.4307   10.5553   35.7394 C   0  0  0  0  0  0  0  0  0  0  0  0
   41.4924    9.1951   35.4755 C   0  0  0  0  0  0  0  0  0  0  0  0
   41.9807    8.7478   34.2449 C   0  0  0  0  0  0  0  0  0  0  0  0
   42.4082    9.6285   33.2737 C   0  0  0  0  0  0  0  0  0  0  0  0
   41.6259   13.4105   35.5007 H   0  0  0  0  0  0  0  0  0  0  0  0
   43.3631   15.4683   33.7604 N   0  0  0  0  0  0  0  0  0  0  0  0
   43.6192   16.5245   33.5366 C   0  0  0  0  0  0  0  0  0  0  0  0
   42.7335   16.8211   31.8848 S   0  0  0  0  0  0  0  0  0  0  0  0
   42.1129   15.0707   31.9302 C   0  0  0  0  0  0  0  0  0  0  0  0
   42.6426   14.5751   33.1133 C   0  0  0  0  0  0  0  0  0  0  0  0
 11 12  2  0  0  0
 12 13  1  0  0  0
 13 14  1  0  0  0
 14 15  2  0  0  0
 15 11  2  0  0  0
 15  1  1  0  0  0
  1  2  1  0  0  0
  2  3  1  0  0  0
  3  4  2  0  0  0
  3  6  1  0  0  0
  4  5  2  0  0  0
  5  1  2  0  0  0
  6  7  2  0  0  0
  7  8  1  0  0  0
  8  9  2  0  0  0
  9  4  1  0  0  0
  2 10  1  0  0  0
M  END
> <minimizedAffinity>
-5.51824

$$$$
MINTEZOL (thiabendazole).cdx


 15 17  0  0  0  0  0  0  0  0999 V2000
   41.8031   17.4887   29.3655 C   0  0  0  0  0  0  0  0  0  0  0  0
   42.4596   18.1256   30.3614 N   0  0  0  0  0  0  0  0  0  0  0  0
   42.9499   17.2455   31.2467 C   0  0  0  0  0  0  0  0  0  0  0  0
   42.5968   15.9992   30.8059 C   0  0  0  0  0  0  0  0  0  0  0  0
   41.9094   16.1834   29.6742 N   0  0  0  0  0  0  0  0  0  0  0  0
   43.6762   17.4469   32.4012 C   0  0  0  0  0  0  0  0  0  0  0  0
   44.0558   16.3309   33.1322 C   0  0  0  0  0  0  0  0  0  0  0  0
   43.6986   15.0551   32.6877 C   0  0  0  0  0  0  0  0  0  0  0  0
   42.9717   14.8701   31.5306 C   0  0  0  0  0  0  0  0  0  0  0  0
   42.5455   19.1592   30.3921 H   0  0  0  0  0  0  0  0  0  0  0  0
   39.8110   18.0944   28.0573 N   0  0  0  0  0  0  0  0  0  0  0  0
   39.1663   18.4786   27.2400 C   0  0  0  0  0  0  0  0  0  0  0  0
   40.4351   19.0966   25.9715 S   0  0  0  0  0  0  0  0  0  0  0  0
   41.8006   18.5644   27.1131 C   0  0  0  0  0  0  0  0  0  0  0  0
   41.1194   18.0380   28.2016 C   0  0  0  0  0  0  0  0  0  0  0  0
 11 12  2  0  0  0
 12 13  1  0  0  0
 13 14  1  0  0  0
 14 15  2  0  0  0
 15 11  2  0  0  0
 15  1  1  0  0  0
  1  2  1  0  0  0
  2  3  1  0  0  0
  3  4  2  0  0  0
  3  6  1  0  0  0
  4  5  2  0  0  0
  5  1  2  0  0  0
  6  7  2  0  0  0
  7  8  1  0  0  0
  8  9  2  0  0  0
  9  4  1  0  0  0
  2 10  1  0  0  0
M  END
> <minimizedAffinity>
-5.49777

$$$$
