ML234.cdx


 28 30  0  0  0  0  0  0  0  0999 V2000
   43.4650   14.2789   32.5013 C   0  0  0  0  0  0  0  0  0  0  0  0
   42.7537   13.6664   33.5373 C   0  0  0  0  0  0  0  0  0  0  0  0
   42.5619   12.3022   33.5882 C   0  0  0  0  0  0  0  0  0  0  0  0
   43.0708   11.4882   32.6074 C   0  0  0  0  0  0  0  0  0  0  0  0
   43.7731   12.1103   31.5873 C   0  0  0  0  0  0  0  0  0  0  0  0
   43.9654   13.4733   31.5356 C   0  0  0  0  0  0  0  0  0  0  0  0
   45.0567   20.4621   33.0352 C   0  0  0  0  0  0  0  0  0  0  0  0
   46.1238   19.6786   33.4428 C   0  0  0  0  0  0  0  0  0  0  0  0
   46.0244   18.2981   33.4203 C   0  0  0  0  0  0  0  0  0  0  0  0
   44.8660   17.6751   32.9935 C   0  0  0  0  0  0  0  0  0  0  0  0
   43.8310   18.4944   32.5974 C   0  0  0  0  0  0  0  0  0  0  0  0
   43.9329   19.8545   32.6213 N   0  0  0  0  0  0  0  0  0  0  0  0
   44.7970   16.2984   32.9808 C   0  0  0  0  0  0  0  0  0  0  0  0
   43.6107   15.7336   32.5412 C   0  0  0  0  0  0  0  0  0  0  0  0
   42.5565   16.5314   32.1383 C   0  0  0  0  0  0  0  0  0  0  0  0
   42.6581   17.9140   32.1631 C   0  0  0  0  0  0  0  0  0  0  0  0
   41.5919   18.7039   31.7561 O   0  0  0  0  0  0  0  0  0  0  0  0
   41.7856   19.5028   31.1583 H   0  0  0  0  0  0  0  0  0  0  0  0
   42.8856   10.0206   32.6103 C   0  0  0  0  0  0  0  0  0  0  0  0
   43.2780    9.4335   31.5753 O   0  0  0  0  0  0  0  0  0  0  0  0
   42.3110    9.3250   33.6914 N   0  0  0  0  0  0  0  0  0  0  0  0
   41.9987    9.9435   34.5089 H   0  0  0  0  0  0  0  0  0  0  0  0
   42.0949    7.9281   33.8366 C   0  0  0  0  0  0  0  0  0  0  0  0
   40.8007    7.3326   33.4556 C   0  0  0  0  0  0  0  0  0  0  0  0
   40.2867    7.5211   32.0817 C   0  0  0  0  0  0  0  0  0  0  0  0
   38.9978    8.2649   32.0970 N   0  0  0  0  0  0  0  0  0  0  0  0
   39.2888    9.6213   31.6821 C   0  0  0  0  0  0  0  0  0  0  0  0
   38.0696    7.6366   31.2079 C   0  0  0  0  0  0  0  0  0  0  0  0
  7  8  2  0  0  0
  8  9  1  0  0  0
  9 10  2  0  0  0
 10 11  1  0  0  0
 10 13  1  0  0  0
 11 12  2  0  0  0
 12  7  2  0  0  0
 13 14  2  0  0  0
 14 15  1  0  0  0
 14  1  1  0  0  0
 15 16  2  0  0  0
 16 11  1  0  0  0
 16 17  1  0  0  0
  1  2  2  0  0  0
  2  3  1  0  0  0
  3  4  2  0  0  0
  4  5  1  0  0  0
  4 19  1  0  0  0
  5  6  2  0  0  0
  6  1  1  0  0  0
 19 20  2  0  0  0
 19 21  1  0  0  0
 21 23  1  0  0  0
 23 24  1  0  0  0
 24 25  1  0  0  0
 25 26  1  0  0  0
 26 27  1  0  0  0
 26 28  1  0  0  0
 17 18  1  0  0  0
 21 22  1  0  0  0
M  END
> <minimizedAffinity>
-8.38352

$$$$
ML234.cdx


 28 30  0  0  0  0  0  0  0  0999 V2000
   43.5765   14.2324   32.2770 C   0  0  0  0  0  0  0  0  0  0  0  0
   42.8013   13.5708   33.2340 C   0  0  0  0  0  0  0  0  0  0  0  0
   42.6269   12.2035   33.2182 C   0  0  0  0  0  0  0  0  0  0  0  0
   43.2177   11.4351   32.2466 C   0  0  0  0  0  0  0  0  0  0  0  0
   43.9827   12.1054   31.3051 C   0  0  0  0  0  0  0  0  0  0  0  0
   44.1577   13.4717   31.3201 C   0  0  0  0  0  0  0  0  0  0  0  0
   45.0723   20.4128   33.0621 C   0  0  0  0  0  0  0  0  0  0  0  0
   46.1660   19.6316   33.3970 C   0  0  0  0  0  0  0  0  0  0  0  0
   46.0910   18.2521   33.3102 C   0  0  0  0  0  0  0  0  0  0  0  0
   44.9310   17.6277   32.8902 C   0  0  0  0  0  0  0  0  0  0  0  0
   43.8689   18.4447   32.5675 C   0  0  0  0  0  0  0  0  0  0  0  0
   43.9469   19.8038   32.6547 N   0  0  0  0  0  0  0  0  0  0  0  0
   44.8865   16.2522   32.8124 C   0  0  0  0  0  0  0  0  0  0  0  0
   43.6970   15.6861   32.3833 C   0  0  0  0  0  0  0  0  0  0  0  0
   42.6160   16.4814   32.0533 C   0  0  0  0  0  0  0  0  0  0  0  0
   42.6933   17.8630   32.1426 C   0  0  0  0  0  0  0  0  0  0  0  0
   41.6003   18.6505   31.8084 O   0  0  0  0  0  0  0  0  0  0  0  0
   41.7599   19.4809   31.2446 H   0  0  0  0  0  0  0  0  0  0  0  0
   43.0549    9.9663   32.1795 C   0  0  0  0  0  0  0  0  0  0  0  0
   42.6809    9.4240   33.2452 O   0  0  0  0  0  0  0  0  0  0  0  0
   43.3006    9.2230   31.0091 N   0  0  0  0  0  0  0  0  0  0  0  0
   43.6343    9.8013   30.1709 H   0  0  0  0  0  0  0  0  0  0  0  0
   43.1648    7.8243   30.7986 C   0  0  0  0  0  0  0  0  0  0  0  0
   43.9810    7.1438   29.7761 C   0  0  0  0  0  0  0  0  0  0  0  0
   44.1486    7.7645   28.4441 C   0  0  0  0  0  0  0  0  0  0  0  0
   45.5902    7.9483   28.1242 N   0  0  0  0  0  0  0  0  0  0  0  0
   45.7091    7.9194   26.6814 C   0  0  0  0  0  0  0  0  0  0  0  0
   46.0462    9.1946   28.6590 C   0  0  0  0  0  0  0  0  0  0  0  0
  7  8  2  0  0  0
  8  9  1  0  0  0
  9 10  2  0  0  0
 10 11  1  0  0  0
 10 13  1  0  0  0
 11 12  2  0  0  0
 12  7  2  0  0  0
 13 14  2  0  0  0
 14 15  1  0  0  0
 14  1  1  0  0  0
 15 16  2  0  0  0
 16 11  1  0  0  0
 16 17  1  0  0  0
  1  2  2  0  0  0
  2  3  1  0  0  0
  3  4  2  0  0  0
  4  5  1  0  0  0
  4 19  1  0  0  0
  5  6  2  0  0  0
  6  1  1  0  0  0
 19 20  2  0  0  0
 19 21  1  0  0  0
 21 23  1  0  0  0
 23 24  1  0  0  0
 24 25  1  0  0  0
 25 26  1  0  0  0
 26 27  1  0  0  0
 26 28  1  0  0  0
 17 18  1  0  0  0
 21 22  1  0  0  0
M  END
> <minimizedAffinity>
-8.25405

$$$$
ML234.cdx


 28 30  0  0  0  0  0  0  0  0999 V2000
   43.3722   14.2052   32.3213 C   0  0  0  0  0  0  0  0  0  0  0  0
   44.1723   13.5061   31.4126 C   0  0  0  0  0  0  0  0  0  0  0  0
   44.0919   12.1376   31.2669 C   0  0  0  0  0  0  0  0  0  0  0  0
   43.2099   11.4055   32.0217 C   0  0  0  0  0  0  0  0  0  0  0  0
   42.4241   12.1127   32.9179 C   0  0  0  0  0  0  0  0  0  0  0  0
   42.5036   13.4801   33.0641 C   0  0  0  0  0  0  0  0  0  0  0  0
   45.0471   20.3521   32.9999 C   0  0  0  0  0  0  0  0  0  0  0  0
   46.1098   19.5451   33.3715 C   0  0  0  0  0  0  0  0  0  0  0  0
   45.9931   18.1670   33.3132 C   0  0  0  0  0  0  0  0  0  0  0  0
   44.8215   17.5697   32.8856 C   0  0  0  0  0  0  0  0  0  0  0  0
   43.7915   18.4118   32.5260 C   0  0  0  0  0  0  0  0  0  0  0  0
   43.9105   19.7695   32.5852 N   0  0  0  0  0  0  0  0  0  0  0  0
   44.7354   16.1948   32.8367 C   0  0  0  0  0  0  0  0  0  0  0  0
   43.5364   15.6564   32.3984 C   0  0  0  0  0  0  0  0  0  0  0  0
   42.4868   16.4774   32.0317 C   0  0  0  0  0  0  0  0  0  0  0  0
   42.6058   17.8575   32.0924 C   0  0  0  0  0  0  0  0  0  0  0  0
   41.5441   18.6709   31.7215 O   0  0  0  0  0  0  0  0  0  0  0  0
   41.7395   19.4833   31.1428 H   0  0  0  0  0  0  0  0  0  0  0  0
   43.0909    9.9351   31.9105 C   0  0  0  0  0  0  0  0  0  0  0  0
   43.6659    9.4290   30.9191 O   0  0  0  0  0  0  0  0  0  0  0  0
   42.3847    9.1529   32.8444 N   0  0  0  0  0  0  0  0  0  0  0  0
   41.9214    9.7070   33.6361 H   0  0  0  0  0  0  0  0  0  0  0  0
   42.2097    7.7431   32.8726 C   0  0  0  0  0  0  0  0  0  0  0  0
   41.9838    7.0476   34.1533 C   0  0  0  0  0  0  0  0  0  0  0  0
   41.0374    7.6177   35.1365 C   0  0  0  0  0  0  0  0  0  0  0  0
   41.6521    8.7648   35.8581 N   0  0  0  0  0  0  0  0  0  0  0  0
   40.6827    9.8403   35.8440 C   0  0  0  0  0  0  0  0  0  0  0  0
   41.9757    8.3735   37.1957 C   0  0  0  0  0  0  0  0  0  0  0  0
  7  8  2  0  0  0
  8  9  1  0  0  0
  9 10  2  0  0  0
 10 11  1  0  0  0
 10 13  1  0  0  0
 11 12  2  0  0  0
 12  7  2  0  0  0
 13 14  2  0  0  0
 14 15  1  0  0  0
 14  1  1  0  0  0
 15 16  2  0  0  0
 16 11  1  0  0  0
 16 17  1  0  0  0
  1  2  2  0  0  0
  2  3  1  0  0  0
  3  4  2  0  0  0
  4  5  1  0  0  0
  4 19  1  0  0  0
  5  6  2  0  0  0
  6  1  1  0  0  0
 19 20  2  0  0  0
 19 21  1  0  0  0
 21 23  1  0  0  0
 23 24  1  0  0  0
 24 25  1  0  0  0
 25 26  1  0  0  0
 26 27  1  0  0  0
 26 28  1  0  0  0
 17 18  1  0  0  0
 21 22  1  0  0  0
M  END
> <minimizedAffinity>
-7.92616

$$$$
ML234.cdx


 28 30  0  0  0  0  0  0  0  0999 V2000
   43.4162   14.2514   32.5894 C   0  0  0  0  0  0  0  0  0  0  0  0
   43.4797   13.5945   31.3570 C   0  0  0  0  0  0  0  0  0  0  0  0
   43.3456   12.2269   31.2475 C   0  0  0  0  0  0  0  0  0  0  0  0
   43.1426   11.4534   32.3629 C   0  0  0  0  0  0  0  0  0  0  0  0
   43.0823   12.1191   33.5770 C   0  0  0  0  0  0  0  0  0  0  0  0
   43.2160   13.4856   33.6875 C   0  0  0  0  0  0  0  0  0  0  0  0
   45.0465   20.4349   32.9848 C   0  0  0  0  0  0  0  0  0  0  0  0
   46.1068   19.6542   33.4149 C   0  0  0  0  0  0  0  0  0  0  0  0
   45.9984   18.2743   33.4243 C   0  0  0  0  0  0  0  0  0  0  0  0
   44.8377   17.6489   33.0076 C   0  0  0  0  0  0  0  0  0  0  0  0
   43.8096   18.4655   32.5883 C   0  0  0  0  0  0  0  0  0  0  0  0
   43.9203   19.8251   32.5808 N   0  0  0  0  0  0  0  0  0  0  0  0
   44.7596   16.2728   33.0268 C   0  0  0  0  0  0  0  0  0  0  0  0
   43.5713   15.7056   32.5959 C   0  0  0  0  0  0  0  0  0  0  0  0
   42.5239   16.5005   32.1702 C   0  0  0  0  0  0  0  0  0  0  0  0
   42.6346   17.8827   32.1631 C   0  0  0  0  0  0  0  0  0  0  0  0
   41.5751   18.6698   31.7334 O   0  0  0  0  0  0  0  0  0  0  0  0
   41.7763   19.4531   31.1178 H   0  0  0  0  0  0  0  0  0  0  0  0
   43.0016    9.9821   32.3011 C   0  0  0  0  0  0  0  0  0  0  0  0
   42.6985    9.4315   33.3849 O   0  0  0  0  0  0  0  0  0  0  0  0
   43.1925    9.2454   31.1165 N   0  0  0  0  0  0  0  0  0  0  0  0
   43.4676    9.8309   30.2622 H   0  0  0  0  0  0  0  0  0  0  0  0
   43.0689    7.8449   30.9101 C   0  0  0  0  0  0  0  0  0  0  0  0
   41.7840    7.1668   31.1630 C   0  0  0  0  0  0  0  0  0  0  0  0
   40.6756    7.3191   30.1956 C   0  0  0  0  0  0  0  0  0  0  0  0
   40.0917    8.6858   30.2718 N   0  0  0  0  0  0  0  0  0  0  0  0
   39.1105    8.7848   29.2115 C   0  0  0  0  0  0  0  0  0  0  0  0
   39.4917    8.8813   31.5558 C   0  0  0  0  0  0  0  0  0  0  0  0
  7  8  2  0  0  0
  8  9  1  0  0  0
  9 10  2  0  0  0
 10 11  1  0  0  0
 10 13  1  0  0  0
 11 12  2  0  0  0
 12  7  2  0  0  0
 13 14  2  0  0  0
 14 15  1  0  0  0
 14  1  1  0  0  0
 15 16  2  0  0  0
 16 11  1  0  0  0
 16 17  1  0  0  0
  1  2  2  0  0  0
  2  3  1  0  0  0
  3  4  2  0  0  0
  4  5  1  0  0  0
  4 19  1  0  0  0
  5  6  2  0  0  0
  6  1  1  0  0  0
 19 20  2  0  0  0
 19 21  1  0  0  0
 21 23  1  0  0  0
 23 24  1  0  0  0
 24 25  1  0  0  0
 25 26  1  0  0  0
 26 27  1  0  0  0
 26 28  1  0  0  0
 17 18  1  0  0  0
 21 22  1  0  0  0
M  END
> <minimizedAffinity>
-7.80277

$$$$
ML234.cdx


 28 30  0  0  0  0  0  0  0  0999 V2000
   42.4223   13.3972   32.5882 C   0  0  0  0  0  0  0  0  0  0  0  0
   41.8386   13.3129   31.3207 C   0  0  0  0  0  0  0  0  0  0  0  0
   41.9149   14.3436   30.4085 C   0  0  0  0  0  0  0  0  0  0  0  0
   42.5765   15.5049   30.7205 C   0  0  0  0  0  0  0  0  0  0  0  0
   43.1495   15.5733   31.9806 C   0  0  0  0  0  0  0  0  0  0  0  0
   43.0740   14.5438   32.8927 C   0  0  0  0  0  0  0  0  0  0  0  0
   41.4628    7.8583   35.6623 C   0  0  0  0  0  0  0  0  0  0  0  0
   41.1056    7.7107   34.3321 C   0  0  0  0  0  0  0  0  0  0  0  0
   41.2224    8.7760   33.4560 C   0  0  0  0  0  0  0  0  0  0  0  0
   41.6948   10.0023   33.8860 C   0  0  0  0  0  0  0  0  0  0  0  0
   42.0381   10.1025   35.2171 C   0  0  0  0  0  0  0  0  0  0  0  0
   41.9212    9.0503   36.0774 N   0  0  0  0  0  0  0  0  0  0  0  0
   41.8016   11.0444   32.9901 C   0  0  0  0  0  0  0  0  0  0  0  0
   42.2829   12.2473   33.4810 C   0  0  0  0  0  0  0  0  0  0  0  0
   42.6344   12.3760   34.8114 C   0  0  0  0  0  0  0  0  0  0  0  0
   42.5151   11.3077   35.6874 C   0  0  0  0  0  0  0  0  0  0  0  0
   42.8713   11.4501   37.0212 O   0  0  0  0  0  0  0  0  0  0  0  0
   43.4126   10.7082   37.4566 H   0  0  0  0  0  0  0  0  0  0  0  0
   42.6795   16.6436   29.7818 C   0  0  0  0  0  0  0  0  0  0  0  0
   42.4691   17.7702   30.2880 O   0  0  0  0  0  0  0  0  0  0  0  0
   42.9899   16.4836   28.4177 N   0  0  0  0  0  0  0  0  0  0  0  0
   43.1283   15.4683   28.1041 H   0  0  0  0  0  0  0  0  0  0  0  0
   43.1416   17.4808   27.4169 C   0  0  0  0  0  0  0  0  0  0  0  0
   42.0002   17.8551   26.5614 C   0  0  0  0  0  0  0  0  0  0  0  0
   41.3359   19.1614   26.7611 C   0  0  0  0  0  0  0  0  0  0  0  0
   40.8551   19.7134   25.4655 N   0  0  0  0  0  0  0  0  0  0  0  0
   41.5451   18.9908   24.4173 C   0  0  0  0  0  0  0  0  0  0  0  0
   39.4377   19.5448   25.3675 C   0  0  0  0  0  0  0  0  0  0  0  0
  7  8  2  0  0  0
  8  9  1  0  0  0
  9 10  2  0  0  0
 10 11  1  0  0  0
 10 13  1  0  0  0
 11 12  2  0  0  0
 12  7  2  0  0  0
 13 14  2  0  0  0
 14 15  1  0  0  0
 14  1  1  0  0  0
 15 16  2  0  0  0
 16 11  1  0  0  0
 16 17  1  0  0  0
  1  2  2  0  0  0
  2  3  1  0  0  0
  3  4  2  0  0  0
  4  5  1  0  0  0
  4 19  1  0  0  0
  5  6  2  0  0  0
  6  1  1  0  0  0
 19 20  2  0  0  0
 19 21  1  0  0  0
 21 23  1  0  0  0
 23 24  1  0  0  0
 24 25  1  0  0  0
 25 26  1  0  0  0
 26 27  1  0  0  0
 26 28  1  0  0  0
 17 18  1  0  0  0
 21 22  1  0  0  0
M  END
> <minimizedAffinity>
-7.14537

$$$$
