N-Formyl-Met-Leu-Phe (fMLP)


 34 34  0  0  0  0  0  0  0  0999 V2000
   42.2333   14.5922   28.7844 C   0  0  0  0  0  0  0  0  0  0  0  0
   42.2642   14.7538   30.2509 C   0  0  0  0  0  0  0  0  0  0  0  0
   43.4670   15.1159   30.8743 N   0  0  0  0  0  0  0  0  0  0  0  0
   41.2512   14.5803   30.9772 O   0  0  0  0  0  0  0  0  0  0  0  0
   44.3793   15.2868   30.3642 H   0  0  0  0  0  0  0  0  0  0  0  0
   43.5697   15.2936   32.3327 C   0  0  0  0  0  0  0  0  0  0  0  0
   44.1191   16.6352   32.6309 C   0  0  0  0  0  0  0  0  0  0  0  0
   44.5260   17.4927   31.6156 O   0  0  0  0  0  0  0  0  0  0  0  0
   44.2523   17.0822   33.8125 O   0  0  0  0  0  0  0  0  0  0  0  0
   44.7837   18.4642   31.8113 H   0  0  0  0  0  0  0  0  0  0  0  0
   44.4650   14.2038   32.8164 C   0  0  0  0  0  0  0  0  0  0  0  0
   43.8086   12.9475   33.1774 C   0  0  0  0  0  0  0  0  0  0  0  0
   43.5921   11.9249   32.2831 C   0  0  0  0  0  0  0  0  0  0  0  0
   43.3683   12.7374   34.4846 C   0  0  0  0  0  0  0  0  0  0  0  0
   42.9649   10.7512   32.6831 C   0  0  0  0  0  0  0  0  0  0  0  0
   42.7476   11.5759   34.8797 C   0  0  0  0  0  0  0  0  0  0  0  0
   42.5341   10.5568   33.9796 C   0  0  0  0  0  0  0  0  0  0  0  0
   41.6649   15.7003   28.0698 N   0  0  0  0  0  0  0  0  0  0  0  0
   42.2182   17.0296   28.1069 C   0  0  0  0  0  0  0  0  0  0  0  0
   43.2697   17.2776   28.7965 O   0  0  0  0  0  0  0  0  0  0  0  0
   40.8099   15.6017   27.4752 H   0  0  0  0  0  0  0  0  0  0  0  0
   41.6175   18.1303   27.3788 C   0  0  0  0  0  0  0  0  0  0  0  0
   41.7114   17.7949   25.9443 N   0  0  0  0  0  0  0  0  0  0  0  0
   42.8144   18.2005   25.1507 C   0  0  0  0  0  0  0  0  0  0  0  0
   43.7565   18.8604   25.6303 O   0  0  0  0  0  0  0  0  0  0  0  0
   40.9588   17.2439   25.4733 H   0  0  0  0  0  0  0  0  0  0  0  0
   40.3090   18.6588   27.7304 C   0  0  0  0  0  0  0  0  0  0  0  0
   39.2665   18.9142   26.7142 C   0  0  0  0  0  0  0  0  0  0  0  0
   37.5670   18.6740   27.0980 S   0  0  0  0  0  0  0  0  0  0  0  0
   37.1180   19.3475   28.6968 C   0  0  0  0  0  0  0  0  0  0  0  0
   43.5806   14.1668   28.2710 C   0  0  0  0  0  0  0  0  0  0  0  0
   43.8208   12.7130   28.1420 C   0  0  0  0  0  0  0  0  0  0  0  0
   42.7484   11.8028   28.6202 C   0  0  0  0  0  0  0  0  0  0  0  0
   45.0748   12.4252   28.9827 C   0  0  0  0  0  0  0  0  0  0  0  0
  1 31  1  0  0  0
  1 18  1  0  0  0
  1  2  1  0  0  0
  2  3  1  0  0  0
  2  4  2  0  0  0
 18 19  1  0  0  0
 31 32  1  0  0  0
  3  6  1  0  0  0
 19 20  2  0  0  0
 32 33  1  0  0  0
 32 34  1  0  0  0
  6 11  1  0  0  0
  6  7  1  0  0  0
 22 23  1  0  0  0
 22 27  1  0  0  0
 22 19  1  0  0  0
 11 12  1  0  0  0
  7  8  1  0  0  0
  7  9  2  0  0  0
 27 28  1  0  0  0
 23 24  1  0  0  0
 28 29  1  0  0  0
 24 25  2  0  0  0
 29 30  1  0  0  0
 12 13  2  0  0  0
 12 14  1  0  0  0
 13 15  1  0  0  0
 14 16  2  0  0  0
 15 17  2  0  0  0
 16 17  1  0  0  0
 18 21  1  0  0  0
  3  5  1  0  0  0
 23 26  1  0  0  0
  8 10  1  0  0  0
M  END
> <minimizedAffinity>
-6.72590

$$$$
N-Formyl-Met-Leu-Phe (fMLP)


 34 34  0  0  0  0  0  0  0  0999 V2000
   42.4945   14.4749   28.3208 C   0  0  0  0  0  0  0  0  0  0  0  0
   42.3312   14.7406   29.7632 C   0  0  0  0  0  0  0  0  0  0  0  0
   43.4717   14.9086   30.5616 N   0  0  0  0  0  0  0  0  0  0  0  0
   41.2045   14.8247   30.3175 O   0  0  0  0  0  0  0  0  0  0  0  0
   44.4672   14.8584   30.2036 H   0  0  0  0  0  0  0  0  0  0  0  0
   43.3824   15.1753   32.0072 C   0  0  0  0  0  0  0  0  0  0  0  0
   43.7828   16.5741   32.2787 C   0  0  0  0  0  0  0  0  0  0  0  0
   43.9257   17.4985   31.2506 O   0  0  0  0  0  0  0  0  0  0  0  0
   44.0177   17.0131   33.4474 O   0  0  0  0  0  0  0  0  0  0  0  0
   44.0753   18.4924   31.4460 H   0  0  0  0  0  0  0  0  0  0  0  0
   44.2966   14.1962   32.6620 C   0  0  0  0  0  0  0  0  0  0  0  0
   43.6977   12.9189   33.0483 C   0  0  0  0  0  0  0  0  0  0  0  0
   43.5220   11.8723   32.1730 C   0  0  0  0  0  0  0  0  0  0  0  0
   43.2733   12.7127   34.3614 C   0  0  0  0  0  0  0  0  0  0  0  0
   42.9487   10.6795   32.5967 C   0  0  0  0  0  0  0  0  0  0  0  0
   42.7060   11.5321   34.7800 C   0  0  0  0  0  0  0  0  0  0  0  0
   42.5331   10.4891   33.8988 C   0  0  0  0  0  0  0  0  0  0  0  0
   42.0789   15.5477   27.4616 N   0  0  0  0  0  0  0  0  0  0  0  0
   42.5822   16.8921   27.5792 C   0  0  0  0  0  0  0  0  0  0  0  0
   43.4462   17.1869   28.4787 O   0  0  0  0  0  0  0  0  0  0  0  0
   41.3818   15.4100   26.6938 H   0  0  0  0  0  0  0  0  0  0  0  0
   42.1383   17.9561   26.6998 C   0  0  0  0  0  0  0  0  0  0  0  0
   41.2539   18.8281   27.4977 N   0  0  0  0  0  0  0  0  0  0  0  0
   39.9014   18.4887   27.7554 C   0  0  0  0  0  0  0  0  0  0  0  0
   39.3975   17.4361   27.3184 O   0  0  0  0  0  0  0  0  0  0  0  0
   41.6070   19.7268   27.8969 H   0  0  0  0  0  0  0  0  0  0  0  0
   43.0729   18.7220   25.8905 C   0  0  0  0  0  0  0  0  0  0  0  0
   43.3946   18.3479   24.4972 C   0  0  0  0  0  0  0  0  0  0  0  0
   44.8240   17.3886   24.1370 S   0  0  0  0  0  0  0  0  0  0  0  0
   44.7165   15.7199   24.7816 C   0  0  0  0  0  0  0  0  0  0  0  0
   43.8793   13.9674   28.0303 C   0  0  0  0  0  0  0  0  0  0  0  0
   44.0586   12.5002   27.9775 C   0  0  0  0  0  0  0  0  0  0  0  0
   42.9356   11.6611   28.4694 C   0  0  0  0  0  0  0  0  0  0  0  0
   45.2773   12.2006   28.8647 C   0  0  0  0  0  0  0  0  0  0  0  0
  1 31  1  0  0  0
  1 18  1  0  0  0
  1  2  1  0  0  0
  2  3  1  0  0  0
  2  4  2  0  0  0
 18 19  1  0  0  0
 31 32  1  0  0  0
  3  6  1  0  0  0
 19 20  2  0  0  0
 32 33  1  0  0  0
 32 34  1  0  0  0
  6 11  1  0  0  0
  6  7  1  0  0  0
 22 23  1  0  0  0
 22 27  1  0  0  0
 22 19  1  0  0  0
 11 12  1  0  0  0
  7  8  1  0  0  0
  7  9  2  0  0  0
 27 28  1  0  0  0
 23 24  1  0  0  0
 28 29  1  0  0  0
 24 25  2  0  0  0
 29 30  1  0  0  0
 12 13  2  0  0  0
 12 14  1  0  0  0
 13 15  1  0  0  0
 14 16  2  0  0  0
 15 17  2  0  0  0
 16 17  1  0  0  0
 18 21  1  0  0  0
  3  5  1  0  0  0
 23 26  1  0  0  0
  8 10  1  0  0  0
M  END
> <minimizedAffinity>
-6.72534

$$$$
N-Formyl-Met-Leu-Phe (fMLP)


 34 34  0  0  0  0  0  0  0  0999 V2000
   43.5616   13.2441   29.5294 C   0  0  0  0  0  0  0  0  0  0  0  0
   42.6345   12.5424   30.4381 C   0  0  0  0  0  0  0  0  0  0  0  0
   42.6530   12.8501   31.8061 N   0  0  0  0  0  0  0  0  0  0  0  0
   41.8185   11.6710   30.0396 O   0  0  0  0  0  0  0  0  0  0  0  0
   43.2961   13.5641   32.2516 H   0  0  0  0  0  0  0  0  0  0  0  0
   41.7565   12.1884   32.7690 C   0  0  0  0  0  0  0  0  0  0  0  0
   40.7890   13.1731   33.3028 C   0  0  0  0  0  0  0  0  0  0  0  0
   41.0593   13.9020   34.4549 O   0  0  0  0  0  0  0  0  0  0  0  0
   39.6689   13.4119   32.7530 O   0  0  0  0  0  0  0  0  0  0  0  0
   40.4528   14.6717   34.7519 H   0  0  0  0  0  0  0  0  0  0  0  0
   42.6380   11.6367   33.8375 C   0  0  0  0  0  0  0  0  0  0  0  0
   42.2221   10.3593   34.4159 C   0  0  0  0  0  0  0  0  0  0  0  0
   41.8194   10.2184   35.7237 C   0  0  0  0  0  0  0  0  0  0  0  0
   42.2177    9.2041   33.6334 C   0  0  0  0  0  0  0  0  0  0  0  0
   41.4322    8.9791   36.2190 C   0  0  0  0  0  0  0  0  0  0  0  0
   41.8345    7.9781   34.1242 C   0  0  0  0  0  0  0  0  0  0  0  0
   41.4328    7.8444   35.4338 C   0  0  0  0  0  0  0  0  0  0  0  0
   43.5122   14.6768   29.6097 N   0  0  0  0  0  0  0  0  0  0  0  0
   42.2806   15.4206   29.6779 C   0  0  0  0  0  0  0  0  0  0  0  0
   41.1523   14.8126   29.6722 O   0  0  0  0  0  0  0  0  0  0  0  0
   44.3769   15.2653   29.6252 H   0  0  0  0  0  0  0  0  0  0  0  0
   42.2630   16.8686   29.7522 C   0  0  0  0  0  0  0  0  0  0  0  0
   43.2808   17.2573   30.7481 N   0  0  0  0  0  0  0  0  0  0  0  0
   42.9303   17.8744   31.9758 C   0  0  0  0  0  0  0  0  0  0  0  0
   41.7437   18.1170   32.2695 O   0  0  0  0  0  0  0  0  0  0  0  0
   44.2960   17.0850   30.5709 H   0  0  0  0  0  0  0  0  0  0  0  0
   42.3230   17.6982   28.5592 C   0  0  0  0  0  0  0  0  0  0  0  0
   41.4270   17.4787   27.4043 C   0  0  0  0  0  0  0  0  0  0  0  0
   42.0693   17.4541   25.7673 S   0  0  0  0  0  0  0  0  0  0  0  0
   43.4861   18.5328   25.5648 C   0  0  0  0  0  0  0  0  0  0  0  0
   44.9490   12.6778   29.6492 C   0  0  0  0  0  0  0  0  0  0  0  0
   45.5546   12.1207   28.4201 C   0  0  0  0  0  0  0  0  0  0  0  0
   44.6276   11.5964   27.3843 C   0  0  0  0  0  0  0  0  0  0  0  0
   46.4315   10.9478   28.8865 C   0  0  0  0  0  0  0  0  0  0  0  0
  1 31  1  0  0  0
  1 18  1  0  0  0
  1  2  1  0  0  0
  2  3  1  0  0  0
  2  4  2  0  0  0
 18 19  1  0  0  0
 31 32  1  0  0  0
  3  6  1  0  0  0
 19 20  2  0  0  0
 32 33  1  0  0  0
 32 34  1  0  0  0
  6 11  1  0  0  0
  6  7  1  0  0  0
 22 23  1  0  0  0
 22 27  1  0  0  0
 22 19  1  0  0  0
 11 12  1  0  0  0
  7  8  1  0  0  0
  7  9  2  0  0  0
 27 28  1  0  0  0
 23 24  1  0  0  0
 28 29  1  0  0  0
 24 25  2  0  0  0
 29 30  1  0  0  0
 12 13  2  0  0  0
 12 14  1  0  0  0
 13 15  1  0  0  0
 14 16  2  0  0  0
 15 17  2  0  0  0
 16 17  1  0  0  0
 18 21  1  0  0  0
  3  5  1  0  0  0
 23 26  1  0  0  0
  8 10  1  0  0  0
M  END
> <minimizedAffinity>
-6.52975

$$$$
N-Formyl-Met-Leu-Phe (fMLP)


 34 34  0  0  0  0  0  0  0  0999 V2000
   43.8841   13.8528   31.3635 C   0  0  0  0  0  0  0  0  0  0  0  0
   43.0910   12.6538   31.6966 C   0  0  0  0  0  0  0  0  0  0  0  0
   41.9575   12.7875   32.5113 N   0  0  0  0  0  0  0  0  0  0  0  0
   43.3864   11.5037   31.2797 O   0  0  0  0  0  0  0  0  0  0  0  0
   41.6158   13.7038   32.9180 H   0  0  0  0  0  0  0  0  0  0  0  0
   41.1212   11.6339   32.8837 C   0  0  0  0  0  0  0  0  0  0  0  0
   39.7106   12.0643   33.0091 C   0  0  0  0  0  0  0  0  0  0  0  0
   39.3665   13.4100   33.0616 O   0  0  0  0  0  0  0  0  0  0  0  0
   38.7403   11.2471   33.0759 O   0  0  0  0  0  0  0  0  0  0  0  0
   38.3888   13.7110   33.0181 H   0  0  0  0  0  0  0  0  0  0  0  0
   41.6683   11.1314   34.1766 C   0  0  0  0  0  0  0  0  0  0  0  0
   41.7468    9.6777   34.3179 C   0  0  0  0  0  0  0  0  0  0  0  0
   41.3956    9.0113   35.4689 C   0  0  0  0  0  0  0  0  0  0  0  0
   42.1929    8.8934   33.2536 C   0  0  0  0  0  0  0  0  0  0  0  0
   41.4885    7.6269   35.5456 C   0  0  0  0  0  0  0  0  0  0  0  0
   42.2847    7.5236   33.3302 C   0  0  0  0  0  0  0  0  0  0  0  0
   41.9317    6.8633   34.4851 C   0  0  0  0  0  0  0  0  0  0  0  0
   43.2876   14.7138   30.3813 N   0  0  0  0  0  0  0  0  0  0  0  0
   43.5261   14.5806   28.9671 C   0  0  0  0  0  0  0  0  0  0  0  0
   44.2991   13.6605   28.5216 O   0  0  0  0  0  0  0  0  0  0  0  0
   42.6388   15.4921   30.6414 H   0  0  0  0  0  0  0  0  0  0  0  0
   42.9136   15.4700   27.9996 C   0  0  0  0  0  0  0  0  0  0  0  0
   42.9894   16.8319   28.5639 N   0  0  0  0  0  0  0  0  0  0  0  0
   41.8344   17.6359   28.7386 C   0  0  0  0  0  0  0  0  0  0  0  0
   40.7004   17.2274   28.4223 O   0  0  0  0  0  0  0  0  0  0  0  0
   43.9066   17.2414   28.8520 H   0  0  0  0  0  0  0  0  0  0  0  0
   43.2804   15.4419   26.5926 C   0  0  0  0  0  0  0  0  0  0  0  0
   42.3538   15.8877   25.5306 C   0  0  0  0  0  0  0  0  0  0  0  0
   42.7141   17.3187   24.5736 S   0  0  0  0  0  0  0  0  0  0  0  0
   43.7357   18.4991   25.4537 C   0  0  0  0  0  0  0  0  0  0  0  0
   44.3136   14.5669   32.6147 C   0  0  0  0  0  0  0  0  0  0  0  0
   43.7591   15.9196   32.8389 C   0  0  0  0  0  0  0  0  0  0  0  0
   44.7285   17.0389   32.9607 C   0  0  0  0  0  0  0  0  0  0  0  0
   42.9874   15.8353   34.1653 C   0  0  0  0  0  0  0  0  0  0  0  0
  1 31  1  0  0  0
  1 18  1  0  0  0
  1  2  1  0  0  0
  2  3  1  0  0  0
  2  4  2  0  0  0
 18 19  1  0  0  0
 31 32  1  0  0  0
  3  6  1  0  0  0
 19 20  2  0  0  0
 32 33  1  0  0  0
 32 34  1  0  0  0
  6 11  1  0  0  0
  6  7  1  0  0  0
 22 23  1  0  0  0
 22 27  1  0  0  0
 22 19  1  0  0  0
 11 12  1  0  0  0
  7  8  1  0  0  0
  7  9  2  0  0  0
 27 28  1  0  0  0
 23 24  1  0  0  0
 28 29  1  0  0  0
 24 25  2  0  0  0
 29 30  1  0  0  0
 12 13  2  0  0  0
 12 14  1  0  0  0
 13 15  1  0  0  0
 14 16  2  0  0  0
 15 17  2  0  0  0
 16 17  1  0  0  0
 18 21  1  0  0  0
  3  5  1  0  0  0
 23 26  1  0  0  0
  8 10  1  0  0  0
M  END
> <minimizedAffinity>
-6.51045

$$$$
N-Formyl-Met-Leu-Phe (fMLP)


 34 34  0  0  0  0  0  0  0  0999 V2000
   42.9419   13.8423   29.0418 C   0  0  0  0  0  0  0  0  0  0  0  0
   42.5040   13.7535   30.4482 C   0  0  0  0  0  0  0  0  0  0  0  0
   43.2690   14.3777   31.4440 N   0  0  0  0  0  0  0  0  0  0  0  0
   41.4648   13.1374   30.8009 O   0  0  0  0  0  0  0  0  0  0  0  0
   44.1596   14.9217   31.2635 H   0  0  0  0  0  0  0  0  0  0  0  0
   42.8913   14.3287   32.8666 C   0  0  0  0  0  0  0  0  0  0  0  0
   43.0517   15.6714   33.4684 C   0  0  0  0  0  0  0  0  0  0  0  0
   42.2808   16.0756   34.5521 O   0  0  0  0  0  0  0  0  0  0  0  0
   43.8888   16.5263   33.0416 O   0  0  0  0  0  0  0  0  0  0  0  0
   42.4780   16.9490   35.0488 H   0  0  0  0  0  0  0  0  0  0  0  0
   43.7948   13.3235   33.4963 C   0  0  0  0  0  0  0  0  0  0  0  0
   43.1685   12.0677   33.9086 C   0  0  0  0  0  0  0  0  0  0  0  0
   42.6972   11.8414   35.1810 C   0  0  0  0  0  0  0  0  0  0  0  0
   43.0216   11.0245   32.9936 C   0  0  0  0  0  0  0  0  0  0  0  0
   42.1084   10.6281   35.5160 C   0  0  0  0  0  0  0  0  0  0  0  0
   42.4390    9.8242   33.3259 C   0  0  0  0  0  0  0  0  0  0  0  0
   41.9697    9.6046   34.6009 C   0  0  0  0  0  0  0  0  0  0  0  0
   43.1093   15.1802   28.5481 N   0  0  0  0  0  0  0  0  0  0  0  0
   42.0513   15.9253   27.9156 C   0  0  0  0  0  0  0  0  0  0  0  0
   40.8882   15.4071   27.7693 O   0  0  0  0  0  0  0  0  0  0  0  0
   44.0178   15.6934   28.6230 H   0  0  0  0  0  0  0  0  0  0  0  0
   42.2529   17.2734   27.4213 C   0  0  0  0  0  0  0  0  0  0  0  0
   42.2495   17.1925   25.9474 N   0  0  0  0  0  0  0  0  0  0  0  0
   43.2485   17.8200   25.1603 C   0  0  0  0  0  0  0  0  0  0  0  0
   44.1765   18.4698   25.6795 O   0  0  0  0  0  0  0  0  0  0  0  0
   41.5025   16.6647   25.4422 H   0  0  0  0  0  0  0  0  0  0  0  0
   41.4641   18.3943   27.9075 C   0  0  0  0  0  0  0  0  0  0  0  0
   40.4921   19.1019   27.0475 C   0  0  0  0  0  0  0  0  0  0  0  0
   38.7813   18.6995   27.1146 S   0  0  0  0  0  0  0  0  0  0  0  0
   38.3573   17.3080   26.0679 C   0  0  0  0  0  0  0  0  0  0  0  0
   44.1308   12.9543   28.8014 C   0  0  0  0  0  0  0  0  0  0  0  0
   44.6666   12.2202   29.9683 C   0  0  0  0  0  0  0  0  0  0  0  0
   46.0676   12.5109   30.3682 C   0  0  0  0  0  0  0  0  0  0  0  0
   44.5978   10.7327   29.5879 C   0  0  0  0  0  0  0  0  0  0  0  0
  1 31  1  0  0  0
  1 18  1  0  0  0
  1  2  1  0  0  0
  2  3  1  0  0  0
  2  4  2  0  0  0
 18 19  1  0  0  0
 31 32  1  0  0  0
  3  6  1  0  0  0
 19 20  2  0  0  0
 32 33  1  0  0  0
 32 34  1  0  0  0
  6 11  1  0  0  0
  6  7  1  0  0  0
 22 23  1  0  0  0
 22 27  1  0  0  0
 22 19  1  0  0  0
 11 12  1  0  0  0
  7  8  1  0  0  0
  7  9  2  0  0  0
 27 28  1  0  0  0
 23 24  1  0  0  0
 28 29  1  0  0  0
 24 25  2  0  0  0
 29 30  1  0  0  0
 12 13  2  0  0  0
 12 14  1  0  0  0
 13 15  1  0  0  0
 14 16  2  0  0  0
 15 17  2  0  0  0
 16 17  1  0  0  0
 18 21  1  0  0  0
  3  5  1  0  0  0
 23 26  1  0  0  0
  8 10  1  0  0  0
M  END
> <minimizedAffinity>
-6.42519

$$$$
