Phenol, 4-[2-(3-hydroxy-5-methoxyphenyl)ethyl]-2-


 22 23  0  0  0  0  0  0  0  0999 V2000
   43.5723   12.4192   32.3148 C   0  0  0  0  0  0  0  0  0  0  0  0
   43.0144   11.7680   37.1397 O   0  0  0  0  0  0  0  0  0  0  0  0
   43.0383   11.7041   33.5007 C   0  0  0  0  0  0  0  0  0  0  0  0
   42.2412   10.5826   33.2528 C   0  0  0  0  0  0  0  0  0  0  0  0
   43.2957   12.0990   34.7991 C   0  0  0  0  0  0  0  0  0  0  0  0
   41.6924    9.8424   34.2701 C   0  0  0  0  0  0  0  0  0  0  0  0
   42.7447   11.3557   35.8272 C   0  0  0  0  0  0  0  0  0  0  0  0
   41.9561   10.2456   35.5628 C   0  0  0  0  0  0  0  0  0  0  0  0
   43.6194   11.1261   37.6607 H   0  0  0  0  0  0  0  0  0  0  0  0
   40.9058    8.7344   33.9731 O   0  0  0  0  0  0  0  0  0  0  0  0
   41.3024    7.4265   34.3522 C   0  0  0  0  0  0  0  0  0  0  0  0
   44.5390   13.5239   32.6770 C   0  0  0  0  0  0  0  0  0  0  0  0
   42.1468   18.2904   30.8430 O   0  0  0  0  0  0  0  0  0  0  0  0
   43.9319   14.8018   32.2197 C   0  0  0  0  0  0  0  0  0  0  0  0
   44.2925   16.0330   32.7291 C   0  0  0  0  0  0  0  0  0  0  0  0
   42.9532   14.7321   31.2279 C   0  0  0  0  0  0  0  0  0  0  0  0
   43.7161   17.2060   32.2902 C   0  0  0  0  0  0  0  0  0  0  0  0
   42.3731   15.9217   30.7872 C   0  0  0  0  0  0  0  0  0  0  0  0
   42.7486   17.1393   31.3100 C   0  0  0  0  0  0  0  0  0  0  0  0
   41.2194   18.4952   31.2346 H   0  0  0  0  0  0  0  0  0  0  0  0
   44.0459   18.4568   32.7710 O   0  0  0  0  0  0  0  0  0  0  0  0
   45.3409   18.7422   33.3062 C   0  0  0  0  0  0  0  0  0  0  0  0
  1 12  1  0  0  0
  1  3  1  0  0  0
 12 14  1  0  0  0
 10 11  1  0  0  0
 10  6  1  0  0  0
  2  7  1  0  0  0
 21 22  1  0  0  0
 21 17  1  0  0  0
 13 19  1  0  0  0
  3  4  2  0  0  0
  3  5  1  0  0  0
  4  6  1  0  0  0
  5  7  2  0  0  0
  6  8  2  0  0  0
  7  8  1  0  0  0
 14 15  2  0  0  0
 14 16  1  0  0  0
 15 17  1  0  0  0
 16 18  2  0  0  0
 17 19  2  0  0  0
 18 19  1  0  0  0
  2  9  1  0  0  0
 13 20  1  0  0  0
M  END
> <minimizedAffinity>
-8.00577

$$$$
Phenol, 4-[2-(3-hydroxy-5-methoxyphenyl)ethyl]-2-


 22 23  0  0  0  0  0  0  0  0999 V2000
   43.3120   12.0260   32.2481 C   0  0  0  0  0  0  0  0  0  0  0  0
   42.9969   11.7541   37.1309 O   0  0  0  0  0  0  0  0  0  0  0  0
   42.8544   11.3960   33.5118 C   0  0  0  0  0  0  0  0  0  0  0  0
   42.0797   10.2384   33.3930 C   0  0  0  0  0  0  0  0  0  0  0  0
   43.1600   11.9013   34.7605 C   0  0  0  0  0  0  0  0  0  0  0  0
   41.6002    9.5694   34.4915 C   0  0  0  0  0  0  0  0  0  0  0  0
   42.6789   11.2301   35.8702 C   0  0  0  0  0  0  0  0  0  0  0  0
   41.9115   10.0826   35.7336 C   0  0  0  0  0  0  0  0  0  0  0  0
   43.6438   11.1720   37.6715 H   0  0  0  0  0  0  0  0  0  0  0  0
   40.8333    8.4215   34.3223 O   0  0  0  0  0  0  0  0  0  0  0  0
   41.3054    7.1517   34.7421 C   0  0  0  0  0  0  0  0  0  0  0  0
   44.3577   13.0959   32.4664 C   0  0  0  0  0  0  0  0  0  0  0  0
   41.7492   18.0946   32.3471 O   0  0  0  0  0  0  0  0  0  0  0  0
   43.6610   14.4075   32.3953 C   0  0  0  0  0  0  0  0  0  0  0  0
   43.0629   14.8825   31.2455 C   0  0  0  0  0  0  0  0  0  0  0  0
   43.6208   15.1800   33.5564 C   0  0  0  0  0  0  0  0  0  0  0  0
   42.4219   16.1024   31.2021 C   0  0  0  0  0  0  0  0  0  0  0  0
   42.9711   16.4134   33.5072 C   0  0  0  0  0  0  0  0  0  0  0  0
   42.3810   16.8674   32.3486 C   0  0  0  0  0  0  0  0  0  0  0  0
   42.3674   18.9106   32.2607 H   0  0  0  0  0  0  0  0  0  0  0  0
   41.8114   16.6154   30.0757 O   0  0  0  0  0  0  0  0  0  0  0  0
   41.7684   15.8900   28.8441 C   0  0  0  0  0  0  0  0  0  0  0  0
  1 12  1  0  0  0
  1  3  1  0  0  0
 12 14  1  0  0  0
 10 11  1  0  0  0
 10  6  1  0  0  0
  2  7  1  0  0  0
 21 22  1  0  0  0
 21 17  1  0  0  0
 13 19  1  0  0  0
  3  4  2  0  0  0
  3  5  1  0  0  0
  4  6  1  0  0  0
  5  7  2  0  0  0
  6  8  2  0  0  0
  7  8  1  0  0  0
 14 15  2  0  0  0
 14 16  1  0  0  0
 15 17  1  0  0  0
 16 18  2  0  0  0
 17 19  2  0  0  0
 18 19  1  0  0  0
  2  9  1  0  0  0
 13 20  1  0  0  0
M  END
> <minimizedAffinity>
-7.69829

$$$$
Phenol, 4-[2-(3-hydroxy-5-methoxyphenyl)ethyl]-2-


 22 23  0  0  0  0  0  0  0  0999 V2000
   43.2447   13.8740   32.2751 C   0  0  0  0  0  0  0  0  0  0  0  0
   41.5354   18.4322   31.7128 O   0  0  0  0  0  0  0  0  0  0  0  0
   43.3827   15.3517   32.2996 C   0  0  0  0  0  0  0  0  0  0  0  0
   44.6318   15.8608   32.6671 C   0  0  0  0  0  0  0  0  0  0  0  0
   42.3495   16.2113   31.9812 C   0  0  0  0  0  0  0  0  0  0  0  0
   44.8777   17.2099   32.7254 C   0  0  0  0  0  0  0  0  0  0  0  0
   42.5931   17.5717   32.0386 C   0  0  0  0  0  0  0  0  0  0  0  0
   43.8388   18.0593   32.4053 C   0  0  0  0  0  0  0  0  0  0  0  0
   41.6716   18.9442   30.8359 H   0  0  0  0  0  0  0  0  0  0  0  0
   46.1373   17.6682   33.0967 O   0  0  0  0  0  0  0  0  0  0  0  0
   46.3744   19.0425   33.3553 C   0  0  0  0  0  0  0  0  0  0  0  0
   44.0935   13.1841   33.3189 C   0  0  0  0  0  0  0  0  0  0  0  0
   40.8073    9.6200   36.2005 O   0  0  0  0  0  0  0  0  0  0  0  0
   43.2075   12.2351   34.0436 C   0  0  0  0  0  0  0  0  0  0  0  0
   42.2163   11.5034   33.4212 C   0  0  0  0  0  0  0  0  0  0  0  0
   43.4031   12.0916   35.4175 C   0  0  0  0  0  0  0  0  0  0  0  0
   41.4058   10.6287   34.1131 C   0  0  0  0  0  0  0  0  0  0  0  0
   42.5805   11.2054   36.1130 C   0  0  0  0  0  0  0  0  0  0  0  0
   41.5975   10.4854   35.4711 C   0  0  0  0  0  0  0  0  0  0  0  0
   40.0383   10.0569   36.7232 H   0  0  0  0  0  0  0  0  0  0  0  0
   40.4041    9.8782   33.5318 O   0  0  0  0  0  0  0  0  0  0  0  0
   40.6855    8.6840   32.7973 C   0  0  0  0  0  0  0  0  0  0  0  0
  1 12  1  0  0  0
  1  3  1  0  0  0
 12 14  1  0  0  0
 10 11  1  0  0  0
 10  6  1  0  0  0
  2  7  1  0  0  0
 21 22  1  0  0  0
 21 17  1  0  0  0
 13 19  1  0  0  0
  3  4  2  0  0  0
  3  5  1  0  0  0
  4  6  1  0  0  0
  5  7  2  0  0  0
  6  8  2  0  0  0
  7  8  1  0  0  0
 14 15  2  0  0  0
 14 16  1  0  0  0
 15 17  1  0  0  0
 16 18  2  0  0  0
 17 19  2  0  0  0
 18 19  1  0  0  0
  2  9  1  0  0  0
 13 20  1  0  0  0
M  END
> <minimizedAffinity>
-7.38845

$$$$
Phenol, 4-[2-(3-hydroxy-5-methoxyphenyl)ethyl]-2-


 22 23  0  0  0  0  0  0  0  0999 V2000
   42.5920   13.4763   32.0154 C   0  0  0  0  0  0  0  0  0  0  0  0
   44.6850   17.3816   34.1090 O   0  0  0  0  0  0  0  0  0  0  0  0
   42.9033   14.9251   32.0995 C   0  0  0  0  0  0  0  0  0  0  0  0
   42.3731   15.7417   31.0963 C   0  0  0  0  0  0  0  0  0  0  0  0
   43.6752   15.4738   33.1050 C   0  0  0  0  0  0  0  0  0  0  0  0
   42.5937   17.0962   31.0701 C   0  0  0  0  0  0  0  0  0  0  0  0
   43.9000   16.8385   33.0823 C   0  0  0  0  0  0  0  0  0  0  0  0
   43.3658   17.6336   32.0791 C   0  0  0  0  0  0  0  0  0  0  0  0
   44.1636   17.9761   34.7604 H   0  0  0  0  0  0  0  0  0  0  0  0
   42.0447   17.8671   30.0508 O   0  0  0  0  0  0  0  0  0  0  0  0
   41.9605   17.3791   28.7218 C   0  0  0  0  0  0  0  0  0  0  0  0
   43.6828   12.6033   32.5934 C   0  0  0  0  0  0  0  0  0  0  0  0
   41.3493    9.4591   36.6523 O   0  0  0  0  0  0  0  0  0  0  0  0
   43.0521   11.7495   33.6346 C   0  0  0  0  0  0  0  0  0  0  0  0
   42.3033   10.6283   33.3387 C   0  0  0  0  0  0  0  0  0  0  0  0
   43.2376   12.1157   34.9680 C   0  0  0  0  0  0  0  0  0  0  0  0
   41.7272    9.8507   34.3206 C   0  0  0  0  0  0  0  0  0  0  0  0
   42.6527   11.3256   35.9576 C   0  0  0  0  0  0  0  0  0  0  0  0
   41.9093   10.2109   35.6391 C   0  0  0  0  0  0  0  0  0  0  0  0
   40.4783    9.8313   37.0500 H   0  0  0  0  0  0  0  0  0  0  0  0
   40.9719    8.7232   34.0701 O   0  0  0  0  0  0  0  0  0  0  0  0
   41.5599    7.5136   33.5843 C   0  0  0  0  0  0  0  0  0  0  0  0
  1 12  1  0  0  0
  1  3  1  0  0  0
 12 14  1  0  0  0
 10 11  1  0  0  0
 10  6  1  0  0  0
  2  7  1  0  0  0
 21 22  1  0  0  0
 21 17  1  0  0  0
 13 19  1  0  0  0
  3  4  2  0  0  0
  3  5  1  0  0  0
  4  6  1  0  0  0
  5  7  2  0  0  0
  6  8  2  0  0  0
  7  8  1  0  0  0
 14 15  2  0  0  0
 14 16  1  0  0  0
 15 17  1  0  0  0
 16 18  2  0  0  0
 17 19  2  0  0  0
 18 19  1  0  0  0
  2  9  1  0  0  0
 13 20  1  0  0  0
M  END
> <minimizedAffinity>
-7.06080

$$$$
Phenol, 4-[2-(3-hydroxy-5-methoxyphenyl)ethyl]-2-


 22 23  0  0  0  0  0  0  0  0999 V2000
   42.1593   12.1766   32.2292 C   0  0  0  0  0  0  0  0  0  0  0  0
   42.3599   16.8725   33.6158 O   0  0  0  0  0  0  0  0  0  0  0  0
   42.8697   13.4593   32.4597 C   0  0  0  0  0  0  0  0  0  0  0  0
   44.2347   13.4853   32.1590 C   0  0  0  0  0  0  0  0  0  0  0  0
   42.2447   14.5909   32.9462 C   0  0  0  0  0  0  0  0  0  0  0  0
   44.9951   14.6149   32.3315 C   0  0  0  0  0  0  0  0  0  0  0  0
   43.0073   15.7316   33.1215 C   0  0  0  0  0  0  0  0  0  0  0  0
   44.3608   15.7393   32.8178 C   0  0  0  0  0  0  0  0  0  0  0  0
   42.2742   17.6305   32.9319 H   0  0  0  0  0  0  0  0  0  0  0  0
   46.3499   14.5916   32.0181 O   0  0  0  0  0  0  0  0  0  0  0  0
   46.9779   13.4085   31.5516 C   0  0  0  0  0  0  0  0  0  0  0  0
   43.0093   10.9660   32.5426 C   0  0  0  0  0  0  0  0  0  0  0  0
   40.8648    8.6893   37.2355 O   0  0  0  0  0  0  0  0  0  0  0  0
   42.4338   10.3322   33.7583 C   0  0  0  0  0  0  0  0  0  0  0  0
   41.8640    9.0749   33.7556 C   0  0  0  0  0  0  0  0  0  0  0  0
   42.4816   11.0588   34.9483 C   0  0  0  0  0  0  0  0  0  0  0  0
   41.3361    8.5063   34.8951 C   0  0  0  0  0  0  0  0  0  0  0  0
   41.9462   10.4790   36.0985 C   0  0  0  0  0  0  0  0  0  0  0  0
   41.3824    9.2227   36.0724 C   0  0  0  0  0  0  0  0  0  0  0  0
   39.9276    9.0202   37.4955 H   0  0  0  0  0  0  0  0  0  0  0  0
   40.7578    7.2539   34.9377 O   0  0  0  0  0  0  0  0  0  0  0  0
   40.2470    6.6183   33.7631 C   0  0  0  0  0  0  0  0  0  0  0  0
  1 12  1  0  0  0
  1  3  1  0  0  0
 12 14  1  0  0  0
 10 11  1  0  0  0
 10  6  1  0  0  0
  2  7  1  0  0  0
 21 22  1  0  0  0
 21 17  1  0  0  0
 13 19  1  0  0  0
  3  4  2  0  0  0
  3  5  1  0  0  0
  4  6  1  0  0  0
  5  7  2  0  0  0
  6  8  2  0  0  0
  7  8  1  0  0  0
 14 15  2  0  0  0
 14 16  1  0  0  0
 15 17  1  0  0  0
 16 18  2  0  0  0
 17 19  2  0  0  0
 18 19  1  0  0  0
  2  9  1  0  0  0
 13 20  1  0  0  0
M  END
> <minimizedAffinity>
-6.98505

$$$$
