


 33 34  0  0  0  0  0  0  0  0999 V2000
   42.2754   13.8787   34.0888 C   0  0  0  0  0  0  0  0  0  0  0  0
   41.2217   14.0165   34.6218 O   0  0  0  0  0  0  0  0  0  0  0  0
   40.6439   14.5573   34.0609 H   0  0  0  0  0  0  0  0  0  0  0  0
   42.8467   16.2835   33.2919 C   0  0  0  0  0  0  0  0  0  0  0  0
   42.8900   14.3354   31.6731 C   0  0  0  0  0  0  0  0  0  0  0  0
   42.6691   14.8575   33.0213 N   0  0  0  0  0  0  0  0  0  0  0  0
   42.1769   17.0952   32.2522 C   0  0  0  0  0  0  0  0  0  0  0  0
   42.2759   16.6615   30.8707 N   0  0  0  0  0  0  0  0  0  0  0  0
   43.0319   15.4188   30.5504 C   0  0  0  0  0  0  0  0  0  0  0  0
   41.5823   18.0854   32.5441 O   0  0  0  0  0  0  0  0  0  0  0  0
   41.8978   17.1135   30.2454 H   0  0  0  0  0  0  0  0  0  0  0  0
   42.2108   18.7702   32.8214 H   0  0  0  0  0  0  0  0  0  0  0  0
   44.3720   16.5410   33.1929 C   0  0  0  0  0  0  0  0  0  0  0  0
   44.7797   17.6628   34.0066 O   0  0  0  0  0  0  0  0  0  0  0  0
   46.2263   18.0943   32.0939 C   0  0  0  0  0  0  0  0  0  0  0  0
   46.5514   19.2929   34.2848 C   0  0  0  0  0  0  0  0  0  0  0  0
   45.5089   18.7154   33.3124 C   0  0  0  0  0  0  0  0  0  0  0  0
   44.6096   19.8656   32.8372 C   0  0  0  0  0  0  0  0  0  0  0  0
   43.1951   12.7062   34.5009 C   0  0  0  0  0  0  0  0  0  0  0  0
   42.3978   11.6888   35.3425 C   0  0  0  0  0  0  0  0  0  0  0  0
   43.0273   11.5613   36.6374 N   0  0  0  0  0  0  0  0  0  0  0  0
   43.7696   11.0774   36.5598 H   0  0  0  0  0  0  0  0  0  0  0  0
   42.4677   11.1586   37.2002 H   0  0  0  0  0  0  0  0  0  0  0  0
   42.3623   10.3213   34.6422 C   0  0  0  0  0  0  0  0  0  0  0  0
   40.0705   10.7660   30.9650 C   0  0  0  0  0  0  0  0  0  0  0  0
   41.4190   10.4335   30.9022 C   0  0  0  0  0  0  0  0  0  0  0  0
   42.1611   10.2903   32.0828 C   0  0  0  0  0  0  0  0  0  0  0  0
   41.5457   10.4887   33.3189 C   0  0  0  0  0  0  0  0  0  0  0  0
   40.1907   10.8156   33.3811 C   0  0  0  0  0  0  0  0  0  0  0  0
   39.4528   10.9578   32.2009 C   0  0  0  0  0  0  0  0  0  0  0  0
   38.1257   11.2847   32.2597 F   0  0  0  0  0  0  0  0  0  0  0  0
   39.3498   10.9049   29.8117 F   0  0  0  0  0  0  0  0  0  0  0  0
   43.4843    9.9643   32.0185 F   0  0  0  0  0  0  0  0  0  0  0  0
 26 25  1  0  0  0
 27 26  1  0  0  0
 28 27  1  0  0  0
 29 28  1  0  0  0
 30 29  1  0  0  0
 30 25  1  0  0  0
 24 28  1  0  0  0
 20 24  1  0  0  0
 19 20  1  0  0  0
 19  1  1  0  0  0
  6  5  1  0  0  0
  6  4  1  0  0  0
  6  1  1  0  0  0
  2  1  1  0  0  0
  7  4  1  0  0  0
  8  7  1  0  0  0
  9  5  1  0  0  0
  9  8  1  0  0  0
 10  7  1  0  0  0
 21 20  1  0  0  0
 31 30  1  0  0  0
 32 25  1  0  0  0
 33 27  1  0  0  0
 13  4  1  0  0  0
 14 13  1  0  0  0
 17 14  1  0  0  0
 17 16  1  0  0  0
 17 15  1  0  0  0
 18 17  1  0  0  0
 11  8  1  0  0  0
 22 21  1  0  0  0
 23 21  1  0  0  0
  2  3  1  0  0  0
 10 12  1  0  0  0
M  END
> <minimizedAffinity>
-8.61687

$$$$



 33 34  0  0  0  0  0  0  0  0999 V2000
   43.4897   13.9777   30.8504 C   0  0  0  0  0  0  0  0  0  0  0  0
   44.6021   13.6264   30.6212 O   0  0  0  0  0  0  0  0  0  0  0  0
   45.2219   14.1451   31.1576 H   0  0  0  0  0  0  0  0  0  0  0  0
   43.6296   15.6290   32.8499 C   0  0  0  0  0  0  0  0  0  0  0  0
   42.7174   16.3792   30.6088 C   0  0  0  0  0  0  0  0  0  0  0  0
   43.2803   15.3325   31.4613 N   0  0  0  0  0  0  0  0  0  0  0  0
   42.5351   16.3724   33.5118 C   0  0  0  0  0  0  0  0  0  0  0  0
   41.8550   17.4105   32.7593 N   0  0  0  0  0  0  0  0  0  0  0  0
   42.2703   17.6822   31.3549 C   0  0  0  0  0  0  0  0  0  0  0  0
   42.2305   16.1301   34.6378 O   0  0  0  0  0  0  0  0  0  0  0  0
   41.2162   17.8593   33.1181 H   0  0  0  0  0  0  0  0  0  0  0  0
   42.9344   16.4288   35.2346 H   0  0  0  0  0  0  0  0  0  0  0  0
   44.8676   16.5592   32.7802 C   0  0  0  0  0  0  0  0  0  0  0  0
   44.7467   17.6802   33.6831 O   0  0  0  0  0  0  0  0  0  0  0  0
   44.5267   19.9977   32.9634 C   0  0  0  0  0  0  0  0  0  0  0  0
   46.3757   18.5226   32.0987 C   0  0  0  0  0  0  0  0  0  0  0  0
   45.5132   18.8658   33.3252 C   0  0  0  0  0  0  0  0  0  0  0  0
   46.4459   19.3474   34.4459 C   0  0  0  0  0  0  0  0  0  0  0  0
   42.3065   13.0382   30.5225 C   0  0  0  0  0  0  0  0  0  0  0  0
   41.8752   12.2791   31.7941 C   0  0  0  0  0  0  0  0  0  0  0  0
   41.1771   13.1945   32.6681 N   0  0  0  0  0  0  0  0  0  0  0  0
   41.7639   13.7355   33.0605 H   0  0  0  0  0  0  0  0  0  0  0  0
   40.7370   12.7333   33.2890 H   0  0  0  0  0  0  0  0  0  0  0  0
   43.1014   11.6996   32.5168 C   0  0  0  0  0  0  0  0  0  0  0  0
   41.6298    9.3871   35.9019 C   0  0  0  0  0  0  0  0  0  0  0  0
   42.2731   10.5998   36.1216 C   0  0  0  0  0  0  0  0  0  0  0  0
   42.7494   11.3472   35.0355 C   0  0  0  0  0  0  0  0  0  0  0  0
   42.5827   10.8685   33.7360 C   0  0  0  0  0  0  0  0  0  0  0  0
   41.9308    9.6546   33.5161 C   0  0  0  0  0  0  0  0  0  0  0  0
   41.4565    8.9110   34.6022 C   0  0  0  0  0  0  0  0  0  0  0  0
   40.8229    7.7175   34.3890 F   0  0  0  0  0  0  0  0  0  0  0  0
   41.1665    8.6608   36.9633 F   0  0  0  0  0  0  0  0  0  0  0  0
   43.3807   12.5368   35.2538 F   0  0  0  0  0  0  0  0  0  0  0  0
 26 25  1  0  0  0
 27 26  1  0  0  0
 28 27  1  0  0  0
 29 28  1  0  0  0
 30 29  1  0  0  0
 30 25  1  0  0  0
 24 28  1  0  0  0
 20 24  1  0  0  0
 19 20  1  0  0  0
 19  1  1  0  0  0
  6  5  1  0  0  0
  6  4  1  0  0  0
  6  1  1  0  0  0
  2  1  1  0  0  0
  7  4  1  0  0  0
  8  7  1  0  0  0
  9  5  1  0  0  0
  9  8  1  0  0  0
 10  7  1  0  0  0
 21 20  1  0  0  0
 31 30  1  0  0  0
 32 25  1  0  0  0
 33 27  1  0  0  0
 13  4  1  0  0  0
 14 13  1  0  0  0
 17 14  1  0  0  0
 17 16  1  0  0  0
 17 15  1  0  0  0
 18 17  1  0  0  0
 11  8  1  0  0  0
 22 21  1  0  0  0
 23 21  1  0  0  0
  2  3  1  0  0  0
 10 12  1  0  0  0
M  END
> <minimizedAffinity>
-8.59188

$$$$



 33 34  0  0  0  0  0  0  0  0999 V2000
   41.3262   14.1651   31.3060 C   0  0  0  0  0  0  0  0  0  0  0  0
   40.4070   14.2701   32.0525 O   0  0  0  0  0  0  0  0  0  0  0  0
   40.0179   15.1542   31.9641 H   0  0  0  0  0  0  0  0  0  0  0  0
   42.3864   16.5073   31.6729 C   0  0  0  0  0  0  0  0  0  0  0  0
   42.2003   15.5168   29.3487 C   0  0  0  0  0  0  0  0  0  0  0  0
   41.9736   15.4170   30.7902 N   0  0  0  0  0  0  0  0  0  0  0  0
   41.9589   17.8112   31.1200 C   0  0  0  0  0  0  0  0  0  0  0  0
   42.0846   18.0270   29.6904 N   0  0  0  0  0  0  0  0  0  0  0  0
   42.6242   16.9344   28.8340 C   0  0  0  0  0  0  0  0  0  0  0  0
   41.5336   18.6640   31.8350 O   0  0  0  0  0  0  0  0  0  0  0  0
   41.8451   18.7748   29.3413 H   0  0  0  0  0  0  0  0  0  0  0  0
   42.2528   19.0147   32.3834 H   0  0  0  0  0  0  0  0  0  0  0  0
   43.9361   16.4747   31.6811 C   0  0  0  0  0  0  0  0  0  0  0  0
   44.5002   17.8015   31.5911 O   0  0  0  0  0  0  0  0  0  0  0  0
   44.6539   17.4392   33.9957 C   0  0  0  0  0  0  0  0  0  0  0  0
   44.6483   19.7582   33.0135 C   0  0  0  0  0  0  0  0  0  0  0  0
   45.1201   18.3088   32.8076 C   0  0  0  0  0  0  0  0  0  0  0  0
   46.6546   18.3088   32.7528 C   0  0  0  0  0  0  0  0  0  0  0  0
   41.8176   12.7600   30.8884 C   0  0  0  0  0  0  0  0  0  0  0  0
   43.1153   12.4144   31.6471 C   0  0  0  0  0  0  0  0  0  0  0  0
   44.2273   13.0569   30.9837 N   0  0  0  0  0  0  0  0  0  0  0  0
   44.4206   12.6167   30.2354 H   0  0  0  0  0  0  0  0  0  0  0  0
   44.9358   13.0527   31.5222 H   0  0  0  0  0  0  0  0  0  0  0  0
   43.3329   10.8934   31.6764 C   0  0  0  0  0  0  0  0  0  0  0  0
   41.7376    9.4072   35.4471 C   0  0  0  0  0  0  0  0  0  0  0  0
   41.7448    8.5827   34.3276 C   0  0  0  0  0  0  0  0  0  0  0  0
   42.2562    9.0569   33.1116 C   0  0  0  0  0  0  0  0  0  0  0  0
   42.7508   10.3583   33.0259 C   0  0  0  0  0  0  0  0  0  0  0  0
   42.7495   11.1826   34.1516 C   0  0  0  0  0  0  0  0  0  0  0  0
   42.2383   10.7064   35.3639 C   0  0  0  0  0  0  0  0  0  0  0  0
   42.2302   11.5153   36.4671 F   0  0  0  0  0  0  0  0  0  0  0  0
   41.2381    8.9416   36.6314 F   0  0  0  0  0  0  0  0  0  0  0  0
   42.2618    8.2461   32.0144 F   0  0  0  0  0  0  0  0  0  0  0  0
 26 25  1  0  0  0
 27 26  1  0  0  0
 28 27  1  0  0  0
 29 28  1  0  0  0
 30 29  1  0  0  0
 30 25  1  0  0  0
 24 28  1  0  0  0
 20 24  1  0  0  0
 19 20  1  0  0  0
 19  1  1  0  0  0
  6  5  1  0  0  0
  6  4  1  0  0  0
  6  1  1  0  0  0
  2  1  1  0  0  0
  7  4  1  0  0  0
  8  7  1  0  0  0
  9  5  1  0  0  0
  9  8  1  0  0  0
 10  7  1  0  0  0
 21 20  1  0  0  0
 31 30  1  0  0  0
 32 25  1  0  0  0
 33 27  1  0  0  0
 13  4  1  0  0  0
 14 13  1  0  0  0
 17 14  1  0  0  0
 17 16  1  0  0  0
 17 15  1  0  0  0
 18 17  1  0  0  0
 11  8  1  0  0  0
 22 21  1  0  0  0
 23 21  1  0  0  0
  2  3  1  0  0  0
 10 12  1  0  0  0
M  END
> <minimizedAffinity>
-8.01307

$$$$



 33 34  0  0  0  0  0  0  0  0999 V2000
   41.9736   13.2865   33.9912 C   0  0  0  0  0  0  0  0  0  0  0  0
   41.1929   13.6700   34.8016 O   0  0  0  0  0  0  0  0  0  0  0  0
   40.7253   12.9113   35.1845 H   0  0  0  0  0  0  0  0  0  0  0  0
   40.7826   11.6577   32.3563 C   0  0  0  0  0  0  0  0  0  0  0  0
   42.6278   10.8405   33.8877 C   0  0  0  0  0  0  0  0  0  0  0  0
   41.7746   11.9226   33.3975 N   0  0  0  0  0  0  0  0  0  0  0  0
   40.0187   10.4300   32.6692 C   0  0  0  0  0  0  0  0  0  0  0  0
   40.7377    9.2913   33.2101 N   0  0  0  0  0  0  0  0  0  0  0  0
   42.2052    9.3997   33.4407 C   0  0  0  0  0  0  0  0  0  0  0  0
   38.8453   10.3775   32.4699 O   0  0  0  0  0  0  0  0  0  0  0  0
   40.3204    8.5646   33.4004 H   0  0  0  0  0  0  0  0  0  0  0  0
   38.6801   10.3617   31.5142 H   0  0  0  0  0  0  0  0  0  0  0  0
   41.5945   11.4004   31.0611 C   0  0  0  0  0  0  0  0  0  0  0  0
   42.5245   12.4720   30.7903 O   0  0  0  0  0  0  0  0  0  0  0  0
   43.7836   12.4981   28.7044 C   0  0  0  0  0  0  0  0  0  0  0  0
   43.9029   10.5430   30.2874 C   0  0  0  0  0  0  0  0  0  0  0  0
   43.7902   12.0739   30.1894 C   0  0  0  0  0  0  0  0  0  0  0  0
   45.0131   12.6888   30.8852 C   0  0  0  0  0  0  0  0  0  0  0  0
   43.1598   14.1899   33.5823 C   0  0  0  0  0  0  0  0  0  0  0  0
   42.6336   15.4446   32.8556 C   0  0  0  0  0  0  0  0  0  0  0  0
   41.4081   15.1047   32.1687 N   0  0  0  0  0  0  0  0  0  0  0  0
   41.5981   14.6312   31.4402 H   0  0  0  0  0  0  0  0  0  0  0  0
   40.9829   15.8509   31.9354 H   0  0  0  0  0  0  0  0  0  0  0  0
   43.6729   15.9576   31.8465 C   0  0  0  0  0  0  0  0  0  0  0  0
   44.9689   19.8884   33.2033 C   0  0  0  0  0  0  0  0  0  0  0  0
   43.7136   19.7368   32.6252 C   0  0  0  0  0  0  0  0  0  0  0  0
   43.2924   18.4739   32.1860 C   0  0  0  0  0  0  0  0  0  0  0  0
   44.1374   17.3727   32.3239 C   0  0  0  0  0  0  0  0  0  0  0  0
   45.3942   17.5246   32.9106 C   0  0  0  0  0  0  0  0  0  0  0  0
   45.8117   18.7863   33.3480 C   0  0  0  0  0  0  0  0  0  0  0  0
   47.0461   18.9385   33.9174 F   0  0  0  0  0  0  0  0  0  0  0  0
   45.3764   21.1213   33.6306 F   0  0  0  0  0  0  0  0  0  0  0  0
   42.0603   18.3278   31.6186 F   0  0  0  0  0  0  0  0  0  0  0  0
 26 25  1  0  0  0
 27 26  1  0  0  0
 28 27  1  0  0  0
 29 28  1  0  0  0
 30 29  1  0  0  0
 30 25  1  0  0  0
 24 28  1  0  0  0
 20 24  1  0  0  0
 19 20  1  0  0  0
 19  1  1  0  0  0
  6  5  1  0  0  0
  6  4  1  0  0  0
  6  1  1  0  0  0
  2  1  1  0  0  0
  7  4  1  0  0  0
  8  7  1  0  0  0
  9  5  1  0  0  0
  9  8  1  0  0  0
 10  7  1  0  0  0
 21 20  1  0  0  0
 31 30  1  0  0  0
 32 25  1  0  0  0
 33 27  1  0  0  0
 13  4  1  0  0  0
 14 13  1  0  0  0
 17 14  1  0  0  0
 17 16  1  0  0  0
 17 15  1  0  0  0
 18 17  1  0  0  0
 11  8  1  0  0  0
 22 21  1  0  0  0
 23 21  1  0  0  0
  2  3  1  0  0  0
 10 12  1  0  0  0
M  END
> <minimizedAffinity>
-7.79203

$$$$



 33 34  0  0  0  0  0  0  0  0999 V2000
   43.1800   15.6589   33.6314 C   0  0  0  0  0  0  0  0  0  0  0  0
   42.9109   16.1472   34.6813 O   0  0  0  0  0  0  0  0  0  0  0  0
   42.8099   15.4485   35.3465 H   0  0  0  0  0  0  0  0  0  0  0  0
   41.6980   13.5640   34.0313 C   0  0  0  0  0  0  0  0  0  0  0  0
   43.7394   13.4432   32.5360 C   0  0  0  0  0  0  0  0  0  0  0  0
   42.8556   14.2098   33.4138 N   0  0  0  0  0  0  0  0  0  0  0  0
   42.0819   12.2586   34.6120 C   0  0  0  0  0  0  0  0  0  0  0  0
   42.9958   11.4149   33.8643 N   0  0  0  0  0  0  0  0  0  0  0  0
   43.5208   11.8920   32.5547 C   0  0  0  0  0  0  0  0  0  0  0  0
   41.6408   11.9076   35.6616 O   0  0  0  0  0  0  0  0  0  0  0  0
   43.2357   10.6510   34.1764 H   0  0  0  0  0  0  0  0  0  0  0  0
   40.6973   11.7043   35.5641 H   0  0  0  0  0  0  0  0  0  0  0  0
   40.7004   13.2997   32.8747 C   0  0  0  0  0  0  0  0  0  0  0  0
   40.0166   12.0374   33.0353 O   0  0  0  0  0  0  0  0  0  0  0  0
   38.2150   11.1844   31.6340 C   0  0  0  0  0  0  0  0  0  0  0  0
   40.3601    9.9015   31.9428 C   0  0  0  0  0  0  0  0  0  0  0  0
   39.7451   11.3047   31.8061 C   0  0  0  0  0  0  0  0  0  0  0  0
   40.3433   11.9693   30.5579 C   0  0  0  0  0  0  0  0  0  0  0  0
   43.8535   16.5181   32.5367 C   0  0  0  0  0  0  0  0  0  0  0  0
   42.7752   17.1550   31.6363 C   0  0  0  0  0  0  0  0  0  0  0  0
   41.7494   17.7315   32.4758 N   0  0  0  0  0  0  0  0  0  0  0  0
   41.2404   17.0831   32.8097 H   0  0  0  0  0  0  0  0  0  0  0  0
   41.2469   18.2841   31.9918 H   0  0  0  0  0  0  0  0  0  0  0  0
   42.1569   16.0984   30.7074 C   0  0  0  0  0  0  0  0  0  0  0  0
   42.6418   17.4859   26.6072 C   0  0  0  0  0  0  0  0  0  0  0  0
   43.1329   16.2388   26.9767 C   0  0  0  0  0  0  0  0  0  0  0  0
   42.9802   15.7883   28.2953 C   0  0  0  0  0  0  0  0  0  0  0  0
   42.3414   16.5961   29.2362 C   0  0  0  0  0  0  0  0  0  0  0  0
   41.8428   17.8445   28.8627 C   0  0  0  0  0  0  0  0  0  0  0  0
   41.9968   18.2914   27.5457 C   0  0  0  0  0  0  0  0  0  0  0  0
   41.5144   19.5178   27.1793 F   0  0  0  0  0  0  0  0  0  0  0  0
   42.7924   17.9221   25.3204 F   0  0  0  0  0  0  0  0  0  0  0  0
   43.4633   14.5643   28.6556 F   0  0  0  0  0  0  0  0  0  0  0  0
 26 25  1  0  0  0
 27 26  1  0  0  0
 28 27  1  0  0  0
 29 28  1  0  0  0
 30 29  1  0  0  0
 30 25  1  0  0  0
 24 28  1  0  0  0
 20 24  1  0  0  0
 19 20  1  0  0  0
 19  1  1  0  0  0
  6  5  1  0  0  0
  6  4  1  0  0  0
  6  1  1  0  0  0
  2  1  1  0  0  0
  7  4  1  0  0  0
  8  7  1  0  0  0
  9  5  1  0  0  0
  9  8  1  0  0  0
 10  7  1  0  0  0
 21 20  1  0  0  0
 31 30  1  0  0  0
 32 25  1  0  0  0
 33 27  1  0  0  0
 13  4  1  0  0  0
 14 13  1  0  0  0
 17 14  1  0  0  0
 17 16  1  0  0  0
 17 15  1  0  0  0
 18 17  1  0  0  0
 11  8  1  0  0  0
 22 21  1  0  0  0
 23 21  1  0  0  0
  2  3  1  0  0  0
 10 12  1  0  0  0
M  END
> <minimizedAffinity>
-7.67930

$$$$
