Tectochrysin


 21 23  0  0  0  0  0  0  0  0999 V2000
   41.2670   12.7508   32.4205 C   0  0  0  0  0  0  0  0  0  0  0  0
   42.0316   12.7874   33.5756 C   0  0  0  0  0  0  0  0  0  0  0  0
   42.8368   13.8741   33.8326 C   0  0  0  0  0  0  0  0  0  0  0  0
   42.8870   14.9368   32.9377 C   0  0  0  0  0  0  0  0  0  0  0  0
   42.1097   14.8705   31.7900 C   0  0  0  0  0  0  0  0  0  0  0  0
   41.2930   13.7963   31.5037 C   0  0  0  0  0  0  0  0  0  0  0  0
   43.6653   15.9721   33.1999 O   0  0  0  0  0  0  0  0  0  0  0  0
   43.7507   17.0011   32.3904 C   0  0  0  0  0  0  0  0  0  0  0  0
   42.9976   16.9837   31.2355 C   0  0  0  0  0  0  0  0  0  0  0  0
   42.1610   15.9175   30.9113 C   0  0  0  0  0  0  0  0  0  0  0  0
   40.5374   13.7844   30.3400 O   0  0  0  0  0  0  0  0  0  0  0  0
   41.4733   15.9083   29.8504 O   0  0  0  0  0  0  0  0  0  0  0  0
   41.0515   13.4704   29.5070 H   0  0  0  0  0  0  0  0  0  0  0  0
   44.6328   18.1004   32.7555 C   0  0  0  0  0  0  0  0  0  0  0  0
   44.1149   19.3759   32.6994 C   0  0  0  0  0  0  0  0  0  0  0  0
   44.9192   20.4677   33.0396 C   0  0  0  0  0  0  0  0  0  0  0  0
   46.2176   20.2852   33.4285 C   0  0  0  0  0  0  0  0  0  0  0  0
   46.7417   19.0141   33.4869 C   0  0  0  0  0  0  0  0  0  0  0  0
   45.9263   17.9484   33.1453 C   0  0  0  0  0  0  0  0  0  0  0  0
   41.9282   11.6907   34.4189 O   0  0  0  0  0  0  0  0  0  0  0  0
   42.7378   11.4887   35.5376 C   0  0  0  0  0  0  0  0  0  0  0  0
  1  2  2  0  0  0
  2  3  1  0  0  0
  2 20  1  0  0  0
  3  4  2  0  0  0
  4  5  1  0  0  0
  4  7  1  0  0  0
  5  6  2  0  0  0
  6  1  1  0  0  0
  6 11  1  0  0  0
  7  8  1  0  0  0
  8  9  2  0  0  0
  8 14  1  0  0  0
  9 10  1  0  0  0
 10  5  1  0  0  0
 10 12  2  0  0  0
 20 21  1  0  0  0
 14 15  2  0  0  0
 15 16  1  0  0  0
 16 17  2  0  0  0
 17 18  1  0  0  0
 18 19  2  0  0  0
 19 14  1  0  0  0
 11 13  1  0  0  0
M  END
> <minimizedAffinity>
-7.61516

$$$$
Tectochrysin


 21 23  0  0  0  0  0  0  0  0999 V2000
   42.8182   15.8017   34.1298 C   0  0  0  0  0  0  0  0  0  0  0  0
   43.9035   16.2321   33.3834 C   0  0  0  0  0  0  0  0  0  0  0  0
   44.4736   15.3930   32.4528 C   0  0  0  0  0  0  0  0  0  0  0  0
   43.9654   14.1137   32.2576 C   0  0  0  0  0  0  0  0  0  0  0  0
   42.8780   13.7121   33.0204 C   0  0  0  0  0  0  0  0  0  0  0  0
   42.2844   14.5287   33.9605 C   0  0  0  0  0  0  0  0  0  0  0  0
   44.5247   13.3212   31.3601 O   0  0  0  0  0  0  0  0  0  0  0  0
   44.0856   12.1054   31.1355 C   0  0  0  0  0  0  0  0  0  0  0  0
   43.0064   11.6585   31.8682 C   0  0  0  0  0  0  0  0  0  0  0  0
   42.3799   12.4530   32.8262 C   0  0  0  0  0  0  0  0  0  0  0  0
   41.1986   14.0735   34.6947 O   0  0  0  0  0  0  0  0  0  0  0  0
   41.3906   12.0366   33.4945 O   0  0  0  0  0  0  0  0  0  0  0  0
   41.4518   13.5059   35.5135 H   0  0  0  0  0  0  0  0  0  0  0  0
   44.7601   11.2986   30.1286 C   0  0  0  0  0  0  0  0  0  0  0  0
   45.8306   11.8660   29.4726 C   0  0  0  0  0  0  0  0  0  0  0  0
   46.5140   11.1347   28.4964 C   0  0  0  0  0  0  0  0  0  0  0  0
   46.1320    9.8594   28.1832 C   0  0  0  0  0  0  0  0  0  0  0  0
   45.0637    9.2861   28.8344 C   0  0  0  0  0  0  0  0  0  0  0  0
   44.4024   10.0296   29.7973 C   0  0  0  0  0  0  0  0  0  0  0  0
   44.3535   17.5200   33.6349 O   0  0  0  0  0  0  0  0  0  0  0  0
   45.4972   18.0728   33.0569 C   0  0  0  0  0  0  0  0  0  0  0  0
  1  2  2  0  0  0
  2  3  1  0  0  0
  2 20  1  0  0  0
  3  4  2  0  0  0
  4  5  1  0  0  0
  4  7  1  0  0  0
  5  6  2  0  0  0
  6  1  1  0  0  0
  6 11  1  0  0  0
  7  8  1  0  0  0
  8  9  2  0  0  0
  8 14  1  0  0  0
  9 10  1  0  0  0
 10  5  1  0  0  0
 10 12  2  0  0  0
 20 21  1  0  0  0
 14 15  2  0  0  0
 15 16  1  0  0  0
 16 17  2  0  0  0
 17 18  1  0  0  0
 18 19  2  0  0  0
 19 14  1  0  0  0
 11 13  1  0  0  0
M  END
> <minimizedAffinity>
-7.42108

$$$$
Tectochrysin


 21 23  0  0  0  0  0  0  0  0999 V2000
   42.6504   17.5688   30.5101 C   0  0  0  0  0  0  0  0  0  0  0  0
   42.2961   16.5867   29.5990 C   0  0  0  0  0  0  0  0  0  0  0  0
   42.2095   15.2735   30.0030 C   0  0  0  0  0  0  0  0  0  0  0  0
   42.4761   14.9269   31.3227 C   0  0  0  0  0  0  0  0  0  0  0  0
   42.8283   15.9330   32.2111 C   0  0  0  0  0  0  0  0  0  0  0  0
   42.9238   17.2575   31.8378 C   0  0  0  0  0  0  0  0  0  0  0  0
   42.3883   13.6615   31.6936 O   0  0  0  0  0  0  0  0  0  0  0  0
   42.6290   13.2792   32.9254 C   0  0  0  0  0  0  0  0  0  0  0  0
   42.9831   14.2416   33.8472 C   0  0  0  0  0  0  0  0  0  0  0  0
   43.0900   15.5891   33.5090 C   0  0  0  0  0  0  0  0  0  0  0  0
   43.2805   18.2217   32.7698 O   0  0  0  0  0  0  0  0  0  0  0  0
   43.4153   16.4663   34.3595 O   0  0  0  0  0  0  0  0  0  0  0  0
   44.2938   18.3085   32.9195 H   0  0  0  0  0  0  0  0  0  0  0  0
   42.5092   11.8648   33.2494 C   0  0  0  0  0  0  0  0  0  0  0  0
   42.8272   10.9579   32.2621 C   0  0  0  0  0  0  0  0  0  0  0  0
   42.7295    9.5873   32.5203 C   0  0  0  0  0  0  0  0  0  0  0  0
   42.3210    9.1339   33.7442 C   0  0  0  0  0  0  0  0  0  0  0  0
   42.0018   10.0339   34.7352 C   0  0  0  0  0  0  0  0  0  0  0  0
   42.1061   11.3861   34.4562 C   0  0  0  0  0  0  0  0  0  0  0  0
   42.0456   17.0100   28.3019 O   0  0  0  0  0  0  0  0  0  0  0  0
   41.1745   18.0506   27.9762 C   0  0  0  0  0  0  0  0  0  0  0  0
  1  2  2  0  0  0
  2  3  1  0  0  0
  2 20  1  0  0  0
  3  4  2  0  0  0
  4  5  1  0  0  0
  4  7  1  0  0  0
  5  6  2  0  0  0
  6  1  1  0  0  0
  6 11  1  0  0  0
  7  8  1  0  0  0
  8  9  2  0  0  0
  8 14  1  0  0  0
  9 10  1  0  0  0
 10  5  1  0  0  0
 10 12  2  0  0  0
 20 21  1  0  0  0
 14 15  2  0  0  0
 15 16  1  0  0  0
 16 17  2  0  0  0
 17 18  1  0  0  0
 18 19  2  0  0  0
 19 14  1  0  0  0
 11 13  1  0  0  0
M  END
> <minimizedAffinity>
-7.25137

$$$$
Tectochrysin


 21 23  0  0  0  0  0  0  0  0999 V2000
   42.9538   14.0756   33.8536 C   0  0  0  0  0  0  0  0  0  0  0  0
   43.2525   13.1897   32.8308 C   0  0  0  0  0  0  0  0  0  0  0  0
   43.2594   13.6249   31.5248 C   0  0  0  0  0  0  0  0  0  0  0  0
   42.9675   14.9510   31.2260 C   0  0  0  0  0  0  0  0  0  0  0  0
   42.6723   15.8136   32.2721 C   0  0  0  0  0  0  0  0  0  0  0  0
   42.6572   15.4087   33.5907 C   0  0  0  0  0  0  0  0  0  0  0  0
   42.9785   15.3519   29.9668 O   0  0  0  0  0  0  0  0  0  0  0  0
   42.7107   16.5911   29.6289 C   0  0  0  0  0  0  0  0  0  0  0  0
   42.4109   17.4881   30.6322 C   0  0  0  0  0  0  0  0  0  0  0  0
   42.3856   17.1178   31.9753 C   0  0  0  0  0  0  0  0  0  0  0  0
   42.3549   16.3159   34.5962 O   0  0  0  0  0  0  0  0  0  0  0  0
   42.1098   17.9457   32.8901 O   0  0  0  0  0  0  0  0  0  0  0  0
   41.3479   16.4582   34.7465 H   0  0  0  0  0  0  0  0  0  0  0  0
   42.7450   16.9488   28.2179 C   0  0  0  0  0  0  0  0  0  0  0  0
   42.1012   18.1069   27.8405 C   0  0  0  0  0  0  0  0  0  0  0  0
   42.1032   18.4969   26.4978 C   0  0  0  0  0  0  0  0  0  0  0  0
   42.7383   17.7409   25.5514 C   0  0  0  0  0  0  0  0  0  0  0  0
   43.3835   16.5830   25.9211 C   0  0  0  0  0  0  0  0  0  0  0  0
   43.3679   16.2170   27.2564 C   0  0  0  0  0  0  0  0  0  0  0  0
   43.5328   11.8843   33.2076 O   0  0  0  0  0  0  0  0  0  0  0  0
   43.0423   10.7591   32.5436 C   0  0  0  0  0  0  0  0  0  0  0  0
  1  2  2  0  0  0
  2  3  1  0  0  0
  2 20  1  0  0  0
  3  4  2  0  0  0
  4  5  1  0  0  0
  4  7  1  0  0  0
  5  6  2  0  0  0
  6  1  1  0  0  0
  6 11  1  0  0  0
  7  8  1  0  0  0
  8  9  2  0  0  0
  8 14  1  0  0  0
  9 10  1  0  0  0
 10  5  1  0  0  0
 10 12  2  0  0  0
 20 21  1  0  0  0
 14 15  2  0  0  0
 15 16  1  0  0  0
 16 17  2  0  0  0
 17 18  1  0  0  0
 18 19  2  0  0  0
 19 14  1  0  0  0
 11 13  1  0  0  0
M  END
> <minimizedAffinity>
-7.04563

$$$$
Tectochrysin


 21 23  0  0  0  0  0  0  0  0999 V2000
   43.6505   11.0459   31.3757 C   0  0  0  0  0  0  0  0  0  0  0  0
   44.5339   11.6886   30.5232 C   0  0  0  0  0  0  0  0  0  0  0  0
   44.7983   13.0292   30.6907 C   0  0  0  0  0  0  0  0  0  0  0  0
   44.1825   13.7430   31.7126 C   0  0  0  0  0  0  0  0  0  0  0  0
   43.3030   13.0712   32.5497 C   0  0  0  0  0  0  0  0  0  0  0  0
   43.0170   11.7292   32.4082 C   0  0  0  0  0  0  0  0  0  0  0  0
   44.4476   15.0293   31.8592 O   0  0  0  0  0  0  0  0  0  0  0  0
   43.8949   15.7501   32.8059 C   0  0  0  0  0  0  0  0  0  0  0  0
   43.0129   15.1289   33.6647 C   0  0  0  0  0  0  0  0  0  0  0  0
   42.6986   13.7759   33.5543 C   0  0  0  0  0  0  0  0  0  0  0  0
   42.1287   11.1094   33.2754 O   0  0  0  0  0  0  0  0  0  0  0  0
   41.8887   13.2129   34.3453 O   0  0  0  0  0  0  0  0  0  0  0  0
   41.1395   11.2306   33.0230 H   0  0  0  0  0  0  0  0  0  0  0  0
   44.2425   17.1611   32.8968 C   0  0  0  0  0  0  0  0  0  0  0  0
   43.3226   18.0733   32.4278 C   0  0  0  0  0  0  0  0  0  0  0  0
   43.6061   19.4409   32.4912 C   0  0  0  0  0  0  0  0  0  0  0  0
   44.7887   19.8861   33.0145 C   0  0  0  0  0  0  0  0  0  0  0  0
   45.7122   18.9808   33.4848 C   0  0  0  0  0  0  0  0  0  0  0  0
   45.4094   17.6316   33.4115 C   0  0  0  0  0  0  0  0  0  0  0  0
   45.1081   10.9103   29.5287 O   0  0  0  0  0  0  0  0  0  0  0  0
   46.3709   11.1484   28.9843 C   0  0  0  0  0  0  0  0  0  0  0  0
  1  2  2  0  0  0
  2  3  1  0  0  0
  2 20  1  0  0  0
  3  4  2  0  0  0
  4  5  1  0  0  0
  4  7  1  0  0  0
  5  6  2  0  0  0
  6  1  1  0  0  0
  6 11  1  0  0  0
  7  8  1  0  0  0
  8  9  2  0  0  0
  8 14  1  0  0  0
  9 10  1  0  0  0
 10  5  1  0  0  0
 10 12  2  0  0  0
 20 21  1  0  0  0
 14 15  2  0  0  0
 15 16  1  0  0  0
 16 17  2  0  0  0
 17 18  1  0  0  0
 18 19  2  0  0  0
 19 14  1  0  0  0
 11 13  1  0  0  0
M  END
> <minimizedAffinity>
-7.04135

$$$$
