Toltrazuril.cdx


 30 32  0  0  0  0  0  0  0  0999 V2000
   43.2506   12.5155   32.0429 C   0  0  0  0  0  0  0  0  0  0  0  0
   42.3308   13.5309   32.0798 C   0  0  0  0  0  0  0  0  0  0  0  0
   44.5195   12.7003   31.3123 C   0  0  0  0  0  0  0  0  0  0  0  0
   43.0046   11.3083   32.6964 C   0  0  0  0  0  0  0  0  0  0  0  0
   41.8469   11.0714   33.4029 C   0  0  0  0  0  0  0  0  0  0  0  0
   40.9207   12.0900   33.4422 C   0  0  0  0  0  0  0  0  0  0  0  0
   41.1595   13.2643   32.8064 C   0  0  0  0  0  0  0  0  0  0  0  0
   41.5733    9.8503   34.0773 N   0  0  0  0  0  0  0  0  0  0  0  0
   41.1309    8.8275   33.3194 C   0  0  0  0  0  0  0  0  0  0  0  0
   40.8581    7.6561   33.9016 N   0  0  0  0  0  0  0  0  0  0  0  0
   41.0288    7.5199   35.2246 C   0  0  0  0  0  0  0  0  0  0  0  0
   41.4668    8.5078   36.0232 N   0  0  0  0  0  0  0  0  0  0  0  0
   41.7367    9.6906   35.4003 C   0  0  0  0  0  0  0  0  0  0  0  0
   40.7696    6.4141   35.7637 O   0  0  0  0  0  0  0  0  0  0  0  0
   40.9753    8.9749   32.0702 O   0  0  0  0  0  0  0  0  0  0  0  0
   40.3825    6.5783   33.0444 C   0  0  0  0  0  0  0  0  0  0  0  0
   42.1497   10.6475   36.1048 O   0  0  0  0  0  0  0  0  0  0  0  0
   41.6043    8.4244   37.0376 H   0  0  0  0  0  0  0  0  0  0  0  0
   42.4240   14.7517   31.4998 O   0  0  0  0  0  0  0  0  0  0  0  0
   44.1902   15.9429   32.7032 C   0  0  0  0  0  0  0  0  0  0  0  0
   43.0698   15.8827   31.9190 C   0  0  0  0  0  0  0  0  0  0  0  0
   42.5291   17.1052   31.5020 C   0  0  0  0  0  0  0  0  0  0  0  0
   43.0935   18.3109   31.8606 C   0  0  0  0  0  0  0  0  0  0  0  0
   44.2393   18.3519   32.6627 C   0  0  0  0  0  0  0  0  0  0  0  0
   44.7729   17.1366   33.0746 C   0  0  0  0  0  0  0  0  0  0  0  0
   44.9641   19.9185   33.1226 S   0  0  0  0  0  0  0  0  0  0  0  0
   46.6706   19.6825   33.6331 C   0  0  0  0  0  0  0  0  0  0  0  0
   47.0530   18.4255   33.1971 F   0  0  0  0  0  0  0  0  0  0  0  0
   47.4957   20.6569   33.0828 F   0  0  0  0  0  0  0  0  0  0  0  0
   46.7579   19.6956   35.0165 F   0  0  0  0  0  0  0  0  0  0  0  0
 20 21  2  0  0  0
 21 22  1  0  0  0
 22 23  2  0  0  0
 23 24  1  0  0  0
 24 25  2  0  0  0
 24 26  1  0  0  0
 25 20  1  0  0  0
  1  2  2  0  0  0
  1  3  1  0  0  0
  1  4  1  0  0  0
  2 19  1  0  0  0
 19 21  1  0  0  0
  4  5  2  0  0  0
  5  6  1  0  0  0
  5  8  1  0  0  0
  6  7  2  0  0  0
  7  2  1  0  0  0
 26 27  1  0  0  0
 27 28  1  0  0  0
 27 29  1  0  0  0
 27 30  1  0  0  0
  8  9  1  0  0  0
  9 10  1  0  0  0
  9 15  2  0  0  0
 10 11  1  0  0  0
 10 16  1  0  0  0
 11 12  1  0  0  0
 11 14  2  0  0  0
 12 13  1  0  0  0
 13  8  1  0  0  0
 13 17  2  0  0  0
 12 18  1  0  0  0
M  END
> <minimizedAffinity>
-8.53077

$$$$
Toltrazuril.cdx


 30 32  0  0  0  0  0  0  0  0999 V2000
   42.1731   14.4078   29.9658 C   0  0  0  0  0  0  0  0  0  0  0  0
   41.6679   13.5529   30.9105 C   0  0  0  0  0  0  0  0  0  0  0  0
   42.1554   14.0216   28.5416 C   0  0  0  0  0  0  0  0  0  0  0  0
   42.6980   15.6461   30.3346 C   0  0  0  0  0  0  0  0  0  0  0  0
   42.7380   16.0733   31.6428 C   0  0  0  0  0  0  0  0  0  0  0  0
   42.2309   15.2167   32.5945 C   0  0  0  0  0  0  0  0  0  0  0  0
   41.7204   14.0120   32.2363 C   0  0  0  0  0  0  0  0  0  0  0  0
   43.2673   17.3304   32.0435 N   0  0  0  0  0  0  0  0  0  0  0  0
   44.5645   17.3510   32.4086 C   0  0  0  0  0  0  0  0  0  0  0  0
   45.1140   18.5063   32.7943 N   0  0  0  0  0  0  0  0  0  0  0  0
   44.3676   19.6202   32.8112 C   0  0  0  0  0  0  0  0  0  0  0  0
   43.0717   19.6522   32.4572 N   0  0  0  0  0  0  0  0  0  0  0  0
   42.5395   18.4583   32.0683 C   0  0  0  0  0  0  0  0  0  0  0  0
   44.8931   20.7027   33.1756 O   0  0  0  0  0  0  0  0  0  0  0  0
   45.2543   16.2880   32.3865 O   0  0  0  0  0  0  0  0  0  0  0  0
   46.5186   18.4826   33.1803 C   0  0  0  0  0  0  0  0  0  0  0  0
   41.3290   18.4353   31.7271 O   0  0  0  0  0  0  0  0  0  0  0  0
   42.4830   20.4936   32.4629 H   0  0  0  0  0  0  0  0  0  0  0  0
   41.1284   12.3263   30.7109 O   0  0  0  0  0  0  0  0  0  0  0  0
   42.5883   10.6558   31.7426 C   0  0  0  0  0  0  0  0  0  0  0  0
   41.3703   11.1398   31.3478 C   0  0  0  0  0  0  0  0  0  0  0  0
   40.2564   10.3379   31.6250 C   0  0  0  0  0  0  0  0  0  0  0  0
   40.3758    9.1217   32.2634 C   0  0  0  0  0  0  0  0  0  0  0  0
   41.6298    8.6440   32.6598 C   0  0  0  0  0  0  0  0  0  0  0  0
   42.7329    9.4427   32.3828 C   0  0  0  0  0  0  0  0  0  0  0  0
   41.7754    7.0671   33.4864 S   0  0  0  0  0  0  0  0  0  0  0  0
   41.5730    7.2790   35.2592 C   0  0  0  0  0  0  0  0  0  0  0  0
   40.2760    6.9047   35.5658 F   0  0  0  0  0  0  0  0  0  0  0  0
   42.4814    6.4959   35.9626 F   0  0  0  0  0  0  0  0  0  0  0  0
   41.7191    8.6155   35.5968 F   0  0  0  0  0  0  0  0  0  0  0  0
 20 21  2  0  0  0
 21 22  1  0  0  0
 22 23  2  0  0  0
 23 24  1  0  0  0
 24 25  2  0  0  0
 24 26  1  0  0  0
 25 20  1  0  0  0
  1  2  2  0  0  0
  1  3  1  0  0  0
  1  4  1  0  0  0
  2 19  1  0  0  0
 19 21  1  0  0  0
  4  5  2  0  0  0
  5  6  1  0  0  0
  5  8  1  0  0  0
  6  7  2  0  0  0
  7  2  1  0  0  0
 26 27  1  0  0  0
 27 28  1  0  0  0
 27 29  1  0  0  0
 27 30  1  0  0  0
  8  9  1  0  0  0
  9 10  1  0  0  0
  9 15  2  0  0  0
 10 11  1  0  0  0
 10 16  1  0  0  0
 11 12  1  0  0  0
 11 14  2  0  0  0
 12 13  1  0  0  0
 13  8  1  0  0  0
 13 17  2  0  0  0
 12 18  1  0  0  0
M  END
> <minimizedAffinity>
-8.49102

$$$$
Toltrazuril.cdx


 30 32  0  0  0  0  0  0  0  0999 V2000
   43.3131   12.1872   31.9357 C   0  0  0  0  0  0  0  0  0  0  0  0
   43.0458   13.4083   31.3737 C   0  0  0  0  0  0  0  0  0  0  0  0
   42.9609   11.9354   33.3466 C   0  0  0  0  0  0  0  0  0  0  0  0
   43.9086   11.1735   31.1856 C   0  0  0  0  0  0  0  0  0  0  0  0
   44.2552   11.3371   29.8633 C   0  0  0  0  0  0  0  0  0  0  0  0
   43.9877   12.5630   29.2954 C   0  0  0  0  0  0  0  0  0  0  0  0
   43.4087   13.5494   30.0248 C   0  0  0  0  0  0  0  0  0  0  0  0
   44.8625   10.3196   29.0780 N   0  0  0  0  0  0  0  0  0  0  0  0
   44.0360    9.4130   28.5199 C   0  0  0  0  0  0  0  0  0  0  0  0
   44.5532    8.4343   27.7715 N   0  0  0  0  0  0  0  0  0  0  0  0
   45.8804    8.3720   27.5899 C   0  0  0  0  0  0  0  0  0  0  0  0
   46.7458    9.2504   28.1239 N   0  0  0  0  0  0  0  0  0  0  0  0
   46.1882   10.2372   28.8822 C   0  0  0  0  0  0  0  0  0  0  0  0
   46.3581    7.4477   26.8841 O   0  0  0  0  0  0  0  0  0  0  0  0
   42.7841    9.4877   28.7029 O   0  0  0  0  0  0  0  0  0  0  0  0
   43.6234    7.4766   27.1877 C   0  0  0  0  0  0  0  0  0  0  0  0
   46.9567   11.0851   29.4048 O   0  0  0  0  0  0  0  0  0  0  0  0
   47.7645    9.2206   27.9973 H   0  0  0  0  0  0  0  0  0  0  0  0
   42.4760   14.4844   31.9675 O   0  0  0  0  0  0  0  0  0  0  0  0
   42.4237   16.9107   31.6560 C   0  0  0  0  0  0  0  0  0  0  0  0
   42.9581   15.7517   32.1507 C   0  0  0  0  0  0  0  0  0  0  0  0
   44.1181   15.8759   32.9252 C   0  0  0  0  0  0  0  0  0  0  0  0
   44.6959   17.1017   33.1793 C   0  0  0  0  0  0  0  0  0  0  0  0
   44.1343   18.2756   32.6649 C   0  0  0  0  0  0  0  0  0  0  0  0
   42.9832   18.1481   31.8966 C   0  0  0  0  0  0  0  0  0  0  0  0
   44.8895   19.8596   32.9990 S   0  0  0  0  0  0  0  0  0  0  0  0
   46.5795   19.6303   33.5643 C   0  0  0  0  0  0  0  0  0  0  0  0
   47.3493   20.5971   32.9407 F   0  0  0  0  0  0  0  0  0  0  0  0
   46.6659   19.7602   34.9459 F   0  0  0  0  0  0  0  0  0  0  0  0
   47.0500   18.3900   33.1619 F   0  0  0  0  0  0  0  0  0  0  0  0
 20 21  2  0  0  0
 21 22  1  0  0  0
 22 23  2  0  0  0
 23 24  1  0  0  0
 24 25  2  0  0  0
 24 26  1  0  0  0
 25 20  1  0  0  0
  1  2  2  0  0  0
  1  3  1  0  0  0
  1  4  1  0  0  0
  2 19  1  0  0  0
 19 21  1  0  0  0
  4  5  2  0  0  0
  5  6  1  0  0  0
  5  8  1  0  0  0
  6  7  2  0  0  0
  7  2  1  0  0  0
 26 27  1  0  0  0
 27 28  1  0  0  0
 27 29  1  0  0  0
 27 30  1  0  0  0
  8  9  1  0  0  0
  9 10  1  0  0  0
  9 15  2  0  0  0
 10 11  1  0  0  0
 10 16  1  0  0  0
 11 12  1  0  0  0
 11 14  2  0  0  0
 12 13  1  0  0  0
 13  8  1  0  0  0
 13 17  2  0  0  0
 12 18  1  0  0  0
M  END
> <minimizedAffinity>
-8.30744

$$$$
Toltrazuril.cdx


 30 32  0  0  0  0  0  0  0  0999 V2000
   42.7991   13.5823   32.5207 C   0  0  0  0  0  0  0  0  0  0  0  0
   42.5892   13.2059   31.2196 C   0  0  0  0  0  0  0  0  0  0  0  0
   42.6826   12.5844   33.6017 C   0  0  0  0  0  0  0  0  0  0  0  0
   43.1306   14.8997   32.8358 C   0  0  0  0  0  0  0  0  0  0  0  0
   43.2641   15.8791   31.8774 C   0  0  0  0  0  0  0  0  0  0  0  0
   43.0541   15.5041   30.5689 C   0  0  0  0  0  0  0  0  0  0  0  0
   42.7314   14.2227   30.2620 C   0  0  0  0  0  0  0  0  0  0  0  0
   43.6014   17.2280   32.1733 N   0  0  0  0  0  0  0  0  0  0  0  0
   44.8840   17.4704   32.5088 C   0  0  0  0  0  0  0  0  0  0  0  0
   45.2565   18.7209   32.7968 N   0  0  0  0  0  0  0  0  0  0  0  0
   44.3507   19.7085   32.7472 C   0  0  0  0  0  0  0  0  0  0  0  0
   43.0616   19.5190   32.4188 N   0  0  0  0  0  0  0  0  0  0  0  0
   42.7120   18.2328   32.1302 C   0  0  0  0  0  0  0  0  0  0  0  0
   44.7103   20.8819   33.0198 O   0  0  0  0  0  0  0  0  0  0  0  0
   45.7262   16.5242   32.5507 O   0  0  0  0  0  0  0  0  0  0  0  0
   46.6523   18.9372   33.1541 C   0  0  0  0  0  0  0  0  0  0  0  0
   41.5156   18.0028   31.8168 O   0  0  0  0  0  0  0  0  0  0  0  0
   42.3526   20.2607   32.3749 H   0  0  0  0  0  0  0  0  0  0  0  0
   42.2634   11.9747   30.7579 O   0  0  0  0  0  0  0  0  0  0  0  0
   42.5034   11.1034   28.4842 C   0  0  0  0  0  0  0  0  0  0  0  0
   42.8631   11.2020   29.8012 C   0  0  0  0  0  0  0  0  0  0  0  0
   43.9588   10.4329   30.2118 C   0  0  0  0  0  0  0  0  0  0  0  0
   44.6438    9.6165   29.3370 C   0  0  0  0  0  0  0  0  0  0  0  0
   44.2611    9.5295   27.9940 C   0  0  0  0  0  0  0  0  0  0  0  0
   43.1731   10.2941   27.5903 C   0  0  0  0  0  0  0  0  0  0  0  0
   45.1541    8.4691   26.8674 S   0  0  0  0  0  0  0  0  0  0  0  0
   46.8321    9.0739   26.6502 C   0  0  0  0  0  0  0  0  0  0  0  0
   47.1533    8.9045   25.3144 F   0  0  0  0  0  0  0  0  0  0  0  0
   46.9293   10.4149   27.0047 F   0  0  0  0  0  0  0  0  0  0  0  0
   47.7128    8.3079   27.3980 F   0  0  0  0  0  0  0  0  0  0  0  0
 20 21  2  0  0  0
 21 22  1  0  0  0
 22 23  2  0  0  0
 23 24  1  0  0  0
 24 25  2  0  0  0
 24 26  1  0  0  0
 25 20  1  0  0  0
  1  2  2  0  0  0
  1  3  1  0  0  0
  1  4  1  0  0  0
  2 19  1  0  0  0
 19 21  1  0  0  0
  4  5  2  0  0  0
  5  6  1  0  0  0
  5  8  1  0  0  0
  6  7  2  0  0  0
  7  2  1  0  0  0
 26 27  1  0  0  0
 27 28  1  0  0  0
 27 29  1  0  0  0
 27 30  1  0  0  0
  8  9  1  0  0  0
  9 10  1  0  0  0
  9 15  2  0  0  0
 10 11  1  0  0  0
 10 16  1  0  0  0
 11 12  1  0  0  0
 11 14  2  0  0  0
 12 13  1  0  0  0
 13  8  1  0  0  0
 13 17  2  0  0  0
 12 18  1  0  0  0
M  END
> <minimizedAffinity>
-8.12158

$$$$
Toltrazuril.cdx


 30 32  0  0  0  0  0  0  0  0999 V2000
   43.0076   12.0938   32.5189 C   0  0  0  0  0  0  0  0  0  0  0  0
   42.4871   13.1814   31.8672 C   0  0  0  0  0  0  0  0  0  0  0  0
   43.1675   12.1239   33.9857 C   0  0  0  0  0  0  0  0  0  0  0  0
   43.3817   10.9519   31.8112 C   0  0  0  0  0  0  0  0  0  0  0  0
   43.2520   10.8525   30.4441 C   0  0  0  0  0  0  0  0  0  0  0  0
   42.7291   11.9436   29.7862 C   0  0  0  0  0  0  0  0  0  0  0  0
   42.3653   13.0547   30.4743 C   0  0  0  0  0  0  0  0  0  0  0  0
   43.6256    9.6999   29.7006 N   0  0  0  0  0  0  0  0  0  0  0  0
   44.8554    9.7089   29.1494 C   0  0  0  0  0  0  0  0  0  0  0  0
   45.2587    8.6509   28.4397 N   0  0  0  0  0  0  0  0  0  0  0  0
   44.4354    7.6032   28.2894 C   0  0  0  0  0  0  0  0  0  0  0  0
   43.2014    7.5455   28.8182 N   0  0  0  0  0  0  0  0  0  0  0  0
   42.8186    8.6395   29.5367 C   0  0  0  0  0  0  0  0  0  0  0  0
   44.8233    6.6121   27.6201 O   0  0  0  0  0  0  0  0  0  0  0  0
   45.6197   10.7084   29.3019 O   0  0  0  0  0  0  0  0  0  0  0  0
   46.5951    8.7034   27.8621 C   0  0  0  0  0  0  0  0  0  0  0  0
   41.6713    8.6346   30.0525 O   0  0  0  0  0  0  0  0  0  0  0  0
   42.5558    6.7534   28.7151 H   0  0  0  0  0  0  0  0  0  0  0  0
   42.0805   14.3538   32.4107 O   0  0  0  0  0  0  0  0  0  0  0  0
   43.7655   15.7730   33.4752 C   0  0  0  0  0  0  0  0  0  0  0  0
   42.7570   15.5306   32.5819 C   0  0  0  0  0  0  0  0  0  0  0  0
   42.3791   16.5975   31.7573 C   0  0  0  0  0  0  0  0  0  0  0  0
   42.9894   17.8312   31.8376 C   0  0  0  0  0  0  0  0  0  0  0  0
   44.0191   18.0594   32.7572 C   0  0  0  0  0  0  0  0  0  0  0  0
   44.3912   16.9982   33.5739 C   0  0  0  0  0  0  0  0  0  0  0  0
   44.8043   19.6610   32.8546 S   0  0  0  0  0  0  0  0  0  0  0  0
   46.4872   19.4870   33.4595 C   0  0  0  0  0  0  0  0  0  0  0  0
   47.2460   20.4582   32.8292 F   0  0  0  0  0  0  0  0  0  0  0  0
   46.5413   19.6508   34.8392 F   0  0  0  0  0  0  0  0  0  0  0  0
   46.9963   18.2499   33.0961 F   0  0  0  0  0  0  0  0  0  0  0  0
 20 21  2  0  0  0
 21 22  1  0  0  0
 22 23  2  0  0  0
 23 24  1  0  0  0
 24 25  2  0  0  0
 24 26  1  0  0  0
 25 20  1  0  0  0
  1  2  2  0  0  0
  1  3  1  0  0  0
  1  4  1  0  0  0
  2 19  1  0  0  0
 19 21  1  0  0  0
  4  5  2  0  0  0
  5  6  1  0  0  0
  5  8  1  0  0  0
  6  7  2  0  0  0
  7  2  1  0  0  0
 26 27  1  0  0  0
 27 28  1  0  0  0
 27 29  1  0  0  0
 27 30  1  0  0  0
  8  9  1  0  0  0
  9 10  1  0  0  0
  9 15  2  0  0  0
 10 11  1  0  0  0
 10 16  1  0  0  0
 11 12  1  0  0  0
 11 14  2  0  0  0
 12 13  1  0  0  0
 13  8  1  0  0  0
 13 17  2  0  0  0
 12 18  1  0  0  0
M  END
> <minimizedAffinity>
-8.02137

$$$$
