Trimebutine.cdx


 28 29  0  0  0  0  0  0  0  0999 V2000
   40.1026   12.9090   32.1550 C   0  0  0  0  0  0  0  0  0  0  0  0
   39.1498   13.4583   32.7360 O   0  0  0  0  0  0  0  0  0  0  0  0
   41.7651   14.2719   29.0612 C   0  0  0  0  0  0  0  0  0  0  0  0
   42.4659   15.3401   29.5771 C   0  0  0  0  0  0  0  0  0  0  0  0
   42.4042   15.6280   30.9399 C   0  0  0  0  0  0  0  0  0  0  0  0
   41.6279   14.8176   31.7426 C   0  0  0  0  0  0  0  0  0  0  0  0
   40.9119   13.7398   31.2658 C   0  0  0  0  0  0  0  0  0  0  0  0
   41.0013   13.4904   29.9099 C   0  0  0  0  0  0  0  0  0  0  0  0
   43.1086   16.7034   31.4645 O   0  0  0  0  0  0  0  0  0  0  0  0
   42.3744   17.7930   31.9739 C   0  0  0  0  0  0  0  0  0  0  0  0
   43.2576   16.1812   28.8116 O   0  0  0  0  0  0  0  0  0  0  0  0
   42.7577   17.2927   28.1084 C   0  0  0  0  0  0  0  0  0  0  0  0
   41.8403   14.0033   27.7035 O   0  0  0  0  0  0  0  0  0  0  0  0
   40.7988   14.2441   26.8078 C   0  0  0  0  0  0  0  0  0  0  0  0
   40.3900   11.6243   32.3209 O   0  0  0  0  0  0  0  0  0  0  0  0
   40.5469   10.7400   33.3509 C   0  0  0  0  0  0  0  0  0  0  0  0
   41.9077    9.9588   33.3304 C   0  0  0  0  0  0  0  0  0  0  0  0
   42.8782   10.9206   32.7276 C   0  0  0  0  0  0  0  0  0  0  0  0
   43.3976   11.9933   33.4335 C   0  0  0  0  0  0  0  0  0  0  0  0
   44.2947   12.8963   32.8507 C   0  0  0  0  0  0  0  0  0  0  0  0
   44.7032   12.7591   31.5451 C   0  0  0  0  0  0  0  0  0  0  0  0
   44.1972   11.7018   30.8348 C   0  0  0  0  0  0  0  0  0  0  0  0
   43.3054   10.8032   31.4116 C   0  0  0  0  0  0  0  0  0  0  0  0
   41.7769    8.8507   32.4624 N   0  0  0  0  0  0  0  0  0  0  0  0
   42.3823    7.6329   33.0522 C   0  0  0  0  0  0  0  0  0  0  0  0
   40.5232    8.4349   31.9632 C   0  0  0  0  0  0  0  0  0  0  0  0
   42.1393    9.7197   34.7754 C   0  0  0  0  0  0  0  0  0  0  0  0
   41.1860   10.1325   35.8046 C   0  0  0  0  0  0  0  0  0  0  0  0
  3  4  2  0  0  0
  3 13  1  0  0  0
  4  5  1  0  0  0
  4 11  1  0  0  0
  5  6  2  0  0  0
  5  9  1  0  0  0
  6  7  1  0  0  0
  7  8  2  0  0  0
  7  1  1  0  0  0
  8  3  1  0  0  0
 13 14  1  0  0  0
 11 12  1  0  0  0
  9 10  1  0  0  0
  1 15  1  0  0  0
  1  2  2  0  0  0
 15 16  1  0  0  0
 16 17  1  0  0  0
 17 18  1  0  0  0
 17 27  1  0  0  0
 17 24  1  0  0  0
 18 19  2  0  0  0
 27 28  1  0  0  0
 24 25  1  0  0  0
 24 26  1  0  0  0
 19 20  1  0  0  0
 20 21  2  0  0  0
 21 22  1  0  0  0
 22 23  2  0  0  0
 23 18  1  0  0  0
M  END
> <minimizedAffinity>
-5.91309

$$$$
Trimebutine.cdx


 28 29  0  0  0  0  0  0  0  0999 V2000
   40.1397   12.9484   32.1447 C   0  0  0  0  0  0  0  0  0  0  0  0
   39.2017   13.4978   32.7493 O   0  0  0  0  0  0  0  0  0  0  0  0
   42.3940   15.6964   30.8961 C   0  0  0  0  0  0  0  0  0  0  0  0
   42.4914   15.3816   29.5583 C   0  0  0  0  0  0  0  0  0  0  0  0
   41.8230   14.2694   29.0483 C   0  0  0  0  0  0  0  0  0  0  0  0
   41.0712   13.5058   29.9174 C   0  0  0  0  0  0  0  0  0  0  0  0
   40.9481   13.7868   31.2618 C   0  0  0  0  0  0  0  0  0  0  0  0
   41.6266   14.8974   31.7251 C   0  0  0  0  0  0  0  0  0  0  0  0
   41.9180   13.9481   27.7008 O   0  0  0  0  0  0  0  0  0  0  0  0
   40.7964   14.1849   26.8811 C   0  0  0  0  0  0  0  0  0  0  0  0
   43.2333   16.1173   28.6481 O   0  0  0  0  0  0  0  0  0  0  0  0
   42.7568   17.2806   28.0161 C   0  0  0  0  0  0  0  0  0  0  0  0
   43.0666   16.8064   31.3825 O   0  0  0  0  0  0  0  0  0  0  0  0
   42.4293   17.9191   31.9309 C   0  0  0  0  0  0  0  0  0  0  0  0
   40.4125   11.6570   32.2809 O   0  0  0  0  0  0  0  0  0  0  0  0
   40.5508   10.7457   33.2897 C   0  0  0  0  0  0  0  0  0  0  0  0
   41.9269    9.9914   33.2952 C   0  0  0  0  0  0  0  0  0  0  0  0
   42.8871   10.9676   32.6990 C   0  0  0  0  0  0  0  0  0  0  0  0
   43.3544   10.8519   31.4001 C   0  0  0  0  0  0  0  0  0  0  0  0
   44.2667   11.7656   30.8592 C   0  0  0  0  0  0  0  0  0  0  0  0
   44.7428   12.8244   31.5957 C   0  0  0  0  0  0  0  0  0  0  0  0
   44.2887   12.9511   32.8826 C   0  0  0  0  0  0  0  0  0  0  0  0
   43.3822   12.0443   33.4225 C   0  0  0  0  0  0  0  0  0  0  0  0
   41.8307    8.8743   32.4342 N   0  0  0  0  0  0  0  0  0  0  0  0
   42.3678    7.6523   33.0790 C   0  0  0  0  0  0  0  0  0  0  0  0
   40.6048    8.4782   31.8564 C   0  0  0  0  0  0  0  0  0  0  0  0
   42.1419    9.7680   34.7453 C   0  0  0  0  0  0  0  0  0  0  0  0
   41.1658   10.1700   35.7573 C   0  0  0  0  0  0  0  0  0  0  0  0
  3  4  2  0  0  0
  3 13  1  0  0  0
  4  5  1  0  0  0
  4 11  1  0  0  0
  5  6  2  0  0  0
  5  9  1  0  0  0
  6  7  1  0  0  0
  7  8  2  0  0  0
  7  1  1  0  0  0
  8  3  1  0  0  0
 13 14  1  0  0  0
 11 12  1  0  0  0
  9 10  1  0  0  0
  1 15  1  0  0  0
  1  2  2  0  0  0
 15 16  1  0  0  0
 16 17  1  0  0  0
 17 18  1  0  0  0
 17 27  1  0  0  0
 17 24  1  0  0  0
 18 19  2  0  0  0
 27 28  1  0  0  0
 24 25  1  0  0  0
 24 26  1  0  0  0
 19 20  1  0  0  0
 20 21  2  0  0  0
 21 22  1  0  0  0
 22 23  2  0  0  0
 23 18  1  0  0  0
M  END
> <minimizedAffinity>
-5.86713

$$$$
Trimebutine.cdx


 28 29  0  0  0  0  0  0  0  0999 V2000
   46.4219   12.4353   30.0694 C   0  0  0  0  0  0  0  0  0  0  0  0
   47.5246   12.5673   30.6298 O   0  0  0  0  0  0  0  0  0  0  0  0
   45.9506    9.2107   28.1795 C   0  0  0  0  0  0  0  0  0  0  0  0
   46.1803    9.6187   26.8837 C   0  0  0  0  0  0  0  0  0  0  0  0
   46.4915   10.9503   26.6116 C   0  0  0  0  0  0  0  0  0  0  0  0
   46.5605   11.8327   27.6701 C   0  0  0  0  0  0  0  0  0  0  0  0
   46.3377   11.4646   28.9802 C   0  0  0  0  0  0  0  0  0  0  0  0
   46.0323   10.1360   29.2048 C   0  0  0  0  0  0  0  0  0  0  0  0
   46.7238   11.3663   25.3075 O   0  0  0  0  0  0  0  0  0  0  0  0
   47.7099   12.3494   25.0900 C   0  0  0  0  0  0  0  0  0  0  0  0
   46.1224    8.7704   25.7895 O   0  0  0  0  0  0  0  0  0  0  0  0
   47.1913    7.9501   25.3841 C   0  0  0  0  0  0  0  0  0  0  0  0
   45.6426    7.8823   28.4278 O   0  0  0  0  0  0  0  0  0  0  0  0
   44.5692    7.4709   29.2174 C   0  0  0  0  0  0  0  0  0  0  0  0
   45.3543   13.1361   30.4293 O   0  0  0  0  0  0  0  0  0  0  0  0
   43.9951   12.9945   30.4297 C   0  0  0  0  0  0  0  0  0  0  0  0
   43.2972   13.4594   31.7561 C   0  0  0  0  0  0  0  0  0  0  0  0
   43.0178   12.1906   32.4924 C   0  0  0  0  0  0  0  0  0  0  0  0
   42.9868   10.9570   31.8629 C   0  0  0  0  0  0  0  0  0  0  0  0
   42.7079    9.7772   32.5630 C   0  0  0  0  0  0  0  0  0  0  0  0
   42.4508    9.7889   33.9136 C   0  0  0  0  0  0  0  0  0  0  0  0
   42.4783   11.0028   34.5493 C   0  0  0  0  0  0  0  0  0  0  0  0
   42.7549   12.1767   33.8558 C   0  0  0  0  0  0  0  0  0  0  0  0
   42.0641   14.0670   31.4261 N   0  0  0  0  0  0  0  0  0  0  0  0
   42.0514   14.5235   30.0158 C   0  0  0  0  0  0  0  0  0  0  0  0
   40.8305   13.4052   31.6108 C   0  0  0  0  0  0  0  0  0  0  0  0
   44.3605   14.2802   32.3840 C   0  0  0  0  0  0  0  0  0  0  0  0
   44.1159   15.6282   32.8957 C   0  0  0  0  0  0  0  0  0  0  0  0
  3  4  2  0  0  0
  3 13  1  0  0  0
  4  5  1  0  0  0
  4 11  1  0  0  0
  5  6  2  0  0  0
  5  9  1  0  0  0
  6  7  1  0  0  0
  7  8  2  0  0  0
  7  1  1  0  0  0
  8  3  1  0  0  0
 13 14  1  0  0  0
 11 12  1  0  0  0
  9 10  1  0  0  0
  1 15  1  0  0  0
  1  2  2  0  0  0
 15 16  1  0  0  0
 16 17  1  0  0  0
 17 18  1  0  0  0
 17 27  1  0  0  0
 17 24  1  0  0  0
 18 19  2  0  0  0
 27 28  1  0  0  0
 24 25  1  0  0  0
 24 26  1  0  0  0
 19 20  1  0  0  0
 20 21  2  0  0  0
 21 22  1  0  0  0
 22 23  2  0  0  0
 23 18  1  0  0  0
M  END
> <minimizedAffinity>
-5.79033

$$$$
Trimebutine.cdx


 28 29  0  0  0  0  0  0  0  0999 V2000
   46.4364   12.4157   30.0988 C   0  0  0  0  0  0  0  0  0  0  0  0
   47.5353   12.5418   30.6677 O   0  0  0  0  0  0  0  0  0  0  0  0
   46.4800   10.9398   26.6330 C   0  0  0  0  0  0  0  0  0  0  0  0
   46.2112    9.6147   26.8981 C   0  0  0  0  0  0  0  0  0  0  0  0
   46.0127    9.1876   28.2103 C   0  0  0  0  0  0  0  0  0  0  0  0
   46.0936   10.1246   29.2199 C   0  0  0  0  0  0  0  0  0  0  0  0
   46.3603   11.4589   28.9967 C   0  0  0  0  0  0  0  0  0  0  0  0
   46.5503   11.8391   27.6821 C   0  0  0  0  0  0  0  0  0  0  0  0
   45.7416    7.8533   28.4826 O   0  0  0  0  0  0  0  0  0  0  0  0
   44.5520    7.5450   29.1724 C   0  0  0  0  0  0  0  0  0  0  0  0
   46.1203    8.6384   25.9189 O   0  0  0  0  0  0  0  0  0  0  0  0
   47.2319    7.9424   25.4094 C   0  0  0  0  0  0  0  0  0  0  0  0
   46.6741   11.3432   25.3212 O   0  0  0  0  0  0  0  0  0  0  0  0
   47.5702   12.3427   24.9431 C   0  0  0  0  0  0  0  0  0  0  0  0
   45.3655   13.1104   30.4610 O   0  0  0  0  0  0  0  0  0  0  0  0
   44.0055   12.9921   30.3995 C   0  0  0  0  0  0  0  0  0  0  0  0
   43.2619   13.3867   31.7239 C   0  0  0  0  0  0  0  0  0  0  0  0
   42.9781   12.0818   32.3926 C   0  0  0  0  0  0  0  0  0  0  0  0
   42.7586   11.9775   33.7563 C   0  0  0  0  0  0  0  0  0  0  0  0
   42.5093   10.7453   34.3722 C   0  0  0  0  0  0  0  0  0  0  0  0
   42.4707    9.5770   33.6485 C   0  0  0  0  0  0  0  0  0  0  0  0
   42.6861    9.6655   32.2979 C   0  0  0  0  0  0  0  0  0  0  0  0
   42.9343   10.8888   31.6834 C   0  0  0  0  0  0  0  0  0  0  0  0
   42.0310   13.9936   31.3847 N   0  0  0  0  0  0  0  0  0  0  0  0
   41.8597   14.0739   29.9145 C   0  0  0  0  0  0  0  0  0  0  0  0
   40.7980   13.5096   31.8739 C   0  0  0  0  0  0  0  0  0  0  0  0
   44.2946   14.1907   32.4209 C   0  0  0  0  0  0  0  0  0  0  0  0
   44.0366   15.5402   32.9219 C   0  0  0  0  0  0  0  0  0  0  0  0
  3  4  2  0  0  0
  3 13  1  0  0  0
  4  5  1  0  0  0
  4 11  1  0  0  0
  5  6  2  0  0  0
  5  9  1  0  0  0
  6  7  1  0  0  0
  7  8  2  0  0  0
  7  1  1  0  0  0
  8  3  1  0  0  0
 13 14  1  0  0  0
 11 12  1  0  0  0
  9 10  1  0  0  0
  1 15  1  0  0  0
  1  2  2  0  0  0
 15 16  1  0  0  0
 16 17  1  0  0  0
 17 18  1  0  0  0
 17 27  1  0  0  0
 17 24  1  0  0  0
 18 19  2  0  0  0
 27 28  1  0  0  0
 24 25  1  0  0  0
 24 26  1  0  0  0
 19 20  1  0  0  0
 20 21  2  0  0  0
 21 22  1  0  0  0
 22 23  2  0  0  0
 23 18  1  0  0  0
M  END
> <minimizedAffinity>
-5.78204

$$$$
Trimebutine.cdx


 28 29  0  0  0  0  0  0  0  0999 V2000
   45.9249   13.3330   31.2923 C   0  0  0  0  0  0  0  0  0  0  0  0
   46.8038   13.7881   32.0457 O   0  0  0  0  0  0  0  0  0  0  0  0
   42.8307   12.7995   33.3741 C   0  0  0  0  0  0  0  0  0  0  0  0
   41.8944   13.5127   32.6576 C   0  0  0  0  0  0  0  0  0  0  0  0
   42.2618   14.1757   31.4875 C   0  0  0  0  0  0  0  0  0  0  0  0
   43.5767   14.0940   31.0776 C   0  0  0  0  0  0  0  0  0  0  0  0
   44.5433   13.3913   31.7655 C   0  0  0  0  0  0  0  0  0  0  0  0
   44.1364   12.7494   32.9192 C   0  0  0  0  0  0  0  0  0  0  0  0
   41.3219   14.8957   30.7621 O   0  0  0  0  0  0  0  0  0  0  0  0
   41.6295   15.2345   29.4292 C   0  0  0  0  0  0  0  0  0  0  0  0
   40.5641   13.6235   33.0292 O   0  0  0  0  0  0  0  0  0  0  0  0
   39.5681   12.7109   32.6354 C   0  0  0  0  0  0  0  0  0  0  0  0
   42.4443   12.1477   34.5347 O   0  0  0  0  0  0  0  0  0  0  0  0
   42.3162   10.7629   34.6390 C   0  0  0  0  0  0  0  0  0  0  0  0
   46.2073   12.8121   30.1051 O   0  0  0  0  0  0  0  0  0  0  0  0
   46.1738   11.5900   29.4946 C   0  0  0  0  0  0  0  0  0  0  0  0
   45.0358   11.4326   28.4256 C   0  0  0  0  0  0  0  0  0  0  0  0
   43.8442   10.9980   29.2138 C   0  0  0  0  0  0  0  0  0  0  0  0
   42.5614   11.4320   28.9224 C   0  0  0  0  0  0  0  0  0  0  0  0
   41.4552   11.0288   29.6798 C   0  0  0  0  0  0  0  0  0  0  0  0
   41.5921   10.1797   30.7524 C   0  0  0  0  0  0  0  0  0  0  0  0
   42.8559    9.7423   31.0521 C   0  0  0  0  0  0  0  0  0  0  0  0
   43.9568   10.1417   30.3011 C   0  0  0  0  0  0  0  0  0  0  0  0
   45.3921   10.3898   27.5400 N   0  0  0  0  0  0  0  0  0  0  0  0
   46.5109    9.5833   28.0834 C   0  0  0  0  0  0  0  0  0  0  0  0
   44.4489    9.4470   27.0760 C   0  0  0  0  0  0  0  0  0  0  0  0
   44.9208   12.8153   27.9025 C   0  0  0  0  0  0  0  0  0  0  0  0
   45.3895   13.1948   26.5702 C   0  0  0  0  0  0  0  0  0  0  0  0
  3  4  2  0  0  0
  3 13  1  0  0  0
  4  5  1  0  0  0
  4 11  1  0  0  0
  5  6  2  0  0  0
  5  9  1  0  0  0
  6  7  1  0  0  0
  7  8  2  0  0  0
  7  1  1  0  0  0
  8  3  1  0  0  0
 13 14  1  0  0  0
 11 12  1  0  0  0
  9 10  1  0  0  0
  1 15  1  0  0  0
  1  2  2  0  0  0
 15 16  1  0  0  0
 16 17  1  0  0  0
 17 18  1  0  0  0
 17 27  1  0  0  0
 17 24  1  0  0  0
 18 19  2  0  0  0
 27 28  1  0  0  0
 24 25  1  0  0  0
 24 26  1  0  0  0
 19 20  1  0  0  0
 20 21  2  0  0  0
 21 22  1  0  0  0
 22 23  2  0  0  0
 23 18  1  0  0  0
M  END
> <minimizedAffinity>
-5.55788

$$$$
