UCB-9260


 33 37  0  0  0  0  0  0  0  0999 V2000
   44.0108   13.5011   30.8690 N   0  0  0  0  0  0  0  0  0  0  0  0
   43.0206   15.0038   29.5871 N   0  0  0  0  0  0  0  0  0  0  0  0
   44.3074   13.2598   29.5657 C   0  0  0  0  0  0  0  0  0  0  0  0
   43.1941   14.6104   30.8418 C   0  0  0  0  0  0  0  0  0  0  0  0
   43.6813   14.2108   28.7625 C   0  0  0  0  0  0  0  0  0  0  0  0
   45.0386   12.3130   28.8813 C   0  0  0  0  0  0  0  0  0  0  0  0
   45.1487   12.3024   27.5250 C   0  0  0  0  0  0  0  0  0  0  0  0
   43.7838   14.2127   27.3953 C   0  0  0  0  0  0  0  0  0  0  0  0
   44.5207   13.2582   26.7432 C   0  0  0  0  0  0  0  0  0  0  0  0
   46.7865    9.3282   26.2759 N   0  0  0  0  0  0  0  0  0  0  0  0
   47.3089   10.2635   25.4790 N   0  0  0  0  0  0  0  0  0  0  0  0
   45.9325   11.2913   26.8417 C   0  0  0  0  0  0  0  0  0  0  0  0
   45.9379    9.9204   27.1247 C   0  0  0  0  0  0  0  0  0  0  0  0
   46.8102   11.4712   25.7964 C   0  0  0  0  0  0  0  0  0  0  0  0
   47.1192    7.9138   26.1915 C   0  0  0  0  0  0  0  0  0  0  0  0
   41.1765   15.2866   31.8775 O   0  0  0  0  0  0  0  0  0  0  0  0
   42.5935   15.2398   32.0382 C   0  0  0  0  0  0  0  0  0  0  0  0
   40.9614   15.9439   31.1966 H   0  0  0  0  0  0  0  0  0  0  0  0
   44.0983   19.1584   32.8282 N   0  0  0  0  0  0  0  0  0  0  0  0
   43.0025   16.6203   32.2893 C   0  0  0  0  0  0  0  0  0  0  0  0
   44.3172   16.7953   32.7642 C   0  0  0  0  0  0  0  0  0  0  0  0
   42.2868   17.7647   32.1041 C   0  0  0  0  0  0  0  0  0  0  0  0
   44.8433   18.0373   33.0243 C   0  0  0  0  0  0  0  0  0  0  0  0
   42.8368   19.0274   32.3743 C   0  0  0  0  0  0  0  0  0  0  0  0
   44.4929   12.7886   32.0316 C   0  0  0  0  0  0  0  0  0  0  0  0
   43.6472   11.7434   32.5831 C   0  0  0  0  0  0  0  0  0  0  0  0
   43.0362   11.6921   33.8025 C   0  0  0  0  0  0  0  0  0  0  0  0
   43.4107   10.6232   31.7570 C   0  0  0  0  0  0  0  0  0  0  0  0
   42.6312    9.5692   32.1443 C   0  0  0  0  0  0  0  0  0  0  0  0
   42.2346   10.6128   34.2051 C   0  0  0  0  0  0  0  0  0  0  0  0
   43.2160   12.7715   34.7714 C   0  0  0  0  0  0  0  0  0  0  0  0
   42.0254    9.5326   33.3683 C   0  0  0  0  0  0  0  0  0  0  0  0
   42.4247    8.4107   31.2089 C   0  0  0  0  0  0  0  0  0  0  0  0
 16 17  1  0  0  0
  1  3  1  0  0  0
  1 25  1  0  0  0
  1  4  1  0  0  0
  2  4  2  0  0  0
  2  5  2  0  0  0
 10 11  1  0  0  0
 10 13  1  0  0  0
 10 15  1  0  0  0
 11 14  2  0  0  0
 19 23  2  0  0  0
 19 24  2  0  0  0
  3  5  2  0  0  0
  3  6  1  0  0  0
 25 26  1  0  0  0
  4 17  1  0  0  0
  5  8  1  0  0  0
 17 20  1  0  0  0
 26 27  2  0  0  0
 26 28  1  0  0  0
  6  7  2  0  0  0
  7  9  1  0  0  0
  7 12  1  0  0  0
  8  9  2  0  0  0
 27 30  1  0  0  0
 27 31  1  0  0  0
 20 21  2  0  0  0
 20 22  1  0  0  0
 28 29  2  0  0  0
 12 13  2  0  0  0
 12 14  1  0  0  0
 29 32  1  0  0  0
 29 33  1  0  0  0
 30 32  2  0  0  0
 21 23  1  0  0  0
 22 24  2  0  0  0
 16 18  1  0  0  0
M  END
> <minimizedAffinity>
-9.29302

$$$$
UCB-9260


 33 37  0  0  0  0  0  0  0  0999 V2000
   43.4540   12.8375   31.7104 N   0  0  0  0  0  0  0  0  0  0  0  0
   45.2803   14.0562   31.9575 N   0  0  0  0  0  0  0  0  0  0  0  0
   44.4662   12.3009   30.9809 C   0  0  0  0  0  0  0  0  0  0  0  0
   44.0070   13.9465   32.3124 C   0  0  0  0  0  0  0  0  0  0  0  0
   45.6151   13.0728   31.1414 C   0  0  0  0  0  0  0  0  0  0  0  0
   44.6052   11.2230   30.1333 C   0  0  0  0  0  0  0  0  0  0  0  0
   45.7726   10.9262   29.5001 C   0  0  0  0  0  0  0  0  0  0  0  0
   46.7979   12.7855   30.5104 C   0  0  0  0  0  0  0  0  0  0  0  0
   46.9054   11.7044   29.6743 C   0  0  0  0  0  0  0  0  0  0  0  0
   46.5054    8.4736   26.9435 N   0  0  0  0  0  0  0  0  0  0  0  0
   45.6284    7.8058   27.6969 N   0  0  0  0  0  0  0  0  0  0  0  0
   45.8800    9.7790   28.6192 C   0  0  0  0  0  0  0  0  0  0  0  0
   46.6850    9.6876   27.4776 C   0  0  0  0  0  0  0  0  0  0  0  0
   45.2270    8.5718   28.7265 C   0  0  0  0  0  0  0  0  0  0  0  0
   47.1323    7.9244   25.7504 C   0  0  0  0  0  0  0  0  0  0  0  0
   41.8698   14.6805   33.0155 O   0  0  0  0  0  0  0  0  0  0  0  0
   43.2715   14.8746   33.1989 C   0  0  0  0  0  0  0  0  0  0  0  0
   41.6192   15.0228   32.1427 H   0  0  0  0  0  0  0  0  0  0  0  0
   43.6315   19.0475   32.3613 N   0  0  0  0  0  0  0  0  0  0  0  0
   43.5039   16.2953   32.9465 C   0  0  0  0  0  0  0  0  0  0  0  0
   42.4538   16.9867   32.3112 C   0  0  0  0  0  0  0  0  0  0  0  0
   44.5953   17.0464   33.2642 C   0  0  0  0  0  0  0  0  0  0  0  0
   42.5247   18.3293   32.0297 C   0  0  0  0  0  0  0  0  0  0  0  0
   44.6546   18.4176   32.9704 C   0  0  0  0  0  0  0  0  0  0  0  0
   42.1107   12.3254   31.8683 C   0  0  0  0  0  0  0  0  0  0  0  0
   41.9257   11.1636   32.7215 C   0  0  0  0  0  0  0  0  0  0  0  0
   41.4489    9.9278   32.3921 C   0  0  0  0  0  0  0  0  0  0  0  0
   42.2879   11.3140   34.0776 C   0  0  0  0  0  0  0  0  0  0  0  0
   42.1724   10.3038   34.9912 C   0  0  0  0  0  0  0  0  0  0  0  0
   41.3285    8.8870   33.3257 C   0  0  0  0  0  0  0  0  0  0  0  0
   41.0100    9.6384   31.0284 C   0  0  0  0  0  0  0  0  0  0  0  0
   41.6938    9.0716   34.6460 C   0  0  0  0  0  0  0  0  0  0  0  0
   42.5791   10.5390   36.4191 C   0  0  0  0  0  0  0  0  0  0  0  0
 16 17  1  0  0  0
  1  3  1  0  0  0
  1 25  1  0  0  0
  1  4  1  0  0  0
  2  4  2  0  0  0
  2  5  2  0  0  0
 10 11  1  0  0  0
 10 13  1  0  0  0
 10 15  1  0  0  0
 11 14  2  0  0  0
 19 23  2  0  0  0
 19 24  2  0  0  0
  3  5  2  0  0  0
  3  6  1  0  0  0
 25 26  1  0  0  0
  4 17  1  0  0  0
  5  8  1  0  0  0
 17 20  1  0  0  0
 26 27  2  0  0  0
 26 28  1  0  0  0
  6  7  2  0  0  0
  7  9  1  0  0  0
  7 12  1  0  0  0
  8  9  2  0  0  0
 27 30  1  0  0  0
 27 31  1  0  0  0
 20 21  2  0  0  0
 20 22  1  0  0  0
 28 29  2  0  0  0
 12 13  2  0  0  0
 12 14  1  0  0  0
 29 32  1  0  0  0
 29 33  1  0  0  0
 30 32  2  0  0  0
 21 23  1  0  0  0
 22 24  2  0  0  0
 16 18  1  0  0  0
M  END
> <minimizedAffinity>
-8.73673

$$$$
UCB-9260


 33 37  0  0  0  0  0  0  0  0999 V2000
   45.0871   12.7251   27.0069 N   0  0  0  0  0  0  0  0  0  0  0  0
   46.1079   13.5015   25.2077 N   0  0  0  0  0  0  0  0  0  0  0  0
   44.5327   13.9094   26.6396 C   0  0  0  0  0  0  0  0  0  0  0  0
   46.0803   12.5015   26.0787 C   0  0  0  0  0  0  0  0  0  0  0  0
   45.1796   14.3934   25.5042 C   0  0  0  0  0  0  0  0  0  0  0  0
   43.5313   14.7212   27.1271 C   0  0  0  0  0  0  0  0  0  0  0  0
   43.1916   15.9049   26.5482 C   0  0  0  0  0  0  0  0  0  0  0  0
   44.8477   15.5836   24.9102 C   0  0  0  0  0  0  0  0  0  0  0  0
   43.8449   16.3684   25.4179 C   0  0  0  0  0  0  0  0  0  0  0  0
   40.5384   18.2626   27.2482 N   0  0  0  0  0  0  0  0  0  0  0  0
   40.6261   17.6200   28.4153 N   0  0  0  0  0  0  0  0  0  0  0  0
   42.1275   16.7288   27.0889 C   0  0  0  0  0  0  0  0  0  0  0  0
   41.4434   17.7439   26.4098 C   0  0  0  0  0  0  0  0  0  0  0  0
   41.5845   16.6789   28.3530 C   0  0  0  0  0  0  0  0  0  0  0  0
   39.5962   19.3404   26.9855 C   0  0  0  0  0  0  0  0  0  0  0  0
   48.0831   11.5878   25.2101 O   0  0  0  0  0  0  0  0  0  0  0  0
   46.9832   11.3297   26.0815 C   0  0  0  0  0  0  0  0  0  0  0  0
   47.7650   11.5723   24.2934 H   0  0  0  0  0  0  0  0  0  0  0  0
   45.4578    7.5239   24.8843 N   0  0  0  0  0  0  0  0  0  0  0  0
   46.3902   10.0832   25.6011 C   0  0  0  0  0  0  0  0  0  0  0  0
   47.0064    8.8975   26.0470 C   0  0  0  0  0  0  0  0  0  0  0  0
   45.3049    9.9150   24.7949 C   0  0  0  0  0  0  0  0  0  0  0  0
   46.5446    7.6533   25.6923 C   0  0  0  0  0  0  0  0  0  0  0  0
   44.8439    8.6376   24.4400 C   0  0  0  0  0  0  0  0  0  0  0  0
   44.6854   11.8612   28.0950 C   0  0  0  0  0  0  0  0  0  0  0  0
   44.7776   12.3880   29.4462 C   0  0  0  0  0  0  0  0  0  0  0  0
   43.7708   12.6931   30.3158 C   0  0  0  0  0  0  0  0  0  0  0  0
   46.0781   12.6169   29.9456 C   0  0  0  0  0  0  0  0  0  0  0  0
   46.3140   13.1046   31.2006 C   0  0  0  0  0  0  0  0  0  0  0  0
   44.0071   13.1938   31.6054 C   0  0  0  0  0  0  0  0  0  0  0  0
   42.3725   12.5318   29.9220 C   0  0  0  0  0  0  0  0  0  0  0  0
   45.2953   13.4049   32.0601 C   0  0  0  0  0  0  0  0  0  0  0  0
   47.7277   13.3221   31.6630 C   0  0  0  0  0  0  0  0  0  0  0  0
 16 17  1  0  0  0
  1  3  1  0  0  0
  1 25  1  0  0  0
  1  4  1  0  0  0
  2  4  2  0  0  0
  2  5  2  0  0  0
 10 11  1  0  0  0
 10 13  1  0  0  0
 10 15  1  0  0  0
 11 14  2  0  0  0
 19 23  2  0  0  0
 19 24  2  0  0  0
  3  5  2  0  0  0
  3  6  1  0  0  0
 25 26  1  0  0  0
  4 17  1  0  0  0
  5  8  1  0  0  0
 17 20  1  0  0  0
 26 27  2  0  0  0
 26 28  1  0  0  0
  6  7  2  0  0  0
  7  9  1  0  0  0
  7 12  1  0  0  0
  8  9  2  0  0  0
 27 30  1  0  0  0
 27 31  1  0  0  0
 20 21  2  0  0  0
 20 22  1  0  0  0
 28 29  2  0  0  0
 12 13  2  0  0  0
 12 14  1  0  0  0
 29 32  1  0  0  0
 29 33  1  0  0  0
 30 32  2  0  0  0
 21 23  1  0  0  0
 22 24  2  0  0  0
 16 18  1  0  0  0
M  END
> <minimizedAffinity>
-8.25371

$$$$
UCB-9260


 33 37  0  0  0  0  0  0  0  0999 V2000
   44.7327   11.8922   27.6356 N   0  0  0  0  0  0  0  0  0  0  0  0
   46.1956   11.4394   26.0430 N   0  0  0  0  0  0  0  0  0  0  0  0
   44.8388   12.9533   26.7944 C   0  0  0  0  0  0  0  0  0  0  0  0
   45.6067   10.9556   27.1285 C   0  0  0  0  0  0  0  0  0  0  0  0
   45.7616   12.6616   25.7920 C   0  0  0  0  0  0  0  0  0  0  0  0
   44.2816   14.2118   26.7217 C   0  0  0  0  0  0  0  0  0  0  0  0
   44.6001   15.1061   25.7467 C   0  0  0  0  0  0  0  0  0  0  0  0
   46.0918   13.5523   24.8034 C   0  0  0  0  0  0  0  0  0  0  0  0
   45.5184   14.7967   24.7567 C   0  0  0  0  0  0  0  0  0  0  0  0
   42.6745   18.1385   26.1771 N   0  0  0  0  0  0  0  0  0  0  0  0
   43.4757   18.4837   25.1664 N   0  0  0  0  0  0  0  0  0  0  0  0
   43.9873   16.4199   25.7016 C   0  0  0  0  0  0  0  0  0  0  0  0
   42.9588   16.8798   26.5323 C   0  0  0  0  0  0  0  0  0  0  0  0
   44.2884   17.4598   24.8513 C   0  0  0  0  0  0  0  0  0  0  0  0
   41.6760   19.0236   26.7582 C   0  0  0  0  0  0  0  0  0  0  0  0
   47.0364    9.6887   28.5255 O   0  0  0  0  0  0  0  0  0  0  0  0
   45.8540    9.6267   27.7292 C   0  0  0  0  0  0  0  0  0  0  0  0
   47.8042    9.7704   27.9377 H   0  0  0  0  0  0  0  0  0  0  0  0
   46.1927    6.4141   24.9349 N   0  0  0  0  0  0  0  0  0  0  0  0
   46.0835    8.5432   26.7756 C   0  0  0  0  0  0  0  0  0  0  0  0
   44.9525    7.7769   26.4318 C   0  0  0  0  0  0  0  0  0  0  0  0
   47.2443    8.1886   26.1569 C   0  0  0  0  0  0  0  0  0  0  0  0
   45.0151    6.7402   25.5329 C   0  0  0  0  0  0  0  0  0  0  0  0
   47.2942    7.1267   25.2405 C   0  0  0  0  0  0  0  0  0  0  0  0
   43.8538   11.7528   28.7757 C   0  0  0  0  0  0  0  0  0  0  0  0
   44.2312   12.4263   30.0069 C   0  0  0  0  0  0  0  0  0  0  0  0
   43.4263   12.9367   30.9839 C   0  0  0  0  0  0  0  0  0  0  0  0
   45.6147   12.5778   30.2433 C   0  0  0  0  0  0  0  0  0  0  0  0
   46.1124   13.1862   31.3616 C   0  0  0  0  0  0  0  0  0  0  0  0
   43.9317   13.5620   32.1342 C   0  0  0  0  0  0  0  0  0  0  0  0
   41.9715   12.8747   30.8579 C   0  0  0  0  0  0  0  0  0  0  0  0
   45.2937   13.6918   32.3315 C   0  0  0  0  0  0  0  0  0  0  0  0
   47.5994   13.3103   31.5443 C   0  0  0  0  0  0  0  0  0  0  0  0
 16 17  1  0  0  0
  1  3  1  0  0  0
  1 25  1  0  0  0
  1  4  1  0  0  0
  2  4  2  0  0  0
  2  5  2  0  0  0
 10 11  1  0  0  0
 10 13  1  0  0  0
 10 15  1  0  0  0
 11 14  2  0  0  0
 19 23  2  0  0  0
 19 24  2  0  0  0
  3  5  2  0  0  0
  3  6  1  0  0  0
 25 26  1  0  0  0
  4 17  1  0  0  0
  5  8  1  0  0  0
 17 20  1  0  0  0
 26 27  2  0  0  0
 26 28  1  0  0  0
  6  7  2  0  0  0
  7  9  1  0  0  0
  7 12  1  0  0  0
  8  9  2  0  0  0
 27 30  1  0  0  0
 27 31  1  0  0  0
 20 21  2  0  0  0
 20 22  1  0  0  0
 28 29  2  0  0  0
 12 13  2  0  0  0
 12 14  1  0  0  0
 29 32  1  0  0  0
 29 33  1  0  0  0
 30 32  2  0  0  0
 21 23  1  0  0  0
 22 24  2  0  0  0
 16 18  1  0  0  0
M  END
> <minimizedAffinity>
-8.18398

$$$$
UCB-9260


 33 37  0  0  0  0  0  0  0  0999 V2000
   43.0059   12.7343   32.3394 N   0  0  0  0  0  0  0  0  0  0  0  0
   44.8415   13.9031   31.9568 N   0  0  0  0  0  0  0  0  0  0  0  0
   43.7639   12.1056   31.4040 C   0  0  0  0  0  0  0  0  0  0  0  0
   43.7195   13.8674   32.6633 C   0  0  0  0  0  0  0  0  0  0  0  0
   44.9202   12.8465   31.1678 C   0  0  0  0  0  0  0  0  0  0  0  0
   43.6448   10.9593   30.6481 C   0  0  0  0  0  0  0  0  0  0  0  0
   44.5817   10.5716   29.7406 C   0  0  0  0  0  0  0  0  0  0  0  0
   45.8726   12.4679   30.2572 C   0  0  0  0  0  0  0  0  0  0  0  0
   45.7264   11.3204   29.5213 C   0  0  0  0  0  0  0  0  0  0  0  0
   44.6006    7.8692   27.3354 N   0  0  0  0  0  0  0  0  0  0  0  0
   43.8371    7.3499   28.2999 N   0  0  0  0  0  0  0  0  0  0  0  0
   44.4221    9.3547   28.9677 C   0  0  0  0  0  0  0  0  0  0  0  0
   44.9782    9.0976   27.7090 C   0  0  0  0  0  0  0  0  0  0  0  0
   43.7078    8.2286   29.3094 C   0  0  0  0  0  0  0  0  0  0  0  0
   44.9357    7.1710   26.1031 C   0  0  0  0  0  0  0  0  0  0  0  0
   41.9189   14.6313   33.9957 O   0  0  0  0  0  0  0  0  0  0  0  0
   43.2758   14.8888   33.6370 C   0  0  0  0  0  0  0  0  0  0  0  0
   41.3507   14.8412   33.2375 H   0  0  0  0  0  0  0  0  0  0  0  0
   43.6518   18.9302   32.3068 N   0  0  0  0  0  0  0  0  0  0  0  0
   43.2946   16.2665   33.1493 C   0  0  0  0  0  0  0  0  0  0  0  0
   44.4650   17.0002   33.4250 C   0  0  0  0  0  0  0  0  0  0  0  0
   42.3370   16.9300   32.4428 C   0  0  0  0  0  0  0  0  0  0  0  0
   44.6306   18.2992   33.0100 C   0  0  0  0  0  0  0  0  0  0  0  0
   42.5192   18.2576   32.0253 C   0  0  0  0  0  0  0  0  0  0  0  0
   41.7563   12.2846   32.9121 C   0  0  0  0  0  0  0  0  0  0  0  0
   41.7338   10.9755   33.5427 C   0  0  0  0  0  0  0  0  0  0  0  0
   42.1876   10.6132   34.7779 C   0  0  0  0  0  0  0  0  0  0  0  0
   41.1641    9.9245   32.7918 C   0  0  0  0  0  0  0  0  0  0  0  0
   41.0719    8.6442   33.2619 C   0  0  0  0  0  0  0  0  0  0  0  0
   42.0952    9.3006   35.2658 C   0  0  0  0  0  0  0  0  0  0  0  0
   42.8262   11.5938   35.6535 C   0  0  0  0  0  0  0  0  0  0  0  0
   41.5302    8.2970   34.5012 C   0  0  0  0  0  0  0  0  0  0  0  0
   40.4514    7.5772   32.4038 C   0  0  0  0  0  0  0  0  0  0  0  0
 16 17  1  0  0  0
  1  3  1  0  0  0
  1 25  1  0  0  0
  1  4  1  0  0  0
  2  4  2  0  0  0
  2  5  2  0  0  0
 10 11  1  0  0  0
 10 13  1  0  0  0
 10 15  1  0  0  0
 11 14  2  0  0  0
 19 23  2  0  0  0
 19 24  2  0  0  0
  3  5  2  0  0  0
  3  6  1  0  0  0
 25 26  1  0  0  0
  4 17  1  0  0  0
  5  8  1  0  0  0
 17 20  1  0  0  0
 26 27  2  0  0  0
 26 28  1  0  0  0
  6  7  2  0  0  0
  7  9  1  0  0  0
  7 12  1  0  0  0
  8  9  2  0  0  0
 27 30  1  0  0  0
 27 31  1  0  0  0
 20 21  2  0  0  0
 20 22  1  0  0  0
 28 29  2  0  0  0
 12 13  2  0  0  0
 12 14  1  0  0  0
 29 32  1  0  0  0
 29 33  1  0  0  0
 30 32  2  0  0  0
 21 23  1  0  0  0
 22 24  2  0  0  0
 16 18  1  0  0  0
M  END
> <minimizedAffinity>
-8.17852

$$$$
