untitled.cdx


 26 28  0  0  0  0  0  0  0  0999 V2000
   44.0735   13.4001   31.0182 N   0  0  0  0  0  0  0  0  0  0  0  0
   45.3245   12.8493   30.6781 C   0  0  0  0  0  0  0  0  0  0  0  0
   46.3659   13.2004   31.2780 O   0  0  0  0  0  0  0  0  0  0  0  0
   43.2491   13.0440   30.4582 H   0  0  0  0  0  0  0  0  0  0  0  0
   43.1497   16.1561   34.1028 C   0  0  0  0  0  0  0  0  0  0  0  0
   44.0049   16.5256   33.0907 C   0  0  0  0  0  0  0  0  0  0  0  0
   44.3185   15.6302   32.0690 C   0  0  0  0  0  0  0  0  0  0  0  0
   43.8089   14.3584   32.0082 C   0  0  0  0  0  0  0  0  0  0  0  0
   42.9421   14.0077   33.0491 C   0  0  0  0  0  0  0  0  0  0  0  0
   42.6248   14.8826   34.0634 C   0  0  0  0  0  0  0  0  0  0  0  0
   44.5965   17.8567   33.0694 C   0  0  0  0  0  0  0  0  0  0  0  0
   43.8428   18.9339   32.7109 N   0  0  0  0  0  0  0  0  0  0  0  0
   44.3468   20.1805   32.6771 C   0  0  0  0  0  0  0  0  0  0  0  0
   45.6594   20.4672   33.0005 C   0  0  0  0  0  0  0  0  0  0  0  0
   46.4505   19.3975   33.3682 C   0  0  0  0  0  0  0  0  0  0  0  0
   45.8992   18.1109   33.3946 C   0  0  0  0  0  0  0  0  0  0  0  0
   45.5010   11.8427   29.6171 C   0  0  0  0  0  0  0  0  0  0  0  0
   44.9717   10.5806   29.6901 C   0  0  0  0  0  0  0  0  0  0  0  0
   45.1540    9.6452   28.6699 C   0  0  0  0  0  0  0  0  0  0  0  0
   45.8764    9.9657   27.5519 C   0  0  0  0  0  0  0  0  0  0  0  0
   46.4189   11.2274   27.4537 C   0  0  0  0  0  0  0  0  0  0  0  0
   46.2301   12.1389   28.4689 C   0  0  0  0  0  0  0  0  0  0  0  0
   46.1322    8.8231   26.2439 S   0  0  0  0  0  0  0  0  0  0  0  0
   44.9318    9.1154   24.9548 C   0  0  0  0  0  0  0  0  0  0  0  0
   45.9047    7.4063   26.7272 O   0  0  0  0  0  0  0  0  0  0  0  0
   47.4924    8.9448   25.6637 O   0  0  0  0  0  0  0  0  0  0  0  0
  5  6  2  0  0  0
  6  7  1  0  0  0
  6 11  1  0  0  0
  7  8  2  0  0  0
  8  9  1  0  0  0
  8  1  1  0  0  0
  9 10  2  0  0  0
 10  5  1  0  0  0
 11 12  2  0  0  0
 12 13  2  0  0  0
 13 14  2  0  0  0
 14 15  1  0  0  0
 15 16  2  0  0  0
 16 11  1  0  0  0
  1  2  1  0  0  0
  2 17  1  0  0  0
  2  3  2  0  0  0
 17 18  2  0  0  0
 18 19  1  0  0  0
 19 20  2  0  0  0
 20 21  1  0  0  0
 20 23  1  0  0  0
 21 22  2  0  0  0
 22 17  1  0  0  0
 23 24  1  0  0  0
 23 25  2  0  0  0
 23 26  2  0  0  0
  1  4  1  0  0  0
M  END
> <minimizedAffinity>
-8.58978

$$$$
untitled.cdx


 26 28  0  0  0  0  0  0  0  0999 V2000
   42.1980   13.6808   32.2877 N   0  0  0  0  0  0  0  0  0  0  0  0
   43.0954   12.6500   32.6285 C   0  0  0  0  0  0  0  0  0  0  0  0
   44.3286   12.7909   32.4642 O   0  0  0  0  0  0  0  0  0  0  0  0
   41.1749   13.4729   32.4611 H   0  0  0  0  0  0  0  0  0  0  0  0
   43.0348   17.4295   30.4958 C   0  0  0  0  0  0  0  0  0  0  0  0
   43.5727   17.1250   31.7247 C   0  0  0  0  0  0  0  0  0  0  0  0
   43.3067   15.8959   32.3270 C   0  0  0  0  0  0  0  0  0  0  0  0
   42.5137   14.9376   31.7496 C   0  0  0  0  0  0  0  0  0  0  0  0
   41.9792   15.2721   30.5006 C   0  0  0  0  0  0  0  0  0  0  0  0
   42.2343   16.4820   29.8956 C   0  0  0  0  0  0  0  0  0  0  0  0
   44.4280   18.0800   32.4165 C   0  0  0  0  0  0  0  0  0  0  0  0
   44.0341   19.3774   32.5519 N   0  0  0  0  0  0  0  0  0  0  0  0
   44.7910   20.2931   33.1825 C   0  0  0  0  0  0  0  0  0  0  0  0
   46.0199   19.9943   33.7396 C   0  0  0  0  0  0  0  0  0  0  0  0
   46.4488   18.6877   33.6198 C   0  0  0  0  0  0  0  0  0  0  0  0
   45.6400   17.7560   32.9583 C   0  0  0  0  0  0  0  0  0  0  0  0
   42.6643   11.3585   33.1907 C   0  0  0  0  0  0  0  0  0  0  0  0
   42.7165   10.1834   32.4871 C   0  0  0  0  0  0  0  0  0  0  0  0
   42.3014    8.9724   33.0439 C   0  0  0  0  0  0  0  0  0  0  0  0
   41.8237    8.9225   34.3260 C   0  0  0  0  0  0  0  0  0  0  0  0
   41.7609   10.0892   35.0547 C   0  0  0  0  0  0  0  0  0  0  0  0
   42.1742   11.2760   34.4910 C   0  0  0  0  0  0  0  0  0  0  0  0
   41.2905    7.4236   35.0680 S   0  0  0  0  0  0  0  0  0  0  0  0
   40.4674    6.4145   33.8464 C   0  0  0  0  0  0  0  0  0  0  0  0
   40.2694    7.7032   36.1506 O   0  0  0  0  0  0  0  0  0  0  0  0
   42.4261    6.6540   35.6337 O   0  0  0  0  0  0  0  0  0  0  0  0
  5  6  2  0  0  0
  6  7  1  0  0  0
  6 11  1  0  0  0
  7  8  2  0  0  0
  8  9  1  0  0  0
  8  1  1  0  0  0
  9 10  2  0  0  0
 10  5  1  0  0  0
 11 12  2  0  0  0
 12 13  2  0  0  0
 13 14  2  0  0  0
 14 15  1  0  0  0
 15 16  2  0  0  0
 16 11  1  0  0  0
  1  2  1  0  0  0
  2 17  1  0  0  0
  2  3  2  0  0  0
 17 18  2  0  0  0
 18 19  1  0  0  0
 19 20  2  0  0  0
 20 21  1  0  0  0
 20 23  1  0  0  0
 21 22  2  0  0  0
 22 17  1  0  0  0
 23 24  1  0  0  0
 23 25  2  0  0  0
 23 26  2  0  0  0
  1  4  1  0  0  0
M  END
> <minimizedAffinity>
-8.57236

$$$$
untitled.cdx


 26 28  0  0  0  0  0  0  0  0999 V2000
   43.9203   12.5202   28.9678 N   0  0  0  0  0  0  0  0  0  0  0  0
   44.4659   12.5805   30.2650 C   0  0  0  0  0  0  0  0  0  0  0  0
   45.5424   13.1821   30.4822 O   0  0  0  0  0  0  0  0  0  0  0  0
   43.0082   11.9909   28.8791 H   0  0  0  0  0  0  0  0  0  0  0  0
   45.6597   14.0527   25.4196 C   0  0  0  0  0  0  0  0  0  0  0  0
   44.6267   14.7324   26.0223 C   0  0  0  0  0  0  0  0  0  0  0  0
   44.0443   14.2410   27.1899 C   0  0  0  0  0  0  0  0  0  0  0  0
   44.4519   13.0805   27.7964 C   0  0  0  0  0  0  0  0  0  0  0  0
   45.5035   12.4087   27.1637 C   0  0  0  0  0  0  0  0  0  0  0  0
   46.0868   12.8835   26.0107 C   0  0  0  0  0  0  0  0  0  0  0  0
   44.1247   15.9752   25.4517 C   0  0  0  0  0  0  0  0  0  0  0  0
   42.8390   16.3630   25.6825 N   0  0  0  0  0  0  0  0  0  0  0  0
   42.3331   17.5018   25.1763 C   0  0  0  0  0  0  0  0  0  0  0  0
   43.0708   18.3638   24.3872 C   0  0  0  0  0  0  0  0  0  0  0  0
   44.3780   18.0000   24.1339 C   0  0  0  0  0  0  0  0  0  0  0  0
   44.8779   16.8091   24.6740 C   0  0  0  0  0  0  0  0  0  0  0  0
   43.8291   11.9567   31.4376 C   0  0  0  0  0  0  0  0  0  0  0  0
   43.2820   10.7003   31.4097 C   0  0  0  0  0  0  0  0  0  0  0  0
   42.6840   10.1321   32.5361 C   0  0  0  0  0  0  0  0  0  0  0  0
   42.6259   10.8224   33.7169 C   0  0  0  0  0  0  0  0  0  0  0  0
   43.1683   12.0868   33.7717 C   0  0  0  0  0  0  0  0  0  0  0  0
   43.7547   12.6335   32.6517 C   0  0  0  0  0  0  0  0  0  0  0  0
   41.8843   10.1492   35.1587 S   0  0  0  0  0  0  0  0  0  0  0  0
   41.9074    8.3664   35.0628 C   0  0  0  0  0  0  0  0  0  0  0  0
   40.4279   10.5544   35.2428 O   0  0  0  0  0  0  0  0  0  0  0  0
   42.5956   10.5685   36.3916 O   0  0  0  0  0  0  0  0  0  0  0  0
  5  6  2  0  0  0
  6  7  1  0  0  0
  6 11  1  0  0  0
  7  8  2  0  0  0
  8  9  1  0  0  0
  8  1  1  0  0  0
  9 10  2  0  0  0
 10  5  1  0  0  0
 11 12  2  0  0  0
 12 13  2  0  0  0
 13 14  2  0  0  0
 14 15  1  0  0  0
 15 16  2  0  0  0
 16 11  1  0  0  0
  1  2  1  0  0  0
  2 17  1  0  0  0
  2  3  2  0  0  0
 17 18  2  0  0  0
 18 19  1  0  0  0
 19 20  2  0  0  0
 20 21  1  0  0  0
 20 23  1  0  0  0
 21 22  2  0  0  0
 22 17  1  0  0  0
 23 24  1  0  0  0
 23 25  2  0  0  0
 23 26  2  0  0  0
  1  4  1  0  0  0
M  END
> <minimizedAffinity>
-7.82240

$$$$
untitled.cdx


 26 28  0  0  0  0  0  0  0  0999 V2000
   42.0259   13.7288   32.4842 N   0  0  0  0  0  0  0  0  0  0  0  0
   42.9184   12.7370   32.9357 C   0  0  0  0  0  0  0  0  0  0  0  0
   44.1534   12.9425   32.9511 O   0  0  0  0  0  0  0  0  0  0  0  0
   41.0008   13.4667   32.5068 H   0  0  0  0  0  0  0  0  0  0  0  0
   43.0491   17.6553   31.2597 C   0  0  0  0  0  0  0  0  0  0  0  0
   42.6177   16.7401   30.3277 C   0  0  0  0  0  0  0  0  0  0  0  0
   42.2774   15.4447   30.7150 C   0  0  0  0  0  0  0  0  0  0  0  0
   42.3487   15.0107   32.0140 C   0  0  0  0  0  0  0  0  0  0  0  0
   42.7903   15.9604   32.9417 C   0  0  0  0  0  0  0  0  0  0  0  0
   43.1291   17.2424   32.5719 C   0  0  0  0  0  0  0  0  0  0  0  0
   42.5091   17.1086   28.9225 C   0  0  0  0  0  0  0  0  0  0  0  0
   41.6842   18.1251   28.5442 N   0  0  0  0  0  0  0  0  0  0  0  0
   41.5526   18.4994   27.2590 C   0  0  0  0  0  0  0  0  0  0  0  0
   42.2379   17.8877   26.2264 C   0  0  0  0  0  0  0  0  0  0  0  0
   43.0824   16.8532   26.5758 C   0  0  0  0  0  0  0  0  0  0  0  0
   43.1997   16.4853   27.9214 C   0  0  0  0  0  0  0  0  0  0  0  0
   42.4798   11.4141   33.4128 C   0  0  0  0  0  0  0  0  0  0  0  0
   41.8952   11.2183   34.6369 C   0  0  0  0  0  0  0  0  0  0  0  0
   41.4885    9.9532   35.0651 C   0  0  0  0  0  0  0  0  0  0  0  0
   41.6641    8.8569   34.2640 C   0  0  0  0  0  0  0  0  0  0  0  0
   42.2490    9.0264   33.0291 C   0  0  0  0  0  0  0  0  0  0  0  0
   42.6449   10.2811   32.6213 C   0  0  0  0  0  0  0  0  0  0  0  0
   41.1688    7.2473   34.7595 S   0  0  0  0  0  0  0  0  0  0  0  0
   40.3912    6.4141   33.3849 C   0  0  0  0  0  0  0  0  0  0  0  0
   40.1274    7.3282   35.8556 O   0  0  0  0  0  0  0  0  0  0  0  0
   42.3211    6.4330   35.2190 O   0  0  0  0  0  0  0  0  0  0  0  0
  5  6  2  0  0  0
  6  7  1  0  0  0
  6 11  1  0  0  0
  7  8  2  0  0  0
  8  9  1  0  0  0
  8  1  1  0  0  0
  9 10  2  0  0  0
 10  5  1  0  0  0
 11 12  2  0  0  0
 12 13  2  0  0  0
 13 14  2  0  0  0
 14 15  1  0  0  0
 15 16  2  0  0  0
 16 11  1  0  0  0
  1  2  1  0  0  0
  2 17  1  0  0  0
  2  3  2  0  0  0
 17 18  2  0  0  0
 18 19  1  0  0  0
 19 20  2  0  0  0
 20 21  1  0  0  0
 20 23  1  0  0  0
 21 22  2  0  0  0
 22 17  1  0  0  0
 23 24  1  0  0  0
 23 25  2  0  0  0
 23 26  2  0  0  0
  1  4  1  0  0  0
M  END
> <minimizedAffinity>
-7.19265

$$$$
untitled.cdx


 26 28  0  0  0  0  0  0  0  0999 V2000
   41.9363   16.5772   25.3234 N   0  0  0  0  0  0  0  0  0  0  0  0
   43.1027   16.4472   26.1023 C   0  0  0  0  0  0  0  0  0  0  0  0
   43.4045   17.3111   26.9569 O   0  0  0  0  0  0  0  0  0  0  0  0
   41.7619   15.7996   24.6271 H   0  0  0  0  0  0  0  0  0  0  0  0
   39.1987   19.8129   25.3261 C   0  0  0  0  0  0  0  0  0  0  0  0
   38.9935   18.7443   26.1677 C   0  0  0  0  0  0  0  0  0  0  0  0
   39.8852   17.6725   26.1785 C   0  0  0  0  0  0  0  0  0  0  0  0
   40.9938   17.6154   25.3731 C   0  0  0  0  0  0  0  0  0  0  0  0
   41.1793   18.7141   24.5269 C   0  0  0  0  0  0  0  0  0  0  0  0
   40.3062   19.7782   24.5070 C   0  0  0  0  0  0  0  0  0  0  0  0
   37.8430   18.7147   27.0608 C   0  0  0  0  0  0  0  0  0  0  0  0
   37.7976   19.5395   28.1446 N   0  0  0  0  0  0  0  0  0  0  0  0
   36.7560   19.5462   28.9956 C   0  0  0  0  0  0  0  0  0  0  0  0
   35.6565   18.7234   28.8408 C   0  0  0  0  0  0  0  0  0  0  0  0
   35.6710   17.8749   27.7522 C   0  0  0  0  0  0  0  0  0  0  0  0
   36.7682   17.8896   26.8829 C   0  0  0  0  0  0  0  0  0  0  0  0
   44.0349   15.3138   25.9756 C   0  0  0  0  0  0  0  0  0  0  0  0
   44.9382   15.2012   24.9509 C   0  0  0  0  0  0  0  0  0  0  0  0
   45.8111   14.1160   24.8543 C   0  0  0  0  0  0  0  0  0  0  0  0
   45.7899   13.1193   25.7927 C   0  0  0  0  0  0  0  0  0  0  0  0
   44.8917   13.2083   26.8325 C   0  0  0  0  0  0  0  0  0  0  0  0
   44.0372   14.2854   26.9137 C   0  0  0  0  0  0  0  0  0  0  0  0
   46.8678   11.7360   25.7126 S   0  0  0  0  0  0  0  0  0  0  0  0
   46.2482   10.5672   24.5134 C   0  0  0  0  0  0  0  0  0  0  0  0
   46.8973   11.0107   27.0414 O   0  0  0  0  0  0  0  0  0  0  0  0
   48.2443   12.1314   25.3242 O   0  0  0  0  0  0  0  0  0  0  0  0
  5  6  2  0  0  0
  6  7  1  0  0  0
  6 11  1  0  0  0
  7  8  2  0  0  0
  8  9  1  0  0  0
  8  1  1  0  0  0
  9 10  2  0  0  0
 10  5  1  0  0  0
 11 12  2  0  0  0
 12 13  2  0  0  0
 13 14  2  0  0  0
 14 15  1  0  0  0
 15 16  2  0  0  0
 16 11  1  0  0  0
  1  2  1  0  0  0
  2 17  1  0  0  0
  2  3  2  0  0  0
 17 18  2  0  0  0
 18 19  1  0  0  0
 19 20  2  0  0  0
 20 21  1  0  0  0
 20 23  1  0  0  0
 21 22  2  0  0  0
 22 17  1  0  0  0
 23 24  1  0  0  0
 23 25  2  0  0  0
 23 26  2  0  0  0
  1  4  1  0  0  0
M  END
> <minimizedAffinity>
-6.93767

$$$$
