WAY-659977


 36 39  0  0  0  0  0  0  0  0999 V2000
   44.1805   14.9967   32.0209 C   0  0  0  0  0  0  0  0  0  0  0  0
   44.9290   13.7999   32.2014 N   0  0  0  0  0  0  0  0  0  0  0  0
   43.5137   15.2210   30.9540 O   0  0  0  0  0  0  0  0  0  0  0  0
   45.4804   13.6127   33.0817 H   0  0  0  0  0  0  0  0  0  0  0  0
   45.1402   10.7663   29.2516 C   0  0  0  0  0  0  0  0  0  0  0  0
   46.1219   11.7267   29.3710 C   0  0  0  0  0  0  0  0  0  0  0  0
   44.0708   10.8091   30.1218 C   0  0  0  0  0  0  0  0  0  0  0  0
   44.9884   12.7732   31.2125 C   0  0  0  0  0  0  0  0  0  0  0  0
   43.9977   11.8094   31.0970 C   0  0  0  0  0  0  0  0  0  0  0  0
   46.0630   12.7251   30.3336 C   0  0  0  0  0  0  0  0  0  0  0  0
   45.2821    9.7536   28.2115 C   0  0  0  0  0  0  0  0  0  0  0  0
   45.7554   10.0504   26.9133 N   0  0  0  0  0  0  0  0  0  0  0  0
   44.9624    8.5759   28.5113 O   0  0  0  0  0  0  0  0  0  0  0  0
   46.0206   11.0097   26.6544 H   0  0  0  0  0  0  0  0  0  0  0  0
   45.8429    8.9520   25.9920 C   0  0  0  0  0  0  0  0  0  0  0  0
   44.8373    8.6201   25.1311 C   0  0  0  0  0  0  0  0  0  0  0  0
   47.0387    8.2311   26.0295 C   0  0  0  0  0  0  0  0  0  0  0  0
   45.0296    7.5371   24.2826 C   0  0  0  0  0  0  0  0  0  0  0  0
   47.2338    7.1490   25.1833 C   0  0  0  0  0  0  0  0  0  0  0  0
   46.2223    6.8063   24.3096 C   0  0  0  0  0  0  0  0  0  0  0  0
   43.6764    9.3586   25.1287 O   0  0  0  0  0  0  0  0  0  0  0  0
   42.4840    8.9242   25.7748 C   0  0  0  0  0  0  0  0  0  0  0  0
   44.1896   16.0075   33.1273 C   0  0  0  0  0  0  0  0  0  0  0  0
   42.8228   15.9418   33.7770 C   0  0  0  0  0  0  0  0  0  0  0  0
   40.5769   13.2133   32.5377 C   0  0  0  0  0  0  0  0  0  0  0  0
   41.1505   14.4349   32.7233 N   0  0  0  0  0  0  0  0  0  0  0  0
   42.6916   13.5784   34.2548 N   0  0  0  0  0  0  0  0  0  0  0  0
   41.0733   12.1320   33.2322 C   0  0  0  0  0  0  0  0  0  0  0  0
   42.1869   14.6160   33.5642 C   0  0  0  0  0  0  0  0  0  0  0  0
   42.1357   12.3689   34.0815 C   0  0  0  0  0  0  0  0  0  0  0  0
   39.6088   13.0415   31.7528 O   0  0  0  0  0  0  0  0  0  0  0  0
   40.5610   10.8552   33.1127 C   0  0  0  0  0  0  0  0  0  0  0  0
   42.6762   11.3147   34.8067 C   0  0  0  0  0  0  0  0  0  0  0  0
   41.1173    9.8056   33.8505 C   0  0  0  0  0  0  0  0  0  0  0  0
   42.1839   10.0293   34.7067 C   0  0  0  0  0  0  0  0  0  0  0  0
   40.7761   15.2612   32.1969 H   0  0  0  0  0  0  0  0  0  0  0  0
 26 25  1  0  0  0
 27 30  2  0  0  0
 27 29  2  0  0  0
 28 25  1  0  0  0
 29 26  1  0  0  0
 30 28  2  0  0  0
 11  5  1  0  0  0
 12 11  1  0  0  0
 15 12  1  0  0  0
  1 23  1  0  0  0
  5  6  2  0  0  0
  5  7  1  0  0  0
 31 25  2  0  0  0
  2  1  1  0  0  0
 13 11  2  0  0  0
 16 15  2  0  0  0
  3  1  2  0  0  0
  6 10  1  0  0  0
  7  9  2  0  0  0
 24 29  1  0  0  0
  8  2  1  0  0  0
 23 24  1  0  0  0
  9  8  1  0  0  0
 10  8  2  0  0  0
 32 28  1  0  0  0
 21 16  1  0  0  0
 33 30  1  0  0  0
 17 15  1  0  0  0
 18 16  1  0  0  0
 22 21  1  0  0  0
 34 32  2  0  0  0
 35 34  1  0  0  0
 35 33  2  0  0  0
 19 17  2  0  0  0
 20 19  1  0  0  0
 20 18  2  0  0  0
 26 36  1  0  0  0
 12 14  1  0  0  0
  2  4  1  0  0  0
M  END
> <minimizedAffinity>
-8.06875

$$$$
WAY-659977


 36 39  0  0  0  0  0  0  0  0999 V2000
   43.8359   14.4578   32.1776 C   0  0  0  0  0  0  0  0  0  0  0  0
   44.5068   13.2048   32.2497 N   0  0  0  0  0  0  0  0  0  0  0  0
   43.4665   14.9623   31.0631 O   0  0  0  0  0  0  0  0  0  0  0  0
   44.8127   12.7865   33.1691 H   0  0  0  0  0  0  0  0  0  0  0  0
   45.3803   10.8792   28.8179 C   0  0  0  0  0  0  0  0  0  0  0  0
   44.2217   10.6922   29.5410 C   0  0  0  0  0  0  0  0  0  0  0  0
   46.2651   11.8513   29.2360 C   0  0  0  0  0  0  0  0  0  0  0  0
   44.8126   12.4284   31.0925 C   0  0  0  0  0  0  0  0  0  0  0  0
   45.9800   12.6211   30.3688 C   0  0  0  0  0  0  0  0  0  0  0  0
   43.9252   11.4482   30.6667 C   0  0  0  0  0  0  0  0  0  0  0  0
   45.6118   10.0401   27.6476 C   0  0  0  0  0  0  0  0  0  0  0  0
   45.6763    8.6299   27.7171 N   0  0  0  0  0  0  0  0  0  0  0  0
   45.7565   10.6234   26.5441 O   0  0  0  0  0  0  0  0  0  0  0  0
   45.5597    8.1396   28.6135 H   0  0  0  0  0  0  0  0  0  0  0  0
   45.9103    7.9334   26.4830 C   0  0  0  0  0  0  0  0  0  0  0  0
   44.9276    7.2767   25.8006 C   0  0  0  0  0  0  0  0  0  0  0  0
   47.2256    7.9683   26.0142 C   0  0  0  0  0  0  0  0  0  0  0  0
   45.2666    6.6357   24.6156 C   0  0  0  0  0  0  0  0  0  0  0  0
   47.5672    7.3292   24.8310 C   0  0  0  0  0  0  0  0  0  0  0  0
   46.5799    6.6628   24.1346 C   0  0  0  0  0  0  0  0  0  0  0  0
   43.6456    7.2686   26.3000 O   0  0  0  0  0  0  0  0  0  0  0  0
   42.6545    8.2086   25.8973 C   0  0  0  0  0  0  0  0  0  0  0  0
   43.5661   15.1876   33.4585 C   0  0  0  0  0  0  0  0  0  0  0  0
   42.1904   14.7501   33.9176 C   0  0  0  0  0  0  0  0  0  0  0  0
   42.6509   11.4096   35.5466 C   0  0  0  0  0  0  0  0  0  0  0  0
   42.6930   12.7494   35.3041 N   0  0  0  0  0  0  0  0  0  0  0  0
   41.5468   12.5108   33.2834 N   0  0  0  0  0  0  0  0  0  0  0  0
   42.0367   10.5857   34.6290 C   0  0  0  0  0  0  0  0  0  0  0  0
   42.1525   13.2912   34.1958 C   0  0  0  0  0  0  0  0  0  0  0  0
   41.4984   11.1885   33.5098 C   0  0  0  0  0  0  0  0  0  0  0  0
   43.1550   10.9012   36.5811 O   0  0  0  0  0  0  0  0  0  0  0  0
   41.9427    9.2167   34.7842 C   0  0  0  0  0  0  0  0  0  0  0  0
   40.8670   10.4057   32.5516 C   0  0  0  0  0  0  0  0  0  0  0  0
   41.3037    8.4438   33.8096 C   0  0  0  0  0  0  0  0  0  0  0  0
   40.7588    9.0359   32.6812 C   0  0  0  0  0  0  0  0  0  0  0  0
   43.1595   13.3809   35.9996 H   0  0  0  0  0  0  0  0  0  0  0  0
 26 25  1  0  0  0
 27 30  2  0  0  0
 27 29  2  0  0  0
 28 25  1  0  0  0
 29 26  1  0  0  0
 30 28  2  0  0  0
 11  5  1  0  0  0
 12 11  1  0  0  0
 15 12  1  0  0  0
  1 23  1  0  0  0
  5  6  2  0  0  0
  5  7  1  0  0  0
 31 25  2  0  0  0
  2  1  1  0  0  0
 13 11  2  0  0  0
 16 15  2  0  0  0
  3  1  2  0  0  0
  6 10  1  0  0  0
  7  9  2  0  0  0
 24 29  1  0  0  0
  8  2  1  0  0  0
 23 24  1  0  0  0
  9  8  1  0  0  0
 10  8  2  0  0  0
 32 28  1  0  0  0
 21 16  1  0  0  0
 33 30  1  0  0  0
 17 15  1  0  0  0
 18 16  1  0  0  0
 22 21  1  0  0  0
 34 32  2  0  0  0
 35 34  1  0  0  0
 35 33  2  0  0  0
 19 17  2  0  0  0
 20 19  1  0  0  0
 20 18  2  0  0  0
 26 36  1  0  0  0
 12 14  1  0  0  0
  2  4  1  0  0  0
M  END
> <minimizedAffinity>
-8.02661

$$$$
WAY-659977


 36 39  0  0  0  0  0  0  0  0999 V2000
   41.8054    9.5373   31.9183 C   0  0  0  0  0  0  0  0  0  0  0  0
   43.0392   10.0646   32.3928 N   0  0  0  0  0  0  0  0  0  0  0  0
   40.7969   10.2865   31.6846 O   0  0  0  0  0  0  0  0  0  0  0  0
   43.8733    9.4476   32.5865 H   0  0  0  0  0  0  0  0  0  0  0  0
   43.6427   14.1998   33.0889 C   0  0  0  0  0  0  0  0  0  0  0  0
   44.0150   13.6056   31.9021 C   0  0  0  0  0  0  0  0  0  0  0  0
   43.0610   13.4141   34.0621 C   0  0  0  0  0  0  0  0  0  0  0  0
   43.2369   11.4558   32.6395 C   0  0  0  0  0  0  0  0  0  0  0  0
   42.8603   12.0482   33.8357 C   0  0  0  0  0  0  0  0  0  0  0  0
   43.8221   12.2520   31.6631 C   0  0  0  0  0  0  0  0  0  0  0  0
   43.8825   15.6288   33.2555 C   0  0  0  0  0  0  0  0  0  0  0  0
   44.6369   16.3911   32.3349 N   0  0  0  0  0  0  0  0  0  0  0  0
   43.3850   16.1787   34.2699 O   0  0  0  0  0  0  0  0  0  0  0  0
   45.0497   15.9540   31.5006 H   0  0  0  0  0  0  0  0  0  0  0  0
   44.7905   17.7887   32.6280 C   0  0  0  0  0  0  0  0  0  0  0  0
   43.8088   18.7094   32.4019 C   0  0  0  0  0  0  0  0  0  0  0  0
   46.0252   18.1566   33.1676 C   0  0  0  0  0  0  0  0  0  0  0  0
   44.0659   20.0363   32.7231 C   0  0  0  0  0  0  0  0  0  0  0  0
   46.2850   19.4810   33.4895 C   0  0  0  0  0  0  0  0  0  0  0  0
   45.2981   20.4185   33.2642 C   0  0  0  0  0  0  0  0  0  0  0  0
   42.6077   18.3018   31.8687 O   0  0  0  0  0  0  0  0  0  0  0  0
   42.4791   17.8211   30.5343 C   0  0  0  0  0  0  0  0  0  0  0  0
   41.7106    8.0585   31.6940 C   0  0  0  0  0  0  0  0  0  0  0  0
   41.7739    7.8492   30.1951 C   0  0  0  0  0  0  0  0  0  0  0  0
   45.2948    8.4150   29.0513 C   0  0  0  0  0  0  0  0  0  0  0  0
   44.1839    7.8364   29.5869 N   0  0  0  0  0  0  0  0  0  0  0  0
   42.8688    9.7054   29.1056 N   0  0  0  0  0  0  0  0  0  0  0  0
   45.1961    9.6833   28.5225 C   0  0  0  0  0  0  0  0  0  0  0  0
   42.9940    8.4670   29.6145 C   0  0  0  0  0  0  0  0  0  0  0  0
   43.9558   10.2873   28.5746 C   0  0  0  0  0  0  0  0  0  0  0  0
   46.4073    7.8280   29.0243 O   0  0  0  0  0  0  0  0  0  0  0  0
   46.2633   10.3536   27.9580 C   0  0  0  0  0  0  0  0  0  0  0  0
   43.7986   11.5663   28.0560 C   0  0  0  0  0  0  0  0  0  0  0  0
   46.0872   11.6408   27.4407 C   0  0  0  0  0  0  0  0  0  0  0  0
   44.8476   12.2589   27.4864 C   0  0  0  0  0  0  0  0  0  0  0  0
   44.2540    6.8710   29.9908 H   0  0  0  0  0  0  0  0  0  0  0  0
 26 25  1  0  0  0
 27 30  2  0  0  0
 27 29  2  0  0  0
 28 25  1  0  0  0
 29 26  1  0  0  0
 30 28  2  0  0  0
 11  5  1  0  0  0
 12 11  1  0  0  0
 15 12  1  0  0  0
  1 23  1  0  0  0
  5  6  2  0  0  0
  5  7  1  0  0  0
 31 25  2  0  0  0
  2  1  1  0  0  0
 13 11  2  0  0  0
 16 15  2  0  0  0
  3  1  2  0  0  0
  6 10  1  0  0  0
  7  9  2  0  0  0
 24 29  1  0  0  0
  8  2  1  0  0  0
 23 24  1  0  0  0
  9  8  1  0  0  0
 10  8  2  0  0  0
 32 28  1  0  0  0
 21 16  1  0  0  0
 33 30  1  0  0  0
 17 15  1  0  0  0
 18 16  1  0  0  0
 22 21  1  0  0  0
 34 32  2  0  0  0
 35 34  1  0  0  0
 35 33  2  0  0  0
 19 17  2  0  0  0
 20 19  1  0  0  0
 20 18  2  0  0  0
 26 36  1  0  0  0
 12 14  1  0  0  0
  2  4  1  0  0  0
M  END
> <minimizedAffinity>
-7.96407

$$$$
WAY-659977


 36 39  0  0  0  0  0  0  0  0999 V2000
   42.6848   11.9676   34.7205 C   0  0  0  0  0  0  0  0  0  0  0  0
   41.9568   13.1883   34.6477 N   0  0  0  0  0  0  0  0  0  0  0  0
   43.4845   11.6026   33.7929 O   0  0  0  0  0  0  0  0  0  0  0  0
   41.2958   13.4915   35.4127 H   0  0  0  0  0  0  0  0  0  0  0  0
   42.2599   15.8256   31.3461 C   0  0  0  0  0  0  0  0  0  0  0  0
   41.5323   14.6571   31.2723 C   0  0  0  0  0  0  0  0  0  0  0  0
   42.8981   16.1276   32.5311 C   0  0  0  0  0  0  0  0  0  0  0  0
   42.0667   14.0847   33.5433 C   0  0  0  0  0  0  0  0  0  0  0  0
   42.8003   15.2590   33.6234 C   0  0  0  0  0  0  0  0  0  0  0  0
   41.4261   13.7858   32.3475 C   0  0  0  0  0  0  0  0  0  0  0  0
   42.3180   16.6833   30.1678 C   0  0  0  0  0  0  0  0  0  0  0  0
   41.8337   16.2803   28.9027 N   0  0  0  0  0  0  0  0  0  0  0  0
   42.8256   17.8235   30.3137 O   0  0  0  0  0  0  0  0  0  0  0  0
   41.4159   15.3502   28.7690 H   0  0  0  0  0  0  0  0  0  0  0  0
   41.9570   17.2302   27.8324 C   0  0  0  0  0  0  0  0  0  0  0  0
   40.9754   18.1226   27.5120 C   0  0  0  0  0  0  0  0  0  0  0  0
   43.1615   17.1861   27.1266 C   0  0  0  0  0  0  0  0  0  0  0  0
   41.2016   18.9970   26.4564 C   0  0  0  0  0  0  0  0  0  0  0  0
   43.3904   18.0581   26.0719 C   0  0  0  0  0  0  0  0  0  0  0  0
   42.4034   18.9637   25.7411 C   0  0  0  0  0  0  0  0  0  0  0  0
   39.8047   18.1303   28.2348 O   0  0  0  0  0  0  0  0  0  0  0  0
   38.6613   18.8840   27.8440 C   0  0  0  0  0  0  0  0  0  0  0  0
   42.4914   11.1025   35.9289 C   0  0  0  0  0  0  0  0  0  0  0  0
   41.1980   10.3451   35.7093 C   0  0  0  0  0  0  0  0  0  0  0  0
   41.5543    8.9018   32.2720 C   0  0  0  0  0  0  0  0  0  0  0  0
   41.7587    9.1705   33.5918 N   0  0  0  0  0  0  0  0  0  0  0  0
   39.9782   10.6807   33.6524 N   0  0  0  0  0  0  0  0  0  0  0  0
   40.5274    9.5417   31.6133 C   0  0  0  0  0  0  0  0  0  0  0  0
   40.9875   10.0418   34.2702 C   0  0  0  0  0  0  0  0  0  0  0  0
   39.7658   10.4252   32.3518 C   0  0  0  0  0  0  0  0  0  0  0  0
   42.2732    8.0883   31.6362 O   0  0  0  0  0  0  0  0  0  0  0  0
   40.2404    9.3370   30.2781 C   0  0  0  0  0  0  0  0  0  0  0  0
   38.7170   11.0984   31.7383 C   0  0  0  0  0  0  0  0  0  0  0  0
   39.1809   10.0233   29.6765 C   0  0  0  0  0  0  0  0  0  0  0  0
   38.4082   10.9130   30.4060 C   0  0  0  0  0  0  0  0  0  0  0  0
   42.5392    8.6859   34.0977 H   0  0  0  0  0  0  0  0  0  0  0  0
 26 25  1  0  0  0
 27 30  2  0  0  0
 27 29  2  0  0  0
 28 25  1  0  0  0
 29 26  1  0  0  0
 30 28  2  0  0  0
 11  5  1  0  0  0
 12 11  1  0  0  0
 15 12  1  0  0  0
  1 23  1  0  0  0
  5  6  2  0  0  0
  5  7  1  0  0  0
 31 25  2  0  0  0
  2  1  1  0  0  0
 13 11  2  0  0  0
 16 15  2  0  0  0
  3  1  2  0  0  0
  6 10  1  0  0  0
  7  9  2  0  0  0
 24 29  1  0  0  0
  8  2  1  0  0  0
 23 24  1  0  0  0
  9  8  1  0  0  0
 10  8  2  0  0  0
 32 28  1  0  0  0
 21 16  1  0  0  0
 33 30  1  0  0  0
 17 15  1  0  0  0
 18 16  1  0  0  0
 22 21  1  0  0  0
 34 32  2  0  0  0
 35 34  1  0  0  0
 35 33  2  0  0  0
 19 17  2  0  0  0
 20 19  1  0  0  0
 20 18  2  0  0  0
 26 36  1  0  0  0
 12 14  1  0  0  0
  2  4  1  0  0  0
M  END
> <minimizedAffinity>
-7.92744

$$$$
WAY-659977


 36 39  0  0  0  0  0  0  0  0999 V2000
   42.6583   13.0268   34.1031 C   0  0  0  0  0  0  0  0  0  0  0  0
   43.4537   13.2697   32.9482 N   0  0  0  0  0  0  0  0  0  0  0  0
   41.5288   13.5987   34.2769 O   0  0  0  0  0  0  0  0  0  0  0  0
   44.3868   12.7984   32.8028 H   0  0  0  0  0  0  0  0  0  0  0  0
   42.2698   15.9497   29.8881 C   0  0  0  0  0  0  0  0  0  0  0  0
   42.8610   16.3968   31.0504 C   0  0  0  0  0  0  0  0  0  0  0  0
   42.0666   14.5940   29.7346 C   0  0  0  0  0  0  0  0  0  0  0  0
   43.0505   14.1617   31.9104 C   0  0  0  0  0  0  0  0  0  0  0  0
   42.4561   13.7061   30.7430 C   0  0  0  0  0  0  0  0  0  0  0  0
   43.2528   15.5279   32.0595 C   0  0  0  0  0  0  0  0  0  0  0  0
   41.8894   16.9325   28.8797 C   0  0  0  0  0  0  0  0  0  0  0  0
   41.0810   16.6127   27.7654 N   0  0  0  0  0  0  0  0  0  0  0  0
   42.3132   18.1053   29.0344 O   0  0  0  0  0  0  0  0  0  0  0  0
   40.7274   15.6571   27.6265 H   0  0  0  0  0  0  0  0  0  0  0  0
   40.7870   17.6828   26.8536 C   0  0  0  0  0  0  0  0  0  0  0  0
   39.7202   18.5201   27.0070 C   0  0  0  0  0  0  0  0  0  0  0  0
   41.6727   17.8186   25.7821 C   0  0  0  0  0  0  0  0  0  0  0  0
   39.5308   19.5223   26.0639 C   0  0  0  0  0  0  0  0  0  0  0  0
   41.4862   18.8187   24.8386 C   0  0  0  0  0  0  0  0  0  0  0  0
   40.4102   19.6697   24.9859 C   0  0  0  0  0  0  0  0  0  0  0  0
   38.8736   18.3491   28.0780 O   0  0  0  0  0  0  0  0  0  0  0  0
   37.7978   19.2383   28.3610 C   0  0  0  0  0  0  0  0  0  0  0  0
   43.1812   12.0691   35.1305 C   0  0  0  0  0  0  0  0  0  0  0  0
   41.9886   11.2721   35.6175 C   0  0  0  0  0  0  0  0  0  0  0  0
   41.2271    7.6943   34.8150 C   0  0  0  0  0  0  0  0  0  0  0  0
   41.3136    8.8844   35.4721 N   0  0  0  0  0  0  0  0  0  0  0  0
   42.3980    9.9022   33.6714 N   0  0  0  0  0  0  0  0  0  0  0  0
   41.7424    7.5979   33.5409 C   0  0  0  0  0  0  0  0  0  0  0  0
   41.8869    9.9677   34.9136 C   0  0  0  0  0  0  0  0  0  0  0  0
   42.3196    8.7353   33.0125 C   0  0  0  0  0  0  0  0  0  0  0  0
   40.6921    6.6811   35.3345 O   0  0  0  0  0  0  0  0  0  0  0  0
   41.7033    6.4370   32.7940 C   0  0  0  0  0  0  0  0  0  0  0  0
   42.8551    8.6953   31.7315 C   0  0  0  0  0  0  0  0  0  0  0  0
   42.2473    6.4145   31.5060 C   0  0  0  0  0  0  0  0  0  0  0  0
   42.8297    7.5490   30.9633 C   0  0  0  0  0  0  0  0  0  0  0  0
   40.9229    8.9628   36.4422 H   0  0  0  0  0  0  0  0  0  0  0  0
 26 25  1  0  0  0
 27 30  2  0  0  0
 27 29  2  0  0  0
 28 25  1  0  0  0
 29 26  1  0  0  0
 30 28  2  0  0  0
 11  5  1  0  0  0
 12 11  1  0  0  0
 15 12  1  0  0  0
  1 23  1  0  0  0
  5  6  2  0  0  0
  5  7  1  0  0  0
 31 25  2  0  0  0
  2  1  1  0  0  0
 13 11  2  0  0  0
 16 15  2  0  0  0
  3  1  2  0  0  0
  6 10  1  0  0  0
  7  9  2  0  0  0
 24 29  1  0  0  0
  8  2  1  0  0  0
 23 24  1  0  0  0
  9  8  1  0  0  0
 10  8  2  0  0  0
 32 28  1  0  0  0
 21 16  1  0  0  0
 33 30  1  0  0  0
 17 15  1  0  0  0
 18 16  1  0  0  0
 22 21  1  0  0  0
 34 32  2  0  0  0
 35 34  1  0  0  0
 35 33  2  0  0  0
 19 17  2  0  0  0
 20 19  1  0  0  0
 20 18  2  0  0  0
 26 36  1  0  0  0
 12 14  1  0  0  0
  2  4  1  0  0  0
M  END
> <minimizedAffinity>
-7.92068

$$$$
