WAY-329284


 28 31  0  0  0  0  0  0  0  0999 V2000
   43.4793   15.9677   33.8250 N   0  0  0  0  0  0  0  0  0  0  0  0
   44.4073   16.5269   33.0252 C   0  0  0  0  0  0  0  0  0  0  0  0
   44.8789   15.5525   32.2332 N   0  0  0  0  0  0  0  0  0  0  0  0
   43.3717   14.6475   33.5332 C   0  0  0  0  0  0  0  0  0  0  0  0
   42.6709   12.3364   33.5585 C   0  0  0  0  0  0  0  0  0  0  0  0
   44.2678   14.3890   32.5164 C   0  0  0  0  0  0  0  0  0  0  0  0
   42.5826   13.6363   34.0490 C   0  0  0  0  0  0  0  0  0  0  0  0
   43.5596   12.0773   32.5495 C   0  0  0  0  0  0  0  0  0  0  0  0
   44.3423   13.0923   32.0414 C   0  0  0  0  0  0  0  0  0  0  0  0
   45.6058   15.6896   31.5147 H   0  0  0  0  0  0  0  0  0  0  0  0
   44.7996   17.9474   33.0498 C   0  0  0  0  0  0  0  0  0  0  0  0
   46.0575   18.3146   33.4170 C   0  0  0  0  0  0  0  0  0  0  0  0
   43.8839   18.9081   32.6981 C   0  0  0  0  0  0  0  0  0  0  0  0
   44.2653   20.2525   32.7246 C   0  0  0  0  0  0  0  0  0  0  0  0
   46.4534   19.6532   33.4484 C   0  0  0  0  0  0  0  0  0  0  0  0
   45.5470   20.6324   33.0982 C   0  0  0  0  0  0  0  0  0  0  0  0
   41.6339   11.1361   34.2871 S   0  0  0  0  0  0  0  0  0  0  0  0
   42.1936    9.7657   33.9248 O   0  0  0  0  0  0  0  0  0  0  0  0
   41.6794   11.2835   35.7862 O   0  0  0  0  0  0  0  0  0  0  0  0
   40.0270   11.1737   33.7370 N   0  0  0  0  0  0  0  0  0  0  0  0
   39.2460   11.2414   34.4574 H   0  0  0  0  0  0  0  0  0  0  0  0
   39.6134   11.1220   32.3829 C   0  0  0  0  0  0  0  0  0  0  0  0
   39.5361   12.2887   31.6099 C   0  0  0  0  0  0  0  0  0  0  0  0
   39.8791   13.4467   32.2151 F   0  0  0  0  0  0  0  0  0  0  0  0
   39.2557    9.9616   31.7309 C   0  0  0  0  0  0  0  0  0  0  0  0
   39.1302   12.2652   30.2935 C   0  0  0  0  0  0  0  0  0  0  0  0
   38.8469    9.9367   30.4053 C   0  0  0  0  0  0  0  0  0  0  0  0
   38.7831   11.1038   29.6761 C   0  0  0  0  0  0  0  0  0  0  0  0
  1  4  2  0  0  0
  2  1  2  0  0  0
  2  3  1  0  0  0
  3  6  1  0  0  0
 20 17  1  0  0  0
  4  7  2  0  0  0
  5 17  1  0  0  0
  6  9  2  0  0  0
  6  4  1  0  0  0
  7  5  1  0  0  0
 22 20  1  0  0  0
 18 17  2  0  0  0
 19 17  2  0  0  0
 11  2  1  0  0  0
 23 22  2  0  0  0
  8  5  2  0  0  0
  9  8  1  0  0  0
 24 23  1  0  0  0
 25 22  1  0  0  0
 12 11  2  0  0  0
 13 11  1  0  0  0
 26 23  1  0  0  0
 27 25  2  0  0  0
 14 13  2  0  0  0
 15 12  1  0  0  0
 28 27  1  0  0  0
 28 26  2  0  0  0
 16 14  1  0  0  0
 16 15  2  0  0  0
  3 10  1  0  0  0
 20 21  1  0  0  0
M  END
> <minimizedAffinity>
-8.66098

$$$$
WAY-329284


 28 31  0  0  0  0  0  0  0  0999 V2000
   43.2787   16.4842   32.8579 N   0  0  0  0  0  0  0  0  0  0  0  0
   43.9022   17.4524   32.1596 C   0  0  0  0  0  0  0  0  0  0  0  0
   43.5929   17.2636   30.8682 N   0  0  0  0  0  0  0  0  0  0  0  0
   42.5819   15.6930   32.0047 C   0  0  0  0  0  0  0  0  0  0  0  0
   41.1713   13.9403   31.1264 C   0  0  0  0  0  0  0  0  0  0  0  0
   42.7866   16.1959   30.7363 C   0  0  0  0  0  0  0  0  0  0  0  0
   41.7852   14.5801   32.1996 C   0  0  0  0  0  0  0  0  0  0  0  0
   41.3731   14.4374   29.8666 C   0  0  0  0  0  0  0  0  0  0  0  0
   42.1693   15.5478   29.6820 C   0  0  0  0  0  0  0  0  0  0  0  0
   43.9314   17.8591   30.0974 H   0  0  0  0  0  0  0  0  0  0  0  0
   44.7549   18.5021   32.7456 C   0  0  0  0  0  0  0  0  0  0  0  0
   44.3685   19.8066   32.7185 C   0  0  0  0  0  0  0  0  0  0  0  0
   45.9512   18.1569   33.3241 C   0  0  0  0  0  0  0  0  0  0  0  0
   46.7529   19.1594   33.8771 C   0  0  0  0  0  0  0  0  0  0  0  0
   45.1582   20.8193   33.2667 C   0  0  0  0  0  0  0  0  0  0  0  0
   46.3635   20.4914   33.8522 C   0  0  0  0  0  0  0  0  0  0  0  0
   40.1932   12.5398   31.4853 S   0  0  0  0  0  0  0  0  0  0  0  0
   39.1653   12.9542   32.5315 O   0  0  0  0  0  0  0  0  0  0  0  0
   39.4560   12.1158   30.2412 O   0  0  0  0  0  0  0  0  0  0  0  0
   41.0586   11.2306   32.1359 N   0  0  0  0  0  0  0  0  0  0  0  0
   41.2678   10.3981   31.5060 H   0  0  0  0  0  0  0  0  0  0  0  0
   41.5406   11.1343   33.4647 C   0  0  0  0  0  0  0  0  0  0  0  0
   42.8061   11.6294   33.8080 C   0  0  0  0  0  0  0  0  0  0  0  0
   43.5276   12.2011   32.8193 F   0  0  0  0  0  0  0  0  0  0  0  0
   40.8354   10.5586   34.4995 C   0  0  0  0  0  0  0  0  0  0  0  0
   43.2996   11.5414   35.0913 C   0  0  0  0  0  0  0  0  0  0  0  0
   41.3313   10.4695   35.7922 C   0  0  0  0  0  0  0  0  0  0  0  0
   42.5801   10.9673   36.0929 C   0  0  0  0  0  0  0  0  0  0  0  0
  1  4  2  0  0  0
  2  1  2  0  0  0
  2  3  1  0  0  0
  3  6  1  0  0  0
 20 17  1  0  0  0
  4  7  2  0  0  0
  5 17  1  0  0  0
  6  9  2  0  0  0
  6  4  1  0  0  0
  7  5  1  0  0  0
 22 20  1  0  0  0
 18 17  2  0  0  0
 19 17  2  0  0  0
 11  2  1  0  0  0
 23 22  2  0  0  0
  8  5  2  0  0  0
  9  8  1  0  0  0
 24 23  1  0  0  0
 25 22  1  0  0  0
 12 11  2  0  0  0
 13 11  1  0  0  0
 26 23  1  0  0  0
 27 25  2  0  0  0
 14 13  2  0  0  0
 15 12  1  0  0  0
 28 27  1  0  0  0
 28 26  2  0  0  0
 16 14  1  0  0  0
 16 15  2  0  0  0
  3 10  1  0  0  0
 20 21  1  0  0  0
M  END
> <minimizedAffinity>
-8.55819

$$$$
WAY-329284


 28 31  0  0  0  0  0  0  0  0999 V2000
   43.1316   16.4106   33.2189 N   0  0  0  0  0  0  0  0  0  0  0  0
   44.3928   16.7783   32.9225 C   0  0  0  0  0  0  0  0  0  0  0  0
   45.0198   15.6863   32.4605 N   0  0  0  0  0  0  0  0  0  0  0  0
   42.9715   15.0924   32.9427 C   0  0  0  0  0  0  0  0  0  0  0  0
   41.9983   12.8955   32.6991 C   0  0  0  0  0  0  0  0  0  0  0  0
   44.1805   14.6361   32.4589 C   0  0  0  0  0  0  0  0  0  0  0  0
   41.8934   14.2353   33.0620 C   0  0  0  0  0  0  0  0  0  0  0  0
   43.1971   12.4402   32.2189 C   0  0  0  0  0  0  0  0  0  0  0  0
   44.2668   13.3024   32.1034 C   0  0  0  0  0  0  0  0  0  0  0  0
   46.0042   15.6685   32.1539 H   0  0  0  0  0  0  0  0  0  0  0  0
   44.9390   18.1369   33.0902 C   0  0  0  0  0  0  0  0  0  0  0  0
   46.1946   18.3255   33.5799 C   0  0  0  0  0  0  0  0  0  0  0  0
   44.1704   19.2219   32.7479 C   0  0  0  0  0  0  0  0  0  0  0  0
   44.6971   20.5063   32.9104 C   0  0  0  0  0  0  0  0  0  0  0  0
   46.7346   19.6021   33.7480 C   0  0  0  0  0  0  0  0  0  0  0  0
   45.9771   20.7041   33.4094 C   0  0  0  0  0  0  0  0  0  0  0  0
   40.5776   11.9009   32.8979 S   0  0  0  0  0  0  0  0  0  0  0  0
   39.3893   12.8338   33.0990 O   0  0  0  0  0  0  0  0  0  0  0  0
   40.3464   11.1066   31.6383 O   0  0  0  0  0  0  0  0  0  0  0  0
   40.6291   10.8699   34.2471 N   0  0  0  0  0  0  0  0  0  0  0  0
   40.2309   11.2221   35.1697 H   0  0  0  0  0  0  0  0  0  0  0  0
   41.1622    9.5574   34.2671 C   0  0  0  0  0  0  0  0  0  0  0  0
   41.1402    8.7904   35.4400 C   0  0  0  0  0  0  0  0  0  0  0  0
   40.5849    9.3595   36.5321 F   0  0  0  0  0  0  0  0  0  0  0  0
   41.7365    8.9431   33.1752 C   0  0  0  0  0  0  0  0  0  0  0  0
   41.6584    7.5147   35.4864 C   0  0  0  0  0  0  0  0  0  0  0  0
   42.2586    7.6584   33.2207 C   0  0  0  0  0  0  0  0  0  0  0  0
   42.2194    6.9339   34.3917 C   0  0  0  0  0  0  0  0  0  0  0  0
  1  4  2  0  0  0
  2  1  2  0  0  0
  2  3  1  0  0  0
  3  6  1  0  0  0
 20 17  1  0  0  0
  4  7  2  0  0  0
  5 17  1  0  0  0
  6  9  2  0  0  0
  6  4  1  0  0  0
  7  5  1  0  0  0
 22 20  1  0  0  0
 18 17  2  0  0  0
 19 17  2  0  0  0
 11  2  1  0  0  0
 23 22  2  0  0  0
  8  5  2  0  0  0
  9  8  1  0  0  0
 24 23  1  0  0  0
 25 22  1  0  0  0
 12 11  2  0  0  0
 13 11  1  0  0  0
 26 23  1  0  0  0
 27 25  2  0  0  0
 14 13  2  0  0  0
 15 12  1  0  0  0
 28 27  1  0  0  0
 28 26  2  0  0  0
 16 14  1  0  0  0
 16 15  2  0  0  0
  3 10  1  0  0  0
 20 21  1  0  0  0
M  END
> <minimizedAffinity>
-8.32801

$$$$
WAY-329284


 28 31  0  0  0  0  0  0  0  0999 V2000
   44.3865   15.9494   32.2320 N   0  0  0  0  0  0  0  0  0  0  0  0
   44.1941   16.9227   33.1425 C   0  0  0  0  0  0  0  0  0  0  0  0
   43.2516   16.4841   33.9901 N   0  0  0  0  0  0  0  0  0  0  0  0
   43.5664   14.9056   32.5102 C   0  0  0  0  0  0  0  0  0  0  0  0
   42.4440   12.7699   32.4002 C   0  0  0  0  0  0  0  0  0  0  0  0
   42.8446   15.2534   33.6336 C   0  0  0  0  0  0  0  0  0  0  0  0
   43.3704   13.6807   31.8999 C   0  0  0  0  0  0  0  0  0  0  0  0
   41.7264   13.1127   33.5148 C   0  0  0  0  0  0  0  0  0  0  0  0
   41.9288   14.3367   34.1167 C   0  0  0  0  0  0  0  0  0  0  0  0
   42.8989   17.0233   34.7952 H   0  0  0  0  0  0  0  0  0  0  0  0
   44.9074   18.2123   33.1654 C   0  0  0  0  0  0  0  0  0  0  0  0
   46.2208   18.2737   33.5164 C   0  0  0  0  0  0  0  0  0  0  0  0
   44.2369   19.3621   32.8286 C   0  0  0  0  0  0  0  0  0  0  0  0
   44.9220   20.5802   32.8532 C   0  0  0  0  0  0  0  0  0  0  0  0
   46.9187   19.4827   33.5457 C   0  0  0  0  0  0  0  0  0  0  0  0
   46.2615   20.6484   33.2104 C   0  0  0  0  0  0  0  0  0  0  0  0
   42.2719   11.2565   31.5475 S   0  0  0  0  0  0  0  0  0  0  0  0
   40.7807   10.9674   31.4229 O   0  0  0  0  0  0  0  0  0  0  0  0
   42.8427   11.3996   30.1602 O   0  0  0  0  0  0  0  0  0  0  0  0
   42.9679    9.9246   32.3397 N   0  0  0  0  0  0  0  0  0  0  0  0
   43.9048    9.5594   31.9896 H   0  0  0  0  0  0  0  0  0  0  0  0
   42.4121    9.2351   33.4456 C   0  0  0  0  0  0  0  0  0  0  0  0
   42.2269    7.8463   33.4075 C   0  0  0  0  0  0  0  0  0  0  0  0
   42.6081    7.2095   32.2788 F   0  0  0  0  0  0  0  0  0  0  0  0
   42.0112    9.8486   34.6129 C   0  0  0  0  0  0  0  0  0  0  0  0
   41.6823    7.1543   34.4671 C   0  0  0  0  0  0  0  0  0  0  0  0
   41.4627    9.1528   35.6806 C   0  0  0  0  0  0  0  0  0  0  0  0
   41.2957    7.7873   35.6075 C   0  0  0  0  0  0  0  0  0  0  0  0
  1  4  2  0  0  0
  2  1  2  0  0  0
  2  3  1  0  0  0
  3  6  1  0  0  0
 20 17  1  0  0  0
  4  7  2  0  0  0
  5 17  1  0  0  0
  6  9  2  0  0  0
  6  4  1  0  0  0
  7  5  1  0  0  0
 22 20  1  0  0  0
 18 17  2  0  0  0
 19 17  2  0  0  0
 11  2  1  0  0  0
 23 22  2  0  0  0
  8  5  2  0  0  0
  9  8  1  0  0  0
 24 23  1  0  0  0
 25 22  1  0  0  0
 12 11  2  0  0  0
 13 11  1  0  0  0
 26 23  1  0  0  0
 27 25  2  0  0  0
 14 13  2  0  0  0
 15 12  1  0  0  0
 28 27  1  0  0  0
 28 26  2  0  0  0
 16 14  1  0  0  0
 16 15  2  0  0  0
  3 10  1  0  0  0
 20 21  1  0  0  0
M  END
> <minimizedAffinity>
-8.31667

$$$$
WAY-329284


 28 31  0  0  0  0  0  0  0  0999 V2000
   42.0177   12.2318   32.7707 N   0  0  0  0  0  0  0  0  0  0  0  0
   42.1592   11.7816   34.0320 C   0  0  0  0  0  0  0  0  0  0  0  0
   42.5287   12.8304   34.7820 N   0  0  0  0  0  0  0  0  0  0  0  0
   42.2981   13.5583   32.7331 C   0  0  0  0  0  0  0  0  0  0  0  0
   42.6378   15.8156   31.9444 C   0  0  0  0  0  0  0  0  0  0  0  0
   42.6236   13.9341   34.0202 C   0  0  0  0  0  0  0  0  0  0  0  0
   42.3044   14.4849   31.7072 C   0  0  0  0  0  0  0  0  0  0  0  0
   42.9614   16.1910   33.2208 C   0  0  0  0  0  0  0  0  0  0  0  0
   42.9522   15.2598   34.2375 C   0  0  0  0  0  0  0  0  0  0  0  0
   42.7107   12.7834   35.7959 H   0  0  0  0  0  0  0  0  0  0  0  0
   41.9390   10.3894   34.4626 C   0  0  0  0  0  0  0  0  0  0  0  0
   42.1501    9.3549   33.6040 C   0  0  0  0  0  0  0  0  0  0  0  0
   41.5164   10.1367   35.7442 C   0  0  0  0  0  0  0  0  0  0  0  0
   41.3104    8.8131   36.1433 C   0  0  0  0  0  0  0  0  0  0  0  0
   41.9488    8.0275   33.9878 C   0  0  0  0  0  0  0  0  0  0  0  0
   41.5243    7.7543   35.2716 C   0  0  0  0  0  0  0  0  0  0  0  0
   42.6211   16.8988   30.5757 S   0  0  0  0  0  0  0  0  0  0  0  0
   41.6276   18.0125   30.8845 O   0  0  0  0  0  0  0  0  0  0  0  0
   43.9863   17.5157   30.4129 O   0  0  0  0  0  0  0  0  0  0  0  0
   42.1190   16.1795   29.1208 N   0  0  0  0  0  0  0  0  0  0  0  0
   41.2677   15.5402   29.1388 H   0  0  0  0  0  0  0  0  0  0  0  0
   42.7354   16.3496   27.8566 C   0  0  0  0  0  0  0  0  0  0  0  0
   42.6430   17.5680   27.1699 C   0  0  0  0  0  0  0  0  0  0  0  0
   41.9508   18.5587   27.7733 F   0  0  0  0  0  0  0  0  0  0  0  0
   43.4488   15.3640   27.2092 C   0  0  0  0  0  0  0  0  0  0  0  0
   43.2277   17.7556   25.9366 C   0  0  0  0  0  0  0  0  0  0  0  0
   44.0382   15.5518   25.9672 C   0  0  0  0  0  0  0  0  0  0  0  0
   43.9265   16.7637   25.3216 C   0  0  0  0  0  0  0  0  0  0  0  0
  1  4  2  0  0  0
  2  1  2  0  0  0
  2  3  1  0  0  0
  3  6  1  0  0  0
 20 17  1  0  0  0
  4  7  2  0  0  0
  5 17  1  0  0  0
  6  9  2  0  0  0
  6  4  1  0  0  0
  7  5  1  0  0  0
 22 20  1  0  0  0
 18 17  2  0  0  0
 19 17  2  0  0  0
 11  2  1  0  0  0
 23 22  2  0  0  0
  8  5  2  0  0  0
  9  8  1  0  0  0
 24 23  1  0  0  0
 25 22  1  0  0  0
 12 11  2  0  0  0
 13 11  1  0  0  0
 26 23  1  0  0  0
 27 25  2  0  0  0
 14 13  2  0  0  0
 15 12  1  0  0  0
 28 27  1  0  0  0
 28 26  2  0  0  0
 16 14  1  0  0  0
 16 15  2  0  0  0
  3 10  1  0  0  0
 20 21  1  0  0  0
M  END
> <minimizedAffinity>
-8.05778

$$$$
