WAY-326362


 25 28  0  0  0  0  0  0  0  0999 V2000
   42.7474   13.7630   33.7234 C   0  0  0  0  0  0  0  0  0  0  0  0
   43.0121   13.6316   32.3657 C   0  0  0  0  0  0  0  0  0  0  0  0
   42.8078   15.4670   34.0901 S   0  0  0  0  0  0  0  0  0  0  0  0
   42.5032   12.6699   34.5248 N   0  0  0  0  0  0  0  0  0  0  0  0
   43.2424   14.7545   31.6696 C   0  0  0  0  0  0  0  0  0  0  0  0
   43.0060   12.3053   31.9071 C   0  0  0  0  0  0  0  0  0  0  0  0
   43.2000   15.9378   32.3426 C   0  0  0  0  0  0  0  0  0  0  0  0
   42.5053   11.4215   34.0541 C   0  0  0  0  0  0  0  0  0  0  0  0
   43.5418   14.7826   30.2327 N   0  0  0  0  0  0  0  0  0  0  0  0
   42.7624   11.2480   32.7243 C   0  0  0  0  0  0  0  0  0  0  0  0
   42.2283   10.3201   35.0096 C   0  0  0  0  0  0  0  0  0  0  0  0
   42.7849    9.8605   32.1898 C   0  0  0  0  0  0  0  0  0  0  0  0
   41.9907    9.0209   34.3116 C   0  0  0  0  0  0  0  0  0  0  0  0
   41.7795    9.1067   32.9011 N   0  0  0  0  0  0  0  0  0  0  0  0
   40.4865    9.6561   32.5636 C   0  0  0  0  0  0  0  0  0  0  0  0
   42.7743   14.7662   29.5322 H   0  0  0  0  0  0  0  0  0  0  0  0
   44.5422   14.8137   30.0147 H   0  0  0  0  0  0  0  0  0  0  0  0
   43.3578   17.3276   31.9029 C   0  0  0  0  0  0  0  0  0  0  0  0
   42.5805   17.6956   30.9914 O   0  0  0  0  0  0  0  0  0  0  0  0
   44.3152   18.2384   32.4388 C   0  0  0  0  0  0  0  0  0  0  0  0
   44.1036   19.5699   32.7247 C   0  0  0  0  0  0  0  0  0  0  0  0
   45.5964   17.7426   32.7003 C   0  0  0  0  0  0  0  0  0  0  0  0
   45.0983   20.3819   33.2435 C   0  0  0  0  0  0  0  0  0  0  0  0
   46.6000   18.5334   33.2160 C   0  0  0  0  0  0  0  0  0  0  0  0
   46.3725   19.8894   33.5037 C   0  0  0  0  0  0  0  0  0  0  0  0
  1  2  2  0  0  0
  1  3  1  0  0  0
  1  4  2  0  0  0
  2  5  1  0  0  0
  2  6  1  0  0  0
  3  7  1  0  0  0
  4  8  2  0  0  0
  5  9  1  0  0  0
  5  7  2  0  0  0
  6 10  2  0  0  0
  7 18  1  0  0  0
  8 11  1  0  0  0
  8 10  1  0  0  0
 10 12  1  0  0  0
 18 20  1  0  0  0
 18 19  2  0  0  0
 11 13  1  0  0  0
 12 14  1  0  0  0
 20 21  2  0  0  0
 20 22  1  0  0  0
 13 14  1  0  0  0
 14 15  1  0  0  0
 21 23  1  0  0  0
 22 24  2  0  0  0
 23 25  2  0  0  0
 24 25  1  0  0  0
  9 16  1  0  0  0
  9 17  1  0  0  0
M  END
> <minimizedAffinity>
-8.69645

$$$$
WAY-326362


 25 28  0  0  0  0  0  0  0  0999 V2000
   41.8563   14.3352   31.3602 C   0  0  0  0  0  0  0  0  0  0  0  0
   41.9158   14.5243   32.7355 C   0  0  0  0  0  0  0  0  0  0  0  0
   42.2842   15.8550   30.6195 S   0  0  0  0  0  0  0  0  0  0  0  0
   41.5055   13.1231   30.8083 N   0  0  0  0  0  0  0  0  0  0  0  0
   42.2625   15.7421   33.1773 C   0  0  0  0  0  0  0  0  0  0  0  0
   41.5894   13.3835   33.4848 C   0  0  0  0  0  0  0  0  0  0  0  0
   42.5302   16.7013   32.2482 C   0  0  0  0  0  0  0  0  0  0  0  0
   41.2012   12.0582   31.5523 C   0  0  0  0  0  0  0  0  0  0  0  0
   42.3644   16.1020   34.5968 N   0  0  0  0  0  0  0  0  0  0  0  0
   41.2462   12.2018   32.9095 C   0  0  0  0  0  0  0  0  0  0  0  0
   40.8383   10.8025   30.8493 C   0  0  0  0  0  0  0  0  0  0  0  0
   40.8924   11.0277   33.7508 C   0  0  0  0  0  0  0  0  0  0  0  0
   40.7916    9.6344   31.7795 C   0  0  0  0  0  0  0  0  0  0  0  0
   41.3691    9.8477   33.0688 N   0  0  0  0  0  0  0  0  0  0  0  0
   42.8123    9.9057   33.0303 C   0  0  0  0  0  0  0  0  0  0  0  0
   43.2319   15.9008   35.1324 H   0  0  0  0  0  0  0  0  0  0  0  0
   41.5232   16.5461   34.9769 H   0  0  0  0  0  0  0  0  0  0  0  0
   42.9680   18.0954   32.3692 C   0  0  0  0  0  0  0  0  0  0  0  0
   42.0843   18.9578   32.1553 O   0  0  0  0  0  0  0  0  0  0  0  0
   44.2953   18.4971   32.7011 C   0  0  0  0  0  0  0  0  0  0  0  0
   45.4155   17.6942   32.6977 C   0  0  0  0  0  0  0  0  0  0  0  0
   44.4889   19.8322   33.0694 C   0  0  0  0  0  0  0  0  0  0  0  0
   46.6695   18.1731   33.0384 C   0  0  0  0  0  0  0  0  0  0  0  0
   45.7276   20.3286   33.4120 C   0  0  0  0  0  0  0  0  0  0  0  0
   46.8625   19.5007   33.4048 C   0  0  0  0  0  0  0  0  0  0  0  0
  1  2  2  0  0  0
  1  3  1  0  0  0
  1  4  2  0  0  0
  2  5  1  0  0  0
  2  6  1  0  0  0
  3  7  1  0  0  0
  4  8  2  0  0  0
  5  9  1  0  0  0
  5  7  2  0  0  0
  6 10  2  0  0  0
  7 18  1  0  0  0
  8 11  1  0  0  0
  8 10  1  0  0  0
 10 12  1  0  0  0
 18 20  1  0  0  0
 18 19  2  0  0  0
 11 13  1  0  0  0
 12 14  1  0  0  0
 20 21  2  0  0  0
 20 22  1  0  0  0
 13 14  1  0  0  0
 14 15  1  0  0  0
 21 23  1  0  0  0
 22 24  2  0  0  0
 23 25  2  0  0  0
 24 25  1  0  0  0
  9 16  1  0  0  0
  9 17  1  0  0  0
M  END
> <minimizedAffinity>
-8.00185

$$$$
WAY-326362


 25 28  0  0  0  0  0  0  0  0999 V2000
   44.3242   11.8166   31.1572 C   0  0  0  0  0  0  0  0  0  0  0  0
   43.9745   10.6178   30.5479 C   0  0  0  0  0  0  0  0  0  0  0  0
   45.3936   12.6507   30.0606 S   0  0  0  0  0  0  0  0  0  0  0  0
   43.8504   12.1635   32.4029 N   0  0  0  0  0  0  0  0  0  0  0  0
   44.4908   10.3669   29.3359 C   0  0  0  0  0  0  0  0  0  0  0  0
   43.1118    9.8174   31.3127 C   0  0  0  0  0  0  0  0  0  0  0  0
   45.3179   11.3029   28.7928 C   0  0  0  0  0  0  0  0  0  0  0  0
   43.0305   11.3769   33.1024 C   0  0  0  0  0  0  0  0  0  0  0  0
   44.2230    9.1458   28.5664 N   0  0  0  0  0  0  0  0  0  0  0  0
   42.6628   10.1882   32.5398 C   0  0  0  0  0  0  0  0  0  0  0  0
   42.5821   11.8532   34.4345 C   0  0  0  0  0  0  0  0  0  0  0  0
   41.7632    9.2939   33.3159 C   0  0  0  0  0  0  0  0  0  0  0  0
   41.4689   11.0200   34.9806 C   0  0  0  0  0  0  0  0  0  0  0  0
   40.8457   10.1340   34.0490 N   0  0  0  0  0  0  0  0  0  0  0  0
   40.0122   10.8264   33.0933 C   0  0  0  0  0  0  0  0  0  0  0  0
   43.3701    9.0682   27.9778 H   0  0  0  0  0  0  0  0  0  0  0  0
   44.9351    8.4177   28.6764 H   0  0  0  0  0  0  0  0  0  0  0  0
   46.0095   11.3765   27.5022 C   0  0  0  0  0  0  0  0  0  0  0  0
   46.7399   10.3964   27.2259 O   0  0  0  0  0  0  0  0  0  0  0  0
   45.8970   12.4658   26.5888 C   0  0  0  0  0  0  0  0  0  0  0  0
   44.9575   13.4733   26.6325 C   0  0  0  0  0  0  0  0  0  0  0  0
   46.8232   12.5248   25.5428 C   0  0  0  0  0  0  0  0  0  0  0  0
   44.9235   14.4936   25.6968 C   0  0  0  0  0  0  0  0  0  0  0  0
   46.8067   13.5309   24.6016 C   0  0  0  0  0  0  0  0  0  0  0  0
   45.8443   14.5527   24.6563 C   0  0  0  0  0  0  0  0  0  0  0  0
  1  2  2  0  0  0
  1  3  1  0  0  0
  1  4  2  0  0  0
  2  5  1  0  0  0
  2  6  1  0  0  0
  3  7  1  0  0  0
  4  8  2  0  0  0
  5  9  1  0  0  0
  5  7  2  0  0  0
  6 10  2  0  0  0
  7 18  1  0  0  0
  8 11  1  0  0  0
  8 10  1  0  0  0
 10 12  1  0  0  0
 18 20  1  0  0  0
 18 19  2  0  0  0
 11 13  1  0  0  0
 12 14  1  0  0  0
 20 21  2  0  0  0
 20 22  1  0  0  0
 13 14  1  0  0  0
 14 15  1  0  0  0
 21 23  1  0  0  0
 22 24  2  0  0  0
 23 25  2  0  0  0
 24 25  1  0  0  0
  9 16  1  0  0  0
  9 17  1  0  0  0
M  END
> <minimizedAffinity>
-7.51511

$$$$
WAY-326362


 25 28  0  0  0  0  0  0  0  0999 V2000
   41.5252   15.4682   28.6916 C   0  0  0  0  0  0  0  0  0  0  0  0
   42.1277   16.5551   29.3130 C   0  0  0  0  0  0  0  0  0  0  0  0
   42.0139   14.0445   29.5724 S   0  0  0  0  0  0  0  0  0  0  0  0
   40.7167   15.6194   27.5870 N   0  0  0  0  0  0  0  0  0  0  0  0
   42.9017   16.3063   30.3795 C   0  0  0  0  0  0  0  0  0  0  0  0
   41.8360   17.7906   28.7146 C   0  0  0  0  0  0  0  0  0  0  0  0
   43.0400   15.0101   30.7741 C   0  0  0  0  0  0  0  0  0  0  0  0
   40.4607   16.8110   27.0440 C   0  0  0  0  0  0  0  0  0  0  0  0
   43.6100   17.3434   31.1395 N   0  0  0  0  0  0  0  0  0  0  0  0
   41.0347   17.9060   27.6238 C   0  0  0  0  0  0  0  0  0  0  0  0
   39.5740   16.8546   25.8547 C   0  0  0  0  0  0  0  0  0  0  0  0
   40.7718   19.2386   27.0184 C   0  0  0  0  0  0  0  0  0  0  0  0
   39.1544   18.2490   25.5209 C   0  0  0  0  0  0  0  0  0  0  0  0
   39.4142   19.2300   26.5267 N   0  0  0  0  0  0  0  0  0  0  0  0
   38.5281   19.1124   27.6619 C   0  0  0  0  0  0  0  0  0  0  0  0
   43.1245   17.8737   31.8898 H   0  0  0  0  0  0  0  0  0  0  0  0
   44.5847   17.4782   30.8546 H   0  0  0  0  0  0  0  0  0  0  0  0
   43.7573   14.3922   31.8936 C   0  0  0  0  0  0  0  0  0  0  0  0
   44.7697   15.0133   32.2930 O   0  0  0  0  0  0  0  0  0  0  0  0
   43.3746   13.1690   32.5188 C   0  0  0  0  0  0  0  0  0  0  0  0
   43.4831   11.9067   31.9763 C   0  0  0  0  0  0  0  0  0  0  0  0
   42.8333   13.2479   33.8058 C   0  0  0  0  0  0  0  0  0  0  0  0
   43.0815   10.7712   32.6598 C   0  0  0  0  0  0  0  0  0  0  0  0
   42.4275   12.1308   34.5028 C   0  0  0  0  0  0  0  0  0  0  0  0
   42.5431   10.8490   33.9396 C   0  0  0  0  0  0  0  0  0  0  0  0
  1  2  2  0  0  0
  1  3  1  0  0  0
  1  4  2  0  0  0
  2  5  1  0  0  0
  2  6  1  0  0  0
  3  7  1  0  0  0
  4  8  2  0  0  0
  5  9  1  0  0  0
  5  7  2  0  0  0
  6 10  2  0  0  0
  7 18  1  0  0  0
  8 11  1  0  0  0
  8 10  1  0  0  0
 10 12  1  0  0  0
 18 20  1  0  0  0
 18 19  2  0  0  0
 11 13  1  0  0  0
 12 14  1  0  0  0
 20 21  2  0  0  0
 20 22  1  0  0  0
 13 14  1  0  0  0
 14 15  1  0  0  0
 21 23  1  0  0  0
 22 24  2  0  0  0
 23 25  2  0  0  0
 24 25  1  0  0  0
  9 16  1  0  0  0
  9 17  1  0  0  0
M  END
> <minimizedAffinity>
-7.33434

$$$$
WAY-326362


 25 28  0  0  0  0  0  0  0  0999 V2000
   42.9055   11.1661   33.7881 C   0  0  0  0  0  0  0  0  0  0  0  0
   43.3072   11.0036   32.4679 C   0  0  0  0  0  0  0  0  0  0  0  0
   43.4181   12.7581   34.2826 S   0  0  0  0  0  0  0  0  0  0  0  0
   42.2371   10.1745   34.4712 N   0  0  0  0  0  0  0  0  0  0  0  0
   43.9566   12.0244   31.8895 C   0  0  0  0  0  0  0  0  0  0  0  0
   42.9713    9.7574   31.9167 C   0  0  0  0  0  0  0  0  0  0  0  0
   44.1741   13.1424   32.6364 C   0  0  0  0  0  0  0  0  0  0  0  0
   41.9337    9.0004   33.9148 C   0  0  0  0  0  0  0  0  0  0  0  0
   44.4496   12.0056   30.5069 N   0  0  0  0  0  0  0  0  0  0  0  0
   42.3118    8.7992   32.6182 C   0  0  0  0  0  0  0  0  0  0  0  0
   41.2102    8.0061   34.7456 C   0  0  0  0  0  0  0  0  0  0  0  0
   41.9953    7.4885   31.9910 C   0  0  0  0  0  0  0  0  0  0  0  0
   40.6973    6.8638   33.9307 C   0  0  0  0  0  0  0  0  0  0  0  0
   40.7216    7.0547   32.5150 N   0  0  0  0  0  0  0  0  0  0  0  0
   39.7116    7.9824   32.0603 C   0  0  0  0  0  0  0  0  0  0  0  0
   43.8185   12.2461   29.7171 H   0  0  0  0  0  0  0  0  0  0  0  0
   45.4342   11.7374   30.4177 H   0  0  0  0  0  0  0  0  0  0  0  0
   44.7984   14.4313   32.3221 C   0  0  0  0  0  0  0  0  0  0  0  0
   46.0260   14.3887   32.0738 O   0  0  0  0  0  0  0  0  0  0  0  0
   44.1041   15.6764   32.2909 C   0  0  0  0  0  0  0  0  0  0  0  0
   42.8234   15.8849   31.8263 C   0  0  0  0  0  0  0  0  0  0  0  0
   44.7808   16.8010   32.7736 C   0  0  0  0  0  0  0  0  0  0  0  0
   42.2289   17.1356   31.8330 C   0  0  0  0  0  0  0  0  0  0  0  0
   44.2078   18.0539   32.7889 C   0  0  0  0  0  0  0  0  0  0  0  0
   42.9014   18.2543   32.3129 C   0  0  0  0  0  0  0  0  0  0  0  0
  1  2  2  0  0  0
  1  3  1  0  0  0
  1  4  2  0  0  0
  2  5  1  0  0  0
  2  6  1  0  0  0
  3  7  1  0  0  0
  4  8  2  0  0  0
  5  9  1  0  0  0
  5  7  2  0  0  0
  6 10  2  0  0  0
  7 18  1  0  0  0
  8 11  1  0  0  0
  8 10  1  0  0  0
 10 12  1  0  0  0
 18 20  1  0  0  0
 18 19  2  0  0  0
 11 13  1  0  0  0
 12 14  1  0  0  0
 20 21  2  0  0  0
 20 22  1  0  0  0
 13 14  1  0  0  0
 14 15  1  0  0  0
 21 23  1  0  0  0
 22 24  2  0  0  0
 23 25  2  0  0  0
 24 25  1  0  0  0
  9 16  1  0  0  0
  9 17  1  0  0  0
M  END
> <minimizedAffinity>
-7.32466

$$$$
