WAY-223535


 22 24  0  0  0  0  0  0  0  0999 V2000
   41.5121   13.1697   33.1458 N   0  0  0  0  0  0  0  0  0  0  0  0
   41.1219   13.9503   32.0178 C   0  0  0  0  0  0  0  0  0  0  0  0
   43.2180   14.6714   32.7188 C   0  0  0  0  0  0  0  0  0  0  0  0
   42.4463   14.0475   33.8625 C   0  0  0  0  0  0  0  0  0  0  0  0
   42.1846   14.9144   31.6493 C   0  0  0  0  0  0  0  0  0  0  0  0
   39.9946   13.8073   31.4304 O   0  0  0  0  0  0  0  0  0  0  0  0
   41.1345   11.8433   33.5456 C   0  0  0  0  0  0  0  0  0  0  0  0
   40.2990   11.0830   32.5944 C   0  0  0  0  0  0  0  0  0  0  0  0
   42.3854   11.0664   33.8779 C   0  0  0  0  0  0  0  0  0  0  0  0
   43.0145   10.3824   32.6969 C   0  0  0  0  0  0  0  0  0  0  0  0
   40.7076    9.6304   32.4508 C   0  0  0  0  0  0  0  0  0  0  0  0
   42.0717    9.6875   31.7796 C   0  0  0  0  0  0  0  0  0  0  0  0
   43.7265   16.0252   33.1368 C   0  0  0  0  0  0  0  0  0  0  0  0
   44.5050   16.7638   32.2045 N   0  0  0  0  0  0  0  0  0  0  0  0
   43.4724   16.4927   34.2761 O   0  0  0  0  0  0  0  0  0  0  0  0
   44.7408   16.4121   31.2442 H   0  0  0  0  0  0  0  0  0  0  0  0
   44.9642   18.0536   32.6612 C   0  0  0  0  0  0  0  0  0  0  0  0
   44.1502   19.1639   32.6234 C   0  0  0  0  0  0  0  0  0  0  0  0
   46.2385   18.1585   33.1390 C   0  0  0  0  0  0  0  0  0  0  0  0
   46.7505   19.3766   33.5982 C   0  0  0  0  0  0  0  0  0  0  0  0
   44.6302   20.3745   33.0694 C   0  0  0  0  0  0  0  0  0  0  0  0
   45.9231   20.4861   33.5555 C   0  0  0  0  0  0  0  0  0  0  0  0
  2  1  1  0  0  0
  3  4  1  0  0  0
  3  5  1  0  0  0
 13  3  1  0  0  0
  4  1  1  0  0  0
  5  2  1  0  0  0
 14 13  1  0  0  0
  6  2  2  0  0  0
  7  1  1  0  0  0
 15 13  2  0  0  0
 17 14  1  0  0  0
  8  7  1  0  0  0
  9  7  1  0  0  0
 18 17  2  0  0  0
 19 17  1  0  0  0
 10  9  1  0  0  0
 11  8  1  0  0  0
 20 19  2  0  0  0
 21 18  1  0  0  0
 21 22  2  0  0  0
 12 10  1  0  0  0
 12 11  1  0  0  0
 22 20  1  0  0  0
 14 16  1  0  0  0
M  END
> <minimizedAffinity>
-8.02488

$$$$
WAY-223535


 22 24  0  0  0  0  0  0  0  0999 V2000
   42.5914   12.3498   32.1931 N   0  0  0  0  0  0  0  0  0  0  0  0
   43.8791   12.5600   31.6172 C   0  0  0  0  0  0  0  0  0  0  0  0
   43.6378   14.0062   33.4215 C   0  0  0  0  0  0  0  0  0  0  0  0
   42.2910   13.6349   32.8374 C   0  0  0  0  0  0  0  0  0  0  0  0
   44.6368   13.5822   32.3760 C   0  0  0  0  0  0  0  0  0  0  0  0
   44.2884   11.9300   30.5820 O   0  0  0  0  0  0  0  0  0  0  0  0
   41.7400   11.1935   32.1926 C   0  0  0  0  0  0  0  0  0  0  0  0
   42.4145    9.8807   32.2432 C   0  0  0  0  0  0  0  0  0  0  0  0
   40.7569   11.3192   33.3312 C   0  0  0  0  0  0  0  0  0  0  0  0
   41.2607   10.7769   34.6391 C   0  0  0  0  0  0  0  0  0  0  0  0
   41.7471    8.8885   33.1746 C   0  0  0  0  0  0  0  0  0  0  0  0
   41.9664    9.4695   34.5634 C   0  0  0  0  0  0  0  0  0  0  0  0
   43.7418   15.5041   33.5290 C   0  0  0  0  0  0  0  0  0  0  0  0
   44.6174   16.1790   32.6354 N   0  0  0  0  0  0  0  0  0  0  0  0
   43.0755   16.1432   34.3826 O   0  0  0  0  0  0  0  0  0  0  0  0
   45.1915   15.6856   31.9085 H   0  0  0  0  0  0  0  0  0  0  0  0
   44.6752   17.6133   32.7857 C   0  0  0  0  0  0  0  0  0  0  0  0
   43.6341   18.4227   32.3887 C   0  0  0  0  0  0  0  0  0  0  0  0
   45.7958   18.1648   33.3364 C   0  0  0  0  0  0  0  0  0  0  0  0
   45.9211   19.5469   33.5124 C   0  0  0  0  0  0  0  0  0  0  0  0
   43.7326   19.7861   32.5511 C   0  0  0  0  0  0  0  0  0  0  0  0
   44.8681   20.3509   33.1097 C   0  0  0  0  0  0  0  0  0  0  0  0
  2  1  1  0  0  0
  3  4  1  0  0  0
  3  5  1  0  0  0
 13  3  1  0  0  0
  4  1  1  0  0  0
  5  2  1  0  0  0
 14 13  1  0  0  0
  6  2  2  0  0  0
  7  1  1  0  0  0
 15 13  2  0  0  0
 17 14  1  0  0  0
  8  7  1  0  0  0
  9  7  1  0  0  0
 18 17  2  0  0  0
 19 17  1  0  0  0
 10  9  1  0  0  0
 11  8  1  0  0  0
 20 19  2  0  0  0
 21 18  1  0  0  0
 21 22  2  0  0  0
 12 10  1  0  0  0
 12 11  1  0  0  0
 22 20  1  0  0  0
 14 16  1  0  0  0
M  END
> <minimizedAffinity>
-7.65239

$$$$
WAY-223535


 22 24  0  0  0  0  0  0  0  0999 V2000
   43.0141   12.6046   32.5280 N   0  0  0  0  0  0  0  0  0  0  0  0
   42.5276   12.7821   33.8568 C   0  0  0  0  0  0  0  0  0  0  0  0
   42.6629   14.8688   32.8406 C   0  0  0  0  0  0  0  0  0  0  0  0
   43.6420   13.8956   32.2184 C   0  0  0  0  0  0  0  0  0  0  0  0
   42.2345   14.2091   34.1260 C   0  0  0  0  0  0  0  0  0  0  0  0
   42.3788   11.8123   34.6775 O   0  0  0  0  0  0  0  0  0  0  0  0
   42.9400   11.4754   31.6440 C   0  0  0  0  0  0  0  0  0  0  0  0
   43.1577   10.1481   32.2537 C   0  0  0  0  0  0  0  0  0  0  0  0
   41.6105   11.5099   30.9298 C   0  0  0  0  0  0  0  0  0  0  0  0
   40.4973   10.8264   31.6728 C   0  0  0  0  0  0  0  0  0  0  0  0
   42.2015    9.0838   31.7533 C   0  0  0  0  0  0  0  0  0  0  0  0
   40.8440    9.5163   32.2866 C   0  0  0  0  0  0  0  0  0  0  0  0
   43.3877   16.1298   33.2286 C   0  0  0  0  0  0  0  0  0  0  0  0
   44.1287   16.8106   32.2245 N   0  0  0  0  0  0  0  0  0  0  0  0
   43.3416   16.5713   34.4050 O   0  0  0  0  0  0  0  0  0  0  0  0
   44.1942   16.4779   31.2313 H   0  0  0  0  0  0  0  0  0  0  0  0
   44.8018   18.0125   32.6554 C   0  0  0  0  0  0  0  0  0  0  0  0
   46.0966   17.9856   33.1238 C   0  0  0  0  0  0  0  0  0  0  0  0
   44.1246   19.1959   32.5906 C   0  0  0  0  0  0  0  0  0  0  0  0
   44.7140   20.3997   32.9912 C   0  0  0  0  0  0  0  0  0  0  0  0
   46.6993   19.1566   33.5242 C   0  0  0  0  0  0  0  0  0  0  0  0
   46.0162   20.3606   33.4604 C   0  0  0  0  0  0  0  0  0  0  0  0
  2  1  1  0  0  0
  3  4  1  0  0  0
  3  5  1  0  0  0
 13  3  1  0  0  0
  4  1  1  0  0  0
  5  2  1  0  0  0
 14 13  1  0  0  0
  6  2  2  0  0  0
  7  1  1  0  0  0
 15 13  2  0  0  0
 17 14  1  0  0  0
  8  7  1  0  0  0
  9  7  1  0  0  0
 18 17  2  0  0  0
 19 17  1  0  0  0
 10  9  1  0  0  0
 11  8  1  0  0  0
 20 19  2  0  0  0
 21 18  1  0  0  0
 21 22  2  0  0  0
 12 10  1  0  0  0
 12 11  1  0  0  0
 22 20  1  0  0  0
 14 16  1  0  0  0
M  END
> <minimizedAffinity>
-7.34330

$$$$
WAY-223535


 22 24  0  0  0  0  0  0  0  0999 V2000
   43.8901   17.4188   32.3633 N   0  0  0  0  0  0  0  0  0  0  0  0
   42.4785   17.3394   32.5507 C   0  0  0  0  0  0  0  0  0  0  0  0
   43.4807   15.6604   33.8083 C   0  0  0  0  0  0  0  0  0  0  0  0
   44.3479   16.0489   32.6295 C   0  0  0  0  0  0  0  0  0  0  0  0
   42.1318   16.2589   33.5030 C   0  0  0  0  0  0  0  0  0  0  0  0
   41.6540   18.1161   31.9563 O   0  0  0  0  0  0  0  0  0  0  0  0
   44.7294   18.5289   32.0095 C   0  0  0  0  0  0  0  0  0  0  0  0
   44.3974   19.8275   32.6295 C   0  0  0  0  0  0  0  0  0  0  0  0
   46.1634   18.1612   32.3045 C   0  0  0  0  0  0  0  0  0  0  0  0
   46.5962   18.4606   33.7121 C   0  0  0  0  0  0  0  0  0  0  0  0
   45.6102   20.6055   33.1000 C   0  0  0  0  0  0  0  0  0  0  0  0
   46.1650   19.7787   34.2503 C   0  0  0  0  0  0  0  0  0  0  0  0
   43.2923   14.1670   33.8214 C   0  0  0  0  0  0  0  0  0  0  0  0
   42.0779   13.6512   34.3503 N   0  0  0  0  0  0  0  0  0  0  0  0
   44.1805   13.3950   33.3784 O   0  0  0  0  0  0  0  0  0  0  0  0
   41.3107   14.2585   34.7300 H   0  0  0  0  0  0  0  0  0  0  0  0
   41.9543   12.2132   34.3364 C   0  0  0  0  0  0  0  0  0  0  0  0
   41.5310   11.5365   33.2141 C   0  0  0  0  0  0  0  0  0  0  0  0
   42.2684   11.5225   35.4710 C   0  0  0  0  0  0  0  0  0  0  0  0
   42.1722   10.1282   35.5298 C   0  0  0  0  0  0  0  0  0  0  0  0
   41.4279   10.1642   33.2460 C   0  0  0  0  0  0  0  0  0  0  0  0
   41.7457    9.4584   34.3955 C   0  0  0  0  0  0  0  0  0  0  0  0
  2  1  1  0  0  0
  3  4  1  0  0  0
  3  5  1  0  0  0
 13  3  1  0  0  0
  4  1  1  0  0  0
  5  2  1  0  0  0
 14 13  1  0  0  0
  6  2  2  0  0  0
  7  1  1  0  0  0
 15 13  2  0  0  0
 17 14  1  0  0  0
  8  7  1  0  0  0
  9  7  1  0  0  0
 18 17  2  0  0  0
 19 17  1  0  0  0
 10  9  1  0  0  0
 11  8  1  0  0  0
 20 19  2  0  0  0
 21 18  1  0  0  0
 21 22  2  0  0  0
 12 10  1  0  0  0
 12 11  1  0  0  0
 22 20  1  0  0  0
 14 16  1  0  0  0
M  END
> <minimizedAffinity>
-7.33349

$$$$
WAY-223535


 22 24  0  0  0  0  0  0  0  0999 V2000
   43.0956   12.8179   31.8496 N   0  0  0  0  0  0  0  0  0  0  0  0
   42.9445   12.7088   33.2636 C   0  0  0  0  0  0  0  0  0  0  0  0
   42.7366   14.9482   32.6745 C   0  0  0  0  0  0  0  0  0  0  0  0
   43.5725   14.1942   31.6618 C   0  0  0  0  0  0  0  0  0  0  0  0
   42.6666   14.0321   33.8689 C   0  0  0  0  0  0  0  0  0  0  0  0
   43.0438   11.5975   33.8892 O   0  0  0  0  0  0  0  0  0  0  0  0
   42.8537   11.8648   30.8032 C   0  0  0  0  0  0  0  0  0  0  0  0
   42.4147   12.4125   29.5039 C   0  0  0  0  0  0  0  0  0  0  0  0
   44.0940   11.0235   30.6225 C   0  0  0  0  0  0  0  0  0  0  0  0
   45.0980   11.6080   29.6692 C   0  0  0  0  0  0  0  0  0  0  0  0
   43.0784   11.7553   28.3102 C   0  0  0  0  0  0  0  0  0  0  0  0
   44.5374   12.1739   28.4128 C   0  0  0  0  0  0  0  0  0  0  0  0
   43.4806   16.1778   33.1224 C   0  0  0  0  0  0  0  0  0  0  0  0
   44.1945   16.9208   32.1432 N   0  0  0  0  0  0  0  0  0  0  0  0
   43.4732   16.5405   34.3263 O   0  0  0  0  0  0  0  0  0  0  0  0
   44.2275   16.6544   31.1285 H   0  0  0  0  0  0  0  0  0  0  0  0
   44.8878   18.0887   32.6315 C   0  0  0  0  0  0  0  0  0  0  0  0
   46.1942   18.0243   33.0627 C   0  0  0  0  0  0  0  0  0  0  0  0
   44.2182   19.2778   32.6602 C   0  0  0  0  0  0  0  0  0  0  0  0
   44.8270   20.4501   33.1207 C   0  0  0  0  0  0  0  0  0  0  0  0
   46.8161   19.1638   33.5206 C   0  0  0  0  0  0  0  0  0  0  0  0
   46.1407   20.3734   33.5516 C   0  0  0  0  0  0  0  0  0  0  0  0
  2  1  1  0  0  0
  3  4  1  0  0  0
  3  5  1  0  0  0
 13  3  1  0  0  0
  4  1  1  0  0  0
  5  2  1  0  0  0
 14 13  1  0  0  0
  6  2  2  0  0  0
  7  1  1  0  0  0
 15 13  2  0  0  0
 17 14  1  0  0  0
  8  7  1  0  0  0
  9  7  1  0  0  0
 18 17  2  0  0  0
 19 17  1  0  0  0
 10  9  1  0  0  0
 11  8  1  0  0  0
 20 19  2  0  0  0
 21 18  1  0  0  0
 21 22  2  0  0  0
 12 10  1  0  0  0
 12 11  1  0  0  0
 22 20  1  0  0  0
 14 16  1  0  0  0
M  END
> <minimizedAffinity>
-7.25630

$$$$
