WAY-358400-A


 21 24  0  0  0  0  0  0  0  0999 V2000
   43.4489   17.1651   32.5010 C   0  0  0  0  0  0  0  0  0  0  0  0
   43.0660   19.9546   32.3409 N   0  0  0  0  0  0  0  0  0  0  0  0
   44.4466   18.0521   32.7640 C   0  0  0  0  0  0  0  0  0  0  0  0
   44.2587   19.4280   32.6841 C   0  0  0  0  0  0  0  0  0  0  0  0
   42.0717   19.1230   32.0814 C   0  0  0  0  0  0  0  0  0  0  0  0
   42.2143   17.7556   32.1478 C   0  0  0  0  0  0  0  0  0  0  0  0
   45.6790   17.6186   33.1552 C   0  0  0  0  0  0  0  0  0  0  0  0
   45.2637   20.3253   32.9769 C   0  0  0  0  0  0  0  0  0  0  0  0
   46.6759   18.5112   33.4463 C   0  0  0  0  0  0  0  0  0  0  0  0
   46.5129   19.8859   33.3697 C   0  0  0  0  0  0  0  0  0  0  0  0
   42.9129   20.9762   32.2768 H   0  0  0  0  0  0  0  0  0  0  0  0
   43.5318   15.7301   32.4205 C   0  0  0  0  0  0  0  0  0  0  0  0
   43.7737   15.1208   31.2109 N   0  0  0  0  0  0  0  0  0  0  0  0
   43.3644   14.7267   33.2739 N   0  0  0  0  0  0  0  0  0  0  0  0
   43.7502   13.8038   31.3342 C   0  0  0  0  0  0  0  0  0  0  0  0
   43.4896   13.5162   32.6451 C   0  0  0  0  0  0  0  0  0  0  0  0
   43.9245   12.7416   30.4605 C   0  0  0  0  0  0  0  0  0  0  0  0
   43.4082   12.2075   33.0581 C   0  0  0  0  0  0  0  0  0  0  0  0
   43.5775   11.1461   32.2094 C   0  0  0  0  0  0  0  0  0  0  0  0
   43.8413   11.4287   30.8820 C   0  0  0  0  0  0  0  0  0  0  0  0
   43.1979   14.7434   34.2899 H   0  0  0  0  0  0  0  0  0  0  0  0
 13 12  2  0  0  0
 14 12  1  0  0  0
  1 12  1  0  0  0
  2  5  2  0  0  0
  2  4  1  0  0  0
 15 13  2  0  0  0
 16 14  1  0  0  0
 16 15  2  0  0  0
  3  1  1  0  0  0
  4  3  2  0  0  0
  5  6  1  0  0  0
  6  1  2  0  0  0
  7  3  1  0  0  0
 17 15  1  0  0  0
 18 16  1  0  0  0
  8  4  1  0  0  0
  9  7  2  0  0  0
 19 18  2  0  0  0
 19 20  1  0  0  0
 20 17  2  0  0  0
 10  9  1  0  0  0
 10  8  2  0  0  0
 14 21  1  0  0  0
  2 11  1  0  0  0
M  CHG 1   2   1
M  END
> <minimizedAffinity>
-7.72858

$$$$
WAY-358400-A


 21 24  0  0  0  0  0  0  0  0999 V2000
   43.0209   15.0886   31.9206 C   0  0  0  0  0  0  0  0  0  0  0  0
   41.1913   13.1163   31.0743 N   0  0  0  0  0  0  0  0  0  0  0  0
   42.8317   13.9297   32.6081 C   0  0  0  0  0  0  0  0  0  0  0  0
   41.9286   12.9570   32.1917 C   0  0  0  0  0  0  0  0  0  0  0  0
   41.3510   14.2289   30.3784 C   0  0  0  0  0  0  0  0  0  0  0  0
   42.2325   15.2168   30.7546 C   0  0  0  0  0  0  0  0  0  0  0  0
   43.5570   13.6592   33.7308 C   0  0  0  0  0  0  0  0  0  0  0  0
   41.7578   11.7719   32.8753 C   0  0  0  0  0  0  0  0  0  0  0  0
   43.3866   12.4812   34.4081 C   0  0  0  0  0  0  0  0  0  0  0  0
   42.4900   11.4998   34.0144 C   0  0  0  0  0  0  0  0  0  0  0  0
   40.5153   12.4011   30.7538 H   0  0  0  0  0  0  0  0  0  0  0  0
   43.8181   16.2268   32.2969 C   0  0  0  0  0  0  0  0  0  0  0  0
   43.2407   17.4722   32.3884 N   0  0  0  0  0  0  0  0  0  0  0  0
   45.1048   16.4342   32.5508 N   0  0  0  0  0  0  0  0  0  0  0  0
   44.1463   18.3903   32.6835 C   0  0  0  0  0  0  0  0  0  0  0  0
   45.3538   17.7589   32.7945 C   0  0  0  0  0  0  0  0  0  0  0  0
   44.1116   19.7615   32.8861 C   0  0  0  0  0  0  0  0  0  0  0  0
   46.4823   18.4831   33.0981 C   0  0  0  0  0  0  0  0  0  0  0  0
   46.4666   19.8373   33.3013 C   0  0  0  0  0  0  0  0  0  0  0  0
   45.2493   20.4832   33.1908 C   0  0  0  0  0  0  0  0  0  0  0  0
   45.8823   15.7624   32.6177 H   0  0  0  0  0  0  0  0  0  0  0  0
 13 12  2  0  0  0
 14 12  1  0  0  0
  1 12  1  0  0  0
  2  5  2  0  0  0
  2  4  1  0  0  0
 15 13  2  0  0  0
 16 14  1  0  0  0
 16 15  2  0  0  0
  3  1  1  0  0  0
  4  3  2  0  0  0
  5  6  1  0  0  0
  6  1  2  0  0  0
  7  3  1  0  0  0
 17 15  1  0  0  0
 18 16  1  0  0  0
  8  4  1  0  0  0
  9  7  2  0  0  0
 19 18  2  0  0  0
 19 20  1  0  0  0
 20 17  2  0  0  0
 10  9  1  0  0  0
 10  8  2  0  0  0
 14 21  1  0  0  0
  2 11  1  0  0  0
M  CHG 1   2   1
M  END
> <minimizedAffinity>
-7.68596

$$$$
WAY-358400-A


 21 24  0  0  0  0  0  0  0  0999 V2000
   44.0228   13.4100   32.0473 C   0  0  0  0  0  0  0  0  0  0  0  0
   43.5555   10.7657   31.1854 N   0  0  0  0  0  0  0  0  0  0  0  0
   43.4761   12.4662   32.8608 C   0  0  0  0  0  0  0  0  0  0  0  0
   43.2444   11.1621   32.4359 C   0  0  0  0  0  0  0  0  0  0  0  0
   44.0918   11.6552   30.3675 C   0  0  0  0  0  0  0  0  0  0  0  0
   44.3373   12.9554   30.7465 C   0  0  0  0  0  0  0  0  0  0  0  0
   43.1613   12.7595   34.1548 C   0  0  0  0  0  0  0  0  0  0  0  0
   42.7150   10.2005   33.2701 C   0  0  0  0  0  0  0  0  0  0  0  0
   42.6362   11.8029   34.9823 C   0  0  0  0  0  0  0  0  0  0  0  0
   42.3929   10.4987   34.5797 C   0  0  0  0  0  0  0  0  0  0  0  0
   43.3875    9.7990   30.8562 H   0  0  0  0  0  0  0  0  0  0  0  0
   44.2002   14.8148   32.3075 C   0  0  0  0  0  0  0  0  0  0  0  0
   43.1612   15.6913   32.0950 N   0  0  0  0  0  0  0  0  0  0  0  0
   45.2164   15.5835   32.6811 N   0  0  0  0  0  0  0  0  0  0  0  0
   43.5405   16.9367   32.3302 C   0  0  0  0  0  0  0  0  0  0  0  0
   44.8540   16.9043   32.7079 C   0  0  0  0  0  0  0  0  0  0  0  0
   42.9138   18.1721   32.2722 C   0  0  0  0  0  0  0  0  0  0  0  0
   45.5094   18.0730   33.0152 C   0  0  0  0  0  0  0  0  0  0  0  0
   44.9065   19.3015   32.9634 C   0  0  0  0  0  0  0  0  0  0  0  0
   43.5782   19.3427   32.5823 C   0  0  0  0  0  0  0  0  0  0  0  0
   46.1706   15.3247   32.9684 H   0  0  0  0  0  0  0  0  0  0  0  0
 13 12  2  0  0  0
 14 12  1  0  0  0
  1 12  1  0  0  0
  2  5  2  0  0  0
  2  4  1  0  0  0
 15 13  2  0  0  0
 16 14  1  0  0  0
 16 15  2  0  0  0
  3  1  1  0  0  0
  4  3  2  0  0  0
  5  6  1  0  0  0
  6  1  2  0  0  0
  7  3  1  0  0  0
 17 15  1  0  0  0
 18 16  1  0  0  0
  8  4  1  0  0  0
  9  7  2  0  0  0
 19 18  2  0  0  0
 19 20  1  0  0  0
 20 17  2  0  0  0
 10  9  1  0  0  0
 10  8  2  0  0  0
 14 21  1  0  0  0
  2 11  1  0  0  0
M  CHG 1   2   1
M  END
> <minimizedAffinity>
-7.51075

$$$$
WAY-358400-A


 21 24  0  0  0  0  0  0  0  0999 V2000
   42.0362   10.7375   34.4524 C   0  0  0  0  0  0  0  0  0  0  0  0
   41.4868    8.1339   35.3867 N   0  0  0  0  0  0  0  0  0  0  0  0
   42.2162    9.6339   33.6771 C   0  0  0  0  0  0  0  0  0  0  0  0
   41.9465    8.3493   34.1377 C   0  0  0  0  0  0  0  0  0  0  0  0
   41.2964    9.1832   36.1679 C   0  0  0  0  0  0  0  0  0  0  0  0
   41.5510   10.4706   35.7528 C   0  0  0  0  0  0  0  0  0  0  0  0
   42.6425    9.7506   32.3870 C   0  0  0  0  0  0  0  0  0  0  0  0
   42.1043    7.2348   33.3417 C   0  0  0  0  0  0  0  0  0  0  0  0
   42.7981    8.6426   31.5974 C   0  0  0  0  0  0  0  0  0  0  0  0
   42.5395    7.3531   32.0362 C   0  0  0  0  0  0  0  0  0  0  0  0
   41.2829    7.1835   35.7423 H   0  0  0  0  0  0  0  0  0  0  0  0
   42.3901   12.1011   34.1557 C   0  0  0  0  0  0  0  0  0  0  0  0
   43.4430   12.3717   33.3126 N   0  0  0  0  0  0  0  0  0  0  0  0
   41.9698   13.2937   34.5610 N   0  0  0  0  0  0  0  0  0  0  0  0
   43.6471   13.6753   33.2179 C   0  0  0  0  0  0  0  0  0  0  0  0
   42.7197   14.2971   34.0067 C   0  0  0  0  0  0  0  0  0  0  0  0
   44.5487   14.4714   32.5281 C   0  0  0  0  0  0  0  0  0  0  0  0
   42.7027   15.6688   34.0959 C   0  0  0  0  0  0  0  0  0  0  0  0
   43.5852   16.4706   33.4221 C   0  0  0  0  0  0  0  0  0  0  0  0
   44.5262   15.8493   32.6222 C   0  0  0  0  0  0  0  0  0  0  0  0
   41.1800   13.5440   35.1723 H   0  0  0  0  0  0  0  0  0  0  0  0
 13 12  2  0  0  0
 14 12  1  0  0  0
  1 12  1  0  0  0
  2  5  2  0  0  0
  2  4  1  0  0  0
 15 13  2  0  0  0
 16 14  1  0  0  0
 16 15  2  0  0  0
  3  1  1  0  0  0
  4  3  2  0  0  0
  5  6  1  0  0  0
  6  1  2  0  0  0
  7  3  1  0  0  0
 17 15  1  0  0  0
 18 16  1  0  0  0
  8  4  1  0  0  0
  9  7  2  0  0  0
 19 18  2  0  0  0
 19 20  1  0  0  0
 20 17  2  0  0  0
 10  9  1  0  0  0
 10  8  2  0  0  0
 14 21  1  0  0  0
  2 11  1  0  0  0
M  CHG 1   2   1
M  END
> <minimizedAffinity>
-7.38179

$$$$
WAY-358400-A


 21 24  0  0  0  0  0  0  0  0999 V2000
   43.6916   12.9197   31.9572 C   0  0  0  0  0  0  0  0  0  0  0  0
   42.7446   13.3992   34.5700 N   0  0  0  0  0  0  0  0  0  0  0  0
   43.1938   11.9271   32.7436 C   0  0  0  0  0  0  0  0  0  0  0  0
   42.7275   12.1628   34.0328 C   0  0  0  0  0  0  0  0  0  0  0  0
   43.2184   14.3897   33.8337 C   0  0  0  0  0  0  0  0  0  0  0  0
   43.6900   14.2007   32.5545 C   0  0  0  0  0  0  0  0  0  0  0  0
   43.1004   10.6491   32.2769 C   0  0  0  0  0  0  0  0  0  0  0  0
   42.1990   11.1603   34.8179 C   0  0  0  0  0  0  0  0  0  0  0  0
   42.5744    9.6547   33.0579 C   0  0  0  0  0  0  0  0  0  0  0  0
   42.1078    9.8653   34.3463 C   0  0  0  0  0  0  0  0  0  0  0  0
   42.4017   13.5883   35.5281 H   0  0  0  0  0  0  0  0  0  0  0  0
   44.3194   12.8029   30.6669 C   0  0  0  0  0  0  0  0  0  0  0  0
   43.8615   13.5521   29.6077 N   0  0  0  0  0  0  0  0  0  0  0  0
   45.2834   12.0486   30.1522 N   0  0  0  0  0  0  0  0  0  0  0  0
   44.5238   13.2569   28.5012 C   0  0  0  0  0  0  0  0  0  0  0  0
   45.4436   12.2952   28.8144 C   0  0  0  0  0  0  0  0  0  0  0  0
   44.4702   13.6986   27.1881 C   0  0  0  0  0  0  0  0  0  0  0  0
   46.2770   11.7987   27.8403 C   0  0  0  0  0  0  0  0  0  0  0  0
   46.2381   12.2230   26.5388 C   0  0  0  0  0  0  0  0  0  0  0  0
   45.3106   13.1954   26.2141 C   0  0  0  0  0  0  0  0  0  0  0  0
   45.9086   11.3709   30.6104 H   0  0  0  0  0  0  0  0  0  0  0  0
 13 12  2  0  0  0
 14 12  1  0  0  0
  1 12  1  0  0  0
  2  5  2  0  0  0
  2  4  1  0  0  0
 15 13  2  0  0  0
 16 14  1  0  0  0
 16 15  2  0  0  0
  3  1  1  0  0  0
  4  3  2  0  0  0
  5  6  1  0  0  0
  6  1  2  0  0  0
  7  3  1  0  0  0
 17 15  1  0  0  0
 18 16  1  0  0  0
  8  4  1  0  0  0
  9  7  2  0  0  0
 19 18  2  0  0  0
 19 20  1  0  0  0
 20 17  2  0  0  0
 10  9  1  0  0  0
 10  8  2  0  0  0
 14 21  1  0  0  0
  2 11  1  0  0  0
M  CHG 1   2   1
M  END
> <minimizedAffinity>
-7.29684

$$$$
