
     RDKit          3D

 21 22  0  0  0  0  0  0  0  0999 V2000
    4.7620   19.3850   46.2790 C   0  0  0  0  0  0  0  0  0  0  0  0
    5.4270   20.5790   46.5730 C   0  0  0  0  0  0  0  0  0  0  0  0
    6.4220   20.5990   47.5580 C   0  0  0  0  0  0  0  0  0  0  0  0
    6.7380   19.4300   48.2550 C   0  0  0  0  0  0  0  0  0  0  0  0
    6.0770   18.2240   47.9740 C   0  0  0  0  0  0  0  0  0  0  0  0
    5.0950   18.2200   46.9800 C   0  0  1  0  0  0  0  0  0  0  0  0
    4.3090   16.9370   46.7330 C   0  0  0  0  0  0  0  0  0  0  0  0
    4.5790   16.1300   45.4780 C   0  0  0  0  0  0  0  0  0  0  0  0
    6.0020   16.0050   44.9710 C   0  0  0  0  0  0  0  0  0  0  0  0
    6.3220   14.7050   44.2380 C   0  0  0  0  0  0  0  0  0  0  0  0
    6.8760   14.8250   42.8280 C   0  0  0  0  0  0  0  0  0  0  0  0
    5.8870   14.5850   41.6890 C   0  0  0  0  0  0  0  0  0  0  0  0
    7.7330   19.5020   49.2140 O   0  0  0  0  0  0  0  0  0  0  0  0
    7.0610   21.8120   47.8670 O   0  0  0  0  0  0  0  0  0  0  0  0
    8.3280   21.9450   47.2730 C   0  0  0  0  0  0  0  0  0  0  0  0
    9.0820   23.0790   47.5540 C   0  0  0  0  0  0  0  0  0  0  0  0
   10.3490   23.2810   47.0130 C   0  0  0  0  0  0  0  0  0  0  0  0
   10.8700   22.3160   46.1460 C   0  0  0  0  0  0  0  0  0  0  0  0
   10.1220   21.1750   45.8420 C   0  0  0  0  0  0  0  0  0  0  0  0
    8.8570   20.9880   46.4130 C   0  0  0  0  0  0  0  0  0  0  0  0
    8.3250   24.3820   48.7350 Br  0  0  0  0  0  0  0  0  0  0  0  0
  2  1  1  0
  3  2  1  0
  4  3  1  0
  5  4  1  0
  6  1  1  0
  6  5  1  0
  6  7  1  1
  8  7  1  0
  9  8  1  0
 10  9  1  0
 11 10  1  0
 12 11  1  0
 13  4  1  0
 14  3  1  0
 15 14  1  0
 16 15  1  0
 17 16  1  0
 18 17  1  0
 19 18  1  0
 20 19  1  0
 20 15  1  0
 21 16  1  0
M  END
$$$$
