(+)-Usniacin.cdx
 OpenBabel08302521353D

 41 43  0  0  0  0  0  0  0  0999 V2000
   -7.0856    0.7350   -2.7465 C   0  0  0  0  0  0  0  0  0  0  0  0
   -6.5666    1.4478   -1.5217 C   0  0  0  0  0  0  0  0  0  0  0  0
   -5.1619    1.1223   -1.0450 C   0  0  0  0  0  0  0  0  0  0  0  0
   -4.5925   -0.0030   -1.5256 C   0  0  0  0  0  0  0  0  0  0  0  0
   -5.3730   -0.9257   -2.4256 C   0  0  1  0  0  0  0  0  0  0  0  0
   -6.1700   -0.0254   -3.3699 C   0  0  0  0  0  0  0  0  0  0  0  0
   -8.4331    0.0872   -2.8512 C   0  0  0  0  0  0  0  0  0  0  0  0
   -8.6629   -0.7418   -3.7374 O   0  0  0  0  0  0  0  0  0  0  0  0
   -9.5271    0.4452   -1.8915 C   0  0  0  0  0  0  0  0  0  0  0  0
   -7.2158    2.3430   -0.9933 O   0  0  0  0  0  0  0  0  0  0  0  0
   -5.3734    0.5873   -4.3586 O   0  0  0  0  0  0  0  0  0  0  0  0
   -3.2311   -0.3235   -1.5450 O   0  0  0  0  0  0  0  0  0  0  0  0
   -3.0460   -1.2290   -2.5913 C   0  0  0  0  0  0  0  0  0  0  0  0
   -4.2714   -1.6420   -3.1193 C   0  0  0  0  0  0  0  0  0  0  0  0
   -1.8709   -1.6392   -3.1960 C   0  0  0  0  0  0  0  0  0  0  0  0
   -1.9865   -2.3907   -4.3936 C   0  0  0  0  0  0  0  0  0  0  0  0
   -3.2342   -2.8413   -4.9015 C   0  0  0  0  0  0  0  0  0  0  0  0
   -4.3821   -2.4640   -4.2197 C   0  0  0  0  0  0  0  0  0  0  0  0
   -5.6329   -2.8152   -4.6275 O   0  0  0  0  0  0  0  0  0  0  0  0
   -3.3457   -3.6186   -6.1809 C   0  0  0  0  0  0  0  0  0  0  0  0
   -0.8570   -2.6359   -5.1352 O   0  0  0  0  0  0  0  0  0  0  0  0
   -0.5499   -1.2246   -2.6589 C   0  0  0  0  0  0  0  0  0  0  0  0
    0.6415   -2.1296   -2.8394 C   0  0  0  0  0  0  0  0  0  0  0  0
   -0.4456   -0.1490   -2.0720 O   0  0  0  0  0  0  0  0  0  0  0  0
   -6.1798   -1.9019   -1.5455 C   0  0  0  0  0  0  0  0  0  0  0  0
   -4.6586    1.8443   -0.4212 H   0  0  0  0  0  0  0  0  0  0  0  0
   -9.1439    0.7472   -0.9176 H   0  0  0  0  0  0  0  0  0  0  0  0
  -10.1319    1.2370   -2.3375 H   0  0  0  0  0  0  0  0  0  0  0  0
  -10.1512   -0.4423   -1.7354 H   0  0  0  0  0  0  0  0  0  0  0  0
   -5.8018    1.4075   -4.6652 H   0  0  0  0  0  0  0  0  0  0  0  0
   -5.7169   -2.6088   -5.5736 H   0  0  0  0  0  0  0  0  0  0  0  0
   -3.2963   -2.9322   -7.0343 H   0  0  0  0  0  0  0  0  0  0  0  0
   -2.5486   -4.3621   -6.2635 H   0  0  0  0  0  0  0  0  0  0  0  0
   -4.2915   -4.1682   -6.2457 H   0  0  0  0  0  0  0  0  0  0  0  0
   -1.0858   -2.5544   -6.0769 H   0  0  0  0  0  0  0  0  0  0  0  0
    1.2729   -1.7426   -3.6442 H   0  0  0  0  0  0  0  0  0  0  0  0
    1.2127   -2.1553   -1.9068 H   0  0  0  0  0  0  0  0  0  0  0  0
    0.3494   -3.1598   -3.0582 H   0  0  0  0  0  0  0  0  0  0  0  0
   -5.5161   -2.5092   -0.9152 H   0  0  0  0  0  0  0  0  0  0  0  0
   -6.8575   -1.3788   -0.8597 H   0  0  0  0  0  0  0  0  0  0  0  0
   -6.7829   -2.5907   -2.1448 H   0  0  0  0  0  0  0  0  0  0  0  0
  1  2  1  0  0  0  0
  1  7  1  0  0  0  0
  2  3  1  0  0  0  0
  2 10  2  0  0  0  0
  3  4  2  0  0  0  0
  3 26  1  0  0  0  0
  4  5  1  0  0  0  0
  4 12  1  0  0  0  0
  5  6  1  0  0  0  0
  5 25  1  1  0  0  0
  6  1  2  3  0  0  0
  6 11  1  0  0  0  0
  7  8  2  0  0  0  0
  7  9  1  0  0  0  0
  9 27  1  0  0  0  0
  9 28  1  0  0  0  0
  9 29  1  0  0  0  0
 11 30  1  0  0  0  0
 12 13  1  0  0  0  0
 13 14  2  0  0  0  0
 13 15  1  0  0  0  0
 14  5  1  0  0  0  0
 15 16  2  0  0  0  0
 15 22  1  0  0  0  0
 16 17  1  0  0  0  0
 16 21  1  0  0  0  0
 17 18  2  0  0  0  0
 17 20  1  0  0  0  0
 18 14  1  0  0  0  0
 18 19  1  0  0  0  0
 19 31  1  0  0  0  0
 20 32  1  0  0  0  0
 20 33  1  0  0  0  0
 20 34  1  0  0  0  0
 21 35  1  0  0  0  0
 22 23  1  0  0  0  0
 22 24  2  0  0  0  0
 23 36  1  0  0  0  0
 23 37  1  0  0  0  0
 23 38  1  0  0  0  0
 25 39  1  0  0  0  0
 25 40  1  0  0  0  0
 25 41  1  0  0  0  0
M  END
>  <Mol_ID>
653

>  <Formula>
C18H16O7

>  <MolWeight>
344.31544

>  <Cat>
S2252

>  <Name>
(+)-Usniacin

>  <Synonyms>
D-Usnic Acid

>  <Target>
Others

>  <Form>
free base

>  <CAS>
7562-61-0

>  <URL>
http://selleckchem.com/products/Usniacin-D-Usnic-acid.html

$$$$
