(+)-Magnoflorine iodide
 OpenBabel08302521463D

 50 52  0  0  0  0  0  0  0  0999 V2000
    1.4483   -0.3240   -0.1231 O   0  0  0  0  0  0  0  0  0  0  0  0
   -4.2831   -3.4964   -0.0922 C   0  0  0  0  0  0  0  0  0  0  0  0
   -4.5562   -4.1553   -2.3896 C   0  0  0  0  0  0  0  0  0  0  0  0
    1.0516    1.0295   -1.9836 O   0  0  0  0  0  0  0  0  0  0  0  0
    2.0437   -2.3476    1.5106 O   0  0  0  0  0  0  0  0  0  0  0  0
    2.4660   -3.2616    2.4532 C   0  0  0  0  0  0  0  0  0  0  0  0
   -0.0734    2.9941   -3.4225 O   0  0  0  0  0  0  0  0  0  0  0  0
   -0.5025    4.1127   -4.1087 C   0  0  0  0  0  0  0  0  0  0  0  0
   -1.3434   -2.6200   -0.9350 C   0  0  0  0  0  0  0  0  0  0  0  0
   -0.5368   -1.4261   -0.9924 C   0  0  0  0  0  0  0  0  0  0  0  0
   -2.6084   -2.7543   -1.8012 C   0  0  2  0  0  0  0  0  0  0  0  0
   -0.9731   -3.6905   -0.0832 C   0  0  0  0  0  0  0  0  0  0  0  0
   -1.0129   -0.2648   -1.8940 C   0  0  0  0  0  0  0  0  0  0  0  0
    0.6328   -1.3913   -0.1546 C   0  0  0  0  0  0  0  0  0  0  0  0
   -3.2965   -1.3851   -1.8727 C   0  0  0  0  0  0  0  0  0  0  0  0
   -3.5468   -3.8522   -1.3396 N   0  3  0  0  0  0  0  0  0  0  0  0
    0.1441   -3.5913    0.7331 C   0  0  0  0  0  0  0  0  0  0  0  0
   -1.7566   -4.9684    0.0033 C   0  0  0  0  0  0  0  0  0  0  0  0
   -2.3639   -0.3121   -2.3435 C   0  0  0  0  0  0  0  0  0  0  0  0
   -0.2438    0.8809   -2.3152 C   0  0  0  0  0  0  0  0  0  0  0  0
    0.9513   -2.4600    0.7041 C   0  0  0  0  0  0  0  0  0  0  0  0
   -2.7632   -5.0946   -1.1342 C   0  0  0  0  0  0  0  0  0  0  0  0
   -2.9033    0.6916   -3.1569 C   0  0  0  0  0  0  0  0  0  0  0  0
   -0.8227    1.9029   -3.1035 C   0  0  0  0  0  0  0  0  0  0  0  0
   -2.1504    1.7880   -3.5266 C   0  0  0  0  0  0  0  0  0  0  0  0
   -0.2713    1.3105    2.2191 I   0  5  0  0  0  0  0  0  0  0  0  0
    2.2701   -0.2734    0.3853 H   0  0  0  0  0  0  0  0  0  0  0  0
   -5.0344   -2.6970   -0.2728 H   0  0  0  0  0  0  0  0  0  0  0  0
   -4.8442   -4.3703    0.3064 H   0  0  0  0  0  0  0  0  0  0  0  0
   -3.5990   -3.1273    0.7016 H   0  0  0  0  0  0  0  0  0  0  0  0
   -4.0698   -4.4384   -3.3494 H   0  0  0  0  0  0  0  0  0  0  0  0
   -5.2116   -5.0019   -2.0798 H   0  0  0  0  0  0  0  0  0  0  0  0
   -5.2350   -3.3008   -2.5824 H   0  0  0  0  0  0  0  0  0  0  0  0
    1.5895    1.8018   -2.2087 H   0  0  0  0  0  0  0  0  0  0  0  0
    1.6680   -3.4261    3.2083 H   0  0  0  0  0  0  0  0  0  0  0  0
    2.7387   -4.2217    1.9665 H   0  0  0  0  0  0  0  0  0  0  0  0
    3.3596   -2.8578    2.9716 H   0  0  0  0  0  0  0  0  0  0  0  0
   -0.8050    3.8390   -5.1414 H   0  0  0  0  0  0  0  0  0  0  0  0
   -1.3526    4.5926   -3.5751 H   0  0  0  0  0  0  0  0  0  0  0  0
    0.3289    4.8457   -4.1632 H   0  0  0  0  0  0  0  0  0  0  0  0
   -2.2473   -2.9811   -2.8322 H   0  0  0  0  0  0  0  0  0  0  0  0
   -3.6154   -1.0793   -0.8568 H   0  0  0  0  0  0  0  0  0  0  0  0
   -4.1958   -1.4121   -2.5209 H   0  0  0  0  0  0  0  0  0  0  0  0
    0.3861   -4.4184    1.3885 H   0  0  0  0  0  0  0  0  0  0  0  0
   -2.2539   -5.0015    0.9971 H   0  0  0  0  0  0  0  0  0  0  0  0
   -1.0822   -5.8506   -0.0613 H   0  0  0  0  0  0  0  0  0  0  0  0
   -3.4162   -5.9717   -0.9160 H   0  0  0  0  0  0  0  0  0  0  0  0
   -2.1990   -5.3292   -2.0673 H   0  0  0  0  0  0  0  0  0  0  0  0
   -3.9377    0.6482   -3.4802 H   0  0  0  0  0  0  0  0  0  0  0  0
   -2.6188    2.5536   -4.1308 H   0  0  0  0  0  0  0  0  0  0  0  0
  1 14  1  0  0  0  0
  1 27  1  0  0  0  0
  2 16  1  0  0  0  0
  2 28  1  0  0  0  0
  2 29  1  0  0  0  0
  2 30  1  0  0  0  0
  3 16  1  0  0  0  0
  3 31  1  0  0  0  0
  3 32  1  0  0  0  0
  3 33  1  0  0  0  0
  4 20  1  0  0  0  0
  4 34  1  0  0  0  0
  5  6  1  0  0  0  0
  5 21  1  0  0  0  0
  6 35  1  0  0  0  0
  6 36  1  0  0  0  0
  6 37  1  0  0  0  0
  7  8  1  0  0  0  0
  7 24  1  0  0  0  0
  8 38  1  0  0  0  0
  8 39  1  0  0  0  0
  8 40  1  0  0  0  0
  9 10  1  0  0  0  0
  9 11  1  0  0  0  0
  9 12  2  0  0  0  0
 10 13  1  0  0  0  0
 10 14  2  0  0  0  0
 11 15  1  0  0  0  0
 11 16  1  0  0  0  0
 11 41  1  6  0  0  0
 12 17  1  0  0  0  0
 12 18  1  0  0  0  0
 13 19  2  0  0  0  0
 13 20  1  0  0  0  0
 14 21  1  0  0  0  0
 15 19  1  0  0  0  0
 15 42  1  0  0  0  0
 15 43  1  0  0  0  0
 16 22  1  0  0  0  0
 17 21  2  0  0  0  0
 17 44  1  0  0  0  0
 18 22  1  0  0  0  0
 18 45  1  0  0  0  0
 18 46  1  0  0  0  0
 19 23  1  0  0  0  0
 20 24  2  0  0  0  0
 22 47  1  0  0  0  0
 22 48  1  0  0  0  0
 23 25  2  0  0  0  0
 23 49  1  0  0  0  0
 24 25  1  0  0  0  0
 25 50  1  0  0  0  0
M  CHG  2  16   1  26  -1
M  END
>  <Mol_ID>
9693

>  <Formula>
C20H24INO4

>  <MolWeight>
469.31333

>  <Cat>
E0702

>  <Name>
(+)-Magnoflorine iodide

>  <Synonyms>
Magnoflorine iodide, Thalictrine iodide

>  <Target>
¦Á-glucosidase

>  <Form>
iodide salt

>  <CAS>
4277-43-4

>  <URL>
https://www.selleckchem.com/products/magnoflorine-iodide.html

$$$$
