(+)-Biotin N-hydroxysuccinimide ester
 OpenBabel08302521383D

 42 44  0  0  1  0  0  0  0  0999 V2000
    2.8761   -1.3330   -0.2949 C   0  0  0  0  0  0  0  0  0  0  0  0
    2.6477   -1.7985   -1.7434 C   0  0  0  0  0  0  0  0  0  0  0  0
    3.5727   -1.1283   -2.7780 C   0  0  0  0  0  0  0  0  0  0  0  0
    5.0472   -1.4419   -2.5805 C   0  0  0  0  0  0  0  0  0  0  0  0
    5.9361   -0.8748   -3.6744 C   0  0  0  0  0  0  0  0  0  0  0  0
    6.8945   -0.0794   -3.0985 O   0  0  0  0  0  0  0  0  0  0  0  0
    5.8916   -1.1778   -4.8544 O   0  0  0  0  0  0  0  0  0  0  0  0
    1.6589    1.7724    3.3827 O   0  0  0  0  0  0  0  0  0  0  0  0
    8.7890    1.9089   -3.9098 O   0  0  0  0  0  0  0  0  0  0  0  0
    8.3066   -2.4467   -2.7546 O   0  0  0  0  0  0  0  0  0  0  0  0
    2.1747   -1.5046    2.2006 C   0  0  1  0  0  0  0  0  0  0  0  0
    0.8709   -1.6361    3.0330 C   0  0  1  0  0  0  0  0  0  0  0  0
    1.9305   -1.9660    0.7445 C   0  0  1  0  0  0  0  0  0  0  0  0
    2.5170   -0.1027    2.3474 N   0  0  0  0  0  0  0  0  0  0  0  0
    0.6283   -0.2888    3.5084 N   0  0  0  0  0  0  0  0  0  0  0  0
   -0.2673   -2.1611    2.1633 C   0  0  0  0  0  0  0  0  0  0  0  0
    0.1575   -1.6653    0.4752 S   0  0  0  0  0  0  0  0  0  0  0  0
    1.6023    0.5908    3.1030 C   0  0  0  0  0  0  0  0  0  0  0  0
    8.1624   -0.3102   -3.6407 N   0  0  0  0  0  0  0  0  0  0  0  0
    9.0083    0.7070   -3.9199 C   0  0  0  0  0  0  0  0  0  0  0  0
    8.7884   -1.4732   -3.3181 C   0  0  0  0  0  0  0  0  0  0  0  0
   10.3624    0.0988   -4.1841 C   0  0  0  0  0  0  0  0  0  0  0  0
   10.2406   -1.3258   -3.6569 C   0  0  0  0  0  0  0  0  0  0  0  0
    2.8034   -0.2397   -0.2641 H   0  0  0  0  0  0  0  0  0  0  0  0
    3.9004   -1.5898    0.0024 H   0  0  0  0  0  0  0  0  0  0  0  0
    2.7616   -2.8877   -1.8016 H   0  0  0  0  0  0  0  0  0  0  0  0
    1.6179   -1.5715   -2.0409 H   0  0  0  0  0  0  0  0  0  0  0  0
    3.2663   -1.4622   -3.7774 H   0  0  0  0  0  0  0  0  0  0  0  0
    3.4229   -0.0421   -2.7583 H   0  0  0  0  0  0  0  0  0  0  0  0
    5.3910   -1.0570   -1.6147 H   0  0  0  0  0  0  0  0  0  0  0  0
    5.2212   -2.5261   -2.5645 H   0  0  0  0  0  0  0  0  0  0  0  0
    2.9923   -2.0806    2.6483 H   0  0  0  0  0  0  0  0  0  0  0  0
    1.0099   -2.2645    3.9197 H   0  0  0  0  0  0  0  0  0  0  0  0
    2.0527   -3.0559    0.7077 H   0  0  0  0  0  0  0  0  0  0  0  0
    3.3425    0.3636    1.9955 H   0  0  0  0  0  0  0  0  0  0  0  0
   -0.1334    0.0238    4.0967 H   0  0  0  0  0  0  0  0  0  0  0  0
   -0.2984   -3.2551    2.1997 H   0  0  0  0  0  0  0  0  0  0  0  0
   -1.2466   -1.7743    2.4606 H   0  0  0  0  0  0  0  0  0  0  0  0
   10.5818    0.1151   -5.2546 H   0  0  0  0  0  0  0  0  0  0  0  0
   11.1394    0.6455   -3.6407 H   0  0  0  0  0  0  0  0  0  0  0  0
   10.5501   -2.0713   -4.3930 H   0  0  0  0  0  0  0  0  0  0  0  0
   10.8210   -1.4507   -2.7364 H   0  0  0  0  0  0  0  0  0  0  0  0
  1  2  1  0  0  0  0
  1 24  1  0  0  0  0
  1 25  1  0  0  0  0
  2  3  1  0  0  0  0
  2 26  1  0  0  0  0
  2 27  1  0  0  0  0
  3  4  1  0  0  0  0
  3 28  1  0  0  0  0
  3 29  1  0  0  0  0
  4  5  1  0  0  0  0
  4 30  1  0  0  0  0
  4 31  1  0  0  0  0
  5  6  1  0  0  0  0
  5  7  2  0  0  0  0
  6 19  1  0  0  0  0
  8 18  2  0  0  0  0
  9 20  2  0  0  0  0
 10 21  2  0  0  0  0
 11 12  1  0  0  0  0
 11 13  1  0  0  0  0
 11 14  1  0  0  0  0
 11 32  1  1  0  0  0
 12 15  1  0  0  0  0
 12 16  1  0  0  0  0
 12 33  1  1  0  0  0
 13 17  1  0  0  0  0
 13 34  1  6  0  0  0
 13  1  1  0  0  0  0
 14 18  1  0  0  0  0
 14 35  1  0  0  0  0
 15 18  1  0  0  0  0
 15 36  1  0  0  0  0
 16 17  1  0  0  0  0
 16 37  1  0  0  0  0
 16 38  1  0  0  0  0
 19 20  1  0  0  0  0
 19 21  1  0  0  0  0
 20 22  1  0  0  0  0
 21 23  1  0  0  0  0
 22 23  1  0  0  0  0
 22 39  1  0  0  0  0
 22 40  1  0  0  0  0
 23 41  1  0  0  0  0
 23 42  1  0  0  0  0
M  END
>  <Mol_ID>
7637

>  <Formula>
C14H19N3O5S

>  <MolWeight>
341.38276

>  <Cat>
E2997

>  <Name>
(+)-Biotin N-hydroxysuccinimide ester

>  <Synonyms>
Biotin-NHS; NHS-Biotin

>  <Target>
Others

>  <Form>
free base

>  <CAS>
35013-72-0

>  <URL>
https://www.selleckchem.com/products/biotin-n-hydroxysuccinimide-ester.html

$$$$
