(+)-(S)-Carvone
 OpenBabel08302520383D

 25 25  0  0  0  0  0  0  0  0999 V2000
   -1.7862    0.7115   -0.4399 C   0  0  2  0  0  0  0  0  0  0  0  0
   -0.7121    1.3860    0.4293 C   0  0  0  0  0  0  0  0  0  0  0  0
   -1.8955   -0.7633   -0.0008 C   0  0  0  0  0  0  0  0  0  0  0  0
   -1.6146    0.8719   -1.9588 C   0  0  0  0  0  0  0  0  0  0  0  0
    0.6135    0.6592    0.3694 C   0  0  0  0  0  0  0  0  0  0  0  0
   -0.5690   -1.4573    0.0301 C   0  0  0  0  0  0  0  0  0  0  0  0
   -2.6799    0.2510   -2.8295 C   0  0  0  0  0  0  0  0  0  0  0  0
   -0.6182    1.5444   -2.5650 C   0  0  0  0  0  0  0  0  0  0  0  0
    0.6108   -0.8261    0.1575 C   0  0  0  0  0  0  0  0  0  0  0  0
    1.6743    1.2603    0.5481 O   0  0  0  0  0  0  0  0  0  0  0  0
    1.9194   -1.5491    0.1079 C   0  0  0  0  0  0  0  0  0  0  0  0
   -2.7411    1.1998   -0.1993 H   0  0  0  0  0  0  0  0  0  0  0  0
   -1.0275    1.3943    1.4801 H   0  0  0  0  0  0  0  0  0  0  0  0
   -0.5650    2.4291    0.1290 H   0  0  0  0  0  0  0  0  0  0  0  0
   -2.3344   -0.8194    1.0036 H   0  0  0  0  0  0  0  0  0  0  0  0
   -2.5674   -1.3255   -0.6565 H   0  0  0  0  0  0  0  0  0  0  0  0
   -0.5829   -2.5386   -0.0875 H   0  0  0  0  0  0  0  0  0  0  0  0
   -3.0936    0.9905   -3.5244 H   0  0  0  0  0  0  0  0  0  0  0  0
   -2.2604   -0.5822   -3.4070 H   0  0  0  0  0  0  0  0  0  0  0  0
   -3.5216   -0.1344   -2.2431 H   0  0  0  0  0  0  0  0  0  0  0  0
    0.1808    2.0444   -2.0287 H   0  0  0  0  0  0  0  0  0  0  0  0
   -0.5746    1.6202   -3.6474 H   0  0  0  0  0  0  0  0  0  0  0  0
    2.0494   -2.1657    1.0031 H   0  0  0  0  0  0  0  0  0  0  0  0
    1.9590   -2.2015   -0.7726 H   0  0  0  0  0  0  0  0  0  0  0  0
    2.7745   -0.8715    0.0402 H   0  0  0  0  0  0  0  0  0  0  0  0
  1  2  1  0  0  0  0
  1  3  1  0  0  0  0
  1 12  1  1  0  0  0
  1  4  1  0  0  0  0
  2  5  1  0  0  0  0
  2 13  1  0  0  0  0
  2 14  1  0  0  0  0
  3  6  1  0  0  0  0
  3 15  1  0  0  0  0
  3 16  1  0  0  0  0
  4  7  1  0  0  0  0
  4  8  2  0  0  0  0
  5  9  1  0  0  0  0
  5 10  2  0  0  0  0
  6  9  2  0  0  0  0
  6 17  1  0  0  0  0
  7 18  1  0  0  0  0
  7 19  1  0  0  0  0
  7 20  1  0  0  0  0
  8 21  1  0  0  0  0
  8 22  1  0  0  0  0
  9 11  1  0  0  0  0
 11 23  1  0  0  0  0
 11 24  1  0  0  0  0
 11 25  1  0  0  0  0
M  END
>  <Mol_ID>
3532

>  <Formula>
C10H14O

>  <MolWeight>
150.21756

>  <Cat>
S6049

>  <Name>
(+)-(S)-Carvone

>  <Synonyms>
N/A

>  <Target>
Others

>  <Form>
free base

>  <CAS>
2244-16-8

>  <URL>
http://www.selleck.cn/products/s-carvone.html

$$$$
