(+)-JQ1 PA
 OpenBabel08302521323D

 50 53  0  0  0  0  0  0  0  0999 V2000
   -0.1900   -0.9460    0.3666 N   0  0  0  0  0  0  0  0  0  0  0  0
   -1.1939   -0.1699    0.9106 C   0  0  0  0  0  0  0  0  0  0  0  0
   -1.1870    1.3158    1.0313 C   0  0  1  0  0  0  0  0  0  0  0  0
   -0.5413    2.0483   -0.0422 N   0  0  0  0  0  0  0  0  0  0  0  0
    0.6299    1.8757   -0.5280 C   0  0  0  0  0  0  0  0  0  0  0  0
    1.5321    0.7818   -0.1509 C   0  0  0  0  0  0  0  0  0  0  0  0
    1.1066   -0.5090    0.0983 C   0  0  0  0  0  0  0  0  0  0  0  0
   -1.8659   -2.2322    1.0249 N   0  0  0  0  0  0  0  0  0  0  0  0
   -2.1201   -0.9593    1.4246 N   0  0  0  0  0  0  0  0  0  0  0  0
   -0.7547   -2.2206    0.3143 C   0  0  0  0  0  0  0  0  0  0  0  0
    2.9973    0.8471   -0.0530 C   0  0  0  0  0  0  0  0  0  0  0  0
    3.5483   -0.4098    0.1550 C   0  0  0  0  0  0  0  0  0  0  0  0
    2.3626   -1.6288    0.2204 S   0  0  0  0  0  0  0  0  0  0  0  0
   -3.5311    1.6398   -0.0912 C   0  0  0  0  0  0  0  0  0  0  0  0
   -2.6320    1.8738    1.1254 C   0  0  0  0  0  0  0  0  0  0  0  0
   -4.0370    2.5735   -0.7152 O   0  0  0  0  0  0  0  0  0  0  0  0
   -3.8020    0.3213   -0.3942 N   0  0  0  0  0  0  0  0  0  0  0  0
   -4.7173   -0.0908   -1.4351 C   0  0  0  0  0  0  0  0  0  0  0  0
   -4.3393   -1.4119   -1.9769 C   0  0  0  0  0  0  0  0  0  0  0  0
   -4.0841   -2.4804   -2.4570 C   0  0  0  0  0  0  0  0  0  0  0  0
   -0.2607   -3.3713   -0.4790 C   0  0  0  0  0  0  0  0  0  0  0  0
    3.8071    2.1105   -0.1493 C   0  0  0  0  0  0  0  0  0  0  0  0
    4.9714   -0.8218    0.3395 C   0  0  0  0  0  0  0  0  0  0  0  0
    1.0582    2.8210   -1.6066 C   0  0  0  0  0  0  0  0  0  0  0  0
    0.6217    4.1526   -1.5687 C   0  0  0  0  0  0  0  0  0  0  0  0
    0.9622    5.0276   -2.6003 C   0  0  0  0  0  0  0  0  0  0  0  0
    1.7475    4.5832   -3.6647 C   0  0  0  0  0  0  0  0  0  0  0  0
    2.2014    3.2674   -3.6975 C   0  0  0  0  0  0  0  0  0  0  0  0
    1.8421    2.3812   -2.6822 C   0  0  0  0  0  0  0  0  0  0  0  0
   -0.6837    1.5714    1.9732 H   0  0  0  0  0  0  0  0  0  0  0  0
   -3.1471    1.4742    2.0069 H   0  0  0  0  0  0  0  0  0  0  0  0
   -2.5756    2.9623    1.2750 H   0  0  0  0  0  0  0  0  0  0  0  0
   -3.4958   -0.3969    0.2601 H   0  0  0  0  0  0  0  0  0  0  0  0
   -5.7127   -0.1420   -0.9866 H   0  0  0  0  0  0  0  0  0  0  0  0
   -4.7410    0.6571   -2.2292 H   0  0  0  0  0  0  0  0  0  0  0  0
   -3.8909   -3.4257   -2.9115 H   0  0  0  0  0  0  0  0  0  0  0  0
    0.2690   -3.0553   -1.3827 H   0  0  0  0  0  0  0  0  0  0  0  0
    0.3927   -4.0126    0.1215 H   0  0  0  0  0  0  0  0  0  0  0  0
   -1.1071   -3.9841   -0.8096 H   0  0  0  0  0  0  0  0  0  0  0  0
    3.8653    2.4717   -1.1772 H   0  0  0  0  0  0  0  0  0  0  0  0
    3.3717    2.8919    0.4796 H   0  0  0  0  0  0  0  0  0  0  0  0
    4.8408    1.9685    0.1725 H   0  0  0  0  0  0  0  0  0  0  0  0
    5.1105   -1.2443    1.3410 H   0  0  0  0  0  0  0  0  0  0  0  0
    5.2558   -1.5766   -0.4006 H   0  0  0  0  0  0  0  0  0  0  0  0
    5.6642    0.0156    0.2366 H   0  0  0  0  0  0  0  0  0  0  0  0
    0.0025    4.5088   -0.7468 H   0  0  0  0  0  0  0  0  0  0  0  0
    0.5999    6.0533   -2.5840 H   0  0  0  0  0  0  0  0  0  0  0  0
    1.9947    5.2608   -4.4777 H   0  0  0  0  0  0  0  0  0  0  0  0
    2.8251    2.9222   -4.5187 H   0  0  0  0  0  0  0  0  0  0  0  0
    2.1998    1.3583   -2.7328 H   0  0  0  0  0  0  0  0  0  0  0  0
  1  2  1  0  0  0  0
  1  7  1  0  0  0  0
  2  3  1  0  0  0  0
  3  4  1  0  0  0  0
  3 30  1  1  0  0  0
  3 15  1  0  0  0  0
  4  5  2  0  0  0  0
  5  6  1  0  0  0  0
  5 24  1  0  0  0  0
  6  7  2  0  0  0  0
  8  9  1  0  0  0  0
  8 10  2  0  0  0  0
  9  2  2  0  0  0  0
 10  1  1  0  0  0  0
 10 21  1  0  0  0  0
 11 12  2  0  0  0  0
 11  6  1  0  0  0  0
 11 22  1  0  0  0  0
 12 13  1  0  0  0  0
 12 23  1  0  0  0  0
 13  7  1  0  0  0  0
 14 15  1  0  0  0  0
 14 16  2  0  0  0  0
 14 17  1  0  0  0  0
 15 31  1  0  0  0  0
 15 32  1  0  0  0  0
 17 18  1  0  0  0  0
 17 33  1  0  0  0  0
 18 19  1  0  0  0  0
 18 34  1  0  0  0  0
 18 35  1  0  0  0  0
 19 20  3  0  0  0  0
 20 36  1  0  0  0  0
 21 37  1  0  0  0  0
 21 38  1  0  0  0  0
 21 39  1  0  0  0  0
 22 40  1  0  0  0  0
 22 41  1  0  0  0  0
 22 42  1  0  0  0  0
 23 43  1  0  0  0  0
 23 44  1  0  0  0  0
 23 45  1  0  0  0  0
 24 25  2  0  0  0  0
 24 29  1  0  0  0  0
 25 26  1  0  0  0  0
 25 46  1  0  0  0  0
 26 27  2  0  0  0  0
 26 47  1  0  0  0  0
 27 28  1  0  0  0  0
 27 48  1  0  0  0  0
 28 29  2  0  0  0  0
 28 49  1  0  0  0  0
 29 50  1  0  0  0  0
M  END
>  <Mol_ID>
6208

>  <Formula>
C22H20ClN5OS

>  <MolWeight>
437.9451

>  <Cat>
S2941

>  <Name>
(+)-JQ1 PA

>  <Synonyms>
N/A

>  <Target>
Epigenetic Reader Domain

>  <Form>
free base

>  <CAS>
2115701-93-2

>  <URL>
http://www.selleckchem.com/products/jq1-pa.html

$$$$
