(+)-Guaiacin
 OpenBabel08302521223D

 48 50  0  0  0  0  0  0  0  0999 V2000
   -1.5359   -0.9353   -3.4923 C   0  0  0  0  0  0  0  0  0  0  0  0
   -1.4771   -1.0846   -2.1114 C   0  0  0  0  0  0  0  0  0  0  0  0
   -1.9767   -0.0679   -1.2761 C   0  0  0  0  0  0  0  0  0  0  0  0
   -2.2774    1.1920   -1.8140 C   0  0  0  0  0  0  0  0  0  0  0  0
   -2.3207    1.3497   -3.1974 C   0  0  0  0  0  0  0  0  0  0  0  0
   -2.0322    0.2499   -4.0144 C   0  0  0  0  0  0  0  0  0  0  0  0
   -2.3202    0.2919   -5.3506 O   0  0  0  0  0  0  0  0  0  0  0  0
   -2.7523    2.4806   -3.8437 O   0  0  0  0  0  0  0  0  0  0  0  0
   -2.5072   -0.4276    0.1182 C   0  0  2  0  0  0  0  0  0  0  0  0
   -2.5828    3.6917   -3.1155 C   0  0  0  0  0  0  0  0  0  0  0  0
   -1.3138   -0.7447    1.0835 C   0  0  2  0  0  0  0  0  0  0  0  0
   -1.6362   -1.7782    2.2039 C   0  0  1  0  0  0  0  0  0  0  0  0
   -3.1406   -1.9736    2.4268 C   0  0  0  0  0  0  0  0  0  0  0  0
   -3.8180   -2.3426    1.1354 C   0  0  0  0  0  0  0  0  0  0  0  0
   -3.5731   -1.5401    0.0151 C   0  0  0  0  0  0  0  0  0  0  0  0
   -4.6789   -3.4504    1.0472 C   0  0  0  0  0  0  0  0  0  0  0  0
   -5.3196   -3.7590   -0.1523 C   0  0  0  0  0  0  0  0  0  0  0  0
   -5.1714   -2.8877   -1.2303 C   0  0  0  0  0  0  0  0  0  0  0  0
   -4.3187   -1.7939   -1.1514 C   0  0  0  0  0  0  0  0  0  0  0  0
   -5.8777   -3.0446   -2.3939 O   0  0  0  0  0  0  0  0  0  0  0  0
   -6.1378   -4.8564   -0.1492 O   0  0  0  0  0  0  0  0  0  0  0  0
   -5.9025   -5.7879   -1.2079 C   0  0  0  0  0  0  0  0  0  0  0  0
   -0.9677   -3.1201    1.8717 C   0  0  0  0  0  0  0  0  0  0  0  0
   -0.7213    0.5438    1.6945 C   0  0  0  0  0  0  0  0  0  0  0  0
   -1.3151   -1.7736   -4.1447 H   0  0  0  0  0  0  0  0  0  0  0  0
   -1.2230   -2.0641   -1.7028 H   0  0  0  0  0  0  0  0  0  0  0  0
   -2.5990    1.9842   -1.1486 H   0  0  0  0  0  0  0  0  0  0  0  0
   -2.9119    1.0629   -5.4503 H   0  0  0  0  0  0  0  0  0  0  0  0
   -3.0496    0.4402    0.5221 H   0  0  0  0  0  0  0  0  0  0  0  0
   -3.2737    3.7493   -2.2680 H   0  0  0  0  0  0  0  0  0  0  0  0
   -1.5474    3.8144   -2.7818 H   0  0  0  0  0  0  0  0  0  0  0  0
   -2.8188    4.5234   -3.7862 H   0  0  0  0  0  0  0  0  0  0  0  0
   -0.4946   -1.1626    0.4819 H   0  0  0  0  0  0  0  0  0  0  0  0
   -1.2065   -1.4485    3.1593 H   0  0  0  0  0  0  0  0  0  0  0  0
   -3.5936   -1.0445    2.8008 H   0  0  0  0  0  0  0  0  0  0  0  0
   -3.3186   -2.7371    3.1929 H   0  0  0  0  0  0  0  0  0  0  0  0
   -4.8380   -4.0895    1.9113 H   0  0  0  0  0  0  0  0  0  0  0  0
   -4.2436   -1.1377   -2.0231 H   0  0  0  0  0  0  0  0  0  0  0  0
   -6.6623   -3.5667   -2.1733 H   0  0  0  0  0  0  0  0  0  0  0  0
   -6.7079   -5.7035   -1.9447 H   0  0  0  0  0  0  0  0  0  0  0  0
   -4.9295   -5.6721   -1.6972 H   0  0  0  0  0  0  0  0  0  0  0  0
   -5.9532   -6.7976   -0.7865 H   0  0  0  0  0  0  0  0  0  0  0  0
    0.1212   -3.0196    1.9272 H   0  0  0  0  0  0  0  0  0  0  0  0
   -1.2708   -3.8980    2.5788 H   0  0  0  0  0  0  0  0  0  0  0  0
   -1.2206   -3.4582    0.8610 H   0  0  0  0  0  0  0  0  0  0  0  0
    0.3718    0.4586    1.7398 H   0  0  0  0  0  0  0  0  0  0  0  0
   -0.9496    1.4356    1.1039 H   0  0  0  0  0  0  0  0  0  0  0  0
   -1.0721    0.7225    2.7167 H   0  0  0  0  0  0  0  0  0  0  0  0
  1  2  2  0  0  0  0
  1 25  1  0  0  0  0
  2  3  1  0  0  0  0
  2 26  1  0  0  0  0
  3  4  2  0  0  0  0
  4  5  1  0  0  0  0
  4 27  1  0  0  0  0
  5  6  2  0  0  0  0
  5  8  1  0  0  0  0
  6  1  1  0  0  0  0
  6  7  1  0  0  0  0
  7 28  1  0  0  0  0
  8 10  1  0  0  0  0
  9  3  1  0  0  0  0
  9 11  1  0  0  0  0
  9 29  1  1  0  0  0
 10 30  1  0  0  0  0
 10 31  1  0  0  0  0
 10 32  1  0  0  0  0
 11 12  1  0  0  0  0
 11 24  1  0  0  0  0
 11 33  1  6  0  0  0
 12 13  1  0  0  0  0
 12 34  1  1  0  0  0
 12 23  1  0  0  0  0
 13 14  1  0  0  0  0
 13 35  1  0  0  0  0
 13 36  1  0  0  0  0
 14 15  2  0  0  0  0
 14 16  1  0  0  0  0
 15  9  1  0  0  0  0
 16 17  2  0  0  0  0
 16 37  1  0  0  0  0
 17 18  1  0  0  0  0
 17 21  1  0  0  0  0
 18 19  2  0  0  0  0
 18 20  1  0  0  0  0
 19 15  1  0  0  0  0
 19 38  1  0  0  0  0
 20 39  1  0  0  0  0
 21 22  1  0  0  0  0
 22 40  1  0  0  0  0
 22 41  1  0  0  0  0
 22 42  1  0  0  0  0
 23 43  1  0  0  0  0
 23 44  1  0  0  0  0
 23 45  1  0  0  0  0
 24 46  1  0  0  0  0
 24 47  1  0  0  0  0
 24 48  1  0  0  0  0
M  END
>  <Mol_ID>
4641

>  <Formula>
C20H24O4

>  <MolWeight>
328.40216

>  <Cat>
S9491

>  <Name>
(+)-Guaiacin

>  <Synonyms>
N/A

>  <Target>
Others

>  <Form>
Free Base

>  <CAS>
88547-66-4

>  <URL>
http://www.selleckchem.com/products/guaiacin.html

$$$$
