(+)-Bornyl acetate
 OpenBabel08302521543D

 34 35  0  0  1  0  0  0  0  0999 V2000
    1.2342   -1.9701    0.0199 C   0  0  0  0  0  0  0  0  0  0  0  0
   -1.8824   -1.9828   -1.1008 O   0  0  0  0  0  0  0  0  0  0  0  0
   -1.6676   -3.3199   -1.2980 C   0  0  0  0  0  0  0  0  0  0  0  0
   -2.8882   -4.1852   -1.0818 C   0  0  0  0  0  0  0  0  0  0  0  0
   -0.6080   -3.8146   -1.6135 O   0  0  0  0  0  0  0  0  0  0  0  0
    1.4565    0.9846   -1.2716 C   0  0  0  0  0  0  0  0  0  0  0  0
    1.4665    1.0221    1.1918 C   0  0  0  0  0  0  0  0  0  0  0  0
    0.1511   -0.9108   -0.0028 C   0  0  2  0  0  0  0  0  0  0  0  0
   -0.7962   -1.0108   -1.2488 C   0  0  2  0  0  0  0  0  0  0  0  0
    0.6386    0.5737   -0.0320 C   0  0  0  0  0  0  0  0  0  0  0  0
   -0.7467   -0.9410    1.2640 C   0  0  0  0  0  0  0  0  0  0  0  0
   -1.4600    0.3964   -1.2498 C   0  0  0  0  0  0  0  0  0  0  0  0
   -0.8206    1.0947   -0.0274 C   0  0  1  0  0  0  0  0  0  0  0  0
   -1.4382    0.4324    1.2252 C   0  0  0  0  0  0  0  0  0  0  0  0
    0.8040   -2.9732    0.0454 H   0  0  0  0  0  0  0  0  0  0  0  0
    1.8790   -1.9045   -0.8618 H   0  0  0  0  0  0  0  0  0  0  0  0
    1.8673   -1.8748    0.9063 H   0  0  0  0  0  0  0  0  0  0  0  0
   -2.9682   -4.8698   -1.9352 H   0  0  0  0  0  0  0  0  0  0  0  0
   -2.7650   -4.7771   -0.1678 H   0  0  0  0  0  0  0  0  0  0  0  0
   -3.8334   -3.6347   -1.0311 H   0  0  0  0  0  0  0  0  0  0  0  0
    2.4244    0.4709   -1.2821 H   0  0  0  0  0  0  0  0  0  0  0  0
    0.9736    0.7719   -2.2273 H   0  0  0  0  0  0  0  0  0  0  0  0
    1.6568    2.0631   -1.2556 H   0  0  0  0  0  0  0  0  0  0  0  0
    0.9883    0.8431    2.1570 H   0  0  0  0  0  0  0  0  0  0  0  0
    2.4316    0.5046    1.2162 H   0  0  0  0  0  0  0  0  0  0  0  0
    1.6685    2.0986    1.1435 H   0  0  0  0  0  0  0  0  0  0  0  0
   -0.2422   -1.1409   -2.1971 H   0  0  0  0  0  0  0  0  0  0  0  0
   -0.1566   -1.0512    2.1802 H   0  0  0  0  0  0  0  0  0  0  0  0
   -1.4733   -1.7596    1.2649 H   0  0  0  0  0  0  0  0  0  0  0  0
   -2.5528    0.3427   -1.1755 H   0  0  0  0  0  0  0  0  0  0  0  0
   -1.2244    0.9452   -2.1696 H   0  0  0  0  0  0  0  0  0  0  0  0
   -0.9363    2.1815   -0.0418 H   0  0  0  0  0  0  0  0  0  0  0  0
   -1.2190    1.0045    2.1326 H   0  0  0  0  0  0  0  0  0  0  0  0
   -2.5266    0.3374    1.1550 H   0  0  0  0  0  0  0  0  0  0  0  0
  1 15  1  0  0  0  0
  1 16  1  0  0  0  0
  1 17  1  0  0  0  0
  2  3  1  0  0  0  0
  3  4  1  0  0  0  0
  3  5  2  0  0  0  0
  4 18  1  0  0  0  0
  4 19  1  0  0  0  0
  4 20  1  0  0  0  0
  6 10  1  0  0  0  0
  6 21  1  0  0  0  0
  6 22  1  0  0  0  0
  6 23  1  0  0  0  0
  7 10  1  0  0  0  0
  7 24  1  0  0  0  0
  7 25  1  0  0  0  0
  7 26  1  0  0  0  0
  8  1  1  1  0  0  0
  8  9  1  0  0  0  0
  8 10  1  0  0  0  0
  8 11  1  0  0  0  0
  9 12  1  0  0  0  0
  9 27  1  6  0  0  0
  9  2  1  0  0  0  0
 10 13  1  0  0  0  0
 11 14  1  0  0  0  0
 11 28  1  0  0  0  0
 11 29  1  0  0  0  0
 12 30  1  0  0  0  0
 12 31  1  0  0  0  0
 13 12  1  0  0  0  0
 13 14  1  0  0  0  0
 13 32  1  6  0  0  0
 14 33  1  0  0  0  0
 14 34  1  0  0  0  0
M  END
>  <Mol_ID>
10012

>  <Formula>
C12H20O2

>  <MolWeight>
196.286

>  <Cat>
E5464

>  <Name>
(+)-Bornyl acetate

>  <Synonyms>
NA

>  <Target>
NA

>  <Form>
Free Base

>  <CAS>
20347-65-3

>  <URL>
https://www.selleckchem.com/products/bornyl-acetate.html

$$$$
