(+)-JQ1 carboxylic acid
 OpenBabel08302521313D

 44 47  0  0  0  0  0  0  0  0999 V2000
    2.0764   -1.6005    0.1538 S   0  0  0  0  0  0  0  0  0  0  0  0
   -4.1218    1.4265   -0.5933 O   0  0  0  0  0  0  0  0  0  0  0  0
   -3.8285    3.6082   -0.1438 O   0  0  0  0  0  0  0  0  0  0  0  0
   -0.4654   -0.8243   -0.0991 N   0  0  0  0  0  0  0  0  0  0  0  0
   -0.6482    2.2191   -0.1357 N   0  0  0  0  0  0  0  0  0  0  0  0
   -2.6557   -0.6622    0.2059 N   0  0  0  0  0  0  0  0  0  0  0  0
   -2.3895   -1.9107   -0.2598 N   0  0  0  0  0  0  0  0  0  0  0  0
   -1.3158    1.3640    0.8294 C   0  0  2  0  0  0  0  0  0  0  0  0
    1.3705    0.8503   -0.2161 C   0  0  0  0  0  0  0  0  0  0  0  0
    0.8795   -0.4386   -0.0888 C   0  0  0  0  0  0  0  0  0  0  0  0
   -1.5151   -0.0100    0.2890 C   0  0  0  0  0  0  0  0  0  0  0  0
    0.5308    2.0009   -0.6003 C   0  0  0  0  0  0  0  0  0  0  0  0
    2.8253    0.8550   -0.0127 C   0  0  0  0  0  0  0  0  0  0  0  0
   -2.6440    2.0235    1.2317 C   0  0  0  0  0  0  0  0  0  0  0  0
    3.3184   -0.4326    0.1640 C   0  0  0  0  0  0  0  0  0  0  0  0
   -1.0872   -2.0205   -0.4444 C   0  0  0  0  0  0  0  0  0  0  0  0
    1.0307    2.9363   -1.6495 C   0  0  0  0  0  0  0  0  0  0  0  0
    3.6912    2.0847   -0.0206 C   0  0  0  0  0  0  0  0  0  0  0  0
    4.7260   -0.9068    0.3523 C   0  0  0  0  0  0  0  0  0  0  0  0
   -0.4368   -3.2041   -1.0544 C   0  0  0  0  0  0  0  0  0  0  0  0
   -3.5495    2.4380    0.0928 C   0  0  0  0  0  0  0  0  0  0  0  0
    0.6560    4.2854   -1.5960 C   0  0  0  0  0  0  0  0  0  0  0  0
    1.8049    2.4708   -2.7209 C   0  0  0  0  0  0  0  0  0  0  0  0
    1.0898    5.1672   -2.5856 C   0  0  0  0  0  0  0  0  0  0  0  0
    2.2487    3.3599   -3.6977 C   0  0  0  0  0  0  0  0  0  0  0  0
    1.8917    4.7064   -3.6302 C   0  0  0  0  0  0  0  0  0  0  0  0
   -3.8310    0.5249   -0.3219 H   0  0  0  0  0  0  0  0  0  0  0  0
   -0.7130    1.2965    1.7448 H   0  0  0  0  0  0  0  0  0  0  0  0
   -3.2237    1.3943    1.9178 H   0  0  0  0  0  0  0  0  0  0  0  0
   -2.4176    2.9450    1.7858 H   0  0  0  0  0  0  0  0  0  0  0  0
    3.8964    2.4086   -1.0441 H   0  0  0  0  0  0  0  0  0  0  0  0
    3.2120    2.9023    0.5256 H   0  0  0  0  0  0  0  0  0  0  0  0
    4.6604    1.9080    0.4542 H   0  0  0  0  0  0  0  0  0  0  0  0
    4.8584   -1.3270    1.3550 H   0  0  0  0  0  0  0  0  0  0  0  0
    4.9747   -1.6799   -0.3833 H   0  0  0  0  0  0  0  0  0  0  0  0
    5.4555   -0.1023    0.2288 H   0  0  0  0  0  0  0  0  0  0  0  0
    0.1786   -2.9197   -1.9140 H   0  0  0  0  0  0  0  0  0  0  0  0
    0.1729   -3.7445   -0.3260 H   0  0  0  0  0  0  0  0  0  0  0  0
   -1.1964   -3.9047   -1.4193 H   0  0  0  0  0  0  0  0  0  0  0  0
    0.0156    4.6503   -0.7947 H   0  0  0  0  0  0  0  0  0  0  0  0
    2.0735    1.4206   -2.8044 H   0  0  0  0  0  0  0  0  0  0  0  0
    0.7900    6.2116   -2.5499 H   0  0  0  0  0  0  0  0  0  0  0  0
    2.8685    3.0004   -4.5164 H   0  0  0  0  0  0  0  0  0  0  0  0
    2.2284    5.3957   -4.3990 H   0  0  0  0  0  0  0  0  0  0  0  0
  1 10  1  0  0  0  0
  1 15  1  0  0  0  0
  2 21  1  0  0  0  0
  2 27  1  0  0  0  0
  3 21  2  0  0  0  0
  4 10  1  0  0  0  0
  4 11  1  0  0  0  0
  4 16  1  0  0  0  0
  5  8  1  0  0  0  0
  5 12  2  0  0  0  0
  6  7  1  0  0  0  0
  6 11  2  0  0  0  0
  7 16  2  0  0  0  0
  8 11  1  0  0  0  0
  8 28  1  1  0  0  0
  8 14  1  0  0  0  0
  9 10  2  0  0  0  0
  9 12  1  0  0  0  0
  9 13  1  0  0  0  0
 12 17  1  0  0  0  0
 13 15  2  0  0  0  0
 13 18  1  0  0  0  0
 14 21  1  0  0  0  0
 14 29  1  0  0  0  0
 14 30  1  0  0  0  0
 15 19  1  0  0  0  0
 16 20  1  0  0  0  0
 17 22  2  0  0  0  0
 17 23  1  0  0  0  0
 18 31  1  0  0  0  0
 18 32  1  0  0  0  0
 18 33  1  0  0  0  0
 19 34  1  0  0  0  0
 19 35  1  0  0  0  0
 19 36  1  0  0  0  0
 20 37  1  0  0  0  0
 20 38  1  0  0  0  0
 20 39  1  0  0  0  0
 22 24  1  0  0  0  0
 22 40  1  0  0  0  0
 23 25  2  0  0  0  0
 23 41  1  0  0  0  0
 24 26  2  0  0  0  0
 24 42  1  0  0  0  0
 25 26  1  0  0  0  0
 25 43  1  0  0  0  0
 26 44  1  0  0  0  0
M  END
>  <Mol_ID>
5916

>  <Formula>
C19H17ClN4O2S

>  <MolWeight>
400.88188

>  <Cat>
S6993

>  <Name>
(+)-JQ1 carboxylic acid

>  <Synonyms>
(+)-JQ1-COOH

>  <Target>
BET

>  <Form>
Free Base

>  <CAS>
202592-23-2

>  <URL>
http://www.selleckchem.com/products/jq-1-carboxylic-acid.html

$$$$
