(+)-Fenchone
 OpenBabel08302521363D

 27 28  0  0  1  0  0  0  0  0999 V2000
    1.0820    0.0521   -0.1144 C   0  0  0  0  0  0  0  0  0  0  0  0
    2.7927    1.9570   -1.5796 O   0  0  0  0  0  0  0  0  0  0  0  0
    5.7450    1.2577   -1.3383 C   0  0  0  0  0  0  0  0  0  0  0  0
    4.9000    2.5780    0.6087 C   0  0  0  0  0  0  0  0  0  0  0  0
    2.5889    0.0028   -0.1152 C   0  0  1  0  0  0  0  0  0  0  0  0
    3.2881    1.2062   -0.7508 C   0  0  0  0  0  0  0  0  0  0  0  0
    3.2584    0.0250    1.2616 C   0  0  0  0  0  0  0  0  0  0  0  0
    3.2149   -1.2415   -0.7686 C   0  0  0  0  0  0  0  0  0  0  0  0
    4.7142    1.2982   -0.2121 C   0  0  0  0  0  0  0  0  0  0  0  0
    4.6859    0.0184    0.6890 C   0  0  2  0  0  0  0  0  0  0  0  0
    4.6247   -1.2816   -0.1449 C   0  0  0  0  0  0  0  0  0  0  0  0
    0.6594   -0.8101    0.4120 H   0  0  0  0  0  0  0  0  0  0  0  0
    0.7159    0.9599    0.3773 H   0  0  0  0  0  0  0  0  0  0  0  0
    0.6877    0.0508   -1.1361 H   0  0  0  0  0  0  0  0  0  0  0  0
    5.7285    2.1899   -1.9155 H   0  0  0  0  0  0  0  0  0  0  0  0
    6.7559    1.1282   -0.9380 H   0  0  0  0  0  0  0  0  0  0  0  0
    5.5514    0.4576   -2.0592 H   0  0  0  0  0  0  0  0  0  0  0  0
    4.1096    2.7258    1.3506 H   0  0  0  0  0  0  0  0  0  0  0  0
    5.8600    2.5641    1.1363 H   0  0  0  0  0  0  0  0  0  0  0  0
    4.8850    3.4628   -0.0385 H   0  0  0  0  0  0  0  0  0  0  0  0
    3.0337   -0.8649    1.8612 H   0  0  0  0  0  0  0  0  0  0  0  0
    3.0199    0.9144    1.8519 H   0  0  0  0  0  0  0  0  0  0  0  0
    3.2662   -1.1563   -1.8597 H   0  0  0  0  0  0  0  0  0  0  0  0
    2.6665   -2.1563   -0.5185 H   0  0  0  0  0  0  0  0  0  0  0  0
    5.4753    0.0013    1.4447 H   0  0  0  0  0  0  0  0  0  0  0  0
    5.4142   -1.3705   -0.8944 H   0  0  0  0  0  0  0  0  0  0  0  0
    4.7084   -2.1545    0.5146 H   0  0  0  0  0  0  0  0  0  0  0  0
  1 12  1  0  0  0  0
  1 13  1  0  0  0  0
  1 14  1  0  0  0  0
  2  6  2  0  0  0  0
  3  9  1  0  0  0  0
  3 15  1  0  0  0  0
  3 16  1  0  0  0  0
  3 17  1  0  0  0  0
  4  9  1  0  0  0  0
  4 18  1  0  0  0  0
  4 19  1  0  0  0  0
  4 20  1  0  0  0  0
  5  1  1  1  0  0  0
  5  6  1  0  0  0  0
  5  7  1  0  0  0  0
  5  8  1  0  0  0  0
  6  9  1  0  0  0  0
  7 21  1  0  0  0  0
  7 22  1  0  0  0  0
  8 11  1  0  0  0  0
  8 23  1  0  0  0  0
  8 24  1  0  0  0  0
  9 10  1  0  0  0  0
 10  7  1  0  0  0  0
 10 11  1  0  0  0  0
 10 25  1  1  0  0  0
 11 26  1  0  0  0  0
 11 27  1  0  0  0  0
M  END
>  <Mol_ID>
7336

>  <Formula>
C10H16O

>  <MolWeight>
152.23344

>  <Cat>
E4381

>  <Name>
(+)-Fenchone

>  <Synonyms>
(+)-Fenchone

>  <Target>
Others

>  <Form>
free base

>  <CAS>
4695-62-9

>  <URL>
https://www.selleckchem.com/products/fenchone.html

$$$$
