(+)-Bicuculline.cdx
 OpenBabel08302519553D

 44 49  0  0  0  0  0  0  0  0999 V2000
    2.8429   -0.8123    1.8487 C   0  0  2  0  0  0  0  0  0  0  0  0
    3.3412    0.5490    1.3581 C   0  0  0  0  0  0  0  0  0  0  0  0
    3.7179   -2.0450    1.3480 C   0  0  2  0  0  0  0  0  0  0  0  0
    1.5047   -0.8523    1.2603 O   0  0  0  0  0  0  0  0  0  0  0  0
    2.3484    1.0921    0.5447 C   0  0  0  0  0  0  0  0  0  0  0  0
    4.5601    1.1349    1.7080 C   0  0  0  0  0  0  0  0  0  0  0  0
    3.4586   -3.5452    1.7662 C   0  0  0  0  0  0  0  0  0  0  0  0
    5.1403   -1.7687    1.7309 N   0  0  0  0  0  0  0  0  0  0  0  0
    1.1934    0.2705    0.5026 C   0  0  0  0  0  0  0  0  0  0  0  0
    2.6753    2.2912   -0.0635 C   0  0  0  0  0  0  0  0  0  0  0  0
    4.8729    2.3224    1.0891 C   0  0  0  0  0  0  0  0  0  0  0  0
    3.9118   -3.9118    3.0737 C   0  0  0  0  0  0  0  0  0  0  0  0
    3.4415   -4.5524    0.7716 C   0  0  0  0  0  0  0  0  0  0  0  0
    5.4190   -2.0492    3.1685 C   0  0  0  0  0  0  0  0  0  0  0  0
    6.0759   -2.4063    0.8055 C   0  0  0  0  0  0  0  0  0  0  0  0
    0.0923    0.4155   -0.0221 O   0  0  0  0  0  0  0  0  0  0  0  0
    3.9134    2.8167    0.2296 C   0  0  0  0  0  0  0  0  0  0  0  0
    1.9417    3.0415   -0.9364 O   0  0  0  0  0  0  0  0  0  0  0  0
    4.4252   -5.1867    3.3646 C   0  0  0  0  0  0  0  0  0  0  0  0
    4.3130   -2.7729    3.9643 C   0  0  0  0  0  0  0  0  0  0  0  0
    4.0506   -5.7730    1.0677 C   0  0  0  0  0  0  0  0  0  0  0  0
    4.1228    3.9855   -0.4681 O   0  0  0  0  0  0  0  0  0  0  0  0
    2.8888    4.1007   -1.2166 C   0  0  0  0  0  0  0  0  0  0  0  0
    4.5508   -6.0629    2.3173 C   0  0  0  0  0  0  0  0  0  0  0  0
    4.4002   -6.7335    0.1558 O   0  0  0  0  0  0  0  0  0  0  0  0
    5.3054   -7.1976    2.3445 O   0  0  0  0  0  0  0  0  0  0  0  0
    5.2801   -7.5651    0.9518 C   0  0  0  0  0  0  0  0  0  0  0  0
    2.7214   -0.7568    2.9324 H   0  0  0  0  0  0  0  0  0  0  0  0
    3.6144   -2.0202    0.2522 H   0  0  0  0  0  0  0  0  0  0  0  0
    5.2523    0.6827    2.4051 H   0  0  0  0  0  0  0  0  0  0  0  0
    5.8090    2.8452    1.2528 H   0  0  0  0  0  0  0  0  0  0  0  0
    3.1841   -4.3312   -0.2565 H   0  0  0  0  0  0  0  0  0  0  0  0
    6.3346   -2.6484    3.2569 H   0  0  0  0  0  0  0  0  0  0  0  0
    5.6299   -1.1033    3.6743 H   0  0  0  0  0  0  0  0  0  0  0  0
    5.9221   -3.4828    0.6906 H   0  0  0  0  0  0  0  0  0  0  0  0
    5.9785   -1.9489   -0.1865 H   0  0  0  0  0  0  0  0  0  0  0  0
    7.1094   -2.2558    1.1253 H   0  0  0  0  0  0  0  0  0  0  0  0
    4.9158   -5.4005    4.3089 H   0  0  0  0  0  0  0  0  0  0  0  0
    4.6838   -3.1216    4.9334 H   0  0  0  0  0  0  0  0  0  0  0  0
    3.4409   -2.1503    4.1823 H   0  0  0  0  0  0  0  0  0  0  0  0
    2.4289    5.0662   -0.9763 H   0  0  0  0  0  0  0  0  0  0  0  0
    3.1281    4.0835   -2.2876 H   0  0  0  0  0  0  0  0  0  0  0  0
    6.3011   -7.4975    0.5453 H   0  0  0  0  0  0  0  0  0  0  0  0
    4.9522   -8.6085    0.8820 H   0  0  0  0  0  0  0  0  0  0  0  0
  1  2  1  0  0  0  0
  1  4  1  0  0  0  0
  1 28  1  1  0  0  0
  2  5  2  0  0  0  0
  2  6  1  0  0  0  0
  3  7  1  0  0  0  0
  3  8  1  0  0  0  0
  3  1  1  0  0  0  0
  3 29  1  6  0  0  0
  4  9  1  0  0  0  0
  5 10  1  0  0  0  0
  5  9  1  0  0  0  0
  6 11  2  0  0  0  0
  6 30  1  0  0  0  0
  7 12  2  0  0  0  0
  7 13  1  0  0  0  0
  8 14  1  0  0  0  0
  8 15  1  0  0  0  0
  9 16  2  0  0  0  0
 10 17  2  0  0  0  0
 10 18  1  0  0  0  0
 11 17  1  0  0  0  0
 11 31  1  0  0  0  0
 12 19  1  0  0  0  0
 12 20  1  0  0  0  0
 13 21  2  0  0  0  0
 13 32  1  0  0  0  0
 14 20  1  0  0  0  0
 14 33  1  0  0  0  0
 14 34  1  0  0  0  0
 15 35  1  0  0  0  0
 15 36  1  0  0  0  0
 15 37  1  0  0  0  0
 17 22  1  0  0  0  0
 18 23  1  0  0  0  0
 19 24  2  0  0  0  0
 19 38  1  0  0  0  0
 20 39  1  0  0  0  0
 20 40  1  0  0  0  0
 21 25  1  0  0  0  0
 21 24  1  0  0  0  0
 22 23  1  0  0  0  0
 23 41  1  0  0  0  0
 23 42  1  0  0  0  0
 24 26  1  0  0  0  0
 25 27  1  0  0  0  0
 26 27  1  0  0  0  0
 27 43  1  0  0  0  0
 27 44  1  0  0  0  0
M  END
>  <Mol_ID>
2135

>  <Formula>
C20H17NO6

>  <MolWeight>
367.35208

>  <Cat>
S7071

>  <Name>
(+)-Bicuculline

>  <Synonyms>
d-Bicuculline

>  <Target>
ADC Cytotoxin,GABA Receptor

>  <Form>
free base

>  <CAS>
485-49-4

>  <URL>
http://selleckchem.com/products/bicuculline.html

$$$$
