(+/-)-Naringenin
 OpenBabel08302521373D

 32 34  0  0  0  0  0  0  0  0999 V2000
    2.2979    1.6449   -0.0635 O   0  0  0  0  0  0  0  0  0  0  0  0
   -0.1295    2.6467   -0.1256 O   0  0  0  0  0  0  0  0  0  0  0  0
   -3.6821   -0.4452    0.0032 O   0  0  0  0  0  0  0  0  0  0  0  0
    5.1604   -6.5528    0.8712 O   0  0  0  0  0  0  0  0  0  0  0  0
    0.3976    0.2756   -0.0237 C   0  0  0  0  0  0  0  0  0  0  0  0
   -0.0660   -1.0405    0.0224 C   0  0  0  0  0  0  0  0  0  0  0  0
    1.8500    0.5068    0.0512 C   0  0  0  0  0  0  0  0  0  0  0  0
   -0.5136    1.3338   -0.0821 C   0  0  0  0  0  0  0  0  0  0  0  0
    0.7495   -2.1358    0.0989 O   0  0  0  0  0  0  0  0  0  0  0  0
   -1.4380   -1.2992    0.0362 C   0  0  0  0  0  0  0  0  0  0  0  0
    2.7074   -0.6856    0.3645 C   0  0  0  0  0  0  0  0  0  0  0  0
   -1.8833    1.0791   -0.0768 C   0  0  0  0  0  0  0  0  0  0  0  0
    2.1050   -1.9057   -0.3196 C   0  0  3  0  0  0  0  0  0  0  0  0
   -2.3350   -0.2355   -0.0135 C   0  0  0  0  0  0  0  0  0  0  0  0
    2.9223   -3.1501   -0.0044 C   0  0  0  0  0  0  0  0  0  0  0  0
    4.0348   -3.4835   -0.7956 C   0  0  0  0  0  0  0  0  0  0  0  0
    2.6063   -3.9754    1.0886 C   0  0  0  0  0  0  0  0  0  0  0  0
    4.7970   -4.6220   -0.5138 C   0  0  0  0  0  0  0  0  0  0  0  0
    3.3639   -5.1144    1.3667 C   0  0  0  0  0  0  0  0  0  0  0  0
    4.4509   -5.4299    0.5639 C   0  0  0  0  0  0  0  0  0  0  0  0
    0.8536    2.6802   -0.1249 H   0  0  0  0  0  0  0  0  0  0  0  0
   -3.8562   -1.3990    0.0671 H   0  0  0  0  0  0  0  0  0  0  0  0
    5.8796   -6.6535    0.2268 H   0  0  0  0  0  0  0  0  0  0  0  0
   -1.7861   -2.3266    0.0851 H   0  0  0  0  0  0  0  0  0  0  0  0
    2.7397   -0.7968    1.4544 H   0  0  0  0  0  0  0  0  0  0  0  0
    3.7224   -0.4978   -0.0019 H   0  0  0  0  0  0  0  0  0  0  0  0
   -2.5934    1.9007   -0.1086 H   0  0  0  0  0  0  0  0  0  0  0  0
    2.0875   -1.7719   -1.4111 H   0  0  0  0  0  0  0  0  0  0  0  0
    4.3164   -2.8598   -1.6417 H   0  0  0  0  0  0  0  0  0  0  0  0
    1.7578   -3.7446    1.7299 H   0  0  0  0  0  0  0  0  0  0  0  0
    5.6489   -4.8610   -1.1424 H   0  0  0  0  0  0  0  0  0  0  0  0
    3.1031   -5.7528    2.2060 H   0  0  0  0  0  0  0  0  0  0  0  0
  1  7  2  0  0  0  0
  2  8  1  0  0  0  0
  2 21  1  0  0  0  0
  3 14  1  0  0  0  0
  3 22  1  0  0  0  0
  4 20  1  0  0  0  0
  4 23  1  0  0  0  0
  5  6  2  0  0  0  0
  5  7  1  0  0  0  0
  5  8  1  0  0  0  0
  6  9  1  0  0  0  0
  6 10  1  0  0  0  0
  7 11  1  0  0  0  0
  8 12  2  0  0  0  0
  9 13  1  0  0  0  0
 10 14  2  0  0  0  0
 10 24  1  0  0  0  0
 11 13  1  0  0  0  0
 11 25  1  0  0  0  0
 11 26  1  0  0  0  0
 12 14  1  0  0  0  0
 12 27  1  0  0  0  0
 13 15  1  0  0  0  0
 13 28  1  0  0  0  0
 15 16  2  0  0  0  0
 15 17  1  0  0  0  0
 16 18  1  0  0  0  0
 16 29  1  0  0  0  0
 17 19  2  0  0  0  0
 17 30  1  0  0  0  0
 18 20  2  0  0  0  0
 18 31  1  0  0  0  0
 19 20  1  0  0  0  0
 19 32  1  0  0  0  0
M  END
>  <Mol_ID>
7568

>  <Formula>
C15H12O5

>  <MolWeight>
272.25278

>  <Cat>
E2862

>  <Name>
(+/-)-Naringenin

>  <Target>
Others

>  <Form>
free base

>  <CAS>
93602-28-9

>  <URL>
https://www.selleckchem.com/products/------naringenin.html

$$$$
