(-)-TERPINEN-4-OL
 OpenBabel08302521363D

 29 29  0  0  1  0  0  0  0  0999 V2000
    3.2492    0.0609    1.3947 C   0  0  0  0  0  0  0  0  0  0  0  0
    4.7752    0.1318    1.3261 C   0  0  0  0  0  0  0  0  0  0  0  0
    2.7198    1.1648    2.3301 C   0  0  0  0  0  0  0  0  0  0  0  0
    1.1250    0.0247    0.2758 O   0  0  0  0  0  0  0  0  0  0  0  0
    5.0355   -0.0870   -3.7469 C   0  0  0  0  0  0  0  0  0  0  0  0
    2.5476    0.0373   -0.0052 C   0  0  1  0  0  0  0  0  0  0  0  0
    2.7678    1.3083   -0.8563 C   0  0  0  0  0  0  0  0  0  0  0  0
    2.8439   -1.2830   -0.7702 C   0  0  0  0  0  0  0  0  0  0  0  0
    3.8643    1.2776   -1.9251 C   0  0  0  0  0  0  0  0  0  0  0  0
    3.7139   -1.2053   -1.9811 C   0  0  0  0  0  0  0  0  0  0  0  0
    4.1785   -0.0627   -2.5113 C   0  0  0  0  0  0  0  0  0  0  0  0
    2.9913   -0.8828    1.8996 H   0  0  0  0  0  0  0  0  0  0  0  0
    5.1174    1.0585    0.8580 H   0  0  0  0  0  0  0  0  0  0  0  0
    5.2030    0.0958    2.3356 H   0  0  0  0  0  0  0  0  0  0  0  0
    5.1917   -0.7128    0.7702 H   0  0  0  0  0  0  0  0  0  0  0  0
    1.6298    1.1075    2.4479 H   0  0  0  0  0  0  0  0  0  0  0  0
    3.1517    1.0553    3.3316 H   0  0  0  0  0  0  0  0  0  0  0  0
    2.9734    2.1657    1.9692 H   0  0  0  0  0  0  0  0  0  0  0  0
    0.9185   -0.7952    0.7517 H   0  0  0  0  0  0  0  0  0  0  0  0
    5.9974   -0.5658   -3.5389 H   0  0  0  0  0  0  0  0  0  0  0  0
    4.5354   -0.6324   -4.5555 H   0  0  0  0  0  0  0  0  0  0  0  0
    5.2380    0.9244   -4.1136 H   0  0  0  0  0  0  0  0  0  0  0  0
    1.8244    1.5667   -1.3562 H   0  0  0  0  0  0  0  0  0  0  0  0
    2.9653    2.1745   -0.2096 H   0  0  0  0  0  0  0  0  0  0  0  0
    3.2968   -2.0134   -0.0870 H   0  0  0  0  0  0  0  0  0  0  0  0
    1.9004   -1.7425   -1.0912 H   0  0  0  0  0  0  0  0  0  0  0  0
    3.5404    1.9464   -2.7349 H   0  0  0  0  0  0  0  0  0  0  0  0
    4.7878    1.7075   -1.5245 H   0  0  0  0  0  0  0  0  0  0  0  0
    3.9652   -2.1531   -2.4503 H   0  0  0  0  0  0  0  0  0  0  0  0
  1  2  1  0  0  0  0
  1  3  1  0  0  0  0
  1 12  1  0  0  0  0
  2 13  1  0  0  0  0
  2 14  1  0  0  0  0
  2 15  1  0  0  0  0
  3 16  1  0  0  0  0
  3 17  1  0  0  0  0
  3 18  1  0  0  0  0
  4 19  1  0  0  0  0
  5 11  1  0  0  0  0
  5 20  1  0  0  0  0
  5 21  1  0  0  0  0
  5 22  1  0  0  0  0
  6  7  1  0  0  0  0
  6  8  1  0  0  0  0
  6  4  1  1  0  0  0
  6  1  1  0  0  0  0
  7  9  1  0  0  0  0
  7 23  1  0  0  0  0
  7 24  1  0  0  0  0
  8 10  1  0  0  0  0
  8 25  1  0  0  0  0
  8 26  1  0  0  0  0
  9 11  1  0  0  0  0
  9 27  1  0  0  0  0
  9 28  1  0  0  0  0
 10 11  2  0  0  0  0
 10 29  1  0  0  0  0
M  END
>  <Mol_ID>
7273

>  <Formula>
C10H18O

>  <MolWeight>
154.24932

>  <Cat>
E4292

>  <Name>
(-)-TERPINEN-4-OL

>  <Synonyms>
(-)-TERPINEN-4-OL

>  <Target>
antibacterial

>  <Form>
free base

>  <CAS>
20126-76-5

>  <URL>
https://www.selleckchem.com/products/terpinen-4-ol.html

$$$$
