(-)-CAMPHOR
 OpenBabel08302521353D

 27 28  0  0  1  0  0  0  0  0999 V2000
    1.0842   -0.0206   -0.1153 C   0  0  0  0  0  0  0  0  0  0  0  0
    2.9289   -1.2027    2.2123 C   0  0  0  0  0  0  0  0  0  0  0  0
    2.9339    1.2671    2.1430 C   0  0  0  0  0  0  0  0  0  0  0  0
    2.8232    1.8821   -1.6009 O   0  0  0  0  0  0  0  0  0  0  0  0
    2.5937   -0.0424   -0.0838 C   0  0  2  0  0  0  0  0  0  0  0  0
    3.2612    0.0062    1.3157 C   0  0  0  0  0  0  0  0  0  0  0  0
    3.3047    1.1400   -0.7532 C   0  0  0  0  0  0  0  0  0  0  0  0
    3.2444   -1.2739   -0.7614 C   0  0  0  0  0  0  0  0  0  0  0  0
    4.6927   -0.0078    0.7145 C   0  0  2  0  0  0  0  0  0  0  0  0
    4.7205    1.2281   -0.2222 C   0  0  0  0  0  0  0  0  0  0  0  0
    4.6797   -1.2659   -0.1875 C   0  0  0  0  0  0  0  0  0  0  0  0
    0.6703   -0.8952    0.3955 H   0  0  0  0  0  0  0  0  0  0  0  0
    0.6866    0.8729    0.3752 H   0  0  0  0  0  0  0  0  0  0  0  0
    0.7030   -0.0231   -1.1424 H   0  0  0  0  0  0  0  0  0  0  0  0
    3.5311   -1.1790    3.1273 H   0  0  0  0  0  0  0  0  0  0  0  0
    1.8739   -1.1815    2.5089 H   0  0  0  0  0  0  0  0  0  0  0  0
    3.1010   -2.1735    1.7423 H   0  0  0  0  0  0  0  0  0  0  0  0
    3.1624    2.2080    1.6373 H   0  0  0  0  0  0  0  0  0  0  0  0
    1.8687    1.2998    2.3960 H   0  0  0  0  0  0  0  0  0  0  0  0
    3.4987    1.2637    3.0817 H   0  0  0  0  0  0  0  0  0  0  0  0
    3.2600   -1.1933   -1.8535 H   0  0  0  0  0  0  0  0  0  0  0  0
    2.7309   -2.2070   -0.5028 H   0  0  0  0  0  0  0  0  0  0  0  0
    5.5067   -0.0108    1.4441 H   0  0  0  0  0  0  0  0  0  0  0  0
    5.4556    1.1287   -1.0299 H   0  0  0  0  0  0  0  0  0  0  0  0
    4.8744    2.1602    0.3204 H   0  0  0  0  0  0  0  0  0  0  0  0
    5.4344   -1.2202   -0.9806 H   0  0  0  0  0  0  0  0  0  0  0  0
    4.8703   -2.1752    0.3921 H   0  0  0  0  0  0  0  0  0  0  0  0
  1 12  1  0  0  0  0
  1 13  1  0  0  0  0
  1 14  1  0  0  0  0
  2  6  1  0  0  0  0
  2 15  1  0  0  0  0
  2 16  1  0  0  0  0
  2 17  1  0  0  0  0
  3  6  1  0  0  0  0
  3 18  1  0  0  0  0
  3 19  1  0  0  0  0
  3 20  1  0  0  0  0
  4  7  2  0  0  0  0
  5  1  1  6  0  0  0
  5  6  1  0  0  0  0
  5  7  1  0  0  0  0
  5  8  1  0  0  0  0
  6  9  1  0  0  0  0
  7 10  1  0  0  0  0
  8 11  1  0  0  0  0
  8 21  1  0  0  0  0
  8 22  1  0  0  0  0
  9 10  1  0  0  0  0
  9 11  1  0  0  0  0
  9 23  1  1  0  0  0
 10 24  1  0  0  0  0
 10 25  1  0  0  0  0
 11 26  1  0  0  0  0
 11 27  1  0  0  0  0
M  END
>  <Mol_ID>
7004

>  <Formula>
C10H16O

>  <MolWeight>
152.23344

>  <Cat>
E4294

>  <Name>
(-)-CAMPHOR

>  <Synonyms>
(-)-CAMPHOR

>  <Target>
Others

>  <Form>
free base

>  <CAS>
464-48-2

>  <URL>
https://www.selleckchem.com/products/camphor.html

$$$$
