(-)-Camphoric acid
 OpenBabel08302521373D

 30 30  0  0  1  0  0  0  0  0999 V2000
    0.9083    0.1659   -0.1022 C   0  0  0  0  0  0  0  0  0  0  0  0
    0.2549   -0.6966   -0.9134 O   0  0  0  0  0  0  0  0  0  0  0  0
    0.2933    0.9905    0.5557 O   0  0  0  0  0  0  0  0  0  0  0  0
    2.9578    0.2338   -1.5449 C   0  0  0  0  0  0  0  0  0  0  0  0
    1.9451   -1.9846    1.4979 C   0  0  0  0  0  0  0  0  0  0  0  0
    3.4301   -2.3889   -0.4298 C   0  0  0  0  0  0  0  0  0  0  0  0
    4.2164   -1.0903    2.9038 C   0  0  0  0  0  0  0  0  0  0  0  0
    4.7141   -2.2944    3.2634 O   0  0  0  0  0  0  0  0  0  0  0  0
    3.7642   -0.3096    3.7259 O   0  0  0  0  0  0  0  0  0  0  0  0
    2.4428    0.0110   -0.1031 C   0  0  2  0  0  0  0  0  0  0  0  0
    2.9966   -1.3083    0.5873 C   0  0  0  0  0  0  0  0  0  0  0  0
    3.0321    1.1293    0.7870 C   0  0  0  0  0  0  0  0  0  0  0  0
    4.2678   -0.8434    1.3979 C   0  0  1  0  0  0  0  0  0  0  0  0
    4.4301    0.6575    1.1326 C   0  0  0  0  0  0  0  0  0  0  0  0
    0.8148   -1.3235   -1.3989 H   0  0  0  0  0  0  0  0  0  0  0  0
    2.6093   -0.5413   -2.2353 H   0  0  0  0  0  0  0  0  0  0  0  0
    2.6065    1.1913   -1.9443 H   0  0  0  0  0  0  0  0  0  0  0  0
    4.0524    0.2416   -1.5957 H   0  0  0  0  0  0  0  0  0  0  0  0
    1.0923   -2.3549    0.9197 H   0  0  0  0  0  0  0  0  0  0  0  0
    2.3663   -2.8605    2.0060 H   0  0  0  0  0  0  0  0  0  0  0  0
    1.5619   -1.3010    2.2619 H   0  0  0  0  0  0  0  0  0  0  0  0
    4.2435   -2.0447   -1.0770 H   0  0  0  0  0  0  0  0  0  0  0  0
    3.7968   -3.2856    0.0838 H   0  0  0  0  0  0  0  0  0  0  0  0
    2.5945   -2.6955   -1.0679 H   0  0  0  0  0  0  0  0  0  0  0  0
    5.0419   -2.8396    2.5216 H   0  0  0  0  0  0  0  0  0  0  0  0
    3.0482    2.1037    0.2850 H   0  0  0  0  0  0  0  0  0  0  0  0
    2.4549    1.2525    1.7116 H   0  0  0  0  0  0  0  0  0  0  0  0
    5.1813   -1.3281    1.0281 H   0  0  0  0  0  0  0  0  0  0  0  0
    4.8397    1.2177    1.9792 H   0  0  0  0  0  0  0  0  0  0  0  0
    5.1091    0.8200    0.2883 H   0  0  0  0  0  0  0  0  0  0  0  0
  1  2  1  0  0  0  0
  1  3  2  0  0  0  0
  2 15  1  0  0  0  0
  4 16  1  0  0  0  0
  4 17  1  0  0  0  0
  4 18  1  0  0  0  0
  5 11  1  0  0  0  0
  5 19  1  0  0  0  0
  5 20  1  0  0  0  0
  5 21  1  0  0  0  0
  6 11  1  0  0  0  0
  6 22  1  0  0  0  0
  6 23  1  0  0  0  0
  6 24  1  0  0  0  0
  7  8  1  0  0  0  0
  7  9  2  0  0  0  0
  8 25  1  0  0  0  0
 10  1  1  1  0  0  0
 10  4  1  0  0  0  0
 10 11  1  0  0  0  0
 10 12  1  0  0  0  0
 11 13  1  0  0  0  0
 12 14  1  0  0  0  0
 12 26  1  0  0  0  0
 12 27  1  0  0  0  0
 13  7  1  0  0  0  0
 13 14  1  0  0  0  0
 13 28  1  6  0  0  0
 14 29  1  0  0  0  0
 14 30  1  0  0  0  0
M  END
>  <Mol_ID>
7408

>  <Formula>
C10H16O4

>  <MolWeight>
200.23164

>  <Cat>
E4502

>  <Name>
(-)-Camphoric acid

>  <Target>
GluR

>  <Form>
Free base

>  <CAS>
560-09-8

>  <URL>
https://www.selleckchem.com/products/camphoric-acid.html

$$$$
