(-)-MK 801 maleate.cdx
 OpenBabel08302522063D

 44 46  0  0  0  0  0  0  0  0999 V2000
   -0.1545   -0.9324   -0.6768 C   0  0  2  0  0  0  0  0  0  0  0  0
   -1.7697   -0.3056   -1.2978 C   0  0  0  0  0  0  0  0  0  0  0  0
    1.8793   -0.5773   -0.8506 C   0  0  0  0  0  0  0  0  0  0  0  0
   -2.1513    1.2034   -1.1571 C   0  0  0  0  0  0  0  0  0  0  0  0
   -2.7965   -1.2306   -0.8780 C   0  0  0  0  0  0  0  0  0  0  0  0
    2.2071    1.1089   -0.0869 C   0  0  0  0  0  0  0  0  0  0  0  0
    2.8791   -1.5148   -0.7686 C   0  0  0  0  0  0  0  0  0  0  0  0
   -3.3950    1.5380   -0.5382 C   0  0  0  0  0  0  0  0  0  0  0  0
   -3.9280   -0.8111   -0.1602 C   0  0  0  0  0  0  0  0  0  0  0  0
    0.3913    1.8973    0.4159 C   0  0  1  0  0  0  0  0  0  0  0  0
    3.3926    1.4610    0.5007 C   0  0  0  0  0  0  0  0  0  0  0  0
    4.0444   -1.0088   -0.0990 C   0  0  0  0  0  0  0  0  0  0  0  0
   -4.2052    0.5404    0.0275 C   0  0  0  0  0  0  0  0  0  0  0  0
    4.2876    0.3598    0.4799 C   0  0  0  0  0  0  0  0  0  0  0  0
    0.9550   -0.1464    0.8176 C   0  0  0  0  0  0  0  0  0  0  0  0
    0.4027   -0.9398    1.8559 C   0  0  0  0  0  0  0  0  0  0  0  0
    0.6168    0.7785   -1.1501 C   0  0  0  0  0  0  0  0  0  0  0  0
   -0.9585    2.4177   -0.7332 C   0  0  0  0  0  0  0  0  0  0  0  0
   -0.2114   -2.4535   -0.8522 C   0  0  0  0  0  0  0  0  0  0  0  0
   -0.7694    0.5086    0.4125 N   0  0  0  0  0  0  0  0  0  0  0  0
    1.2587    2.0759   -1.6075 O   0  0  0  0  0  0  0  0  0  0  0  0
    0.3244    0.2858   -2.2855 O   0  0  0  0  0  0  0  0  0  0  0  0
   -0.9890   -1.3480    2.2637 C   0  0  0  0  0  0  0  0  0  0  0  0
   -1.0965   -2.6530    2.5806 O   0  0  0  0  0  0  0  0  0  0  0  0
   -1.9250   -0.5795    2.4145 O   0  0  0  0  0  0  0  0  0  0  0  0
   -2.6403   -2.3018   -0.7965 H   0  0  0  0  0  0  0  0  0  0  0  0
    2.7768   -2.5666   -1.0061 H   0  0  0  0  0  0  0  0  0  0  0  0
   -3.5960    2.5618   -0.2302 H   0  0  0  0  0  0  0  0  0  0  0  0
   -4.5113   -1.5571    0.3855 H   0  0  0  0  0  0  0  0  0  0  0  0
    0.3973    2.4043    1.3788 H   0  0  0  0  0  0  0  0  0  0  0  0
    3.5581    2.3671    1.0620 H   0  0  0  0  0  0  0  0  0  0  0  0
    4.8413   -1.7340    0.1111 H   0  0  0  0  0  0  0  0  0  0  0  0
   -4.9919    0.8108    0.7329 H   0  0  0  0  0  0  0  0  0  0  0  0
    5.2227    0.4776    1.0386 H   0  0  0  0  0  0  0  0  0  0  0  0
    1.9676   -0.1686    1.2588 H   0  0  0  0  0  0  0  0  0  0  0  0
    1.1033   -1.3251    2.5928 H   0  0  0  0  0  0  0  0  0  0  0  0
   -0.6467    2.8006   -1.7175 H   0  0  0  0  0  0  0  0  0  0  0  0
   -1.4796    3.2525   -0.2579 H   0  0  0  0  0  0  0  0  0  0  0  0
   -0.1425   -3.0280    0.0681 H   0  0  0  0  0  0  0  0  0  0  0  0
   -1.0080   -2.8304   -1.4964 H   0  0  0  0  0  0  0  0  0  0  0  0
    0.6470   -2.7512   -1.4691 H   0  0  0  0  0  0  0  0  0  0  0  0
   -1.5744    0.4545    1.0308 H   0  0  0  0  0  0  0  0  0  0  0  0
    1.1208    2.0401   -2.5817 H   0  0  0  0  0  0  0  0  0  0  0  0
   -0.2902   -3.1883    2.5063 H   0  0  0  0  0  0  0  0  0  0  0  0
  1  2  1  0  0  0  0
  1  3  1  0  0  0  0
  1 19  1  1  0  0  0
  1 20  1  0  0  0  0
  2  4  1  0  0  0  0
  2  5  2  0  0  0  0
  3  6  2  0  0  0  0
  3  7  1  0  0  0  0
  4  8  2  0  0  0  0
  4 18  1  0  0  0  0
  5  9  1  0  0  0  0
  5 26  1  0  0  0  0
  6 10  1  0  0  0  0
  6 11  1  0  0  0  0
  7 12  2  0  0  0  0
  7 27  1  0  0  0  0
  8 13  1  0  0  0  0
  8 28  1  0  0  0  0
  9 13  2  0  0  0  0
  9 29  1  0  0  0  0
 10 18  1  0  0  0  0
 10 20  1  0  0  0  0
 10 30  1  1  0  0  0
 11 14  2  0  0  0  0
 11 31  1  0  0  0  0
 12 14  1  0  0  0  0
 12 32  1  0  0  0  0
 13 33  1  0  0  0  0
 14 34  1  0  0  0  0
 15 16  2  0  0  0  0
 15 17  1  0  0  0  0
 15 35  1  0  0  0  0
 16 23  1  0  0  0  0
 16 36  1  0  0  0  0
 17 21  1  0  0  0  0
 17 22  2  0  0  0  0
 18 37  1  0  0  0  0
 18 38  1  0  0  0  0
 19 39  1  0  0  0  0
 19 40  1  0  0  0  0
 19 41  1  0  0  0  0
 20 42  1  0  0  0  0
 21 43  1  0  0  0  0
 23 24  1  0  0  0  0
 23 25  2  0  0  0  0
 24 44  1  0  0  0  0
M  END
>  <Mol_ID>
1482

>  <Formula>
C20H19NO4

>  <MolWeight>
337.36916

>  <Cat>
S2876

>  <Name>
(+)-Dizocilpine (MK 801) Maleate

>  <Synonyms>
N/A

>  <Target>
NMDAR

>  <Form>
maleate

>  <CAS>
77086-22-7

>  <URL>
http://selleckchem.com/products/mk-801-maleate.html

$$$$
