(-)-Zuonin A
 OpenBabel08302521473D

 45 49  0  0  1  0  0  0  0  0999 V2000
    1.8020   -1.3913   -0.1138 C   0  0  0  0  0  0  0  0  0  0  0  0
    1.7020    1.5682    0.2534 C   0  0  0  0  0  0  0  0  0  0  0  0
   -0.7315   -1.1616   -0.3623 C   0  0  1  0  0  0  0  0  0  0  0  0
   -1.6424   -0.0645   -0.1962 O   0  0  0  0  0  0  0  0  0  0  0  0
    0.5214   -0.7785    0.4437 C   0  0  2  0  0  0  0  0  0  0  0  0
   -0.8277    1.1301   -0.2686 C   0  0  1  0  0  0  0  0  0  0  0  0
    0.4416    0.7573    0.5209 C   0  0  2  0  0  0  0  0  0  0  0  0
   -1.3138   -2.5001    0.0205 C   0  0  0  0  0  0  0  0  0  0  0  0
   -0.8600   -3.6335   -0.6804 C   0  0  0  0  0  0  0  0  0  0  0  0
   -2.2276   -2.6634    1.0840 C   0  0  0  0  0  0  0  0  0  0  0  0
   -1.2826   -4.8718   -0.2670 C   0  0  0  0  0  0  0  0  0  0  0  0
   -2.6586   -3.9412    1.4679 C   0  0  0  0  0  0  0  0  0  0  0  0
   -2.1508   -5.0259    0.7835 C   0  0  0  0  0  0  0  0  0  0  0  0
   -0.8845   -6.0566   -0.8027 O   0  0  0  0  0  0  0  0  0  0  0  0
   -2.4066   -6.3369    1.0470 O   0  0  0  0  0  0  0  0  0  0  0  0
   -1.5170   -6.9777    0.1074 C   0  0  0  0  0  0  0  0  0  0  0  0
   -0.7425    1.5560   -1.7273 C   0  0  0  0  0  0  0  0  0  0  0  0
    0.2493    1.0938   -2.6037 C   0  0  0  0  0  0  0  0  0  0  0  0
   -1.7567    2.3999   -2.2491 C   0  0  0  0  0  0  0  0  0  0  0  0
    0.2199    1.4918   -3.9235 C   0  0  0  0  0  0  0  0  0  0  0  0
   -1.7631    2.7918   -3.5956 C   0  0  0  0  0  0  0  0  0  0  0  0
   -0.7565    2.3245   -4.4060 C   0  0  0  0  0  0  0  0  0  0  0  0
    1.1106    1.1135   -4.8763 O   0  0  0  0  0  0  0  0  0  0  0  0
   -0.5969    2.5887   -5.7306 O   0  0  0  0  0  0  0  0  0  0  0  0
    0.6053    1.8389   -6.0144 C   0  0  0  0  0  0  0  0  0  0  0  0
    2.6771   -1.0584    0.4523 H   0  0  0  0  0  0  0  0  0  0  0  0
    1.7694   -2.4835   -0.0462 H   0  0  0  0  0  0  0  0  0  0  0  0
    1.9602   -1.1404   -1.1653 H   0  0  0  0  0  0  0  0  0  0  0  0
    1.4676    2.6311    0.1322 H   0  0  0  0  0  0  0  0  0  0  0  0
    2.3920    1.4789    1.1001 H   0  0  0  0  0  0  0  0  0  0  0  0
    2.2471    1.2399   -0.6344 H   0  0  0  0  0  0  0  0  0  0  0  0
   -0.5064   -1.2113   -1.4347 H   0  0  0  0  0  0  0  0  0  0  0  0
    0.4213   -1.1536    1.4724 H   0  0  0  0  0  0  0  0  0  0  0  0
   -1.3519    1.9202    0.2808 H   0  0  0  0  0  0  0  0  0  0  0  0
    0.1874    0.9720    1.5717 H   0  0  0  0  0  0  0  0  0  0  0  0
   -0.1674   -3.5449   -1.5112 H   0  0  0  0  0  0  0  0  0  0  0  0
   -2.5967   -1.7917    1.6216 H   0  0  0  0  0  0  0  0  0  0  0  0
   -3.3529   -4.0767    2.2895 H   0  0  0  0  0  0  0  0  0  0  0  0
   -2.0823   -7.7139   -0.4727 H   0  0  0  0  0  0  0  0  0  0  0  0
   -0.7313   -7.4995    0.6685 H   0  0  0  0  0  0  0  0  0  0  0  0
    1.0307    0.4148   -2.2956 H   0  0  0  0  0  0  0  0  0  0  0  0
   -2.5615    2.7403   -1.6013 H   0  0  0  0  0  0  0  0  0  0  0  0
   -2.5441    3.4350   -3.9867 H   0  0  0  0  0  0  0  0  0  0  0  0
    1.3811    2.5356   -6.3532 H   0  0  0  0  0  0  0  0  0  0  0  0
    0.3941    1.1271   -6.8202 H   0  0  0  0  0  0  0  0  0  0  0  0
  1 26  1  0  0  0  0
  1 27  1  0  0  0  0
  1 28  1  0  0  0  0
  2 29  1  0  0  0  0
  2 30  1  0  0  0  0
  2 31  1  0  0  0  0
  3  4  1  0  0  0  0
  3  5  1  0  0  0  0
  3 32  1  6  0  0  0
  3  8  1  0  0  0  0
  4  6  1  0  0  0  0
  5  1  1  0  0  0  0
  5  7  1  0  0  0  0
  5 33  1  1  0  0  0
  6  7  1  0  0  0  0
  6 17  1  0  0  0  0
  6 34  1  1  0  0  0
  7  2  1  0  0  0  0
  7 35  1  1  0  0  0
  8  9  2  0  0  0  0
  8 10  1  0  0  0  0
  9 11  1  0  0  0  0
  9 36  1  0  0  0  0
 10 12  2  0  0  0  0
 10 37  1  0  0  0  0
 11 13  2  0  0  0  0
 11 14  1  0  0  0  0
 12 13  1  0  0  0  0
 12 38  1  0  0  0  0
 13 15  1  0  0  0  0
 14 16  1  0  0  0  0
 15 16  1  0  0  0  0
 16 39  1  0  0  0  0
 16 40  1  0  0  0  0
 17 18  2  0  0  0  0
 17 19  1  0  0  0  0
 18 20  1  0  0  0  0
 18 41  1  0  0  0  0
 19 21  2  0  0  0  0
 19 42  1  0  0  0  0
 20 22  2  0  0  0  0
 20 23  1  0  0  0  0
 21 22  1  0  0  0  0
 21 43  1  0  0  0  0
 22 24  1  0  0  0  0
 23 25  1  0  0  0  0
 24 25  1  0  0  0  0
 25 44  1  0  0  0  0
 25 45  1  0  0  0  0
M  END
>  <Mol_ID>
9760

>  <Formula>
C20H20O5

>  <MolWeight>
340.3698

>  <Cat>
E2245

>  <Name>
(-)-Zuonin A

>  <Synonyms>
D-Epigalbacin

>  <Target>
JNK

>  <Form>
free base

>  <CAS>
84709-25-1

>  <URL>
https://www.selleckchem.com/products/--zuonin-a.html

$$$$
