(-)-MK 801 maleate.cdx
 OpenBabel08302522063D

 44 46  0  0  0  0  0  0  0  0999 V2000
   -0.2913    1.0351    0.5438 C   0  0  1  0  0  0  0  0  0  0  0  0
    1.6561    0.6908    0.7631 C   0  0  0  0  0  0  0  0  0  0  0  0
   -1.8787    0.3762    1.2557 C   0  0  0  0  0  0  0  0  0  0  0  0
    2.3792   -0.9776    0.7049 C   0  0  0  0  0  0  0  0  0  0  0  0
    2.4806    1.7307    0.3374 C   0  0  0  0  0  0  0  0  0  0  0  0
   -2.0893   -1.1550    1.0242 C   0  0  0  0  0  0  0  0  0  0  0  0
   -2.9637    1.2887    0.9268 C   0  0  0  0  0  0  0  0  0  0  0  0
    3.6768   -1.1700    0.2907 C   0  0  0  0  0  0  0  0  0  0  0  0
    3.7502    1.3527   -0.1490 C   0  0  0  0  0  0  0  0  0  0  0  0
   -0.8742   -1.7573    0.0604 C   0  0  2  0  0  0  0  0  0  0  0  0
   -3.3802   -1.5435    0.5573 C   0  0  0  0  0  0  0  0  0  0  0  0
   -4.1238    0.8130    0.3151 C   0  0  0  0  0  0  0  0  0  0  0  0
    4.3099    0.0025   -0.1682 C   0  0  0  0  0  0  0  0  0  0  0  0
   -4.3210   -0.5639    0.1340 C   0  0  0  0  0  0  0  0  0  0  0  0
    0.8967   -0.5824   -0.6873 C   0  0  0  0  0  0  0  0  0  0  0  0
    0.6508    0.0034   -1.9561 C   0  0  0  0  0  0  0  0  0  0  0  0
    0.4512   -0.8479    1.3621 C   0  0  0  0  0  0  0  0  0  0  0  0
    1.0361   -2.4208    0.2437 C   0  0  0  0  0  0  0  0  0  0  0  0
   -0.3231    2.2156    1.6178 C   0  0  0  0  0  0  0  0  0  0  0  0
   -1.0352   -0.1386   -0.3972 N   0  0  0  0  0  0  0  0  0  0  0  0
    0.9736   -1.8846    2.2175 O   0  0  0  0  0  0  0  0  0  0  0  0
    0.0394   -0.1615    2.3101 O   0  0  0  0  0  0  0  0  0  0  0  0
   -0.4540    0.8015   -2.6080 C   0  0  0  0  0  0  0  0  0  0  0  0
    0.0206    1.8080   -3.3491 O   0  0  0  0  0  0  0  0  0  0  0  0
   -1.6550    0.5800   -2.6367 O   0  0  0  0  0  0  0  0  0  0  0  0
    2.1273    2.7479    0.1950 H   0  0  0  0  0  0  0  0  0  0  0  0
   -2.7885    2.3601    0.8122 H   0  0  0  0  0  0  0  0  0  0  0  0
    4.1038   -2.1531    0.1059 H   0  0  0  0  0  0  0  0  0  0  0  0
    4.3422    2.1347   -0.6426 H   0  0  0  0  0  0  0  0  0  0  0  0
   -1.3109   -2.4189   -0.6995 H   0  0  0  0  0  0  0  0  0  0  0  0
   -3.5405   -2.5519    0.1802 H   0  0  0  0  0  0  0  0  0  0  0  0
   -4.8023    1.5276   -0.1560 H   0  0  0  0  0  0  0  0  0  0  0  0
    5.2732   -0.1043   -0.6784 H   0  0  0  0  0  0  0  0  0  0  0  0
   -5.1650   -0.8668   -0.4885 H   0  0  0  0  0  0  0  0  0  0  0  0
    1.7803   -1.1226   -1.0946 H   0  0  0  0  0  0  0  0  0  0  0  0
    1.4015   -0.1672   -2.7307 H   0  0  0  0  0  0  0  0  0  0  0  0
    1.3396   -2.8448   -0.7476 H   0  0  0  0  0  0  0  0  0  0  0  0
    1.1279   -3.2868    0.9069 H   0  0  0  0  0  0  0  0  0  0  0  0
    0.2169    3.0861    1.2501 H   0  0  0  0  0  0  0  0  0  0  0  0
   -1.2737    2.5933    1.9953 H   0  0  0  0  0  0  0  0  0  0  0  0
    0.1993    1.9304    2.5502 H   0  0  0  0  0  0  0  0  0  0  0  0
   -1.9073    0.0796   -0.8865 H   0  0  0  0  0  0  0  0  0  0  0  0
    0.7323   -1.4847    3.0841 H   0  0  0  0  0  0  0  0  0  0  0  0
   -0.8225    2.1390   -3.7352 H   0  0  0  0  0  0  0  0  0  0  0  0
  1  2  1  0  0  0  0
  1  3  1  0  0  0  0
  1 20  1  0  0  0  0
  1 19  1  6  0  0  0
  2  4  1  0  0  0  0
  2  5  2  0  0  0  0
  3  6  2  0  0  0  0
  3  7  1  0  0  0  0
  4  8  2  0  0  0  0
  4 18  1  0  0  0  0
  5  9  1  0  0  0  0
  5 26  1  0  0  0  0
  6 10  1  0  0  0  0
  6 11  1  0  0  0  0
  7 12  2  0  0  0  0
  7 27  1  0  0  0  0
  8 13  1  0  0  0  0
  8 28  1  0  0  0  0
  9 13  2  0  0  0  0
  9 29  1  0  0  0  0
 10 18  1  0  0  0  0
 10 20  1  0  0  0  0
 10 30  1  6  0  0  0
 11 14  2  0  0  0  0
 11 31  1  0  0  0  0
 12 14  1  0  0  0  0
 12 32  1  0  0  0  0
 13 33  1  0  0  0  0
 14 34  1  0  0  0  0
 15 16  2  0  0  0  0
 15 17  1  0  0  0  0
 15 35  1  0  0  0  0
 16 23  1  0  0  0  0
 16 36  1  0  0  0  0
 17 21  1  0  0  0  0
 17 22  2  0  0  0  0
 18 37  1  0  0  0  0
 18 38  1  0  0  0  0
 19 39  1  0  0  0  0
 19 40  1  0  0  0  0
 19 41  1  0  0  0  0
 20 42  1  0  0  0  0
 21 43  1  0  0  0  0
 23 24  1  0  0  0  0
 23 25  2  0  0  0  0
 24 44  1  0  0  0  0
M  END
>  <Mol_ID>
1481

>  <Formula>
C20H19NO4

>  <MolWeight>
337.36916

>  <Cat>
S2857

>  <Name>
(-)-Dizocilpine (MK 801) Maleate

>  <Synonyms>
C13737

>  <Target>
NMDAR

>  <Form>
maleate

>  <CAS>
121917-57-5

>  <URL>
http://selleckchem.com/products/--mk-801-maleate.html

$$$$
