(-)-Carvone
 OpenBabel08302521353D

 25 25  0  0  1  0  0  0  0  0999 V2000
    3.0905   -1.1531   -0.9069 C   0  0  0  0  0  0  0  0  0  0  0  0
    4.5550   -1.4889   -1.0079 C   0  0  0  0  0  0  0  0  0  0  0  0
    2.1952   -1.9016   -1.5730 C   0  0  0  0  0  0  0  0  0  0  0  0
    2.2443    0.9101    3.4090 O   0  0  0  0  0  0  0  0  0  0  0  0
    2.4453    3.6073    2.4967 C   0  0  0  0  0  0  0  0  0  0  0  0
    2.6571    0.0310   -0.0522 C   0  0  1  0  0  0  0  0  0  0  0  0
    3.0619   -0.1300    1.4148 C   0  0  0  0  0  0  0  0  0  0  0  0
    3.1695    1.3653   -0.6213 C   0  0  0  0  0  0  0  0  0  0  0  0
    2.5956    1.0511    2.2391 C   0  0  0  0  0  0  0  0  0  0  0  0
    2.9557    2.5200    0.3144 C   0  0  0  0  0  0  0  0  0  0  0  0
    2.6655    2.4119    1.6224 C   0  0  0  0  0  0  0  0  0  0  0  0
    4.7346   -2.5223   -0.6928 H   0  0  0  0  0  0  0  0  0  0  0  0
    4.9044   -1.3673   -2.0386 H   0  0  0  0  0  0  0  0  0  0  0  0
    5.1731   -0.8439   -0.3776 H   0  0  0  0  0  0  0  0  0  0  0  0
    1.1296   -1.6964   -1.5338 H   0  0  0  0  0  0  0  0  0  0  0  0
    2.5070   -2.7441   -2.1845 H   0  0  0  0  0  0  0  0  0  0  0  0
    3.3189    4.2675    2.4651 H   0  0  0  0  0  0  0  0  0  0  0  0
    1.5701    4.1719    2.1590 H   0  0  0  0  0  0  0  0  0  0  0  0
    2.2811    3.3418    3.5450 H   0  0  0  0  0  0  0  0  0  0  0  0
    1.5570    0.0854   -0.0705 H   0  0  0  0  0  0  0  0  0  0  0  0
    4.1471   -0.2094    1.5423 H   0  0  0  0  0  0  0  0  0  0  0  0
    2.6046   -1.0373    1.8272 H   0  0  0  0  0  0  0  0  0  0  0  0
    4.2379    1.3178   -0.8619 H   0  0  0  0  0  0  0  0  0  0  0  0
    2.6432    1.5751   -1.5613 H   0  0  0  0  0  0  0  0  0  0  0  0
    3.0409    3.5108   -0.1284 H   0  0  0  0  0  0  0  0  0  0  0  0
  1  2  1  0  0  0  0
  1  3  2  0  0  0  0
  2 12  1  0  0  0  0
  2 13  1  0  0  0  0
  2 14  1  0  0  0  0
  3 15  1  0  0  0  0
  3 16  1  0  0  0  0
  4  9  2  0  0  0  0
  5 11  1  0  0  0  0
  5 17  1  0  0  0  0
  5 18  1  0  0  0  0
  5 19  1  0  0  0  0
  6  7  1  0  0  0  0
  6  8  1  0  0  0  0
  6 20  1  6  0  0  0
  6  1  1  0  0  0  0
  7  9  1  0  0  0  0
  7 21  1  0  0  0  0
  7 22  1  0  0  0  0
  8 10  1  0  0  0  0
  8 23  1  0  0  0  0
  8 24  1  0  0  0  0
  9 11  1  0  0  0  0
 10 11  2  0  0  0  0
 10 25  1  0  0  0  0
M  END
>  <Mol_ID>
7005

>  <Formula>
C10H14O

>  <MolWeight>
150.21756

>  <Cat>
E4298

>  <Name>
(-)-Carvone

>  <Synonyms>
(-)-Carvone

>  <Target>
Others

>  <Form>
free base

>  <CAS>
6485-40-1

>  <URL>
https://www.selleckchem.com/products/carvone.html

$$$$
