(-)-Blebbistatin.cdx
 OpenBabel08302519553D

 38 41  0  0  0  0  0  0  0  0999 V2000
    2.0212   -0.3732   -0.5082 C   0  0  0  0  0  0  0  0  0  0  0  0
    0.9870    0.0143    0.3845 C   0  0  0  0  0  0  0  0  0  0  0  0
   -0.3315    0.2363   -0.0188 C   0  0  0  0  0  0  0  0  0  0  0  0
   -0.6770    0.0459   -1.3415 C   0  0  0  0  0  0  0  0  0  0  0  0
    0.2918   -0.4093   -2.2373 C   0  0  0  0  0  0  0  0  0  0  0  0
    1.6228   -0.6286   -1.8242 C   0  0  0  0  0  0  0  0  0  0  0  0
    7.0088   -5.3359   -0.8176 C   0  0  0  0  0  0  0  0  0  0  0  0
    7.4737   -4.4689   -1.8186 C   0  0  0  0  0  0  0  0  0  0  0  0
    6.7983   -3.2699   -2.0766 C   0  0  0  0  0  0  0  0  0  0  0  0
    5.7583   -2.8965   -1.2448 C   0  0  0  0  0  0  0  0  0  0  0  0
    5.7379   -3.5142    0.0116 C   0  0  0  0  0  0  0  0  0  0  0  0
    6.2269   -4.8014    0.2026 C   0  0  0  0  0  0  0  0  0  0  0  0
    5.5270   -2.5396    1.1160 C   0  0  0  0  0  0  0  0  0  0  0  0
    5.5616   -1.0865    0.5764 C   0  0  1  0  0  0  0  0  0  0  0  0
    4.7587   -1.8903   -1.5613 N   0  0  0  0  0  0  0  0  0  0  0  0
    4.4717   -1.1394   -0.5305 C   0  0  0  0  0  0  0  0  0  0  0  0
    5.0979    0.0644    1.4287 C   0  0  0  0  0  0  0  0  0  0  0  0
    3.3669   -0.4082   -0.0790 N   0  0  0  0  0  0  0  0  0  0  0  0
    3.6006    0.0053    1.3170 C   0  0  0  0  0  0  0  0  0  0  0  0
    6.8265   -0.6895    0.0439 O   0  0  0  0  0  0  0  0  0  0  0  0
    5.3283   -2.8568    2.2768 O   0  0  0  0  0  0  0  0  0  0  0  0
    7.2192   -6.8092   -0.9876 C   0  0  0  0  0  0  0  0  0  0  0  0
    1.1774    0.1766    1.4421 H   0  0  0  0  0  0  0  0  0  0  0  0
   -1.0689    0.5760    0.7071 H   0  0  0  0  0  0  0  0  0  0  0  0
   -1.6933    0.2521   -1.6677 H   0  0  0  0  0  0  0  0  0  0  0  0
    0.0067   -0.5711   -3.2742 H   0  0  0  0  0  0  0  0  0  0  0  0
    2.3418   -0.9637   -2.5670 H   0  0  0  0  0  0  0  0  0  0  0  0
    8.3006   -4.7758   -2.4564 H   0  0  0  0  0  0  0  0  0  0  0  0
    7.1016   -2.6464   -2.9104 H   0  0  0  0  0  0  0  0  0  0  0  0
    5.9875   -5.3599    1.1075 H   0  0  0  0  0  0  0  0  0  0  0  0
    5.4594    0.0321    2.4567 H   0  0  0  0  0  0  0  0  0  0  0  0
    5.4429    1.0130    0.9876 H   0  0  0  0  0  0  0  0  0  0  0  0
    3.1822    0.9930    1.5334 H   0  0  0  0  0  0  0  0  0  0  0  0
    3.2017   -0.7437    2.0107 H   0  0  0  0  0  0  0  0  0  0  0  0
    6.7390   -0.6602   -0.9390 H   0  0  0  0  0  0  0  0  0  0  0  0
    6.9776   -7.3814   -0.0887 H   0  0  0  0  0  0  0  0  0  0  0  0
    6.5373   -7.1426   -1.7835 H   0  0  0  0  0  0  0  0  0  0  0  0
    8.2405   -7.0408   -1.3005 H   0  0  0  0  0  0  0  0  0  0  0  0
  1  2  2  0  0  0  0
  1 18  1  0  0  0  0
  2  3  1  0  0  0  0
  2 23  1  0  0  0  0
  3  4  2  0  0  0  0
  3 24  1  0  0  0  0
  4  5  1  0  0  0  0
  4 25  1  0  0  0  0
  5  6  2  0  0  0  0
  5 26  1  0  0  0  0
  6  1  1  0  0  0  0
  6 27  1  0  0  0  0
  7  8  2  0  0  0  0
  7 22  1  0  0  0  0
  8  9  1  0  0  0  0
  8 28  1  0  0  0  0
  9 10  2  0  0  0  0
  9 29  1  0  0  0  0
 10 15  1  0  0  0  0
 10 11  1  0  0  0  0
 11 12  2  0  0  0  0
 11 13  1  0  0  0  0
 12  7  1  0  0  0  0
 12 30  1  0  0  0  0
 13 14  1  0  0  0  0
 13 21  2  0  0  0  0
 14 16  1  0  0  0  0
 14 17  1  0  0  0  0
 14 20  1  6  0  0  0
 15 16  2  0  0  0  0
 16 18  1  0  0  0  0
 17 19  1  0  0  0  0
 17 31  1  0  0  0  0
 17 32  1  0  0  0  0
 18 19  1  0  0  0  0
 19 33  1  0  0  0  0
 19 34  1  0  0  0  0
 20 35  1  0  0  0  0
 22 36  1  0  0  0  0
 22 37  1  0  0  0  0
 22 38  1  0  0  0  0
M  END
>  <Mol_ID>
2146

>  <Formula>
C18H16N2O2

>  <MolWeight>
292.33184

>  <Cat>
S7099

>  <Name>
(-)-Blebbistatin

>  <Synonyms>
(S)-(-)-Blebbistatin

>  <Target>
ATPase

>  <Form>
free base

>  <CAS>
856925-71-8

>  <URL>
http://selleckchem.com/products/blebbistatin.html

$$$$
