(-)-Citronellal
 OpenBabel08302520383D

 29 28  0  0  0  0  0  0  0  0999 V2000
    0.8684    0.0166    0.0350 C   0  0  1  0  0  0  0  0  0  0  0  0
    0.4896    0.2476   -1.4451 C   0  0  0  0  0  0  0  0  0  0  0  0
    0.0590   -1.1721    0.5894 C   0  0  0  0  0  0  0  0  0  0  0  0
    2.3794   -0.1972    0.1753 C   0  0  0  0  0  0  0  0  0  0  0  0
    1.1450    1.4904   -2.0653 C   0  0  0  0  0  0  0  0  0  0  0  0
    0.3123   -1.4274    2.0520 C   0  0  0  0  0  0  0  0  0  0  0  0
    0.7353    1.6497   -3.5035 C   0  0  0  0  0  0  0  0  0  0  0  0
    0.6942   -2.5150    2.4917 O   0  0  0  0  0  0  0  0  0  0  0  0
    0.1034    2.7163   -4.0317 C   0  0  0  0  0  0  0  0  0  0  0  0
   -0.3124    2.7371   -5.4755 C   0  0  0  0  0  0  0  0  0  0  0  0
   -0.2362    3.9399   -3.2307 C   0  0  0  0  0  0  0  0  0  0  0  0
    0.6064    0.9106    0.6146 H   0  0  0  0  0  0  0  0  0  0  0  0
    0.7591   -0.6405   -2.0327 H   0  0  0  0  0  0  0  0  0  0  0  0
   -0.6009    0.3533   -1.5210 H   0  0  0  0  0  0  0  0  0  0  0  0
   -1.0154   -0.9732    0.4823 H   0  0  0  0  0  0  0  0  0  0  0  0
    0.2762   -2.0936    0.0367 H   0  0  0  0  0  0  0  0  0  0  0  0
    2.9385    0.6289   -0.2712 H   0  0  0  0  0  0  0  0  0  0  0  0
    2.6808   -0.2316    1.2261 H   0  0  0  0  0  0  0  0  0  0  0  0
    2.7007   -1.1220   -0.3140 H   0  0  0  0  0  0  0  0  0  0  0  0
    0.8745    2.3654   -1.4655 H   0  0  0  0  0  0  0  0  0  0  0  0
    2.2365    1.4191   -2.0453 H   0  0  0  0  0  0  0  0  0  0  0  0
    0.0752   -0.5976    2.7416 H   0  0  0  0  0  0  0  0  0  0  0  0
    0.9827    0.8107   -4.1537 H   0  0  0  0  0  0  0  0  0  0  0  0
   -1.3953    2.8835   -5.5488 H   0  0  0  0  0  0  0  0  0  0  0  0
    0.1881    3.5521   -6.0076 H   0  0  0  0  0  0  0  0  0  0  0  0
   -0.0721    1.8009   -5.9906 H   0  0  0  0  0  0  0  0  0  0  0  0
   -0.9171    3.6883   -2.4114 H   0  0  0  0  0  0  0  0  0  0  0  0
    0.6704    4.3962   -2.8192 H   0  0  0  0  0  0  0  0  0  0  0  0
   -0.7298    4.6971   -3.8491 H   0  0  0  0  0  0  0  0  0  0  0  0
  1  4  1  0  0  0  0
  1 12  1  1  0  0  0
  1  3  1  0  0  0  0
  1  2  1  0  0  0  0
  2  5  1  0  0  0  0
  2 13  1  0  0  0  0
  2 14  1  0  0  0  0
  3  6  1  0  0  0  0
  3 15  1  0  0  0  0
  3 16  1  0  0  0  0
  4 17  1  0  0  0  0
  4 18  1  0  0  0  0
  4 19  1  0  0  0  0
  5  7  1  0  0  0  0
  5 20  1  0  0  0  0
  5 21  1  0  0  0  0
  6  8  2  0  0  0  0
  6 22  1  0  0  0  0
  7  9  2  0  0  0  0
  7 23  1  0  0  0  0
  9 10  1  0  0  0  0
  9 11  1  0  0  0  0
 10 24  1  0  0  0  0
 10 25  1  0  0  0  0
 10 26  1  0  0  0  0
 11 27  1  0  0  0  0
 11 28  1  0  0  0  0
 11 29  1  0  0  0  0
M  END
>  <Mol_ID>
3463

>  <Formula>
C10H18O

>  <MolWeight>
154.24932

>  <Cat>
S6164

>  <Name>
(-)-Citronellal

>  <Synonyms>
N/A

>  <Target>
Others

>  <Form>
free base

>  <CAS>
5949-05-3

>  <URL>
http://www.selleck.cn/products/citronellal.html

$$$$
