(-)-Fenchone
 OpenBabel08302521223D

 27 28  0  0  0  0  0  0  0  0999 V2000
   -1.2574   -0.7908   -0.5324 C   0  0  0  0  0  0  0  0  0  0  0  0
   -0.0239   -1.1289    0.3231 C   0  0  3  0  0  0  0  0  0  0  0  0
    1.1892   -0.7173   -0.5131 C   0  0  0  0  0  0  0  0  0  0  0  0
    1.2753    0.8101   -0.5480 C   0  0  0  0  0  0  0  0  0  0  0  0
   -1.3044    0.7497   -0.4705 C   0  0  0  0  0  0  0  0  0  0  0  0
   -0.0104    1.1178    0.2908 C   0  0  3  0  0  0  0  0  0  0  0  0
   -0.0126    0.0047    1.3518 C   0  0  0  0  0  0  0  0  0  0  0  0
    1.9477   -1.4815   -1.0888 O   0  0  0  0  0  0  0  0  0  0  0  0
    1.2383    1.3476   -1.9776 C   0  0  0  0  0  0  0  0  0  0  0  0
    2.5511    1.2974    0.1451 C   0  0  0  0  0  0  0  0  0  0  0  0
    0.0170   -2.5254    0.8892 C   0  0  0  0  0  0  0  0  0  0  0  0
   -2.1775   -1.2129   -0.1133 H   0  0  0  0  0  0  0  0  0  0  0  0
   -1.1548   -1.1428   -1.5648 H   0  0  0  0  0  0  0  0  0  0  0  0
   -1.3893    1.2085   -1.4583 H   0  0  0  0  0  0  0  0  0  0  0  0
   -2.1822    1.0665    0.1059 H   0  0  0  0  0  0  0  0  0  0  0  0
   -0.0310    2.1309    0.6997 H   0  0  0  0  0  0  0  0  0  0  0  0
    0.8706    0.0028    1.9971 H   0  0  0  0  0  0  0  0  0  0  0  0
   -0.9085    0.0176    1.9833 H   0  0  0  0  0  0  0  0  0  0  0  0
    1.1197    2.4362   -1.9796 H   0  0  0  0  0  0  0  0  0  0  0  0
    2.1669    1.1089   -2.5080 H   0  0  0  0  0  0  0  0  0  0  0  0
    0.4324    0.9107   -2.5732 H   0  0  0  0  0  0  0  0  0  0  0  0
    2.6574    0.9111    1.1623 H   0  0  0  0  0  0  0  0  0  0  0  0
    3.4424    0.9741   -0.4060 H   0  0  0  0  0  0  0  0  0  0  0  0
    2.5679    2.3910    0.1989 H   0  0  0  0  0  0  0  0  0  0  0  0
    0.9177   -2.6821    1.4928 H   0  0  0  0  0  0  0  0  0  0  0  0
   -0.8524   -2.7172    1.5272 H   0  0  0  0  0  0  0  0  0  0  0  0
    0.0221   -3.2754    0.0908 H   0  0  0  0  0  0  0  0  0  0  0  0
  1  2  1  0  0  0  0
  1  5  1  0  0  0  0
  1 12  1  0  0  0  0
  1 13  1  0  0  0  0
  2  3  1  0  0  0  0
  2  7  1  0  0  0  0
  2 11  1  0  0  0  0
  3  4  1  0  0  0  0
  3  8  2  0  0  0  0
  4  6  1  0  0  0  0
  4  9  1  0  0  0  0
  4 10  1  0  0  0  0
  5  6  1  0  0  0  0
  5 14  1  0  0  0  0
  5 15  1  0  0  0  0
  6  7  1  0  0  0  0
  6 16  1  0  0  0  0
  7 17  1  0  0  0  0
  7 18  1  0  0  0  0
  9 19  1  0  0  0  0
  9 20  1  0  0  0  0
  9 21  1  0  0  0  0
 10 22  1  0  0  0  0
 10 23  1  0  0  0  0
 10 24  1  0  0  0  0
 11 25  1  0  0  0  0
 11 26  1  0  0  0  0
 11 27  1  0  0  0  0
M  END
>  <Mol_ID>
4712

>  <Formula>
C10H16O

>  <MolWeight>
152.23344

>  <Cat>
S5934

>  <Name>
(-)-Fenchone

>  <Synonyms>
N/A

>  <Target>
Others

>  <Form>
Free Base

>  <CAS>
7787-20-4

>  <URL>
http://www.selleck.cn/products/fenchone.html

$$$$
