1,11-Undecanedicarboxylic acid
 OpenBabel08302520393D

 41 40  0  0  0  0  0  0  0  0999 V2000
   -0.9012    0.4331   -3.9457 C   0  0  0  0  0  0  0  0  0  0  0  0
   -1.7024    0.6340   -2.6841 C   0  0  0  0  0  0  0  0  0  0  0  0
   -1.6880    0.1811   -5.0187 O   0  0  0  0  0  0  0  0  0  0  0  0
    0.3145    0.4764   -4.0279 O   0  0  0  0  0  0  0  0  0  0  0  0
   -0.8066    0.9300   -1.4810 C   0  0  0  0  0  0  0  0  0  0  0  0
   -1.5942    1.2421   -0.2091 C   0  0  0  0  0  0  0  0  0  0  0  0
   -2.4413    0.0701    0.2931 C   0  0  0  0  0  0  0  0  0  0  0  0
   -3.2243    0.4169    1.5630 C   0  0  0  0  0  0  0  0  0  0  0  0
   -4.2119    1.5798    1.3998 C   0  0  0  0  0  0  0  0  0  0  0  0
   -5.2870    1.3640    0.3264 C   0  0  0  0  0  0  0  0  0  0  0  0
   -6.1720    0.1353    0.5571 C   0  0  0  0  0  0  0  0  0  0  0  0
   -6.9427    0.2105    1.8780 C   0  0  0  0  0  0  0  0  0  0  0  0
   -7.8323   -1.0041    2.1400 C   0  0  0  0  0  0  0  0  0  0  0  0
   -7.0380   -2.2997    2.3091 C   0  0  0  0  0  0  0  0  0  0  0  0
   -7.9315   -3.4688    2.6496 C   0  0  0  0  0  0  0  0  0  0  0  0
   -7.2353   -4.6216    2.7836 O   0  0  0  0  0  0  0  0  0  0  0  0
   -9.1422   -3.4189    2.7802 O   0  0  0  0  0  0  0  0  0  0  0  0
   -2.3936    1.4708   -2.8440 H   0  0  0  0  0  0  0  0  0  0  0  0
   -2.2803   -0.2796   -2.5111 H   0  0  0  0  0  0  0  0  0  0  0  0
   -2.6416    0.1721   -4.8132 H   0  0  0  0  0  0  0  0  0  0  0  0
   -0.1270    0.0886   -1.3005 H   0  0  0  0  0  0  0  0  0  0  0  0
   -0.1736    1.7975   -1.7090 H   0  0  0  0  0  0  0  0  0  0  0  0
   -0.8880    1.5308    0.5795 H   0  0  0  0  0  0  0  0  0  0  0  0
   -2.2232    2.1168   -0.4050 H   0  0  0  0  0  0  0  0  0  0  0  0
   -3.1399   -0.2654   -0.4794 H   0  0  0  0  0  0  0  0  0  0  0  0
   -1.7864   -0.7839    0.5054 H   0  0  0  0  0  0  0  0  0  0  0  0
   -3.7579   -0.4783    1.9044 H   0  0  0  0  0  0  0  0  0  0  0  0
   -2.5172    0.6669    2.3631 H   0  0  0  0  0  0  0  0  0  0  0  0
   -4.6869    1.7738    2.3676 H   0  0  0  0  0  0  0  0  0  0  0  0
   -3.6659    2.5007    1.1677 H   0  0  0  0  0  0  0  0  0  0  0  0
   -5.9200    2.2582    0.2788 H   0  0  0  0  0  0  0  0  0  0  0  0
   -4.8150    1.2788   -0.6598 H   0  0  0  0  0  0  0  0  0  0  0  0
   -6.8846    0.0540   -0.2729 H   0  0  0  0  0  0  0  0  0  0  0  0
   -5.5528   -0.7661    0.5174 H   0  0  0  0  0  0  0  0  0  0  0  0
   -6.2526    0.3154    2.7216 H   0  0  0  0  0  0  0  0  0  0  0  0
   -7.5704    1.1101    1.8689 H   0  0  0  0  0  0  0  0  0  0  0  0
   -8.4067   -0.8131    3.0558 H   0  0  0  0  0  0  0  0  0  0  0  0
   -8.5642   -1.1112    1.3309 H   0  0  0  0  0  0  0  0  0  0  0  0
   -6.5130   -2.5464    1.3811 H   0  0  0  0  0  0  0  0  0  0  0  0
   -6.3065   -2.1827    3.1165 H   0  0  0  0  0  0  0  0  0  0  0  0
   -6.2749   -4.5190    2.6472 H   0  0  0  0  0  0  0  0  0  0  0  0
  1  2  1  0  0  0  0
  1  3  1  0  0  0  0
  1  4  2  0  0  0  0
  2  5  1  0  0  0  0
  2 18  1  0  0  0  0
  2 19  1  0  0  0  0
  3 20  1  0  0  0  0
  5  6  1  0  0  0  0
  5 21  1  0  0  0  0
  5 22  1  0  0  0  0
  6  7  1  0  0  0  0
  6 23  1  0  0  0  0
  6 24  1  0  0  0  0
  7  8  1  0  0  0  0
  7 25  1  0  0  0  0
  7 26  1  0  0  0  0
  8  9  1  0  0  0  0
  8 27  1  0  0  0  0
  8 28  1  0  0  0  0
  9 10  1  0  0  0  0
  9 29  1  0  0  0  0
  9 30  1  0  0  0  0
 10 11  1  0  0  0  0
 10 31  1  0  0  0  0
 10 32  1  0  0  0  0
 11 12  1  0  0  0  0
 11 33  1  0  0  0  0
 11 34  1  0  0  0  0
 12 13  1  0  0  0  0
 12 35  1  0  0  0  0
 12 36  1  0  0  0  0
 13 14  1  0  0  0  0
 13 37  1  0  0  0  0
 13 38  1  0  0  0  0
 14 15  1  0  0  0  0
 14 39  1  0  0  0  0
 14 40  1  0  0  0  0
 15 16  1  0  0  0  0
 15 17  2  0  0  0  0
 16 41  1  0  0  0  0
M  END
>  <Mol_ID>
3541

>  <Formula>
C13H24O4

>  <MolWeight>
244.32726

>  <Cat>
S6063

>  <Name>
1,11-Undecanedicarboxylic acid

>  <Synonyms>
Tridecanedioic acid, Brassylic acid, Brassilic acid

>  <Target>
Others

>  <Form>
free base

>  <CAS>
505-52-2

>  <URL>
http://www.selleck.cn/products/1-11-undecanedicarboxylic-acid.html

$$$$
