1,2-Propanediol
 OpenBabel08302520393D

 13 12  0  0  0  0  0  0  0  0999 V2000
    0.8901    0.0088   -0.0321 C   0  0  0  0  0  0  0  0  0  0  0  0
    0.4252   -1.4486   -0.1268 C   0  0  3  0  0  0  0  0  0  0  0  0
    0.9430   -2.3081    1.0178 C   0  0  0  0  0  0  0  0  0  0  0  0
    0.4255    0.5996    1.1843 O   0  0  0  0  0  0  0  0  0  0  0  0
   -1.0037   -1.4871   -0.0930 O   0  0  0  0  0  0  0  0  0  0  0  0
    0.4584    0.5925   -0.8510 H   0  0  0  0  0  0  0  0  0  0  0  0
    1.9802    0.0938   -0.0778 H   0  0  0  0  0  0  0  0  0  0  0  0
    0.7477   -1.8757   -1.0822 H   0  0  0  0  0  0  0  0  0  0  0  0
    0.5605   -1.9644    1.9845 H   0  0  0  0  0  0  0  0  0  0  0  0
    0.5963   -3.3411    0.9018 H   0  0  0  0  0  0  0  0  0  0  0  0
    2.0370   -2.3088    1.0500 H   0  0  0  0  0  0  0  0  0  0  0  0
    0.9926    0.2728    1.9034 H   0  0  0  0  0  0  0  0  0  0  0  0
   -1.2750   -0.8148    0.5634 H   0  0  0  0  0  0  0  0  0  0  0  0
  1  2  1  0  0  0  0
  1  4  1  0  0  0  0
  1  6  1  0  0  0  0
  1  7  1  0  0  0  0
  2  3  1  0  0  0  0
  2  5  1  0  0  0  0
  2  8  1  0  0  0  0
  3  9  1  0  0  0  0
  3 10  1  0  0  0  0
  3 11  1  0  0  0  0
  4 12  1  0  0  0  0
  5 13  1  0  0  0  0
M  END
>  <Mol_ID>
3615

>  <Formula>
C3H8O2

>  <MolWeight>
76.09442

>  <Cat>
S6258

>  <Name>
1,2-Propanediol

>  <Synonyms>
1,2-Dihydroxypropane, Propylene glycol, Methyl ethyl glycol

>  <Target>
Others

>  <Form>
free base

>  <CAS>
57-55-6

>  <URL>
http://www.selleck.cn/products/propanediol.html

$$$$
