1,3,5-Trimethoxybenzene
 OpenBabel08302520393D

 24 24  0  0  0  0  0  0  0  0999 V2000
    1.3572   -0.2869    0.0437 C   0  0  0  0  0  0  0  0  0  0  0  0
    0.5003   -1.3856   -0.0304 C   0  0  0  0  0  0  0  0  0  0  0  0
   -0.8834   -1.1936   -0.0349 C   0  0  0  0  0  0  0  0  0  0  0  0
   -1.4081    0.1017    0.0234 C   0  0  0  0  0  0  0  0  0  0  0  0
   -0.5621    1.2058    0.0983 C   0  0  0  0  0  0  0  0  0  0  0  0
    0.8200    1.0018    0.1057 C   0  0  0  0  0  0  0  0  0  0  0  0
   -0.9505    2.5151    0.1785 O   0  0  0  0  0  0  0  0  0  0  0  0
   -2.3492    2.7706    0.1880 C   0  0  0  0  0  0  0  0  0  0  0  0
   -1.8278   -2.1860   -0.0830 O   0  0  0  0  0  0  0  0  0  0  0  0
   -1.3549   -3.5274   -0.1027 C   0  0  0  0  0  0  0  0  0  0  0  0
    2.7253   -0.3393    0.0715 O   0  0  0  0  0  0  0  0  0  0  0  0
    3.3224   -1.6293    0.0467 C   0  0  0  0  0  0  0  0  0  0  0  0
    0.9073   -2.3860   -0.0838 H   0  0  0  0  0  0  0  0  0  0  0  0
   -2.4880    0.2123    0.0118 H   0  0  0  0  0  0  0  0  0  0  0  0
    1.4868    1.8583    0.1642 H   0  0  0  0  0  0  0  0  0  0  0  0
   -2.7967    2.5164   -0.7788 H   0  0  0  0  0  0  0  0  0  0  0  0
   -2.8503    2.2434    1.0068 H   0  0  0  0  0  0  0  0  0  0  0  0
   -2.4925    3.8430    0.3533 H   0  0  0  0  0  0  0  0  0  0  0  0
   -0.8035   -3.7319   -1.0260 H   0  0  0  0  0  0  0  0  0  0  0  0
   -0.7468   -3.7494    0.7803 H   0  0  0  0  0  0  0  0  0  0  0  0
   -2.2256   -4.1903   -0.0789 H   0  0  0  0  0  0  0  0  0  0  0  0
    2.9900   -2.2400    0.8933 H   0  0  0  0  0  0  0  0  0  0  0  0
    3.1243   -2.1328   -0.9055 H   0  0  0  0  0  0  0  0  0  0  0  0
    4.4052   -1.5008    0.1386 H   0  0  0  0  0  0  0  0  0  0  0  0
  1  2  2  0  0  0  0
  1  6  1  0  0  0  0
  1 11  1  0  0  0  0
  2  3  1  0  0  0  0
  2 13  1  0  0  0  0
  3  4  2  0  0  0  0
  3  9  1  0  0  0  0
  4  5  1  0  0  0  0
  4 14  1  0  0  0  0
  5  6  2  0  0  0  0
  5  7  1  0  0  0  0
  6 15  1  0  0  0  0
  7  8  1  0  0  0  0
  8 16  1  0  0  0  0
  8 17  1  0  0  0  0
  8 18  1  0  0  0  0
  9 10  1  0  0  0  0
 10 19  1  0  0  0  0
 10 20  1  0  0  0  0
 10 21  1  0  0  0  0
 11 12  1  0  0  0  0
 12 22  1  0  0  0  0
 12 23  1  0  0  0  0
 12 24  1  0  0  0  0
M  END
>  <Mol_ID>
3642

>  <Formula>
C9H12O3

>  <MolWeight>
168.18978

>  <Cat>
S6294

>  <Name>
1,3,5-Trimethoxybenzene

>  <Synonyms>
Phloroglucinol trimethyl ether, Sym-trimethoxybenzene, Trimethylphloroglucinol

>  <Target>
Others

>  <Form>
free base

>  <CAS>
621-23-8

>  <URL>
http://www.selleck.cn/products/1-3-5-trimethoxybenzene.html

$$$$
