1,3-BUTANEDIOL
 OpenBabel08302521363D

 16 15  0  0  0  0  0  0  0  0999 V2000
    0.8986   -0.0568    0.0758 C   0  0  0  0  0  0  0  0  0  0  0  0
    0.3792   -0.4780   -1.3036 C   0  0  3  0  0  0  0  0  0  0  0  0
    0.4140   -0.9757    1.1958 C   0  0  0  0  0  0  0  0  0  0  0  0
    0.8706    0.4572   -2.3999 C   0  0  0  0  0  0  0  0  0  0  0  0
    0.8090   -1.8074   -1.6020 O   0  0  0  0  0  0  0  0  0  0  0  0
    0.9051   -2.2985    1.0273 O   0  0  0  0  0  0  0  0  0  0  0  0
    0.5842    0.9689    0.2921 H   0  0  0  0  0  0  0  0  0  0  0  0
    1.9951   -0.0801    0.0654 H   0  0  0  0  0  0  0  0  0  0  0  0
   -0.7165   -0.4839   -1.2976 H   0  0  0  0  0  0  0  0  0  0  0  0
    0.7717   -0.6084    2.1610 H   0  0  0  0  0  0  0  0  0  0  0  0
   -0.6799   -1.0119    1.2321 H   0  0  0  0  0  0  0  0  0  0  0  0
    1.9632    0.4373   -2.4752 H   0  0  0  0  0  0  0  0  0  0  0  0
    0.4825    0.1385   -3.3732 H   0  0  0  0  0  0  0  0  0  0  0  0
    0.5499    1.4873   -2.2174 H   0  0  0  0  0  0  0  0  0  0  0  0
    1.7788   -1.7867   -1.7087 H   0  0  0  0  0  0  0  0  0  0  0  0
    0.6547   -2.5737    0.1203 H   0  0  0  0  0  0  0  0  0  0  0  0
  1  2  1  0  0  0  0
  1  3  1  0  0  0  0
  1  7  1  0  0  0  0
  1  8  1  0  0  0  0
  2  4  1  0  0  0  0
  2  5  1  0  0  0  0
  2  9  1  0  0  0  0
  3  6  1  0  0  0  0
  3 10  1  0  0  0  0
  3 11  1  0  0  0  0
  4 12  1  0  0  0  0
  4 13  1  0  0  0  0
  4 14  1  0  0  0  0
  5 15  1  0  0  0  0
  6 16  1  0  0  0  0
M  END
>  <Mol_ID>
7296

>  <Formula>
C4H10O2

>  <MolWeight>
90.121

>  <Cat>
E4324

>  <Name>
1,3-BUTANEDIOL

>  <Synonyms>
1,3-BUTANEDIOL

>  <Target>
Endogenous Metabolite

>  <Form>
free base

>  <CAS>
107-88-0

>  <URL>
https://www.selleckchem.com/products/1-3-butanediol.html

$$$$
