1,3-Dimethylpyrazole
 OpenBabel08302521363D

 15 15  0  0  0  0  0  0  0  0999 V2000
   -2.4538    0.6443   -0.0223 C   0  0  0  0  0  0  0  0  0  0  0  0
    2.3726    0.6132   -0.0296 C   0  0  0  0  0  0  0  0  0  0  0  0
   -0.0186    0.9069   -0.0094 N   0  0  0  0  0  0  0  0  0  0  0  0
   -1.0796    0.0893   -0.0103 C   0  0  0  0  0  0  0  0  0  0  0  0
    1.0360    0.0717   -0.0100 N   0  0  0  0  0  0  0  0  0  0  0  0
   -0.6893   -1.2692   -0.0039 C   0  0  0  0  0  0  0  0  0  0  0  0
    0.6847   -1.2454   -0.0031 C   0  0  0  0  0  0  0  0  0  0  0  0
   -2.6296    1.2608    0.8651 H   0  0  0  0  0  0  0  0  0  0  0  0
   -2.6108    1.2624   -0.9121 H   0  0  0  0  0  0  0  0  0  0  0  0
   -3.2009   -0.1560   -0.0315 H   0  0  0  0  0  0  0  0  0  0  0  0
    2.4877    1.2137   -0.9353 H   0  0  0  0  0  0  0  0  0  0  0  0
    2.5097    1.2299    0.8621 H   0  0  0  0  0  0  0  0  0  0  0  0
    3.0966   -0.2057   -0.0315 H   0  0  0  0  0  0  0  0  0  0  0  0
   -1.3252   -2.1433   -0.0042 H   0  0  0  0  0  0  0  0  0  0  0  0
    1.4204   -2.0367   -0.0021 H   0  0  0  0  0  0  0  0  0  0  0  0
  1  4  1  0  0  0  0
  1  8  1  0  0  0  0
  1  9  1  0  0  0  0
  1 10  1  0  0  0  0
  2  5  1  0  0  0  0
  2 11  1  0  0  0  0
  2 12  1  0  0  0  0
  2 13  1  0  0  0  0
  3  4  2  0  0  0  0
  3  5  1  0  0  0  0
  4  6  1  0  0  0  0
  5  7  1  0  0  0  0
  6  7  2  0  0  0  0
  6 14  1  0  0  0  0
  7 15  1  0  0  0  0
M  END
>  <Mol_ID>
7100

>  <Formula>
C5H8N2

>  <MolWeight>
96.13042

>  <Cat>
E4124

>  <Name>
1,3-Dimethylpyrazole

>  <Synonyms>
1,3-Dimethylpyrazole

>  <Target>
Others

>  <Form>
Free base

>  <CAS>
694-48-4

>  <URL>
https://www.selleckchem.com/products/1-3-dimethylpyrazole.html

$$$$
