1,3-Dimethyluric acid
 OpenBabel08302521373D

 22 23  0  0  0  0  0  0  0  0999 V2000
    1.0464    0.0239   -0.0349 O   0  0  0  0  0  0  0  0  0  0  0  0
    6.5571    0.0139   -0.0493 C   0  0  0  0  0  0  0  0  0  0  0  0
    2.2923   -2.4316   -0.2404 C   0  0  0  0  0  0  0  0  0  0  0  0
    3.8122    4.5340    0.0164 O   0  0  0  0  0  0  0  0  0  0  0  0
    5.0541   -2.3150   -0.1856 O   0  0  0  0  0  0  0  0  0  0  0  0
    3.0680    1.1955    0.0055 C   0  0  0  0  0  0  0  0  0  0  0  0
    4.3990    1.1486    0.0034 C   0  0  0  0  0  0  0  0  0  0  0  0
    2.2729   -0.0255   -0.0491 C   0  0  0  0  0  0  0  0  0  0  0  0
    2.6429    2.4933    0.0286 N   0  0  0  0  0  0  0  0  0  0  0  0
    5.1034   -0.0153   -0.0466 N   0  0  0  0  0  0  0  0  0  0  0  0
    4.8690    2.4324    0.0307 N   0  0  0  0  0  0  0  0  0  0  0  0
    3.0354   -1.1911   -0.1301 N   0  0  0  0  0  0  0  0  0  0  0  0
    3.7748    3.3205    0.0291 C   0  0  0  0  0  0  0  0  0  0  0  0
    4.4403   -1.2493   -0.1229 C   0  0  0  0  0  0  0  0  0  0  0  0
    6.9029    0.6009   -0.9058 H   0  0  0  0  0  0  0  0  0  0  0  0
    6.9085    0.4738    0.8799 H   0  0  0  0  0  0  0  0  0  0  0  0
    6.9885   -0.9882   -0.1233 H   0  0  0  0  0  0  0  0  0  0  0  0
    1.6463   -2.5391    0.6366 H   0  0  0  0  0  0  0  0  0  0  0  0
    1.6570   -2.3832   -1.1312 H   0  0  0  0  0  0  0  0  0  0  0  0
    2.9403   -3.3081   -0.3165 H   0  0  0  0  0  0  0  0  0  0  0  0
    1.6829    2.8050    0.0109 H   0  0  0  0  0  0  0  0  0  0  0  0
    5.8278    2.7392    0.0156 H   0  0  0  0  0  0  0  0  0  0  0  0
  1  8  2  0  0  0  0
  2 10  1  0  0  0  0
  2 15  1  0  0  0  0
  2 16  1  0  0  0  0
  2 17  1  0  0  0  0
  3 12  1  0  0  0  0
  3 18  1  0  0  0  0
  3 19  1  0  0  0  0
  3 20  1  0  0  0  0
  4 13  2  0  0  0  0
  5 14  2  0  0  0  0
  6  7  2  0  0  0  0
  6  8  1  0  0  0  0
  6  9  1  0  0  0  0
  7 10  1  0  0  0  0
  7 11  1  0  0  0  0
  8 12  1  0  0  0  0
  9 13  1  0  0  0  0
  9 21  1  0  0  0  0
 10 14  1  0  0  0  0
 11 13  1  0  0  0  0
 11 22  1  0  0  0  0
 12 14  1  0  0  0  0
M  END
>  <Mol_ID>
7427

>  <Formula>
C7H8N4O3

>  <MolWeight>
196.16342

>  <Cat>
E4527

>  <Name>
1,3-Dimethyluric acid

>  <Synonyms>
1,3-Dimethyluric acid

>  <Target>
Endogenous Metabolite

>  <Form>
Free base

>  <CAS>
944-73-0

>  <URL>
https://www.selleckchem.com/products/1-3-dimethyluric-acid.html

$$$$
