1,3-Propanediol
 OpenBabel08302521363D

 13 12  0  0  0  0  0  0  0  0999 V2000
    0.9110   -0.0075   -0.0047 C   0  0  0  0  0  0  0  0  0  0  0  0
    0.4157   -1.3888   -0.4229 C   0  0  0  0  0  0  0  0  0  0  0  0
    0.3925    0.4112    1.3674 C   0  0  0  0  0  0  0  0  0  0  0  0
    0.8584   -2.3801    0.4983 O   0  0  0  0  0  0  0  0  0  0  0  0
    0.8582   -0.4623    2.3855 O   0  0  0  0  0  0  0  0  0  0  0  0
    0.6022    0.7298   -0.7529 H   0  0  0  0  0  0  0  0  0  0  0  0
    2.0070   -0.0255    0.0271 H   0  0  0  0  0  0  0  0  0  0  0  0
   -0.6782   -1.4174   -0.4516 H   0  0  0  0  0  0  0  0  0  0  0  0
    0.7892   -1.6495   -1.4181 H   0  0  0  0  0  0  0  0  0  0  0  0
    0.7494    1.4181    1.6069 H   0  0  0  0  0  0  0  0  0  0  0  0
   -0.7028    0.4266    1.3919 H   0  0  0  0  0  0  0  0  0  0  0  0
    1.8332   -2.3892    0.4622 H   0  0  0  0  0  0  0  0  0  0  0  0
    0.6115   -1.3704    2.1094 H   0  0  0  0  0  0  0  0  0  0  0  0
  1  2  1  0  0  0  0
  1  3  1  0  0  0  0
  1  6  1  0  0  0  0
  1  7  1  0  0  0  0
  2  4  1  0  0  0  0
  2  8  1  0  0  0  0
  2  9  1  0  0  0  0
  3  5  1  0  0  0  0
  3 10  1  0  0  0  0
  3 11  1  0  0  0  0
  4 12  1  0  0  0  0
  5 13  1  0  0  0  0
M  END
>  <Mol_ID>
7217

>  <Formula>
C3H8O2

>  <MolWeight>
76.09442

>  <Cat>
E4223

>  <Name>
1,3-Propanediol

>  <Target>
Others

>  <Form>
Free base

>  <CAS>
504-63-2

>  <URL>
https://www.selleckchem.com/products/1-3-propanediol.html

$$$$
