1,4-Dihydro-4-oxoquinoline-2-carboxylic acid
 OpenBabel08302521373D

 21 22  0  0  0  0  0  0  0  0999 V2000
   -1.7834    1.9077   -0.1005 O   0  0  0  0  0  0  0  0  0  0  0  0
   -2.9069   -2.7125    0.0096 C   0  0  0  0  0  0  0  0  0  0  0  0
   -2.4004   -3.8937   -0.4137 O   0  0  0  0  0  0  0  0  0  0  0  0
   -4.0520   -2.5727    0.3986 O   0  0  0  0  0  0  0  0  0  0  0  0
    0.4418   -0.9327   -0.0163 C   0  0  0  0  0  0  0  0  0  0  0  0
    0.0579    0.4191   -0.0545 C   0  0  0  0  0  0  0  0  0  0  0  0
   -0.5269   -1.9575   -0.1030 N   0  0  0  0  0  0  0  0  0  0  0  0
    1.8062   -1.2414   -0.0112 C   0  0  0  0  0  0  0  0  0  0  0  0
   -1.3884    0.7504   -0.0760 C   0  0  0  0  0  0  0  0  0  0  0  0
    1.0121    1.4423   -0.0347 C   0  0  0  0  0  0  0  0  0  0  0  0
   -1.8760   -1.6267   -0.0471 C   0  0  0  0  0  0  0  0  0  0  0  0
    2.7624   -0.2193    0.0034 C   0  0  0  0  0  0  0  0  0  0  0  0
   -2.3475   -0.3708   -0.0446 C   0  0  0  0  0  0  0  0  0  0  0  0
    2.3670    1.1190   -0.0052 C   0  0  0  0  0  0  0  0  0  0  0  0
   -1.5687   -3.7716   -0.9110 H   0  0  0  0  0  0  0  0  0  0  0  0
   -0.2692   -2.8072    0.3972 H   0  0  0  0  0  0  0  0  0  0  0  0
    2.1426   -2.2751   -0.0244 H   0  0  0  0  0  0  0  0  0  0  0  0
    0.6998    2.4845   -0.0452 H   0  0  0  0  0  0  0  0  0  0  0  0
    3.8223   -0.4673    0.0126 H   0  0  0  0  0  0  0  0  0  0  0  0
   -3.4007   -0.1168   -0.0090 H   0  0  0  0  0  0  0  0  0  0  0  0
    3.1137    1.9103    0.0041 H   0  0  0  0  0  0  0  0  0  0  0  0
  1  9  2  0  0  0  0
  2  3  1  0  0  0  0
  2  4  2  0  0  0  0
  2 11  1  0  0  0  0
  3 15  1  0  0  0  0
  5  6  2  0  0  0  0
  5  7  1  0  0  0  0
  5  8  1  0  0  0  0
  6  9  1  0  0  0  0
  6 10  1  0  0  0  0
  7 11  1  0  0  0  0
  7 16  1  0  0  0  0
  8 12  2  0  0  0  0
  8 17  1  0  0  0  0
  9 13  1  0  0  0  0
 10 14  2  0  0  0  0
 10 18  1  0  0  0  0
 11 13  2  0  0  0  0
 12 14  1  0  0  0  0
 12 19  1  0  0  0  0
 13 20  1  0  0  0  0
 14 21  1  0  0  0  0
M  END
>  <Mol_ID>
7383

>  <Formula>
C10H7NO3

>  <MolWeight>
189.16748

>  <Cat>
E4442

>  <Name>
1,4-Dihydro-4-oxoquinoline-2-carboxylic acid

>  <Synonyms>
Kynurenic acid, Quinurenic acid

>  <Target>
NMDAR/ GluR/AChR

>  <Form>
Free base

>  <CAS>
13593-94-7

>  <URL>
https://www.selleckchem.com/products/1-4-dihydro-4-oxoquinoline-2-carboxylic-acid.html

$$$$
