1,5,5-Trimethylhydantoin
 OpenBabel08302520383D

 20 20  0  0  0  0  0  0  0  0999 V2000
   -0.7650   -1.0591   -0.2369 C   0  0  0  0  0  0  0  0  0  0  0  0
    0.6805   -1.0088   -0.0375 N   0  0  0  0  0  0  0  0  0  0  0  0
   -1.0873    0.4247    0.0097 C   0  0  0  0  0  0  0  0  0  0  0  0
   -1.1031   -1.3880   -1.6909 C   0  0  0  0  0  0  0  0  0  0  0  0
   -1.5037   -1.9578    0.7462 C   0  0  0  0  0  0  0  0  0  0  0  0
    1.1417    0.2888    0.0949 C   0  0  0  0  0  0  0  0  0  0  0  0
    1.5282   -2.1657    0.1358 C   0  0  0  0  0  0  0  0  0  0  0  0
    0.0777    1.1260    0.0311 N   0  0  0  0  0  0  0  0  0  0  0  0
   -2.2005    0.9158    0.1236 O   0  0  0  0  0  0  0  0  0  0  0  0
    2.2954    0.6342    0.2876 O   0  0  0  0  0  0  0  0  0  0  0  0
   -0.7704   -2.3964   -1.9577 H   0  0  0  0  0  0  0  0  0  0  0  0
   -2.1824   -1.3233   -1.8692 H   0  0  0  0  0  0  0  0  0  0  0  0
   -0.6187   -0.6881   -2.3829 H   0  0  0  0  0  0  0  0  0  0  0  0
   -1.2325   -1.7270    1.7823 H   0  0  0  0  0  0  0  0  0  0  0  0
   -2.5891   -1.8352    0.6551 H   0  0  0  0  0  0  0  0  0  0  0  0
   -1.2754   -3.0150    0.5708 H   0  0  0  0  0  0  0  0  0  0  0  0
    2.3840   -2.0822   -0.5397 H   0  0  0  0  0  0  0  0  0  0  0  0
    1.8974   -2.1748    1.1662 H   0  0  0  0  0  0  0  0  0  0  0  0
    0.9800   -3.0861   -0.0737 H   0  0  0  0  0  0  0  0  0  0  0  0
    0.1422    2.1142    0.2031 H   0  0  0  0  0  0  0  0  0  0  0  0
  1  2  1  0  0  0  0
  1  3  1  0  0  0  0
  1  4  1  0  0  0  0
  1  5  1  0  0  0  0
  2  6  1  0  0  0  0
  2  7  1  0  0  0  0
  3  8  1  0  0  0  0
  3  9  2  0  0  0  0
  4 11  1  0  0  0  0
  4 12  1  0  0  0  0
  4 13  1  0  0  0  0
  5 14  1  0  0  0  0
  5 15  1  0  0  0  0
  5 16  1  0  0  0  0
  6 10  2  0  0  0  0
  6  8  1  0  0  0  0
  7 17  1  0  0  0  0
  7 18  1  0  0  0  0
  7 19  1  0  0  0  0
  8 20  1  0  0  0  0
M  END
>  <Mol_ID>
3471

>  <Formula>
C6H10N2O2

>  <MolWeight>
142.1558

>  <Cat>
S6175

>  <Name>
1,5,5-Trimethylhydantoin

>  <Synonyms>
N/A

>  <Target>
Others

>  <Form>
free base

>  <CAS>
6851-81-6

>  <URL>
http://www.selleck.cn/products/1-5-5-trimethylhydantoin.html

$$$$
