1,5-Anhydro-D-glucitol
 OpenBabel08302521343D

 23 23  0  0  0  0  0  0  0  0999 V2000
    3.1188   -1.3075    0.6078 C   0  0  0  0  0  0  0  0  0  0  0  0
    2.6383   -1.5076    1.9378 O   0  0  0  0  0  0  0  0  0  0  0  0
    2.6778   -0.7773   -2.2470 O   0  0  0  0  0  0  0  0  0  0  0  0
    3.2317    1.9225   -3.1708 O   0  0  0  0  0  0  0  0  0  0  0  0
    2.5692    4.0223   -1.2493 O   0  0  0  0  0  0  0  0  0  0  0  0
    2.6130    0.0312    0.0533 C   0  0  2  0  0  0  0  0  0  0  0  0
    3.1278    0.2627   -1.3767 C   0  0  2  0  0  0  0  0  0  0  0  0
    3.0603    1.0861    0.9261 O   0  0  0  0  0  0  0  0  0  0  0  0
    2.6814    1.6448   -1.8790 C   0  0  1  0  0  0  0  0  0  0  0  0
    2.5708    2.3669    0.5218 C   0  0  0  0  0  0  0  0  0  0  0  0
    3.0771    2.7428   -0.8708 C   0  0  2  0  0  0  0  0  0  0  0  0
    2.7694   -2.1467   -0.0010 H   0  0  0  0  0  0  0  0  0  0  0  0
    4.2121   -1.3339    0.6473 H   0  0  0  0  0  0  0  0  0  0  0  0
    2.9947   -0.7634    2.4601 H   0  0  0  0  0  0  0  0  0  0  0  0
    1.8246   -0.5151   -2.6368 H   0  0  0  0  0  0  0  0  0  0  0  0
    4.1972    2.0037   -3.0840 H   0  0  0  0  0  0  0  0  0  0  0  0
    1.6954    3.9056   -1.6621 H   0  0  0  0  0  0  0  0  0  0  0  0
    1.5154    0.0116    0.0734 H   0  0  0  0  0  0  0  0  0  0  0  0
    4.2243    0.2257   -1.3875 H   0  0  0  0  0  0  0  0  0  0  0  0
    1.5964    1.6567   -2.0245 H   0  0  0  0  0  0  0  0  0  0  0  0
    2.9086    3.1094    1.2523 H   0  0  0  0  0  0  0  0  0  0  0  0
    1.4740    2.3755    0.5586 H   0  0  0  0  0  0  0  0  0  0  0  0
    4.1699    2.8307   -0.8525 H   0  0  0  0  0  0  0  0  0  0  0  0
  1  2  1  0  0  0  0
  1 12  1  0  0  0  0
  1 13  1  0  0  0  0
  2 14  1  0  0  0  0
  3 15  1  0  0  0  0
  4 16  1  0  0  0  0
  5 17  1  0  0  0  0
  6  7  1  0  0  0  0
  6  8  1  0  0  0  0
  6 18  1  6  0  0  0
  6  1  1  0  0  0  0
  7  3  1  0  0  0  0
  7  9  1  0  0  0  0
  7 19  1  1  0  0  0
  8 10  1  0  0  0  0
  9  4  1  0  0  0  0
  9 11  1  0  0  0  0
  9 20  1  6  0  0  0
 10 11  1  0  0  0  0
 10 21  1  0  0  0  0
 10 22  1  0  0  0  0
 11  5  1  0  0  0  0
 11 23  1  1  0  0  0
M  END
>  <Mol_ID>
6511

>  <Formula>
C6H12O5

>  <MolWeight>
164.15648

>  <Cat>
E2833

>  <Name>
1,5-Anhydro-D-glucitol

>  <Target>
Others

>  <Form>
free base

>  <CAS>
154-58-5

>  <URL>
http://www.selleckchem.com/products/1-5-anhydro-d-glucitol.html

$$$$
