1-Aminobenzotriazole
 OpenBabel08302521253D

 16 17  0  0  0  0  0  0  0  0999 V2000
   -2.1461   -0.7229   -0.0284 C   0  0  0  0  0  0  0  0  0  0  0  0
   -2.1235    0.6725    0.0436 C   0  0  0  0  0  0  0  0  0  0  0  0
   -0.9106    1.3735    0.0596 C   0  0  0  0  0  0  0  0  0  0  0  0
    0.2851    0.6435   -0.0002 C   0  0  0  0  0  0  0  0  0  0  0  0
    0.2364   -0.7426   -0.0827 C   0  0  0  0  0  0  0  0  0  0  0  0
   -0.9636   -1.4667   -0.0964 C   0  0  0  0  0  0  0  0  0  0  0  0
    1.5891    1.0559    0.0131 N   0  0  0  0  0  0  0  0  0  0  0  0
    2.3600   -0.0231   -0.0583 N   0  0  0  0  0  0  0  0  0  0  0  0
    1.5599   -1.0965   -0.1386 N   0  0  0  0  0  0  0  0  0  0  0  0
    2.0401   -2.4188   -0.2128 N   0  0  0  0  0  0  0  0  0  0  0  0
   -3.1026   -1.2423   -0.0371 H   0  0  0  0  0  0  0  0  0  0  0  0
   -3.0609    1.2242    0.0881 H   0  0  0  0  0  0  0  0  0  0  0  0
   -0.8899    2.4561    0.1164 H   0  0  0  0  0  0  0  0  0  0  0  0
   -0.9763   -2.5475   -0.1637 H   0  0  0  0  0  0  0  0  0  0  0  0
    1.6368   -2.9829    0.5292 H   0  0  0  0  0  0  0  0  0  0  0  0
    3.0408   -2.3975   -0.0292 H   0  0  0  0  0  0  0  0  0  0  0  0
  1  2  2  0  0  0  0
  1 11  1  0  0  0  0
  2  3  1  0  0  0  0
  2 12  1  0  0  0  0
  3  4  2  0  0  0  0
  3 13  1  0  0  0  0
  4  5  1  0  0  0  0
  4  7  1  0  0  0  0
  5  6  2  0  0  0  0
  6  1  1  0  0  0  0
  6 14  1  0  0  0  0
  7  8  2  0  0  0  0
  8  9  1  0  0  0  0
  9  5  1  0  0  0  0
  9 10  1  0  0  0  0
 10 15  1  0  0  0  0
 10 16  1  0  0  0  0
M  END
>  <Mol_ID>
5202

>  <Formula>
C6H6N4

>  <MolWeight>
134.13864

>  <Cat>
S6886

>  <Name>
1-Aminobenzotriazole

>  <Synonyms>
ABT, 3-Aminobenzotriazole, 1-Benzotriazolylamine, NSC 114498, NSC 656987

>  <Target>
Histone Acetyltransferase,P450 (e.g. CYP17),Transferase

>  <Form>
free base

>  <CAS>
1614-12-6

>  <URL>
http://www.selleckchem.com/products/1-aminobenzotriazole.html

$$$$
