1-Aminocyclopropanecarboxylic acid
 OpenBabel08302521383D

 14 14  0  0  0  0  0  0  0  0999 V2000
    1.0465   -0.1125    1.1304 O   0  0  0  0  0  0  0  0  0  0  0  0
    0.9730   -2.0411   -0.0207 O   0  0  0  0  0  0  0  0  0  0  0  0
   -1.5107   -1.0077    2.2067 N   0  0  0  0  0  0  0  0  0  0  0  0
   -1.1031   -1.0887    0.7829 C   0  0  0  0  0  0  0  0  0  0  0  0
   -2.0082   -1.8317   -0.1724 C   0  0  0  0  0  0  0  0  0  0  0  0
   -1.9297   -0.3353   -0.2369 C   0  0  0  0  0  0  0  0  0  0  0  0
    0.3866   -1.1592    0.5852 C   0  0  0  0  0  0  0  0  0  0  0  0
    1.9832   -0.3175    0.9308 H   0  0  0  0  0  0  0  0  0  0  0  0
   -1.0350   -0.2132    2.6388 H   0  0  0  0  0  0  0  0  0  0  0  0
   -2.5078   -0.8222    2.2911 H   0  0  0  0  0  0  0  0  0  0  0  0
   -1.5471   -2.4012   -0.9725 H   0  0  0  0  0  0  0  0  0  0  0  0
   -2.9090   -2.2865    0.2215 H   0  0  0  0  0  0  0  0  0  0  0  0
   -2.7889    0.2323    0.0994 H   0  0  0  0  0  0  0  0  0  0  0  0
   -1.4196    0.1071   -1.0856 H   0  0  0  0  0  0  0  0  0  0  0  0
  1  7  1  0  0  0  0
  1  8  1  0  0  0  0
  2  7  2  0  0  0  0
  3  4  1  0  0  0  0
  3  9  1  0  0  0  0
  3 10  1  0  0  0  0
  4  5  1  0  0  0  0
  4  6  1  0  0  0  0
  4  7  1  0  0  0  0
  5  6  1  0  0  0  0
  5 11  1  0  0  0  0
  5 12  1  0  0  0  0
  6 13  1  0  0  0  0
  6 14  1  0  0  0  0
M  END
>  <Mol_ID>
7962

>  <Formula>
C4H7NO2

>  <MolWeight>
101.10388

>  <Cat>
S3119

>  <Name>
1-Aminocyclopropanecarboxylic acid

>  <Synonyms>
N/A

>  <Target>
Others

>  <Form>
Free Base

>  <CAS>
22059-21-8

>  <URL>
https://www.selleckchem.com/products/.html

$$$$
