1-BCP
 OpenBabel08302521253D

 32 34  0  0  0  0  0  0  0  0999 V2000
    1.0777    0.2309    0.1557 C   0  0  0  0  0  0  0  0  0  0  0  0
    0.3782    1.3754   -0.2550 N   0  0  0  0  0  0  0  0  0  0  0  0
   -1.0399    1.4635    0.1002 C   0  0  0  0  0  0  0  0  0  0  0  0
   -1.8820    2.1116   -0.9957 C   0  0  0  0  0  0  0  0  0  0  0  0
   -1.2945    3.4470   -1.4355 C   0  0  0  0  0  0  0  0  0  0  0  0
    0.1534    3.2640   -1.8652 C   0  0  0  0  0  0  0  0  0  0  0  0
    0.9825    2.6089   -0.7657 C   0  0  0  0  0  0  0  0  0  0  0  0
    0.5058   -0.7759    0.5792 O   0  0  0  0  0  0  0  0  0  0  0  0
    6.6456   -0.3139   -0.0994 O   0  0  0  0  0  0  0  0  0  0  0  0
    6.6032   -1.7114   -0.4536 C   0  0  0  0  0  0  0  0  0  0  0  0
    5.2694   -2.1891   -0.7298 O   0  0  0  0  0  0  0  0  0  0  0  0
    4.5301   -1.1057   -0.3733 C   0  0  0  0  0  0  0  0  0  0  0  0
    5.3178   -0.0396   -0.0008 C   0  0  0  0  0  0  0  0  0  0  0  0
    3.1518   -1.0323   -0.3524 C   0  0  0  0  0  0  0  0  0  0  0  0
    2.5636    0.1670    0.0833 C   0  0  0  0  0  0  0  0  0  0  0  0
    3.3830    1.2286    0.5296 C   0  0  0  0  0  0  0  0  0  0  0  0
    4.7758    1.1439    0.4445 C   0  0  0  0  0  0  0  0  0  0  0  0
   -1.1013    2.0542    1.0218 H   0  0  0  0  0  0  0  0  0  0  0  0
   -1.4504    0.4735    0.3270 H   0  0  0  0  0  0  0  0  0  0  0  0
   -2.9075    2.2562   -0.6395 H   0  0  0  0  0  0  0  0  0  0  0  0
   -1.9315    1.4387   -1.8607 H   0  0  0  0  0  0  0  0  0  0  0  0
   -1.8776    3.8576   -2.2671 H   0  0  0  0  0  0  0  0  0  0  0  0
   -1.3500    4.1690   -0.6118 H   0  0  0  0  0  0  0  0  0  0  0  0
    0.1886    2.6348   -2.7628 H   0  0  0  0  0  0  0  0  0  0  0  0
    0.5929    4.2312   -2.1299 H   0  0  0  0  0  0  0  0  0  0  0  0
    1.9757    2.4175   -1.1754 H   0  0  0  0  0  0  0  0  0  0  0  0
    1.0828    3.2939    0.0856 H   0  0  0  0  0  0  0  0  0  0  0  0
    7.2268   -1.8713   -1.3398 H   0  0  0  0  0  0  0  0  0  0  0  0
    7.0207   -2.2917    0.3791 H   0  0  0  0  0  0  0  0  0  0  0  0
    2.5452   -1.8851   -0.6430 H   0  0  0  0  0  0  0  0  0  0  0  0
    2.9406    2.1250    0.9504 H   0  0  0  0  0  0  0  0  0  0  0  0
    5.4087    1.9697    0.7473 H   0  0  0  0  0  0  0  0  0  0  0  0
  1  2  1  0  0  0  0
  1  8  2  0  0  0  0
  1 15  1  0  0  0  0
  2  3  1  0  0  0  0
  2  7  1  0  0  0  0
  3  4  1  0  0  0  0
  3 18  1  0  0  0  0
  3 19  1  0  0  0  0
  4  5  1  0  0  0  0
  4 20  1  0  0  0  0
  4 21  1  0  0  0  0
  5  6  1  0  0  0  0
  5 22  1  0  0  0  0
  5 23  1  0  0  0  0
  6  7  1  0  0  0  0
  6 24  1  0  0  0  0
  6 25  1  0  0  0  0
  7 26  1  0  0  0  0
  7 27  1  0  0  0  0
  9 10  1  0  0  0  0
  9 13  1  0  0  0  0
 10 11  1  0  0  0  0
 10 28  1  0  0  0  0
 10 29  1  0  0  0  0
 11 12  1  0  0  0  0
 12 13  2  0  0  0  0
 12 14  1  0  0  0  0
 13 17  1  0  0  0  0
 14 15  2  0  0  0  0
 14 30  1  0  0  0  0
 15 16  1  0  0  0  0
 16 17  2  0  0  0  0
 16 31  1  0  0  0  0
 17 32  1  0  0  0  0
M  END
>  <Mol_ID>
5188

>  <Formula>
C13H15NO3

>  <MolWeight>
233.2631

>  <Cat>
S6803

>  <Name>
1-BCP

>  <Synonyms>
Piperonylic acid piperidide

>  <Target>
GluR

>  <Form>
free base

>  <CAS>
34023-62-6

>  <URL>
http://www.selleckchem.com/products/1-bcp.html

$$$$
