1-Decanol
 OpenBabel08302521373D

 33 32  0  0  0  0  0  0  0  0999 V2000
    1.1928    0.1074   -0.0828 C   0  0  0  0  0  0  0  0  0  0  0  0
    0.7196   -1.3455   -0.1892 C   0  0  0  0  0  0  0  0  0  0  0  0
    0.7684    0.7230    1.2547 C   0  0  0  0  0  0  0  0  0  0  0  0
    1.0535   -2.0100   -1.5283 C   0  0  0  0  0  0  0  0  0  0  0  0
    1.2312    2.1720    1.4428 C   0  0  0  0  0  0  0  0  0  0  0  0
    2.5414   -2.1104   -1.8771 C   0  0  0  0  0  0  0  0  0  0  0  0
    0.7021    3.1769    0.4177 C   0  0  0  0  0  0  0  0  0  0  0  0
    3.3532   -2.9279   -0.8724 C   0  0  0  0  0  0  0  0  0  0  0  0
   -0.8183    3.2770    0.3831 C   0  0  0  0  0  0  0  0  0  0  0  0
    4.8041   -3.0606   -1.3123 C   0  0  0  0  0  0  0  0  0  0  0  0
   -1.2142    4.2537   -0.5700 O   0  0  0  0  0  0  0  0  0  0  0  0
    0.7705    0.6807   -0.9150 H   0  0  0  0  0  0  0  0  0  0  0  0
    2.2839    0.1580   -0.1679 H   0  0  0  0  0  0  0  0  0  0  0  0
    1.1340   -1.9355    0.6361 H   0  0  0  0  0  0  0  0  0  0  0  0
   -0.3709   -1.3703   -0.0658 H   0  0  0  0  0  0  0  0  0  0  0  0
   -0.3200    0.6615    1.3661 H   0  0  0  0  0  0  0  0  0  0  0  0
    1.1934    0.1243    2.0700 H   0  0  0  0  0  0  0  0  0  0  0  0
    0.6223   -3.0190   -1.5296 H   0  0  0  0  0  0  0  0  0  0  0  0
    0.5474   -1.4599   -2.3324 H   0  0  0  0  0  0  0  0  0  0  0  0
    0.9325    2.5015    2.4452 H   0  0  0  0  0  0  0  0  0  0  0  0
    2.3277    2.2005    1.4242 H   0  0  0  0  0  0  0  0  0  0  0  0
    2.6257   -2.5784   -2.8656 H   0  0  0  0  0  0  0  0  0  0  0  0
    2.9722   -1.1082   -1.9760 H   0  0  0  0  0  0  0  0  0  0  0  0
    1.1159    4.1667    0.6505 H   0  0  0  0  0  0  0  0  0  0  0  0
    1.0791    2.9420   -0.5847 H   0  0  0  0  0  0  0  0  0  0  0  0
    3.3296   -2.4545    0.1144 H   0  0  0  0  0  0  0  0  0  0  0  0
    2.9172   -3.9287   -0.7662 H   0  0  0  0  0  0  0  0  0  0  0  0
   -1.2735    2.3286    0.0869 H   0  0  0  0  0  0  0  0  0  0  0  0
   -1.2207    3.5634    1.3600 H   0  0  0  0  0  0  0  0  0  0  0  0
    5.2763   -2.0772   -1.4049 H   0  0  0  0  0  0  0  0  0  0  0  0
    5.3721   -3.6422   -0.5791 H   0  0  0  0  0  0  0  0  0  0  0  0
    4.8771   -3.5694   -2.2789 H   0  0  0  0  0  0  0  0  0  0  0  0
   -0.8691    5.1123   -0.2731 H   0  0  0  0  0  0  0  0  0  0  0  0
  1  2  1  0  0  0  0
  1  3  1  0  0  0  0
  1 12  1  0  0  0  0
  1 13  1  0  0  0  0
  2  4  1  0  0  0  0
  2 14  1  0  0  0  0
  2 15  1  0  0  0  0
  3  5  1  0  0  0  0
  3 16  1  0  0  0  0
  3 17  1  0  0  0  0
  4  6  1  0  0  0  0
  4 18  1  0  0  0  0
  4 19  1  0  0  0  0
  5  7  1  0  0  0  0
  5 20  1  0  0  0  0
  5 21  1  0  0  0  0
  6  8  1  0  0  0  0
  6 22  1  0  0  0  0
  6 23  1  0  0  0  0
  7  9  1  0  0  0  0
  7 24  1  0  0  0  0
  7 25  1  0  0  0  0
  8 10  1  0  0  0  0
  8 26  1  0  0  0  0
  8 27  1  0  0  0  0
  9 11  1  0  0  0  0
  9 28  1  0  0  0  0
  9 29  1  0  0  0  0
 10 30  1  0  0  0  0
 10 31  1  0  0  0  0
 10 32  1  0  0  0  0
 11 33  1  0  0  0  0
M  END
>  <Mol_ID>
7389

>  <Formula>
C10H22O

>  <MolWeight>
158.28108

>  <Cat>
E4461

>  <Name>
1-Decanol

>  <Target>
Others

>  <Form>
Free base

>  <CAS>
112-30-1

>  <URL>
https://www.selleckchem.com/products/1-decanol.html

$$$$
