1-Dodecanol
 OpenBabel08302521363D

 39 38  0  0  0  0  0  0  0  0999 V2000
    1.0537   -0.1252   -0.0681 C   0  0  0  0  0  0  0  0  0  0  0  0
    0.5513   -0.5691    1.3126 C   0  0  0  0  0  0  0  0  0  0  0  0
    0.6520    1.3235   -0.3748 C   0  0  0  0  0  0  0  0  0  0  0  0
    0.9146   -2.0125    1.6726 C   0  0  0  0  0  0  0  0  0  0  0  0
    1.1127    1.8074   -1.7556 C   0  0  0  0  0  0  0  0  0  0  0  0
    2.4092   -2.3493    1.7206 C   0  0  0  0  0  0  0  0  0  0  0  0
    0.5843    1.0093   -2.9531 C   0  0  0  0  0  0  0  0  0  0  0  0
    3.1950   -1.5308    2.7466 C   0  0  0  0  0  0  0  0  0  0  0  0
   -0.9397    1.0027   -3.0528 C   0  0  0  0  0  0  0  0  0  0  0  0
    4.6693   -1.9447    2.7763 C   0  0  0  0  0  0  0  0  0  0  0  0
   -1.4251    0.2091   -4.2596 C   0  0  0  0  0  0  0  0  0  0  0  0
    5.4615   -1.1308    3.7900 C   0  0  0  0  0  0  0  0  0  0  0  0
   -2.8447    0.2264   -4.3088 O   0  0  0  0  0  0  0  0  0  0  0  0
    0.6382   -0.8025   -0.8225 H   0  0  0  0  0  0  0  0  0  0  0  0
    2.1466   -0.2067   -0.1175 H   0  0  0  0  0  0  0  0  0  0  0  0
    0.9175    0.1171    2.0824 H   0  0  0  0  0  0  0  0  0  0  0  0
   -0.5446   -0.4851    1.3245 H   0  0  0  0  0  0  0  0  0  0  0  0
   -0.4336    1.4397   -0.2809 H   0  0  0  0  0  0  0  0  0  0  0  0
    1.0959    1.9793    0.3817 H   0  0  0  0  0  0  0  0  0  0  0  0
    0.4703   -2.2435    2.6490 H   0  0  0  0  0  0  0  0  0  0  0  0
    0.4349   -2.6864    0.9518 H   0  0  0  0  0  0  0  0  0  0  0  0
    0.8123    2.8565   -1.8701 H   0  0  0  0  0  0  0  0  0  0  0  0
    2.2092    1.7987   -1.7872 H   0  0  0  0  0  0  0  0  0  0  0  0
    2.5064   -3.4133    1.9690 H   0  0  0  0  0  0  0  0  0  0  0  0
    2.8534   -2.2274    0.7257 H   0  0  0  0  0  0  0  0  0  0  0  0
    1.0010    1.4511   -3.8679 H   0  0  0  0  0  0  0  0  0  0  0  0
    0.9631   -0.0180   -2.9136 H   0  0  0  0  0  0  0  0  0  0  0  0
    3.1295   -0.4642    2.5119 H   0  0  0  0  0  0  0  0  0  0  0  0
    2.7579   -1.6749    3.7422 H   0  0  0  0  0  0  0  0  0  0  0  0
   -1.3873    0.5736   -2.1491 H   0  0  0  0  0  0  0  0  0  0  0  0
   -1.3174    2.0306   -3.1183 H   0  0  0  0  0  0  0  0  0  0  0  0
    4.7545   -3.0096    3.0276 H   0  0  0  0  0  0  0  0  0  0  0  0
    5.1164   -1.8104    1.7832 H   0  0  0  0  0  0  0  0  0  0  0  0
   -1.0505    0.6461   -5.1909 H   0  0  0  0  0  0  0  0  0  0  0  0
   -1.0941   -0.8333   -4.2114 H   0  0  0  0  0  0  0  0  0  0  0  0
    5.0337   -1.2280    4.7931 H   0  0  0  0  0  0  0  0  0  0  0  0
    6.4997   -1.4786    3.8291 H   0  0  0  0  0  0  0  0  0  0  0  0
    5.4691   -0.0709    3.5199 H   0  0  0  0  0  0  0  0  0  0  0  0
   -3.1696   -0.2576   -3.5288 H   0  0  0  0  0  0  0  0  0  0  0  0
  1  2  1  0  0  0  0
  1  3  1  0  0  0  0
  1 14  1  0  0  0  0
  1 15  1  0  0  0  0
  2  4  1  0  0  0  0
  2 16  1  0  0  0  0
  2 17  1  0  0  0  0
  3  5  1  0  0  0  0
  3 18  1  0  0  0  0
  3 19  1  0  0  0  0
  4  6  1  0  0  0  0
  4 20  1  0  0  0  0
  4 21  1  0  0  0  0
  5  7  1  0  0  0  0
  5 22  1  0  0  0  0
  5 23  1  0  0  0  0
  6  8  1  0  0  0  0
  6 24  1  0  0  0  0
  6 25  1  0  0  0  0
  7  9  1  0  0  0  0
  7 26  1  0  0  0  0
  7 27  1  0  0  0  0
  8 10  1  0  0  0  0
  8 28  1  0  0  0  0
  8 29  1  0  0  0  0
  9 11  1  0  0  0  0
  9 30  1  0  0  0  0
  9 31  1  0  0  0  0
 10 12  1  0  0  0  0
 10 32  1  0  0  0  0
 10 33  1  0  0  0  0
 11 13  1  0  0  0  0
 11 34  1  0  0  0  0
 11 35  1  0  0  0  0
 12 36  1  0  0  0  0
 12 37  1  0  0  0  0
 12 38  1  0  0  0  0
 13 39  1  0  0  0  0
M  END
>  <Mol_ID>
7250

>  <Formula>
C12H26O

>  <MolWeight>
186.33424

>  <Cat>
E4262

>  <Name>
1-Dodecanol

>  <Synonyms>
Undecyl carbinol

>  <Target>
Others

>  <Form>
Free base

>  <CAS>
112-53-8

>  <URL>
https://www.selleckchem.com/products/1-dodecanol.html

$$$$
