1-EBIO
 OpenBabel08302521313D

 22 23  0  0  0  0  0  0  0  0999 V2000
    1.0557    0.1681    0.0314 O   0  0  0  0  0  0  0  0  0  0  0  0
    3.1010   -1.0170    0.0623 N   0  0  0  0  0  0  0  0  0  0  0  0
    3.1304    1.2375    0.0499 N   0  0  0  0  0  0  0  0  0  0  0  0
    4.4408   -0.6010    0.0864 C   0  0  0  0  0  0  0  0  0  0  0  0
    4.4468    0.7954    0.0711 C   0  0  0  0  0  0  0  0  0  0  0  0
    2.6298   -2.3761    0.0809 C   0  0  0  0  0  0  0  0  0  0  0  0
    2.2742    0.1249    0.0483 C   0  0  0  0  0  0  0  0  0  0  0  0
    5.6135   -1.3235    0.1041 C   0  0  0  0  0  0  0  0  0  0  0  0
    5.6093    1.5321    0.0725 C   0  0  0  0  0  0  0  0  0  0  0  0
    2.4314   -2.9013    1.4933 C   0  0  0  0  0  0  0  0  0  0  0  0
    6.8114   -0.5965    0.1015 C   0  0  0  0  0  0  0  0  0  0  0  0
    6.8095    0.8150    0.0850 C   0  0  0  0  0  0  0  0  0  0  0  0
    2.8064    2.1901    0.0311 H   0  0  0  0  0  0  0  0  0  0  0  0
    1.6692   -2.4111   -0.4454 H   0  0  0  0  0  0  0  0  0  0  0  0
    3.3283   -3.0125   -0.4725 H   0  0  0  0  0  0  0  0  0  0  0  0
    5.6232   -2.4058    0.1152 H   0  0  0  0  0  0  0  0  0  0  0  0
    5.6004    2.6149    0.0590 H   0  0  0  0  0  0  0  0  0  0  0  0
    1.6870   -2.3054    2.0329 H   0  0  0  0  0  0  0  0  0  0  0  0
    2.0825   -3.9384    1.4665 H   0  0  0  0  0  0  0  0  0  0  0  0
    3.3646   -2.8680    2.0641 H   0  0  0  0  0  0  0  0  0  0  0  0
    7.7616   -1.1268    0.1078 H   0  0  0  0  0  0  0  0  0  0  0  0
    7.7558    1.3511    0.0813 H   0  0  0  0  0  0  0  0  0  0  0  0
  1  7  2  0  0  0  0
  2  4  1  0  0  0  0
  2  6  1  0  0  0  0
  2  7  1  0  0  0  0
  3  5  1  0  0  0  0
  3  7  1  0  0  0  0
  3 13  1  0  0  0  0
  4  5  2  0  0  0  0
  4  8  1  0  0  0  0
  5  9  1  0  0  0  0
  6 10  1  0  0  0  0
  6 14  1  0  0  0  0
  6 15  1  0  0  0  0
  8 11  2  0  0  0  0
  8 16  1  0  0  0  0
  9 12  2  0  0  0  0
  9 17  1  0  0  0  0
 10 18  1  0  0  0  0
 10 19  1  0  0  0  0
 10 20  1  0  0  0  0
 11 12  1  0  0  0  0
 11 21  1  0  0  0  0
 12 22  1  0  0  0  0
M  END
>  <Mol_ID>
5823

>  <Formula>
C9H10N2O

>  <MolWeight>
162.1885

>  <Cat>
E0012

>  <Name>
1-EBIO

>  <Synonyms>
1-Ethylbenzimidazolinone, 1-Ethyl-2-benzimidazolinone

>  <Target>
Potassium Channel

>  <Form>
Free Base

>  <CAS>
10045-45-1

>  <URL>
http://www.selleckchem.com/products/1-ebio.html

$$$$
