1-Hexanol
 OpenBabel08302521363D

 21 20  0  0  0  0  0  0  0  0999 V2000
    1.0669    0.0310   -0.1607 C   0  0  0  0  0  0  0  0  0  0  0  0
    0.5077    0.8901    0.9747 C   0  0  0  0  0  0  0  0  0  0  0  0
    0.5173    0.4872   -1.5134 C   0  0  0  0  0  0  0  0  0  0  0  0
    0.9848    0.4755    2.3678 C   0  0  0  0  0  0  0  0  0  0  0  0
    1.0804   -0.3368   -2.6610 C   0  0  0  0  0  0  0  0  0  0  0  0
    2.4933    0.5540    2.5459 C   0  0  0  0  0  0  0  0  0  0  0  0
    0.5402    0.1208   -3.8950 O   0  0  0  0  0  0  0  0  0  0  0  0
    0.8044   -1.0207    0.0107 H   0  0  0  0  0  0  0  0  0  0  0  0
    2.1594    0.0956   -0.1760 H   0  0  0  0  0  0  0  0  0  0  0  0
    0.7764    1.9430    0.8069 H   0  0  0  0  0  0  0  0  0  0  0  0
   -0.5888    0.8392    0.9588 H   0  0  0  0  0  0  0  0  0  0  0  0
   -0.5771    0.4228   -1.5163 H   0  0  0  0  0  0  0  0  0  0  0  0
    0.7552    1.5468   -1.6787 H   0  0  0  0  0  0  0  0  0  0  0  0
    0.5112    1.1377    3.1020 H   0  0  0  0  0  0  0  0  0  0  0  0
    0.6442   -0.5415    2.5936 H   0  0  0  0  0  0  0  0  0  0  0  0
    2.1692   -0.2402   -2.7124 H   0  0  0  0  0  0  0  0  0  0  0  0
    0.8360   -1.3984   -2.5483 H   0  0  0  0  0  0  0  0  0  0  0  0
    2.8963    1.4862    2.1360 H   0  0  0  0  0  0  0  0  0  0  0  0
    2.7488    0.5119    3.6096 H   0  0  0  0  0  0  0  0  0  0  0  0
    2.9916   -0.2858    2.0526 H   0  0  0  0  0  0  0  0  0  0  0  0
   -0.4204   -0.0263   -3.8641 H   0  0  0  0  0  0  0  0  0  0  0  0
  1  2  1  0  0  0  0
  1  3  1  0  0  0  0
  1  8  1  0  0  0  0
  1  9  1  0  0  0  0
  2  4  1  0  0  0  0
  2 10  1  0  0  0  0
  2 11  1  0  0  0  0
  3  5  1  0  0  0  0
  3 12  1  0  0  0  0
  3 13  1  0  0  0  0
  4  6  1  0  0  0  0
  4 14  1  0  0  0  0
  4 15  1  0  0  0  0
  5  7  1  0  0  0  0
  5 16  1  0  0  0  0
  5 17  1  0  0  0  0
  6 18  1  0  0  0  0
  6 19  1  0  0  0  0
  6 20  1  0  0  0  0
  7 21  1  0  0  0  0
M  END
>  <Mol_ID>
7228

>  <Formula>
C6H14O

>  <MolWeight>
102.17476

>  <Cat>
E4235

>  <Name>
1-Hexanol

>  <Synonyms>
1-Hexanol

>  <Target>
Others

>  <Form>
free base

>  <CAS>
111-27-3

>  <URL>
https://www.selleckchem.com/products/1-hexanol.html

$$$$
