1-Hydroxy-2-naphthoic acid
 OpenBabel08302521263D

 22 23  0  0  0  0  0  0  0  0999 V2000
    0.0059   -0.4190   -0.0019 C   0  0  0  0  0  0  0  0  0  0  0  0
    0.4179    0.9321    0.0058 C   0  0  0  0  0  0  0  0  0  0  0  0
   -1.3802   -0.7103   -0.0105 C   0  0  0  0  0  0  0  0  0  0  0  0
    1.0009   -1.4200   -0.0043 C   0  0  0  0  0  0  0  0  0  0  0  0
   -0.5488    1.9459    0.0063 C   0  0  0  0  0  0  0  0  0  0  0  0
    1.7883    1.2444    0.0108 C   0  0  0  0  0  0  0  0  0  0  0  0
   -2.3515    0.3142   -0.0183 C   0  0  0  0  0  0  0  0  0  0  0  0
   -1.7293   -2.0457   -0.0115 O   0  0  0  0  0  0  0  0  0  0  0  0
    2.3587   -1.0965   -0.0020 C   0  0  0  0  0  0  0  0  0  0  0  0
   -1.9160    1.6457   -0.0072 C   0  0  0  0  0  0  0  0  0  0  0  0
    2.7523    0.2361    0.0053 C   0  0  0  0  0  0  0  0  0  0  0  0
   -3.7962   -0.0654   -0.0414 C   0  0  0  0  0  0  0  0  0  0  0  0
   -4.7078    0.9244   -0.0630 O   0  0  0  0  0  0  0  0  0  0  0  0
   -4.1361   -1.2420   -0.0432 O   0  0  0  0  0  0  0  0  0  0  0  0
    0.7130   -2.4703   -0.0113 H   0  0  0  0  0  0  0  0  0  0  0  0
   -0.2409    2.9909    0.0146 H   0  0  0  0  0  0  0  0  0  0  0  0
    2.1183    2.2805    0.0170 H   0  0  0  0  0  0  0  0  0  0  0  0
   -2.7097   -2.1245   -0.0167 H   0  0  0  0  0  0  0  0  0  0  0  0
    3.1040   -1.8879   -0.0077 H   0  0  0  0  0  0  0  0  0  0  0  0
   -2.5947    2.4894   -0.0076 H   0  0  0  0  0  0  0  0  0  0  0  0
    3.8086    0.4919    0.0060 H   0  0  0  0  0  0  0  0  0  0  0  0
   -4.3945    1.8419   -0.0680 H   0  0  0  0  0  0  0  0  0  0  0  0
  1  2  1  0  0  0  0
  1  3  2  0  0  0  0
  1  4  1  0  0  0  0
  2  5  2  0  0  0  0
  2  6  1  0  0  0  0
  3  7  1  0  0  0  0
  3  8  1  0  0  0  0
  4  9  2  0  0  0  0
  4 15  1  0  0  0  0
  5 10  1  0  0  0  0
  5 16  1  0  0  0  0
  6 11  2  0  0  0  0
  6 17  1  0  0  0  0
  7 12  1  0  0  0  0
  7 10  2  0  0  0  0
  8 18  1  0  0  0  0
  9 11  1  0  0  0  0
  9 19  1  0  0  0  0
 10 20  1  0  0  0  0
 11 21  1  0  0  0  0
 12 13  1  0  0  0  0
 12 14  2  0  0  0  0
 13 22  1  0  0  0  0
M  END
>  <Mol_ID>
5264

>  <Formula>
C11H8O3

>  <MolWeight>
188.17942

>  <Cat>
S6364

>  <Name>
1-Hydroxy-2-naphthoic acid

>  <Synonyms>
N/A

>  <Target>
Others

>  <Form>
Free Base

>  <CAS>
86-48-6

>  <URL>
https://www.selleckchem.com/products/1-hydroxy-2-naphthoic-acid.html

$$$$
