1-Hydroxypyrene
 OpenBabel08302521363D

 27 30  0  0  0  0  0  0  0  0999 V2000
    3.6777    1.3798   -0.0122 O   0  0  0  0  0  0  0  0  0  0  0  0
   -0.9909    0.0590   -0.0026 C   0  0  0  0  0  0  0  0  0  0  0  0
    0.3881   -0.2700   -0.0063 C   0  0  0  0  0  0  0  0  0  0  0  0
   -1.3976    1.4135   -0.0114 C   0  0  0  0  0  0  0  0  0  0  0  0
   -1.9645   -0.9674    0.0055 C   0  0  0  0  0  0  0  0  0  0  0  0
    1.3633    0.7560   -0.0072 C   0  0  0  0  0  0  0  0  0  0  0  0
    0.7870   -1.6285   -0.0127 C   0  0  0  0  0  0  0  0  0  0  0  0
   -0.4255    2.4198   -0.0087 C   0  0  0  0  0  0  0  0  0  0  0  0
   -2.7657    1.7231   -0.0233 C   0  0  0  0  0  0  0  0  0  0  0  0
   -1.5495   -2.3052    0.0110 C   0  0  0  0  0  0  0  0  0  0  0  0
   -3.3254   -0.6264    0.0047 C   0  0  0  0  0  0  0  0  0  0  0  0
    0.9331    2.0955   -0.0024 C   0  0  0  0  0  0  0  0  0  0  0  0
    2.7238    0.3942   -0.0158 C   0  0  0  0  0  0  0  0  0  0  0  0
   -0.1911   -2.6314   -0.0031 C   0  0  0  0  0  0  0  0  0  0  0  0
    2.1528   -1.9473   -0.0304 C   0  0  0  0  0  0  0  0  0  0  0  0
   -3.7230    0.7098   -0.0149 C   0  0  0  0  0  0  0  0  0  0  0  0
    3.1192   -0.9416   -0.0310 C   0  0  0  0  0  0  0  0  0  0  0  0
    4.5559    0.9669   -0.0214 H   0  0  0  0  0  0  0  0  0  0  0  0
   -0.7131    3.4683   -0.0109 H   0  0  0  0  0  0  0  0  0  0  0  0
   -3.0953    2.7595   -0.0406 H   0  0  0  0  0  0  0  0  0  0  0  0
   -2.2822   -3.1092    0.0216 H   0  0  0  0  0  0  0  0  0  0  0  0
   -4.0880   -1.4018    0.0144 H   0  0  0  0  0  0  0  0  0  0  0  0
    1.6660    2.9002    0.0026 H   0  0  0  0  0  0  0  0  0  0  0  0
    0.0950   -3.6808   -0.0053 H   0  0  0  0  0  0  0  0  0  0  0  0
    2.4745   -2.9863   -0.0453 H   0  0  0  0  0  0  0  0  0  0  0  0
   -4.7802    0.9621   -0.0242 H   0  0  0  0  0  0  0  0  0  0  0  0
    4.1684   -1.2189   -0.0452 H   0  0  0  0  0  0  0  0  0  0  0  0
  1 13  1  0  0  0  0
  1 18  1  0  0  0  0
  2  3  2  0  0  0  0
  2  4  1  0  0  0  0
  2  5  1  0  0  0  0
  3  6  1  0  0  0  0
  3  7  1  0  0  0  0
  4  8  2  0  0  0  0
  4  9  1  0  0  0  0
  5 10  1  0  0  0  0
  5 11  2  0  0  0  0
  6 12  2  0  0  0  0
  6 13  1  0  0  0  0
  7 14  1  0  0  0  0
  7 15  2  0  0  0  0
  8 12  1  0  0  0  0
  8 19  1  0  0  0  0
  9 16  2  0  0  0  0
  9 20  1  0  0  0  0
 10 14  2  0  0  0  0
 10 21  1  0  0  0  0
 11 16  1  0  0  0  0
 11 22  1  0  0  0  0
 12 23  1  0  0  0  0
 13 17  2  0  0  0  0
 14 24  1  0  0  0  0
 15 17  1  0  0  0  0
 15 25  1  0  0  0  0
 16 26  1  0  0  0  0
 17 27  1  0  0  0  0
M  END
>  <Mol_ID>
7192

>  <Formula>
C16H10O

>  <MolWeight>
218.25

>  <Cat>
E4192

>  <Name>
1-Hydroxypyrene

>  <Synonyms>
1-Hydroxypyrene

>  <Target>
Endogenous Metabolite

>  <Form>
free base

>  <CAS>
5315-79-7

>  <URL>
https://www.selleckchem.com/products/1-hydroxypyrene.html

$$$$
