1-Indanone
 OpenBabel08302521223D

 18 19  0  0  0  0  0  0  0  0999 V2000
   -0.1110   -0.3762   -0.0148 C   0  0  0  0  0  0  0  0  0  0  0  0
    0.3530    0.9336    0.0000 C   0  0  0  0  0  0  0  0  0  0  0  0
   -1.5662   -0.3476   -0.0109 C   0  0  0  0  0  0  0  0  0  0  0  0
    0.7304   -1.4736   -0.0215 C   0  0  0  0  0  0  0  0  0  0  0  0
    1.7165    1.1802    0.0133 C   0  0  0  0  0  0  0  0  0  0  0  0
   -0.7581    1.9341   -0.0046 C   0  0  0  0  0  0  0  0  0  0  0  0
   -2.0400    1.0844    0.0155 C   0  0  0  0  0  0  0  0  0  0  0  0
   -2.2720   -1.3412   -0.0172 O   0  0  0  0  0  0  0  0  0  0  0  0
    2.1035   -1.2300   -0.0060 C   0  0  0  0  0  0  0  0  0  0  0  0
    2.5922    0.0884    0.0134 C   0  0  0  0  0  0  0  0  0  0  0  0
    0.3321   -2.4829   -0.0352 H   0  0  0  0  0  0  0  0  0  0  0  0
    2.1040    2.1945    0.0265 H   0  0  0  0  0  0  0  0  0  0  0  0
   -0.7194    2.5538   -0.9064 H   0  0  0  0  0  0  0  0  0  0  0  0
   -0.7078    2.5815    0.8768 H   0  0  0  0  0  0  0  0  0  0  0  0
   -2.6610    1.2887   -0.8614 H   0  0  0  0  0  0  0  0  0  0  0  0
   -2.6147    1.2655    0.9289 H   0  0  0  0  0  0  0  0  0  0  0  0
    2.8016   -2.0642   -0.0071 H   0  0  0  0  0  0  0  0  0  0  0  0
    3.6668    0.2600    0.0293 H   0  0  0  0  0  0  0  0  0  0  0  0
  1  2  2  0  0  0  0
  1  3  1  0  0  0  0
  1  4  1  0  0  0  0
  2  5  1  0  0  0  0
  2  6  1  0  0  0  0
  3  7  1  0  0  0  0
  3  8  2  0  0  0  0
  4  9  2  0  0  0  0
  4 11  1  0  0  0  0
  5 10  2  0  0  0  0
  5 12  1  0  0  0  0
  6  7  1  0  0  0  0
  6 13  1  0  0  0  0
  6 14  1  0  0  0  0
  7 15  1  0  0  0  0
  7 16  1  0  0  0  0
  9 10  1  0  0  0  0
  9 17  1  0  0  0  0
 10 18  1  0  0  0  0
M  END
>  <Mol_ID>
4609

>  <Formula>
C9H8O

>  <MolWeight>
132.15922

>  <Cat>
S9346

>  <Name>
1-Indanone

>  <Synonyms>
Indan-1-one, Alpha-Indanone

>  <Target>
Others

>  <Form>
Free Base

>  <CAS>
83-33-0

>  <URL>
http://www.selleckchem.com/products/1-indanone.html

$$$$
