1-Iodoadamantane
 OpenBabel08302521223D

 26 28  0  0  0  0  0  0  0  0999 V2000
   -1.5249    0.2811    0.1020 C   0  0  3  0  0  0  0  0  0  0  0  0
   -0.7764    1.0339    1.2241 C   0  0  0  0  0  0  0  0  0  0  0  0
   -0.9930    0.7586   -1.2674 C   0  0  0  0  0  0  0  0  0  0  0  0
   -1.2588   -1.2338    0.2463 C   0  0  0  0  0  0  0  0  0  0  0  0
   -3.6399    0.6704    0.2429 I   0  0  0  0  0  0  0  0  0  0  0  0
    0.7351    0.7579    1.1260 C   0  0  3  0  0  0  0  0  0  0  0  0
    0.5178    0.4817   -1.3712 C   0  0  3  0  0  0  0  0  0  0  0  0
    0.2516   -1.5149    0.1460 C   0  0  3  0  0  0  0  0  0  0  0  0
    1.2489    1.2313   -0.2444 C   0  0  0  0  0  0  0  0  0  0  0  0
    0.9838   -0.7538    1.2644 C   0  0  0  0  0  0  0  0  0  0  0  0
    0.7673   -1.0286   -1.2192 C   0  0  0  0  0  0  0  0  0  0  0  0
   -0.9560    2.1147    1.1525 H   0  0  0  0  0  0  0  0  0  0  0  0
   -1.1418    0.7213    2.2112 H   0  0  0  0  0  0  0  0  0  0  0  0
   -1.5157    0.2467   -2.0862 H   0  0  0  0  0  0  0  0  0  0  0  0
   -1.1780    1.8325   -1.4021 H   0  0  0  0  0  0  0  0  0  0  0  0
   -1.6366   -1.6040    1.2085 H   0  0  0  0  0  0  0  0  0  0  0  0
   -1.7880   -1.7964   -0.5341 H   0  0  0  0  0  0  0  0  0  0  0  0
    1.2610    1.2939    1.9238 H   0  0  0  0  0  0  0  0  0  0  0  0
    0.8898    0.8220   -2.3440 H   0  0  0  0  0  0  0  0  0  0  0  0
    0.4350   -2.5903    0.2490 H   0  0  0  0  0  0  0  0  0  0  0  0
    2.3294    1.0569   -0.3191 H   0  0  0  0  0  0  0  0  0  0  0  0
    1.0928    2.3119   -0.3502 H   0  0  0  0  0  0  0  0  0  0  0  0
    2.0599   -0.9616    1.2156 H   0  0  0  0  0  0  0  0  0  0  0  0
    0.6365   -1.1025    2.2448 H   0  0  0  0  0  0  0  0  0  0  0  0
    0.2635   -1.5746   -2.0262 H   0  0  0  0  0  0  0  0  0  0  0  0
    1.8394   -1.2417   -1.3116 H   0  0  0  0  0  0  0  0  0  0  0  0
  1  2  1  0  0  0  0
  1  3  1  0  0  0  0
  1  4  1  0  0  0  0
  1  5  1  0  0  0  0
  2  6  1  0  0  0  0
  2 12  1  0  0  0  0
  2 13  1  0  0  0  0
  3  7  1  0  0  0  0
  3 14  1  0  0  0  0
  3 15  1  0  0  0  0
  4  8  1  0  0  0  0
  4 16  1  0  0  0  0
  4 17  1  0  0  0  0
  6  9  1  0  0  0  0
  6 10  1  0  0  0  0
  6 18  1  0  0  0  0
  7 11  1  0  0  0  0
  7  9  1  0  0  0  0
  7 19  1  0  0  0  0
  8 10  1  0  0  0  0
  8 11  1  0  0  0  0
  8 20  1  0  0  0  0
  9 21  1  0  0  0  0
  9 22  1  0  0  0  0
 10 23  1  0  0  0  0
 10 24  1  0  0  0  0
 11 25  1  0  0  0  0
 11 26  1  0  0  0  0
M  END
>  <Mol_ID>
4612

>  <Formula>
C10H15I

>  <MolWeight>
262.13057

>  <Cat>
S9371

>  <Name>
1-Iodoadamantane

>  <Synonyms>
Adamantyl iodide

>  <Target>
Others

>  <Form>
Free Base

>  <CAS>
768-93-4

>  <URL>
http://www.selleckchem.com/products/1-iodoadamantane.html

$$$$
