1-Linoleoyl Glycerol
 OpenBabel08302521363D

 63 62  0  0  0  0  0  0  0  0999 V2000
    1.8412    0.7930    1.9325 C   0  0  0  0  0  0  0  0  0  0  0  0
    1.5644    1.8018    3.0440 C   0  0  0  0  0  0  0  0  0  0  0  0
    1.1283    1.0758    0.6054 C   0  0  0  0  0  0  0  0  0  0  0  0
    0.1327    1.8662    3.5259 C   0  0  0  0  0  0  0  0  0  0  0  0
    1.5311    2.4117   -0.0288 C   0  0  0  0  0  0  0  0  0  0  0  0
   -0.2477    0.6803    4.0736 O   0  0  0  0  0  0  0  0  0  0  0  0
   -0.5295    2.8964    3.5676 O   0  0  0  0  0  0  0  0  0  0  0  0
    0.8715    2.6788   -1.3868 C   0  0  0  0  0  0  0  0  0  0  0  0
   -1.4773    0.6874    4.8264 C   0  0  0  0  0  0  0  0  0  0  0  0
   -0.6590    2.6842   -1.3894 C   0  0  0  0  0  0  0  0  0  0  0  0
   -1.2037    0.8959    6.3244 C   0  0  3  0  0  0  0  0  0  0  0  0
   -1.2707    3.7274   -0.4522 C   0  0  0  0  0  0  0  0  0  0  0  0
   -0.5646    2.2498    6.6594 C   0  0  0  0  0  0  0  0  0  0  0  0
   -2.4307    0.7723    7.0557 O   0  0  0  0  0  0  0  0  0  0  0  0
   -2.7734    3.6537   -0.4704 C   0  0  0  0  0  0  0  0  0  0  0  0
   -1.4585    3.3095    6.3180 O   0  0  0  0  0  0  0  0  0  0  0  0
   -3.5846    4.4706    0.2222 C   0  0  0  0  0  0  0  0  0  0  0  0
   -3.1526    5.6058    1.0985 C   0  0  0  0  0  0  0  0  0  0  0  0
   -3.7904    6.8854    0.6388 C   0  0  0  0  0  0  0  0  0  0  0  0
   -4.5851    7.6874    1.3709 C   0  0  0  0  0  0  0  0  0  0  0  0
   -4.9872    7.4571    2.7966 C   0  0  0  0  0  0  0  0  0  0  0  0
   -4.0003    8.1417    3.7418 C   0  0  0  0  0  0  0  0  0  0  0  0
   -4.3674    7.9008    5.2046 C   0  0  0  0  0  0  0  0  0  0  0  0
   -3.3722    8.5842    6.1417 C   0  0  0  0  0  0  0  0  0  0  0  0
   -3.7368    8.3569    7.5995 C   0  0  0  0  0  0  0  0  0  0  0  0
    1.5630   -0.2127    2.2703 H   0  0  0  0  0  0  0  0  0  0  0  0
    2.9235    0.7688    1.7521 H   0  0  0  0  0  0  0  0  0  0  0  0
    2.1808    1.5577    3.9184 H   0  0  0  0  0  0  0  0  0  0  0  0
    1.8690    2.8082    2.7391 H   0  0  0  0  0  0  0  0  0  0  0  0
    1.3747    0.2662   -0.0941 H   0  0  0  0  0  0  0  0  0  0  0  0
    0.0471    1.0344    0.7675 H   0  0  0  0  0  0  0  0  0  0  0  0
    1.3007    3.2401    0.6476 H   0  0  0  0  0  0  0  0  0  0  0  0
    2.6190    2.4254   -0.1711 H   0  0  0  0  0  0  0  0  0  0  0  0
    1.2293    3.6470   -1.7591 H   0  0  0  0  0  0  0  0  0  0  0  0
    1.2142    1.9255   -2.1063 H   0  0  0  0  0  0  0  0  0  0  0  0
   -2.2032    1.4128    4.4366 H   0  0  0  0  0  0  0  0  0  0  0  0
   -1.9470   -0.2929    4.6820 H   0  0  0  0  0  0  0  0  0  0  0  0
   -0.9986    2.8857   -2.4139 H   0  0  0  0  0  0  0  0  0  0  0  0
   -1.0337    1.6858   -1.1354 H   0  0  0  0  0  0  0  0  0  0  0  0
   -0.5314    0.1043    6.6722 H   0  0  0  0  0  0  0  0  0  0  0  0
   -0.9297    3.5558    0.5742 H   0  0  0  0  0  0  0  0  0  0  0  0
   -0.9394    4.7260   -0.7610 H   0  0  0  0  0  0  0  0  0  0  0  0
   -0.3934    2.3187    7.7390 H   0  0  0  0  0  0  0  0  0  0  0  0
    0.3955    2.4027    6.1592 H   0  0  0  0  0  0  0  0  0  0  0  0
   -2.7236    1.6845    7.2580 H   0  0  0  0  0  0  0  0  0  0  0  0
   -3.2311    2.8731   -1.0685 H   0  0  0  0  0  0  0  0  0  0  0  0
   -1.3752    3.4558    5.3514 H   0  0  0  0  0  0  0  0  0  0  0  0
   -4.6584    4.3031    0.1533 H   0  0  0  0  0  0  0  0  0  0  0  0
   -3.4119    5.3564    2.1319 H   0  0  0  0  0  0  0  0  0  0  0  0
   -2.0656    5.7469    1.0870 H   0  0  0  0  0  0  0  0  0  0  0  0
   -3.5630    7.1843   -0.3818 H   0  0  0  0  0  0  0  0  0  0  0  0
   -4.9652    8.5948    0.9059 H   0  0  0  0  0  0  0  0  0  0  0  0
   -5.9983    7.8557    2.9450 H   0  0  0  0  0  0  0  0  0  0  0  0
   -5.0551    6.3876    3.0234 H   0  0  0  0  0  0  0  0  0  0  0  0
   -2.9862    7.7634    3.5570 H   0  0  0  0  0  0  0  0  0  0  0  0
   -3.9802    9.2196    3.5372 H   0  0  0  0  0  0  0  0  0  0  0  0
   -5.3780    8.2802    5.3964 H   0  0  0  0  0  0  0  0  0  0  0  0
   -4.3810    6.8227    5.4068 H   0  0  0  0  0  0  0  0  0  0  0  0
   -2.3624    8.1984    5.9588 H   0  0  0  0  0  0  0  0  0  0  0  0
   -3.3491    9.6613    5.9396 H   0  0  0  0  0  0  0  0  0  0  0  0
   -3.7361    7.2895    7.8418 H   0  0  0  0  0  0  0  0  0  0  0  0
   -3.0135    8.8546    8.2529 H   0  0  0  0  0  0  0  0  0  0  0  0
   -4.7299    8.7598    7.8221 H   0  0  0  0  0  0  0  0  0  0  0  0
  1  2  1  0  0  0  0
  1  3  1  0  0  0  0
  1 26  1  0  0  0  0
  1 27  1  0  0  0  0
  2  4  1  0  0  0  0
  2 28  1  0  0  0  0
  2 29  1  0  0  0  0
  3  5  1  0  0  0  0
  3 30  1  0  0  0  0
  3 31  1  0  0  0  0
  4  6  1  0  0  0  0
  4  7  2  0  0  0  0
  5  8  1  0  0  0  0
  5 32  1  0  0  0  0
  5 33  1  0  0  0  0
  6  9  1  0  0  0  0
  8 10  1  0  0  0  0
  8 34  1  0  0  0  0
  8 35  1  0  0  0  0
  9 11  1  0  0  0  0
  9 36  1  0  0  0  0
  9 37  1  0  0  0  0
 10 12  1  0  0  0  0
 10 38  1  0  0  0  0
 10 39  1  0  0  0  0
 11 13  1  0  0  0  0
 11 14  1  0  0  0  0
 11 40  1  0  0  0  0
 12 15  1  0  0  0  0
 12 41  1  0  0  0  0
 12 42  1  0  0  0  0
 13 16  1  0  0  0  0
 13 43  1  0  0  0  0
 13 44  1  0  0  0  0
 14 45  1  0  0  0  0
 15 17  2  0  0  0  0
 15 46  1  0  0  0  0
 16 47  1  0  0  0  0
 17 18  1  0  0  0  0
 17 48  1  0  0  0  0
 18 19  1  0  0  0  0
 18 49  1  0  0  0  0
 18 50  1  0  0  0  0
 19 20  2  0  0  0  0
 19 51  1  0  0  0  0
 20 21  1  0  0  0  0
 20 52  1  0  0  0  0
 21 22  1  0  0  0  0
 21 53  1  0  0  0  0
 21 54  1  0  0  0  0
 22 23  1  0  0  0  0
 22 55  1  0  0  0  0
 22 56  1  0  0  0  0
 23 24  1  0  0  0  0
 23 57  1  0  0  0  0
 23 58  1  0  0  0  0
 24 25  1  0  0  0  0
 24 59  1  0  0  0  0
 24 60  1  0  0  0  0
 25 61  1  0  0  0  0
 25 62  1  0  0  0  0
 25 63  1  0  0  0  0
M  END
>  <Mol_ID>
7060

>  <Formula>
C21H38O4

>  <MolWeight>
354.52402

>  <Cat>
E4072

>  <Name>
1-Linoleoyl Glycerol

>  <Synonyms>
1-Linoleoyl Glycerol

>  <Target>
Phospholipase

>  <Form>
free base

>  <CAS>
2277-28-3

>  <URL>
https://www.selleckchem.com/products/1-linoleoyl-glycerol.html

$$$$
