1-Methylpyrrolidine
 OpenBabel08302520383D

 17 17  0  0  0  0  0  0  0  0999 V2000
   -0.7207   -0.0034   -0.3217 N   0  0  0  0  0  0  0  0  0  0  0  0
    0.0141   -1.1616    0.1866 C   0  0  0  0  0  0  0  0  0  0  0  0
    0.0127    1.1584    0.1803 C   0  0  0  0  0  0  0  0  0  0  0  0
   -2.1156   -0.0047    0.0909 C   0  0  0  0  0  0  0  0  0  0  0  0
    1.4623   -0.7670   -0.0578 C   0  0  0  0  0  0  0  0  0  0  0  0
    1.4680    0.7585   -0.0206 C   0  0  0  0  0  0  0  0  0  0  0  0
   -0.1551   -1.3113    1.2608 H   0  0  0  0  0  0  0  0  0  0  0  0
   -0.2480   -2.0841   -0.3410 H   0  0  0  0  0  0  0  0  0  0  0  0
   -0.2339    2.0718   -0.3700 H   0  0  0  0  0  0  0  0  0  0  0  0
   -0.1794    1.3313    1.2468 H   0  0  0  0  0  0  0  0  0  0  0  0
   -2.2315   -0.0141    1.1811 H   0  0  0  0  0  0  0  0  0  0  0  0
   -2.6302    0.8797   -0.3007 H   0  0  0  0  0  0  0  0  0  0  0  0
   -2.6322   -0.8807   -0.3167 H   0  0  0  0  0  0  0  0  0  0  0  0
    2.1317   -1.1960    0.6941 H   0  0  0  0  0  0  0  0  0  0  0  0
    1.7967   -1.1136   -1.0430 H   0  0  0  0  0  0  0  0  0  0  0  0
    2.1013    1.1401    0.7871 H   0  0  0  0  0  0  0  0  0  0  0  0
    1.8561    1.1523   -0.9671 H   0  0  0  0  0  0  0  0  0  0  0  0
  1  2  1  0  0  0  0
  1  3  1  0  0  0  0
  1  4  1  0  0  0  0
  2  5  1  0  0  0  0
  2  7  1  0  0  0  0
  2  8  1  0  0  0  0
  3  6  1  0  0  0  0
  3  9  1  0  0  0  0
  3 10  1  0  0  0  0
  4 11  1  0  0  0  0
  4 12  1  0  0  0  0
  4 13  1  0  0  0  0
  5  6  1  0  0  0  0
  5 14  1  0  0  0  0
  5 15  1  0  0  0  0
  6 16  1  0  0  0  0
  6 17  1  0  0  0  0
M  END
>  <Mol_ID>
3493

>  <Formula>
C5H11N

>  <MolWeight>
85.14754

>  <Cat>
S6216

>  <Name>
1-Methylpyrrolidine

>  <Synonyms>
N/A

>  <Target>
Others

>  <Form>
free base

>  <CAS>
120-94-5

>  <URL>
http://www.selleck.cn/products/1-methylpyrrolidine.html

$$$$
