1-Methylguanidine hydrochloride
 OpenBabel08302521373D

 12 11  0  0  0  0  0  0  0  0999 V2000
    1.0423    0.1375   -0.0004 C   0  0  0  0  0  0  0  0  0  0  0  0
    0.3717   -0.4921    0.9820 N   0  0  0  0  0  0  0  0  0  0  0  0
    0.5832    0.6456   -1.0874 N   0  0  0  0  0  0  0  0  0  0  0  0
    2.3669    0.2018    0.2375 N   0  0  0  0  0  0  0  0  0  0  0  0
   -1.0575   -0.5219    1.1770 C   0  0  0  0  0  0  0  0  0  0  0  0
    0.9040   -0.6827    1.8194 H   0  0  0  0  0  0  0  0  0  0  0  0
   -0.4281    0.5165   -1.1261 H   0  0  0  0  0  0  0  0  0  0  0  0
    2.7737   -0.5746    0.7375 H   0  0  0  0  0  0  0  0  0  0  0  0
    2.8688    0.4149   -0.6206 H   0  0  0  0  0  0  0  0  0  0  0  0
   -1.3775   -1.5524    1.3409 H   0  0  0  0  0  0  0  0  0  0  0  0
   -1.3237    0.0618    2.0703 H   0  0  0  0  0  0  0  0  0  0  0  0
   -1.6248   -0.1206    0.3347 H   0  0  0  0  0  0  0  0  0  0  0  0
  1  2  1  0  0  0  0
  1  3  2  0  0  0  0
  1  4  1  0  0  0  0
  2  5  1  0  0  0  0
  2  6  1  0  0  0  0
  3  7  1  0  0  0  0
  4  8  1  0  0  0  0
  4  9  1  0  0  0  0
  5 10  1  0  0  0  0
  5 11  1  0  0  0  0
  5 12  1  0  0  0  0
M  END
>  <Mol_ID>
7376

>  <Formula>
C2H8ClN3

>  <MolWeight>
109.55802

>  <Cat>
E4429

>  <Name>
1-Methylguanidine hydrochloride

>  <Target>
Others

>  <Form>
hydrochloride salt

>  <CAS>
22661-87-6

>  <URL>
https://www.selleckchem.com/products/1-methylguanidine-hydrochloride.html

$$$$
