1-Methyl-2-pyrrolidone
 OpenBabel08302520393D

 16 16  0  0  0  0  0  0  0  0999 V2000
   -0.2598    0.7148   -0.0890 N   0  0  0  0  0  0  0  0  0  0  0  0
   -0.3864   -0.6599    0.0266 C   0  0  0  0  0  0  0  0  0  0  0  0
    0.9936   -1.2475    0.1628 C   0  0  0  0  0  0  0  0  0  0  0  0
    1.9239   -0.0879   -0.1779 C   0  0  0  0  0  0  0  0  0  0  0  0
    1.0997    1.1566    0.0838 C   0  0  0  0  0  0  0  0  0  0  0  0
   -1.4254   -1.2936    0.0664 O   0  0  0  0  0  0  0  0  0  0  0  0
   -1.3697    1.6346   -0.0271 C   0  0  0  0  0  0  0  0  0  0  0  0
    1.1360   -1.5834    1.1950 H   0  0  0  0  0  0  0  0  0  0  0  0
    1.1271   -2.0831   -0.5271 H   0  0  0  0  0  0  0  0  0  0  0  0
    2.8489   -0.1071    0.4026 H   0  0  0  0  0  0  0  0  0  0  0  0
    2.1973   -0.1389   -1.2383 H   0  0  0  0  0  0  0  0  0  0  0  0
    1.2238    1.5144    1.1115 H   0  0  0  0  0  0  0  0  0  0  0  0
    1.3306    1.9608   -0.6192 H   0  0  0  0  0  0  0  0  0  0  0  0
   -1.3561    2.1406    0.9420 H   0  0  0  0  0  0  0  0  0  0  0  0
   -1.2640    2.3705   -0.8291 H   0  0  0  0  0  0  0  0  0  0  0  0
   -2.3185    1.1034   -0.1400 H   0  0  0  0  0  0  0  0  0  0  0  0
  1  2  1  0  0  0  0
  1  5  1  0  0  0  0
  1  7  1  0  0  0  0
  2  3  1  0  0  0  0
  2  6  2  0  0  0  0
  3  4  1  0  0  0  0
  3  8  1  0  0  0  0
  3  9  1  0  0  0  0
  4  5  1  0  0  0  0
  4 10  1  0  0  0  0
  4 11  1  0  0  0  0
  5 12  1  0  0  0  0
  5 13  1  0  0  0  0
  7 14  1  0  0  0  0
  7 15  1  0  0  0  0
  7 16  1  0  0  0  0
M  END
>  <Mol_ID>
3633

>  <Formula>
C5H9NO

>  <MolWeight>
99.13106

>  <Cat>
S6282

>  <Name>
1-Methyl-2-pyrrolidone

>  <Synonyms>
NMP, N-Methylpyrrolidone

>  <Target>
Others

>  <Form>
free base

>  <CAS>
872-50-4

>  <URL>
http://www.selleck.cn/products/methyl-2-pyrrolidone.html

$$$$
