1-Methylnicotinamide chloride
 OpenBabel08302521393D

 19 19  0  0  0  0  0  0  0  0999 V2000
   -0.9280    0.0057    0.0349 N   0  3  0  0  0  0  0  0  0  0  0  0
   -0.2719    1.1871    0.0247 C   0  0  0  0  0  0  0  0  0  0  0  0
    1.1185    1.2208    0.0191 C   0  0  0  0  0  0  0  0  0  0  0  0
    1.8383    0.0284    0.0242 C   0  0  0  0  0  0  0  0  0  0  0  0
    1.1500   -1.1817    0.0305 C   0  0  0  0  0  0  0  0  0  0  0  0
   -0.2472   -1.1660    0.0321 C   0  0  0  0  0  0  0  0  0  0  0  0
   -2.4016   -0.0245    0.0648 C   0  0  0  0  0  0  0  0  0  0  0  0
    1.8023   -2.5105    0.0351 C   0  0  0  0  0  0  0  0  0  0  0  0
    3.1622   -2.5856    0.0801 N   0  0  0  0  0  0  0  0  0  0  0  0
    1.1052   -3.5167    0.0028 O   0  0  0  0  0  0  0  0  0  0  0  0
   -0.8636    2.0991    0.0233 H   0  0  0  0  0  0  0  0  0  0  0  0
    1.6422    2.1756    0.0122 H   0  0  0  0  0  0  0  0  0  0  0  0
    2.9233    0.0743    0.0206 H   0  0  0  0  0  0  0  0  0  0  0  0
   -0.8392   -2.0791    0.0348 H   0  0  0  0  0  0  0  0  0  0  0  0
   -2.7471   -0.5941   -0.8015 H   0  0  0  0  0  0  0  0  0  0  0  0
   -2.7056   -0.5026    0.9996 H   0  0  0  0  0  0  0  0  0  0  0  0
   -2.7961    0.9936    0.0216 H   0  0  0  0  0  0  0  0  0  0  0  0
    3.5718   -3.5154    0.0886 H   0  0  0  0  0  0  0  0  0  0  0  0
    3.8104   -1.8145    0.1289 H   0  0  0  0  0  0  0  0  0  0  0  0
  1  2  2  0  0  0  0
  1  7  1  0  0  0  0
  2  3  1  0  0  0  0
  2 11  1  0  0  0  0
  3  4  2  0  0  0  0
  3 12  1  0  0  0  0
  4  5  1  0  0  0  0
  4 13  1  0  0  0  0
  5  6  2  0  0  0  0
  5  8  1  0  0  0  0
  6  1  1  0  0  0  0
  6 14  1  0  0  0  0
  7 15  1  0  0  0  0
  7 16  1  0  0  0  0
  7 17  1  0  0  0  0
  8  9  1  0  0  0  0
  8 10  2  0  0  0  0
  9 18  1  0  0  0  0
  9 19  1  0  0  0  0
M  CHG  1   1   1
M  END
>  <Mol_ID>
7971

>  <Formula>
C7H9ClN2O

>  <MolWeight>
172.61216

>  <Cat>
S3346

>  <Name>
1-Methylnicotinamide chloride

>  <Synonyms>
1-MNA, 3-Carbamoyl-1-methylpyridin-1-ium chloride, Trigonellamide chloride

>  <Target>
Prostaglandin Receptor

>  <Form>
Chloride

>  <CAS>
1005-24-9

>  <URL>
https://www.selleckchem.com/products/1-methylnicotinamide-chloride.html

$$$$
