1-Naphthyl PP1 hydrochloride
 OpenBabel08302521343D

 43 46  0  0  0  0  0  0  0  0999 V2000
   -2.0930    0.7200    0.2231 C   0  0  0  0  0  0  0  0  0  0  0  0
   -0.9779    1.4541    0.1602 N   0  0  0  0  0  0  0  0  0  0  0  0
    0.1195    0.6772    0.1125 C   0  0  0  0  0  0  0  0  0  0  0  0
    0.1482   -0.7073    0.1131 C   0  0  0  0  0  0  0  0  0  0  0  0
   -1.0797   -1.3632    0.2541 C   0  0  0  0  0  0  0  0  0  0  0  0
   -2.2125   -0.6215    0.2894 N   0  0  0  0  0  0  0  0  0  0  0  0
    2.2832    0.0549   -0.1123 N   0  0  0  0  0  0  0  0  0  0  0  0
    1.4260    1.0913    0.0281 N   0  0  0  0  0  0  0  0  0  0  0  0
    1.5171   -1.0447   -0.1217 C   0  0  0  0  0  0  0  0  0  0  0  0
   -1.2321   -2.7248    0.3813 N   0  0  0  0  0  0  0  0  0  0  0  0
    2.1177   -2.3297   -0.5043 C   0  0  0  0  0  0  0  0  0  0  0  0
    1.4318   -3.1626   -1.4048 C   0  0  0  0  0  0  0  0  0  0  0  0
    2.0563   -4.2508   -1.9963 C   0  0  0  0  0  0  0  0  0  0  0  0
    3.4336   -4.3918   -1.8626 C   0  0  0  0  0  0  0  0  0  0  0  0
    4.1561   -3.5492   -1.0151 C   0  0  0  0  0  0  0  0  0  0  0  0
    5.5525   -3.5938   -0.9695 C   0  0  0  0  0  0  0  0  0  0  0  0
    6.2410   -2.9565    0.0572 C   0  0  0  0  0  0  0  0  0  0  0  0
    5.5270   -2.3779    1.0929 C   0  0  0  0  0  0  0  0  0  0  0  0
    4.1778   -2.1211    0.9113 C   0  0  0  0  0  0  0  0  0  0  0  0
    3.4639   -2.6328   -0.1910 C   0  0  0  0  0  0  0  0  0  0  0  0
    1.9573    2.4697    0.0326 C   0  0  0  0  0  0  0  0  0  0  0  0
    1.5172    3.2070    1.3112 C   0  0  0  0  0  0  0  0  0  0  0  0
    1.4695    3.2351   -1.2103 C   0  0  0  0  0  0  0  0  0  0  0  0
    3.5093    2.4865    0.0091 C   0  0  0  0  0  0  0  0  0  0  0  0
   -3.0327    1.2713    0.2222 H   0  0  0  0  0  0  0  0  0  0  0  0
   -0.4431   -3.3454    0.4438 H   0  0  0  0  0  0  0  0  0  0  0  0
   -2.1742   -3.0823    0.3493 H   0  0  0  0  0  0  0  0  0  0  0  0
    0.3973   -2.9605   -1.6716 H   0  0  0  0  0  0  0  0  0  0  0  0
    1.4888   -4.9418   -2.6117 H   0  0  0  0  0  0  0  0  0  0  0  0
    3.9357   -5.2029   -2.3870 H   0  0  0  0  0  0  0  0  0  0  0  0
    6.1111   -4.1255   -1.7329 H   0  0  0  0  0  0  0  0  0  0  0  0
    7.3269   -2.9599    0.0754 H   0  0  0  0  0  0  0  0  0  0  0  0
    6.0175   -2.1200    2.0252 H   0  0  0  0  0  0  0  0  0  0  0  0
    3.6408   -1.5314    1.6829 H   0  0  0  0  0  0  0  0  0  0  0  0
    1.8746    2.6874    2.2083 H   0  0  0  0  0  0  0  0  0  0  0  0
    1.9190    4.2267    1.3351 H   0  0  0  0  0  0  0  0  0  0  0  0
    0.4291    3.2887    1.3893 H   0  0  0  0  0  0  0  0  0  0  0  0
    1.7835    2.7312   -2.1321 H   0  0  0  0  0  0  0  0  0  0  0  0
    0.3801    3.3244   -1.2372 H   0  0  0  0  0  0  0  0  0  0  0  0
    1.8800    4.2520   -1.2313 H   0  0  0  0  0  0  0  0  0  0  0  0
    3.9076    1.9876   -0.8828 H   0  0  0  0  0  0  0  0  0  0  0  0
    3.8928    3.5133    0.0042 H   0  0  0  0  0  0  0  0  0  0  0  0
    3.9291    1.9829    0.8887 H   0  0  0  0  0  0  0  0  0  0  0  0
  1  2  2  0  0  0  0
  1  6  1  0  0  0  0
  1 25  1  0  0  0  0
  2  3  1  0  0  0  0
  3  4  2  0  0  0  0
  3  8  1  0  0  0  0
  4  5  1  0  0  0  0
  4  9  1  0  0  0  0
  5  6  2  0  0  0  0
  5 10  1  0  0  0  0
  7  8  1  0  0  0  0
  7  9  2  0  0  0  0
  8 21  1  0  0  0  0
  9 11  1  0  0  0  0
 10 26  1  0  0  0  0
 10 27  1  0  0  0  0
 11 12  2  0  0  0  0
 11 20  1  0  0  0  0
 12 13  1  0  0  0  0
 12 28  1  0  0  0  0
 13 14  2  0  0  0  0
 13 29  1  0  0  0  0
 14 15  1  0  0  0  0
 14 30  1  0  0  0  0
 15 16  1  0  0  0  0
 15 20  2  0  0  0  0
 16 17  2  0  0  0  0
 16 31  1  0  0  0  0
 17 18  1  0  0  0  0
 17 32  1  0  0  0  0
 18 19  2  0  0  0  0
 18 33  1  0  0  0  0
 19 20  1  0  0  0  0
 19 34  1  0  0  0  0
 21 22  1  0  0  0  0
 21 24  1  0  0  0  0
 21 23  1  0  0  0  0
 22 35  1  0  0  0  0
 22 36  1  0  0  0  0
 22 37  1  0  0  0  0
 23 38  1  0  0  0  0
 23 39  1  0  0  0  0
 23 40  1  0  0  0  0
 24 41  1  0  0  0  0
 24 42  1  0  0  0  0
 24 43  1  0  0  0  0
M  END
>  <Mol_ID>
6433

>  <Formula>
C19H20ClN5

>  <MolWeight>
353.8486

>  <Cat>
E2202

>  <Name>
1-Naphthyl PP1 hydrochloride

>  <Synonyms>
1-NA-PP 1 hydrochloride

>  <Target>
Bcr-Abl,CaMK,CDK,Src

>  <Form>
hydrochloride

>  <CAS>
956025-47-1

>  <URL>
http://www.selleckchem.com/products/1-naphthyl-pp1-hydrochloride.html

$$$$
