1-Naphthalenemethanol
 OpenBabel08302521363D

 22 23  0  0  0  0  0  0  0  0999 V2000
    1.0063   -0.1099   -0.0626 C   0  0  0  0  0  0  0  0  0  0  0  0
    1.3971    0.8110   -1.0776 O   0  0  0  0  0  0  0  0  0  0  0  0
    0.1234   -0.1700    2.3400 C   0  0  0  0  0  0  0  0  0  0  0  0
   -0.2045    0.5188    3.5376 C   0  0  0  0  0  0  0  0  0  0  0  0
    0.6223    0.5773    1.2312 C   0  0  0  0  0  0  0  0  0  0  0  0
   -0.0706   -1.5722    2.3246 C   0  0  0  0  0  0  0  0  0  0  0  0
   -0.0392    1.9071    3.6166 C   0  0  0  0  0  0  0  0  0  0  0  0
   -0.6955   -0.1883    4.6479 C   0  0  0  0  0  0  0  0  0  0  0  0
    0.7727    1.9707    1.3524 C   0  0  0  0  0  0  0  0  0  0  0  0
   -0.5652   -2.2604    3.4371 C   0  0  0  0  0  0  0  0  0  0  0  0
    0.4439    2.6302    2.5314 C   0  0  0  0  0  0  0  0  0  0  0  0
   -0.8757   -1.5684    4.5994 C   0  0  0  0  0  0  0  0  0  0  0  0
    1.8502   -0.7843    0.1162 H   0  0  0  0  0  0  0  0  0  0  0  0
    0.1527   -0.6759   -0.4490 H   0  0  0  0  0  0  0  0  0  0  0  0
    1.5332    0.2931   -1.8877 H   0  0  0  0  0  0  0  0  0  0  0  0
    0.1593   -2.1563    1.4373 H   0  0  0  0  0  0  0  0  0  0  0  0
   -0.2888    2.4430    4.5299 H   0  0  0  0  0  0  0  0  0  0  0  0
   -0.9442    0.3384    5.5672 H   0  0  0  0  0  0  0  0  0  0  0  0
    1.1514    2.5566    0.5166 H   0  0  0  0  0  0  0  0  0  0  0  0
   -0.7066   -3.3370    3.3927 H   0  0  0  0  0  0  0  0  0  0  0  0
    0.5650    3.7073    2.6026 H   0  0  0  0  0  0  0  0  0  0  0  0
   -1.2589   -2.0978    5.4676 H   0  0  0  0  0  0  0  0  0  0  0  0
  1  2  1  0  0  0  0
  1  5  1  0  0  0  0
  1 13  1  0  0  0  0
  1 14  1  0  0  0  0
  2 15  1  0  0  0  0
  3  4  1  0  0  0  0
  3  5  2  0  0  0  0
  3  6  1  0  0  0  0
  4  7  2  0  0  0  0
  4  8  1  0  0  0  0
  5  9  1  0  0  0  0
  6 10  2  0  0  0  0
  6 16  1  0  0  0  0
  7 11  1  0  0  0  0
  7 17  1  0  0  0  0
  8 12  2  0  0  0  0
  8 18  1  0  0  0  0
  9 11  2  0  0  0  0
  9 19  1  0  0  0  0
 10 12  1  0  0  0  0
 10 20  1  0  0  0  0
 11 21  1  0  0  0  0
 12 22  1  0  0  0  0
M  END
>  <Mol_ID>
7210

>  <Formula>
C11H10O

>  <MolWeight>
158.1965

>  <Cat>
E4214

>  <Name>
1-Naphthalenemethanol

>  <Target>
Bacterial

>  <Form>
Free base

>  <CAS>
4780-79-4

>  <URL>
https://www.selleckchem.com/products/1-naphthalenemethanol.html

$$$$
