1-Oleoyl-rac-glycerol
 OpenBabel08302521383D

 65 64  0  0  0  0  0  0  0  0999 V2000
    1.9977    2.0333    0.7800 C   0  0  0  0  0  0  0  0  0  0  0  0
    1.6627    3.5293    0.8206 C   0  0  0  0  0  0  0  0  0  0  0  0
    1.2202    1.2510   -0.2820 C   0  0  0  0  0  0  0  0  0  0  0  0
    2.3931    4.2191    1.9530 C   0  0  0  0  0  0  0  0  0  0  0  0
    1.5804    1.6537   -1.7138 C   0  0  0  0  0  0  0  0  0  0  0  0
    1.6285    5.2347    2.4446 O   0  0  0  0  0  0  0  0  0  0  0  0
    3.4700    3.8731    2.4163 O   0  0  0  0  0  0  0  0  0  0  0  0
    0.9018    0.7867   -2.7814 C   0  0  0  0  0  0  0  0  0  0  0  0
    2.0745    5.8283    3.6781 C   0  0  0  0  0  0  0  0  0  0  0  0
   -0.6325    0.8423   -2.8031 C   0  0  0  0  0  0  0  0  0  0  0  0
    1.4150    5.1361    4.8808 C   0  0  3  0  0  0  0  0  0  0  0  0
   -1.2277    2.2430   -2.9833 C   0  0  0  0  0  0  0  0  0  0  0  0
    1.7836    3.6533    5.0265 C   0  0  0  0  0  0  0  0  0  0  0  0
    1.7805    5.8231    6.0843 O   0  0  0  0  0  0  0  0  0  0  0  0
   -0.8376    2.8547   -4.3001 C   0  0  0  0  0  0  0  0  0  0  0  0
    3.1863    3.5194    5.2486 O   0  0  0  0  0  0  0  0  0  0  0  0
   -1.6595    3.3435   -5.2456 C   0  0  0  0  0  0  0  0  0  0  0  0
   -3.1517    3.4435   -5.1838 C   0  0  0  0  0  0  0  0  0  0  0  0
   -3.5385    4.8477   -4.7183 C   0  0  0  0  0  0  0  0  0  0  0  0
   -5.0515    5.0227   -4.6185 C   0  0  0  0  0  0  0  0  0  0  0  0
   -5.3997    6.4346   -4.1446 C   0  0  0  0  0  0  0  0  0  0  0  0
   -6.9114    6.6344   -4.0444 C   0  0  0  0  0  0  0  0  0  0  0  0
   -7.2526    8.0479   -3.5694 C   0  0  0  0  0  0  0  0  0  0  0  0
   -8.7634    8.2559   -3.4745 C   0  0  0  0  0  0  0  0  0  0  0  0
   -9.1048    9.6595   -2.9995 C   0  0  0  0  0  0  0  0  0  0  0  0
    1.7751    1.5969    1.7619 H   0  0  0  0  0  0  0  0  0  0  0  0
    3.0745    1.8983    0.6225 H   0  0  0  0  0  0  0  0  0  0  0  0
    1.9295    4.0336   -0.1121 H   0  0  0  0  0  0  0  0  0  0  0  0
    0.5833    3.6406    0.9840 H   0  0  0  0  0  0  0  0  0  0  0  0
    1.4427    0.1841   -0.1496 H   0  0  0  0  0  0  0  0  0  0  0  0
    0.1458    1.3738   -0.1070 H   0  0  0  0  0  0  0  0  0  0  0  0
    1.3380    2.7068   -1.8858 H   0  0  0  0  0  0  0  0  0  0  0  0
    2.6658    1.5636   -1.8453 H   0  0  0  0  0  0  0  0  0  0  0  0
    1.2913    1.0815   -3.7628 H   0  0  0  0  0  0  0  0  0  0  0  0
    1.2086   -0.2565   -2.6457 H   0  0  0  0  0  0  0  0  0  0  0  0
    3.1686    5.8467    3.7615 H   0  0  0  0  0  0  0  0  0  0  0  0
    1.7711    6.8819    3.6578 H   0  0  0  0  0  0  0  0  0  0  0  0
   -0.9892    0.1951   -3.6160 H   0  0  0  0  0  0  0  0  0  0  0  0
   -1.0259    0.4067   -1.8779 H   0  0  0  0  0  0  0  0  0  0  0  0
    0.3264    5.2102    4.7744 H   0  0  0  0  0  0  0  0  0  0  0  0
   -2.3167    2.1640   -2.8874 H   0  0  0  0  0  0  0  0  0  0  0  0
   -0.9053    2.9037   -2.1735 H   0  0  0  0  0  0  0  0  0  0  0  0
    1.2836    3.2352    5.9057 H   0  0  0  0  0  0  0  0  0  0  0  0
    1.4885    3.0548    4.1612 H   0  0  0  0  0  0  0  0  0  0  0  0
    2.5031    5.2999    6.4872 H   0  0  0  0  0  0  0  0  0  0  0  0
    0.2291    2.9283   -4.4960 H   0  0  0  0  0  0  0  0  0  0  0  0
    3.6239    3.5746    4.3719 H   0  0  0  0  0  0  0  0  0  0  0  0
   -1.2001    3.7597   -6.1451 H   0  0  0  0  0  0  0  0  0  0  0  0
   -3.5609    3.2456   -6.1817 H   0  0  0  0  0  0  0  0  0  0  0  0
   -3.5837    2.6868   -4.5232 H   0  0  0  0  0  0  0  0  0  0  0  0
   -3.0874    5.0456   -3.7370 H   0  0  0  0  0  0  0  0  0  0  0  0
   -3.1284    5.5915   -5.4127 H   0  0  0  0  0  0  0  0  0  0  0  0
   -5.5093    4.8348   -5.5970 H   0  0  0  0  0  0  0  0  0  0  0  0
   -5.4625    4.2853   -3.9181 H   0  0  0  0  0  0  0  0  0  0  0  0
   -4.9393    6.6173   -3.1655 H   0  0  0  0  0  0  0  0  0  0  0  0
   -4.9774    7.1697   -4.8406 H   0  0  0  0  0  0  0  0  0  0  0  0
   -7.3714    6.4539   -5.0236 H   0  0  0  0  0  0  0  0  0  0  0  0
   -7.3336    5.8998   -3.3478 H   0  0  0  0  0  0  0  0  0  0  0  0
   -6.7953    8.2243   -2.5878 H   0  0  0  0  0  0  0  0  0  0  0  0
   -6.8245    8.7817   -4.2621 H   0  0  0  0  0  0  0  0  0  0  0  0
   -9.2254    8.0852   -4.4540 H   0  0  0  0  0  0  0  0  0  0  0  0
   -9.1967    7.5266   -2.7802 H   0  0  0  0  0  0  0  0  0  0  0  0
   -8.7098   10.4147   -3.6866 H   0  0  0  0  0  0  0  0  0  0  0  0
  -10.1903    9.7870   -2.9429 H   0  0  0  0  0  0  0  0  0  0  0  0
   -8.6883    9.8484   -2.0048 H   0  0  0  0  0  0  0  0  0  0  0  0
  1  2  1  0  0  0  0
  1  3  1  0  0  0  0
  1 26  1  0  0  0  0
  1 27  1  0  0  0  0
  2  4  1  0  0  0  0
  2 28  1  0  0  0  0
  2 29  1  0  0  0  0
  3  5  1  0  0  0  0
  3 30  1  0  0  0  0
  3 31  1  0  0  0  0
  4  6  1  0  0  0  0
  4  7  2  0  0  0  0
  5  8  1  0  0  0  0
  5 32  1  0  0  0  0
  5 33  1  0  0  0  0
  6  9  1  0  0  0  0
  8 10  1  0  0  0  0
  8 34  1  0  0  0  0
  8 35  1  0  0  0  0
  9 11  1  0  0  0  0
  9 36  1  0  0  0  0
  9 37  1  0  0  0  0
 10 12  1  0  0  0  0
 10 38  1  0  0  0  0
 10 39  1  0  0  0  0
 11 13  1  0  0  0  0
 11 14  1  0  0  0  0
 11 40  1  0  0  0  0
 12 15  1  0  0  0  0
 12 41  1  0  0  0  0
 12 42  1  0  0  0  0
 13 16  1  0  0  0  0
 13 43  1  0  0  0  0
 13 44  1  0  0  0  0
 14 45  1  0  0  0  0
 15 17  2  0  0  0  0
 15 46  1  0  0  0  0
 16 47  1  0  0  0  0
 17 18  1  0  0  0  0
 17 48  1  0  0  0  0
 18 19  1  0  0  0  0
 18 49  1  0  0  0  0
 18 50  1  0  0  0  0
 19 20  1  0  0  0  0
 19 51  1  0  0  0  0
 19 52  1  0  0  0  0
 20 21  1  0  0  0  0
 20 53  1  0  0  0  0
 20 54  1  0  0  0  0
 21 22  1  0  0  0  0
 21 55  1  0  0  0  0
 21 56  1  0  0  0  0
 22 23  1  0  0  0  0
 22 57  1  0  0  0  0
 22 58  1  0  0  0  0
 23 24  1  0  0  0  0
 23 59  1  0  0  0  0
 23 60  1  0  0  0  0
 24 25  1  0  0  0  0
 24 61  1  0  0  0  0
 24 62  1  0  0  0  0
 25 63  1  0  0  0  0
 25 64  1  0  0  0  0
 25 65  1  0  0  0  0
M  END
>  <Mol_ID>
7651

>  <Formula>
C21H40O4

>  <MolWeight>
356.5399

>  <Cat>
E4020

>  <Name>
1-Oleoyl-rac-glycerol

>  <Synonyms>
Monoolein

>  <Target>
Others

>  <Form>
free base

>  <CAS>
111-03-5

>  <URL>
https://www.selleckchem.com/products/1-oleoyl-rac-glycerol.html

$$$$
