1-PHENYL-2-THIOUREA
 OpenBabel08302521373D

 18 18  0  0  0  0  0  0  0  0999 V2000
    0.7845    0.0112   -0.1082 N   0  0  0  0  0  0  0  0  0  0  0  0
    2.0503    0.1255    0.3724 C   0  0  0  0  0  0  0  0  0  0  0  0
    3.0414   -0.4968   -0.3031 N   0  0  0  0  0  0  0  0  0  0  0  0
    2.3957    1.0769    1.6887 S   0  0  0  0  0  0  0  0  0  0  0  0
    0.2293   -1.0105   -0.9028 C   0  0  0  0  0  0  0  0  0  0  0  0
    0.7525   -2.3070   -0.9347 C   0  0  0  0  0  0  0  0  0  0  0  0
   -0.9342   -0.7244   -1.6212 C   0  0  0  0  0  0  0  0  0  0  0  0
    0.1278   -3.3014   -1.6907 C   0  0  0  0  0  0  0  0  0  0  0  0
   -1.5432   -1.7130   -2.3976 C   0  0  0  0  0  0  0  0  0  0  0  0
   -1.0143   -3.0046   -2.4290 C   0  0  0  0  0  0  0  0  0  0  0  0
    0.1430    0.7253    0.2199 H   0  0  0  0  0  0  0  0  0  0  0  0
    3.9908   -0.2693   -0.0336 H   0  0  0  0  0  0  0  0  0  0  0  0
    2.8943   -0.6728   -1.2890 H   0  0  0  0  0  0  0  0  0  0  0  0
    1.6130   -2.5806   -0.3307 H   0  0  0  0  0  0  0  0  0  0  0  0
   -1.3598    0.2752   -1.6112 H   0  0  0  0  0  0  0  0  0  0  0  0
    0.5246   -4.3126   -1.6851 H   0  0  0  0  0  0  0  0  0  0  0  0
   -2.4328   -1.4777   -2.9763 H   0  0  0  0  0  0  0  0  0  0  0  0
   -1.4998   -3.7771   -3.0158 H   0  0  0  0  0  0  0  0  0  0  0  0
  1  2  1  0  0  0  0
  1  5  1  0  0  0  0
  1 11  1  0  0  0  0
  2  3  1  0  0  0  0
  2  4  2  0  0  0  0
  3 12  1  0  0  0  0
  3 13  1  0  0  0  0
  5  6  2  0  0  0  0
  5  7  1  0  0  0  0
  6  8  1  0  0  0  0
  6 14  1  0  0  0  0
  7  9  2  0  0  0  0
  7 15  1  0  0  0  0
  8 10  2  0  0  0  0
  8 16  1  0  0  0  0
  9 10  1  0  0  0  0
  9 17  1  0  0  0  0
 10 18  1  0  0  0  0
M  END
>  <Mol_ID>
7595

>  <Formula>
C7H8N2S

>  <MolWeight>
152.21682

>  <Cat>
E2908

>  <Name>
1-PHENYL-2-THIOUREA

>  <Synonyms>
N-Phenylthiourea, PTU, Phenylthiocarbamide

>  <Target>
Tyrosinase

>  <Form>
free base

>  <CAS>
103-85-5

>  <URL>
https://www.selleckchem.com/products/1-phenyl-2-thiourea.html

$$$$
