1-piperoylpiperidine
 OpenBabel08302521373D

 40 42  0  0  0  0  0  0  0  0999 V2000
    0.9044    0.4462   -0.7944 C   0  0  0  0  0  0  0  0  0  0  0  0
    0.1813   -0.6668   -0.9855 C   0  0  0  0  0  0  0  0  0  0  0  0
   -1.2594   -0.7365   -0.9717 C   0  0  0  0  0  0  0  0  0  0  0  0
   -1.9874   -1.2918   -1.9534 C   0  0  0  0  0  0  0  0  0  0  0  0
   -3.4622   -1.3563   -1.7811 C   0  0  0  0  0  0  0  0  0  0  0  0
   -3.9299   -1.3507   -0.6402 O   0  0  0  0  0  0  0  0  0  0  0  0
   -0.2572    3.8926   -1.5977 C   0  0  0  0  0  0  0  0  0  0  0  0
   -0.5221    4.3998   -0.3462 C   0  0  0  0  0  0  0  0  0  0  0  0
    0.1832    2.6008   -1.7821 C   0  0  0  0  0  0  0  0  0  0  0  0
   -0.4654    4.8109   -2.5813 O   0  0  0  0  0  0  0  0  0  0  0  0
   -0.3681    3.6354    0.7912 C   0  0  0  0  0  0  0  0  0  0  0  0
   -0.9247    5.6966   -0.3852 O   0  0  0  0  0  0  0  0  0  0  0  0
    0.3688    1.8029   -0.6440 C   0  0  0  0  0  0  0  0  0  0  0  0
   -0.9025    5.9463   -1.8063 C   0  0  0  0  0  0  0  0  0  0  0  0
    0.0829    2.3194    0.6363 C   0  0  0  0  0  0  0  0  0  0  0  0
   -4.2623   -1.4226   -2.9082 N   0  0  0  0  0  0  0  0  0  0  0  0
   -5.7139   -1.4241   -2.7220 C   0  0  0  0  0  0  0  0  0  0  0  0
   -3.8352   -1.3942   -4.3080 C   0  0  0  0  0  0  0  0  0  0  0  0
   -6.3456   -2.6159   -3.4335 C   0  0  0  0  0  0  0  0  0  0  0  0
   -4.4277   -2.5813   -5.0686 C   0  0  0  0  0  0  0  0  0  0  0  0
   -5.9471   -2.6484   -4.9069 C   0  0  0  0  0  0  0  0  0  0  0  0
    1.9901    0.3863   -0.7913 H   0  0  0  0  0  0  0  0  0  0  0  0
    0.7053   -1.6098   -1.1322 H   0  0  0  0  0  0  0  0  0  0  0  0
   -1.7508   -0.3216   -0.0916 H   0  0  0  0  0  0  0  0  0  0  0  0
   -1.5223   -1.7117   -2.8318 H   0  0  0  0  0  0  0  0  0  0  0  0
    0.3901    2.2266   -2.7783 H   0  0  0  0  0  0  0  0  0  0  0  0
   -0.5821    4.0456    1.7711 H   0  0  0  0  0  0  0  0  0  0  0  0
   -0.2291    6.7884   -2.0058 H   0  0  0  0  0  0  0  0  0  0  0  0
   -1.9132    6.2222   -2.1286 H   0  0  0  0  0  0  0  0  0  0  0  0
    0.2200    1.6976    1.5180 H   0  0  0  0  0  0  0  0  0  0  0  0
   -6.0987   -0.4833   -3.1340 H   0  0  0  0  0  0  0  0  0  0  0  0
   -5.9884   -1.4450   -1.6628 H   0  0  0  0  0  0  0  0  0  0  0  0
   -2.7502   -1.3965   -4.4148 H   0  0  0  0  0  0  0  0  0  0  0  0
   -4.1948   -0.4514   -4.7394 H   0  0  0  0  0  0  0  0  0  0  0  0
   -7.4363   -2.5710   -3.3404 H   0  0  0  0  0  0  0  0  0  0  0  0
   -6.0159   -3.5442   -2.9490 H   0  0  0  0  0  0  0  0  0  0  0  0
   -3.9869   -3.5112   -4.6868 H   0  0  0  0  0  0  0  0  0  0  0  0
   -4.1714   -2.5121   -6.1308 H   0  0  0  0  0  0  0  0  0  0  0  0
   -6.3320   -3.5619   -5.3748 H   0  0  0  0  0  0  0  0  0  0  0  0
   -6.4085   -1.8009   -5.4280 H   0  0  0  0  0  0  0  0  0  0  0  0
  1  2  2  3  0  0  0
  1 13  1  0  0  0  0
  1 22  1  0  0  0  0
  2  3  1  0  0  0  0
  2 23  1  0  0  0  0
  3  4  2  3  0  0  0
  3 24  1  0  0  0  0
  4  5  1  0  0  0  0
  4 25  1  0  0  0  0
  5  6  2  0  0  0  0
  5 16  1  0  0  0  0
  7  8  1  0  0  0  0
  7  9  2  0  0  0  0
  7 10  1  0  0  0  0
  8 11  2  0  0  0  0
  8 12  1  0  0  0  0
  9 13  1  0  0  0  0
  9 26  1  0  0  0  0
 10 14  1  0  0  0  0
 11 15  1  0  0  0  0
 11 27  1  0  0  0  0
 12 14  1  0  0  0  0
 13 15  2  0  0  0  0
 14 28  1  0  0  0  0
 14 29  1  0  0  0  0
 15 30  1  0  0  0  0
 16 17  1  0  0  0  0
 16 18  1  0  0  0  0
 17 19  1  0  0  0  0
 17 31  1  0  0  0  0
 17 32  1  0  0  0  0
 18 20  1  0  0  0  0
 18 33  1  0  0  0  0
 18 34  1  0  0  0  0
 19 21  1  0  0  0  0
 19 35  1  0  0  0  0
 19 36  1  0  0  0  0
 20 21  1  0  0  0  0
 20 37  1  0  0  0  0
 20 38  1  0  0  0  0
 21 39  1  0  0  0  0
 21 40  1  0  0  0  0
M  END
>  <Mol_ID>
7339

>  <Formula>
C17H19NO3

>  <MolWeight>
285.33766

>  <Cat>
E4385

>  <Name>
1-piperoylpiperidine

>  <Synonyms>
1-piperoylpiperidine

>  <Target>
Others

>  <Form>
free base

>  <CAS>
7780-20-3

>  <URL>
https://www.selleckchem.com/products/1-piperoylpiperidine.html

$$$$
