1-Tetradecanol
 OpenBabel08302521373D

 45 44  0  0  0  0  0  0  0  0999 V2000
    1.1254   -0.0310    0.1616 C   0  0  0  0  0  0  0  0  0  0  0  0
    0.6459    1.3725    0.5432 C   0  0  0  0  0  0  0  0  0  0  0  0
    0.7472   -0.3797   -1.2816 C   0  0  0  0  0  0  0  0  0  0  0  0
    0.9475    1.7443    2.0001 C   0  0  0  0  0  0  0  0  0  0  0  0
    1.2479   -1.7605   -1.7301 C   0  0  0  0  0  0  0  0  0  0  0  0
    2.4275    1.7548    2.3976 C   0  0  0  0  0  0  0  0  0  0  0  0
    0.6395   -2.9184   -0.9332 C   0  0  0  0  0  0  0  0  0  0  0  0
    3.2692    2.7581    1.6067 C   0  0  0  0  0  0  0  0  0  0  0  0
    1.1304   -4.2753   -1.4450 C   0  0  0  0  0  0  0  0  0  0  0  0
    4.7263    2.7510    2.0793 C   0  0  0  0  0  0  0  0  0  0  0  0
    0.5520   -5.4203   -0.6146 C   0  0  0  0  0  0  0  0  0  0  0  0
    5.5764    3.7451    1.2878 C   0  0  0  0  0  0  0  0  0  0  0  0
    1.0409   -6.7780   -1.1026 C   0  0  0  0  0  0  0  0  0  0  0  0
    7.0284    3.7210    1.7384 C   0  0  0  0  0  0  0  0  0  0  0  0
    0.4736   -7.8087   -0.3042 O   0  0  0  0  0  0  0  0  0  0  0  0
    0.6787   -0.7519    0.8545 H   0  0  0  0  0  0  0  0  0  0  0  0
    2.2125   -0.1011    0.2694 H   0  0  0  0  0  0  0  0  0  0  0  0
    1.0792    2.1160   -0.1335 H   0  0  0  0  0  0  0  0  0  0  0  0
   -0.4417    1.4251    0.4013 H   0  0  0  0  0  0  0  0  0  0  0  0
   -0.3417   -0.3284   -1.4044 H   0  0  0  0  0  0  0  0  0  0  0  0
    1.1776    0.3728   -1.9541 H   0  0  0  0  0  0  0  0  0  0  0  0
    0.5206    2.7356    2.1994 H   0  0  0  0  0  0  0  0  0  0  0  0
    0.4193    1.0445    2.6596 H   0  0  0  0  0  0  0  0  0  0  0  0
    0.9987   -1.8866   -2.7904 H   0  0  0  0  0  0  0  0  0  0  0  0
    2.3406   -1.7927   -1.6540 H   0  0  0  0  0  0  0  0  0  0  0  0
    2.4893    2.0030    3.4641 H   0  0  0  0  0  0  0  0  0  0  0  0
    2.8505    0.7490    2.2938 H   0  0  0  0  0  0  0  0  0  0  0  0
    0.9069   -2.8272    0.1245 H   0  0  0  0  0  0  0  0  0  0  0  0
   -0.4547   -2.8744   -0.9979 H   0  0  0  0  0  0  0  0  0  0  0  0
    3.2406    2.5170    0.5388 H   0  0  0  0  0  0  0  0  0  0  0  0
    2.8491    3.7647    1.7259 H   0  0  0  0  0  0  0  0  0  0  0  0
    0.8438   -4.3986   -2.4964 H   0  0  0  0  0  0  0  0  0  0  0  0
    2.2262   -4.3088   -1.4011 H   0  0  0  0  0  0  0  0  0  0  0  0
    4.7691    2.9999    3.1465 H   0  0  0  0  0  0  0  0  0  0  0  0
    5.1419    1.7423    1.9663 H   0  0  0  0  0  0  0  0  0  0  0  0
    0.8229   -5.2954    0.4414 H   0  0  0  0  0  0  0  0  0  0  0  0
   -0.5445   -5.3963   -0.6466 H   0  0  0  0  0  0  0  0  0  0  0  0
    5.5292    3.5079    0.2187 H   0  0  0  0  0  0  0  0  0  0  0  0
    5.1769    4.7586    1.4137 H   0  0  0  0  0  0  0  0  0  0  0  0
    0.7379   -6.9508   -2.1398 H   0  0  0  0  0  0  0  0  0  0  0  0
    2.1306   -6.8550   -1.0446 H   0  0  0  0  0  0  0  0  0  0  0  0
    7.4704    2.7314    1.5859 H   0  0  0  0  0  0  0  0  0  0  0  0
    7.6152    4.4462    1.1661 H   0  0  0  0  0  0  0  0  0  0  0  0
    7.1149    3.9764    2.7995 H   0  0  0  0  0  0  0  0  0  0  0  0
    0.7867   -7.6788    0.6071 H   0  0  0  0  0  0  0  0  0  0  0  0
  1  2  1  0  0  0  0
  1  3  1  0  0  0  0
  1 16  1  0  0  0  0
  1 17  1  0  0  0  0
  2  4  1  0  0  0  0
  2 18  1  0  0  0  0
  2 19  1  0  0  0  0
  3  5  1  0  0  0  0
  3 20  1  0  0  0  0
  3 21  1  0  0  0  0
  4  6  1  0  0  0  0
  4 22  1  0  0  0  0
  4 23  1  0  0  0  0
  5  7  1  0  0  0  0
  5 24  1  0  0  0  0
  5 25  1  0  0  0  0
  6  8  1  0  0  0  0
  6 26  1  0  0  0  0
  6 27  1  0  0  0  0
  7  9  1  0  0  0  0
  7 28  1  0  0  0  0
  7 29  1  0  0  0  0
  8 10  1  0  0  0  0
  8 30  1  0  0  0  0
  8 31  1  0  0  0  0
  9 11  1  0  0  0  0
  9 32  1  0  0  0  0
  9 33  1  0  0  0  0
 10 12  1  0  0  0  0
 10 34  1  0  0  0  0
 10 35  1  0  0  0  0
 11 13  1  0  0  0  0
 11 36  1  0  0  0  0
 11 37  1  0  0  0  0
 12 14  1  0  0  0  0
 12 38  1  0  0  0  0
 12 39  1  0  0  0  0
 13 15  1  0  0  0  0
 13 40  1  0  0  0  0
 13 41  1  0  0  0  0
 14 42  1  0  0  0  0
 14 43  1  0  0  0  0
 14 44  1  0  0  0  0
 15 45  1  0  0  0  0
M  END
>  <Mol_ID>
7390

>  <Formula>
C14H30O

>  <MolWeight>
214.3874

>  <Cat>
E4462

>  <Name>
1-Tetradecanol

>  <Synonyms>
Tetradecyl Alcohol

>  <Target>
Bacterial

>  <Form>
Free base

>  <CAS>
112-72-1

>  <URL>
https://www.selleckchem.com/products/1-tetradecanol.html

$$$$
