1-Thioglycerol
 OpenBabel08302521373D

 14 13  0  0  0  0  0  0  0  0999 V2000
    1.0033   -0.0764    0.0986 C   0  0  3  0  0  0  0  0  0  0  0  0
    0.5591   -0.6906    1.4298 C   0  0  0  0  0  0  0  0  0  0  0  0
    0.5465    1.3824   -0.0023 C   0  0  0  0  0  0  0  0  0  0  0  0
    0.4467   -0.9041   -0.9352 O   0  0  0  0  0  0  0  0  0  0  0  0
    0.9835   -2.0533    1.4869 O   0  0  0  0  0  0  0  0  0  0  0  0
    1.0760    2.1522   -1.5639 S   0  0  0  0  0  0  0  0  0  0  0  0
    2.0940   -0.1569    0.0143 H   0  0  0  0  0  0  0  0  0  0  0  0
    0.9830   -0.1564    2.2832 H   0  0  0  0  0  0  0  0  0  0  0  0
   -0.5341   -0.6875    1.5136 H   0  0  0  0  0  0  0  0  0  0  0  0
   -0.5447    1.4477    0.0335 H   0  0  0  0  0  0  0  0  0  0  0  0
    0.9528    1.9696    0.8249 H   0  0  0  0  0  0  0  0  0  0  0  0
   -0.2599   -0.4044   -1.3831 H   0  0  0  0  0  0  0  0  0  0  0  0
    0.8300   -2.4059    0.5860 H   0  0  0  0  0  0  0  0  0  0  0  0
    2.3979    2.0211   -1.3707 H   0  0  0  0  0  0  0  0  0  0  0  0
  1  2  1  0  0  0  0
  1  3  1  0  0  0  0
  1  4  1  0  0  0  0
  1  7  1  0  0  0  0
  2  5  1  0  0  0  0
  2  8  1  0  0  0  0
  2  9  1  0  0  0  0
  3  6  1  0  0  0  0
  3 10  1  0  0  0  0
  3 11  1  0  0  0  0
  4 12  1  0  0  0  0
  5 13  1  0  0  0  0
  6 14  1  0  0  0  0
M  END
>  <Mol_ID>
7594

>  <Formula>
C3H8O2S

>  <MolWeight>
108.15942

>  <Cat>
E2907

>  <Name>
1-Thioglycerol

>  <Synonyms>
Mercaptopropanedioltech

>  <Target>
Others

>  <Form>
free base

>  <CAS>
96-27-5

>  <URL>
https://www.selleckchem.com/products/1-thioglycerol.html

$$$$
