1-Undecanol
 OpenBabel08302521273D

 36 35  0  0  0  0  0  0  0  0999 V2000
    1.1947    0.0108    0.1265 C   0  0  0  0  0  0  0  0  0  0  0  0
    0.7013    1.4416   -0.1150 C   0  0  0  0  0  0  0  0  0  0  0  0
    0.7963   -0.9184   -1.0251 C   0  0  0  0  0  0  0  0  0  0  0  0
    1.0385    2.4217    1.0156 C   0  0  0  0  0  0  0  0  0  0  0  0
    1.2612   -2.3698   -0.8397 C   0  0  0  0  0  0  0  0  0  0  0  0
    2.5252    2.6221    1.3284 C   0  0  0  0  0  0  0  0  0  0  0  0
    0.7333   -3.0861    0.4080 C   0  0  0  0  0  0  0  0  0  0  0  0
    3.3386    3.1698    0.1570 C   0  0  0  0  0  0  0  0  0  0  0  0
   -0.7918   -3.1879    0.4547 C   0  0  0  0  0  0  0  0  0  0  0  0
    4.7929    3.4104    0.5491 C   0  0  0  0  0  0  0  0  0  0  0  0
   -1.2661   -3.9155    1.7035 C   0  0  0  0  0  0  0  0  0  0  0  0
    5.5162    3.9172   -0.5635 O   0  0  0  0  0  0  0  0  0  0  0  0
    0.7699   -0.3508    1.0688 H   0  0  0  0  0  0  0  0  0  0  0  0
    2.2847    0.0001    0.2306 H   0  0  0  0  0  0  0  0  0  0  0  0
    1.0920    1.8186   -1.0667 H   0  0  0  0  0  0  0  0  0  0  0  0
   -0.3916    1.4199   -0.2207 H   0  0  0  0  0  0  0  0  0  0  0  0
   -0.2889   -0.8918   -1.1732 H   0  0  0  0  0  0  0  0  0  0  0  0
    1.2395   -0.5399   -1.9550 H   0  0  0  0  0  0  0  0  0  0  0  0
    0.5987    3.3966    0.7657 H   0  0  0  0  0  0  0  0  0  0  0  0
    0.5372    2.0878    1.9324 H   0  0  0  0  0  0  0  0  0  0  0  0
    0.9662   -2.9432   -1.7269 H   0  0  0  0  0  0  0  0  0  0  0  0
    2.3577   -2.3893   -0.8122 H   0  0  0  0  0  0  0  0  0  0  0  0
    2.5993    3.3265    2.1674 H   0  0  0  0  0  0  0  0  0  0  0  0
    2.9639    1.6809    1.6809 H   0  0  0  0  0  0  0  0  0  0  0  0
    1.1576   -4.0986    0.4261 H   0  0  0  0  0  0  0  0  0  0  0  0
    1.1029   -2.5863    1.3108 H   0  0  0  0  0  0  0  0  0  0  0  0
    3.3092    2.4754   -0.6918 H   0  0  0  0  0  0  0  0  0  0  0  0
    2.9019    4.1080   -0.2036 H   0  0  0  0  0  0  0  0  0  0  0  0
   -1.2394   -2.1886    0.4495 H   0  0  0  0  0  0  0  0  0  0  0  0
   -1.1575   -3.7157   -0.4326 H   0  0  0  0  0  0  0  0  0  0  0  0
    4.8620    4.1450    1.3575 H   0  0  0  0  0  0  0  0  0  0  0  0
    5.2746    2.4864    0.8842 H   0  0  0  0  0  0  0  0  0  0  0  0
   -0.8945   -3.4248    2.6093 H   0  0  0  0  0  0  0  0  0  0  0  0
   -2.3592   -3.9211    1.7457 H   0  0  0  0  0  0  0  0  0  0  0  0
   -0.9206   -4.9544    1.7081 H   0  0  0  0  0  0  0  0  0  0  0  0
    5.5077    3.2329   -1.2549 H   0  0  0  0  0  0  0  0  0  0  0  0
  1  2  1  0  0  0  0
  1  3  1  0  0  0  0
  1 13  1  0  0  0  0
  1 14  1  0  0  0  0
  2  4  1  0  0  0  0
  2 15  1  0  0  0  0
  2 16  1  0  0  0  0
  3  5  1  0  0  0  0
  3 17  1  0  0  0  0
  3 18  1  0  0  0  0
  4  6  1  0  0  0  0
  4 19  1  0  0  0  0
  4 20  1  0  0  0  0
  5  7  1  0  0  0  0
  5 21  1  0  0  0  0
  5 22  1  0  0  0  0
  6  8  1  0  0  0  0
  6 23  1  0  0  0  0
  6 24  1  0  0  0  0
  7  9  1  0  0  0  0
  7 25  1  0  0  0  0
  7 26  1  0  0  0  0
  8 10  1  0  0  0  0
  8 27  1  0  0  0  0
  8 28  1  0  0  0  0
  9 11  1  0  0  0  0
  9 29  1  0  0  0  0
  9 30  1  0  0  0  0
 10 12  1  0  0  0  0
 10 31  1  0  0  0  0
 10 32  1  0  0  0  0
 11 33  1  0  0  0  0
 11 34  1  0  0  0  0
 11 35  1  0  0  0  0
 12 36  1  0  0  0  0
M  END
>  <Mol_ID>
5325

>  <Formula>
C11H24O

>  <MolWeight>
172.30766

>  <Cat>
S9450

>  <Name>
1-Undecanol

>  <Synonyms>
Undecyl alcohol, 1-Hendecanol

>  <Target>
Others

>  <Form>
Free Base

>  <CAS>
112-42-5

>  <URL>
https://www.selleckchem.com/products/1-undecanol.html

$$$$
