1.cdx
 OpenBabel08302520433D

 39 42  0  0  0  0  0  0  0  0999 V2000
    0.1712   -1.1233    0.2755 C   0  0  0  0  0  0  0  0  0  0  0  0
    0.8181   -0.0366   -0.2928 C   0  0  0  0  0  0  0  0  0  0  0  0
    0.0984    1.0336   -0.8132 C   0  0  0  0  0  0  0  0  0  0  0  0
   -1.2985    1.0259   -0.7407 C   0  0  0  0  0  0  0  0  0  0  0  0
   -1.9744   -0.0569   -0.1556 C   0  0  0  0  0  0  0  0  0  0  0  0
   -1.2223   -1.1453    0.3162 C   0  0  0  0  0  0  0  0  0  0  0  0
   -3.4254   -0.0321   -0.0419 C   0  0  0  0  0  0  0  0  0  0  0  0
   -4.2217    0.5300   -1.0184 N   0  0  0  0  0  0  0  0  0  0  0  0
   -5.4696    0.3798   -0.6149 C   0  0  0  0  0  0  0  0  0  0  0  0
   -5.4891   -0.2819    0.5857 N   0  0  0  0  0  0  0  0  0  0  0  0
   -4.1992   -0.5297    1.0025 C   0  0  0  0  0  0  0  0  0  0  0  0
   -3.8919   -1.1556    2.2929 C   0  0  0  0  0  0  0  0  0  0  0  0
    2.1567   -0.0228   -0.3453 F   0  0  0  0  0  0  0  0  0  0  0  0
   -4.6793   -2.1922    2.7990 C   0  0  0  0  0  0  0  0  0  0  0  0
   -4.3281   -2.7613    4.0142 C   0  0  0  0  0  0  0  0  0  0  0  0
   -3.2530   -2.3892    4.7378 N   0  0  0  0  0  0  0  0  0  0  0  0
   -2.5023   -1.3904    4.2337 C   0  0  0  0  0  0  0  0  0  0  0  0
   -2.7916   -0.7387    3.0460 C   0  0  0  0  0  0  0  0  0  0  0  0
   -6.6753    0.7968   -1.3346 C   0  0  0  0  0  0  0  0  0  0  0  0
   -6.6598    0.8622   -2.7360 C   0  0  0  0  0  0  0  0  0  0  0  0
   -7.8012    1.2372   -3.4514 C   0  0  0  0  0  0  0  0  0  0  0  0
   -8.9625    1.5635   -2.7603 C   0  0  0  0  0  0  0  0  0  0  0  0
   -8.9984    1.5207   -1.3729 C   0  0  0  0  0  0  0  0  0  0  0  0
   -7.8592    1.1389   -0.6596 C   0  0  0  0  0  0  0  0  0  0  0  0
  -10.0980    1.9397   -3.4153 O   0  0  0  0  0  0  0  0  0  0  0  0
    0.7484   -1.9482    0.6842 H   0  0  0  0  0  0  0  0  0  0  0  0
    0.6256    1.8655   -1.2650 H   0  0  0  0  0  0  0  0  0  0  0  0
   -1.8604    1.8708   -1.1348 H   0  0  0  0  0  0  0  0  0  0  0  0
   -1.7159   -2.0182    0.7397 H   0  0  0  0  0  0  0  0  0  0  0  0
   -6.3275   -0.5384    1.0874 H   0  0  0  0  0  0  0  0  0  0  0  0
   -5.5384   -2.5786    2.2625 H   0  0  0  0  0  0  0  0  0  0  0  0
   -4.9187   -3.5642    4.4481 H   0  0  0  0  0  0  0  0  0  0  0  0
   -1.6299   -1.1179    4.8206 H   0  0  0  0  0  0  0  0  0  0  0  0
   -2.1426    0.0654    2.7146 H   0  0  0  0  0  0  0  0  0  0  0  0
   -5.7480    0.6114   -3.2761 H   0  0  0  0  0  0  0  0  0  0  0  0
   -7.7584    1.2717   -4.5349 H   0  0  0  0  0  0  0  0  0  0  0  0
   -9.9087    1.7934   -0.8462 H   0  0  0  0  0  0  0  0  0  0  0  0
   -7.9073    1.1378    0.4258 H   0  0  0  0  0  0  0  0  0  0  0  0
   -9.9232    1.9378   -4.3661 H   0  0  0  0  0  0  0  0  0  0  0  0
  1  2  2  0  0  0  0
  1 26  1  0  0  0  0
  2  3  1  0  0  0  0
  2 13  1  0  0  0  0
  3  4  2  0  0  0  0
  3 27  1  0  0  0  0
  4  5  1  0  0  0  0
  4 28  1  0  0  0  0
  5  6  2  0  0  0  0
  5  7  1  0  0  0  0
  6  1  1  0  0  0  0
  6 29  1  0  0  0  0
  7  8  1  0  0  0  0
  8  9  2  0  0  0  0
  9 10  1  0  0  0  0
  9 19  1  0  0  0  0
 10 11  1  0  0  0  0
 10 30  1  0  0  0  0
 11  7  2  0  0  0  0
 11 12  1  0  0  0  0
 12 14  2  0  0  0  0
 14 15  1  0  0  0  0
 14 31  1  0  0  0  0
 15 16  2  0  0  0  0
 15 32  1  0  0  0  0
 16 17  1  0  0  0  0
 17 18  2  0  0  0  0
 17 33  1  0  0  0  0
 18 12  1  0  0  0  0
 18 34  1  0  0  0  0
 19 20  2  0  0  0  0
 20 21  1  0  0  0  0
 20 35  1  0  0  0  0
 21 22  2  0  0  0  0
 21 36  1  0  0  0  0
 22 23  1  0  0  0  0
 22 25  1  0  0  0  0
 23 24  2  0  0  0  0
 23 37  1  0  0  0  0
 24 19  1  0  0  0  0
 24 38  1  0  0  0  0
 25 39  1  0  0  0  0
M  END
>  <Mol_ID>
46

>  <Formula>
C20H14FN3O

>  <MolWeight>
331.3430632

>  <Cat>
S1077

>  <Name>
SB202190 (FHPI)

>  <Synonyms>
N/A

>  <Target>
Apoptosis related,Autophagy,Ferroptosis,p38 MAPK

>  <Form>
free base

>  <CAS>
152121-30-7

>  <URL>
http://selleckchem.com/products/SB-202190.html

$$$$
