1.cdx
 OpenBabel08302520403D

 37 40  0  0  0  0  0  0  0  0999 V2000
    2.2097    1.4954   -0.5002 C   0  0  0  0  0  0  0  0  0  0  0  0
    3.3584    1.3026   -1.2709 C   0  0  0  0  0  0  0  0  0  0  0  0
    3.7539    0.0258   -1.6580 C   0  0  0  0  0  0  0  0  0  0  0  0
    3.0065   -1.0965   -1.2833 C   0  0  0  0  0  0  0  0  0  0  0  0
    1.8444   -0.9316   -0.4995 C   0  0  0  0  0  0  0  0  0  0  0  0
    1.4689    0.3631   -0.1242 C   0  0  0  0  0  0  0  0  0  0  0  0
    0.8850   -1.8224    0.0632 C   0  0  0  0  0  0  0  0  0  0  0  0
   -0.0482   -1.0692    0.7419 C   0  0  0  0  0  0  0  0  0  0  0  0
    0.3249    0.2457    0.6390 N   0  0  0  0  0  0  0  0  0  0  0  0
    0.8637   -3.2371   -0.0210 C   0  0  0  0  0  0  0  0  0  0  0  0
    0.3304   -4.0243   -0.9684 C   0  0  0  0  0  0  0  0  0  0  0  0
    0.5765   -5.4254   -0.5747 C   0  0  0  0  0  0  0  0  0  0  0  0
    1.2676   -5.3975    0.5833 N   0  0  0  0  0  0  0  0  0  0  0  0
    1.4900   -4.1259    0.9811 C   0  0  0  0  0  0  0  0  0  0  0  0
    2.1019   -3.7888    1.9786 O   0  0  0  0  0  0  0  0  0  0  0  0
    0.2223   -6.4192   -1.1800 O   0  0  0  0  0  0  0  0  0  0  0  0
   -0.3575   -3.6123   -2.1828 C   0  0  0  0  0  0  0  0  0  0  0  0
    0.3672   -3.4208   -3.3652 C   0  0  0  0  0  0  0  0  0  0  0  0
   -0.2820   -3.0069   -4.5282 C   0  0  0  0  0  0  0  0  0  0  0  0
   -1.6581   -2.7846   -4.5168 C   0  0  0  0  0  0  0  0  0  0  0  0
   -2.3861   -2.9746   -3.3430 C   0  0  0  0  0  0  0  0  0  0  0  0
   -1.7381   -3.3841   -2.1759 C   0  0  0  0  0  0  0  0  0  0  0  0
   -0.3581    1.3517    1.2723 C   0  0  0  0  0  0  0  0  0  0  0  0
    1.9113    2.4939   -0.1999 H   0  0  0  0  0  0  0  0  0  0  0  0
    3.9542    2.1629   -1.5671 H   0  0  0  0  0  0  0  0  0  0  0  0
    4.6551   -0.1032   -2.2530 H   0  0  0  0  0  0  0  0  0  0  0  0
    3.3299   -2.0869   -1.5884 H   0  0  0  0  0  0  0  0  0  0  0  0
   -0.9265   -1.3590    1.3043 H   0  0  0  0  0  0  0  0  0  0  0  0
    1.5823   -6.2131    1.0803 H   0  0  0  0  0  0  0  0  0  0  0  0
    1.4406   -3.5915   -3.3910 H   0  0  0  0  0  0  0  0  0  0  0  0
    0.2859   -2.8572   -5.4432 H   0  0  0  0  0  0  0  0  0  0  0  0
   -2.1634   -2.4631   -5.4242 H   0  0  0  0  0  0  0  0  0  0  0  0
   -3.4594   -2.8032   -3.3362 H   0  0  0  0  0  0  0  0  0  0  0  0
   -2.3190   -3.5257   -1.2679 H   0  0  0  0  0  0  0  0  0  0  0  0
    0.3358    1.8297    1.9690 H   0  0  0  0  0  0  0  0  0  0  0  0
   -0.6736    2.0555    0.4978 H   0  0  0  0  0  0  0  0  0  0  0  0
   -1.2311    0.9827    1.8162 H   0  0  0  0  0  0  0  0  0  0  0  0
  1  2  2  0  0  0  0
  1 24  1  0  0  0  0
  2  3  1  0  0  0  0
  2 25  1  0  0  0  0
  3  4  2  0  0  0  0
  3 26  1  0  0  0  0
  4  5  1  0  0  0  0
  4 27  1  0  0  0  0
  5  6  2  0  0  0  0
  5  7  1  0  0  0  0
  6  1  1  0  0  0  0
  7  8  2  0  0  0  0
  7 10  1  0  0  0  0
  8  9  1  0  0  0  0
  8 28  1  0  0  0  0
  9  6  1  0  0  0  0
  9 23  1  0  0  0  0
 10 11  2  0  0  0  0
 11 12  1  0  0  0  0
 11 17  1  0  0  0  0
 12 13  1  0  0  0  0
 12 16  2  0  0  0  0
 13 14  1  0  0  0  0
 13 29  1  0  0  0  0
 14 10  1  0  0  0  0
 14 15  2  0  0  0  0
 17 18  2  0  0  0  0
 18 19  1  0  0  0  0
 18 30  1  0  0  0  0
 19 20  2  0  0  0  0
 19 31  1  0  0  0  0
 20 21  1  0  0  0  0
 20 32  1  0  0  0  0
 21 22  2  0  0  0  0
 21 33  1  0  0  0  0
 22 17  1  0  0  0  0
 22 34  1  0  0  0  0
 23 35  1  0  0  0  0
 23 36  1  0  0  0  0
 23 37  1  0  0  0  0
M  END
>  <Mol_ID>
44

>  <Formula>
C19H12Cl2N2O2

>  <MolWeight>
371.21678

>  <Cat>
S1075

>  <Name>
SB216763

>  <Synonyms>
N/A

>  <Target>
Autophagy,GSK-3

>  <Form>
free base

>  <CAS>
280744-09-4

>  <URL>
http://selleckchem.com/products/SB-216763.html

$$$$
