1.cdx
 OpenBabel08302519543D

 42 46  0  0  0  0  0  0  0  0999 V2000
    1.1322   -0.8508   -0.0136 C   0  0  0  0  0  0  0  0  0  0  0  0
    0.7703    0.4881   -0.0071 C   0  0  0  0  0  0  0  0  0  0  0  0
    1.6639    1.5043    0.0090 N   0  0  0  0  0  0  0  0  0  0  0  0
    2.9428    1.0887    0.0202 C   0  0  0  0  0  0  0  0  0  0  0  0
    3.3523   -0.1959    0.0339 N   0  0  0  0  0  0  0  0  0  0  0  0
    2.4733   -1.2326    0.0125 C   0  0  0  0  0  0  0  0  0  0  0  0
    2.9978   -2.5123   -0.0439 N   0  0  0  0  0  0  0  0  0  0  0  0
    0.0166   -1.6351   -0.0343 O   0  0  0  0  0  0  0  0  0  0  0  0
   -1.0604   -0.7997   -0.0330 C   0  0  0  0  0  0  0  0  0  0  0  0
   -0.6445    0.5297   -0.0158 C   0  0  0  0  0  0  0  0  0  0  0  0
   -2.3289   -1.2472   -0.0399 N   0  0  0  0  0  0  0  0  0  0  0  0
   -3.2432   -0.2518   -0.0245 C   0  0  0  0  0  0  0  0  0  0  0  0
   -2.9640    1.1092   -0.0078 C   0  0  0  0  0  0  0  0  0  0  0  0
   -1.6327    1.5272   -0.0061 C   0  0  0  0  0  0  0  0  0  0  0  0
    4.0095    2.1101   -0.0049 C   0  0  0  0  0  0  0  0  0  0  0  0
    5.3741    1.7400   -0.0248 C   0  0  0  0  0  0  0  0  0  0  0  0
    6.3942    2.6907   -0.0771 C   0  0  0  0  0  0  0  0  0  0  0  0
    6.0762    4.0432   -0.1037 C   0  0  0  0  0  0  0  0  0  0  0  0
    4.7429    4.4303   -0.0669 C   0  0  0  0  0  0  0  0  0  0  0  0
    3.7194    3.4863   -0.0245 C   0  0  0  0  0  0  0  0  0  0  0  0
    4.4734    5.7675   -0.0720 O   0  0  0  0  0  0  0  0  0  0  0  0
    4.3049   -2.7004    0.6129 C   0  0  0  0  0  0  0  0  0  0  0  0
    5.0120   -3.9113   -0.0054 C   0  0  0  0  0  0  0  0  0  0  0  0
    4.1996   -5.0937    0.0861 O   0  0  0  0  0  0  0  0  0  0  0  0
    2.9494   -4.8928   -0.5957 C   0  0  0  0  0  0  0  0  0  0  0  0
    2.1534   -3.7105   -0.0076 C   0  0  0  0  0  0  0  0  0  0  0  0
   -4.2773   -0.5930   -0.0246 H   0  0  0  0  0  0  0  0  0  0  0  0
   -3.7703    1.8353    0.0074 H   0  0  0  0  0  0  0  0  0  0  0  0
   -1.3688    2.5798    0.0075 H   0  0  0  0  0  0  0  0  0  0  0  0
    5.6517    0.6869   -0.0065 H   0  0  0  0  0  0  0  0  0  0  0  0
    7.4335    2.3736   -0.0995 H   0  0  0  0  0  0  0  0  0  0  0  0
    6.8617    4.7920   -0.1496 H   0  0  0  0  0  0  0  0  0  0  0  0
    2.6807    3.8123   -0.0153 H   0  0  0  0  0  0  0  0  0  0  0  0
    3.5168    5.8888    0.0494 H   0  0  0  0  0  0  0  0  0  0  0  0
    4.1379   -2.8749    1.6843 H   0  0  0  0  0  0  0  0  0  0  0  0
    4.9707   -1.8366    0.5119 H   0  0  0  0  0  0  0  0  0  0  0  0
    5.2572   -3.7230   -1.0578 H   0  0  0  0  0  0  0  0  0  0  0  0
    5.9488   -4.1061    0.5262 H   0  0  0  0  0  0  0  0  0  0  0  0
    2.3705   -5.8160   -0.5051 H   0  0  0  0  0  0  0  0  0  0  0  0
    3.1522   -4.7281   -1.6619 H   0  0  0  0  0  0  0  0  0  0  0  0
    1.8769   -3.9283    1.0310 H   0  0  0  0  0  0  0  0  0  0  0  0
    1.2437   -3.5988   -0.6035 H   0  0  0  0  0  0  0  0  0  0  0  0
  1  2  1  0  0  0  0
  1  8  1  0  0  0  0
  2  3  2  0  0  0  0
  3  4  1  0  0  0  0
  4  5  2  0  0  0  0
  4 15  1  0  0  0  0
  5  6  1  0  0  0  0
  6  1  2  0  0  0  0
  6  7  1  0  0  0  0
  7 22  1  0  0  0  0
  8  9  1  0  0  0  0
  9 10  2  0  0  0  0
  9 11  1  0  0  0  0
 10  2  1  0  0  0  0
 11 12  2  0  0  0  0
 12 13  1  0  0  0  0
 12 27  1  0  0  0  0
 13 14  2  0  0  0  0
 13 28  1  0  0  0  0
 14 10  1  0  0  0  0
 14 29  1  0  0  0  0
 15 16  2  0  0  0  0
 16 17  1  0  0  0  0
 16 30  1  0  0  0  0
 17 18  2  0  0  0  0
 17 31  1  0  0  0  0
 18 19  1  0  0  0  0
 18 32  1  0  0  0  0
 19 20  2  0  0  0  0
 19 21  1  0  0  0  0
 20 15  1  0  0  0  0
 20 33  1  0  0  0  0
 21 34  1  0  0  0  0
 22 23  1  0  0  0  0
 22 35  1  0  0  0  0
 22 36  1  0  0  0  0
 23 24  1  0  0  0  0
 23 37  1  0  0  0  0
 23 38  1  0  0  0  0
 24 25  1  0  0  0  0
 25 26  1  0  0  0  0
 25 39  1  0  0  0  0
 25 40  1  0  0  0  0
 26  7  1  0  0  0  0
 26 41  1  0  0  0  0
 26 42  1  0  0  0  0
M  END
>  <Mol_ID>
25

>  <Formula>
C19H16N4O3

>  <MolWeight>
348.35534

>  <Cat>
S1038

>  <Name>
PI-103

>  <Synonyms>
N/A

>  <Target>
Apoptosis related,Autophagy,DNA-PK,mTOR,PI3K

>  <Form>
free base

>  <CAS>
371935-74-9

>  <URL>
http://selleckchem.com/products/PI-103.html

$$$$
