1.cdx
 OpenBabel08302520143D

 52 54  0  0  0  0  0  0  0  0999 V2000
    2.5765   -1.1047   -0.0723 C   0  0  0  0  0  0  0  0  0  0  0  0
    2.6018    0.5384   -0.7520 C   0  0  0  0  0  0  0  0  0  0  0  0
    1.0644    1.4679   -0.9081 C   0  0  0  0  0  0  0  0  0  0  0  0
   -0.4800    0.7206   -0.3748 C   0  0  0  0  0  0  0  0  0  0  0  0
   -0.5173   -0.8942    0.2950 C   0  0  0  0  0  0  0  0  0  0  0  0
    1.0164   -1.8221    0.4475 C   0  0  0  0  0  0  0  0  0  0  0  0
   -1.8131    1.0339   -0.3926 N   0  0  0  0  0  0  0  0  0  0  0  0
   -2.5967   -0.0032    0.0908 C   0  0  0  0  0  0  0  0  0  0  0  0
   -1.8709   -1.0759    0.6103 C   0  0  0  0  0  0  0  0  0  0  0  0
   -4.0231    0.0240   -0.0034 C   0  0  0  0  0  0  0  0  0  0  0  0
   -4.7155    0.5772   -1.1594 C   0  0  0  0  0  0  0  0  0  0  0  0
   -5.9921    0.3349   -0.8358 C   0  0  0  0  0  0  0  0  0  0  0  0
   -6.0691   -0.3417    0.4540 C   0  0  0  0  0  0  0  0  0  0  0  0
   -4.7765   -0.4804    0.9201 N   0  0  0  0  0  0  0  0  0  0  0  0
   -7.1397   -0.8245    1.1095 C   0  0  0  0  0  0  0  0  0  0  0  0
   -7.1191    0.6085   -1.5645 O   0  0  0  0  0  0  0  0  0  0  0  0
   -6.8594    1.2297   -2.8279 C   0  0  0  0  0  0  0  0  0  0  0  0
   -7.0191   -1.5443    2.3426 C   0  0  0  0  0  0  0  0  0  0  0  0
   -7.7820   -2.5184    2.9686 C   0  0  0  0  0  0  0  0  0  0  0  0
   -7.0990   -2.8797    4.1709 C   0  0  0  0  0  0  0  0  0  0  0  0
   -5.9452   -2.1316    4.2534 C   0  0  0  0  0  0  0  0  0  0  0  0
   -5.9180   -1.3260    3.1463 N   0  0  0  0  0  0  0  0  0  0  0  0
   -4.8493   -2.1286    5.2543 C   0  0  0  0  0  0  0  0  0  0  0  0
   -9.0374   -3.1407    2.4777 C   0  0  0  0  0  0  0  0  0  0  0  0
    1.1971    0.2176    0.7046 C   0  0  0  0  0  0  0  0  0  0  0  0
    0.8517   -0.7582   -1.6159 S   0  0  0  0  0  0  0  0  0  0  0  0
    1.4791   -2.0524   -1.9421 O   0  0  0  0  0  0  0  0  0  0  0  0
   -0.4924   -0.7315   -2.2244 O   0  0  0  0  0  0  0  0  0  0  0  0
    1.5581    0.1640   -2.7899 O   0  0  0  0  0  0  0  0  0  0  0  0
    3.4902   -1.6935   -0.0052 H   0  0  0  0  0  0  0  0  0  0  0  0
    3.5340    0.9663   -1.1157 H   0  0  0  0  0  0  0  0  0  0  0  0
    1.0135    2.4566   -1.3573 H   0  0  0  0  0  0  0  0  0  0  0  0
    0.9548   -2.8288    0.8591 H   0  0  0  0  0  0  0  0  0  0  0  0
   -2.1869    1.8719   -0.8145 H   0  0  0  0  0  0  0  0  0  0  0  0
   -2.3157   -1.9548    1.0631 H   0  0  0  0  0  0  0  0  0  0  0  0
   -4.2719    1.0003   -2.0376 H   0  0  0  0  0  0  0  0  0  0  0  0
   -8.1287   -0.7215    0.6731 H   0  0  0  0  0  0  0  0  0  0  0  0
   -6.3427    2.1887   -2.6960 H   0  0  0  0  0  0  0  0  0  0  0  0
   -6.2693    0.5695   -3.4756 H   0  0  0  0  0  0  0  0  0  0  0  0
   -7.8113    1.4286   -3.3266 H   0  0  0  0  0  0  0  0  0  0  0  0
   -7.4061   -3.6351    4.8836 H   0  0  0  0  0  0  0  0  0  0  0  0
   -5.1524   -0.7181    2.8754 H   0  0  0  0  0  0  0  0  0  0  0  0
   -5.2437   -1.9125    6.2523 H   0  0  0  0  0  0  0  0  0  0  0  0
   -4.3537   -3.1045    5.2847 H   0  0  0  0  0  0  0  0  0  0  0  0
   -4.0898   -1.3742    5.0226 H   0  0  0  0  0  0  0  0  0  0  0  0
   -8.8910   -4.2162    2.3318 H   0  0  0  0  0  0  0  0  0  0  0  0
   -9.8430   -2.9955    3.2035 H   0  0  0  0  0  0  0  0  0  0  0  0
   -9.3563   -2.7136    1.5227 H   0  0  0  0  0  0  0  0  0  0  0  0
    0.7971   -0.2861    1.6401 H   0  0  0  0  0  0  0  0  0  0  0  0
    0.8123    1.2370    1.0178 H   0  0  0  0  0  0  0  0  0  0  0  0
    2.2209    0.3784    1.1643 H   0  0  0  0  0  0  0  0  0  0  0  0
    0.8383    0.3361   -3.4346 H   0  0  0  0  0  0  0  0  0  0  0  0
  1  2  2  0  0  0  0
  1 30  1  0  0  0  0
  2  3  1  0  0  0  0
  2 31  1  0  0  0  0
  3  4  2  0  0  0  0
  3 32  1  0  0  0  0
  4  5  1  0  0  0  0
  4  7  1  0  0  0  0
  5  6  2  0  0  0  0
  6  1  1  0  0  0  0
  6 33  1  0  0  0  0
  7  8  1  0  0  0  0
  7 34  1  0  0  0  0
  8  9  2  0  0  0  0
  8 10  1  0  0  0  0
  9  5  1  0  0  0  0
  9 35  1  0  0  0  0
 10 11  1  0  0  0  0
 11 12  2  0  0  0  0
 11 36  1  0  0  0  0
 12 13  1  0  0  0  0
 12 16  1  0  0  0  0
 13 14  1  0  0  0  0
 13 15  2  0  0  0  0
 14 10  2  0  0  0  0
 15 18  1  0  0  0  0
 15 37  1  0  0  0  0
 16 17  1  0  0  0  0
 17 38  1  0  0  0  0
 17 39  1  0  0  0  0
 17 40  1  0  0  0  0
 18 19  2  0  0  0  0
 19 20  1  0  0  0  0
 19 24  1  0  0  0  0
 20 21  2  0  0  0  0
 20 41  1  0  0  0  0
 21 22  1  0  0  0  0
 21 23  1  0  0  0  0
 22 18  1  0  0  0  0
 22 42  1  0  0  0  0
 23 43  1  0  0  0  0
 23 44  1  0  0  0  0
 23 45  1  0  0  0  0
 24 46  1  0  0  0  0
 24 47  1  0  0  0  0
 24 48  1  0  0  0  0
 25 26  1  0  0  0  0
 25 49  1  0  0  0  0
 25 50  1  0  0  0  0
 25 51  1  0  0  0  0
 26 27  2  0  0  0  0
 26 28  2  0  0  0  0
 26 29  1  0  0  0  0
 29 52  1  0  0  0  0
M  END
>  <Mol_ID>
36

>  <Formula>
C21H23N3O4S

>  <MolWeight>
413.49002

>  <Cat>
S1057

>  <Name>
Obatoclax Mesylate (GX15-070)

>  <Synonyms>
N/A

>  <Target>
Autophagy,Bcl-2

>  <Form>
Mesylate

>  <CAS>
803712-79-0

>  <URL>
http://selleckchem.com/products/Obatoclax-Mesylate.html

$$$$
