1.cdx
 OpenBabel08302519513D

 43 46  0  0  0  0  0  0  0  0999 V2000
   -3.0272  -14.3084    1.0105 C   0  0  0  0  0  0  0  0  0  0  0  0
   -4.2403  -13.8056    0.5610 C   0  0  0  0  0  0  0  0  0  0  0  0
   -4.6496  -14.0888   -0.7323 C   0  0  0  0  0  0  0  0  0  0  0  0
   -3.8409  -14.8844   -1.5387 C   0  0  0  0  0  0  0  0  0  0  0  0
   -2.6557  -15.3762   -1.0015 C   0  0  0  0  0  0  0  0  0  0  0  0
   -2.2177  -15.1018    0.2646 N   0  0  0  0  0  0  0  0  0  0  0  0
   -5.0173  -13.0741    1.3678 F   0  0  0  0  0  0  0  0  0  0  0  0
   -1.8343  -16.3750   -1.7853 C   0  0  0  0  0  0  0  0  0  0  0  0
   -0.8254  -16.9441   -1.0582 N   0  0  0  0  0  0  0  0  0  0  0  0
   -2.1598  -16.6425   -2.9305 O   0  0  0  0  0  0  0  0  0  0  0  0
   -0.0358  -18.0614   -1.4001 C   0  0  0  0  0  0  0  0  0  0  0  0
   -0.0452  -18.7051   -2.6314 C   0  0  0  0  0  0  0  0  0  0  0  0
    0.7315  -19.8490   -2.8274 C   0  0  0  0  0  0  0  0  0  0  0  0
    1.4668  -20.4161   -1.7745 C   0  0  0  0  0  0  0  0  0  0  0  0
    1.4313  -19.8410   -0.5106 C   0  0  0  0  0  0  0  0  0  0  0  0
    0.7444  -18.6005   -0.3813 C   0  0  0  0  0  0  0  0  0  0  0  0
    2.1370  -21.5491   -2.0101 F   0  0  0  0  0  0  0  0  0  0  0  0
    1.7893  -20.5473    0.8138 C   0  0  1  0  0  0  0  0  0  0  0  0
    0.4929  -20.4736    1.5498 N   0  0  0  0  0  0  0  0  0  0  0  0
   -0.3008  -21.4747    1.4059 C   0  0  0  0  0  0  0  0  0  0  0  0
    0.1602  -23.1167    1.7022 S   0  0  0  0  0  0  0  0  0  0  0  0
    1.8946  -22.7717    2.0340 C   0  0  0  0  0  0  0  0  0  0  0  0
    2.4093  -21.9564    0.8466 C   0  0  2  0  0  0  0  0  0  0  0  0
    3.9082  -21.7440    1.0054 C   0  0  0  0  0  0  0  0  0  0  0  0
    4.1449  -20.3505    1.1887 O   0  0  0  0  0  0  0  0  0  0  0  0
    2.8919  -19.7338    1.5202 C   0  0  0  0  0  0  0  0  0  0  0  0
   -1.5807  -21.3364    0.9677 N   0  0  0  0  0  0  0  0  0  0  0  0
   -2.6838  -14.0828    2.0158 H   0  0  0  0  0  0  0  0  0  0  0  0
   -5.5980  -13.7114   -1.1006 H   0  0  0  0  0  0  0  0  0  0  0  0
   -4.1384  -15.1445   -2.5481 H   0  0  0  0  0  0  0  0  0  0  0  0
   -0.7474  -16.5807   -0.1083 H   0  0  0  0  0  0  0  0  0  0  0  0
   -0.6666  -18.3478   -3.4515 H   0  0  0  0  0  0  0  0  0  0  0  0
    0.7301  -20.3451   -3.7976 H   0  0  0  0  0  0  0  0  0  0  0  0
    0.7031  -18.1364    0.6051 H   0  0  0  0  0  0  0  0  0  0  0  0
    2.4258  -23.7215    2.1396 H   0  0  0  0  0  0  0  0  0  0  0  0
    1.9952  -22.2278    2.9826 H   0  0  0  0  0  0  0  0  0  0  0  0
    2.2251  -22.5383   -0.0617 H   0  0  0  0  0  0  0  0  0  0  0  0
    4.4601  -22.0879    0.1251 H   0  0  0  0  0  0  0  0  0  0  0  0
    4.3197  -22.2708    1.8752 H   0  0  0  0  0  0  0  0  0  0  0  0
    2.9541  -18.6820    1.2257 H   0  0  0  0  0  0  0  0  0  0  0  0
    2.7847  -19.7701    2.6111 H   0  0  0  0  0  0  0  0  0  0  0  0
   -1.6233  -20.6478    0.2194 H   0  0  0  0  0  0  0  0  0  0  0  0
   -1.9659  -22.2219    0.6595 H   0  0  0  0  0  0  0  0  0  0  0  0
  1  2  2  0  0  0  0
  1 28  1  0  0  0  0
  2  3  1  0  0  0  0
  2  7  1  0  0  0  0
  3  4  2  0  0  0  0
  3 29  1  0  0  0  0
  4  5  1  0  0  0  0
  4 30  1  0  0  0  0
  5  6  2  0  0  0  0
  5  8  1  0  0  0  0
  6  1  1  0  0  0  0
  8  9  1  0  0  0  0
  8 10  2  0  0  0  0
  9 11  1  0  0  0  0
  9 31  1  0  0  0  0
 11 12  2  0  0  0  0
 12 13  1  0  0  0  0
 12 32  1  0  0  0  0
 13 14  2  0  0  0  0
 13 33  1  0  0  0  0
 14 15  1  0  0  0  0
 14 17  1  0  0  0  0
 15 16  2  0  0  0  0
 16 11  1  0  0  0  0
 16 34  1  0  0  0  0
 18 15  1  6  0  0  0
 18 19  1  0  0  0  0
 19 20  2  0  0  0  0
 20 21  1  0  0  0  0
 20 27  1  0  0  0  0
 21 22  1  0  0  0  0
 22 35  1  0  0  0  0
 22 36  1  0  0  0  0
 23 22  1  0  0  0  0
 23 18  1  0  0  0  0
 23 24  1  0  0  0  0
 23 37  1  6  0  0  0
 24 25  1  0  0  0  0
 24 38  1  0  0  0  0
 24 39  1  0  0  0  0
 25 26  1  0  0  0  0
 26 18  1  0  0  0  0
 26 40  1  0  0  0  0
 26 41  1  0  0  0  0
 27 42  1  0  0  0  0
 27 43  1  0  0  0  0
M  END
>  <Mol_ID>
197

>  <Formula>
C18H16F2N4O2S

>  <MolWeight>
390.4070464

>  <Cat>
S2156

>  <Name>
LY2886721

>  <Synonyms>
N/A

>  <Target>
BACE

>  <Form>
free base

>  <CAS>
1262036-50-9

>  <URL>
http://selleckchem.com/products/LY-2886721.html

$$$$
