10-Hydroxycamptothecin.cdx
 OpenBabel08302521363D

 43 47  0  0  0  0  0  0  0  0999 V2000
    4.2791   -1.1067   -0.1161 C   0  0  0  0  0  0  0  0  0  0  0  0
    4.4930    0.2483    0.0648 C   0  0  0  0  0  0  0  0  0  0  0  0
    3.4169    1.1237    0.0477 C   0  0  0  0  0  0  0  0  0  0  0  0
    2.1182    0.6384   -0.2133 C   0  0  0  0  0  0  0  0  0  0  0  0
    1.8883   -0.7183   -0.5762 C   0  0  0  0  0  0  0  0  0  0  0  0
    2.9912   -1.5724   -0.4415 C   0  0  0  0  0  0  0  0  0  0  0  0
    1.0072    1.4592   -0.0191 C   0  0  0  0  0  0  0  0  0  0  0  0
   -0.2466    0.8995   -0.2468 C   0  0  0  0  0  0  0  0  0  0  0  0
   -0.3899   -0.3355   -0.8881 C   0  0  0  0  0  0  0  0  0  0  0  0
    0.6534   -1.1895   -0.9610 N   0  0  0  0  0  0  0  0  0  0  0  0
   -1.5223    1.2765    0.4342 C   0  0  0  0  0  0  0  0  0  0  0  0
   -2.2238   -0.0038    0.3819 N   0  0  0  0  0  0  0  0  0  0  0  0
   -1.8260   -0.7159   -0.7403 C   0  0  0  0  0  0  0  0  0  0  0  0
   -2.9284   -0.6627    1.3609 C   0  0  0  0  0  0  0  0  0  0  0  0
   -3.4683   -1.9673    0.8845 C   0  0  0  0  0  0  0  0  0  0  0  0
   -4.0268   -1.7322   -0.3195 C   0  0  0  0  0  0  0  0  0  0  0  0
   -2.8047   -1.5055   -1.2639 C   0  0  0  0  0  0  0  0  0  0  0  0
   -2.8659   -3.3871    0.8717 C   0  0  0  0  0  0  0  0  0  0  0  0
   -3.3180   -4.2308   -0.3297 O   0  0  0  0  0  0  0  0  0  0  0  0
   -4.4826   -3.9257   -1.0611 C   0  0  0  0  0  0  0  0  0  0  0  0
   -5.1950   -2.7268   -0.4654 C   0  0  2  0  0  0  0  0  0  0  0  0
    5.7645    0.6820    0.2868 O   0  0  0  0  0  0  0  0  0  0  0  0
   -3.2759   -0.1901    2.4253 O   0  0  0  0  0  0  0  0  0  0  0  0
   -4.8054   -4.5034   -2.0941 O   0  0  0  0  0  0  0  0  0  0  0  0
   -6.5916   -2.1438   -0.6594 C   0  0  0  0  0  0  0  0  0  0  0  0
   -6.9558   -1.3358   -1.8601 C   0  0  0  0  0  0  0  0  0  0  0  0
   -5.4883   -3.4266    0.8487 O   0  0  0  0  0  0  0  0  0  0  0  0
    5.1103   -1.8024   -0.0230 H   0  0  0  0  0  0  0  0  0  0  0  0
    3.5735    2.1772    0.2658 H   0  0  0  0  0  0  0  0  0  0  0  0
    2.8464   -2.6426   -0.5671 H   0  0  0  0  0  0  0  0  0  0  0  0
    1.1031    2.4416    0.4205 H   0  0  0  0  0  0  0  0  0  0  0  0
   -2.0716    1.9952   -0.1868 H   0  0  0  0  0  0  0  0  0  0  0  0
   -1.4183    1.6341    1.4586 H   0  0  0  0  0  0  0  0  0  0  0  0
   -2.6385   -2.1378   -2.1294 H   0  0  0  0  0  0  0  0  0  0  0  0
   -3.1464   -3.9708    1.7489 H   0  0  0  0  0  0  0  0  0  0  0  0
   -1.7754   -3.3545    0.7872 H   0  0  0  0  0  0  0  0  0  0  0  0
    5.8032    1.6447    0.1490 H   0  0  0  0  0  0  0  0  0  0  0  0
   -7.3449   -2.9302   -0.5064 H   0  0  0  0  0  0  0  0  0  0  0  0
   -6.7564   -1.4733    0.2114 H   0  0  0  0  0  0  0  0  0  0  0  0
   -7.0363   -1.9686   -2.7420 H   0  0  0  0  0  0  0  0  0  0  0  0
   -7.9455   -0.8861   -1.6823 H   0  0  0  0  0  0  0  0  0  0  0  0
   -6.2576   -0.5159   -2.0354 H   0  0  0  0  0  0  0  0  0  0  0  0
   -5.6213   -2.7436    1.5292 H   0  0  0  0  0  0  0  0  0  0  0  0
  1  2  2  0  0  0  0
  1 28  1  0  0  0  0
  2  3  1  0  0  0  0
  2 22  1  0  0  0  0
  3  4  2  0  0  0  0
  3 29  1  0  0  0  0
  4  5  1  0  0  0  0
  4  7  1  0  0  0  0
  5  6  2  0  0  0  0
  6  1  1  0  0  0  0
  6 30  1  0  0  0  0
  7  8  2  0  0  0  0
  7 31  1  0  0  0  0
  8  9  1  0  0  0  0
  8 11  1  0  0  0  0
  9 10  2  0  0  0  0
 10  5  1  0  0  0  0
 11 12  1  0  0  0  0
 11 32  1  0  0  0  0
 11 33  1  0  0  0  0
 12 13  1  0  0  0  0
 12 14  1  0  0  0  0
 13  9  1  0  0  0  0
 14 15  1  0  0  0  0
 14 23  2  0  0  0  0
 15 16  2  0  0  0  0
 15 18  1  0  0  0  0
 16 17  1  0  0  0  0
 17 13  2  0  0  0  0
 17 34  1  0  0  0  0
 18 19  1  0  0  0  0
 18 35  1  0  0  0  0
 18 36  1  0  0  0  0
 19 20  1  0  0  0  0
 20 21  1  0  0  0  0
 20 24  2  0  0  0  0
 21 16  1  0  0  0  0
 21 27  1  1  0  0  0
 21 25  1  0  0  0  0
 22 37  1  0  0  0  0
 25 26  1  0  0  0  0
 25 38  1  0  0  0  0
 25 39  1  0  0  0  0
 26 40  1  0  0  0  0
 26 41  1  0  0  0  0
 26 42  1  0  0  0  0
 27 43  1  0  0  0  0
M  END
>  <Mol_ID>
682

>  <Formula>
C20H16N2O5

>  <MolWeight>
364.35144

>  <Cat>
S2423

>  <Name>
(S)-10-Hydroxycamptothecin

>  <Synonyms>
10-HCPT

>  <Target>
Topoisomerase

>  <Form>
free base

>  <CAS>
19685-09-7

>  <URL>
http://selleckchem.com/products/10-hydroxycamptothecin.html

$$$$
