10-Undecen-1-ol
 OpenBabel08302520383D

 34 33  0  0  0  0  0  0  0  0999 V2000
    1.0713   -0.0996    0.0606 C   0  0  0  0  0  0  0  0  0  0  0  0
    0.5827    1.1338   -0.7064 C   0  0  0  0  0  0  0  0  0  0  0  0
    0.6084   -1.3966   -0.6157 C   0  0  0  0  0  0  0  0  0  0  0  0
    0.9775    2.4698   -0.0646 C   0  0  0  0  0  0  0  0  0  0  0  0
    1.1007   -2.6748    0.0762 C   0  0  0  0  0  0  0  0  0  0  0  0
    2.4791    2.7386    0.0877 C   0  0  0  0  0  0  0  0  0  0  0  0
    0.5934   -2.8382    1.5118 C   0  0  0  0  0  0  0  0  0  0  0  0
    3.2416    2.7671   -1.2356 C   0  0  0  0  0  0  0  0  0  0  0  0
    1.0870   -4.1181    2.1260 C   0  0  0  0  0  0  0  0  0  0  0  0
    4.7142    3.1054   -1.0243 C   0  0  0  0  0  0  0  0  0  0  0  0
    1.8550   -4.1760    3.2227 C   0  0  0  0  0  0  0  0  0  0  0  0
    5.3912    3.1193   -2.2739 O   0  0  0  0  0  0  0  0  0  0  0  0
    0.6849   -0.0498    1.0840 H   0  0  0  0  0  0  0  0  0  0  0  0
    2.1652   -0.0997    0.1200 H   0  0  0  0  0  0  0  0  0  0  0  0
    0.9379    1.0973   -1.7421 H   0  0  0  0  0  0  0  0  0  0  0  0
   -0.5136    1.1014   -0.7565 H   0  0  0  0  0  0  0  0  0  0  0  0
   -0.4864   -1.4148   -0.6769 H   0  0  0  0  0  0  0  0  0  0  0  0
    0.9807   -1.4089   -1.6484 H   0  0  0  0  0  0  0  0  0  0  0  0
    0.5369    3.2793   -0.6568 H   0  0  0  0  0  0  0  0  0  0  0  0
    0.5166    2.5329    0.9290 H   0  0  0  0  0  0  0  0  0  0  0  0
    0.7675   -3.5340   -0.5215 H   0  0  0  0  0  0  0  0  0  0  0  0
    2.1976   -2.6950    0.0634 H   0  0  0  0  0  0  0  0  0  0  0  0
    2.5963    3.7123    0.5804 H   0  0  0  0  0  0  0  0  0  0  0  0
    2.9268    1.9993    0.7618 H   0  0  0  0  0  0  0  0  0  0  0  0
    0.9107   -1.9877    2.1254 H   0  0  0  0  0  0  0  0  0  0  0  0
   -0.5029   -2.8480    1.5194 H   0  0  0  0  0  0  0  0  0  0  0  0
    3.1699    1.7988   -1.7453 H   0  0  0  0  0  0  0  0  0  0  0  0
    2.7958    3.5023   -1.9167 H   0  0  0  0  0  0  0  0  0  0  0  0
    0.7836   -5.0459    1.6455 H   0  0  0  0  0  0  0  0  0  0  0  0
    4.8274    4.0950   -0.5701 H   0  0  0  0  0  0  0  0  0  0  0  0
    5.2022    2.3728   -0.3740 H   0  0  0  0  0  0  0  0  0  0  0  0
    2.1755   -5.1301    3.6261 H   0  0  0  0  0  0  0  0  0  0  0  0
    2.1787   -3.2799    3.7424 H   0  0  0  0  0  0  0  0  0  0  0  0
    5.3411    2.2211   -2.6423 H   0  0  0  0  0  0  0  0  0  0  0  0
  1  2  1  0  0  0  0
  1  3  1  0  0  0  0
  1 13  1  0  0  0  0
  1 14  1  0  0  0  0
  2  4  1  0  0  0  0
  2 15  1  0  0  0  0
  2 16  1  0  0  0  0
  3  5  1  0  0  0  0
  3 17  1  0  0  0  0
  3 18  1  0  0  0  0
  4  6  1  0  0  0  0
  4 19  1  0  0  0  0
  4 20  1  0  0  0  0
  5  7  1  0  0  0  0
  5 21  1  0  0  0  0
  5 22  1  0  0  0  0
  6  8  1  0  0  0  0
  6 23  1  0  0  0  0
  6 24  1  0  0  0  0
  7  9  1  0  0  0  0
  7 25  1  0  0  0  0
  7 26  1  0  0  0  0
  8 10  1  0  0  0  0
  8 27  1  0  0  0  0
  8 28  1  0  0  0  0
  9 11  2  0  0  0  0
  9 29  1  0  0  0  0
 10 12  1  0  0  0  0
 10 30  1  0  0  0  0
 10 31  1  0  0  0  0
 11 32  1  0  0  0  0
 11 33  1  0  0  0  0
 12 34  1  0  0  0  0
M  END
>  <Mol_ID>
3500

>  <Formula>
C11H22O

>  <MolWeight>
170.29178

>  <Cat>
S6225

>  <Name>
10-Undecen-1-ol

>  <Synonyms>
N/A

>  <Target>
Others

>  <Form>
free base

>  <CAS>
112-43-6

>  <URL>
http://www.selleck.cn/products/10-undecen-1-ol.html

$$$$
