10074-G5.cdx
 OpenBabel08302520433D

 37 40  0  0  0  0  0  0  0  0999 V2000
   -3.4077    4.4379    2.5695 C   0  0  0  0  0  0  0  0  0  0  0  0
   -2.3984    4.2979    1.5899 C   0  0  0  0  0  0  0  0  0  0  0  0
   -2.0248    3.0669    0.9836 C   0  0  0  0  0  0  0  0  0  0  0  0
   -2.8512    1.9697    1.3688 C   0  0  0  0  0  0  0  0  0  0  0  0
   -3.9168    2.0964    2.3664 C   0  0  0  0  0  0  0  0  0  0  0  0
   -4.1706    3.3342    2.9701 C   0  0  0  0  0  0  0  0  0  0  0  0
   -2.8238    0.6922    0.9617 N   0  0  0  0  0  0  0  0  0  0  0  0
   -3.8139    0.0380    1.6733 O   0  0  0  0  0  0  0  0  0  0  0  0
   -4.4764    0.8921    2.5365 N   0  0  0  0  0  0  0  0  0  0  0  0
   -5.2016    3.4552    3.9564 N   0  3  0  0  0  0  0  0  0  0  0  0
   -4.8528    3.8595    5.0750 O   0  0  0  0  0  0  0  0  0  0  0  0
   -6.3593    3.2265    3.5946 O   0  5  0  0  0  0  0  0  0  0  0  0
   -0.9605    2.9666    0.0647 N   0  0  0  0  0  0  0  0  0  0  0  0
    0.2932    3.6427    0.0404 C   0  0  0  0  0  0  0  0  0  0  0  0
    1.1983    3.5313   -1.0573 C   0  0  0  0  0  0  0  0  0  0  0  0
    2.4249    4.2423   -0.9581 C   0  0  0  0  0  0  0  0  0  0  0  0
    2.7610    5.0302    0.1435 C   0  0  0  0  0  0  0  0  0  0  0  0
    1.9083    5.0749    1.2274 C   0  0  0  0  0  0  0  0  0  0  0  0
    0.7209    4.3493    1.1909 C   0  0  0  0  0  0  0  0  0  0  0  0
    0.9622    2.7181   -2.2952 C   0  0  0  0  0  0  0  0  0  0  0  0
    1.4635    3.1402   -3.5478 C   0  0  0  0  0  0  0  0  0  0  0  0
    1.3051    2.3779   -4.7113 C   0  0  0  0  0  0  0  0  0  0  0  0
    0.5974    1.1848   -4.6669 C   0  0  0  0  0  0  0  0  0  0  0  0
    0.0842    0.7400   -3.4538 C   0  0  0  0  0  0  0  0  0  0  0  0
    0.2944    1.4801   -2.2820 C   0  0  0  0  0  0  0  0  0  0  0  0
   -3.5824    5.4182    3.0130 H   0  0  0  0  0  0  0  0  0  0  0  0
   -1.8689    5.2046    1.2910 H   0  0  0  0  0  0  0  0  0  0  0  0
   -1.2991    2.7427   -0.8691 H   0  0  0  0  0  0  0  0  0  0  0  0
    3.1648    4.1771   -1.7545 H   0  0  0  0  0  0  0  0  0  0  0  0
    3.7015    5.5742    0.1621 H   0  0  0  0  0  0  0  0  0  0  0  0
    2.1658    5.6541    2.1102 H   0  0  0  0  0  0  0  0  0  0  0  0
    0.1214    4.3564    2.0950 H   0  0  0  0  0  0  0  0  0  0  0  0
    2.0060    4.0790   -3.6414 H   0  0  0  0  0  0  0  0  0  0  0  0
    1.7375    2.7211   -5.6482 H   0  0  0  0  0  0  0  0  0  0  0  0
    0.4573    0.5976   -5.5706 H   0  0  0  0  0  0  0  0  0  0  0  0
   -0.4659   -0.1967   -3.4095 H   0  0  0  0  0  0  0  0  0  0  0  0
   -0.0617    1.0485   -1.3488 H   0  0  0  0  0  0  0  0  0  0  0  0
  1  2  1  0  0  0  0
  1 26  1  0  0  0  0
  2  3  2  0  0  0  0
  2 27  1  0  0  0  0
  3  4  1  0  0  0  0
  3 13  1  0  0  0  0
  4  5  1  0  0  0  0
  4  7  2  0  0  0  0
  5  6  1  0  0  0  0
  6  1  2  0  0  0  0
  6 10  1  0  0  0  0
  7  8  1  0  0  0  0
  8  9  1  0  0  0  0
  9  5  2  0  0  0  0
 10 11  2  0  0  0  0
 10 12  1  0  0  0  0
 13 14  1  0  0  0  0
 13 28  1  0  0  0  0
 14 15  1  0  0  0  0
 15 16  2  0  0  0  0
 15 20  1  0  0  0  0
 16 17  1  0  0  0  0
 16 29  1  0  0  0  0
 17 18  2  0  0  0  0
 17 30  1  0  0  0  0
 18 19  1  0  0  0  0
 18 31  1  0  0  0  0
 19 14  2  0  0  0  0
 19 32  1  0  0  0  0
 20 21  2  0  0  0  0
 21 22  1  0  0  0  0
 21 33  1  0  0  0  0
 22 23  2  0  0  0  0
 22 34  1  0  0  0  0
 23 24  1  0  0  0  0
 23 35  1  0  0  0  0
 24 25  2  0  0  0  0
 24 36  1  0  0  0  0
 25 20  1  0  0  0  0
 25 37  1  0  0  0  0
M  CHG  2  10   1  12  -1
M  END
>  <Mol_ID>
4120

>  <Formula>
C18H12N4O3

>  <MolWeight>
332.31288

>  <Cat>
S8426

>  <Name>
10074-G5

>  <Synonyms>
N/A

>  <Target>
Myc

>  <Form>
free base

>  <CAS>
413611-93-5

>  <URL>
http://selleckchem.com/products/10074-g5.html

$$$$
