11-Methoxyyangonin
 OpenBabel08302521503D

 37 38  0  0  0  0  0  0  0  0999 V2000
    0.9088    0.0745    0.0916 C   0  0  0  0  0  0  0  0  0  0  0  0
    2.0214    0.7058    0.4977 C   0  0  0  0  0  0  0  0  0  0  0  0
    0.3539   -1.2446   -4.6291 O   0  0  0  0  0  0  0  0  0  0  0  0
    1.4529   -2.1377   -4.4998 C   0  0  0  0  0  0  0  0  0  0  0  0
   -1.9596    0.4968   -4.7322 O   0  0  0  0  0  0  0  0  0  0  0  0
   -1.4359    0.2709   -6.0319 C   0  0  0  0  0  0  0  0  0  0  0  0
    2.3513    4.6790   -2.1430 O   0  0  0  0  0  0  0  0  0  0  0  0
    2.9981    5.5035   -3.1023 C   0  0  0  0  0  0  0  0  0  0  0  0
    6.0285    1.6863   -1.6509 O   0  0  0  0  0  0  0  0  0  0  0  0
    0.2606    0.2248   -1.2166 C   0  0  0  0  0  0  0  0  0  0  0  0
    0.6903   -0.5315   -2.3172 C   0  0  0  0  0  0  0  0  0  0  0  0
   -0.8221    1.0896   -1.3583 C   0  0  0  0  0  0  0  0  0  0  0  0
    0.0101   -0.4786   -3.5473 C   0  0  0  0  0  0  0  0  0  0  0  0
   -1.5036    1.1505   -2.5718 C   0  0  0  0  0  0  0  0  0  0  0  0
   -1.1073    0.3686   -3.6655 C   0  0  0  0  0  0  0  0  0  0  0  0
    2.7702    1.6537   -0.2865 C   0  0  0  0  0  0  0  0  0  0  0  0
    2.2641    2.7981   -0.7613 C   0  0  0  0  0  0  0  0  0  0  0  0
    4.0917    1.2468   -0.5530 O   0  0  0  0  0  0  0  0  0  0  0  0
    3.0445    3.5967   -1.6626 C   0  0  0  0  0  0  0  0  0  0  0  0
    4.8762    1.9985   -1.3843 C   0  0  0  0  0  0  0  0  0  0  0  0
    4.2888    3.2118   -1.9755 C   0  0  0  0  0  0  0  0  0  0  0  0
    0.4268   -0.6438    0.7526 H   0  0  0  0  0  0  0  0  0  0  0  0
    2.4388    0.4659    1.4748 H   0  0  0  0  0  0  0  0  0  0  0  0
    2.3827   -1.5934   -4.3051 H   0  0  0  0  0  0  0  0  0  0  0  0
    1.2632   -2.8918   -3.7289 H   0  0  0  0  0  0  0  0  0  0  0  0
    1.5702   -2.6626   -5.4530 H   0  0  0  0  0  0  0  0  0  0  0  0
   -0.5116    0.8337   -6.1956 H   0  0  0  0  0  0  0  0  0  0  0  0
   -1.3081   -0.7956   -6.2349 H   0  0  0  0  0  0  0  0  0  0  0  0
   -2.1786    0.6381   -6.7482 H   0  0  0  0  0  0  0  0  0  0  0  0
    3.8572    6.0140   -2.6531 H   0  0  0  0  0  0  0  0  0  0  0  0
    3.3008    4.9287   -3.9827 H   0  0  0  0  0  0  0  0  0  0  0  0
    2.2815    6.2644   -3.4277 H   0  0  0  0  0  0  0  0  0  0  0  0
    1.5487   -1.1814   -2.1772 H   0  0  0  0  0  0  0  0  0  0  0  0
   -1.1525    1.7080   -0.5281 H   0  0  0  0  0  0  0  0  0  0  0  0
   -2.3675    1.8044   -2.6681 H   0  0  0  0  0  0  0  0  0  0  0  0
    1.2539    3.1138   -0.5382 H   0  0  0  0  0  0  0  0  0  0  0  0
    4.9302    3.7430   -2.6646 H   0  0  0  0  0  0  0  0  0  0  0  0
  1  2  2  3  0  0  0
  1 10  1  0  0  0  0
  1 22  1  0  0  0  0
  2 16  1  0  0  0  0
  2 23  1  0  0  0  0
  3  4  1  0  0  0  0
  3 13  1  0  0  0  0
  4 24  1  0  0  0  0
  4 25  1  0  0  0  0
  4 26  1  0  0  0  0
  5  6  1  0  0  0  0
  5 15  1  0  0  0  0
  6 27  1  0  0  0  0
  6 28  1  0  0  0  0
  6 29  1  0  0  0  0
  7  8  1  0  0  0  0
  7 19  1  0  0  0  0
  8 30  1  0  0  0  0
  8 31  1  0  0  0  0
  8 32  1  0  0  0  0
  9 20  2  0  0  0  0
 10 11  2  0  0  0  0
 10 12  1  0  0  0  0
 11 13  1  0  0  0  0
 11 33  1  0  0  0  0
 12 14  2  0  0  0  0
 12 34  1  0  0  0  0
 13 15  2  0  0  0  0
 14 15  1  0  0  0  0
 14 35  1  0  0  0  0
 16 17  2  0  0  0  0
 16 18  1  0  0  0  0
 17 19  1  0  0  0  0
 17 36  1  0  0  0  0
 18 20  1  0  0  0  0
 19 21  2  0  0  0  0
 20 21  1  0  0  0  0
 21 37  1  0  0  0  0
M  END
>  <Mol_ID>
9944

>  <Formula>
C16H16O5

>  <MolWeight>
288.29524

>  <Cat>
E5179

>  <Name>
11-Methoxyyangonin

>  <Synonyms>
N/A

>  <Target>
others

>  <Form>
free base

>  <CAS>
2743-14-8

>  <URL>
https://www.selleckchem.com/products/11-methoxyyangonin.html

$$$$
