12-Ethyl-9-hydroxycamptothecin
 OpenBabel08302521372D

 49 53  0  0  1  0  0  0  0  0999 V2000
    7.8410    8.4950    0.0000 O   0  0  0  0  0  0  0  0  0  0  0  0
   10.5965    2.9038    0.0000 C   0  0  0  0  0  0  0  0  0  0  0  0
    9.9827    1.6455    0.0000 C   0  0  0  0  0  0  0  0  0  0  0  0
    8.8064    3.0919    0.0000 O   0  0  0  0  0  0  0  0  0  0  0  0
    2.8000    1.2124    0.0000 C   0  0  0  0  0  0  0  0  0  0  0  0
    2.1000    0.0000    0.0000 C   0  0  0  0  0  0  0  0  0  0  0  0
   12.2251    3.8110    0.0000 O   0  0  0  0  0  0  0  0  0  0  0  0
    0.0000    6.0622    0.0000 O   0  0  0  0  0  0  0  0  0  0  0  0
    6.2694    5.1408    0.0000 C   0  0  0  0  0  0  0  0  0  0  0  0
    4.9000    4.8498    0.0000 C   0  0  0  0  0  0  0  0  0  0  0  0
    6.4157    6.5331    0.0000 N   0  0  0  0  0  0  0  0  0  0  0  0
    7.4020    4.3179    0.0000 C   0  0  0  0  0  0  0  0  0  0  0  0
    4.2000    6.0622    0.0000 C   0  0  0  0  0  0  0  0  0  0  0  0
    4.2000    3.6373    0.0000 N   0  0  0  0  0  0  0  0  0  0  0  0
    7.6947    7.1026    0.0000 C   0  0  0  0  0  0  0  0  0  0  0  0
    5.1368    7.1026    0.0000 C   0  0  0  0  0  0  0  0  0  0  0  0
    8.6810    4.8874    0.0000 C   0  0  0  0  0  0  0  0  0  0  0  0
    2.8000    6.0622    0.0000 C   0  0  0  0  0  0  0  0  0  0  0  0
    2.8000    3.6373    0.0000 C   0  0  0  0  0  0  0  0  0  0  0  0
    8.8274    6.2797    0.0000 C   0  0  0  0  0  0  0  0  0  0  0  0
    9.8136    4.0645    0.0000 C   0  0  2  0  0  0  0  0  0  0  0  0
    2.1000    4.8498    0.0000 C   0  0  0  0  0  0  0  0  0  0  0  0
    2.1000    2.4250    0.0000 C   0  0  0  0  0  0  0  0  0  0  0  0
   10.1062    6.8491    0.0000 C   0  0  0  0  0  0  0  0  0  0  0  0
   11.0925    4.6339    0.0000 C   0  0  0  0  0  0  0  0  0  0  0  0
    0.7000    4.8498    0.0000 C   0  0  0  0  0  0  0  0  0  0  0  0
    0.7000    2.4250    0.0000 C   0  0  0  0  0  0  0  0  0  0  0  0
   11.2390    6.0262    0.0000 O   0  0  0  0  0  0  0  0  0  0  0  0
    0.0000    3.6373    0.0000 C   0  0  0  0  0  0  0  0  0  0  0  0
   11.6639    2.9784    0.0000 H   0  0  0  0  0  0  0  0  0  0  0  0
   11.0656    3.8655    0.0000 H   0  0  0  0  0  0  0  0  0  0  0  0
    8.9153    1.5709    0.0000 H   0  0  0  0  0  0  0  0  0  0  0  0
   10.5810    0.7584    0.0000 H   0  0  0  0  0  0  0  0  0  0  0  0
    9.5136    0.6838    0.0000 H   0  0  0  0  0  0  0  0  0  0  0  0
    7.8740    3.3593    0.0000 H   0  0  0  0  0  0  0  0  0  0  0  0
    3.8700    1.2124    0.0000 H   0  0  0  0  0  0  0  0  0  0  0  0
    3.3350    2.1390    0.0000 H   0  0  0  0  0  0  0  0  0  0  0  0
    1.0300    0.0000    0.0000 H   0  0  0  0  0  0  0  0  0  0  0  0
    2.6350   -0.9267    0.0000 H   0  0  0  0  0  0  0  0  0  0  0  0
    1.5650   -0.9266    0.0000 H   0  0  0  0  0  0  0  0  0  0  0  0
    0.4685    6.8737    0.0000 H   0  0  0  0  0  0  0  0  0  0  0  0
    7.2941    3.2916    0.0000 H   0  0  0  0  0  0  0  0  0  0  0  0
    4.9144    8.1492    0.0000 H   0  0  0  0  0  0  0  0  0  0  0  0
    4.1033    7.3796    0.0000 H   0  0  0  0  0  0  0  0  0  0  0  0
    2.2840    6.9559    0.0000 H   0  0  0  0  0  0  0  0  0  0  0  0
   10.2180    7.9132    0.0000 H   0  0  0  0  0  0  0  0  0  0  0  0
   11.0837    7.2844    0.0000 H   0  0  0  0  0  0  0  0  0  0  0  0
    0.1840    1.5312    0.0000 H   0  0  0  0  0  0  0  0  0  0  0  0
   -1.0320    3.6373    0.0000 H   0  0  0  0  0  0  0  0  0  0  0  0
  1 15  2  0  0  0  0
  2  3  1  0  0  0  0
  2 30  1  0  0  0  0
  2 31  1  0  0  0  0
  3 32  1  0  0  0  0
  3 33  1  0  0  0  0
  3 34  1  0  0  0  0
  4 35  1  0  0  0  0
  5  6  1  0  0  0  0
  5 23  1  0  0  0  0
  5 36  1  0  0  0  0
  5 37  1  0  0  0  0
  6 38  1  0  0  0  0
  6 39  1  0  0  0  0
  6 40  1  0  0  0  0
  7 25  2  0  0  0  0
  8 26  1  0  0  0  0
  8 41  1  0  0  0  0
  9 10  1  0  0  0  0
  9 11  1  0  0  0  0
  9 12  2  0  0  0  0
 10 13  2  0  0  0  0
 10 14  1  0  0  0  0
 11 15  1  0  0  0  0
 11 16  1  0  0  0  0
 12 17  1  0  0  0  0
 12 42  1  0  0  0  0
 13 16  1  0  0  0  0
 13 18  1  0  0  0  0
 14 19  2  0  0  0  0
 15 20  1  0  0  0  0
 16 43  1  0  0  0  0
 16 44  1  0  0  0  0
 17 20  2  0  0  0  0
 17 21  1  0  0  0  0
 18 22  2  0  0  0  0
 18 45  1  0  0  0  0
 19 22  1  0  0  0  0
 19 23  1  0  0  0  0
 20 24  1  0  0  0  0
 21  2  1  0  0  0  0
 21  4  1  1  0  0  0
 21 25  1  0  0  0  0
 22 26  1  0  0  0  0
 23 27  2  0  0  0  0
 24 28  1  0  0  0  0
 24 46  1  0  0  0  0
 24 47  1  0  0  0  0
 25 28  1  0  0  0  0
 26 29  2  0  0  0  0
 27 29  1  0  0  0  0
 27 48  1  0  0  0  0
 29 49  1  0  0  0  0
M  END
>  <Mol_ID>
7402

>  <Formula>
C22H20N2O5

>  <MolWeight>
392.4046

>  <Cat>
E4495

>  <Name>
12-Ethyl-9-hydroxycamptothecin

>  <Target>
Topoisomerase

>  <Form>
Free base

>  <CAS>
119577-28-5

>  <URL>
https://www.selleckchem.com/products/12-ethyl-9-hydroxycamptothecin.html

$$$$
