12-Hydroxydodecanoic acid
 OpenBabel08302521293D

 39 38  0  0  0  0  0  0  0  0999 V2000
   -3.1472    3.3306   -0.4321 O   0  0  0  0  0  0  0  0  0  0  0  0
   10.5354    3.0771    8.3309 O   0  0  0  0  0  0  0  0  0  0  0  0
    8.4917    2.9089    9.2594 O   0  0  0  0  0  0  0  0  0  0  0  0
    2.9894    3.1778    3.8597 C   0  0  0  0  0  0  0  0  0  0  0  0
    4.5233    3.2372    3.8963 C   0  0  0  0  0  0  0  0  0  0  0  0
    2.4465    3.2875    2.4270 C   0  0  0  0  0  0  0  0  0  0  0  0
    5.0711    3.1264    5.3259 C   0  0  0  0  0  0  0  0  0  0  0  0
    0.9130    3.2275    2.3962 C   0  0  0  0  0  0  0  0  0  0  0  0
    6.6048    3.1871    5.3586 C   0  0  0  0  0  0  0  0  0  0  0  0
    0.3631    3.3352    0.9683 C   0  0  0  0  0  0  0  0  0  0  0  0
    7.1424    3.0761    6.7893 C   0  0  0  0  0  0  0  0  0  0  0  0
   -1.1662    3.2672    0.9458 C   0  0  0  0  0  0  0  0  0  0  0  0
    8.6716    3.1310    6.8421 C   0  0  0  0  0  0  0  0  0  0  0  0
   -1.7265    3.3907   -0.4672 C   0  0  0  0  0  0  0  0  0  0  0  0
    9.1844    3.0259    8.2625 C   0  0  0  0  0  0  0  0  0  0  0  0
   -3.3964    2.4560   -0.0874 H   0  0  0  0  0  0  0  0  0  0  0  0
   10.9736    3.1731    7.4646 H   0  0  0  0  0  0  0  0  0  0  0  0
    2.5793    3.9916    4.4698 H   0  0  0  0  0  0  0  0  0  0  0  0
    2.6510    2.2360    4.3089 H   0  0  0  0  0  0  0  0  0  0  0  0
    4.9347    2.4241    3.2861 H   0  0  0  0  0  0  0  0  0  0  0  0
    4.8629    4.1796    3.4496 H   0  0  0  0  0  0  0  0  0  0  0  0
    2.8556    2.4723    1.8197 H   0  0  0  0  0  0  0  0  0  0  0  0
    2.7846    4.2284    1.9802 H   0  0  0  0  0  0  0  0  0  0  0  0
    4.6608    3.9387    5.9380 H   0  0  0  0  0  0  0  0  0  0  0  0
    4.7342    2.1834    5.7734 H   0  0  0  0  0  0  0  0  0  0  0  0
    0.5034    4.0422    3.0058 H   0  0  0  0  0  0  0  0  0  0  0  0
    0.5748    2.2862    2.8462 H   0  0  0  0  0  0  0  0  0  0  0  0
    7.0170    2.3739    4.7491 H   0  0  0  0  0  0  0  0  0  0  0  0
    6.9440    4.1301    4.9130 H   0  0  0  0  0  0  0  0  0  0  0  0
    0.7725    2.5236    0.3547 H   0  0  0  0  0  0  0  0  0  0  0  0
    0.6936    4.2792    0.5183 H   0  0  0  0  0  0  0  0  0  0  0  0
    6.7283    3.8874    7.4008 H   0  0  0  0  0  0  0  0  0  0  0  0
    6.7981    2.1364    7.2385 H   0  0  0  0  0  0  0  0  0  0  0  0
   -1.5909    4.0631    1.5701 H   0  0  0  0  0  0  0  0  0  0  0  0
   -1.5087    2.3240    1.3893 H   0  0  0  0  0  0  0  0  0  0  0  0
    9.0936    2.3007    6.2652 H   0  0  0  0  0  0  0  0  0  0  0  0
    9.0255    4.0779    6.4199 H   0  0  0  0  0  0  0  0  0  0  0  0
   -1.3631    2.5870   -1.1156 H   0  0  0  0  0  0  0  0  0  0  0  0
   -1.4447    4.3479   -0.9165 H   0  0  0  0  0  0  0  0  0  0  0  0
  1 14  1  0  0  0  0
  1 16  1  0  0  0  0
  2 15  1  0  0  0  0
  2 17  1  0  0  0  0
  3 15  2  0  0  0  0
  4  5  1  0  0  0  0
  4  6  1  0  0  0  0
  4 18  1  0  0  0  0
  4 19  1  0  0  0  0
  5  7  1  0  0  0  0
  5 20  1  0  0  0  0
  5 21  1  0  0  0  0
  6  8  1  0  0  0  0
  6 22  1  0  0  0  0
  6 23  1  0  0  0  0
  7  9  1  0  0  0  0
  7 24  1  0  0  0  0
  7 25  1  0  0  0  0
  8 10  1  0  0  0  0
  8 26  1  0  0  0  0
  8 27  1  0  0  0  0
  9 11  1  0  0  0  0
  9 28  1  0  0  0  0
  9 29  1  0  0  0  0
 10 12  1  0  0  0  0
 10 30  1  0  0  0  0
 10 31  1  0  0  0  0
 11 13  1  0  0  0  0
 11 32  1  0  0  0  0
 11 33  1  0  0  0  0
 12 14  1  0  0  0  0
 12 34  1  0  0  0  0
 12 35  1  0  0  0  0
 13 15  1  0  0  0  0
 13 36  1  0  0  0  0
 13 37  1  0  0  0  0
 14 38  1  0  0  0  0
 14 39  1  0  0  0  0
M  END
>  <Mol_ID>
5443

>  <Formula>
C12H24O3

>  <MolWeight>
216.31716

>  <Cat>
S3089

>  <Name>
12-Hydroxydodecanoic acid

>  <Synonyms>
G12

>  <Target>
Others

>  <Form>
Free Base

>  <CAS>
505-95-3

>  <URL>
https://www.selleckchem.com/products/12-hydroxydodecanoic-acid.html

$$$$
