14-Deoxyandrographolide
 OpenBabel08302521493D

 54 56  0  0  1  0  0  0  0  0999 V2000
    1.4384   -0.4914   -1.6598 C   0  0  0  0  0  0  0  0  0  0  0  0
    3.9018   -2.1012   -0.9689 C   0  0  0  0  0  0  0  0  0  0  0  0
    5.0559   -1.3252   -1.6309 C   0  0  0  0  0  0  0  0  0  0  0  0
   -0.1830    2.1022   -0.7588 C   0  0  0  0  0  0  0  0  0  0  0  0
   -1.2245    1.1523   -0.9241 O   0  0  0  0  0  0  0  0  0  0  0  0
   -0.3775    2.2564    1.6885 C   0  0  0  0  0  0  0  0  0  0  0  0
    1.8688   -3.7991    0.2530 C   0  0  0  0  0  0  0  0  0  0  0  0
    1.4344    4.1825    0.4477 O   0  0  0  0  0  0  0  0  0  0  0  0
    6.8993    1.0046   -1.9609 O   0  0  0  0  0  0  0  0  0  0  0  0
    2.1823   -0.1122   -0.3528 C   0  0  1  0  0  0  0  0  0  0  0  0
    1.1977    0.3930    0.7799 C   0  0  1  0  0  0  0  0  0  0  0  0
    2.9396   -1.4540    0.1064 C   0  0  1  0  0  0  0  0  0  0  0  0
    3.2376    1.0045   -0.5892 C   0  0  0  0  0  0  0  0  0  0  0  0
    0.6018    1.8569    0.5534 C   0  0  1  0  0  0  0  0  0  0  0  0
    0.1757   -0.6830    1.1768 C   0  0  0  0  0  0  0  0  0  0  0  0
    1.8998   -2.4974    0.6036 C   0  0  0  0  0  0  0  0  0  0  0  0
    2.8746    2.4772   -0.4331 C   0  0  0  0  0  0  0  0  0  0  0  0
    1.8192    2.8153    0.6075 C   0  0  1  0  0  0  0  0  0  0  0  0
    0.8437   -2.0024    1.5690 C   0  0  0  0  0  0  0  0  0  0  0  0
    6.2457   -0.9955   -0.8100 C   0  0  0  0  0  0  0  0  0  0  0  0
    7.1136    0.1594   -1.1074 C   0  0  0  0  0  0  0  0  0  0  0  0
    6.8094   -1.6306    0.2179 C   0  0  0  0  0  0  0  0  0  0  0  0
    8.1913    0.1281   -0.2763 O   0  0  0  0  0  0  0  0  0  0  0  0
    8.0894   -1.0005    0.5863 C   0  0  0  0  0  0  0  0  0  0  0  0
    2.1356   -0.7901   -2.4463 H   0  0  0  0  0  0  0  0  0  0  0  0
    0.7453   -1.3266   -1.5088 H   0  0  0  0  0  0  0  0  0  0  0  0
    0.8653    0.3074   -2.1068 H   0  0  0  0  0  0  0  0  0  0  0  0
    4.3547   -2.9971   -0.5260 H   0  0  0  0  0  0  0  0  0  0  0  0
    3.2848   -2.4749   -1.7969 H   0  0  0  0  0  0  0  0  0  0  0  0
    5.4354   -1.9665   -2.4408 H   0  0  0  0  0  0  0  0  0  0  0  0
    4.6933   -0.4604   -2.1811 H   0  0  0  0  0  0  0  0  0  0  0  0
   -0.6462    3.0961   -0.7636 H   0  0  0  0  0  0  0  0  0  0  0  0
    0.4643    2.1047   -1.6383 H   0  0  0  0  0  0  0  0  0  0  0  0
   -1.2736    0.9241   -1.8677 H   0  0  0  0  0  0  0  0  0  0  0  0
    0.0947    2.1888    2.6727 H   0  0  0  0  0  0  0  0  0  0  0  0
   -0.7261    3.2899    1.5624 H   0  0  0  0  0  0  0  0  0  0  0  0
   -1.2766    1.6313    1.6906 H   0  0  0  0  0  0  0  0  0  0  0  0
    2.5829   -4.2605   -0.4189 H   0  0  0  0  0  0  0  0  0  0  0  0
    1.1131   -4.4741    0.6480 H   0  0  0  0  0  0  0  0  0  0  0  0
    1.4005    4.3968   -0.5000 H   0  0  0  0  0  0  0  0  0  0  0  0
    1.8275    0.4943    1.6817 H   0  0  0  0  0  0  0  0  0  0  0  0
    3.5572   -1.2085    0.9822 H   0  0  0  0  0  0  0  0  0  0  0  0
    3.6043    0.9381   -1.6123 H   0  0  0  0  0  0  0  0  0  0  0  0
    4.0891    0.8242    0.0782 H   0  0  0  0  0  0  0  0  0  0  0  0
   -0.5502   -0.8561    0.3777 H   0  0  0  0  0  0  0  0  0  0  0  0
   -0.3987   -0.3553    2.0515 H   0  0  0  0  0  0  0  0  0  0  0  0
    2.5860    2.8766   -1.4125 H   0  0  0  0  0  0  0  0  0  0  0  0
    3.7914    3.0314   -0.1838 H   0  0  0  0  0  0  0  0  0  0  0  0
    2.2768    2.7525    1.6033 H   0  0  0  0  0  0  0  0  0  0  0  0
    0.0437   -2.7480    1.6811 H   0  0  0  0  0  0  0  0  0  0  0  0
    1.3033   -1.9001    2.5587 H   0  0  0  0  0  0  0  0  0  0  0  0
    6.4418   -2.5414    0.6634 H   0  0  0  0  0  0  0  0  0  0  0  0
    8.9339   -1.6726    0.3998 H   0  0  0  0  0  0  0  0  0  0  0  0
    8.1075   -0.6662    1.6308 H   0  0  0  0  0  0  0  0  0  0  0  0
  1 25  1  0  0  0  0
  1 26  1  0  0  0  0
  1 27  1  0  0  0  0
  2  3  1  0  0  0  0
  2 28  1  0  0  0  0
  2 29  1  0  0  0  0
  3 20  1  0  0  0  0
  3 30  1  0  0  0  0
  3 31  1  0  0  0  0
  4  5  1  0  0  0  0
  4 32  1  0  0  0  0
  4 33  1  0  0  0  0
  5 34  1  0  0  0  0
  6 35  1  0  0  0  0
  6 36  1  0  0  0  0
  6 37  1  0  0  0  0
  7 16  2  0  0  0  0
  7 38  1  0  0  0  0
  7 39  1  0  0  0  0
  8 40  1  0  0  0  0
  9 21  2  0  0  0  0
 10  1  1  6  0  0  0
 10 11  1  0  0  0  0
 10 12  1  0  0  0  0
 10 13  1  0  0  0  0
 11 14  1  0  0  0  0
 11 15  1  0  0  0  0
 11 41  1  1  0  0  0
 12 16  1  0  0  0  0
 12 42  1  1  0  0  0
 12  2  1  0  0  0  0
 13 17  1  0  0  0  0
 13 43  1  0  0  0  0
 13 44  1  0  0  0  0
 14  4  1  6  0  0  0
 14  6  1  0  0  0  0
 14 18  1  0  0  0  0
 15 19  1  0  0  0  0
 15 45  1  0  0  0  0
 15 46  1  0  0  0  0
 16 19  1  0  0  0  0
 17 18  1  0  0  0  0
 17 47  1  0  0  0  0
 17 48  1  0  0  0  0
 18  8  1  0  0  0  0
 18 49  1  1  0  0  0
 19 50  1  0  0  0  0
 19 51  1  0  0  0  0
 20 21  1  0  0  0  0
 20 22  2  0  0  0  0
 21 23  1  0  0  0  0
 22 24  1  0  0  0  0
 22 52  1  0  0  0  0
 23 24  1  0  0  0  0
 24 53  1  0  0  0  0
 24 54  1  0  0  0  0
M  END
>  <Mol_ID>
9857

>  <Formula>
C20H30O4

>  <MolWeight>
334.4498

>  <Cat>
E2562

>  <Name>
14-Deoxyandrographolide

>  <Synonyms>
N/A

>  <Target>
TNF-alpha, Calcium Channel

>  <Form>
free base

>  <CAS>
4176-97-0

>  <URL>
https://www.selleckchem.com/products/14-deoxyandrographolide.html

$$$$
