1400W.cdx
 OpenBabel08302520433D

 28 28  0  0  0  0  0  0  0  0999 V2000
    1.3936   -0.2790    0.0323 C   0  0  0  0  0  0  0  0  0  0  0  0
    0.4949   -1.3490   -0.0687 C   0  0  0  0  0  0  0  0  0  0  0  0
   -0.8824   -1.1191   -0.0835 C   0  0  0  0  0  0  0  0  0  0  0  0
   -1.3791    0.1814    0.0169 C   0  0  0  0  0  0  0  0  0  0  0  0
   -0.5008    1.2668    0.1176 C   0  0  0  0  0  0  0  0  0  0  0  0
    0.8836    1.0273    0.0795 C   0  0  0  0  0  0  0  0  0  0  0  0
   -1.0226    2.6658    0.3361 C   0  0  0  0  0  0  0  0  0  0  0  0
   -0.4899    3.2214    1.5775 N   0  0  0  0  0  0  0  0  0  0  0  0
    2.8808   -0.5221    0.1485 C   0  0  0  0  0  0  0  0  0  0  0  0
    3.4985   -0.5813   -1.1547 N   0  0  0  0  0  0  0  0  0  0  0  0
    4.8225   -0.8078   -1.4016 C   0  0  0  0  0  0  0  0  0  0  0  0
    5.2699   -0.8804   -2.6097 N   0  0  0  0  0  0  0  0  0  0  0  0
    5.8123   -0.9787   -0.2727 C   0  0  0  0  0  0  0  0  0  0  0  0
    0.8620   -2.3725   -0.1041 H   0  0  0  0  0  0  0  0  0  0  0  0
   -1.5719   -1.9581   -0.1390 H   0  0  0  0  0  0  0  0  0  0  0  0
   -2.4552    0.3369    0.0417 H   0  0  0  0  0  0  0  0  0  0  0  0
    1.5655    1.8748    0.1543 H   0  0  0  0  0  0  0  0  0  0  0  0
   -0.7407    3.3013   -0.5105 H   0  0  0  0  0  0  0  0  0  0  0  0
   -2.1175    2.6618    0.3916 H   0  0  0  0  0  0  0  0  0  0  0  0
   -0.9630    4.0978    1.7865 H   0  0  0  0  0  0  0  0  0  0  0  0
   -0.7108    2.5834    2.3408 H   0  0  0  0  0  0  0  0  0  0  0  0
    3.3249    0.2795    0.7504 H   0  0  0  0  0  0  0  0  0  0  0  0
    3.0491   -1.4579    0.6941 H   0  0  0  0  0  0  0  0  0  0  0  0
    2.8708   -0.4783   -1.9411 H   0  0  0  0  0  0  0  0  0  0  0  0
    4.5035   -0.7420   -3.2674 H   0  0  0  0  0  0  0  0  0  0  0  0
    5.8134   -0.0831    0.3541 H   0  0  0  0  0  0  0  0  0  0  0  0
    5.5368   -1.8460    0.3338 H   0  0  0  0  0  0  0  0  0  0  0  0
    6.8172   -1.1316   -0.6648 H   0  0  0  0  0  0  0  0  0  0  0  0
  1  2  2  0  0  0  0
  1  9  1  0  0  0  0
  2  3  1  0  0  0  0
  2 14  1  0  0  0  0
  3  4  2  0  0  0  0
  3 15  1  0  0  0  0
  4  5  1  0  0  0  0
  4 16  1  0  0  0  0
  5  6  2  0  0  0  0
  5  7  1  0  0  0  0
  6  1  1  0  0  0  0
  6 17  1  0  0  0  0
  7  8  1  0  0  0  0
  7 18  1  0  0  0  0
  7 19  1  0  0  0  0
  8 20  1  0  0  0  0
  8 21  1  0  0  0  0
  9 10  1  0  0  0  0
  9 22  1  0  0  0  0
  9 23  1  0  0  0  0
 10 11  1  0  0  0  0
 10 24  1  0  0  0  0
 11 12  2  0  0  0  0
 11 13  1  0  0  0  0
 12 25  1  0  0  0  0
 13 26  1  0  0  0  0
 13 27  1  0  0  0  0
 13 28  1  0  0  0  0
M  END
>  <Mol_ID>
4098

>  <Formula>
C10H17Cl2N3

>  <MolWeight>
250.16808

>  <Cat>
S8337

>  <Name>
1400W 2HCl

>  <Synonyms>
N-(3-(Aminomethyl)benzyl)acetamidine

>  <Target>
NOS

>  <Form>
dihydrochloride

>  <CAS>
214358-33-5

>  <URL>
http://selleckchem.com/products/1400w.html

$$$$
