14028-44-5.cdx
 OpenBabel08302521393D

 38 41  0  0  0  0  0  0  0  0999 V2000
    0.6532   -2.0054   -0.5131 C   0  0  0  0  0  0  0  0  0  0  0  0
    1.5030   -0.8215   -0.1463 C   0  0  0  0  0  0  0  0  0  0  0  0
    1.3043   -3.1894   -0.8751 N   0  0  0  0  0  0  0  0  0  0  0  0
   -0.6525   -1.9887   -0.4566 N   0  0  0  0  0  0  0  0  0  0  0  0
    1.1705    0.4665   -0.5621 C   0  0  0  0  0  0  0  0  0  0  0  0
    2.6503   -1.0126    0.6382 C   0  0  0  0  0  0  0  0  0  0  0  0
    2.4625   -3.2113   -1.7856 C   0  0  0  0  0  0  0  0  0  0  0  0
    0.6544   -4.4994   -0.7085 C   0  0  0  0  0  0  0  0  0  0  0  0
   -1.4027   -0.8469   -0.1104 C   0  0  0  0  0  0  0  0  0  0  0  0
    0.0253    0.7319   -1.2705 O   0  0  0  0  0  0  0  0  0  0  0  0
    1.9990    1.5501   -0.2565 C   0  0  0  0  0  0  0  0  0  0  0  0
    3.4654    0.0732    0.9693 C   0  0  0  0  0  0  0  0  0  0  0  0
    2.1257   -3.9300   -3.1131 C   0  0  0  0  0  0  0  0  0  0  0  0
    0.3823   -5.1897   -2.0602 C   0  0  0  0  0  0  0  0  0  0  0  0
   -1.1095    0.4537   -0.5421 C   0  0  0  0  0  0  0  0  0  0  0  0
   -2.5707   -1.0333    0.6400 C   0  0  0  0  0  0  0  0  0  0  0  0
    3.1455    1.3524    0.5133 C   0  0  0  0  0  0  0  0  0  0  0  0
    1.5758   -5.2877   -2.9286 N   0  0  0  0  0  0  0  0  0  0  0  0
   -1.9518    1.5299   -0.2518 C   0  0  0  0  0  0  0  0  0  0  0  0
   -3.4113    0.0411    0.9547 C   0  0  0  0  0  0  0  0  0  0  0  0
   -3.1037    1.3243    0.5069 C   0  0  0  0  0  0  0  0  0  0  0  0
    2.9000   -2.0039    1.0070 H   0  0  0  0  0  0  0  0  0  0  0  0
    2.8208   -2.2038   -2.0221 H   0  0  0  0  0  0  0  0  0  0  0  0
    3.2842   -3.7395   -1.2867 H   0  0  0  0  0  0  0  0  0  0  0  0
    1.3276   -5.1299   -0.1140 H   0  0  0  0  0  0  0  0  0  0  0  0
   -0.2783   -4.4271   -0.1387 H   0  0  0  0  0  0  0  0  0  0  0  0
    1.7340    2.5479   -0.5946 H   0  0  0  0  0  0  0  0  0  0  0  0
    4.3476   -0.0768    1.5875 H   0  0  0  0  0  0  0  0  0  0  0  0
    1.4126   -3.3318   -3.6936 H   0  0  0  0  0  0  0  0  0  0  0  0
    3.0358   -4.0073   -3.7196 H   0  0  0  0  0  0  0  0  0  0  0  0
   -0.4121   -4.6624   -2.6010 H   0  0  0  0  0  0  0  0  0  0  0  0
    0.0150   -6.2053   -1.8718 H   0  0  0  0  0  0  0  0  0  0  0  0
   -2.8300   -2.0351    0.9742 H   0  0  0  0  0  0  0  0  0  0  0  0
    3.7787    2.1981    0.7705 H   0  0  0  0  0  0  0  0  0  0  0  0
    2.2739   -5.8566   -2.4505 H   0  0  0  0  0  0  0  0  0  0  0  0
   -1.7021    2.5273   -0.6017 H   0  0  0  0  0  0  0  0  0  0  0  0
   -4.3117   -0.1296    1.5398 H   0  0  0  0  0  0  0  0  0  0  0  0
   -3.7585    2.1585    0.7440 H   0  0  0  0  0  0  0  0  0  0  0  0
  1  2  1  0  0  0  0
  1  3  1  0  0  0  0
  1  4  2  0  0  0  0
  2  5  2  0  0  0  0
  2  6  1  0  0  0  0
  3  7  1  0  0  0  0
  3  8  1  0  0  0  0
  4  9  1  0  0  0  0
  5 10  1  0  0  0  0
  5 11  1  0  0  0  0
  6 12  2  0  0  0  0
  6 22  1  0  0  0  0
  7 13  1  0  0  0  0
  7 23  1  0  0  0  0
  7 24  1  0  0  0  0
  8 14  1  0  0  0  0
  8 25  1  0  0  0  0
  8 26  1  0  0  0  0
  9 15  2  0  0  0  0
  9 16  1  0  0  0  0
 10 15  1  0  0  0  0
 11 17  2  0  0  0  0
 11 27  1  0  0  0  0
 12 17  1  0  0  0  0
 12 28  1  0  0  0  0
 13 18  1  0  0  0  0
 13 29  1  0  0  0  0
 13 30  1  0  0  0  0
 14 18  1  0  0  0  0
 14 31  1  0  0  0  0
 14 32  1  0  0  0  0
 15 19  1  0  0  0  0
 16 20  2  0  0  0  0
 16 33  1  0  0  0  0
 17 34  1  0  0  0  0
 18 35  1  0  0  0  0
 19 21  2  0  0  0  0
 19 36  1  0  0  0  0
 20 21  1  0  0  0  0
 20 37  1  0  0  0  0
 21 38  1  0  0  0  0
M  END
>  <Mol_ID>
8152

>  <Formula>
C17H16ClN3O

>  <MolWeight>
313.78144

>  <Cat>
S4218

>  <Name>
Amoxapine

>  <Synonyms>
CL 67772,Asendin

>  <Target>
Amino acid transporter,GlyT

>  <Form>
free base

>  <CAS>
14028-44-5

>  <URL>
http://selleckchem.com/products/amoxapine.html

$$$$
