16a,17a-Epoxy-4-Pregnen-3,20-Dione
 OpenBabel08302521373D

 52 56  0  0  1  0  0  0  0  0999 V2000
    1.3325    2.9478   -1.2536 C   0  0  0  0  0  0  0  0  0  0  0  0
    2.6087    3.1514   -2.0049 C   0  0  0  0  0  0  0  0  0  0  0  0
    1.0073    1.8674   -0.7724 O   0  0  0  0  0  0  0  0  0  0  0  0
    0.4694    4.3446    1.3671 C   0  0  0  0  0  0  0  0  0  0  0  0
    1.4151   10.3127    0.2313 C   0  0  0  0  0  0  0  0  0  0  0  0
   -0.7993   13.4089    0.2939 O   0  0  0  0  0  0  0  0  0  0  0  0
    0.4430    4.1190   -1.1215 C   0  0  2  0  0  0  0  0  0  0  0  0
    0.5155    5.1214    0.0266 C   0  0  1  0  0  0  0  0  0  0  0  0
   -1.0285    3.9898   -1.4560 C   0  0  2  0  0  0  0  0  0  0  0  0
   -0.0977    4.6085   -2.3637 O   0  0  0  0  0  0  0  0  0  0  0  0
   -0.7867    5.9751   -0.2311 C   0  0  1  0  0  0  0  0  0  0  0  0
    1.7768    6.0467    0.0269 C   0  0  0  0  0  0  0  0  0  0  0  0
   -1.8351    4.9247   -0.5545 C   0  0  0  0  0  0  0  0  0  0  0  0
   -0.8712    7.1454    0.7377 C   0  0  1  0  0  0  0  0  0  0  0  0
    1.5750    7.3971    0.7829 C   0  0  0  0  0  0  0  0  0  0  0  0
    0.2862    8.0621    0.2296 C   0  0  2  0  0  0  0  0  0  0  0  0
   -2.1838    7.8655    0.9642 C   0  0  0  0  0  0  0  0  0  0  0  0
    0.0351    9.6005    0.2258 C   0  0  1  0  0  0  0  0  0  0  0  0
   -1.9169    9.0636    1.9001 C   0  0  0  0  0  0  0  0  0  0  0  0
   -0.9685   10.0682    1.2739 C   0  0  0  0  0  0  0  0  0  0  0  0
   -0.6620   10.0144   -1.1185 C   0  0  0  0  0  0  0  0  0  0  0  0
   -1.2800   11.3737    1.3778 C   0  0  0  0  0  0  0  0  0  0  0  0
   -1.0790   11.4912   -1.1615 C   0  0  0  0  0  0  0  0  0  0  0  0
   -0.9791   12.2027    0.1829 C   0  0  0  0  0  0  0  0  0  0  0  0
    2.9490    4.1804   -1.9328 H   0  0  0  0  0  0  0  0  0  0  0  0
    3.3817    2.5058   -1.5780 H   0  0  0  0  0  0  0  0  0  0  0  0
    2.4602    2.8877   -3.0589 H   0  0  0  0  0  0  0  0  0  0  0  0
   -0.0114    4.9003    2.1742 H   0  0  0  0  0  0  0  0  0  0  0  0
   -0.0760    3.4007    1.2638 H   0  0  0  0  0  0  0  0  0  0  0  0
    1.4766    4.0841    1.7123 H   0  0  0  0  0  0  0  0  0  0  0  0
    2.0951    9.8248   -0.4764 H   0  0  0  0  0  0  0  0  0  0  0  0
    1.8750   10.2935    1.2256 H   0  0  0  0  0  0  0  0  0  0  0  0
    1.3782   11.3530   -0.0989 H   0  0  0  0  0  0  0  0  0  0  0  0
   -1.4905    3.0668   -1.7494 H   0  0  0  0  0  0  0  0  0  0  0  0
   -0.7051    6.4696   -1.2136 H   0  0  0  0  0  0  0  0  0  0  0  0
    2.0520    6.2876   -1.0101 H   0  0  0  0  0  0  0  0  0  0  0  0
    2.6484    5.5311    0.4481 H   0  0  0  0  0  0  0  0  0  0  0  0
   -2.6952    5.3495   -1.0815 H   0  0  0  0  0  0  0  0  0  0  0  0
   -2.1821    4.3894    0.3326 H   0  0  0  0  0  0  0  0  0  0  0  0
   -0.6185    6.7903    1.7438 H   0  0  0  0  0  0  0  0  0  0  0  0
    2.4703    8.0094    0.6341 H   0  0  0  0  0  0  0  0  0  0  0  0
    1.4992    7.2280    1.8604 H   0  0  0  0  0  0  0  0  0  0  0  0
    0.4256    7.9116   -0.8505 H   0  0  0  0  0  0  0  0  0  0  0  0
   -2.8971    7.1890    1.4529 H   0  0  0  0  0  0  0  0  0  0  0  0
   -2.6515    8.1770    0.0259 H   0  0  0  0  0  0  0  0  0  0  0  0
   -1.5115    8.7222    2.8608 H   0  0  0  0  0  0  0  0  0  0  0  0
   -2.8808    9.5395    2.1084 H   0  0  0  0  0  0  0  0  0  0  0  0
   -0.0094    9.8030   -1.9759 H   0  0  0  0  0  0  0  0  0  0  0  0
   -1.5557    9.4042   -1.2983 H   0  0  0  0  0  0  0  0  0  0  0  0
   -1.9841   11.7959    2.0822 H   0  0  0  0  0  0  0  0  0  0  0  0
   -2.1209   11.5710   -1.4927 H   0  0  0  0  0  0  0  0  0  0  0  0
   -0.4554   12.0297   -1.8881 H   0  0  0  0  0  0  0  0  0  0  0  0
  1  2  1  0  0  0  0
  1  3  2  0  0  0  0
  2 25  1  0  0  0  0
  2 26  1  0  0  0  0
  2 27  1  0  0  0  0
  4 28  1  0  0  0  0
  4 29  1  0  0  0  0
  4 30  1  0  0  0  0
  5 31  1  0  0  0  0
  5 32  1  0  0  0  0
  5 33  1  0  0  0  0
  6 24  2  0  0  0  0
  7  1  1  1  0  0  0
  7  8  1  0  0  0  0
  7  9  1  0  0  0  0
  7 10  1  0  0  0  0
  8  4  1  1  0  0  0
  8 11  1  0  0  0  0
  8 12  1  0  0  0  0
  9 10  1  0  0  0  0
  9 13  1  0  0  0  0
  9 34  1  6  0  0  0
 11 13  1  0  0  0  0
 11 14  1  0  0  0  0
 11 35  1  6  0  0  0
 12 15  1  0  0  0  0
 12 36  1  0  0  0  0
 12 37  1  0  0  0  0
 13 38  1  0  0  0  0
 13 39  1  0  0  0  0
 14 16  1  0  0  0  0
 14 17  1  0  0  0  0
 14 40  1  1  0  0  0
 15 41  1  0  0  0  0
 15 42  1  0  0  0  0
 16 15  1  0  0  0  0
 16 18  1  0  0  0  0
 16 43  1  6  0  0  0
 17 19  1  0  0  0  0
 17 44  1  0  0  0  0
 17 45  1  0  0  0  0
 18  5  1  1  0  0  0
 18 20  1  0  0  0  0
 18 21  1  0  0  0  0
 19 20  1  0  0  0  0
 19 46  1  0  0  0  0
 19 47  1  0  0  0  0
 20 22  2  0  0  0  0
 21 23  1  0  0  0  0
 21 48  1  0  0  0  0
 21 49  1  0  0  0  0
 22 24  1  0  0  0  0
 22 50  1  0  0  0  0
 23 24  1  0  0  0  0
 23 51  1  0  0  0  0
 23 52  1  0  0  0  0
M  END
>  <Mol_ID>
7352

>  <Formula>
C21H28O3

>  <MolWeight>
328.44522

>  <Cat>
E4399

>  <Name>
16a,17a-Epoxy-4-Pregnen-3,20-Dione

>  <Synonyms>
16a,17a-Epoxy-4-Pregnen-3,20-Dione

>  <Target>
Others

>  <Form>
free base

>  <CAS>
1097-51-4

>  <URL>
https://www.selleckchem.com/products/16alpha-17alpha-epoxy-4-pregnen-3-20-dione.html

$$$$
