1A-116
 OpenBabel08302521343D

 38 39  0  0  0  0  0  0  0  0999 V2000
    0.8190   -0.1121    0.1140 N   0  0  0  0  0  0  0  0  0  0  0  0
    0.3073   -1.1531   -0.6183 C   0  0  0  0  0  0  0  0  0  0  0  0
   -1.0526   -1.0939   -0.7577 N   0  0  0  0  0  0  0  0  0  0  0  0
    1.0289   -2.0856   -1.1570 N   0  0  0  0  0  0  0  0  0  0  0  0
    1.7888    2.3940    1.4180 C   0  0  0  0  0  0  0  0  0  0  0  0
    0.7723    2.4234    0.5066 F   0  0  0  0  0  0  0  0  0  0  0  0
    1.2594    2.9313    2.5549 F   0  0  0  0  0  0  0  0  0  0  0  0
    2.7095    3.2987    0.9788 F   0  0  0  0  0  0  0  0  0  0  0  0
   -2.2796   -5.8836   -0.0154 C   0  0  0  0  0  0  0  0  0  0  0  0
   -5.1742   -2.8973   -2.8170 C   0  0  0  0  0  0  0  0  0  0  0  0
    1.9262   -0.1436    1.0009 C   0  0  0  0  0  0  0  0  0  0  0  0
    2.3759    1.0264    1.6549 C   0  0  0  0  0  0  0  0  0  0  0  0
    2.6427   -1.3300    1.2377 C   0  0  0  0  0  0  0  0  0  0  0  0
    3.4334    0.9452    2.5925 C   0  0  0  0  0  0  0  0  0  0  0  0
    3.6925   -1.3958    2.1574 C   0  0  0  0  0  0  0  0  0  0  0  0
    4.0741   -0.2616    2.8550 C   0  0  0  0  0  0  0  0  0  0  0  0
   -1.9430   -2.1776   -0.9127 C   0  0  0  0  0  0  0  0  0  0  0  0
   -1.6828   -3.4496   -0.3743 C   0  0  0  0  0  0  0  0  0  0  0  0
   -3.0891   -2.0106   -1.6989 C   0  0  0  0  0  0  0  0  0  0  0  0
   -2.5532   -4.5271   -0.6003 C   0  0  0  0  0  0  0  0  0  0  0  0
   -3.9633   -3.0781   -1.9502 C   0  0  0  0  0  0  0  0  0  0  0  0
   -3.6889   -4.3322   -1.3919 C   0  0  0  0  0  0  0  0  0  0  0  0
    0.1814    0.6501    0.3000 H   0  0  0  0  0  0  0  0  0  0  0  0
   -1.4782   -0.1828   -0.8476 H   0  0  0  0  0  0  0  0  0  0  0  0
    0.4067   -2.6953   -1.6945 H   0  0  0  0  0  0  0  0  0  0  0  0
   -3.1135   -6.1943    0.6225 H   0  0  0  0  0  0  0  0  0  0  0  0
   -2.1482   -6.6194   -0.8156 H   0  0  0  0  0  0  0  0  0  0  0  0
   -1.3718   -5.8852    0.5958 H   0  0  0  0  0  0  0  0  0  0  0  0
   -5.1263   -3.5729   -3.6769 H   0  0  0  0  0  0  0  0  0  0  0  0
   -6.0832   -3.1061   -2.2438 H   0  0  0  0  0  0  0  0  0  0  0  0
   -5.2440   -1.8736   -3.1992 H   0  0  0  0  0  0  0  0  0  0  0  0
    2.3816   -2.2510    0.7224 H   0  0  0  0  0  0  0  0  0  0  0  0
    3.7596    1.8391    3.1239 H   0  0  0  0  0  0  0  0  0  0  0  0
    4.1995   -2.3425    2.3247 H   0  0  0  0  0  0  0  0  0  0  0  0
    4.8752   -0.3141    3.5875 H   0  0  0  0  0  0  0  0  0  0  0  0
   -0.8023   -3.5992    0.2463 H   0  0  0  0  0  0  0  0  0  0  0  0
   -3.2953   -1.0426   -2.1483 H   0  0  0  0  0  0  0  0  0  0  0  0
   -4.3627   -5.1664   -1.5827 H   0  0  0  0  0  0  0  0  0  0  0  0
  1  2  1  0  0  0  0
  1 11  1  0  0  0  0
  1 23  1  0  0  0  0
  2  3  1  0  0  0  0
  2  4  2  0  0  0  0
  3 17  1  0  0  0  0
  3 24  1  0  0  0  0
  4 25  1  0  0  0  0
  5  6  1  0  0  0  0
  5  7  1  0  0  0  0
  5  8  1  0  0  0  0
  5 12  1  0  0  0  0
  9 20  1  0  0  0  0
  9 26  1  0  0  0  0
  9 27  1  0  0  0  0
  9 28  1  0  0  0  0
 10 21  1  0  0  0  0
 10 29  1  0  0  0  0
 10 30  1  0  0  0  0
 10 31  1  0  0  0  0
 11 12  2  0  0  0  0
 11 13  1  0  0  0  0
 12 14  1  0  0  0  0
 13 15  2  0  0  0  0
 13 32  1  0  0  0  0
 14 16  2  0  0  0  0
 14 33  1  0  0  0  0
 15 16  1  0  0  0  0
 15 34  1  0  0  0  0
 16 35  1  0  0  0  0
 17 18  2  0  0  0  0
 17 19  1  0  0  0  0
 18 20  1  0  0  0  0
 18 36  1  0  0  0  0
 19 21  2  0  0  0  0
 19 37  1  0  0  0  0
 20 22  2  0  0  0  0
 21 22  1  0  0  0  0
 22 38  1  0  0  0  0
M  END
>  <Mol_ID>
6455

>  <Formula>
C16H16F3N3

>  <MolWeight>
307.3135496

>  <Cat>
E2400

>  <Name>
1A-116

>  <Target>
Rho

>  <Form>
free base

>  <CAS>
1430208-73-3

>  <URL>
http://www.selleckchem.com/products/1a-116.html

$$$$
