1V209 (TLR7 agonist T7)
 OpenBabel08302521353D

 43 45  0  0  0  0  0  0  0  0999 V2000
    0.8827   -0.2914   -0.2914 O   0  0  0  0  0  0  0  0  0  0  0  0
   -3.9798   -5.2257   -0.3062 O   0  0  0  0  0  0  0  0  0  0  0  0
    4.2068    1.2184   -0.2174 O   0  0  0  0  0  0  0  0  0  0  0  0
   -0.5833   -4.2337   -7.8244 O   0  0  0  0  0  0  0  0  0  0  0  0
   -1.9428   -6.0208   -7.6063 O   0  0  0  0  0  0  0  0  0  0  0  0
   -2.6082   -3.4096   -0.9259 N   0  0  0  0  0  0  0  0  0  0  0  0
   -2.0505   -4.6462    0.8671 N   0  0  0  0  0  0  0  0  0  0  0  0
   -0.7807   -1.7752   -0.7698 N   0  0  0  0  0  0  0  0  0  0  0  0
    0.6886   -2.1798    1.1118 N   0  0  0  0  0  0  0  0  0  0  0  0
    0.3027   -3.9324    2.6376 N   0  0  0  0  0  0  0  0  0  0  0  0
   -3.3240   -2.8777   -2.0535 C   0  0  0  0  0  0  0  0  0  0  0  0
   -1.4414   -2.8589   -0.3794 C   0  0  0  0  0  0  0  0  0  0  0  0
   -1.1164   -3.6244    0.7168 C   0  0  0  0  0  0  0  0  0  0  0  0
   -3.0036   -4.5116   -0.1506 C   0  0  0  0  0  0  0  0  0  0  0  0
   -2.8308   -3.4079   -3.3825 C   0  0  0  0  0  0  0  0  0  0  0  0
   -0.0261   -3.2620    1.4569 C   0  0  0  0  0  0  0  0  0  0  0  0
   -2.8676   -4.7814   -3.6657 C   0  0  0  0  0  0  0  0  0  0  0  0
   -2.3803   -2.5271   -4.3767 C   0  0  0  0  0  0  0  0  0  0  0  0
    0.2785   -1.4899    0.0095 C   0  0  0  0  0  0  0  0  0  0  0  0
   -2.4289   -5.2660   -4.9005 C   0  0  0  0  0  0  0  0  0  0  0  0
   -1.9555   -3.0077   -5.6212 C   0  0  0  0  0  0  0  0  0  0  0  0
   -1.9560   -4.3842   -5.8787 C   0  0  0  0  0  0  0  0  0  0  0  0
    2.2801   -0.2563   -0.0041 C   0  0  0  0  0  0  0  0  0  0  0  0
    2.7999    1.1183   -0.4339 C   0  0  0  0  0  0  0  0  0  0  0  0
   -1.5196   -4.9603   -7.1782 C   0  0  0  0  0  0  0  0  0  0  0  0
    4.6944    2.5131   -0.5593 C   0  0  0  0  0  0  0  0  0  0  0  0
   -0.1929   -3.5053   -7.3101 H   0  0  0  0  0  0  0  0  0  0  0  0
   -2.1002   -5.3216    1.6123 H   0  0  0  0  0  0  0  0  0  0  0  0
    0.3199   -4.9402    2.5328 H   0  0  0  0  0  0  0  0  0  0  0  0
    1.1696   -3.5576    3.0088 H   0  0  0  0  0  0  0  0  0  0  0  0
   -4.3838   -3.1434   -1.9540 H   0  0  0  0  0  0  0  0  0  0  0  0
   -3.2702   -1.7830   -2.0202 H   0  0  0  0  0  0  0  0  0  0  0  0
   -3.2520   -5.4870   -2.9305 H   0  0  0  0  0  0  0  0  0  0  0  0
   -2.3741   -1.4536   -4.1925 H   0  0  0  0  0  0  0  0  0  0  0  0
   -2.4687   -6.3359   -5.1002 H   0  0  0  0  0  0  0  0  0  0  0  0
   -1.6637   -2.2882   -6.3810 H   0  0  0  0  0  0  0  0  0  0  0  0
    2.4816   -0.3990    1.0646 H   0  0  0  0  0  0  0  0  0  0  0  0
    2.8063   -1.0392   -0.5650 H   0  0  0  0  0  0  0  0  0  0  0  0
    2.5829    1.2752   -1.4977 H   0  0  0  0  0  0  0  0  0  0  0  0
    2.2775    1.9025    0.1280 H   0  0  0  0  0  0  0  0  0  0  0  0
    4.3990    2.7862   -1.5775 H   0  0  0  0  0  0  0  0  0  0  0  0
    4.3220    3.2585    0.1506 H   0  0  0  0  0  0  0  0  0  0  0  0
    5.7866    2.4984   -0.5074 H   0  0  0  0  0  0  0  0  0  0  0  0
  1 19  1  0  0  0  0
  1 23  1  0  0  0  0
  2 14  2  0  0  0  0
  3 24  1  0  0  0  0
  3 26  1  0  0  0  0
  4 25  1  0  0  0  0
  4 27  1  0  0  0  0
  5 25  2  0  0  0  0
  6 11  1  0  0  0  0
  6 12  1  0  0  0  0
  6 14  1  0  0  0  0
  7 13  1  0  0  0  0
  7 14  1  0  0  0  0
  7 28  1  0  0  0  0
  8 12  1  0  0  0  0
  8 19  2  0  0  0  0
  9 16  2  0  0  0  0
  9 19  1  0  0  0  0
 10 16  1  0  0  0  0
 10 29  1  0  0  0  0
 10 30  1  0  0  0  0
 11 15  1  0  0  0  0
 11 31  1  0  0  0  0
 11 32  1  0  0  0  0
 12 13  2  0  0  0  0
 13 16  1  0  0  0  0
 15 17  2  0  0  0  0
 15 18  1  0  0  0  0
 17 20  1  0  0  0  0
 17 33  1  0  0  0  0
 18 21  2  0  0  0  0
 18 34  1  0  0  0  0
 20 22  2  0  0  0  0
 20 35  1  0  0  0  0
 21 22  1  0  0  0  0
 21 36  1  0  0  0  0
 22 25  1  0  0  0  0
 23 24  1  0  0  0  0
 23 37  1  0  0  0  0
 23 38  1  0  0  0  0
 24 39  1  0  0  0  0
 24 40  1  0  0  0  0
 26 41  1  0  0  0  0
 26 42  1  0  0  0  0
 26 43  1  0  0  0  0
M  END
>  <Mol_ID>
6615

>  <Formula>
C16H17N5O5

>  <MolWeight>
359.33668

>  <Cat>
S0078

>  <Name>
1V209 (TLR7 agonist T7)

>  <Synonyms>
T7

>  <Target>
TLR

>  <Form>
Free base

>  <CAS>
1062444-54-5

>  <URL>
http://www.selleckchem.com/products/1v209-tlr7-agonist-t7.html

$$$$
