2',3'-Dideoxyadenosine
 OpenBabel08302521303D

 30 32  0  0  0  0  0  0  0  0999 V2000
    1.1161   -0.0572    0.0688 O   0  0  0  0  0  0  0  0  0  0  0  0
    2.1784    2.5630    0.4544 O   0  0  0  0  0  0  0  0  0  0  0  0
    0.3491   -1.7521    1.5157 N   0  0  0  0  0  0  0  0  0  0  0  0
    0.9429   -1.9644    3.6551 N   0  0  0  0  0  0  0  0  0  0  0  0
   -1.1792   -3.6423    1.3127 N   0  0  0  0  0  0  0  0  0  0  0  0
   -1.4532   -4.7859    3.4416 N   0  0  0  0  0  0  0  0  0  0  0  0
   -0.3994   -4.1105    5.4364 N   0  0  0  0  0  0  0  0  0  0  0  0
    0.2448   -1.2093    0.1715 C   0  0  1  0  0  0  0  0  0  0  0  0
   -1.1497   -0.7147   -0.1977 C   0  0  0  0  0  0  0  0  0  0  0  0
   -1.1196    0.7263    0.2462 C   0  0  0  0  0  0  0  0  0  0  0  0
    0.3051    1.1283   -0.0921 C   0  0  1  0  0  0  0  0  0  0  0  0
    0.8339    2.2462    0.8037 C   0  0  0  0  0  0  0  0  0  0  0  0
   -0.3295   -2.8465    1.9840 C   0  0  0  0  0  0  0  0  0  0  0  0
    1.1333   -1.2884    2.5389 C   0  0  0  0  0  0  0  0  0  0  0  0
    0.0212   -2.9348    3.3228 C   0  0  0  0  0  0  0  0  0  0  0  0
   -0.6027   -3.9444    4.0735 C   0  0  0  0  0  0  0  0  0  0  0  0
   -1.6887   -4.5911    2.1251 C   0  0  0  0  0  0  0  0  0  0  0  0
    2.6805    1.7289    0.5172 H   0  0  0  0  0  0  0  0  0  0  0  0
    0.4481   -3.6769    5.7865 H   0  0  0  0  0  0  0  0  0  0  0  0
   -0.6444   -5.0316    5.7690 H   0  0  0  0  0  0  0  0  0  0  0  0
    0.6034   -1.9857   -0.5131 H   0  0  0  0  0  0  0  0  0  0  0  0
   -1.2733   -0.7506   -1.2874 H   0  0  0  0  0  0  0  0  0  0  0  0
   -1.9750   -1.2753    0.2493 H   0  0  0  0  0  0  0  0  0  0  0  0
   -1.8654    1.3499   -0.2547 H   0  0  0  0  0  0  0  0  0  0  0  0
   -1.3002    0.7831    1.3265 H   0  0  0  0  0  0  0  0  0  0  0  0
    0.3902    1.4165   -1.1466 H   0  0  0  0  0  0  0  0  0  0  0  0
    0.2300    3.1516    0.6974 H   0  0  0  0  0  0  0  0  0  0  0  0
    0.8340    1.9449    1.8559 H   0  0  0  0  0  0  0  0  0  0  0  0
    1.8140   -0.4548    2.4265 H   0  0  0  0  0  0  0  0  0  0  0  0
   -2.3831   -5.2862    1.6648 H   0  0  0  0  0  0  0  0  0  0  0  0
  1  8  1  0  0  0  0
  1 11  1  0  0  0  0
  2 12  1  0  0  0  0
  2 18  1  0  0  0  0
  3 13  1  0  0  0  0
  3 14  1  0  0  0  0
  4 14  2  0  0  0  0
  4 15  1  0  0  0  0
  5 13  1  0  0  0  0
  5 17  2  0  0  0  0
  6 16  2  0  0  0  0
  6 17  1  0  0  0  0
  7 16  1  0  0  0  0
  7 19  1  0  0  0  0
  7 20  1  0  0  0  0
  8  3  1  0  0  0  0
  8  9  1  0  0  0  0
  8 21  1  6  0  0  0
  9 10  1  0  0  0  0
  9 22  1  0  0  0  0
  9 23  1  0  0  0  0
 10 11  1  0  0  0  0
 10 24  1  0  0  0  0
 10 25  1  0  0  0  0
 11 26  1  6  0  0  0
 11 12  1  0  0  0  0
 12 27  1  0  0  0  0
 12 28  1  0  0  0  0
 13 15  2  0  0  0  0
 14 29  1  0  0  0  0
 15 16  1  0  0  0  0
 17 30  1  0  0  0  0
M  END
>  <Mol_ID>
5615

>  <Formula>
C10H13N5O2

>  <MolWeight>
235.24252

>  <Cat>
S5979

>  <Name>
2',3'-Dideoxyadenosine

>  <Synonyms>
ddA, ddAdo

>  <Target>
HBV,HIV

>  <Form>
Free Base

>  <CAS>
4097-22-7

>  <URL>
http://www.selleckchem.com/products/2-3-dideoxyadenosine.html

$$$$
