2'-Deoxyadenosine 5'-monophosphate
 OpenBabel08302521293D

 36 38  0  0  0  0  0  0  0  0999 V2000
    3.2812   -1.7556    1.2360 P   0  0  0  0  0  0  0  0  0  0  0  0
   -0.2696   -3.9909   -0.2853 O   0  0  0  0  0  0  0  0  0  0  0  0
   -2.8768   -2.4635    0.4715 O   0  0  0  0  0  0  0  0  0  0  0  0
    1.9600   -2.2074    0.3534 O   0  0  0  0  0  0  0  0  0  0  0  0
    4.4017   -1.7368    0.0551 O   0  0  0  0  0  0  0  0  0  0  0  0
    3.6116   -3.4496    1.3546 O   0  0  0  0  0  0  0  0  0  0  0  0
    2.9855   -0.2395    1.1298 O   0  0  0  0  0  0  0  0  0  0  0  0
   -0.3434   -6.1377    0.6913 N   0  0  0  0  0  0  0  0  0  0  0  0
    1.3835   -7.5211    0.9025 N   0  0  0  0  0  0  0  0  0  0  0  0
   -2.1087   -7.4963    1.6567 N   0  0  0  0  0  0  0  0  0  0  0  0
   -1.2631   -9.6626    2.3783 N   0  0  0  0  0  0  0  0  0  0  0  0
    0.9669  -10.3586    2.1187 N   0  0  0  0  0  0  0  0  0  0  0  0
   -1.6986   -2.8175    1.2020 C   0  0  2  0  0  0  0  0  0  0  0  0
   -1.1167   -4.9596    0.3569 C   0  0  1  0  0  0  0  0  0  0  0  0
   -0.4460   -2.7018    0.3317 C   0  0  1  0  0  0  0  0  0  0  0  0
   -1.7670   -4.2838    1.5565 C   0  0  0  0  0  0  0  0  0  0  0  0
    0.7847   -2.3280    1.1608 C   0  0  0  0  0  0  0  0  0  0  0  0
   -0.8410   -7.2692    1.2714 C   0  0  0  0  0  0  0  0  0  0  0  0
    0.9999   -6.3270    0.4993 C   0  0  0  0  0  0  0  0  0  0  0  0
    0.2395   -8.1241    1.3800 C   0  0  0  0  0  0  0  0  0  0  0  0
   -0.0098   -9.3856    1.9460 C   0  0  0  0  0  0  0  0  0  0  0  0
   -2.2219   -8.7254    2.2077 C   0  0  0  0  0  0  0  0  0  0  0  0
   -2.7801   -2.7565   -0.4485 H   0  0  0  0  0  0  0  0  0  0  0  0
    4.2390   -0.9165   -0.4524 H   0  0  0  0  0  0  0  0  0  0  0  0
    4.5698   -3.5625    1.4938 H   0  0  0  0  0  0  0  0  0  0  0  0
    1.9089   -9.9847    2.1190 H   0  0  0  0  0  0  0  0  0  0  0  0
    0.7175  -11.0189    2.8426 H   0  0  0  0  0  0  0  0  0  0  0  0
   -1.6696   -2.1802    2.0907 H   0  0  0  0  0  0  0  0  0  0  0  0
   -1.8676   -5.2714   -0.3783 H   0  0  0  0  0  0  0  0  0  0  0  0
   -0.5711   -1.9823   -0.4841 H   0  0  0  0  0  0  0  0  0  0  0  0
   -1.2037   -4.4823    2.4757 H   0  0  0  0  0  0  0  0  0  0  0  0
   -2.7923   -4.6437    1.7069 H   0  0  0  0  0  0  0  0  0  0  0  0
    0.9778   -3.0749    1.9379 H   0  0  0  0  0  0  0  0  0  0  0  0
    0.6053   -1.3607    1.6451 H   0  0  0  0  0  0  0  0  0  0  0  0
    1.6486   -5.5787    0.0568 H   0  0  0  0  0  0  0  0  0  0  0  0
   -3.2130   -8.9922    2.5652 H   0  0  0  0  0  0  0  0  0  0  0  0
  1  4  1  0  0  0  0
  1  5  1  0  0  0  0
  1  6  1  0  0  0  0
  1  7  2  0  0  0  0
  2 14  1  0  0  0  0
  2 15  1  0  0  0  0
  3 23  1  0  0  0  0
  4 17  1  0  0  0  0
  5 24  1  0  0  0  0
  6 25  1  0  0  0  0
  8 18  1  0  0  0  0
  8 19  1  0  0  0  0
  9 19  2  0  0  0  0
  9 20  1  0  0  0  0
 10 18  1  0  0  0  0
 10 22  2  0  0  0  0
 11 21  2  0  0  0  0
 11 22  1  0  0  0  0
 12 21  1  0  0  0  0
 12 26  1  0  0  0  0
 12 27  1  0  0  0  0
 13  3  1  0  0  0  0
 13 15  1  0  0  0  0
 13 16  1  0  0  0  0
 13 28  1  1  0  0  0
 14 16  1  0  0  0  0
 14 29  1  6  0  0  0
 14  8  1  0  0  0  0
 15 17  1  0  0  0  0
 15 30  1  6  0  0  0
 16 31  1  0  0  0  0
 16 32  1  0  0  0  0
 17 33  1  0  0  0  0
 17 34  1  0  0  0  0
 18 20  2  0  0  0  0
 19 35  1  0  0  0  0
 20 21  1  0  0  0  0
 22 36  1  0  0  0  0
M  END
>  <Mol_ID>
5473

>  <Formula>
C10H14N5O6P

>  <MolWeight>
331.221821

>  <Cat>
S3248

>  <Name>
2'-Deoxyadenosine 5'-monophosphate

>  <Synonyms>
5'-dAMP

>  <Target>
Others

>  <Form>
Free Base

>  <CAS>
653-63-4

>  <URL>
https://www.selleckchem.com/products/2-deoxyadenosine-5-monophosphate.html

$$$$
