2'-Deoxyuridine 5'-monophosphate disodium salt
 OpenBabel08302521293D

 31 32  0  0  0  0  0  0  0  0999 V2000
   -0.4566   -1.4066    0.2316 C   0  0  0  0  0  0  0  0  0  0  0  0
   -0.6072   -0.5651   -0.9629 C   0  0  0  0  0  0  0  0  0  0  0  0
    0.0210    0.6128   -0.9963 C   0  0  0  0  0  0  0  0  0  0  0  0
    0.8245    1.0617    0.0396 N   0  0  0  0  0  0  0  0  0  0  0  0
    1.0409    0.2594    1.1618 C   0  0  0  0  0  0  0  0  0  0  0  0
    0.2474   -0.8587    1.2537 N   0  0  0  0  0  0  0  0  0  0  0  0
   -0.8810   -2.5594    0.2429 O   0  0  0  0  0  0  0  0  0  0  0  0
    1.9309    0.4174    1.9970 O   0  0  0  0  0  0  0  0  0  0  0  0
    1.5685    2.3221   -0.0242 C   0  0  1  0  0  0  0  0  0  0  0  0
    1.3367    3.2395   -1.2232 C   0  0  0  0  0  0  0  0  0  0  0  0
    1.4462    4.6272   -0.6357 C   0  0  1  0  0  0  0  0  0  0  0  0
    0.9761    4.4553    0.8149 C   0  0  2  0  0  0  0  0  0  0  0  0
    1.3328    3.0977    1.1589 O   0  0  0  0  0  0  0  0  0  0  0  0
    2.8285    5.0110   -0.7221 O   0  0  0  0  0  0  0  0  0  0  0  0
   -0.5275    4.6924    0.9818 C   0  0  0  0  0  0  0  0  0  0  0  0
   -0.9372    4.6448    2.3676 O   0  0  0  0  0  0  0  0  0  0  0  0
   -2.6250    4.9382    2.6087 P   0  0  0  0  0  0  0  0  0  0  0  0
   -2.3410    6.3490    2.0420 O   0  5  0  0  0  0  0  0  0  0  0  0
   -2.8621    3.7054    1.7050 O   0  5  0  0  0  0  0  0  0  0  0  0
   -4.1356    5.2008    2.8245 O   0  0  0  0  0  0  0  0  0  0  0  0
   -1.2154   -0.9345   -1.7753 H   0  0  0  0  0  0  0  0  0  0  0  0
   -0.0838    1.2224   -1.8820 H   0  0  0  0  0  0  0  0  0  0  0  0
    0.3993   -1.4298    2.0623 H   0  0  0  0  0  0  0  0  0  0  0  0
    2.6328    2.0507    0.0133 H   0  0  0  0  0  0  0  0  0  0  0  0
    0.3407    3.1416   -1.6583 H   0  0  0  0  0  0  0  0  0  0  0  0
    2.0734    3.0330   -2.0099 H   0  0  0  0  0  0  0  0  0  0  0  0
    0.8697    5.3622   -1.2071 H   0  0  0  0  0  0  0  0  0  0  0  0
    1.5292    5.1140    1.4925 H   0  0  0  0  0  0  0  0  0  0  0  0
    3.2729    4.6278    0.0566 H   0  0  0  0  0  0  0  0  0  0  0  0
   -0.7543    5.6807    0.5685 H   0  0  0  0  0  0  0  0  0  0  0  0
   -1.0670    3.9402    0.3998 H   0  0  0  0  0  0  0  0  0  0  0  0
  1  2  1  0  0  0  0
  1  7  2  0  0  0  0
  2  3  2  0  0  0  0
  2 21  1  0  0  0  0
  3  4  1  0  0  0  0
  3 22  1  0  0  0  0
  4  5  1  0  0  0  0
  5  6  1  0  0  0  0
  5  8  2  0  0  0  0
  6  1  1  0  0  0  0
  6 23  1  0  0  0  0
  9  4  1  0  0  0  0
  9 10  1  0  0  0  0
  9 24  1  6  0  0  0
 10 11  1  0  0  0  0
 10 25  1  0  0  0  0
 10 26  1  0  0  0  0
 11 12  1  0  0  0  0
 11 14  1  0  0  0  0
 11 27  1  6  0  0  0
 12 13  1  0  0  0  0
 12 28  1  1  0  0  0
 12 15  1  0  0  0  0
 13  9  1  0  0  0  0
 14 29  1  0  0  0  0
 15 16  1  0  0  0  0
 15 30  1  0  0  0  0
 15 31  1  0  0  0  0
 16 17  1  0  0  0  0
 17 18  1  0  0  0  0
 17 19  1  0  0  0  0
 17 20  2  0  0  0  0
M  CHG  2  18  -1  19  -1
M  END
>  <Mol_ID>
5471

>  <Formula>
C9H11N2Na2O8P

>  <MolWeight>
352.145541

>  <Cat>
S3169

>  <Name>
2'-Deoxyuridine 5'-monophosphate disodium salt

>  <Synonyms>
dUMP

>  <Target>
Thymidylate Synthase

>  <Form>
Disodium salt

>  <CAS>
42155-08-8

>  <URL>
https://www.selleckchem.com/products/2-deoxyuridine-5-monophosphate-disodium-salt.html

$$$$
