2'-Deoxycytidine 5'-monophosphate
 OpenBabel08302521293D

 34 35  0  0  0  0  0  0  0  0999 V2000
    1.7616    3.1767    0.1895 P   0  0  0  0  0  0  0  0  0  0  0  0
   -1.1897    0.1597    1.7380 O   0  0  0  0  0  0  0  0  0  0  0  0
   -1.0589    0.0435    4.8230 O   0  0  0  0  0  0  0  0  0  0  0  0
    0.4291    2.5457    0.9418 O   0  0  0  0  0  0  0  0  0  0  0  0
   -0.7191   -3.9332    2.3324 O   0  0  0  0  0  0  0  0  0  0  0  0
    1.0095    4.0576   -0.9570 O   0  0  0  0  0  0  0  0  0  0  0  0
    1.5726    1.8482   -0.9023 O   0  0  0  0  0  0  0  0  0  0  0  0
    1.9308    4.3658    1.1667 O   0  0  0  0  0  0  0  0  0  0  0  0
   -0.8949   -2.0971    0.9709 N   0  0  0  0  0  0  0  0  0  0  0  0
   -0.9040   -4.3365    0.1164 N   0  0  0  0  0  0  0  0  0  0  0  0
   -1.2324   -4.7480   -2.1001 N   0  0  0  0  0  0  0  0  0  0  0  0
   -0.0491    0.1039    3.8139 C   0  0  2  0  0  0  0  0  0  0  0  0
   -0.4672    1.0107    2.6568 C   0  0  1  0  0  0  0  0  0  0  0  0
    0.0941   -1.2495    3.1510 C   0  0  0  0  0  0  0  0  0  0  0  0
   -1.0429   -1.2260    2.1366 C   0  0  1  0  0  0  0  0  0  0  0  0
    0.7659    1.6194    1.9778 C   0  0  0  0  0  0  0  0  0  0  0  0
   -1.0586   -1.6051   -0.3060 C   0  0  0  0  0  0  0  0  0  0  0  0
   -0.8263   -3.4827    1.1941 C   0  0  0  0  0  0  0  0  0  0  0  0
   -1.1497   -2.4125   -1.3605 C   0  0  0  0  0  0  0  0  0  0  0  0
   -1.0855   -3.8584   -1.0768 C   0  0  0  0  0  0  0  0  0  0  0  0
   -1.9349    0.1605    4.4142 H   0  0  0  0  0  0  0  0  0  0  0  0
    0.7213    4.8793   -0.5080 H   0  0  0  0  0  0  0  0  0  0  0  0
    0.7235    2.0456   -1.3454 H   0  0  0  0  0  0  0  0  0  0  0  0
   -1.0109   -4.4579   -3.0431 H   0  0  0  0  0  0  0  0  0  0  0  0
   -0.9525   -5.6947   -1.8661 H   0  0  0  0  0  0  0  0  0  0  0  0
    0.8717    0.4272    4.3078 H   0  0  0  0  0  0  0  0  0  0  0  0
   -1.1574    1.8020    2.9679 H   0  0  0  0  0  0  0  0  0  0  0  0
    1.0623   -1.3265    2.6429 H   0  0  0  0  0  0  0  0  0  0  0  0
    0.0068   -2.0780    3.8602 H   0  0  0  0  0  0  0  0  0  0  0  0
   -1.9793   -1.5154    2.6313 H   0  0  0  0  0  0  0  0  0  0  0  0
    1.3857    0.8322    1.5375 H   0  0  0  0  0  0  0  0  0  0  0  0
    1.3580    2.1603    2.7244 H   0  0  0  0  0  0  0  0  0  0  0  0
   -1.1367   -0.5310   -0.4323 H   0  0  0  0  0  0  0  0  0  0  0  0
   -1.3041   -2.0569   -2.3681 H   0  0  0  0  0  0  0  0  0  0  0  0
  1  4  1  0  0  0  0
  1  6  1  0  0  0  0
  1  7  1  0  0  0  0
  1  8  2  0  0  0  0
  2 13  1  0  0  0  0
  2 15  1  0  0  0  0
  3 21  1  0  0  0  0
  4 16  1  0  0  0  0
  5 18  2  0  0  0  0
  6 22  1  0  0  0  0
  7 23  1  0  0  0  0
  9 17  1  0  0  0  0
  9 18  1  0  0  0  0
 10 18  1  0  0  0  0
 10 20  2  0  0  0  0
 11 20  1  0  0  0  0
 11 24  1  0  0  0  0
 11 25  1  0  0  0  0
 12  3  1  0  0  0  0
 12 13  1  0  0  0  0
 12 14  1  0  0  0  0
 12 26  1  1  0  0  0
 13 16  1  0  0  0  0
 13 27  1  1  0  0  0
 14 15  1  0  0  0  0
 14 28  1  0  0  0  0
 14 29  1  0  0  0  0
 15 30  1  1  0  0  0
 15  9  1  0  0  0  0
 16 31  1  0  0  0  0
 16 32  1  0  0  0  0
 17 19  2  0  0  0  0
 17 33  1  0  0  0  0
 19 20  1  0  0  0  0
 19 34  1  0  0  0  0
M  END
>  <Mol_ID>
5474

>  <Formula>
C9H14N3O7P

>  <MolWeight>
307.197121

>  <Cat>
S3268

>  <Name>
2'-Deoxycytidine 5'-monophosphate

>  <Synonyms>
N/A

>  <Target>
Others

>  <Form>
Free Base

>  <CAS>
1032-65-1

>  <URL>
https://www.selleckchem.com/products/2-deoxycytidine-5-monophosphate.html

$$$$
