2'-Deoxy-5-Fluorocytidine
 OpenBabel08302521233D

 29 30  0  0  0  0  0  0  0  0999 V2000
    1.1931   -0.8673   -0.2856 C   0  0  2  0  0  0  0  0  0  0  0  0
    2.4287   -1.4618    0.2212 N   0  0  0  0  0  0  0  0  0  0  0  0
    1.2860    0.5746   -0.2980 O   0  0  0  0  0  0  0  0  0  0  0  0
   -0.0533   -1.2304    0.5210 C   0  0  0  0  0  0  0  0  0  0  0  0
    2.5271   -2.8620    0.2060 C   0  0  0  0  0  0  0  0  0  0  0  0
    3.5060   -0.6817    0.5991 C   0  0  0  0  0  0  0  0  0  0  0  0
    0.1434    1.1366    0.3869 C   0  0  1  0  0  0  0  0  0  0  0  0
   -0.8912    0.0240    0.4634 C   0  0  1  0  0  0  0  0  0  0  0  0
    3.6868   -3.4537    0.6579 N   0  0  0  0  0  0  0  0  0  0  0  0
    1.5905   -3.5515   -0.1928 O   0  0  0  0  0  0  0  0  0  0  0  0
    4.6378   -1.2429    1.0030 C   0  0  0  0  0  0  0  0  0  0  0  0
    0.5812    1.6235    1.7731 C   0  0  0  0  0  0  0  0  0  0  0  0
   -1.7075   -0.0003   -0.7085 O   0  0  0  0  0  0  0  0  0  0  0  0
    4.6964   -2.7178    1.0214 C   0  0  0  0  0  0  0  0  0  0  0  0
    5.7227   -0.5545    1.3935 F   0  0  0  0  0  0  0  0  0  0  0  0
    1.5652    2.6498    1.6582 O   0  0  0  0  0  0  0  0  0  0  0  0
    5.8314   -3.3622    1.4408 N   0  0  0  0  0  0  0  0  0  0  0  0
    1.0724   -1.1869   -1.3292 H   0  0  0  0  0  0  0  0  0  0  0  0
    0.2127   -1.4614    1.5585 H   0  0  0  0  0  0  0  0  0  0  0  0
   -0.5649   -2.1024    0.0987 H   0  0  0  0  0  0  0  0  0  0  0  0
    3.4199    0.3943    0.5505 H   0  0  0  0  0  0  0  0  0  0  0  0
   -0.1975    1.9856   -0.2157 H   0  0  0  0  0  0  0  0  0  0  0  0
   -1.5640    0.1177    1.3206 H   0  0  0  0  0  0  0  0  0  0  0  0
   -0.2701    2.0407    2.3192 H   0  0  0  0  0  0  0  0  0  0  0  0
    1.0210    0.8181    2.3684 H   0  0  0  0  0  0  0  0  0  0  0  0
   -1.1523    0.1623   -1.4902 H   0  0  0  0  0  0  0  0  0  0  0  0
    2.2656    2.3038    1.0770 H   0  0  0  0  0  0  0  0  0  0  0  0
    6.4541   -2.8573    2.0603 H   0  0  0  0  0  0  0  0  0  0  0  0
    5.6931   -4.3381    1.6686 H   0  0  0  0  0  0  0  0  0  0  0  0
  1  3  1  0  0  0  0
  1  4  1  0  0  0  0
  1 18  1  6  0  0  0
  1  2  1  0  0  0  0
  2  5  1  0  0  0  0
  2  6  1  0  0  0  0
  3  7  1  0  0  0  0
  4  8  1  0  0  0  0
  4 19  1  0  0  0  0
  4 20  1  0  0  0  0
  5  9  1  0  0  0  0
  5 10  2  0  0  0  0
  6 11  2  0  0  0  0
  6 21  1  0  0  0  0
  7  8  1  0  0  0  0
  7 22  1  6  0  0  0
  7 12  1  0  0  0  0
  8 13  1  0  0  0  0
  8 23  1  1  0  0  0
  9 14  2  0  0  0  0
 11 15  1  0  0  0  0
 11 14  1  0  0  0  0
 12 16  1  0  0  0  0
 12 24  1  0  0  0  0
 12 25  1  0  0  0  0
 13 26  1  0  0  0  0
 14 17  1  0  0  0  0
 16 27  1  0  0  0  0
 17 28  1  0  0  0  0
 17 29  1  0  0  0  0
M  END
>  <Mol_ID>
4893

>  <Formula>
C9H12FN3O4

>  <MolWeight>
245.2076832

>  <Cat>
S2477

>  <Name>
2'-Deoxy-5-Fluorocytidine

>  <Synonyms>
5-fluoro-2(')-deoxycytidine, FCdR

>  <Target>
DNA Methyltransferase

>  <Form>
Free Base

>  <CAS>
10356-76-0

>  <URL>
http://www.selleckchem.com/products/2-feoxy-5-fluorocytidine.html

$$$$
