2,2,2-Trichloroethanol
 OpenBabel08302521363D

  9  8  0  0  0  0  0  0  0  0999 V2000
    1.0200    0.0748   -0.0726 C   0  0  0  0  0  0  0  0  0  0  0  0
    0.5242    0.4960   -1.4403 C   0  0  0  0  0  0  0  0  0  0  0  0
    0.9961   -0.4094   -2.4273 O   0  0  0  0  0  0  0  0  0  0  0  0
    0.6768   -0.9372    0.1664 H   0  0  0  0  0  0  0  0  0  0  0  0
    0.6621    0.7609    0.7001 H   0  0  0  0  0  0  0  0  0  0  0  0
    2.1145    0.0543   -0.0465 H   0  0  0  0  0  0  0  0  0  0  0  0
   -0.5693    0.4926   -1.4688 H   0  0  0  0  0  0  0  0  0  0  0  0
    0.8730    1.5022   -1.6913 H   0  0  0  0  0  0  0  0  0  0  0  0
    1.9682   -0.3937   -2.3988 H   0  0  0  0  0  0  0  0  0  0  0  0
  1  2  1  0  0  0  0
  1  4  1  0  0  0  0
  1  5  1  0  0  0  0
  1  6  1  0  0  0  0
  2  3  1  0  0  0  0
  2  7  1  0  0  0  0
  2  8  1  0  0  0  0
  3  9  1  0  0  0  0
M  END
>  <Mol_ID>
7087

>  <Formula>
C2H3Cl3O

>  <MolWeight>
149.40362

>  <Cat>
E4102

>  <Name>
2,2,2-Trichloroethanol

>  <Synonyms>
2,2,2-Trichloroethanol

>  <Target>
Potassium Channel

>  <Form>
Free base

>  <CAS>
115-20-8

>  <URL>
https://www.selleckchem.com/products/2-2-2-trichloroethanol.html

$$$$
