2,2-Diphenyl-1-picrylhydrazyl
 OpenBabel08302521383D

 41 43  0  0  0  0  0  0  0  0999 V2000
    1.1222    0.0384    0.0234 N   0  0  0  0  0  2  0  0  0  0  0  0
    0.3191    1.2929   -0.1189 N   0  0  0  0  0  0  0  0  0  0  0  0
    2.5630    1.5214   -2.2957 N   0  3  0  0  0  0  0  0  0  0  0  0
    1.6942    1.0675   -3.0573 O   0  5  0  0  0  0  0  0  0  0  0  0
    3.1638    2.5977   -2.4775 O   0  0  0  0  0  0  0  0  0  0  0  0
    2.3340   -2.4016    0.7683 N   0  3  0  0  0  0  0  0  0  0  0  0
    2.2151   -2.2229    1.9878 O   0  5  0  0  0  0  0  0  0  0  0  0
    2.0783   -3.4668    0.1738 O   0  0  0  0  0  0  0  0  0  0  0  0
    6.3847   -1.2848   -1.7291 N   0  3  0  0  0  0  0  0  0  0  0  0
    7.0171   -0.4577   -2.4032 O   0  5  0  0  0  0  0  0  0  0  0  0
    6.7781   -2.4348   -1.4877 O   0  0  0  0  0  0  0  0  0  0  0  0
    2.3872   -0.1709   -0.4167 C   0  0  0  0  0  0  0  0  0  0  0  0
    3.1555    0.5966   -1.3211 C   0  0  0  0  0  0  0  0  0  0  0  0
    3.0398   -1.3747   -0.0095 C   0  0  0  0  0  0  0  0  0  0  0  0
    4.5103    0.3125   -1.6222 C   0  0  0  0  0  0  0  0  0  0  0  0
    4.3410   -1.7549   -0.4090 C   0  0  0  0  0  0  0  0  0  0  0  0
    5.0754   -0.8837   -1.2018 C   0  0  0  0  0  0  0  0  0  0  0  0
    0.8517    2.6243   -0.1875 C   0  0  0  0  0  0  0  0  0  0  0  0
    0.2667    3.5535   -1.0811 C   0  0  0  0  0  0  0  0  0  0  0  0
    1.9420    3.0515    0.5802 C   0  0  0  0  0  0  0  0  0  0  0  0
    0.7466    4.8521   -1.2164 C   0  0  0  0  0  0  0  0  0  0  0  0
    2.4394    4.3508    0.4328 C   0  0  0  0  0  0  0  0  0  0  0  0
    1.8447    5.2508   -0.4654 C   0  0  0  0  0  0  0  0  0  0  0  0
   -1.1210    1.1086   -0.1046 C   0  0  0  0  0  0  0  0  0  0  0  0
   -1.9890    2.0911    0.4154 C   0  0  0  0  0  0  0  0  0  0  0  0
   -1.7086   -0.0303   -0.6738 C   0  0  0  0  0  0  0  0  0  0  0  0
   -3.3782    1.9868    0.2859 C   0  0  0  0  0  0  0  0  0  0  0  0
   -3.0995   -0.1455   -0.7942 C   0  0  0  0  0  0  0  0  0  0  0  0
   -3.9330    0.8722   -0.3339 C   0  0  0  0  0  0  0  0  0  0  0  0
    5.0638    0.9833   -2.2782 H   0  0  0  0  0  0  0  0  0  0  0  0
    4.7333   -2.7313   -0.1303 H   0  0  0  0  0  0  0  0  0  0  0  0
   -0.5649    3.2313   -1.7063 H   0  0  0  0  0  0  0  0  0  0  0  0
    2.4021    2.3629    1.2759 H   0  0  0  0  0  0  0  0  0  0  0  0
    0.2791    5.5274   -1.9252 H   0  0  0  0  0  0  0  0  0  0  0  0
    3.3045    4.6662    1.0081 H   0  0  0  0  0  0  0  0  0  0  0  0
    2.2470    6.2491   -0.5895 H   0  0  0  0  0  0  0  0  0  0  0  0
   -1.5760    2.9649    0.9118 H   0  0  0  0  0  0  0  0  0  0  0  0
   -1.0710   -0.8133   -1.0735 H   0  0  0  0  0  0  0  0  0  0  0  0
   -4.0144    2.7851    0.6554 H   0  0  0  0  0  0  0  0  0  0  0  0
   -3.5213   -1.0238   -1.2721 H   0  0  0  0  0  0  0  0  0  0  0  0
   -5.0084    0.7966   -0.4596 H   0  0  0  0  0  0  0  0  0  0  0  0
  1  2  1  0  0  0  0
  1 12  1  0  0  0  0
  2 18  1  0  0  0  0
  2 24  1  0  0  0  0
  3  4  1  0  0  0  0
  3  5  2  0  0  0  0
  3 13  1  0  0  0  0
  6  7  1  0  0  0  0
  6  8  2  0  0  0  0
  6 14  1  0  0  0  0
  9 10  1  0  0  0  0
  9 11  2  0  0  0  0
  9 17  1  0  0  0  0
 12 13  2  0  0  0  0
 12 14  1  0  0  0  0
 13 15  1  0  0  0  0
 14 16  2  0  0  0  0
 15 17  2  0  0  0  0
 15 30  1  0  0  0  0
 16 17  1  0  0  0  0
 16 31  1  0  0  0  0
 18 19  2  0  0  0  0
 18 20  1  0  0  0  0
 19 21  1  0  0  0  0
 19 32  1  0  0  0  0
 20 22  2  0  0  0  0
 20 33  1  0  0  0  0
 21 23  2  0  0  0  0
 21 34  1  0  0  0  0
 22 23  1  0  0  0  0
 22 35  1  0  0  0  0
 23 36  1  0  0  0  0
 24 25  2  0  0  0  0
 24 26  1  0  0  0  0
 25 27  1  0  0  0  0
 25 37  1  0  0  0  0
 26 28  2  0  0  0  0
 26 38  1  0  0  0  0
 27 29  2  0  0  0  0
 27 39  1  0  0  0  0
 28 29  1  0  0  0  0
 28 40  1  0  0  0  0
 29 41  1  0  0  0  0
M  RAD  1   1   2
M  CHG  6   3   1   4  -1   6   1   7  -1   9   1  10  -1
M  END
>  <Mol_ID>
7607

>  <Formula>
C18H12N5O6 *

>  <MolWeight>
394.31778

>  <Cat>
E2925

>  <Name>
2,2-Diphenyl-1-picrylhydrazyl

>  <Synonyms>
DPPH

>  <Target>
Others

>  <Form>
picrylhydrazyl

>  <CAS>
1898-66-4

>  <URL>
https://www.selleckchem.com/products/2,2-diphenyl-1-picrylhydrazyl.html

$$$$
