2,4'-Dihydroxybenzophenone
 OpenBabel08302521223D

 26 27  0  0  0  0  0  0  0  0999 V2000
    0.1556   -1.2398    0.0569 C   0  0  0  0  0  0  0  0  0  0  0  0
    0.8450   -2.5602    0.0846 C   0  0  0  0  0  0  0  0  0  0  0  0
    0.8046   -0.1320   -0.5055 C   0  0  0  0  0  0  0  0  0  0  0  0
   -1.1304   -1.0747    0.5938 C   0  0  0  0  0  0  0  0  0  0  0  0
    0.0894   -3.8378    0.0295 C   0  0  0  0  0  0  0  0  0  0  0  0
    2.0734   -2.5871    0.1014 O   0  0  0  0  0  0  0  0  0  0  0  0
    0.1728    1.1098   -0.5533 C   0  0  0  0  0  0  0  0  0  0  0  0
    2.0611   -0.1994   -1.0451 O   0  0  0  0  0  0  0  0  0  0  0  0
   -1.7688    0.1660    0.5290 C   0  0  0  0  0  0  0  0  0  0  0  0
    0.5970   -4.9637    0.6889 C   0  0  0  0  0  0  0  0  0  0  0  0
   -1.0885   -3.9431   -0.7212 C   0  0  0  0  0  0  0  0  0  0  0  0
   -1.1153    1.2573   -0.0403 C   0  0  0  0  0  0  0  0  0  0  0  0
   -0.0885   -6.1833    0.6214 C   0  0  0  0  0  0  0  0  0  0  0  0
   -1.7755   -5.1547   -0.7779 C   0  0  0  0  0  0  0  0  0  0  0  0
   -1.2711   -6.2631   -0.1099 C   0  0  0  0  0  0  0  0  0  0  0  0
   -1.9741   -7.4254   -0.2098 O   0  0  0  0  0  0  0  0  0  0  0  0
   -1.6560   -1.9015    1.0662 H   0  0  0  0  0  0  0  0  0  0  0  0
    0.6885    1.9623   -0.9889 H   0  0  0  0  0  0  0  0  0  0  0  0
    2.4396   -1.0769   -0.8122 H   0  0  0  0  0  0  0  0  0  0  0  0
   -2.7741    0.2819    0.9278 H   0  0  0  0  0  0  0  0  0  0  0  0
    1.5239   -4.8991    1.2556 H   0  0  0  0  0  0  0  0  0  0  0  0
   -1.4799   -3.0974   -1.2790 H   0  0  0  0  0  0  0  0  0  0  0  0
   -1.6069    2.2267   -0.0799 H   0  0  0  0  0  0  0  0  0  0  0  0
    0.3153   -7.0505    1.1335 H   0  0  0  0  0  0  0  0  0  0  0  0
   -2.6940   -5.2341   -1.3517 H   0  0  0  0  0  0  0  0  0  0  0  0
   -1.4977   -8.1191    0.2766 H   0  0  0  0  0  0  0  0  0  0  0  0
  1  2  1  0  0  0  0
  1  3  2  0  0  0  0
  1  4  1  0  0  0  0
  2  5  1  0  0  0  0
  2  6  2  0  0  0  0
  3  7  1  0  0  0  0
  3  8  1  0  0  0  0
  4  9  2  0  0  0  0
  4 17  1  0  0  0  0
  5 10  2  0  0  0  0
  5 11  1  0  0  0  0
  7 12  2  0  0  0  0
  7 18  1  0  0  0  0
  8 19  1  0  0  0  0
  9 12  1  0  0  0  0
  9 20  1  0  0  0  0
 10 13  1  0  0  0  0
 10 21  1  0  0  0  0
 11 14  2  0  0  0  0
 11 22  1  0  0  0  0
 12 23  1  0  0  0  0
 13 15  2  0  0  0  0
 13 24  1  0  0  0  0
 14 15  1  0  0  0  0
 14 25  1  0  0  0  0
 15 16  1  0  0  0  0
 16 26  1  0  0  0  0
M  END
>  <Mol_ID>
4610

>  <Formula>
C13H10O3

>  <MolWeight>
214.2167

>  <Cat>
S9355

>  <Name>
2,4'-Dihydroxybenzophenone

>  <Synonyms>
N/A

>  <Target>
Others

>  <Form>
Free Base

>  <CAS>
606-12-2

>  <URL>
http://www.selleckchem.com/products/2-4-dihydroxybenzophenone.html

$$$$
