2,4,5-Trimethoxybenzoic acid
 OpenBabel08302521363D

 27 27  0  0  0  0  0  0  0  0999 V2000
    0.9892   -0.2591    0.0857 C   0  0  0  0  0  0  0  0  0  0  0  0
    0.6014   -1.3009   -0.6889 O   0  0  0  0  0  0  0  0  0  0  0  0
    0.1972    0.3735    0.7590 O   0  0  0  0  0  0  0  0  0  0  0  0
    2.5811    2.5030   -0.1629 O   0  0  0  0  0  0  0  0  0  0  0  0
    1.1914    2.7745   -0.2266 C   0  0  0  0  0  0  0  0  0  0  0  0
    5.2614   -2.3169    0.3119 O   0  0  0  0  0  0  0  0  0  0  0  0
    6.4847   -2.3827    1.0360 C   0  0  0  0  0  0  0  0  0  0  0  0
    6.6572    0.1896    0.1363 O   0  0  0  0  0  0  0  0  0  0  0  0
    7.3012    1.4574    0.0971 C   0  0  0  0  0  0  0  0  0  0  0  0
    2.4539   -0.0142    0.0610 C   0  0  0  0  0  0  0  0  0  0  0  0
    3.0716    1.2382   -0.0106 C   0  0  0  0  0  0  0  0  0  0  0  0
    3.2646   -1.1600    0.1886 C   0  0  0  0  0  0  0  0  0  0  0  0
    4.4882    1.2959    0.0365 C   0  0  0  0  0  0  0  0  0  0  0  0
    4.6627   -1.0875    0.2291 C   0  0  0  0  0  0  0  0  0  0  0  0
    5.2913    0.1561    0.1420 C   0  0  0  0  0  0  0  0  0  0  0  0
    1.3005   -1.7286   -1.2186 H   0  0  0  0  0  0  0  0  0  0  0  0
    0.6997    2.1967   -1.0108 H   0  0  0  0  0  0  0  0  0  0  0  0
    0.7303    2.6562    0.7553 H   0  0  0  0  0  0  0  0  0  0  0  0
    1.0878    3.8329   -0.4926 H   0  0  0  0  0  0  0  0  0  0  0  0
    7.3295   -2.1016    0.4009 H   0  0  0  0  0  0  0  0  0  0  0  0
    6.4519   -1.7841    1.9534 H   0  0  0  0  0  0  0  0  0  0  0  0
    6.6374   -3.4259    1.3290 H   0  0  0  0  0  0  0  0  0  0  0  0
    7.0724    1.9871   -0.8326 H   0  0  0  0  0  0  0  0  0  0  0  0
    7.0410    2.0607    0.9738 H   0  0  0  0  0  0  0  0  0  0  0  0
    8.3804    1.2828    0.1235 H   0  0  0  0  0  0  0  0  0  0  0  0
    2.8120   -2.1468    0.2995 H   0  0  0  0  0  0  0  0  0  0  0  0
    4.9351    2.2847   -0.0287 H   0  0  0  0  0  0  0  0  0  0  0  0
  1  2  1  0  0  0  0
  1  3  2  0  0  0  0
  1 10  1  0  0  0  0
  2 16  1  0  0  0  0
  4  5  1  0  0  0  0
  4 11  1  0  0  0  0
  5 17  1  0  0  0  0
  5 18  1  0  0  0  0
  5 19  1  0  0  0  0
  6  7  1  0  0  0  0
  6 14  1  0  0  0  0
  7 20  1  0  0  0  0
  7 21  1  0  0  0  0
  7 22  1  0  0  0  0
  8  9  1  0  0  0  0
  8 15  1  0  0  0  0
  9 23  1  0  0  0  0
  9 24  1  0  0  0  0
  9 25  1  0  0  0  0
 10 11  2  0  0  0  0
 10 12  1  0  0  0  0
 11 13  1  0  0  0  0
 12 14  2  0  0  0  0
 12 26  1  0  0  0  0
 13 15  2  0  0  0  0
 13 27  1  0  0  0  0
 14 15  1  0  0  0  0
M  END
>  <Mol_ID>
7252

>  <Formula>
C10H12O5

>  <MolWeight>
212.19928

>  <Cat>
E4266

>  <Name>
2,4,5-Trimethoxybenzoic acid

>  <Target>
Immunology & Inflammation related

>  <Form>
Free base

>  <CAS>
490-64-2

>  <URL>
https://www.selleckchem.com/products/2-4-5-trimethoxybenzoic-acid.html

$$$$
