2,4,6-Trimethylphenol
 OpenBabel08302521363D

 22 22  0  0  0  0  0  0  0  0999 V2000
    0.9382    0.0290   -0.1302 O   0  0  0  0  0  0  0  0  0  0  0  0
    1.7663   -2.2963    1.4947 C   0  0  0  0  0  0  0  0  0  0  0  0
   -1.3050    0.0214   -1.8694 C   0  0  0  0  0  0  0  0  0  0  0  0
   -1.9834   -4.7945   -0.7022 C   0  0  0  0  0  0  0  0  0  0  0  0
    0.2471   -1.1474   -0.2222 C   0  0  0  0  0  0  0  0  0  0  0  0
    0.6295   -2.2795    0.5114 C   0  0  0  0  0  0  0  0  0  0  0  0
   -0.8605   -1.1776   -1.0813 C   0  0  0  0  0  0  0  0  0  0  0  0
   -0.1047   -3.4674    0.3435 C   0  0  0  0  0  0  0  0  0  0  0  0
   -1.5744   -2.3765   -1.2249 C   0  0  0  0  0  0  0  0  0  0  0  0
   -1.2025   -3.5263   -0.5224 C   0  0  0  0  0  0  0  0  0  0  0  0
    1.8714   -0.1804    0.0298 H   0  0  0  0  0  0  0  0  0  0  0  0
    1.3976   -2.5877    2.4842 H   0  0  0  0  0  0  0  0  0  0  0  0
    2.5283   -3.0139    1.1732 H   0  0  0  0  0  0  0  0  0  0  0  0
    2.2511   -1.3242    1.6104 H   0  0  0  0  0  0  0  0  0  0  0  0
   -1.2467   -0.1950   -2.9415 H   0  0  0  0  0  0  0  0  0  0  0  0
   -2.3391    0.2749   -1.6122 H   0  0  0  0  0  0  0  0  0  0  0  0
   -0.6926    0.9070   -1.6776 H   0  0  0  0  0  0  0  0  0  0  0  0
   -3.0283   -4.6374   -0.4160 H   0  0  0  0  0  0  0  0  0  0  0  0
   -1.9415   -5.1166   -1.7477 H   0  0  0  0  0  0  0  0  0  0  0  0
   -1.5840   -5.6054   -0.0845 H   0  0  0  0  0  0  0  0  0  0  0  0
    0.1828   -4.3553    0.9044 H   0  0  0  0  0  0  0  0  0  0  0  0
   -2.4304   -2.4115   -1.8970 H   0  0  0  0  0  0  0  0  0  0  0  0
  1  5  1  0  0  0  0
  1 11  1  0  0  0  0
  2  6  1  0  0  0  0
  2 12  1  0  0  0  0
  2 13  1  0  0  0  0
  2 14  1  0  0  0  0
  3  7  1  0  0  0  0
  3 15  1  0  0  0  0
  3 16  1  0  0  0  0
  3 17  1  0  0  0  0
  4 10  1  0  0  0  0
  4 18  1  0  0  0  0
  4 19  1  0  0  0  0
  4 20  1  0  0  0  0
  5  6  2  0  0  0  0
  5  7  1  0  0  0  0
  6  8  1  0  0  0  0
  7  9  2  0  0  0  0
  8 10  2  0  0  0  0
  8 21  1  0  0  0  0
  9 10  1  0  0  0  0
  9 22  1  0  0  0  0
M  END
>  <Mol_ID>
7231

>  <Formula>
C9H12O

>  <MolWeight>
136.19098

>  <Cat>
E4238

>  <Name>
2,4,6-Trimethylphenol

>  <Synonyms>
Mesitol

>  <Target>
Others

>  <Form>
Free base

>  <CAS>
527-60-6

>  <URL>
https://www.selleckchem.com/products/2-4-6-trimethylphenol.html

$$$$
