2,4,6-Trihydroxybenzoic acid
 OpenBabel08302521363D

 18 18  0  0  0  0  0  0  0  0999 V2000
    1.0485   -0.1116    0.0253 C   0  0  0  0  0  0  0  0  0  0  0  0
    0.4150    0.9319   -0.5419 O   0  0  0  0  0  0  0  0  0  0  0  0
    0.4670   -1.0842    0.4856 O   0  0  0  0  0  0  0  0  0  0  0  0
    2.6946   -2.4702    0.0969 O   0  0  0  0  0  0  0  0  0  0  0  0
    2.5441    2.3733   -0.0410 O   0  0  0  0  0  0  0  0  0  0  0  0
    6.6830    0.0137   -0.1428 O   0  0  0  0  0  0  0  0  0  0  0  0
    2.5270   -0.0401   -0.0003 C   0  0  0  0  0  0  0  0  0  0  0  0
    3.2689   -1.2290    0.0261 C   0  0  0  0  0  0  0  0  0  0  0  0
    3.2158    1.1792   -0.0418 C   0  0  0  0  0  0  0  0  0  0  0  0
    4.6621   -1.1955   -0.0329 C   0  0  0  0  0  0  0  0  0  0  0  0
    4.6082    1.2250   -0.0996 C   0  0  0  0  0  0  0  0  0  0  0  0
    5.3204    0.0290   -0.0943 C   0  0  0  0  0  0  0  0  0  0  0  0
    1.0243    1.6082   -0.9128 H   0  0  0  0  0  0  0  0  0  0  0  0
    1.7331   -2.3699    0.2777 H   0  0  0  0  0  0  0  0  0  0  0  0
    2.2999    2.5513    0.8909 H   0  0  0  0  0  0  0  0  0  0  0  0
    7.0154    0.9252   -0.1877 H   0  0  0  0  0  0  0  0  0  0  0  0
    5.2303   -2.1224   -0.0254 H   0  0  0  0  0  0  0  0  0  0  0  0
    5.1166    2.1819   -0.1462 H   0  0  0  0  0  0  0  0  0  0  0  0
  1  2  1  0  0  0  0
  1  3  2  0  0  0  0
  1  7  1  0  0  0  0
  2 13  1  0  0  0  0
  4  8  1  0  0  0  0
  4 14  1  0  0  0  0
  5  9  1  0  0  0  0
  5 15  1  0  0  0  0
  6 12  1  0  0  0  0
  6 16  1  0  0  0  0
  7  8  2  0  0  0  0
  7  9  1  0  0  0  0
  8 10  1  0  0  0  0
  9 11  2  0  0  0  0
 10 12  2  0  0  0  0
 10 17  1  0  0  0  0
 11 12  1  0  0  0  0
 11 18  1  0  0  0  0
M  END
>  <Mol_ID>
7082

>  <Formula>
C7H6O5

>  <MolWeight>
170.11954

>  <Cat>
E4097

>  <Name>
2,4,6-Trihydroxybenzoic acid

>  <Target>
CDK

>  <Form>
Free base

>  <CAS>
83-30-7

>  <URL>
https://www.selleckchem.com/products/2-4-6-trihydroxybenzoic-acid.html

$$$$
