2,4-Dichlorophenoxyacetic acid
 OpenBabel08302521373D

 19 19  0  0  0  0  0  0  0  0999 V2000
    1.0833    0.1239   -0.1342 O   0  0  0  0  0  0  0  0  0  0  0  0
    0.4364    1.1148   -0.9334 C   0  0  0  0  0  0  0  0  0  0  0  0
    0.0139    2.3414   -0.1364 C   0  0  0  0  0  0  0  0  0  0  0  0
    0.2683    2.2383    1.1917 O   0  0  0  0  0  0  0  0  0  0  0  0
   -0.5078    3.3289   -0.6299 O   0  0  0  0  0  0  0  0  0  0  0  0
    2.4522    0.1494   -0.1212 C   0  0  0  0  0  0  0  0  0  0  0  0
    3.2250    1.3110   -0.1590 C   0  0  0  0  0  0  0  0  0  0  0  0
    3.0746   -1.0905    0.0345 C   0  0  0  0  0  0  0  0  0  0  0  0
    4.6154    1.2263   -0.0471 C   0  0  0  0  0  0  0  0  0  0  0  0
    4.4637   -1.1745    0.1352 C   0  0  0  0  0  0  0  0  0  0  0  0
    5.2342   -0.0143    0.0993 C   0  0  0  0  0  0  0  0  0  0  0  0
    1.0478    1.4163   -1.7916 H   0  0  0  0  0  0  0  0  0  0  0  0
   -0.4820    0.6553   -1.3139 H   0  0  0  0  0  0  0  0  0  0  0  0
    0.6882    1.3744    1.3972 H   0  0  0  0  0  0  0  0  0  0  0  0
    2.7819    2.2982   -0.2452 H   0  0  0  0  0  0  0  0  0  0  0  0
    2.4776   -1.9982    0.0745 H   0  0  0  0  0  0  0  0  0  0  0  0
    5.2163    2.1329   -0.0615 H   0  0  0  0  0  0  0  0  0  0  0  0
    4.9436   -2.1433    0.2502 H   0  0  0  0  0  0  0  0  0  0  0  0
    6.3157   -0.0752    0.1930 H   0  0  0  0  0  0  0  0  0  0  0  0
  1  2  1  0  0  0  0
  1  6  1  0  0  0  0
  2  3  1  0  0  0  0
  2 12  1  0  0  0  0
  2 13  1  0  0  0  0
  3  4  1  0  0  0  0
  3  5  2  0  0  0  0
  4 14  1  0  0  0  0
  6  7  2  0  0  0  0
  6  8  1  0  0  0  0
  7  9  1  0  0  0  0
  7 15  1  0  0  0  0
  8 10  2  0  0  0  0
  8 16  1  0  0  0  0
  9 11  2  0  0  0  0
  9 17  1  0  0  0  0
 10 11  1  0  0  0  0
 10 18  1  0  0  0  0
 11 19  1  0  0  0  0
M  END
>  <Mol_ID>
7372

>  <Formula>
C8H6Cl2O3

>  <MolWeight>
221.03744

>  <Cat>
E4424

>  <Name>
2,4-Dichlorophenoxyacetic acid

>  <Synonyms>
2,4-Dichlorophenoxyacetic acid

>  <Target>
DNA/RNA Synthesis

>  <Form>
free base

>  <CAS>
94-75-7

>  <URL>
https://www.selleckchem.com/products/2-4-dichlorophenoxyacetic-acid.html

$$$$
