2,4-dihydroxybenzaldehyde
 OpenBabel08302521373D

 16 16  0  0  0  0  0  0  0  0999 V2000
    2.3615   -1.0291   -0.0046 O   0  0  0  0  0  0  0  0  0  0  0  0
   -2.3433   -1.0051    0.0191 O   0  0  0  0  0  0  0  0  0  0  0  0
    3.5564    1.3380   -0.0485 O   0  0  0  0  0  0  0  0  0  0  0  0
    1.2123    1.1197   -0.0131 C   0  0  0  0  0  0  0  0  0  0  0  0
    1.2161   -0.2801   -0.0056 C   0  0  0  0  0  0  0  0  0  0  0  0
   -0.0022    1.8170   -0.0020 C   0  0  0  0  0  0  0  0  0  0  0  0
    0.0134   -0.9805    0.0029 C   0  0  0  0  0  0  0  0  0  0  0  0
   -1.1887   -0.2806    0.0115 C   0  0  0  0  0  0  0  0  0  0  0  0
   -1.2086    1.1124    0.0123 C   0  0  0  0  0  0  0  0  0  0  0  0
    2.4648    1.8970   -0.0355 C   0  0  0  0  0  0  0  0  0  0  0  0
    3.1313   -0.4148    0.0017 H   0  0  0  0  0  0  0  0  0  0  0  0
   -3.1013   -0.3985    0.0151 H   0  0  0  0  0  0  0  0  0  0  0  0
   -0.0231    2.9037   -0.0040 H   0  0  0  0  0  0  0  0  0  0  0  0
    0.0135   -2.0667    0.0024 H   0  0  0  0  0  0  0  0  0  0  0  0
   -2.1459    1.6604    0.0228 H   0  0  0  0  0  0  0  0  0  0  0  0
    2.3745    2.9961   -0.0399 H   0  0  0  0  0  0  0  0  0  0  0  0
  1  5  1  0  0  0  0
  1 11  1  0  0  0  0
  2  8  1  0  0  0  0
  2 12  1  0  0  0  0
  3 10  2  0  0  0  0
  4  5  2  0  0  0  0
  4  6  1  0  0  0  0
  4 10  1  0  0  0  0
  5  7  1  0  0  0  0
  6  9  2  0  0  0  0
  6 13  1  0  0  0  0
  7  8  2  0  0  0  0
  7 14  1  0  0  0  0
  8  9  1  0  0  0  0
  9 15  1  0  0  0  0
 10 16  1  0  0  0  0
M  END
>  <Mol_ID>
7590

>  <Formula>
C7H6O3

>  <MolWeight>
138.12074

>  <Cat>
E2903

>  <Name>
2,4-dihydroxybenzaldehyde

>  <Target>
Others

>  <Form>
free base

>  <CAS>
95-01-2

>  <URL>
https://www.selleckchem.com/products/2,4-dihydroxybenzaldehyde.html

$$$$
