2,4-Pyridinedicarboxylic acid
 OpenBabel08302520143D

 17 17  0  0  0  0  0  0  0  0999 V2000
    1.4208    0.0569   -0.0182 C   0  0  0  0  0  0  0  0  0  0  0  0
    0.7128    1.2586   -0.0201 C   0  0  0  0  0  0  0  0  0  0  0  0
    0.7294   -1.1583   -0.0009 C   0  0  0  0  0  0  0  0  0  0  0  0
    2.9012    0.1281    0.0345 C   0  0  0  0  0  0  0  0  0  0  0  0
   -0.6667    1.1868   -0.0255 C   0  0  0  0  0  0  0  0  0  0  0  0
   -0.6559   -1.1218   -0.0111 C   0  0  0  0  0  0  0  0  0  0  0  0
    3.5324   -0.9088   -0.5490 O   0  0  0  0  0  0  0  0  0  0  0  0
    3.4881    1.0618    0.5493 O   0  0  0  0  0  0  0  0  0  0  0  0
   -1.3768    0.0189   -0.0303 N   0  0  0  0  0  0  0  0  0  0  0  0
   -1.4878    2.4329   -0.0229 C   0  0  0  0  0  0  0  0  0  0  0  0
   -2.8098    2.1269   -0.0073 O   0  0  0  0  0  0  0  0  0  0  0  0
   -1.0401    3.5650   -0.0369 O   0  0  0  0  0  0  0  0  0  0  0  0
    1.2222    2.2203   -0.0044 H   0  0  0  0  0  0  0  0  0  0  0  0
    1.2383   -2.1141    0.0592 H   0  0  0  0  0  0  0  0  0  0  0  0
   -1.2389   -2.0411    0.0091 H   0  0  0  0  0  0  0  0  0  0  0  0
    2.9854   -1.4982   -1.0986 H   0  0  0  0  0  0  0  0  0  0  0  0
   -2.9085    1.1460    0.0025 H   0  0  0  0  0  0  0  0  0  0  0  0
  1  2  2  0  0  0  0
  1  3  1  0  0  0  0
  1  4  1  0  0  0  0
  2  5  1  0  0  0  0
  2 13  1  0  0  0  0
  3  6  2  0  0  0  0
  3 14  1  0  0  0  0
  4  7  1  0  0  0  0
  4  8  2  0  0  0  0
  5  9  2  0  0  0  0
  5 10  1  0  0  0  0
  6  9  1  0  0  0  0
  6 15  1  0  0  0  0
  7 16  1  0  0  0  0
 10 11  1  0  0  0  0
 10 12  2  0  0  0  0
 11 17  1  0  0  0  0
M  END
>  <Mol_ID>
3173

>  <Formula>
C7H5NO4

>  <MolWeight>
167.1189

>  <Cat>
S5906

>  <Name>
2,4-Pyridinedicarboxylic acid

>  <Synonyms>
Lutidinic Acid, 2,4-Dicarboxypyridine, 2,4-PDCA

>  <Target>
Others

>  <Form>
Free Base

>  <CAS>
499-80-9

>  <URL>
http://www.selleckchem.com/products/pyridinedicarboxylic-acid.html

$$$$
