2,4-Thiazolidinedione
 OpenBabel08302521353D

 10 10  0  0  0  0  0  0  0  0999 V2000
    2.5557   -0.4231    0.0049 O   0  0  0  0  0  0  0  0  0  0  0  0
   -1.9027   -1.3262    0.0099 O   0  0  0  0  0  0  0  0  0  0  0  0
    0.3674   -1.0484   -0.0454 N   0  0  0  0  0  0  0  0  0  0  0  0
    1.3687   -0.1271   -0.0084 C   0  0  0  0  0  0  0  0  0  0  0  0
   -0.9135   -0.6151   -0.0137 C   0  0  0  0  0  0  0  0  0  0  0  0
    0.8406    1.2827    0.0226 C   0  0  0  0  0  0  0  0  0  0  0  0
   -0.9641    1.1287    0.0009 S   0  0  0  0  0  0  0  0  0  0  0  0
    0.5697   -2.0351   -0.0515 H   0  0  0  0  0  0  0  0  0  0  0  0
    1.1863    1.8287   -0.8581 H   0  0  0  0  0  0  0  0  0  0  0  0
    1.1645    1.7789    0.9404 H   0  0  0  0  0  0  0  0  0  0  0  0
  1  4  2  0  0  0  0
  2  5  2  0  0  0  0
  3  4  1  0  0  0  0
  3  5  1  0  0  0  0
  3  8  1  0  0  0  0
  4  6  1  0  0  0  0
  5  7  1  0  0  0  0
  6  7  1  0  0  0  0
  6  9  1  0  0  0  0
  6 10  1  0  0  0  0
M  END
>  <Mol_ID>
6985

>  <Formula>
C3H3NO2S

>  <MolWeight>
117.12642

>  <Cat>
E1775

>  <Name>
2,4-Thiazolidinedione

>  <Synonyms>
Thiazolidinedione

>  <Target>
PPAR

>  <Form>
free base

>  <CAS>
2295-31-0

>  <URL>
https://www.selleckchem.com/products/2,4-thiazolidinedione.html

$$$$
