2,4-Dihydroxypyrimidine-5-carboxylic acid
 OpenBabel08302521293D

 15 15  0  0  0  0  0  0  0  0999 V2000
    2.3237    0.8743   -0.0212 O   0  0  0  0  0  0  0  0  0  0  0  0
   -2.2250    0.9571    0.0339 O   0  0  0  0  0  0  0  0  0  0  0  0
    3.5900   -1.3643   -0.0581 O   0  0  0  0  0  0  0  0  0  0  0  0
    2.3823   -3.2654   -0.0558 O   0  0  0  0  0  0  0  0  0  0  0  0
    0.0463    0.9312    0.0015 N   0  0  0  0  0  0  0  0  0  0  0  0
   -1.1504   -1.0454    0.0172 N   0  0  0  0  0  0  0  0  0  0  0  0
    1.2118   -1.1984   -0.0205 C   0  0  0  0  0  0  0  0  0  0  0  0
    1.2474    0.2791   -0.0136 C   0  0  0  0  0  0  0  0  0  0  0  0
    0.0048   -1.7837   -0.0031 C   0  0  0  0  0  0  0  0  0  0  0  0
   -1.1775    0.3229    0.0183 C   0  0  0  0  0  0  0  0  0  0  0  0
    2.4234   -2.0434   -0.0457 C   0  0  0  0  0  0  0  0  0  0  0  0
    3.5013   -0.3804   -0.0478 H   0  0  0  0  0  0  0  0  0  0  0  0
    0.0522    1.9401    0.0048 H   0  0  0  0  0  0  0  0  0  0  0  0
   -2.0549   -1.5060    0.0299 H   0  0  0  0  0  0  0  0  0  0  0  0
   -0.1210   -2.8641   -0.0051 H   0  0  0  0  0  0  0  0  0  0  0  0
  1  8  2  0  0  0  0
  2 10  2  0  0  0  0
  3 11  1  0  0  0  0
  3 12  1  0  0  0  0
  4 11  2  0  0  0  0
  5  8  1  0  0  0  0
  5 10  1  0  0  0  0
  5 13  1  0  0  0  0
  6  9  1  0  0  0  0
  6 10  1  0  0  0  0
  6 14  1  0  0  0  0
  7  8  1  0  0  0  0
  7  9  2  0  0  0  0
  7 11  1  0  0  0  0
  9 15  1  0  0  0  0
M  END
>  <Mol_ID>
5460

>  <Formula>
C5H4N2O4

>  <MolWeight>
156.09626

>  <Cat>
S3127

>  <Name>
2,4-Dihydroxypyrimidine-5-carboxylic acid

>  <Synonyms>
Uracil 5-carboxylic acid, Isoorotic acid, 5-Carboxyuracil

>  <Target>
Others

>  <Form>
Free Base

>  <CAS>
23945-44-0

>  <URL>
https://www.selleckchem.com/products/2-4-dihydroxypyrimidine-5-carboxylic-acid.html

$$$$
