2,4-Dihydroxybenzoic acid
 OpenBabel08302520393D

 17 17  0  0  0  0  0  0  0  0999 V2000
    1.2229    1.1733   -0.0125 C   0  0  0  0  0  0  0  0  0  0  0  0
    1.2239   -0.2354   -0.0090 C   0  0  0  0  0  0  0  0  0  0  0  0
   -0.0158    1.8374    0.0014 C   0  0  0  0  0  0  0  0  0  0  0  0
    2.5346    1.8860   -0.0335 C   0  0  0  0  0  0  0  0  0  0  0  0
    0.0294   -0.9560   -0.0033 C   0  0  0  0  0  0  0  0  0  0  0  0
    2.3673   -0.9937   -0.0083 O   0  0  0  0  0  0  0  0  0  0  0  0
   -1.2151    1.1109    0.0121 C   0  0  0  0  0  0  0  0  0  0  0  0
    2.5166    3.2317   -0.0411 O   0  0  0  0  0  0  0  0  0  0  0  0
    3.5877    1.2612   -0.0446 O   0  0  0  0  0  0  0  0  0  0  0  0
   -1.1812   -0.2776    0.0062 C   0  0  0  0  0  0  0  0  0  0  0  0
   -2.3259   -1.0165    0.0094 O   0  0  0  0  0  0  0  0  0  0  0  0
   -0.1026    2.9171    0.0052 H   0  0  0  0  0  0  0  0  0  0  0  0
    0.0480   -2.0426   -0.0062 H   0  0  0  0  0  0  0  0  0  0  0  0
    3.1474   -0.3940   -0.0080 H   0  0  0  0  0  0  0  0  0  0  0  0
   -2.1606    1.6460    0.0256 H   0  0  0  0  0  0  0  0  0  0  0  0
    1.6584    3.6830   -0.0349 H   0  0  0  0  0  0  0  0  0  0  0  0
   -3.0936   -0.4220    0.0077 H   0  0  0  0  0  0  0  0  0  0  0  0
  1  2  2  0  0  0  0
  1  3  1  0  0  0  0
  1  4  1  0  0  0  0
  2  5  1  0  0  0  0
  2  6  1  0  0  0  0
  3  7  2  0  0  0  0
  3 12  1  0  0  0  0
  4  8  1  0  0  0  0
  4  9  2  0  0  0  0
  5 10  2  0  0  0  0
  5 13  1  0  0  0  0
  6 14  1  0  0  0  0
  7 10  1  0  0  0  0
  7 15  1  0  0  0  0
  8 16  1  0  0  0  0
 10 11  1  0  0  0  0
 11 17  1  0  0  0  0
M  END
>  <Mol_ID>
3641

>  <Formula>
C7H6O4

>  <MolWeight>
154.12014

>  <Cat>
S6293

>  <Name>
2,4-Dihydroxybenzoic acid

>  <Synonyms>
¦Â-resorcylic acid, p-Hydroxysalicylic acid

>  <Target>
Others

>  <Form>
free base

>  <CAS>
89-86-1

>  <URL>
http://www.selleck.cn/products/2-4-dihydroxybenzoic-acid.html

$$$$
