2,5-Dimethylpyrazine
 OpenBabel08302521293D

 16 16  0  0  0  0  0  0  0  0999 V2000
   -0.7724   -1.1906    0.0050 N   0  0  0  0  0  0  0  0  0  0  0  0
    0.7728    1.1805   -0.0052 N   0  0  0  0  0  0  0  0  0  0  0  0
   -1.3495    0.0352    0.0013 C   0  0  0  0  0  0  0  0  0  0  0  0
    1.3491   -0.0466   -0.0018 C   0  0  0  0  0  0  0  0  0  0  0  0
   -0.5817    1.1942   -0.0034 C   0  0  0  0  0  0  0  0  0  0  0  0
    0.5812   -1.2041    0.0033 C   0  0  0  0  0  0  0  0  0  0  0  0
   -2.8430    0.1027    0.0058 C   0  0  0  0  0  0  0  0  0  0  0  0
    2.8435   -0.1019   -0.0053 C   0  0  0  0  0  0  0  0  0  0  0  0
   -1.0356    2.1795   -0.0058 H   0  0  0  0  0  0  0  0  0  0  0  0
    1.0324   -2.1903    0.0061 H   0  0  0  0  0  0  0  0  0  0  0  0
   -3.1973    0.6197    0.9028 H   0  0  0  0  0  0  0  0  0  0  0  0
   -3.2034    0.6313   -0.8819 H   0  0  0  0  0  0  0  0  0  0  0  0
   -3.2745   -0.9036    0.0005 H   0  0  0  0  0  0  0  0  0  0  0  0
    3.2311    0.3960   -0.8994 H   0  0  0  0  0  0  0  0  0  0  0  0
    3.2369    0.4040    0.8817 H   0  0  0  0  0  0  0  0  0  0  0  0
    3.2115   -1.1327   -0.0019 H   0  0  0  0  0  0  0  0  0  0  0  0
  1  3  2  0  0  0  0
  1  6  1  0  0  0  0
  2  4  1  0  0  0  0
  2  5  2  0  0  0  0
  3  5  1  0  0  0  0
  3  7  1  0  0  0  0
  4  6  2  0  0  0  0
  4  8  1  0  0  0  0
  5  9  1  0  0  0  0
  6 10  1  0  0  0  0
  7 11  1  0  0  0  0
  7 12  1  0  0  0  0
  7 13  1  0  0  0  0
  8 14  1  0  0  0  0
  8 15  1  0  0  0  0
  8 16  1  0  0  0  0
M  END
>  <Mol_ID>
5454

>  <Formula>
C6H8N2

>  <MolWeight>
108.14112

>  <Cat>
S3108

>  <Name>
2,5-Dimethylpyrazine

>  <Synonyms>
NSC 49139

>  <Target>
Others

>  <Form>
Free Base

>  <CAS>
123-32-0

>  <URL>
https://www.selleckchem.com/products/2-5-dimethylpyrazine.html

$$$$
