2,5-Dimethyl-2,3-dihydrofuran-3-one
 OpenBabel08302520393D

 16 16  0  0  0  0  0  0  0  0999 V2000
   -0.3657    1.2130   -0.0416 C   0  0  0  0  0  0  0  0  0  0  0  0
   -1.2617    0.0350   -0.3046 C   0  0  3  0  0  0  0  0  0  0  0  0
    1.0227    0.7833    0.0002 C   0  0  0  0  0  0  0  0  0  0  0  0
   -0.7078    2.3772    0.0933 O   0  0  0  0  0  0  0  0  0  0  0  0
   -0.3625   -1.0877   -0.1778 O   0  0  0  0  0  0  0  0  0  0  0  0
   -2.3996   -0.0778    0.6864 C   0  0  0  0  0  0  0  0  0  0  0  0
    0.9173   -0.5408   -0.0994 C   0  0  0  0  0  0  0  0  0  0  0  0
    2.0516   -1.5049   -0.1440 C   0  0  0  0  0  0  0  0  0  0  0  0
   -1.6236    0.0709   -1.3386 H   0  0  0  0  0  0  0  0  0  0  0  0
    1.8835    1.4188    0.0769 H   0  0  0  0  0  0  0  0  0  0  0  0
   -3.0861    0.7696    0.5938 H   0  0  0  0  0  0  0  0  0  0  0  0
   -2.9605   -1.0036    0.5222 H   0  0  0  0  0  0  0  0  0  0  0  0
   -2.0304   -0.1051    1.7176 H   0  0  0  0  0  0  0  0  0  0  0  0
    2.0532   -2.1356    0.7506 H   0  0  0  0  0  0  0  0  0  0  0  0
    1.9639   -2.1508   -1.0227 H   0  0  0  0  0  0  0  0  0  0  0  0
    3.0165   -0.9910   -0.2026 H   0  0  0  0  0  0  0  0  0  0  0  0
  1  2  1  0  0  0  0
  1  3  1  0  0  0  0
  1  4  2  0  0  0  0
  2  5  1  0  0  0  0
  2  6  1  0  0  0  0
  2  9  1  0  0  0  0
  3  7  2  0  0  0  0
  3 10  1  0  0  0  0
  5  7  1  0  0  0  0
  6 11  1  0  0  0  0
  6 12  1  0  0  0  0
  6 13  1  0  0  0  0
  7  8  1  0  0  0  0
  8 14  1  0  0  0  0
  8 15  1  0  0  0  0
  8 16  1  0  0  0  0
M  END
>  <Mol_ID>
3646

>  <Formula>
C6H8O2

>  <MolWeight>
112.12652

>  <Cat>
S6298

>  <Name>
2,5-Dimethyl-2,3-dihydrofuran-3-one

>  <Synonyms>
N/A

>  <Target>
Others

>  <Form>
free base

>  <CAS>
14400-67-0

>  <URL>
http://www.selleck.cn/products/dimethyl-dihydrofuran-3-one.html

$$$$
