2,5-Furandicarboxylic acid
 OpenBabel08302520393D

 15 15  0  0  0  0  0  0  0  0999 V2000
   -0.1846    1.1205   -0.0134 C   0  0  0  0  0  0  0  0  0  0  0  0
   -1.0688    0.0605   -0.0199 O   0  0  0  0  0  0  0  0  0  0  0  0
    1.1111    0.6438    0.0012 C   0  0  0  0  0  0  0  0  0  0  0  0
   -0.6622    2.4867   -0.0222 C   0  0  0  0  0  0  0  0  0  0  0  0
   -0.3098   -1.0925   -0.0102 C   0  0  0  0  0  0  0  0  0  0  0  0
    1.0315   -0.7641    0.0033 C   0  0  0  0  0  0  0  0  0  0  0  0
   -2.0174    2.5515   -0.0361 O   0  0  0  0  0  0  0  0  0  0  0  0
    0.0404    3.4855   -0.0185 O   0  0  0  0  0  0  0  0  0  0  0  0
   -0.9390   -2.3956   -0.0149 C   0  0  0  0  0  0  0  0  0  0  0  0
   -2.2924   -2.3085   -0.0264 O   0  0  0  0  0  0  0  0  0  0  0  0
   -0.3521   -3.4682   -0.0092 O   0  0  0  0  0  0  0  0  0  0  0  0
    2.0037    1.2569    0.0090 H   0  0  0  0  0  0  0  0  0  0  0  0
    1.8496   -1.4734    0.0126 H   0  0  0  0  0  0  0  0  0  0  0  0
   -2.4143    1.6615   -0.0371 H   0  0  0  0  0  0  0  0  0  0  0  0
   -2.5845   -1.3786   -0.0282 H   0  0  0  0  0  0  0  0  0  0  0  0
  1  2  1  0  0  0  0
  1  3  2  0  0  0  0
  1  4  1  0  0  0  0
  2  5  1  0  0  0  0
  3  6  1  0  0  0  0
  3 12  1  0  0  0  0
  4  7  1  0  0  0  0
  4  8  2  0  0  0  0
  5  9  1  0  0  0  0
  5  6  2  0  0  0  0
  6 13  1  0  0  0  0
  7 14  1  0  0  0  0
  9 10  1  0  0  0  0
  9 11  2  0  0  0  0
 10 15  1  0  0  0  0
M  END
>  <Mol_ID>
3659

>  <Formula>
C6H4O5

>  <MolWeight>
156.09296

>  <Cat>
S6320

>  <Name>
2,5-Furandicarboxylic acid

>  <Synonyms>
Dehydromucic acid

>  <Target>
Others

>  <Form>
free base

>  <CAS>
3238-40-2

>  <URL>
http://www.selleck.cn/products/2-5-furandicarboxylic-acid.html

$$$$
