2,6-Dimethylhydroquinone
 OpenBabel08302521363D

 20 20  0  0  0  0  0  0  0  0999 V2000
    1.0997    0.1014   -0.1166 O   0  0  0  0  0  0  0  0  0  0  0  0
    1.9374   -2.5176   -1.2120 C   0  0  0  0  0  0  0  0  0  0  0  0
   -1.2122    1.5074   -0.9686 C   0  0  0  0  0  0  0  0  0  0  0  0
   -1.9990   -2.1217   -4.0891 O   0  0  0  0  0  0  0  0  0  0  0  0
    0.3625   -0.4930   -1.1035 C   0  0  0  0  0  0  0  0  0  0  0  0
    0.7384   -1.7277   -1.6570 C   0  0  0  0  0  0  0  0  0  0  0  0
   -0.7887    0.1816   -1.5367 C   0  0  0  0  0  0  0  0  0  0  0  0
   -0.0632   -2.2785   -2.6733 C   0  0  0  0  0  0  0  0  0  0  0  0
   -1.5687   -0.3914   -2.5508 C   0  0  0  0  0  0  0  0  0  0  0  0
   -1.2026   -1.6093   -3.1070 C   0  0  0  0  0  0  0  0  0  0  0  0
    2.0309   -0.1335   -0.2426 H   0  0  0  0  0  0  0  0  0  0  0  0
    1.6219   -3.4992   -0.8429 H   0  0  0  0  0  0  0  0  0  0  0  0
    2.6242   -2.6576   -2.0536 H   0  0  0  0  0  0  0  0  0  0  0  0
    2.4978   -2.0379   -0.4062 H   0  0  0  0  0  0  0  0  0  0  0  0
   -1.2429    2.2594   -1.7634 H   0  0  0  0  0  0  0  0  0  0  0  0
   -2.2064    1.4213   -0.5180 H   0  0  0  0  0  0  0  0  0  0  0  0
   -0.5299    1.8745   -0.1965 H   0  0  0  0  0  0  0  0  0  0  0  0
   -1.6461   -2.9862   -4.3563 H   0  0  0  0  0  0  0  0  0  0  0  0
    0.2100   -3.2345   -3.1114 H   0  0  0  0  0  0  0  0  0  0  0  0
   -2.4636    0.1120   -2.9081 H   0  0  0  0  0  0  0  0  0  0  0  0
  1  5  1  0  0  0  0
  1 11  1  0  0  0  0
  2  6  1  0  0  0  0
  2 12  1  0  0  0  0
  2 13  1  0  0  0  0
  2 14  1  0  0  0  0
  3  7  1  0  0  0  0
  3 15  1  0  0  0  0
  3 16  1  0  0  0  0
  3 17  1  0  0  0  0
  4 10  1  0  0  0  0
  4 18  1  0  0  0  0
  5  6  2  0  0  0  0
  5  7  1  0  0  0  0
  6  8  1  0  0  0  0
  7  9  2  0  0  0  0
  8 10  2  0  0  0  0
  8 19  1  0  0  0  0
  9 10  1  0  0  0  0
  9 20  1  0  0  0  0
M  END
>  <Mol_ID>
7152

>  <Formula>
C8H10O2

>  <MolWeight>
138.1638

>  <Cat>
E4140

>  <Name>
2,6-Dimethylhydroquinone

>  <Synonyms>
2,6-dimethylbenzene-1,4-diol

>  <Target>
Others

>  <Form>
Free base

>  <CAS>
654-42-2

>  <URL>
https://www.selleckchem.com/products/2-6-dimethylhydroquinone.html

$$$$
