2,6-Dibromophenol
 OpenBabel08302521363D

 13 13  0  0  0  0  0  0  0  0999 V2000
   -0.0122    1.5517    0.0394 O   0  0  0  0  0  0  0  0  0  0  0  0
   -2.8851    0.3697    0.0093 Br  0  0  0  0  0  0  0  0  0  0  0  0
    2.8618    0.3993    0.0205 Br  0  0  0  0  0  0  0  0  0  0  0  0
   -0.0155    0.1811    0.0266 C   0  0  0  0  0  0  0  0  0  0  0  0
   -1.2179   -0.5338    0.0184 C   0  0  0  0  0  0  0  0  0  0  0  0
    1.1978   -0.5114    0.0234 C   0  0  0  0  0  0  0  0  0  0  0  0
   -1.2103   -1.9302    0.0150 C   0  0  0  0  0  0  0  0  0  0  0  0
    1.2073   -1.9094    0.0217 C   0  0  0  0  0  0  0  0  0  0  0  0
    0.0039   -2.6170    0.0191 C   0  0  0  0  0  0  0  0  0  0  0  0
   -0.9384    1.8519    0.0659 H   0  0  0  0  0  0  0  0  0  0  0  0
   -2.1417   -2.4911    0.0091 H   0  0  0  0  0  0  0  0  0  0  0  0
    2.1480   -2.4549    0.0222 H   0  0  0  0  0  0  0  0  0  0  0  0
    0.0143   -3.7048    0.0190 H   0  0  0  0  0  0  0  0  0  0  0  0
  1  4  1  0  0  0  0
  1 10  1  0  0  0  0
  2  5  1  0  0  0  0
  3  6  1  0  0  0  0
  4  5  2  0  0  0  0
  4  6  1  0  0  0  0
  5  7  1  0  0  0  0
  6  8  2  0  0  0  0
  7  9  2  0  0  0  0
  7 11  1  0  0  0  0
  8  9  1  0  0  0  0
  8 12  1  0  0  0  0
  9 13  1  0  0  0  0
M  END
>  <Mol_ID>
7260

>  <Formula>
C6H4Br2O

>  <MolWeight>
251.90336

>  <Cat>
E4274

>  <Name>
2,6-Dibromophenol

>  <Target>
Others

>  <Form>
Free base

>  <CAS>
608-33-3

>  <URL>
https://www.selleckchem.com/products/2-6-dibromophenol.html

$$$$
