2,6-Dimethylpyrazine
 OpenBabel08302521363D

 16 16  0  0  0  0  0  0  0  0999 V2000
    1.0133    0.0191    0.0068 C   0  0  0  0  0  0  0  0  0  0  0  0
   -0.7078   -1.3474   -4.3627 C   0  0  0  0  0  0  0  0  0  0  0  0
    0.1363   -0.6281   -2.1819 N   0  0  0  0  0  0  0  0  0  0  0  0
    0.5446    0.3778   -1.3675 C   0  0  0  0  0  0  0  0  0  0  0  0
   -0.2516   -0.2696   -3.4315 C   0  0  0  0  0  0  0  0  0  0  0  0
    0.5729    1.6973   -1.8053 C   0  0  0  0  0  0  0  0  0  0  0  0
   -0.2230    1.0576   -3.8461 C   0  0  0  0  0  0  0  0  0  0  0  0
    0.1879    2.0684   -3.0475 N   0  0  0  0  0  0  0  0  0  0  0  0
    0.6676   -0.9816    0.2851 H   0  0  0  0  0  0  0  0  0  0  0  0
    0.6231    0.7263    0.7456 H   0  0  0  0  0  0  0  0  0  0  0  0
    2.1069    0.0311    0.0432 H   0  0  0  0  0  0  0  0  0  0  0  0
   -1.7373   -1.1604   -4.6836 H   0  0  0  0  0  0  0  0  0  0  0  0
   -0.0589   -1.3867   -5.2430 H   0  0  0  0  0  0  0  0  0  0  0  0
   -0.6763   -2.3257   -3.8722 H   0  0  0  0  0  0  0  0  0  0  0  0
    0.9100    2.5029   -1.1619 H   0  0  0  0  0  0  0  0  0  0  0  0
   -0.5311    1.3477   -4.8447 H   0  0  0  0  0  0  0  0  0  0  0  0
  1  4  1  0  0  0  0
  1  9  1  0  0  0  0
  1 10  1  0  0  0  0
  1 11  1  0  0  0  0
  2  5  1  0  0  0  0
  2 12  1  0  0  0  0
  2 13  1  0  0  0  0
  2 14  1  0  0  0  0
  3  4  2  0  0  0  0
  3  5  1  0  0  0  0
  4  6  1  0  0  0  0
  5  7  2  0  0  0  0
  6  8  2  0  0  0  0
  6 15  1  0  0  0  0
  7  8  1  0  0  0  0
  7 16  1  0  0  0  0
M  END
>  <Mol_ID>
7278

>  <Formula>
C6H8N2

>  <MolWeight>
108.14112

>  <Cat>
E4301

>  <Name>
2,6-Dimethylpyrazine

>  <Target>
Others

>  <Form>
Free base

>  <CAS>
108-50-9

>  <URL>
https://www.selleckchem.com/products/2-6-dimethylpyrazine.html

$$$$
