2,6-Dimethoxybenzoic acid
 OpenBabel08302520393D

 23 23  0  0  0  0  0  0  0  0999 V2000
    1.5000   -0.2145    0.0048 C   0  0  0  0  0  0  0  0  0  0  0  0
    0.5799   -1.2877   -0.0310 C   0  0  0  0  0  0  0  0  0  0  0  0
    1.0264    1.1158    0.0024 C   0  0  0  0  0  0  0  0  0  0  0  0
    2.9741   -0.4653    0.0133 C   0  0  0  0  0  0  0  0  0  0  0  0
   -0.7936   -1.0160   -0.0472 C   0  0  0  0  0  0  0  0  0  0  0  0
    1.0787   -2.5671    0.0287 O   0  0  0  0  0  0  0  0  0  0  0  0
   -0.3496    1.3554    0.0351 C   0  0  0  0  0  0  0  0  0  0  0  0
    1.9434    2.1333    0.0472 O   0  0  0  0  0  0  0  0  0  0  0  0
    3.3428   -1.4881    0.8217 O   0  0  0  0  0  0  0  0  0  0  0  0
    3.7888    0.1978   -0.6056 O   0  0  0  0  0  0  0  0  0  0  0  0
   -1.2535    0.2942   -0.0018 C   0  0  0  0  0  0  0  0  0  0  0  0
    0.2827   -3.5882   -0.5783 C   0  0  0  0  0  0  0  0  0  0  0  0
    1.5558    3.3928   -0.4955 C   0  0  0  0  0  0  0  0  0  0  0  0
   -1.5389   -1.8047   -0.0439 H   0  0  0  0  0  0  0  0  0  0  0  0
   -0.7468    2.3641    0.1121 H   0  0  0  0  0  0  0  0  0  0  0  0
    2.5814   -2.0195    1.1287 H   0  0  0  0  0  0  0  0  0  0  0  0
   -2.3211    0.4970    0.0197 H   0  0  0  0  0  0  0  0  0  0  0  0
   -0.6887   -3.6995   -0.0890 H   0  0  0  0  0  0  0  0  0  0  0  0
    0.1677   -3.4029   -1.6506 H   0  0  0  0  0  0  0  0  0  0  0  0
    0.8094   -4.5386   -0.4490 H   0  0  0  0  0  0  0  0  0  0  0  0
    2.4081    3.8023   -1.0422 H   0  0  0  0  0  0  0  0  0  0  0  0
    0.7200    3.3372   -1.2028 H   0  0  0  0  0  0  0  0  0  0  0  0
    1.3103    4.0750    0.3242 H   0  0  0  0  0  0  0  0  0  0  0  0
  1  2  2  0  0  0  0
  1  3  1  0  0  0  0
  1  4  1  0  0  0  0
  2  5  1  0  0  0  0
  2  6  1  0  0  0  0
  3  7  2  0  0  0  0
  3  8  1  0  0  0  0
  4  9  1  0  0  0  0
  4 10  2  0  0  0  0
  5 11  2  0  0  0  0
  5 14  1  0  0  0  0
  6 12  1  0  0  0  0
  7 11  1  0  0  0  0
  7 15  1  0  0  0  0
  8 13  1  0  0  0  0
  9 16  1  0  0  0  0
 11 17  1  0  0  0  0
 12 18  1  0  0  0  0
 12 19  1  0  0  0  0
 12 20  1  0  0  0  0
 13 21  1  0  0  0  0
 13 22  1  0  0  0  0
 13 23  1  0  0  0  0
M  END
>  <Mol_ID>
3661

>  <Formula>
C9H10O4

>  <MolWeight>
182.1733

>  <Cat>
S6323

>  <Name>
2,6-Dimethoxybenzoic acid

>  <Synonyms>
N/A

>  <Target>
Others

>  <Form>
free base

>  <CAS>
1466-76-8

>  <URL>
http://www.selleck.cn/products/2-6-dimethoxybenzoic-acid.html

$$$$
