2,6-Dihydroxybenzoic acid
 OpenBabel08302520383D

 17 17  0  0  0  0  0  0  0  0999 V2000
    0.0005   -1.0580   -0.0063 C   0  0  0  0  0  0  0  0  0  0  0  0
    1.1978   -0.3173   -0.0082 C   0  0  0  0  0  0  0  0  0  0  0  0
   -1.2087   -0.3332    0.0071 C   0  0  0  0  0  0  0  0  0  0  0  0
    0.0446   -2.5647   -0.0215 C   0  0  0  0  0  0  0  0  0  0  0  0
    1.1855    1.0831   -0.0047 C   0  0  0  0  0  0  0  0  0  0  0  0
    2.4129   -0.9433   -0.0146 O   0  0  0  0  0  0  0  0  0  0  0  0
   -1.2236    1.0665    0.0165 C   0  0  0  0  0  0  0  0  0  0  0  0
   -2.4155   -0.9935    0.0096 O   0  0  0  0  0  0  0  0  0  0  0  0
   -1.1672   -3.1714   -0.0207 O   0  0  0  0  0  0  0  0  0  0  0  0
    1.0635   -3.2358   -0.0357 O   0  0  0  0  0  0  0  0  0  0  0  0
   -0.0241    1.7723    0.0077 C   0  0  0  0  0  0  0  0  0  0  0  0
    2.1131    1.6499   -0.0134 H   0  0  0  0  0  0  0  0  0  0  0  0
    3.1378   -0.3001    0.0099 H   0  0  0  0  0  0  0  0  0  0  0  0
   -2.1567    1.6236    0.0289 H   0  0  0  0  0  0  0  0  0  0  0  0
   -3.1362   -0.3350    0.0099 H   0  0  0  0  0  0  0  0  0  0  0  0
   -1.9094   -2.5296   -0.0105 H   0  0  0  0  0  0  0  0  0  0  0  0
   -0.0296    2.8600    0.0100 H   0  0  0  0  0  0  0  0  0  0  0  0
  1  2  2  0  0  0  0
  1  3  1  0  0  0  0
  1  4  1  0  0  0  0
  2  5  1  0  0  0  0
  2  6  1  0  0  0  0
  3  7  2  0  0  0  0
  3  8  1  0  0  0  0
  4  9  1  0  0  0  0
  4 10  2  0  0  0  0
  5 11  2  0  0  0  0
  5 12  1  0  0  0  0
  6 13  1  0  0  0  0
  7 11  1  0  0  0  0
  7 14  1  0  0  0  0
  8 15  1  0  0  0  0
  9 16  1  0  0  0  0
 11 17  1  0  0  0  0
M  END
>  <Mol_ID>
3520

>  <Formula>
C7H6O4

>  <MolWeight>
154.12014

>  <Cat>
S6031

>  <Name>
2,6-Dihydroxybenzoic acid

>  <Synonyms>
¦Ã-resorcylic acid; 2-Carboxyresorcinol,;2,6-Resorcylic acid

>  <Target>
Bacterial

>  <Form>
free base

>  <CAS>
303-07-1

>  <URL>
http://www.selleck.cn/products/2-6-dihydroxybenzoic-acid.html

$$$$
