2,6-Dimethylquinoline
 OpenBabel08302521363D

 23 24  0  0  0  0  0  0  0  0999 V2000
    1.0832   -0.0347   -0.0126 C   0  0  0  0  0  0  0  0  0  0  0  0
   -1.9630   -6.6115   -3.2155 C   0  0  0  0  0  0  0  0  0  0  0  0
   -0.9335   -2.7504   -1.7731 C   0  0  0  0  0  0  0  0  0  0  0  0
   -0.2437   -3.9224   -1.3961 C   0  0  0  0  0  0  0  0  0  0  0  0
   -0.5150   -1.4943   -1.3006 C   0  0  0  0  0  0  0  0  0  0  0  0
   -2.0136   -2.8805   -2.6504 C   0  0  0  0  0  0  0  0  0  0  0  0
   -0.6071   -5.1422   -1.8347 N   0  0  0  0  0  0  0  0  0  0  0  0
    0.8571   -3.7886   -0.5653 C   0  0  0  0  0  0  0  0  0  0  0  0
    0.6246   -1.3756   -0.5007 C   0  0  0  0  0  0  0  0  0  0  0  0
   -2.3661   -4.1350   -3.1330 C   0  0  0  0  0  0  0  0  0  0  0  0
   -1.6431   -5.2397   -2.7024 C   0  0  0  0  0  0  0  0  0  0  0  0
    1.3097   -2.5363   -0.1329 C   0  0  0  0  0  0  0  0  0  0  0  0
    0.7154    0.1402    1.0030 H   0  0  0  0  0  0  0  0  0  0  0  0
    0.7161    0.7678   -0.6614 H   0  0  0  0  0  0  0  0  0  0  0  0
    2.1767    0.0237   -0.0126 H   0  0  0  0  0  0  0  0  0  0  0  0
   -1.0820   -7.0355   -3.7060 H   0  0  0  0  0  0  0  0  0  0  0  0
   -2.2590   -7.2622   -2.3877 H   0  0  0  0  0  0  0  0  0  0  0  0
   -2.7795   -6.5911   -3.9448 H   0  0  0  0  0  0  0  0  0  0  0  0
   -1.0727   -0.6009   -1.5765 H   0  0  0  0  0  0  0  0  0  0  0  0
   -2.5635   -2.0064   -2.9855 H   0  0  0  0  0  0  0  0  0  0  0  0
    1.3965   -4.6844   -0.2631 H   0  0  0  0  0  0  0  0  0  0  0  0
   -3.1795   -4.2380   -3.8432 H   0  0  0  0  0  0  0  0  0  0  0  0
    2.2021   -2.4785    0.4850 H   0  0  0  0  0  0  0  0  0  0  0  0
  1  9  1  0  0  0  0
  1 13  1  0  0  0  0
  1 14  1  0  0  0  0
  1 15  1  0  0  0  0
  2 11  1  0  0  0  0
  2 16  1  0  0  0  0
  2 17  1  0  0  0  0
  2 18  1  0  0  0  0
  3  4  1  0  0  0  0
  3  5  2  0  0  0  0
  3  6  1  0  0  0  0
  4  7  1  0  0  0  0
  4  8  2  0  0  0  0
  5  9  1  0  0  0  0
  5 19  1  0  0  0  0
  6 10  2  0  0  0  0
  6 20  1  0  0  0  0
  7 11  2  0  0  0  0
  8 12  1  0  0  0  0
  8 21  1  0  0  0  0
  9 12  2  0  0  0  0
 10 11  1  0  0  0  0
 10 22  1  0  0  0  0
 12 23  1  0  0  0  0
M  END
>  <Mol_ID>
7170

>  <Formula>
C11H11N

>  <MolWeight>
157.21174

>  <Cat>
E4167

>  <Name>
2,6-Dimethylquinoline

>  <Synonyms>
6-Methylquinaldine

>  <Target>
P450 (e.g. CYP17)

>  <Form>
Free base

>  <CAS>
877-43-0

>  <URL>
https://www.selleckchem.com/products/2-6-dimethylquinoline.html

$$$$
