2-?Methoxy-?4-?vinylphenol
 OpenBabel08302521373D

 21 21  0  0  0  0  0  0  0  0999 V2000
    2.2744    0.0303    0.0196 O   0  0  0  0  0  0  0  0  0  0  0  0
    2.9775   -1.2058    0.0210 C   0  0  0  0  0  0  0  0  0  0  0  0
    0.9783    2.3623    0.0215 O   0  0  0  0  0  0  0  0  0  0  0  0
   -2.0513   -2.3917   -0.0055 C   0  0  0  0  0  0  0  0  0  0  0  0
   -3.2575   -2.5726   -0.5544 C   0  0  0  0  0  0  0  0  0  0  0  0
    0.9037   -0.0381    0.0127 C   0  0  0  0  0  0  0  0  0  0  0  0
    0.1305   -1.2046    0.0079 C   0  0  0  0  0  0  0  0  0  0  0  0
    0.2559    1.2004    0.0090 C   0  0  0  0  0  0  0  0  0  0  0  0
   -1.2762   -1.1359   -0.0184 C   0  0  0  0  0  0  0  0  0  0  0  0
   -1.1276    1.2936   -0.0027 C   0  0  0  0  0  0  0  0  0  0  0  0
   -1.8915    0.1253   -0.0138 C   0  0  0  0  0  0  0  0  0  0  0  0
    2.7710   -1.7744    0.9338 H   0  0  0  0  0  0  0  0  0  0  0  0
    2.7478   -1.7937   -0.8738 H   0  0  0  0  0  0  0  0  0  0  0  0
    4.0485   -0.9803    0.0041 H   0  0  0  0  0  0  0  0  0  0  0  0
    1.9125    2.0767    0.0343 H   0  0  0  0  0  0  0  0  0  0  0  0
   -1.5756   -3.2413    0.4849 H   0  0  0  0  0  0  0  0  0  0  0  0
   -3.7428   -3.5448   -0.5029 H   0  0  0  0  0  0  0  0  0  0  0  0
   -3.7990   -1.7895   -1.0742 H   0  0  0  0  0  0  0  0  0  0  0  0
    0.6035   -2.1817    0.0094 H   0  0  0  0  0  0  0  0  0  0  0  0
   -1.6082    2.2666   -0.0046 H   0  0  0  0  0  0  0  0  0  0  0  0
   -2.9743    0.2225   -0.0180 H   0  0  0  0  0  0  0  0  0  0  0  0
  1  2  1  0  0  0  0
  1  6  1  0  0  0  0
  2 12  1  0  0  0  0
  2 13  1  0  0  0  0
  2 14  1  0  0  0  0
  3  8  1  0  0  0  0
  3 15  1  0  0  0  0
  4  5  2  0  0  0  0
  4  9  1  0  0  0  0
  4 16  1  0  0  0  0
  5 17  1  0  0  0  0
  5 18  1  0  0  0  0
  6  7  2  0  0  0  0
  6  8  1  0  0  0  0
  7  9  1  0  0  0  0
  7 19  1  0  0  0  0
  8 10  2  0  0  0  0
  9 11  2  0  0  0  0
 10 11  1  0  0  0  0
 10 20  1  0  0  0  0
 11 21  1  0  0  0  0
M  END
>  <Mol_ID>
7455

>  <Formula>
C9H10O2

>  <MolWeight>
150.1745

>  <Cat>
E4559

>  <Name>
2-?Methoxy-?4-?vinylphenol

>  <Synonyms>
2-?Methoxy-?4-?vinylphenol

>  <Target>
Others

>  <Form>
Free base

>  <CAS>
7786-61-0

>  <URL>
https://www.selleckchem.com/products/2-?methoxy-?4-?vinylphenol.html

$$$$
