2-Acetamidofluorene
 OpenBabel08302521313D

 30 32  0  0  0  0  0  0  0  0999 V2000
    2.6244   -3.3237   -0.2578 O   0  0  0  0  0  0  0  0  0  0  0  0
    3.1317   -1.1179    0.2774 N   0  0  0  0  0  0  0  0  0  0  0  0
    7.5915   -3.2342   -0.8507 C   0  0  0  0  0  0  0  0  0  0  0  0
    6.6398   -2.2367   -0.2239 C   0  0  0  0  0  0  0  0  0  0  0  0
    7.3474   -1.2249    0.4464 C   0  0  0  0  0  0  0  0  0  0  0  0
    8.9367   -2.6662   -0.4535 C   0  0  0  0  0  0  0  0  0  0  0  0
    8.7635   -1.4841    0.3025 C   0  0  0  0  0  0  0  0  0  0  0  0
    5.2563   -2.2417   -0.2707 C   0  0  0  0  0  0  0  0  0  0  0  0
    6.6649   -0.2104    1.0942 C   0  0  0  0  0  0  0  0  0  0  0  0
   10.1964   -3.1612   -0.7467 C   0  0  0  0  0  0  0  0  0  0  0  0
    9.8601   -0.7769    0.7596 C   0  0  0  0  0  0  0  0  0  0  0  0
    4.5473   -1.2067    0.3503 C   0  0  0  0  0  0  0  0  0  0  0  0
    5.2605   -0.1987    1.0359 C   0  0  0  0  0  0  0  0  0  0  0  0
   11.3022   -2.4508   -0.2754 C   0  0  0  0  0  0  0  0  0  0  0  0
   11.1360   -1.2685    0.4671 C   0  0  0  0  0  0  0  0  0  0  0  0
    2.2914   -2.1592   -0.0771 C   0  0  0  0  0  0  0  0  0  0  0  0
    0.8393   -1.7970   -0.2468 C   0  0  0  0  0  0  0  0  0  0  0  0
    2.7172   -0.2390    0.5622 H   0  0  0  0  0  0  0  0  0  0  0  0
    7.4768   -3.2385   -1.9402 H   0  0  0  0  0  0  0  0  0  0  0  0
    7.4455   -4.2334   -0.4294 H   0  0  0  0  0  0  0  0  0  0  0  0
    4.7633   -3.0351   -0.8177 H   0  0  0  0  0  0  0  0  0  0  0  0
    7.2022    0.5610    1.6360 H   0  0  0  0  0  0  0  0  0  0  0  0
   10.3241   -4.0708   -1.3242 H   0  0  0  0  0  0  0  0  0  0  0  0
    9.7415    0.1375    1.3294 H   0  0  0  0  0  0  0  0  0  0  0  0
    4.7351    0.5949    1.5603 H   0  0  0  0  0  0  0  0  0  0  0  0
   12.3056   -2.8136   -0.4856 H   0  0  0  0  0  0  0  0  0  0  0  0
   12.0122   -0.7288    0.8190 H   0  0  0  0  0  0  0  0  0  0  0  0
    0.5056   -2.1849   -1.2167 H   0  0  0  0  0  0  0  0  0  0  0  0
    0.2700   -2.2914    0.5439 H   0  0  0  0  0  0  0  0  0  0  0  0
    0.6534   -0.7234   -0.2188 H   0  0  0  0  0  0  0  0  0  0  0  0
  1 16  2  0  0  0  0
  2 12  1  0  0  0  0
  2 16  1  0  0  0  0
  2 18  1  0  0  0  0
  3  4  1  0  0  0  0
  3  6  1  0  0  0  0
  3 19  1  0  0  0  0
  3 20  1  0  0  0  0
  4  5  2  0  0  0  0
  4  8  1  0  0  0  0
  5  7  1  0  0  0  0
  5  9  1  0  0  0  0
  6  7  2  0  0  0  0
  6 10  1  0  0  0  0
  7 11  1  0  0  0  0
  8 12  2  0  0  0  0
  8 21  1  0  0  0  0
  9 13  2  0  0  0  0
  9 22  1  0  0  0  0
 10 14  2  0  0  0  0
 10 23  1  0  0  0  0
 11 15  2  0  0  0  0
 11 24  1  0  0  0  0
 12 13  1  0  0  0  0
 13 25  1  0  0  0  0
 14 15  1  0  0  0  0
 14 26  1  0  0  0  0
 15 27  1  0  0  0  0
 16 17  1  0  0  0  0
 17 28  1  0  0  0  0
 17 29  1  0  0  0  0
 17 30  1  0  0  0  0
M  END
>  <Mol_ID>
5963

>  <Formula>
C15H13NO

>  <MolWeight>
223.26982

>  <Cat>
E0197

>  <Name>
2-Acetamidofluorene

>  <Synonyms>
2-AAF, 2-Acetaminofluorene, N-2-Fluorenylacetamide, N-Acetyl-2-aminofluorene

>  <Target>
Others

>  <Form>
Free Base

>  <CAS>
53-96-3

>  <URL>
http://www.selleckchem.com/products/2-acetamidofluorene.html

$$$$
