2-Acetylpyrrole
 OpenBabel08302521363D

 15 15  0  0  0  0  0  0  0  0999 V2000
    1.0642    0.0534    0.0884 C   0  0  0  0  0  0  0  0  0  0  0  0
    0.2717    1.3377    0.0849 C   0  0  0  0  0  0  0  0  0  0  0  0
    0.4744   -1.0283    0.0853 O   0  0  0  0  0  0  0  0  0  0  0  0
    2.5130    0.1203    0.0956 C   0  0  0  0  0  0  0  0  0  0  0  0
    3.3914    1.1918    0.1001 C   0  0  0  0  0  0  0  0  0  0  0  0
    3.2884   -1.0213    0.0999 N   0  0  0  0  0  0  0  0  0  0  0  0
    4.7117    0.6789    0.1084 C   0  0  0  0  0  0  0  0  0  0  0  0
    4.6169   -0.6928    0.1084 C   0  0  0  0  0  0  0  0  0  0  0  0
   -0.3509    1.3675   -0.8134 H   0  0  0  0  0  0  0  0  0  0  0  0
   -0.3641    1.3640    0.9739 H   0  0  0  0  0  0  0  0  0  0  0  0
    0.9024    2.2274    0.0916 H   0  0  0  0  0  0  0  0  0  0  0  0
    3.1269    2.2406    0.0982 H   0  0  0  0  0  0  0  0  0  0  0  0
    2.9054   -1.9597    0.0975 H   0  0  0  0  0  0  0  0  0  0  0  0
    5.6305    1.2511    0.1142 H   0  0  0  0  0  0  0  0  0  0  0  0
    5.3783   -1.4615    0.1137 H   0  0  0  0  0  0  0  0  0  0  0  0
  1  2  1  0  0  0  0
  1  3  2  0  0  0  0
  1  4  1  0  0  0  0
  2  9  1  0  0  0  0
  2 10  1  0  0  0  0
  2 11  1  0  0  0  0
  4  5  2  0  0  0  0
  4  6  1  0  0  0  0
  5  7  1  0  0  0  0
  5 12  1  0  0  0  0
  6  8  1  0  0  0  0
  6 13  1  0  0  0  0
  7  8  2  0  0  0  0
  7 14  1  0  0  0  0
  8 15  1  0  0  0  0
M  END
>  <Mol_ID>
7187

>  <Formula>
C6H7NO

>  <MolWeight>
109.12588

>  <Cat>
E4187

>  <Name>
2-Acetylpyrrole

>  <Synonyms>
2-Acetylpyrrole

>  <Target>
Others

>  <Form>
free base

>  <CAS>
1072-83-9

>  <URL>
https://www.selleckchem.com/products/2-acetylpyrrole.html

$$$$
