2-Acetylpyrazine
 OpenBabel08302520393D

 15 15  0  0  0  0  0  0  0  0999 V2000
   -0.5960    1.1853    0.0083 C   0  0  0  0  0  0  0  0  0  0  0  0
    0.7880    1.0696   -0.0014 C   0  0  0  0  0  0  0  0  0  0  0  0
   -1.4095    0.0970    0.0126 N   0  0  0  0  0  0  0  0  0  0  0  0
   -1.2252    2.5293    0.0141 C   0  0  0  0  0  0  0  0  0  0  0  0
    1.4178   -0.1344   -0.0069 N   0  0  0  0  0  0  0  0  0  0  0  0
   -0.7778   -1.0994    0.0071 C   0  0  0  0  0  0  0  0  0  0  0  0
   -2.7293    2.6318    0.0219 C   0  0  0  0  0  0  0  0  0  0  0  0
   -0.5190    3.5375    0.0114 O   0  0  0  0  0  0  0  0  0  0  0  0
    0.6031   -1.2137   -0.0023 C   0  0  0  0  0  0  0  0  0  0  0  0
    1.4366    1.9397   -0.0055 H   0  0  0  0  0  0  0  0  0  0  0  0
   -1.4171   -1.9753    0.0107 H   0  0  0  0  0  0  0  0  0  0  0  0
   -3.0416    3.1821    0.9139 H   0  0  0  0  0  0  0  0  0  0  0  0
   -3.0522    3.1668   -0.8757 H   0  0  0  0  0  0  0  0  0  0  0  0
   -3.2274    1.6608    0.0339 H   0  0  0  0  0  0  0  0  0  0  0  0
    1.0933   -2.1809   -0.0064 H   0  0  0  0  0  0  0  0  0  0  0  0
  1  2  2  0  0  0  0
  1  3  1  0  0  0  0
  1  4  1  0  0  0  0
  2  5  1  0  0  0  0
  2 10  1  0  0  0  0
  3  6  2  0  0  0  0
  4  7  1  0  0  0  0
  4  8  2  0  0  0  0
  5  9  2  0  0  0  0
  6  9  1  0  0  0  0
  6 11  1  0  0  0  0
  7 12  1  0  0  0  0
  7 13  1  0  0  0  0
  7 14  1  0  0  0  0
  9 15  1  0  0  0  0
M  END
>  <Mol_ID>
3618

>  <Formula>
C6H6N2O

>  <MolWeight>
122.12464

>  <Cat>
S6261

>  <Name>
2-Acetylpyrazine

>  <Synonyms>
N/A

>  <Target>
Others

>  <Form>
free base

>  <CAS>
22047-25-2

>  <URL>
http://www.selleck.cn/products/2-acetylpyrazine.html

$$$$
