2-Acetonaphthone
 OpenBabel08302521363D

 23 24  0  0  0  0  0  0  0  0999 V2000
    0.9488   -0.0469   -0.0312 C   0  0  0  0  0  0  0  0  0  0  0  0
    0.1177    1.2115   -0.0287 C   0  0  0  0  0  0  0  0  0  0  0  0
    0.3875   -1.1439   -0.0154 O   0  0  0  0  0  0  0  0  0  0  0  0
    4.5880    1.1797   -0.1179 C   0  0  0  0  0  0  0  0  0  0  0  0
    5.2717   -0.0568   -0.1390 C   0  0  0  0  0  0  0  0  0  0  0  0
    3.1804    1.1959   -0.0785 C   0  0  0  0  0  0  0  0  0  0  0  0
    5.3311    2.3716   -0.1400 C   0  0  0  0  0  0  0  0  0  0  0  0
    4.5323   -1.2464   -0.1156 C   0  0  0  0  0  0  0  0  0  0  0  0
    6.6750   -0.0683   -0.1850 C   0  0  0  0  0  0  0  0  0  0  0  0
    2.4451    0.0047   -0.0616 C   0  0  0  0  0  0  0  0  0  0  0  0
    6.7257    2.3445   -0.1872 C   0  0  0  0  0  0  0  0  0  0  0  0
    3.1358   -1.2148   -0.0778 C   0  0  0  0  0  0  0  0  0  0  0  0
    7.3972    1.1259   -0.2106 C   0  0  0  0  0  0  0  0  0  0  0  0
   -0.5025    1.2226   -0.9298 H   0  0  0  0  0  0  0  0  0  0  0  0
   -0.5246    1.2024    0.8569 H   0  0  0  0  0  0  0  0  0  0  0  0
    0.6929    2.1338   -0.0074 H   0  0  0  0  0  0  0  0  0  0  0  0
    2.6888    2.1620   -0.0642 H   0  0  0  0  0  0  0  0  0  0  0  0
    4.8284    3.3361   -0.1226 H   0  0  0  0  0  0  0  0  0  0  0  0
    5.0355   -2.2111   -0.1287 H   0  0  0  0  0  0  0  0  0  0  0  0
    7.2178   -1.0109   -0.2038 H   0  0  0  0  0  0  0  0  0  0  0  0
    7.2870    3.2751   -0.2068 H   0  0  0  0  0  0  0  0  0  0  0  0
    2.5888   -2.1567   -0.0633 H   0  0  0  0  0  0  0  0  0  0  0  0
    8.4831    1.1031   -0.2497 H   0  0  0  0  0  0  0  0  0  0  0  0
  1  2  1  0  0  0  0
  1  3  2  0  0  0  0
  1 10  1  0  0  0  0
  2 14  1  0  0  0  0
  2 15  1  0  0  0  0
  2 16  1  0  0  0  0
  4  5  1  0  0  0  0
  4  6  2  0  0  0  0
  4  7  1  0  0  0  0
  5  8  2  0  0  0  0
  5  9  1  0  0  0  0
  6 10  1  0  0  0  0
  6 17  1  0  0  0  0
  7 11  2  0  0  0  0
  7 18  1  0  0  0  0
  8 12  1  0  0  0  0
  8 19  1  0  0  0  0
  9 13  2  0  0  0  0
  9 20  1  0  0  0  0
 10 12  2  0  0  0  0
 11 13  1  0  0  0  0
 11 21  1  0  0  0  0
 12 22  1  0  0  0  0
 13 23  1  0  0  0  0
M  END
>  <Mol_ID>
7261

>  <Formula>
C12H10O

>  <MolWeight>
170.2072

>  <Cat>
E4277

>  <Name>
2-Acetonaphthone

>  <Synonyms>
2-acetylnaphthalene

>  <Target>
Others

>  <Form>
Free base

>  <CAS>
93-08-3

>  <URL>
https://www.selleckchem.com/products/2-acetonaphthone.html

$$$$
