2-Amino-4-methoxyphenol
 OpenBabel08302521363D

 19 19  0  0  0  0  0  0  0  0999 V2000
    0.9520   -0.0067    0.0069 O   0  0  0  0  0  0  0  0  0  0  0  0
    0.2032   -1.2130    0.0783 C   0  0  0  0  0  0  0  0  0  0  0  0
    5.1786   -2.5036    0.0157 N   0  0  0  0  0  0  0  0  0  0  0  0
    6.4569   -0.0239   -0.0212 O   0  0  0  0  0  0  0  0  0  0  0  0
    2.3154   -0.1231   -0.0340 C   0  0  0  0  0  0  0  0  0  0  0  0
    3.0395   -1.3209    0.0093 C   0  0  0  0  0  0  0  0  0  0  0  0
    2.9989    1.0941   -0.1230 C   0  0  0  0  0  0  0  0  0  0  0  0
    4.4347   -1.3084   -0.0855 C   0  0  0  0  0  0  0  0  0  0  0  0
    4.3923    1.1253   -0.1462 C   0  0  0  0  0  0  0  0  0  0  0  0
    5.0914   -0.0712   -0.0995 C   0  0  0  0  0  0  0  0  0  0  0  0
    0.3931   -1.8503   -0.7919 H   0  0  0  0  0  0  0  0  0  0  0  0
    0.4071   -1.7472    1.0123 H   0  0  0  0  0  0  0  0  0  0  0  0
   -0.8587   -0.9490    0.0701 H   0  0  0  0  0  0  0  0  0  0  0  0
    5.9857   -2.4888   -0.6051 H   0  0  0  0  0  0  0  0  0  0  0  0
    4.6126   -3.3273   -0.1746 H   0  0  0  0  0  0  0  0  0  0  0  0
    6.7040   -0.8638    0.4076 H   0  0  0  0  0  0  0  0  0  0  0  0
    2.5334   -2.2744    0.0992 H   0  0  0  0  0  0  0  0  0  0  0  0
    2.4392    2.0267   -0.1480 H   0  0  0  0  0  0  0  0  0  0  0  0
    4.9228    2.0714   -0.1716 H   0  0  0  0  0  0  0  0  0  0  0  0
  1  2  1  0  0  0  0
  1  5  1  0  0  0  0
  2 11  1  0  0  0  0
  2 12  1  0  0  0  0
  2 13  1  0  0  0  0
  3  8  1  0  0  0  0
  3 14  1  0  0  0  0
  3 15  1  0  0  0  0
  4 10  1  0  0  0  0
  4 16  1  0  0  0  0
  5  6  2  0  0  0  0
  5  7  1  0  0  0  0
  6  8  1  0  0  0  0
  6 17  1  0  0  0  0
  7  9  2  0  0  0  0
  7 18  1  0  0  0  0
  8 10  2  0  0  0  0
  9 10  1  0  0  0  0
  9 19  1  0  0  0  0
M  END
>  <Mol_ID>
7097

>  <Formula>
C7H9NO2

>  <MolWeight>
139.15186

>  <Cat>
E4120

>  <Name>
2-Amino-4-methoxyphenol

>  <Synonyms>
2-Amino-4-methoxyphenol

>  <Target>
Others

>  <Form>
Free base

>  <CAS>
20734-76-3

>  <URL>
https://www.selleckchem.com/products/2-amino-4-methoxyphenol.html

$$$$
