2-Aminobenzenesulfonic acid
 OpenBabel08302520383D

 18 18  0  0  0  0  0  0  0  0999 V2000
    0.2666    1.2400   -0.0250 C   0  0  0  0  0  0  0  0  0  0  0  0
    0.9934    0.0387   -0.0137 C   0  0  0  0  0  0  0  0  0  0  0  0
   -1.1369    1.2419    0.0210 C   0  0  0  0  0  0  0  0  0  0  0  0
    1.0890    2.8128   -0.0585 S   0  0  0  0  0  0  0  0  0  0  0  0
    0.2635   -1.1592   -0.0520 C   0  0  0  0  0  0  0  0  0  0  0  0
    2.3849   -0.0302   -0.2127 N   0  0  0  0  0  0  0  0  0  0  0  0
   -1.8348    0.0374    0.0359 C   0  0  0  0  0  0  0  0  0  0  0  0
    1.2537    3.1136   -1.6365 O   0  0  0  0  0  0  0  0  0  0  0  0
    0.1975    3.8083    0.4978 O   0  0  0  0  0  0  0  0  0  0  0  0
    2.4322    2.6352    0.4590 O   0  0  0  0  0  0  0  0  0  0  0  0
   -1.1342   -1.1635   -0.0047 C   0  0  0  0  0  0  0  0  0  0  0  0
   -1.6911    2.1790    0.0302 H   0  0  0  0  0  0  0  0  0  0  0  0
    0.7827   -2.1134   -0.1158 H   0  0  0  0  0  0  0  0  0  0  0  0
    2.7956   -0.9035    0.1106 H   0  0  0  0  0  0  0  0  0  0  0  0
    2.8872    0.7670    0.1956 H   0  0  0  0  0  0  0  0  0  0  0  0
   -2.9219    0.0362    0.0631 H   0  0  0  0  0  0  0  0  0  0  0  0
    2.0348    2.6187   -1.9628 H   0  0  0  0  0  0  0  0  0  0  0  0
   -1.6737   -2.1077   -0.0138 H   0  0  0  0  0  0  0  0  0  0  0  0
  1  2  2  0  0  0  0
  1  3  1  0  0  0  0
  1  4  1  0  0  0  0
  2  5  1  0  0  0  0
  2  6  1  0  0  0  0
  3  7  2  0  0  0  0
  3 12  1  0  0  0  0
  4  8  1  0  0  0  0
  4  9  2  0  0  0  0
  4 10  2  0  0  0  0
  5 11  2  0  0  0  0
  5 13  1  0  0  0  0
  6 14  1  0  0  0  0
  6 15  1  0  0  0  0
  7 11  1  0  0  0  0
  7 16  1  0  0  0  0
  8 17  1  0  0  0  0
 11 18  1  0  0  0  0
M  END
>  <Mol_ID>
3521

>  <Formula>
C6H7NO3S

>  <MolWeight>
173.18968

>  <Cat>
S6032

>  <Name>
2-Aminobenzenesulfonic acid

>  <Synonyms>
Orthanilic acid, O-Aminobenzenesulfonic acid, Aniline-2-sulfonic acid

>  <Target>
Others

>  <Form>
free base

>  <CAS>
88-21-1

>  <URL>
http://www.selleck.cn/products/2-aminobenzenesulfonic-acid.html

$$$$
