2-Aminoethylphosphonic acid
 OpenBabel08302521393D

 15 14  0  0  0  0  0  0  0  0999 V2000
    1.1130   -0.4709    2.5224 N   0  0  0  0  0  0  0  0  0  0  0  0
    0.5998    0.4299    1.4874 C   0  0  0  0  0  0  0  0  0  0  0  0
    1.0719    1.8533    1.7138 C   0  0  0  0  0  0  0  0  0  0  0  0
    0.4619    3.0323    0.4542 P   0  0  0  0  0  0  0  0  0  0  0  0
    1.1237    4.3075    1.2259 O   0  0  0  0  0  0  0  0  0  0  0  0
    1.4784    2.5497   -0.5785 O   0  0  0  0  0  0  0  0  0  0  0  0
   -0.1147    4.1469   -0.7367 O   0  0  0  0  0  0  0  0  0  0  0  0
    2.1270   -0.5235    2.4464 H   0  0  0  0  0  0  0  0  0  0  0  0
    0.9224   -0.0924    3.4509 H   0  0  0  0  0  0  0  0  0  0  0  0
    0.9156    0.0678    0.5054 H   0  0  0  0  0  0  0  0  0  0  0  0
   -0.4941    0.3975    1.5019 H   0  0  0  0  0  0  0  0  0  0  0  0
    0.6922    2.2051    2.6815 H   0  0  0  0  0  0  0  0  0  0  0  0
    2.1669    1.9041    1.7631 H   0  0  0  0  0  0  0  0  0  0  0  0
    0.8413    5.1371    0.7921 H   0  0  0  0  0  0  0  0  0  0  0  0
    0.5760    4.0951   -1.4366 H   0  0  0  0  0  0  0  0  0  0  0  0
  1  2  1  0  0  0  0
  1  8  1  0  0  0  0
  1  9  1  0  0  0  0
  2  3  1  0  0  0  0
  2 10  1  0  0  0  0
  2 11  1  0  0  0  0
  3  4  1  0  0  0  0
  3 12  1  0  0  0  0
  3 13  1  0  0  0  0
  4  5  1  0  0  0  0
  4  6  2  0  0  0  0
  4  7  1  0  0  0  0
  5 14  1  0  0  0  0
  7 15  1  0  0  0  0
M  END
>  <Mol_ID>
7968

>  <Formula>
C2H8NO3P

>  <MolWeight>
125.063581

>  <Cat>
S3331

>  <Name>
2-Aminoethylphosphonic acid

>  <Synonyms>
2-AEP, (2-Aminoethyl)phosphonic acid

>  <Target>
Others

>  <Form>
Free Base

>  <CAS>
2041-14-7

>  <URL>
https://www.selleckchem.com/products/2-aminoethylphosphonic-acid.html

$$$$
