2-Amino-5-nitrothiazole
 OpenBabel08302521363D

 12 12  0  0  0  0  0  0  0  0999 V2000
    0.9962    0.0491    0.0915 N   0  3  0  0  0  0  0  0  0  0  0  0
    0.3995   -1.0341    0.0823 O   0  5  0  0  0  0  0  0  0  0  0  0
    0.4595    1.1632    0.0936 O   0  0  0  0  0  0  0  0  0  0  0  0
    6.0142    0.9182    0.1128 N   0  0  0  0  0  0  0  0  0  0  0  0
    2.4225   -0.0145    0.1010 C   0  0  0  0  0  0  0  0  0  0  0  0
    3.3852    1.3840    0.1138 S   0  0  0  0  0  0  0  0  0  0  0  0
    3.2022   -1.1455    0.1002 C   0  0  0  0  0  0  0  0  0  0  0  0
    4.7877    0.3891    0.1149 C   0  0  0  0  0  0  0  0  0  0  0  0
    4.5640   -0.9042    0.1131 N   0  0  0  0  0  0  0  0  0  0  0  0
    6.1760    1.9141    0.1842 H   0  0  0  0  0  0  0  0  0  0  0  0
    6.8207    0.3094    0.1798 H   0  0  0  0  0  0  0  0  0  0  0  0
    2.8444   -2.1685    0.0928 H   0  0  0  0  0  0  0  0  0  0  0  0
  1  2  1  0  0  0  0
  1  3  2  0  0  0  0
  1  5  1  0  0  0  0
  4  8  1  0  0  0  0
  4 10  1  0  0  0  0
  4 11  1  0  0  0  0
  5  6  1  0  0  0  0
  5  7  2  0  0  0  0
  6  8  1  0  0  0  0
  7  9  1  0  0  0  0
  7 12  1  0  0  0  0
  8  9  2  0  0  0  0
M  CHG  2   1   1   2  -1
M  END
>  <Mol_ID>
7270

>  <Formula>
C3H3N3O2S

>  <MolWeight>
145.13982

>  <Cat>
E4289

>  <Name>
2-Amino-5-nitrothiazole

>  <Synonyms>
2-Amino-5-nitrothiazole

>  <Target>
Others

>  <Form>
free base

>  <CAS>
121-66-4

>  <URL>
https://www.selleckchem.com/products/2-amino-5-nitrothiazole.html

$$$$
