2-Amino-3-hydroxypyridine
 OpenBabel08302521373D

 14 14  0  0  0  0  0  0  0  0999 V2000
    0.9791    0.0040   -0.0738 O   0  0  0  0  0  0  0  0  0  0  0  0
    1.7624   -0.4250    2.5759 N   0  0  0  0  0  0  0  0  0  0  0  0
    0.3830   -0.9805    0.6623 C   0  0  0  0  0  0  0  0  0  0  0  0
    0.7871   -1.2366    1.9750 C   0  0  0  0  0  0  0  0  0  0  0  0
   -0.6096   -1.7551    0.0877 C   0  0  0  0  0  0  0  0  0  0  0  0
    0.2745   -2.2318    2.7147 N   0  0  0  0  0  0  0  0  0  0  0  0
   -1.1598   -2.7870    0.8391 C   0  0  0  0  0  0  0  0  0  0  0  0
   -0.6862   -2.9870    2.1296 C   0  0  0  0  0  0  0  0  0  0  0  0
    1.7909    0.2244    0.4253 H   0  0  0  0  0  0  0  0  0  0  0  0
    1.8777   -0.8022    3.5162 H   0  0  0  0  0  0  0  0  0  0  0  0
    1.4153    0.5291    2.6298 H   0  0  0  0  0  0  0  0  0  0  0  0
   -0.9346   -1.5685   -0.9303 H   0  0  0  0  0  0  0  0  0  0  0  0
   -1.9315   -3.4274    0.4272 H   0  0  0  0  0  0  0  0  0  0  0  0
   -1.0817   -3.7879    2.7485 H   0  0  0  0  0  0  0  0  0  0  0  0
  1  3  1  0  0  0  0
  1  9  1  0  0  0  0
  2  4  1  0  0  0  0
  2 10  1  0  0  0  0
  2 11  1  0  0  0  0
  3  4  2  0  0  0  0
  3  5  1  0  0  0  0
  4  6  1  0  0  0  0
  5  7  2  0  0  0  0
  5 12  1  0  0  0  0
  6  8  2  0  0  0  0
  7  8  1  0  0  0  0
  7 13  1  0  0  0  0
  8 14  1  0  0  0  0
M  END
>  <Mol_ID>
7357

>  <Formula>
C5H6N2O

>  <MolWeight>
110.11394

>  <Cat>
E4404

>  <Name>
2-Amino-3-hydroxypyridine

>  <Synonyms>
2-Amino-3-hydroxypyridine

>  <Target>
Others

>  <Form>
free base

>  <CAS>
16867-03-1

>  <URL>
https://www.selleckchem.com/products/2-amino-3-hydroxypyridine.html

$$$$
