2-Aminoimidazole
 OpenBabel08302521363D

 11 11  0  0  0  0  0  0  0  0999 V2000
    0.9069    0.1599    0.1367 N   0  0  0  0  0  0  0  0  0  0  0  0
    0.2037   -0.8249    0.7098 C   0  0  0  0  0  0  0  0  0  0  0  0
    0.6135   -1.4004    1.8804 N   0  0  0  0  0  0  0  0  0  0  0  0
   -0.9121   -1.3569    0.2822 N   0  0  0  0  0  0  0  0  0  0  0  0
   -0.3003   -2.3626    2.2124 C   0  0  0  0  0  0  0  0  0  0  0  0
   -1.2338   -2.3204    1.2040 C   0  0  0  0  0  0  0  0  0  0  0  0
    0.5696    0.4183   -0.7875 H   0  0  0  0  0  0  0  0  0  0  0  0
    1.9201    0.1327    0.1716 H   0  0  0  0  0  0  0  0  0  0  0  0
    1.4274   -1.1272    2.4095 H   0  0  0  0  0  0  0  0  0  0  0  0
   -0.2134   -2.9631    3.1057 H   0  0  0  0  0  0  0  0  0  0  0  0
   -2.1237   -2.9270    1.0939 H   0  0  0  0  0  0  0  0  0  0  0  0
  1  2  1  0  0  0  0
  1  7  1  0  0  0  0
  1  8  1  0  0  0  0
  2  3  1  0  0  0  0
  2  4  2  0  0  0  0
  3  5  1  0  0  0  0
  3  9  1  0  0  0  0
  4  6  1  0  0  0  0
  5  6  2  0  0  0  0
  5 10  1  0  0  0  0
  6 11  1  0  0  0  0
M  END
>  <Mol_ID>
7239

>  <Formula>
C3H5N3

>  <MolWeight>
83.0919

>  <Cat>
E4248

>  <Name>
2-Aminoimidazole

>  <Target>
Bacterial

>  <Form>
Free base

>  <CAS>
7720-39-0

>  <URL>
https://www.selleckchem.com/products/2-aminoimidazole.html

$$$$
