2-Amino-5-phenylpyridine
 OpenBabel08302521363D

 23 24  0  0  0  0  0  0  0  0999 V2000
    2.3318   -0.1785    0.1952 N   0  0  0  0  0  0  0  0  0  0  0  0
   -1.8260    0.0839   -0.0625 C   0  0  0  0  0  0  0  0  0  0  0  0
   -1.2031   -1.1698   -0.0400 C   0  0  0  0  0  0  0  0  0  0  0  0
   -0.9560    1.1759   -0.0134 C   0  0  0  0  0  0  0  0  0  0  0  0
    0.1873   -1.2740    0.0430 C   0  0  0  0  0  0  0  0  0  0  0  0
    0.3996    1.1051    0.0520 N   0  0  0  0  0  0  0  0  0  0  0  0
    0.9465   -0.1166    0.0804 C   0  0  0  0  0  0  0  0  0  0  0  0
   -3.2961    0.2432   -0.1076 C   0  0  0  0  0  0  0  0  0  0  0  0
   -4.1538   -0.6775    0.5244 C   0  0  0  0  0  0  0  0  0  0  0  0
   -3.9035    1.3294   -0.7689 C   0  0  0  0  0  0  0  0  0  0  0  0
   -5.5440   -0.5191    0.5038 C   0  0  0  0  0  0  0  0  0  0  0  0
   -5.2915    1.4963   -0.7814 C   0  0  0  0  0  0  0  0  0  0  0  0
   -6.1124    0.5717   -0.1455 C   0  0  0  0  0  0  0  0  0  0  0  0
    2.6707    0.7800    0.1552 H   0  0  0  0  0  0  0  0  0  0  0  0
    2.7420   -0.7556   -0.5285 H   0  0  0  0  0  0  0  0  0  0  0  0
   -1.7875   -2.0856   -0.0827 H   0  0  0  0  0  0  0  0  0  0  0  0
   -1.3328    2.1958   -0.0056 H   0  0  0  0  0  0  0  0  0  0  0  0
    0.6624   -2.2476    0.0913 H   0  0  0  0  0  0  0  0  0  0  0  0
   -3.7483   -1.5298    1.0647 H   0  0  0  0  0  0  0  0  0  0  0  0
   -3.2987    2.0673   -1.2934 H   0  0  0  0  0  0  0  0  0  0  0  0
   -6.1790   -1.2464    1.0033 H   0  0  0  0  0  0  0  0  0  0  0  0
   -5.7299    2.3515   -1.2891 H   0  0  0  0  0  0  0  0  0  0  0  0
   -7.1912    0.7009   -0.1527 H   0  0  0  0  0  0  0  0  0  0  0  0
  1  7  1  0  0  0  0
  1 14  1  0  0  0  0
  1 15  1  0  0  0  0
  2  3  2  0  0  0  0
  2  4  1  0  0  0  0
  2  8  1  0  0  0  0
  3  5  1  0  0  0  0
  3 16  1  0  0  0  0
  4  6  2  0  0  0  0
  4 17  1  0  0  0  0
  5  7  2  0  0  0  0
  5 18  1  0  0  0  0
  6  7  1  0  0  0  0
  8  9  2  0  0  0  0
  8 10  1  0  0  0  0
  9 11  1  0  0  0  0
  9 19  1  0  0  0  0
 10 12  2  0  0  0  0
 10 20  1  0  0  0  0
 11 13  2  0  0  0  0
 11 21  1  0  0  0  0
 12 13  1  0  0  0  0
 12 22  1  0  0  0  0
 13 23  1  0  0  0  0
M  END
>  <Mol_ID>
7142

>  <Formula>
C11H10N2

>  <MolWeight>
170.2105

>  <Cat>
E4127

>  <Name>
2-Amino-5-phenylpyridine

>  <Synonyms>
5-phenylpyridin-2-amine

>  <Target>
Others

>  <Form>
Free base

>  <CAS>
33421-40-8

>  <URL>
https://www.selleckchem.com/products/2-amino-5-phenylpyridine.html

$$$$
