2-Amino-1-phenylethanol
 OpenBabel08302521293D

 21 21  0  0  0  0  0  0  0  0999 V2000
    0.2062    0.2952   -2.3976 O   0  0  0  0  0  0  0  0  0  0  0  0
   -1.1883   -1.0385   -0.2336 N   0  0  0  0  0  0  0  0  0  0  0  0
    0.4767    0.6463   -1.0337 C   0  0  3  0  0  0  0  0  0  0  0  0
    0.9289    2.0918   -0.9438 C   0  0  0  0  0  0  0  0  0  0  0  0
   -0.7825    0.3718   -0.1751 C   0  0  0  0  0  0  0  0  0  0  0  0
    0.1150    3.1552   -1.3639 C   0  0  0  0  0  0  0  0  0  0  0  0
    2.1929    2.3907   -0.4041 C   0  0  0  0  0  0  0  0  0  0  0  0
    0.5484    4.4787   -1.2426 C   0  0  0  0  0  0  0  0  0  0  0  0
    2.6223    3.7146   -0.2823 C   0  0  0  0  0  0  0  0  0  0  0  0
    1.7994    4.7567   -0.6989 C   0  0  0  0  0  0  0  0  0  0  0  0
   -0.4257    0.9427   -2.7473 H   0  0  0  0  0  0  0  0  0  0  0  0
   -2.1515   -1.1322    0.0820 H   0  0  0  0  0  0  0  0  0  0  0  0
   -1.1634   -1.3378   -1.2113 H   0  0  0  0  0  0  0  0  0  0  0  0
    1.2848   -0.0163   -0.7006 H   0  0  0  0  0  0  0  0  0  0  0  0
   -0.6048    0.6519    0.8685 H   0  0  0  0  0  0  0  0  0  0  0  0
   -1.6227    0.9706   -0.5461 H   0  0  0  0  0  0  0  0  0  0  0  0
   -0.8695    2.9708   -1.7850 H   0  0  0  0  0  0  0  0  0  0  0  0
    2.8523    1.5919   -0.0730 H   0  0  0  0  0  0  0  0  0  0  0  0
   -0.0930    5.2929   -1.5701 H   0  0  0  0  0  0  0  0  0  0  0  0
    3.6001    3.9295    0.1413 H   0  0  0  0  0  0  0  0  0  0  0  0
    2.1346    5.7869   -0.6021 H   0  0  0  0  0  0  0  0  0  0  0  0
  1  3  1  0  0  0  0
  1 11  1  0  0  0  0
  2  5  1  0  0  0  0
  2 12  1  0  0  0  0
  2 13  1  0  0  0  0
  3  4  1  0  0  0  0
  3  5  1  0  0  0  0
  3 14  1  0  0  0  0
  4  6  2  0  0  0  0
  4  7  1  0  0  0  0
  5 15  1  0  0  0  0
  5 16  1  0  0  0  0
  6  8  1  0  0  0  0
  6 17  1  0  0  0  0
  7  9  2  0  0  0  0
  7 18  1  0  0  0  0
  8 10  2  0  0  0  0
  8 19  1  0  0  0  0
  9 10  1  0  0  0  0
  9 20  1  0  0  0  0
 10 21  1  0  0  0  0
M  END
>  <Mol_ID>
5464

>  <Formula>
C8H11NO

>  <MolWeight>
137.17904

>  <Cat>
S3135

>  <Name>
2-Amino-1-phenylethanol

>  <Synonyms>
2-APE

>  <Target>
Others

>  <Form>
Free Base

>  <CAS>
7568-93-6

>  <URL>
https://www.selleckchem.com/products/2-amino-1-phenylethanol.html

$$$$
