2-Chloroacetamide
 OpenBabel08302521383D

  9  8  0  0  0  0  0  0  0  0999 V2000
    1.0871    0.0826    0.0839 C   0  0  0  0  0  0  0  0  0  0  0  0
    0.2987   -0.1932   -1.1630 C   0  0  0  0  0  0  0  0  0  0  0  0
    0.3338    0.3277    1.1919 N   0  0  0  0  0  0  0  0  0  0  0  0
    2.3106    0.0922    0.1274 O   0  0  0  0  0  0  0  0  0  0  0  0
   -0.3275   -1.0777   -1.0187 H   0  0  0  0  0  0  0  0  0  0  0  0
   -0.3275    0.6697   -1.4052 H   0  0  0  0  0  0  0  0  0  0  0  0
    0.9836   -0.3774   -1.9956 H   0  0  0  0  0  0  0  0  0  0  0  0
    0.8206    0.5192    2.0579 H   0  0  0  0  0  0  0  0  0  0  0  0
   -0.6759    0.3267    1.1873 H   0  0  0  0  0  0  0  0  0  0  0  0
  1  2  1  0  0  0  0
  1  3  1  0  0  0  0
  1  4  2  0  0  0  0
  2  5  1  0  0  0  0
  2  6  1  0  0  0  0
  2  7  1  0  0  0  0
  3  8  1  0  0  0  0
  3  9  1  0  0  0  0
M  END
>  <Mol_ID>
7620

>  <Formula>
C2H4ClNO

>  <MolWeight>
93.51226

>  <Cat>
E2952

>  <Name>
2-Chloroacetamide

>  <Target>
Bacterial

>  <Form>
free base

>  <CAS>
79-07-2

>  <URL>
https://www.selleckchem.com/products/2-chloroacetamide.html

$$$$
