2-Deoxyadenosine
 OpenBabel08302521363D

 31 33  0  0  1  0  0  0  0  0999 V2000
    0.8299    1.4331    0.7241 N   0  0  0  0  0  0  0  0  0  0  0  0
   -3.4961   -0.3324   -5.9844 C   0  0  0  0  0  0  0  0  0  0  0  0
   -4.0709   -1.5286   -5.4641 O   0  0  0  0  0  0  0  0  0  0  0  0
   -4.6655    3.2373   -6.0031 O   0  0  0  0  0  0  0  0  0  0  0  0
   -2.3817    1.6086   -2.6163 N   0  0  0  0  0  0  0  0  0  0  0  0
   -1.4452    2.3951   -2.0027 C   0  0  0  0  0  0  0  0  0  0  0  0
   -2.3418    0.3793   -2.0122 C   0  0  0  0  0  0  0  0  0  0  0  0
   -0.8530    1.5716   -1.0589 C   0  0  0  0  0  0  0  0  0  0  0  0
   -1.1588    3.6850   -2.2508 N   0  0  0  0  0  0  0  0  0  0  0  0
   -1.4212    0.3166   -1.0750 N   0  0  0  0  0  0  0  0  0  0  0  0
    0.1601    2.1393   -0.2676 C   0  0  0  0  0  0  0  0  0  0  0  0
   -0.1782    4.1210   -1.4287 C   0  0  0  0  0  0  0  0  0  0  0  0
    0.4774    3.4391   -0.4633 N   0  0  0  0  0  0  0  0  0  0  0  0
   -3.3028    2.0414   -3.6499 C   0  0  2  0  0  0  0  0  0  0  0  0
   -4.1610    0.9361   -4.0280 O   0  0  0  0  0  0  0  0  0  0  0  0
   -2.6453    2.5424   -4.9278 C   0  0  0  0  0  0  0  0  0  0  0  0
   -4.2641    0.8906   -5.4727 C   0  0  1  0  0  0  0  0  0  0  0  0
   -3.6782    2.2041   -5.9771 C   0  0  1  0  0  0  0  0  0  0  0  0
    0.3275    0.6073    1.0311 H   0  0  0  0  0  0  0  0  0  0  0  0
    1.2056    2.0433    1.4371 H   0  0  0  0  0  0  0  0  0  0  0  0
   -3.5419   -0.3872   -7.0764 H   0  0  0  0  0  0  0  0  0  0  0  0
   -2.4464   -0.3145   -5.6762 H   0  0  0  0  0  0  0  0  0  0  0  0
   -4.0890   -1.4333   -4.4942 H   0  0  0  0  0  0  0  0  0  0  0  0
   -5.3261    3.0763   -5.3057 H   0  0  0  0  0  0  0  0  0  0  0  0
   -3.0085   -0.4293   -2.2834 H   0  0  0  0  0  0  0  0  0  0  0  0
    0.1228    5.1569   -1.5582 H   0  0  0  0  0  0  0  0  0  0  0  0
   -3.9471    2.8095   -3.2049 H   0  0  0  0  0  0  0  0  0  0  0  0
   -1.7128    2.0007   -5.1264 H   0  0  0  0  0  0  0  0  0  0  0  0
   -2.4172    3.6118   -4.8719 H   0  0  0  0  0  0  0  0  0  0  0  0
   -5.3290    0.7877   -5.7090 H   0  0  0  0  0  0  0  0  0  0  0  0
   -3.2560    2.1344   -6.9835 H   0  0  0  0  0  0  0  0  0  0  0  0
  1 11  1  0  0  0  0
  1 19  1  0  0  0  0
  1 20  1  0  0  0  0
  2  3  1  0  0  0  0
  2 21  1  0  0  0  0
  2 22  1  0  0  0  0
  3 23  1  0  0  0  0
  4 24  1  0  0  0  0
  5  6  1  0  0  0  0
  5  7  1  0  0  0  0
  6  8  2  0  0  0  0
  6  9  1  0  0  0  0
  7 10  2  0  0  0  0
  7 25  1  0  0  0  0
  8 10  1  0  0  0  0
  8 11  1  0  0  0  0
  9 12  2  0  0  0  0
 11 13  2  0  0  0  0
 12 13  1  0  0  0  0
 12 26  1  0  0  0  0
 14  5  1  0  0  0  0
 14 15  1  0  0  0  0
 14 16  1  0  0  0  0
 14 27  1  1  0  0  0
 15 17  1  0  0  0  0
 16 18  1  0  0  0  0
 16 28  1  0  0  0  0
 16 29  1  0  0  0  0
 17 18  1  0  0  0  0
 17 30  1  6  0  0  0
 17  2  1  0  0  0  0
 18  4  1  0  0  0  0
 18 31  1  6  0  0  0
M  END
>  <Mol_ID>
7035

>  <Formula>
C10H13N5O3

>  <MolWeight>
251.24192

>  <Cat>
E2419

>  <Name>
2-Deoxyadenosine

>  <Target>
Others

>  <Form>
Free base

>  <CAS>
958-09-8

>  <URL>
https://www.selleckchem.com/products/2--deoxyadenosine.html

$$$$
