2-Deoxy-D-ribose
 OpenBabel08302521293D

 19 18  0  0  0  0  0  0  0  0999 V2000
    2.8019   -0.2099    1.3580 O   0  0  0  0  0  0  0  0  0  0  0  0
    0.4711    1.1450    0.6693 O   0  0  0  0  0  0  0  0  0  0  0  0
    0.4102   -1.2542    2.1079 O   0  0  0  0  0  0  0  0  0  0  0  0
    1.4618   -2.0694   -2.5008 O   0  0  0  0  0  0  0  0  0  0  0  0
    2.3299   -0.2044   -0.0004 C   0  0  2  0  0  0  0  0  0  0  0  0
    0.7883   -0.0929    0.0003 C   0  0  1  0  0  0  0  0  0  0  0  0
    2.8886   -1.4449   -0.6838 C   0  0  0  0  0  0  0  0  0  0  0  0
    0.0619   -1.2397    0.7213 C   0  0  0  0  0  0  0  0  0  0  0  0
    2.4839   -1.5008   -2.1225 C   0  0  0  0  0  0  0  0  0  0  0  0
    2.3777    0.5668    1.7782 H   0  0  0  0  0  0  0  0  0  0  0  0
    0.0788    0.9002    1.5324 H   0  0  0  0  0  0  0  0  0  0  0  0
    1.3675   -1.4557    2.1554 H   0  0  0  0  0  0  0  0  0  0  0  0
    2.7472    0.6957   -0.4676 H   0  0  0  0  0  0  0  0  0  0  0  0
    0.4145   -0.0098   -1.0258 H   0  0  0  0  0  0  0  0  0  0  0  0
    3.9839   -1.4441   -0.6353 H   0  0  0  0  0  0  0  0  0  0  0  0
    2.5706   -2.3609   -0.1768 H   0  0  0  0  0  0  0  0  0  0  0  0
   -1.0186   -1.0748    0.6780 H   0  0  0  0  0  0  0  0  0  0  0  0
    0.2787   -2.2187    0.2850 H   0  0  0  0  0  0  0  0  0  0  0  0
    3.1118   -0.9301   -2.8300 H   0  0  0  0  0  0  0  0  0  0  0  0
  1 10  1  0  0  0  0
  2 11  1  0  0  0  0
  3  8  1  0  0  0  0
  3 12  1  0  0  0  0
  4  9  2  0  0  0  0
  5  7  1  0  0  0  0
  5 13  1  6  0  0  0
  5  6  1  0  0  0  0
  5  1  1  0  0  0  0
  6 14  1  6  0  0  0
  6  8  1  0  0  0  0
  6  2  1  0  0  0  0
  7  9  1  0  0  0  0
  7 15  1  0  0  0  0
  7 16  1  0  0  0  0
  8 17  1  0  0  0  0
  8 18  1  0  0  0  0
  9 19  1  0  0  0  0
M  END
>  <Mol_ID>
5452

>  <Formula>
C5H10O4

>  <MolWeight>
134.1305

>  <Cat>
S3101

>  <Name>
2-Deoxy-D-ribose

>  <Synonyms>
Thyminose, Deoxyribose

>  <Target>
Others

>  <Form>
Free Base

>  <CAS>
533-67-5

>  <URL>
https://www.selleckchem.com/products/2-deoxy-d-ribose.html

$$$$
