2-Ethoxybenzamide
 OpenBabel08302520323D

 23 23  0  0  0  0  0  0  0  0999 V2000
    1.4404   -0.1219    0.2849 C   0  0  0  0  0  0  0  0  0  0  0  0
    0.5911   -1.2215    0.0423 C   0  0  0  0  0  0  0  0  0  0  0  0
    0.8913    1.1738    0.3088 C   0  0  0  0  0  0  0  0  0  0  0  0
    2.9132   -0.2030    0.5453 C   0  0  0  0  0  0  0  0  0  0  0  0
   -0.7944   -0.9949   -0.0505 C   0  0  0  0  0  0  0  0  0  0  0  0
    1.1374   -2.4791   -0.1092 O   0  0  0  0  0  0  0  0  0  0  0  0
   -0.4775    1.3843    0.1431 C   0  0  0  0  0  0  0  0  0  0  0  0
    3.4735   -1.4266    0.7532 N   0  0  0  0  0  0  0  0  0  0  0  0
    3.6091    0.8046    0.6155 O   0  0  0  0  0  0  0  0  0  0  0  0
   -1.3228    0.2957   -0.0117 C   0  0  0  0  0  0  0  0  0  0  0  0
    0.3067   -3.4272   -0.7951 C   0  0  0  0  0  0  0  0  0  0  0  0
    1.1417   -4.5890   -1.2991 C   0  0  0  0  0  0  0  0  0  0  0  0
    1.5375    2.0375    0.4631 H   0  0  0  0  0  0  0  0  0  0  0  0
   -1.5002   -1.8133   -0.1587 H   0  0  0  0  0  0  0  0  0  0  0  0
   -0.8788    2.3941    0.1514 H   0  0  0  0  0  0  0  0  0  0  0  0
    4.4572   -1.4735    0.9732 H   0  0  0  0  0  0  0  0  0  0  0  0
    2.9257   -2.2794    0.6908 H   0  0  0  0  0  0  0  0  0  0  0  0
   -2.3950    0.4459   -0.1119 H   0  0  0  0  0  0  0  0  0  0  0  0
   -0.4491   -3.8093   -0.0996 H   0  0  0  0  0  0  0  0  0  0  0  0
   -0.1812   -2.9675   -1.6640 H   0  0  0  0  0  0  0  0  0  0  0  0
    1.7559   -5.0140   -0.5007 H   0  0  0  0  0  0  0  0  0  0  0  0
    0.4923   -5.3715   -1.7061 H   0  0  0  0  0  0  0  0  0  0  0  0
    1.8175   -4.2577   -2.0940 H   0  0  0  0  0  0  0  0  0  0  0  0
  1  2  2  0  0  0  0
  1  3  1  0  0  0  0
  1  4  1  0  0  0  0
  2  5  1  0  0  0  0
  2  6  1  0  0  0  0
  3  7  2  0  0  0  0
  3 13  1  0  0  0  0
  4  8  1  0  0  0  0
  4  9  2  0  0  0  0
  5 10  2  0  0  0  0
  5 14  1  0  0  0  0
  6 11  1  0  0  0  0
  7 10  1  0  0  0  0
  7 15  1  0  0  0  0
  8 16  1  0  0  0  0
  8 17  1  0  0  0  0
 10 18  1  0  0  0  0
 11 12  1  0  0  0  0
 11 19  1  0  0  0  0
 11 20  1  0  0  0  0
 12 21  1  0  0  0  0
 12 22  1  0  0  0  0
 12 23  1  0  0  0  0
M  END
>  <Mol_ID>
3332

>  <Formula>
C9H11NO2

>  <MolWeight>
165.18914

>  <Cat>
S4524

>  <Name>
2-Ethoxybenzamide

>  <Synonyms>
Ethenzamide

>  <Target>
Immunology & Inflammation related

>  <Form>
Free Base

>  <CAS>
938-73-8

>  <URL>
http://www.selleckchem.com/products/2-ethoxybenzamide.html

$$$$
