2-Ethylbutyric Acid
 OpenBabel08302520383D

 20 19  0  0  0  0  0  0  0  0999 V2000
    0.9979    0.0192    0.0242 C   0  0  0  0  0  0  0  0  0  0  0  0
    0.6026    0.2681    1.4754 C   0  0  0  0  0  0  0  0  0  0  0  0
    0.4608    1.1201   -0.9096 C   0  0  0  0  0  0  0  0  0  0  0  0
    0.5365   -1.3832   -0.4136 C   0  0  0  0  0  0  0  0  0  0  0  0
    1.4551   -0.3031    2.3560 O   0  0  0  0  0  0  0  0  0  0  0  0
   -0.3802    0.8908    1.8368 O   0  0  0  0  0  0  0  0  0  0  0  0
    1.0839    2.4868   -0.6461 C   0  0  0  0  0  0  0  0  0  0  0  0
   -0.9584   -1.6462   -0.2652 C   0  0  0  0  0  0  0  0  0  0  0  0
    2.0929    0.0553   -0.0359 H   0  0  0  0  0  0  0  0  0  0  0  0
    0.6683    0.8477   -1.9521 H   0  0  0  0  0  0  0  0  0  0  0  0
   -0.6260    1.2116   -0.8134 H   0  0  0  0  0  0  0  0  0  0  0  0
    0.8189   -1.5398   -1.4620 H   0  0  0  0  0  0  0  0  0  0  0  0
    1.0748   -2.1424    0.1679 H   0  0  0  0  0  0  0  0  0  0  0  0
    2.1954   -0.7835    1.9432 H   0  0  0  0  0  0  0  0  0  0  0  0
    2.1303    2.5075   -0.9662 H   0  0  0  0  0  0  0  0  0  0  0  0
    0.5447    3.2559   -1.2091 H   0  0  0  0  0  0  0  0  0  0  0  0
    1.0443    2.7602    0.4123 H   0  0  0  0  0  0  0  0  0  0  0  0
   -1.5648   -0.8453   -0.6961 H   0  0  0  0  0  0  0  0  0  0  0  0
   -1.2266   -2.5770   -0.7755 H   0  0  0  0  0  0  0  0  0  0  0  0
   -1.2337   -1.7585    0.7884 H   0  0  0  0  0  0  0  0  0  0  0  0
  1  2  1  0  0  0  0
  1  3  1  0  0  0  0
  1  4  1  0  0  0  0
  1  9  1  0  0  0  0
  2  5  1  0  0  0  0
  2  6  2  0  0  0  0
  3  7  1  0  0  0  0
  3 10  1  0  0  0  0
  3 11  1  0  0  0  0
  4  8  1  0  0  0  0
  4 12  1  0  0  0  0
  4 13  1  0  0  0  0
  5 14  1  0  0  0  0
  7 15  1  0  0  0  0
  7 16  1  0  0  0  0
  7 17  1  0  0  0  0
  8 18  1  0  0  0  0
  8 19  1  0  0  0  0
  8 20  1  0  0  0  0
M  END
>  <Mol_ID>
3538

>  <Formula>
C6H12O2

>  <MolWeight>
116.15828

>  <Cat>
S6057

>  <Name>
2-Ethylbutyric Acid

>  <Synonyms>
2-ethyl hexanoic acid

>  <Target>
Others

>  <Form>
free base

>  <CAS>
88-09-5

>  <URL>
http://www.selleck.cn/products/ethylbutyric-acid.html

$$$$
