2-Ethyl-6-methylphenol
 OpenBabel08302521363D

 22 22  0  0  0  0  0  0  0  0999 V2000
   -1.7760   -1.5827    0.0416 C   0  0  0  0  0  0  0  0  0  0  0  0
   -2.2720   -1.9630   -1.3440 C   0  0  0  0  0  0  0  0  0  0  0  0
   -1.7429    1.3693   -0.0998 O   0  0  0  0  0  0  0  0  0  0  0  0
    0.5628    2.9354   -0.0168 C   0  0  0  0  0  0  0  0  0  0  0  0
   -0.5318   -0.7290   -0.0025 C   0  0  0  0  0  0  0  0  0  0  0  0
   -0.5639    0.6747   -0.0434 C   0  0  0  0  0  0  0  0  0  0  0  0
    0.7217   -1.3637    0.0127 C   0  0  0  0  0  0  0  0  0  0  0  0
    0.6163    1.4339   -0.0205 C   0  0  0  0  0  0  0  0  0  0  0  0
    1.9019   -0.6198    0.0140 C   0  0  0  0  0  0  0  0  0  0  0  0
    1.8494    0.7725    0.0055 C   0  0  0  0  0  0  0  0  0  0  0  0
   -1.5735   -2.4944    0.6180 H   0  0  0  0  0  0  0  0  0  0  0  0
   -2.5692   -1.0670    0.5949 H   0  0  0  0  0  0  0  0  0  0  0  0
   -1.5227   -2.5486   -1.8888 H   0  0  0  0  0  0  0  0  0  0  0  0
   -3.1805   -2.5693   -1.2655 H   0  0  0  0  0  0  0  0  0  0  0  0
   -2.5072   -1.0776   -1.9445 H   0  0  0  0  0  0  0  0  0  0  0  0
   -2.4530    0.7673   -0.3671 H   0  0  0  0  0  0  0  0  0  0  0  0
    0.0500    3.3009   -0.9124 H   0  0  0  0  0  0  0  0  0  0  0  0
    0.0358    3.2919    0.8747 H   0  0  0  0  0  0  0  0  0  0  0  0
    1.5665    3.3739   -0.0059 H   0  0  0  0  0  0  0  0  0  0  0  0
    0.7856   -2.4495    0.0349 H   0  0  0  0  0  0  0  0  0  0  0  0
    2.8629   -1.1258    0.0321 H   0  0  0  0  0  0  0  0  0  0  0  0
    2.7775    1.3393    0.0200 H   0  0  0  0  0  0  0  0  0  0  0  0
  1  2  1  0  0  0  0
  1  5  1  0  0  0  0
  1 11  1  0  0  0  0
  1 12  1  0  0  0  0
  2 13  1  0  0  0  0
  2 14  1  0  0  0  0
  2 15  1  0  0  0  0
  3  6  1  0  0  0  0
  3 16  1  0  0  0  0
  4  8  1  0  0  0  0
  4 17  1  0  0  0  0
  4 18  1  0  0  0  0
  4 19  1  0  0  0  0
  5  6  2  0  0  0  0
  5  7  1  0  0  0  0
  6  8  1  0  0  0  0
  7  9  2  0  0  0  0
  7 20  1  0  0  0  0
  8 10  2  0  0  0  0
  9 10  1  0  0  0  0
  9 21  1  0  0  0  0
 10 22  1  0  0  0  0
M  END
>  <Mol_ID>
7279

>  <Formula>
C9H12O

>  <MolWeight>
136.19098

>  <Cat>
E4302

>  <Name>
2-Ethyl-6-methylphenol

>  <Target>
Bacterial

>  <Form>
Free base

>  <CAS>
1687-64-5

>  <URL>
https://www.selleckchem.com/products/2-ethyl-6-methylphenol.html

$$$$
