2-Fluoroadenosine
 OpenBabel08302521363D

 32 34  0  0  1  0  0  0  0  0999 V2000
    0.4758   -1.9422    0.4117 N   0  0  0  0  0  0  0  0  0  0  0  0
   -3.5417   -3.8816    1.6805 F   0  0  0  0  0  0  0  0  0  0  0  0
   -5.4232    2.0355    1.8974 O   0  0  0  0  0  0  0  0  0  0  0  0
   -5.4956   -1.2689    5.1284 C   0  0  0  0  0  0  0  0  0  0  0  0
   -6.8226   -1.4693    5.6012 O   0  0  0  0  0  0  0  0  0  0  0  0
   -6.2493    2.3547    4.3432 O   0  0  0  0  0  0  0  0  0  0  0  0
   -2.4465   -0.6547    2.2263 C   0  0  0  0  0  0  0  0  0  0  0  0
   -2.6301    0.6119    2.7113 N   0  0  0  0  0  0  0  0  0  0  0  0
   -1.2022   -0.6263    1.6226 C   0  0  0  0  0  0  0  0  0  0  0  0
   -3.2828   -1.7039    2.3042 N   0  0  0  0  0  0  0  0  0  0  0  0
   -1.5236    1.3460    2.3649 C   0  0  0  0  0  0  0  0  0  0  0  0
   -0.6375    0.6268    1.7097 N   0  0  0  0  0  0  0  0  0  0  0  0
   -0.7578   -1.8218    1.0342 C   0  0  0  0  0  0  0  0  0  0  0  0
   -2.7653   -2.7835    1.6851 C   0  0  0  0  0  0  0  0  0  0  0  0
   -1.5747   -2.8984    1.0605 N   0  0  0  0  0  0  0  0  0  0  0  0
   -3.7589    1.1204    3.4557 C   0  0  2  0  0  0  0  0  0  0  0  0
   -3.8194    0.4560    4.7365 O   0  0  0  0  0  0  0  0  0  0  0  0
   -5.1219    0.9583    2.7857 C   0  0  1  0  0  0  0  0  0  0  0  0
   -5.2078    0.2312    5.0600 C   0  0  1  0  0  0  0  0  0  0  0  0
   -6.0363    0.9660    4.0019 C   0  0  1  0  0  0  0  0  0  0  0  0
    0.8915   -1.0511    0.1566 H   0  0  0  0  0  0  0  0  0  0  0  0
    0.4986   -2.6849   -0.2745 H   0  0  0  0  0  0  0  0  0  0  0  0
   -5.9718    2.6620    2.4182 H   0  0  0  0  0  0  0  0  0  0  0  0
   -5.3848   -1.7562    4.1551 H   0  0  0  0  0  0  0  0  0  0  0  0
   -4.7963   -1.7517    5.8204 H   0  0  0  0  0  0  0  0  0  0  0  0
   -6.8530   -2.3498    6.0171 H   0  0  0  0  0  0  0  0  0  0  0  0
   -5.7920    2.5491    5.1818 H   0  0  0  0  0  0  0  0  0  0  0  0
   -1.4160    2.3954    2.6166 H   0  0  0  0  0  0  0  0  0  0  0  0
   -3.5583    2.1811    3.6559 H   0  0  0  0  0  0  0  0  0  0  0  0
   -5.2177    0.0174    2.2381 H   0  0  0  0  0  0  0  0  0  0  0  0
   -5.3882    0.6635    6.0509 H   0  0  0  0  0  0  0  0  0  0  0  0
   -7.0188    0.5291    3.8038 H   0  0  0  0  0  0  0  0  0  0  0  0
  1 13  1  0  0  0  0
  1 21  1  0  0  0  0
  1 22  1  0  0  0  0
  2 14  1  0  0  0  0
  3 23  1  0  0  0  0
  4  5  1  0  0  0  0
  4 24  1  0  0  0  0
  4 25  1  0  0  0  0
  5 26  1  0  0  0  0
  6 27  1  0  0  0  0
  7  8  1  0  0  0  0
  7  9  1  0  0  0  0
  7 10  2  0  0  0  0
  8 11  1  0  0  0  0
  9 12  1  0  0  0  0
  9 13  2  0  0  0  0
 10 14  1  0  0  0  0
 11 12  2  0  0  0  0
 11 28  1  0  0  0  0
 13 15  1  0  0  0  0
 14 15  2  0  0  0  0
 16  8  1  0  0  0  0
 16 17  1  0  0  0  0
 16 18  1  0  0  0  0
 16 29  1  1  0  0  0
 17 19  1  0  0  0  0
 18  3  1  0  0  0  0
 18 20  1  0  0  0  0
 18 30  1  6  0  0  0
 19 20  1  0  0  0  0
 19 31  1  1  0  0  0
 19  4  1  0  0  0  0
 20  6  1  0  0  0  0
 20 32  1  6  0  0  0
M  END
>  <Mol_ID>
7297

>  <Formula>
C10H12FN5O4

>  <MolWeight>
285.2317832

>  <Cat>
E4325

>  <Name>
2-Fluoroadenosine

>  <Synonyms>
2-Fluoroadenosine

>  <Target>
Others

>  <Form>
free base

>  <CAS>
146-78-1

>  <URL>
https://www.selleckchem.com/products/2-fluoroadenosine.html

$$$$
