2-Hexylthiophene
 OpenBabel08302521363D

 27 27  0  0  0  0  0  0  0  0999 V2000
    1.2125    0.1815   -0.2353 C   0  0  0  0  0  0  0  0  0  0  0  0
    0.5853   -0.1068    1.1320 C   0  0  0  0  0  0  0  0  0  0  0  0
    1.0335    0.8506    2.2394 C   0  0  0  0  0  0  0  0  0  0  0  0
    0.7122    2.3319    2.0168 C   0  0  0  0  0  0  0  0  0  0  0  0
   -0.7816    2.6247    1.8698 C   0  0  0  0  0  0  0  0  0  0  0  0
   -1.0396    4.1179    1.7314 C   0  0  0  0  0  0  0  0  0  0  0  0
    0.7531   -0.8252   -1.2519 C   0  0  0  0  0  0  0  0  0  0  0  0
    1.3500   -2.0203   -1.6052 C   0  0  0  0  0  0  0  0  0  0  0  0
   -0.6970   -0.5642   -2.1285 S   0  0  0  0  0  0  0  0  0  0  0  0
    0.5872   -2.7415   -2.5688 C   0  0  0  0  0  0  0  0  0  0  0  0
   -0.5557   -2.0656   -2.9329 C   0  0  0  0  0  0  0  0  0  0  0  0
    2.3070    0.1424   -0.1555 H   0  0  0  0  0  0  0  0  0  0  0  0
    0.9598    1.1923   -0.5758 H   0  0  0  0  0  0  0  0  0  0  0  0
   -0.5085   -0.0981    1.0570 H   0  0  0  0  0  0  0  0  0  0  0  0
    0.8536   -1.1261    1.4396 H   0  0  0  0  0  0  0  0  0  0  0  0
    0.5684    0.5278    3.1796 H   0  0  0  0  0  0  0  0  0  0  0  0
    2.1157    0.7476    2.3802 H   0  0  0  0  0  0  0  0  0  0  0  0
    1.0999    2.8926    2.8768 H   0  0  0  0  0  0  0  0  0  0  0  0
    1.2530    2.7046    1.1396 H   0  0  0  0  0  0  0  0  0  0  0  0
   -1.1862    2.1172    0.9874 H   0  0  0  0  0  0  0  0  0  0  0  0
   -1.3240    2.2458    2.7433 H   0  0  0  0  0  0  0  0  0  0  0  0
   -0.5339    4.5224    0.8486 H   0  0  0  0  0  0  0  0  0  0  0  0
   -2.1121    4.3105    1.6261 H   0  0  0  0  0  0  0  0  0  0  0  0
   -0.6820    4.6621    2.6114 H   0  0  0  0  0  0  0  0  0  0  0  0
    2.2807   -2.3721   -1.1769 H   0  0  0  0  0  0  0  0  0  0  0  0
    0.8586   -3.7105   -2.9694 H   0  0  0  0  0  0  0  0  0  0  0  0
   -1.3166   -2.3787   -3.6341 H   0  0  0  0  0  0  0  0  0  0  0  0
  1  2  1  0  0  0  0
  1  7  1  0  0  0  0
  1 12  1  0  0  0  0
  1 13  1  0  0  0  0
  2  3  1  0  0  0  0
  2 14  1  0  0  0  0
  2 15  1  0  0  0  0
  3  4  1  0  0  0  0
  3 16  1  0  0  0  0
  3 17  1  0  0  0  0
  4  5  1  0  0  0  0
  4 18  1  0  0  0  0
  4 19  1  0  0  0  0
  5  6  1  0  0  0  0
  5 20  1  0  0  0  0
  5 21  1  0  0  0  0
  6 22  1  0  0  0  0
  6 23  1  0  0  0  0
  6 24  1  0  0  0  0
  7  8  2  0  0  0  0
  7  9  1  0  0  0  0
  8 10  1  0  0  0  0
  8 25  1  0  0  0  0
  9 11  1  0  0  0  0
 10 11  2  0  0  0  0
 10 26  1  0  0  0  0
 11 27  1  0  0  0  0
M  END
>  <Mol_ID>
7046

>  <Formula>
C10H16S

>  <MolWeight>
168.29904

>  <Cat>
E4053

>  <Name>
2-Hexylthiophene

>  <Synonyms>
2-Hexylthiophene

>  <Target>
Others

>  <Form>
Free base

>  <CAS>
18794-77-9

>  <URL>
https://www.selleckchem.com/products/2-hexylthiophene.html

$$$$
