2-Hydroxypyridine
 OpenBabel08302521263D

 12 12  0  0  0  0  0  0  0  0999 V2000
   -1.3517   -0.0773    0.0178 C   0  0  0  0  0  0  0  0  0  0  0  0
   -0.7793    1.1837   -0.0152 C   0  0  0  0  0  0  0  0  0  0  0  0
   -0.6515   -1.2230    0.0518 N   0  0  0  0  0  0  0  0  0  0  0  0
   -2.7063   -0.2360    0.0111 O   0  0  0  0  0  0  0  0  0  0  0  0
    0.6099    1.2697   -0.0224 C   0  0  0  0  0  0  0  0  0  0  0  0
    0.6929   -1.1092    0.0435 C   0  0  0  0  0  0  0  0  0  0  0  0
    1.3649    0.1014    0.0049 C   0  0  0  0  0  0  0  0  0  0  0  0
   -1.3812    2.0831   -0.0318 H   0  0  0  0  0  0  0  0  0  0  0  0
   -3.1067    0.6346   -0.1173 H   0  0  0  0  0  0  0  0  0  0  0  0
    1.1007    2.2384   -0.0498 H   0  0  0  0  0  0  0  0  0  0  0  0
    1.2351   -2.0509    0.0690 H   0  0  0  0  0  0  0  0  0  0  0  0
    2.4486    0.1328   -0.0043 H   0  0  0  0  0  0  0  0  0  0  0  0
  1  2  2  0  0  0  0
  1  3  1  0  0  0  0
  1  4  1  0  0  0  0
  2  5  1  0  0  0  0
  2  8  1  0  0  0  0
  3  6  2  0  0  0  0
  4  9  1  0  0  0  0
  5  7  2  0  0  0  0
  5 10  1  0  0  0  0
  6  7  1  0  0  0  0
  6 11  1  0  0  0  0
  7 12  1  0  0  0  0
M  END
>  <Mol_ID>
5260

>  <Formula>
C5H5NO

>  <MolWeight>
95.0993

>  <Cat>
S6360

>  <Name>
2-Hydroxypyridine

>  <Synonyms>
2-Pyridino, 2-Pyridone

>  <Target>
Others

>  <Form>
Free Base

>  <CAS>
142-08-5

>  <URL>
https://www.selleckchem.com/products/2-hydroxypyridine.html

$$$$
