2-Hydroxyflavanone
 OpenBabel08302521373D

 30 32  0  0  0  0  0  0  0  0999 V2000
    2.0944    0.0950    1.3008 O   0  0  0  0  0  0  0  0  0  0  0  0
    0.4146   -3.8824   -3.5969 O   0  0  0  0  0  0  0  0  0  0  0  0
    1.0636   -1.8583   -0.5719 C   0  0  3  0  0  0  0  0  0  0  0  0
    1.7877   -0.9681   -1.4620 O   0  0  0  0  0  0  0  0  0  0  0  0
    0.5331   -3.1017   -1.3130 C   0  0  0  0  0  0  0  0  0  0  0  0
    0.9685   -0.5833   -2.4962 C   0  0  0  0  0  0  0  0  0  0  0  0
    0.4805   -2.9388   -2.8132 C   0  0  0  0  0  0  0  0  0  0  0  0
    0.3926   -1.5584   -3.3044 C   0  0  0  0  0  0  0  0  0  0  0  0
    0.6618    0.7580   -2.6988 C   0  0  0  0  0  0  0  0  0  0  0  0
   -0.3821   -1.2088   -4.4088 C   0  0  0  0  0  0  0  0  0  0  0  0
   -0.1977    1.1117   -3.7439 C   0  0  0  0  0  0  0  0  0  0  0  0
   -0.6793    0.1338   -4.6211 C   0  0  0  0  0  0  0  0  0  0  0  0
    0.1592   -0.9214    0.2211 C   0  0  0  0  0  0  0  0  0  0  0  0
    0.7549    0.0821    1.0161 C   0  0  0  0  0  0  0  0  0  0  0  0
   -1.2199   -0.8307   -0.0190 C   0  0  0  0  0  0  0  0  0  0  0  0
    0.0343    1.1816    1.4689 C   0  0  0  0  0  0  0  0  0  0  0  0
   -1.9408    0.2865    0.4194 C   0  0  0  0  0  0  0  0  0  0  0  0
   -1.3083    1.3044    1.1328 C   0  0  0  0  0  0  0  0  0  0  0  0
    2.5725   -0.2721    0.5367 H   0  0  0  0  0  0  0  0  0  0  0  0
    1.7989   -2.2456    0.1477 H   0  0  0  0  0  0  0  0  0  0  0  0
    1.2269   -3.9318   -1.1246 H   0  0  0  0  0  0  0  0  0  0  0  0
   -0.4528   -3.4159   -0.9522 H   0  0  0  0  0  0  0  0  0  0  0  0
    1.0177    1.5153   -2.0056 H   0  0  0  0  0  0  0  0  0  0  0  0
   -0.7840   -1.9794   -5.0600 H   0  0  0  0  0  0  0  0  0  0  0  0
   -0.5001    2.1499   -3.8695 H   0  0  0  0  0  0  0  0  0  0  0  0
   -1.3238    0.4221   -5.4525 H   0  0  0  0  0  0  0  0  0  0  0  0
   -1.7395   -1.5665   -0.6263 H   0  0  0  0  0  0  0  0  0  0  0  0
    0.5401    1.9703    2.0192 H   0  0  0  0  0  0  0  0  0  0  0  0
   -2.9915    0.3884    0.1584 H   0  0  0  0  0  0  0  0  0  0  0  0
   -1.8543    2.2018    1.4106 H   0  0  0  0  0  0  0  0  0  0  0  0
  1 14  1  0  0  0  0
  1 19  1  0  0  0  0
  2  7  2  0  0  0  0
  3  4  1  0  0  0  0
  3  5  1  0  0  0  0
  3 13  1  0  0  0  0
  3 20  1  0  0  0  0
  4  6  1  0  0  0  0
  5  7  1  0  0  0  0
  5 21  1  0  0  0  0
  5 22  1  0  0  0  0
  6  8  2  0  0  0  0
  6  9  1  0  0  0  0
  7  8  1  0  0  0  0
  8 10  1  0  0  0  0
  9 11  2  0  0  0  0
  9 23  1  0  0  0  0
 10 12  2  0  0  0  0
 10 24  1  0  0  0  0
 11 12  1  0  0  0  0
 11 25  1  0  0  0  0
 12 26  1  0  0  0  0
 13 14  2  0  0  0  0
 13 15  1  0  0  0  0
 14 16  1  0  0  0  0
 15 17  2  0  0  0  0
 15 27  1  0  0  0  0
 16 18  2  0  0  0  0
 16 28  1  0  0  0  0
 17 18  1  0  0  0  0
 17 29  1  0  0  0  0
 18 30  1  0  0  0  0
M  END
>  <Mol_ID>
7465

>  <Formula>
C15H12O3

>  <MolWeight>
240.25398

>  <Cat>
E4570

>  <Name>
2-Hydroxyflavanone

>  <Synonyms>
2-Hydroxyflavanone

>  <Target>
Others

>  <Form>
Free base

>  <CAS>
17348-76-4

>  <URL>
https://www.selleckchem.com/products/2-hydroxyflavanone.html

$$$$
