2-Hydroxymethyltetrahydropyran
 OpenBabel08302521363D

 20 20  0  0  0  0  0  0  0  0999 V2000
    0.8801    0.0398   -0.1537 C   0  0  0  0  0  0  0  0  0  0  0  0
   -0.0209    0.5915   -1.1071 O   0  0  0  0  0  0  0  0  0  0  0  0
    0.5178    0.4943    1.2702 C   0  0  3  0  0  0  0  0  0  0  0  0
    0.5585    2.0149    1.4605 C   0  0  0  0  0  0  0  0  0  0  0  0
    1.3220   -0.1592    2.2628 O   0  0  0  0  0  0  0  0  0  0  0  0
    1.9890    2.5397    1.4930 C   0  0  0  0  0  0  0  0  0  0  0  0
    2.6846    0.2613    2.2962 C   0  0  0  0  0  0  0  0  0  0  0  0
    2.8104    1.7629    2.5137 C   0  0  0  0  0  0  0  0  0  0  0  0
    1.8955    0.3391   -0.4319 H   0  0  0  0  0  0  0  0  0  0  0  0
    0.8362   -1.0530   -0.2174 H   0  0  0  0  0  0  0  0  0  0  0  0
    0.2305    0.2336   -1.9756 H   0  0  0  0  0  0  0  0  0  0  0  0
   -0.5163    0.1774    1.4549 H   0  0  0  0  0  0  0  0  0  0  0  0
    0.0885    2.2562    2.4229 H   0  0  0  0  0  0  0  0  0  0  0  0
   -0.0194    2.5291    0.6852 H   0  0  0  0  0  0  0  0  0  0  0  0
    2.4455    2.4465    0.5008 H   0  0  0  0  0  0  0  0  0  0  0  0
    1.9907    3.6059    1.7448 H   0  0  0  0  0  0  0  0  0  0  0  0
    3.1919   -0.0522    1.3771 H   0  0  0  0  0  0  0  0  0  0  0  0
    3.1695   -0.2684    3.1225 H   0  0  0  0  0  0  0  0  0  0  0  0
    3.8616    2.0661    2.4665 H   0  0  0  0  0  0  0  0  0  0  0  0
    2.4421    2.0100    3.5172 H   0  0  0  0  0  0  0  0  0  0  0  0
  1  2  1  0  0  0  0
  1  3  1  0  0  0  0
  1  9  1  0  0  0  0
  1 10  1  0  0  0  0
  2 11  1  0  0  0  0
  3  4  1  0  0  0  0
  3  5  1  0  0  0  0
  3 12  1  0  0  0  0
  4  6  1  0  0  0  0
  4 13  1  0  0  0  0
  4 14  1  0  0  0  0
  5  7  1  0  0  0  0
  6  8  1  0  0  0  0
  6 15  1  0  0  0  0
  6 16  1  0  0  0  0
  7  8  1  0  0  0  0
  7 17  1  0  0  0  0
  7 18  1  0  0  0  0
  8 19  1  0  0  0  0
  8 20  1  0  0  0  0
M  END
>  <Mol_ID>
7040

>  <Formula>
C6H12O2

>  <MolWeight>
116.15828

>  <Cat>
E4045

>  <Name>
2-Hydroxymethyltetrahydropyran

>  <Synonyms>
Tetrahydropyran-2-methanol

>  <Target>
Others

>  <Form>
Free base

>  <CAS>
100-72-1

>  <URL>
https://www.selleckchem.com/products/2-hydroxymethyltetrahydropyran.html

$$$$
