2-Hydroxypalmitic acid
 OpenBabel08302521373D

 51 50  0  0  0  0  0  0  0  0999 V2000
    3.4801    1.3363   -2.4650 C   0  0  0  0  0  0  0  0  0  0  0  0
    2.8422    2.2156   -1.3882 C   0  0  0  0  0  0  0  0  0  0  0  0
    5.0151    1.4077   -2.5218 C   0  0  0  0  0  0  0  0  0  0  0  0
    1.3138    2.1841   -1.4394 C   0  0  0  0  0  0  0  0  0  0  0  0
    5.7389    0.9090   -1.2659 C   0  0  3  0  0  0  0  0  0  0  0  0
    0.7180    3.0268   -0.3065 C   0  0  0  0  0  0  0  0  0  0  0  0
    7.2552    0.8599   -1.4962 C   0  0  0  0  0  0  0  0  0  0  0  0
    5.5227    1.7833   -0.1414 O   0  0  0  0  0  0  0  0  0  0  0  0
   -0.8098    2.9828   -0.3155 C   0  0  0  0  0  0  0  0  0  0  0  0
    7.9265    1.4935   -0.4971 O   0  0  0  0  0  0  0  0  0  0  0  0
    7.8127    0.3316   -2.4427 O   0  0  0  0  0  0  0  0  0  0  0  0
   -1.4024    3.8397    0.8074 C   0  0  0  0  0  0  0  0  0  0  0  0
   -2.9315    3.7926    0.7923 C   0  0  0  0  0  0  0  0  0  0  0  0
   -3.5317    4.6512    1.9090 C   0  0  0  0  0  0  0  0  0  0  0  0
   -5.0613    4.5979    1.8882 C   0  0  0  0  0  0  0  0  0  0  0  0
   -5.6682    5.4552    3.0010 C   0  0  0  0  0  0  0  0  0  0  0  0
   -7.1968    5.3970    2.9766 C   0  0  0  0  0  0  0  0  0  0  0  0
   -7.8061    6.2433    4.0945 C   0  0  0  0  0  0  0  0  0  0  0  0
   -9.3255    6.1889    4.0701 C   0  0  0  0  0  0  0  0  0  0  0  0
    3.0961    1.6460   -3.4465 H   0  0  0  0  0  0  0  0  0  0  0  0
    3.1713    0.2948   -2.3228 H   0  0  0  0  0  0  0  0  0  0  0  0
    3.1482    1.8690   -0.3971 H   0  0  0  0  0  0  0  0  0  0  0  0
    3.1911    3.2490   -1.5026 H   0  0  0  0  0  0  0  0  0  0  0  0
    5.3419    0.8110   -3.3835 H   0  0  0  0  0  0  0  0  0  0  0  0
    5.3132    2.4429   -2.7311 H   0  0  0  0  0  0  0  0  0  0  0  0
    0.9659    2.5627   -2.4074 H   0  0  0  0  0  0  0  0  0  0  0  0
    0.9651    1.1485   -1.3490 H   0  0  0  0  0  0  0  0  0  0  0  0
    5.4108   -0.0953   -0.9787 H   0  0  0  0  0  0  0  0  0  0  0  0
    1.0867    2.6567    0.6581 H   0  0  0  0  0  0  0  0  0  0  0  0
    1.0595    4.0647   -0.4038 H   0  0  0  0  0  0  0  0  0  0  0  0
    5.3079    2.6681   -0.4928 H   0  0  0  0  0  0  0  0  0  0  0  0
   -1.1797    3.3407   -1.2831 H   0  0  0  0  0  0  0  0  0  0  0  0
   -1.1467    1.9454   -0.2027 H   0  0  0  0  0  0  0  0  0  0  0  0
    7.2557    1.7905    0.1635 H   0  0  0  0  0  0  0  0  0  0  0  0
   -1.0317    3.4860    1.7773 H   0  0  0  0  0  0  0  0  0  0  0  0
   -1.0663    4.8772    0.6907 H   0  0  0  0  0  0  0  0  0  0  0  0
   -3.2992    4.1459   -0.1782 H   0  0  0  0  0  0  0  0  0  0  0  0
   -3.2676    2.7545    0.9078 H   0  0  0  0  0  0  0  0  0  0  0  0
   -3.1654    4.2994    2.8806 H   0  0  0  0  0  0  0  0  0  0  0  0
   -3.1987    5.6899    1.7935 H   0  0  0  0  0  0  0  0  0  0  0  0
   -5.4276    4.9476    0.9152 H   0  0  0  0  0  0  0  0  0  0  0  0
   -5.3937    3.5589    2.0039 H   0  0  0  0  0  0  0  0  0  0  0  0
   -5.3028    5.1062    3.9744 H   0  0  0  0  0  0  0  0  0  0  0  0
   -5.3385    6.4949    2.8854 H   0  0  0  0  0  0  0  0  0  0  0  0
   -7.5627    5.7529    2.0055 H   0  0  0  0  0  0  0  0  0  0  0  0
   -7.5264    4.3563    3.0845 H   0  0  0  0  0  0  0  0  0  0  0  0
   -7.4495    5.8864    5.0677 H   0  0  0  0  0  0  0  0  0  0  0  0
   -7.4820    7.2856    3.9925 H   0  0  0  0  0  0  0  0  0  0  0  0
   -9.6837    5.1612    4.1883 H   0  0  0  0  0  0  0  0  0  0  0  0
   -9.7400    6.7887    4.8865 H   0  0  0  0  0  0  0  0  0  0  0  0
   -9.7170    6.5829    3.1268 H   0  0  0  0  0  0  0  0  0  0  0  0
  1  2  1  0  0  0  0
  1  3  1  0  0  0  0
  1 20  1  0  0  0  0
  1 21  1  0  0  0  0
  2  4  1  0  0  0  0
  2 22  1  0  0  0  0
  2 23  1  0  0  0  0
  3  5  1  0  0  0  0
  3 24  1  0  0  0  0
  3 25  1  0  0  0  0
  4  6  1  0  0  0  0
  4 26  1  0  0  0  0
  4 27  1  0  0  0  0
  5  7  1  0  0  0  0
  5  8  1  0  0  0  0
  5 28  1  0  0  0  0
  6  9  1  0  0  0  0
  6 29  1  0  0  0  0
  6 30  1  0  0  0  0
  7 10  1  0  0  0  0
  7 11  2  0  0  0  0
  8 31  1  0  0  0  0
  9 12  1  0  0  0  0
  9 32  1  0  0  0  0
  9 33  1  0  0  0  0
 10 34  1  0  0  0  0
 12 13  1  0  0  0  0
 12 35  1  0  0  0  0
 12 36  1  0  0  0  0
 13 14  1  0  0  0  0
 13 37  1  0  0  0  0
 13 38  1  0  0  0  0
 14 15  1  0  0  0  0
 14 39  1  0  0  0  0
 14 40  1  0  0  0  0
 15 16  1  0  0  0  0
 15 41  1  0  0  0  0
 15 42  1  0  0  0  0
 16 17  1  0  0  0  0
 16 43  1  0  0  0  0
 16 44  1  0  0  0  0
 17 18  1  0  0  0  0
 17 45  1  0  0  0  0
 17 46  1  0  0  0  0
 18 19  1  0  0  0  0
 18 47  1  0  0  0  0
 18 48  1  0  0  0  0
 19 49  1  0  0  0  0
 19 50  1  0  0  0  0
 19 51  1  0  0  0  0
M  END
>  <Mol_ID>
7415

>  <Formula>
C16H32O3

>  <MolWeight>
272.42348

>  <Cat>
E4514

>  <Name>
2-Hydroxypalmitic acid

>  <Target>
Others

>  <Form>
Free base

>  <CAS>
764-67-0

>  <URL>
https://www.selleckchem.com/products/2-hydroxypalmitic-acid.html

$$$$
