2-Hydroxy Hippuric Acid
 OpenBabel08302521373D

 23 23  0  0  0  0  0  0  0  0999 V2000
    1.0794   -0.0141   -0.0735 C   0  0  0  0  0  0  0  0  0  0  0  0
    0.3913    0.9973    0.5481 N   0  0  0  0  0  0  0  0  0  0  0  0
    0.4955   -0.8962   -0.7010 O   0  0  0  0  0  0  0  0  0  0  0  0
   -1.0628    1.0770    0.5097 C   0  0  0  0  0  0  0  0  0  0  0  0
   -1.5470    1.8223   -0.7343 C   0  0  0  0  0  0  0  0  0  0  0  0
   -1.1470    1.2489   -1.8936 O   0  0  0  0  0  0  0  0  0  0  0  0
   -2.2592    2.8134   -0.6958 O   0  0  0  0  0  0  0  0  0  0  0  0
    2.6404   -2.4455    0.0083 O   0  0  0  0  0  0  0  0  0  0  0  0
    2.5582   -0.0108    0.0083 C   0  0  0  0  0  0  0  0  0  0  0  0
    3.2598   -1.2232    0.0136 C   0  0  0  0  0  0  0  0  0  0  0  0
    3.2771    1.1969    0.0065 C   0  0  0  0  0  0  0  0  0  0  0  0
    4.6536   -1.2365    0.0340 C   0  0  0  0  0  0  0  0  0  0  0  0
    4.6754    1.1787    0.0231 C   0  0  0  0  0  0  0  0  0  0  0  0
    5.3614   -0.0355    0.0367 C   0  0  0  0  0  0  0  0  0  0  0  0
    0.8841    1.6842    1.1093 H   0  0  0  0  0  0  0  0  0  0  0  0
   -1.5046    0.0760    0.5023 H   0  0  0  0  0  0  0  0  0  0  0  0
   -1.3999    1.6059    1.4046 H   0  0  0  0  0  0  0  0  0  0  0  0
   -0.6401    0.4172   -1.7438 H   0  0  0  0  0  0  0  0  0  0  0  0
    1.6892   -2.3112   -0.1777 H   0  0  0  0  0  0  0  0  0  0  0  0
    2.7683    2.1554   -0.0468 H   0  0  0  0  0  0  0  0  0  0  0  0
    5.1868   -2.1841    0.0348 H   0  0  0  0  0  0  0  0  0  0  0  0
    5.2322    2.1129    0.0070 H   0  0  0  0  0  0  0  0  0  0  0  0
    6.4487   -0.0477    0.0392 H   0  0  0  0  0  0  0  0  0  0  0  0
  1  2  1  0  0  0  0
  1  3  2  0  0  0  0
  1  9  1  0  0  0  0
  2  4  1  0  0  0  0
  2 15  1  0  0  0  0
  4  5  1  0  0  0  0
  4 16  1  0  0  0  0
  4 17  1  0  0  0  0
  5  6  1  0  0  0  0
  5  7  2  0  0  0  0
  6 18  1  0  0  0  0
  8 10  1  0  0  0  0
  8 19  1  0  0  0  0
  9 10  2  0  0  0  0
  9 11  1  0  0  0  0
 10 12  1  0  0  0  0
 11 13  2  0  0  0  0
 11 20  1  0  0  0  0
 12 14  2  0  0  0  0
 12 21  1  0  0  0  0
 13 14  1  0  0  0  0
 13 22  1  0  0  0  0
 14 23  1  0  0  0  0
M  END
>  <Mol_ID>
7469

>  <Formula>
C9H9NO4

>  <MolWeight>
195.17206

>  <Cat>
E4574

>  <Name>
2-Hydroxy Hippuric Acid

>  <Synonyms>
2-Hydroxy Hippuric Acid

>  <Target>
Others

>  <Form>
Free base

>  <CAS>
487-54-7

>  <URL>
https://www.selleckchem.com/products/2-hydroxy-hippuric-acid.html

$$$$
