2-Hydroxy-3-methylbutanoic acid
 OpenBabel08302520393D

 18 17  0  0  0  0  0  0  0  0999 V2000
    0.8735    0.1831    0.0837 C   0  0  3  0  0  0  0  0  0  0  0  0
    0.4234   -0.8432    1.1417 C   0  0  0  0  0  0  0  0  0  0  0  0
    2.3935    0.1893   -0.1319 C   0  0  0  0  0  0  0  0  0  0  0  0
    0.4401    1.5206    0.3754 O   0  0  0  0  0  0  0  0  0  0  0  0
    0.9976   -0.5763    2.5365 C   0  0  0  0  0  0  0  0  0  0  0  0
   -1.1044   -0.9125    1.2234 C   0  0  0  0  0  0  0  0  0  0  0  0
    2.8345    1.4216   -0.4909 O   0  0  0  0  0  0  0  0  0  0  0  0
    3.1314   -0.7793   -0.0342 O   0  0  0  0  0  0  0  0  0  0  0  0
    0.4346   -0.0752   -0.8873 H   0  0  0  0  0  0  0  0  0  0  0  0
    0.7837   -1.8317    0.8284 H   0  0  0  0  0  0  0  0  0  0  0  0
    0.4174    1.6306    1.3435 H   0  0  0  0  0  0  0  0  0  0  0  0
    0.6011    0.3460    2.9751 H   0  0  0  0  0  0  0  0  0  0  0  0
    0.7399   -1.3960    3.2156 H   0  0  0  0  0  0  0  0  0  0  0  0
    2.0882   -0.5018    2.5151 H   0  0  0  0  0  0  0  0  0  0  0  0
   -1.5283   -1.2432    0.2693 H   0  0  0  0  0  0  0  0  0  0  0  0
   -1.4205   -1.6270    1.9912 H   0  0  0  0  0  0  0  0  0  0  0  0
   -1.5430    0.0598    1.4709 H   0  0  0  0  0  0  0  0  0  0  0  0
    2.0611    2.0335   -0.4994 H   0  0  0  0  0  0  0  0  0  0  0  0
  1  2  1  0  0  0  0
  1  3  1  0  0  0  0
  1  4  1  0  0  0  0
  1  9  1  0  0  0  0
  2  5  1  0  0  0  0
  2  6  1  0  0  0  0
  2 10  1  0  0  0  0
  3  7  1  0  0  0  0
  3  8  2  0  0  0  0
  4 11  1  0  0  0  0
  5 12  1  0  0  0  0
  5 13  1  0  0  0  0
  5 14  1  0  0  0  0
  6 15  1  0  0  0  0
  6 16  1  0  0  0  0
  6 17  1  0  0  0  0
  7 18  1  0  0  0  0
M  END
>  <Mol_ID>
3563

>  <Formula>
C5H10O3

>  <MolWeight>
118.1311

>  <Cat>
S6098

>  <Name>
2-Hydroxy-3-methylbutanoic acid

>  <Synonyms>
3-Methyl-2-hydroxybutyric acid, 2-Hydroxyisopentanoic acid, 2-Hydroxyisovaleric acid, alpha-Hydroxyisovaleric acid, 2-Oxyisovaleric acid, 2-Oxyisovalerate

>  <Target>
Others

>  <Form>
free base

>  <CAS>
4026-18-0

>  <URL>
http://www.selleck.cn/products/2-hydroxy-3-methylbutanoic-acid.html

$$$$
