2-Hydroxy-2-methylbutanoic acid
 OpenBabel08302520383D

 18 17  0  0  0  0  0  0  0  0999 V2000
    0.8994    0.0005   -0.0039 C   0  0  3  0  0  0  0  0  0  0  0  0
    0.3632    1.2802    0.6600 C   0  0  0  0  0  0  0  0  0  0  0  0
    0.4341   -0.1507   -1.4621 C   0  0  0  0  0  0  0  0  0  0  0  0
    0.4152   -1.1888    0.8258 C   0  0  0  0  0  0  0  0  0  0  0  0
    2.3357    0.0195    0.0906 O   0  0  0  0  0  0  0  0  0  0  0  0
    1.2390    1.7551    1.5881 O   0  0  0  0  0  0  0  0  0  0  0  0
   -0.7026    1.8174    0.4178 O   0  0  0  0  0  0  0  0  0  0  0  0
    0.9075    0.9410   -2.4147 C   0  0  0  0  0  0  0  0  0  0  0  0
    0.7953   -1.1082   -1.8590 H   0  0  0  0  0  0  0  0  0  0  0  0
   -0.6626   -0.1842   -1.4971 H   0  0  0  0  0  0  0  0  0  0  0  0
    0.8234   -2.1308    0.4373 H   0  0  0  0  0  0  0  0  0  0  0  0
    0.7549   -1.1081    1.8660 H   0  0  0  0  0  0  0  0  0  0  0  0
   -0.6773   -1.2573    0.8332 H   0  0  0  0  0  0  0  0  0  0  0  0
    2.6658    0.6908   -0.5381 H   0  0  0  0  0  0  0  0  0  0  0  0
    2.0189    1.1543    1.6243 H   0  0  0  0  0  0  0  0  0  0  0  0
    1.9960    0.9434   -2.5180 H   0  0  0  0  0  0  0  0  0  0  0  0
    0.4860    0.7697   -3.4118 H   0  0  0  0  0  0  0  0  0  0  0  0
    0.5850    1.9327   -2.0845 H   0  0  0  0  0  0  0  0  0  0  0  0
  1  2  1  0  0  0  0
  1  3  1  0  0  0  0
  1  4  1  0  0  0  0
  1  5  1  0  0  0  0
  2  6  1  0  0  0  0
  2  7  2  0  0  0  0
  3  8  1  0  0  0  0
  3  9  1  0  0  0  0
  3 10  1  0  0  0  0
  4 11  1  0  0  0  0
  4 12  1  0  0  0  0
  4 13  1  0  0  0  0
  5 14  1  0  0  0  0
  6 15  1  0  0  0  0
  8 16  1  0  0  0  0
  8 17  1  0  0  0  0
  8 18  1  0  0  0  0
M  END
>  <Mol_ID>
3476

>  <Formula>
C5H10O3

>  <MolWeight>
118.1311

>  <Cat>
S6183

>  <Name>
2-Hydroxy-2-methylbutanoic acid

>  <Synonyms>
N/A

>  <Target>
Others

>  <Form>
free base

>  <CAS>
3739-30-8

>  <URL>
http://www.selleck.cn/products/2-hydroxy-2-methylbutanoic-acid.html

$$$$
