2-Hydroxybenzothiazole
 OpenBabel08302521363D

 15 16  0  0  0  0  0  0  0  0999 V2000
    3.0320    0.6999    0.0043 O   0  0  0  0  0  0  0  0  0  0  0  0
   -0.4731    0.7725    0.0015 C   0  0  0  0  0  0  0  0  0  0  0  0
   -0.4647   -0.6211    0.0052 C   0  0  0  0  0  0  0  0  0  0  0  0
    0.8050    1.3259    0.0029 N   0  0  0  0  0  0  0  0  0  0  0  0
   -1.6544    1.4924   -0.0039 C   0  0  0  0  0  0  0  0  0  0  0  0
    1.1999   -1.2271    0.0086 S   0  0  0  0  0  0  0  0  0  0  0  0
   -1.6473   -1.3394    0.0052 C   0  0  0  0  0  0  0  0  0  0  0  0
    1.8437    0.4240    0.0050 C   0  0  0  0  0  0  0  0  0  0  0  0
   -2.8546    0.7762   -0.0068 C   0  0  0  0  0  0  0  0  0  0  0  0
   -2.8513   -0.6293   -0.0017 C   0  0  0  0  0  0  0  0  0  0  0  0
    0.9935    2.3163    0.0012 H   0  0  0  0  0  0  0  0  0  0  0  0
   -1.6606    2.5766   -0.0069 H   0  0  0  0  0  0  0  0  0  0  0  0
   -1.6436   -2.4246    0.0096 H   0  0  0  0  0  0  0  0  0  0  0  0
   -3.8028    1.3100   -0.0134 H   0  0  0  0  0  0  0  0  0  0  0  0
   -3.7959   -1.1697   -0.0033 H   0  0  0  0  0  0  0  0  0  0  0  0
  1  8  2  0  0  0  0
  2  3  2  0  0  0  0
  2  4  1  0  0  0  0
  2  5  1  0  0  0  0
  3  6  1  0  0  0  0
  3  7  1  0  0  0  0
  4  8  1  0  0  0  0
  4 11  1  0  0  0  0
  5  9  2  0  0  0  0
  5 12  1  0  0  0  0
  6  8  1  0  0  0  0
  7 10  2  0  0  0  0
  7 13  1  0  0  0  0
  9 10  1  0  0  0  0
  9 14  1  0  0  0  0
 10 15  1  0  0  0  0
M  END
>  <Mol_ID>
7266

>  <Formula>
C7H5NOS

>  <MolWeight>
151.1857

>  <Cat>
E4283

>  <Name>
2-Hydroxybenzothiazole

>  <Synonyms>
2-Hydroxybenzothiazole

>  <Target>
Others

>  <Form>
free base

>  <CAS>
934-34-9

>  <URL>
https://www.selleckchem.com/products/2-hydroxybenzothiazole.html

$$$$
