2-Hydroxychalcone
 OpenBabel08302521363D

 29 30  0  0  0  0  0  0  0  0999 V2000
    0.9647   -0.2501    0.0083 C   0  0  0  0  0  0  0  0  0  0  0  0
    0.2239    0.5092   -0.8132 C   0  0  0  0  0  0  0  0  0  0  0  0
   -1.2635    0.6224   -0.8523 C   0  0  0  0  0  0  0  0  0  0  0  0
   -2.0035   -0.2438   -0.4046 O   0  0  0  0  0  0  0  0  0  0  0  0
    0.3706   -3.0953   -0.3198 O   0  0  0  0  0  0  0  0  0  0  0  0
    0.5293   -1.1299    1.0989 C   0  0  0  0  0  0  0  0  0  0  0  0
    0.3052   -2.5012    0.9114 C   0  0  0  0  0  0  0  0  0  0  0  0
    0.4684   -0.6111    2.3992 C   0  0  0  0  0  0  0  0  0  0  0  0
    0.0383   -3.3386    1.9927 C   0  0  0  0  0  0  0  0  0  0  0  0
    0.2068   -1.4508    3.4865 C   0  0  0  0  0  0  0  0  0  0  0  0
   -0.0048   -2.8138    3.2833 C   0  0  0  0  0  0  0  0  0  0  0  0
   -1.8179    1.8028   -1.5771 C   0  0  0  0  0  0  0  0  0  0  0  0
   -3.0287    1.6717   -2.2678 C   0  0  0  0  0  0  0  0  0  0  0  0
   -1.1461    3.0363   -1.5937 C   0  0  0  0  0  0  0  0  0  0  0  0
   -3.5364    2.7457   -3.0042 C   0  0  0  0  0  0  0  0  0  0  0  0
   -1.6588    4.1067   -2.3310 C   0  0  0  0  0  0  0  0  0  0  0  0
   -2.8473    3.9582   -3.0438 C   0  0  0  0  0  0  0  0  0  0  0  0
    2.0474   -0.2263   -0.1053 H   0  0  0  0  0  0  0  0  0  0  0  0
    0.7521    1.1008   -1.5551 H   0  0  0  0  0  0  0  0  0  0  0  0
    0.2907   -2.3889   -0.9824 H   0  0  0  0  0  0  0  0  0  0  0  0
    0.6510    0.4451    2.5808 H   0  0  0  0  0  0  0  0  0  0  0  0
   -0.1273   -4.3993    1.8275 H   0  0  0  0  0  0  0  0  0  0  0  0
    0.1817   -1.0432    4.4939 H   0  0  0  0  0  0  0  0  0  0  0  0
   -0.1992   -3.4689    4.1284 H   0  0  0  0  0  0  0  0  0  0  0  0
   -3.5721    0.7296   -2.2470 H   0  0  0  0  0  0  0  0  0  0  0  0
   -0.2326    3.1873   -1.0276 H   0  0  0  0  0  0  0  0  0  0  0  0
   -4.4705    2.6369   -3.5528 H   0  0  0  0  0  0  0  0  0  0  0  0
   -1.1298    5.0570   -2.3494 H   0  0  0  0  0  0  0  0  0  0  0  0
   -3.2395    4.7899   -3.6243 H   0  0  0  0  0  0  0  0  0  0  0  0
  1  2  2  3  0  0  0
  1  6  1  0  0  0  0
  1 18  1  0  0  0  0
  2  3  1  0  0  0  0
  2 19  1  0  0  0  0
  3  4  2  0  0  0  0
  3 12  1  0  0  0  0
  5  7  1  0  0  0  0
  5 20  1  0  0  0  0
  6  7  2  0  0  0  0
  6  8  1  0  0  0  0
  7  9  1  0  0  0  0
  8 10  2  0  0  0  0
  8 21  1  0  0  0  0
  9 11  2  0  0  0  0
  9 22  1  0  0  0  0
 10 11  1  0  0  0  0
 10 23  1  0  0  0  0
 11 24  1  0  0  0  0
 12 13  2  0  0  0  0
 12 14  1  0  0  0  0
 13 15  1  0  0  0  0
 13 25  1  0  0  0  0
 14 16  2  0  0  0  0
 14 26  1  0  0  0  0
 15 17  2  0  0  0  0
 15 27  1  0  0  0  0
 16 17  1  0  0  0  0
 16 28  1  0  0  0  0
 17 29  1  0  0  0  0
M  END
>  <Mol_ID>
7306

>  <Formula>
C15H12O2

>  <MolWeight>
224.25458

>  <Cat>
E4336

>  <Name>
2-Hydroxychalcone

>  <Synonyms>
2-Hydroxychalcone

>  <Target>
Others

>  <Form>
free base

>  <CAS>
644-78-0

>  <URL>
https://www.selleckchem.com/products/2-hydroxychalcone.html

$$$$
