2-Hydroxycaproic acid
 OpenBabel08302521293D

 21 20  0  0  0  0  0  0  0  0999 V2000
    0.9225   -0.0277   -0.1677 C   0  0  0  0  0  0  0  0  0  0  0  0
    0.4809    1.2911    0.4686 C   0  0  0  0  0  0  0  0  0  0  0  0
    0.9067    2.5469   -0.3065 C   0  0  0  0  0  0  0  0  0  0  0  0
    0.5426   -1.2268    0.6870 C   0  0  0  0  0  0  0  0  0  0  0  0
    0.2272    2.7256   -1.6651 C   0  0  3  0  0  0  0  0  0  0  0  0
    0.5831    4.0691   -2.3110 C   0  0  0  0  0  0  0  0  0  0  0  0
    0.6673    3.9493   -3.6631 O   0  0  0  0  0  0  0  0  0  0  0  0
    0.7620    5.1231   -1.7225 O   0  0  0  0  0  0  0  0  0  0  0  0
    0.6233    1.7098   -2.6054 O   0  0  0  0  0  0  0  0  0  0  0  0
    2.0080   -0.0186   -0.3183 H   0  0  0  0  0  0  0  0  0  0  0  0
    0.4537   -0.1631   -1.1459 H   0  0  0  0  0  0  0  0  0  0  0  0
   -0.6067    1.2945    0.6065 H   0  0  0  0  0  0  0  0  0  0  0  0
    0.9225    1.3566    1.4720 H   0  0  0  0  0  0  0  0  0  0  0  0
    0.6711    3.4173    0.3205 H   0  0  0  0  0  0  0  0  0  0  0  0
    1.9966    2.5402   -0.4297 H   0  0  0  0  0  0  0  0  0  0  0  0
    0.9886   -2.1375    0.2739 H   0  0  0  0  0  0  0  0  0  0  0  0
    0.8912   -1.1124    1.7174 H   0  0  0  0  0  0  0  0  0  0  0  0
   -0.5438   -1.3615    0.7009 H   0  0  0  0  0  0  0  0  0  0  0  0
   -0.8633    2.6842   -1.5720 H   0  0  0  0  0  0  0  0  0  0  0  0
    0.4959    3.0031   -3.8952 H   0  0  0  0  0  0  0  0  0  0  0  0
    1.5657    1.5145   -2.4374 H   0  0  0  0  0  0  0  0  0  0  0  0
  1  2  1  0  0  0  0
  1  4  1  0  0  0  0
  1 10  1  0  0  0  0
  1 11  1  0  0  0  0
  2  3  1  0  0  0  0
  2 12  1  0  0  0  0
  2 13  1  0  0  0  0
  3  5  1  0  0  0  0
  3 14  1  0  0  0  0
  3 15  1  0  0  0  0
  4 16  1  0  0  0  0
  4 17  1  0  0  0  0
  4 18  1  0  0  0  0
  5  6  1  0  0  0  0
  5  9  1  0  0  0  0
  5 19  1  0  0  0  0
  6  7  1  0  0  0  0
  6  8  2  0  0  0  0
  7 20  1  0  0  0  0
  9 21  1  0  0  0  0
M  END
>  <Mol_ID>
5488

>  <Formula>
C6H12O3

>  <MolWeight>
132.15768

>  <Cat>
S3323

>  <Name>
2-Hydroxycaproic acid

>  <Synonyms>
2-Hydroxyhexanoic acid

>  <Target>
Others

>  <Form>
Free Base

>  <CAS>
6064-63-7

>  <URL>
https://www.selleckchem.com/products/2-hydroxycaproic-acid.html

$$$$
