2-Hydroxy-6-methoxybenzoic acid
 OpenBabel08302521363D

 20 20  0  0  0  0  0  0  0  0999 V2000
    0.9366    0.3990    0.1770 C   0  0  0  0  0  0  0  0  0  0  0  0
    0.5056    1.5547   -0.3802 O   0  0  0  0  0  0  0  0  0  0  0  0
    0.1419   -0.2958    0.7735 O   0  0  0  0  0  0  0  0  0  0  0  0
    2.5770   -2.3397   -0.0169 O   0  0  0  0  0  0  0  0  0  0  0  0
    1.2019   -2.6641   -0.0512 C   0  0  0  0  0  0  0  0  0  0  0  0
    2.7357    2.6450   -0.0921 O   0  0  0  0  0  0  0  0  0  0  0  0
    2.4064    0.1963    0.0053 C   0  0  0  0  0  0  0  0  0  0  0  0
    3.0470   -1.0578   -0.0031 C   0  0  0  0  0  0  0  0  0  0  0  0
    3.2253    1.3575   -0.0443 C   0  0  0  0  0  0  0  0  0  0  0  0
    4.4583   -1.0982   -0.0175 C   0  0  0  0  0  0  0  0  0  0  0  0
    4.6147    1.2883   -0.0374 C   0  0  0  0  0  0  0  0  0  0  0  0
    5.2419    0.0541   -0.0190 C   0  0  0  0  0  0  0  0  0  0  0  0
   -0.4434    1.5764   -0.1191 H   0  0  0  0  0  0  0  0  0  0  0  0
    0.7512   -2.5117    0.9311 H   0  0  0  0  0  0  0  0  0  0  0  0
    0.6749   -2.1479   -0.8549 H   0  0  0  0  0  0  0  0  0  0  0  0
    1.1297   -3.7377   -0.2578 H   0  0  0  0  0  0  0  0  0  0  0  0
    1.7938    2.5852   -0.3512 H   0  0  0  0  0  0  0  0  0  0  0  0
    4.9607   -2.0660   -0.0177 H   0  0  0  0  0  0  0  0  0  0  0  0
    5.2056    2.1999   -0.0458 H   0  0  0  0  0  0  0  0  0  0  0  0
    6.3239   -0.0163   -0.0079 H   0  0  0  0  0  0  0  0  0  0  0  0
  1  2  1  0  0  0  0
  1  3  2  0  0  0  0
  1  7  1  0  0  0  0
  2 13  1  0  0  0  0
  4  5  1  0  0  0  0
  4  8  1  0  0  0  0
  5 14  1  0  0  0  0
  5 15  1  0  0  0  0
  5 16  1  0  0  0  0
  6  9  1  0  0  0  0
  6 17  1  0  0  0  0
  7  8  2  0  0  0  0
  7  9  1  0  0  0  0
  8 10  1  0  0  0  0
  9 11  2  0  0  0  0
 10 12  2  0  0  0  0
 10 18  1  0  0  0  0
 11 12  1  0  0  0  0
 11 19  1  0  0  0  0
 12 20  1  0  0  0  0
M  END
>  <Mol_ID>
7207

>  <Formula>
C8H8O4

>  <MolWeight>
168.14672

>  <Cat>
E4210

>  <Name>
2-Hydroxy-6-methoxybenzoic acid

>  <Synonyms>
6-Methoxysalicylic acid

>  <Target>
Others

>  <Form>
Free base

>  <CAS>
3147-64-6

>  <URL>
https://www.selleckchem.com/products/2-hydroxy-6-methoxybenzoic-acid.html

$$$$
