2-Hydroxybutyric acid
 OpenBabel08302520143D

 15 14  0  0  0  0  0  0  0  0999 V2000
    1.0162    0.0323   -0.0377 C   0  0  3  0  0  0  0  0  0  0  0  0
    0.5453   -0.4612   -1.4078 C   0  0  0  0  0  0  0  0  0  0  0  0
    0.4657   -0.8112    1.1110 C   0  0  0  0  0  0  0  0  0  0  0  0
    0.6425    1.4083    0.0935 O   0  0  0  0  0  0  0  0  0  0  0  0
    0.7944    0.4637   -2.3734 O   0  0  0  0  0  0  0  0  0  0  0  0
    0.0129   -1.5351   -1.6408 O   0  0  0  0  0  0  0  0  0  0  0  0
    0.9775   -0.3452    2.4672 C   0  0  0  0  0  0  0  0  0  0  0  0
    2.1113   -0.0150   -0.0405 H   0  0  0  0  0  0  0  0  0  0  0  0
   -0.6297   -0.7751    1.1184 H   0  0  0  0  0  0  0  0  0  0  0  0
    0.7529   -1.8592    0.9648 H   0  0  0  0  0  0  0  0  0  0  0  0
   -0.3174    1.4332    0.2659 H   0  0  0  0  0  0  0  0  0  0  0  0
    1.1724    1.2721   -1.9598 H   0  0  0  0  0  0  0  0  0  0  0  0
    0.6122    0.6577    2.7062 H   0  0  0  0  0  0  0  0  0  0  0  0
    0.6341   -1.0253    3.2533 H   0  0  0  0  0  0  0  0  0  0  0  0
    2.0718   -0.3285    2.4903 H   0  0  0  0  0  0  0  0  0  0  0  0
  1  2  1  0  0  0  0
  1  3  1  0  0  0  0
  1  4  1  0  0  0  0
  1  8  1  0  0  0  0
  2  5  1  0  0  0  0
  2  6  2  0  0  0  0
  3  7  1  0  0  0  0
  3  9  1  0  0  0  0
  3 10  1  0  0  0  0
  4 11  1  0  0  0  0
  5 12  1  0  0  0  0
  7 13  1  0  0  0  0
  7 14  1  0  0  0  0
  7 15  1  0  0  0  0
M  END
>  <Mol_ID>
3196

>  <Formula>
C4H8O3

>  <MolWeight>
104.10452

>  <Cat>
S6119

>  <Name>
2-Hydroxybutyric acid

>  <Synonyms>
¦Á-hydroxybutyrate

>  <Target>
Others

>  <Form>
Free Base

>  <CAS>
600-15-7

>  <URL>
http://www.selleckchem.com/products/2-hydroxybutyric-acid.html

$$$$
