2-Isobutyl-3-methoxypyrazine
 OpenBabel08302521363D

 26 26  0  0  0  0  0  0  0  0999 V2000
    1.1537    0.1850    0.3183 C   0  0  0  0  0  0  0  0  0  0  0  0
    0.5104   -0.1090    1.6902 C   0  0  0  0  0  0  0  0  0  0  0  0
   -1.0019   -0.3445    1.6093 C   0  0  0  0  0  0  0  0  0  0  0  0
    1.1727   -1.3429    2.3136 C   0  0  0  0  0  0  0  0  0  0  0  0
    2.2071    2.8663    0.5705 O   0  0  0  0  0  0  0  0  0  0  0  0
    2.6450    4.2228    0.6215 C   0  0  0  0  0  0  0  0  0  0  0  0
    0.5954    1.3849   -0.4043 C   0  0  0  0  0  0  0  0  0  0  0  0
    1.1111    2.6784   -0.2456 C   0  0  0  0  0  0  0  0  0  0  0  0
   -0.4526    1.1437   -1.2397 N   0  0  0  0  0  0  0  0  0  0  0  0
    0.5949    3.7473   -0.9037 N   0  0  0  0  0  0  0  0  0  0  0  0
   -0.9503    2.2127   -1.8978 C   0  0  0  0  0  0  0  0  0  0  0  0
   -0.4404    3.4845   -1.7323 C   0  0  0  0  0  0  0  0  0  0  0  0
    1.0251   -0.6892   -0.3358 H   0  0  0  0  0  0  0  0  0  0  0  0
    2.2373    0.3028    0.4329 H   0  0  0  0  0  0  0  0  0  0  0  0
    0.6838    0.7475    2.3550 H   0  0  0  0  0  0  0  0  0  0  0  0
   -1.2366   -1.1999    0.9632 H   0  0  0  0  0  0  0  0  0  0  0  0
   -1.4100   -0.5530    2.6052 H   0  0  0  0  0  0  0  0  0  0  0  0
   -1.5270    0.5319    1.2244 H   0  0  0  0  0  0  0  0  0  0  0  0
    2.2419   -1.1727    2.4768 H   0  0  0  0  0  0  0  0  0  0  0  0
    0.7196   -1.5856    3.2801 H   0  0  0  0  0  0  0  0  0  0  0  0
    1.0645   -2.2197    1.6629 H   0  0  0  0  0  0  0  0  0  0  0  0
    2.7778    4.6614   -0.3752 H   0  0  0  0  0  0  0  0  0  0  0  0
    1.9545    4.8248    1.2223 H   0  0  0  0  0  0  0  0  0  0  0  0
    3.6242    4.2425    1.1100 H   0  0  0  0  0  0  0  0  0  0  0  0
   -1.7787    2.0158   -2.5674 H   0  0  0  0  0  0  0  0  0  0  0  0
   -0.8433    4.3327   -2.2714 H   0  0  0  0  0  0  0  0  0  0  0  0
  1  2  1  0  0  0  0
  1  7  1  0  0  0  0
  1 13  1  0  0  0  0
  1 14  1  0  0  0  0
  2  3  1  0  0  0  0
  2  4  1  0  0  0  0
  2 15  1  0  0  0  0
  3 16  1  0  0  0  0
  3 17  1  0  0  0  0
  3 18  1  0  0  0  0
  4 19  1  0  0  0  0
  4 20  1  0  0  0  0
  4 21  1  0  0  0  0
  5  6  1  0  0  0  0
  5  8  1  0  0  0  0
  6 22  1  0  0  0  0
  6 23  1  0  0  0  0
  6 24  1  0  0  0  0
  7  8  2  0  0  0  0
  7  9  1  0  0  0  0
  8 10  1  0  0  0  0
  9 11  2  0  0  0  0
 10 12  2  0  0  0  0
 11 12  1  0  0  0  0
 11 25  1  0  0  0  0
 12 26  1  0  0  0  0
M  END
>  <Mol_ID>
7208

>  <Formula>
C9H14N2O

>  <MolWeight>
166.22026

>  <Cat>
E4212

>  <Name>
2-Isobutyl-3-methoxypyrazine

>  <Target>
Others

>  <Form>
Free base

>  <CAS>
24683-00-9

>  <URL>
https://www.selleckchem.com/products/2-isobutyl-3-methoxypyrazine.html

$$$$
