2-Isopropyl Thioxanthone
 OpenBabel08302521373D

 32 34  0  0  0  0  0  0  0  0999 V2000
   -0.0099   -2.5437   -0.1008 O   0  0  0  0  0  0  0  0  0  0  0  0
   -4.9909   -1.5800    0.2409 C   0  0  0  0  0  0  0  0  0  0  0  0
   -5.7752   -1.2379    1.5119 C   0  0  0  0  0  0  0  0  0  0  0  0
   -5.8770   -1.4408   -0.9998 C   0  0  0  0  0  0  0  0  0  0  0  0
   -1.2894   -0.5867   -0.0077 C   0  0  0  0  0  0  0  0  0  0  0  0
   -1.3641    0.8059   -0.0440 C   0  0  0  0  0  0  0  0  0  0  0  0
    0.0019   -1.3142   -0.0505 C   0  0  0  0  0  0  0  0  0  0  0  0
   -2.4734   -1.3472    0.0761 C   0  0  0  0  0  0  0  0  0  0  0  0
    0.0351    1.8866   -0.1256 S   0  0  0  0  0  0  0  0  0  0  0  0
   -2.6256    1.4175   -0.0158 C   0  0  0  0  0  0  0  0  0  0  0  0
    1.3074   -0.6116   -0.0179 C   0  0  0  0  0  0  0  0  0  0  0  0
   -3.7353   -0.7357    0.1225 C   0  0  0  0  0  0  0  0  0  0  0  0
    1.4128    0.7799   -0.0237 C   0  0  0  0  0  0  0  0  0  0  0  0
   -3.7951    0.6594    0.0643 C   0  0  0  0  0  0  0  0  0  0  0  0
    2.4747   -1.3964    0.0286 C   0  0  0  0  0  0  0  0  0  0  0  0
    2.6878    1.3679    0.0375 C   0  0  0  0  0  0  0  0  0  0  0  0
    3.7349   -0.8007    0.0826 C   0  0  0  0  0  0  0  0  0  0  0  0
    3.8413    0.5845    0.0927 C   0  0  0  0  0  0  0  0  0  0  0  0
   -4.7008   -2.6360    0.3167 H   0  0  0  0  0  0  0  0  0  0  0  0
   -6.1374   -0.2040    1.5062 H   0  0  0  0  0  0  0  0  0  0  0  0
   -6.6466   -1.8928    1.6174 H   0  0  0  0  0  0  0  0  0  0  0  0
   -5.1491   -1.3656    2.4021 H   0  0  0  0  0  0  0  0  0  0  0  0
   -5.3285   -1.7260   -1.9044 H   0  0  0  0  0  0  0  0  0  0  0  0
   -6.7556   -2.0901   -0.9217 H   0  0  0  0  0  0  0  0  0  0  0  0
   -6.2334   -0.4140   -1.1361 H   0  0  0  0  0  0  0  0  0  0  0  0
   -2.4044   -2.4349    0.1117 H   0  0  0  0  0  0  0  0  0  0  0  0
   -2.7129    2.5021   -0.0518 H   0  0  0  0  0  0  0  0  0  0  0  0
   -4.7529    1.1749    0.0865 H   0  0  0  0  0  0  0  0  0  0  0  0
    2.4050   -2.4835    0.0247 H   0  0  0  0  0  0  0  0  0  0  0  0
    2.7942    2.4517    0.0412 H   0  0  0  0  0  0  0  0  0  0  0  0
    4.6284   -1.4192    0.1186 H   0  0  0  0  0  0  0  0  0  0  0  0
    4.8189    1.0579    0.1394 H   0  0  0  0  0  0  0  0  0  0  0  0
  1  7  2  0  0  0  0
  2  3  1  0  0  0  0
  2  4  1  0  0  0  0
  2 12  1  0  0  0  0
  2 19  1  0  0  0  0
  3 20  1  0  0  0  0
  3 21  1  0  0  0  0
  3 22  1  0  0  0  0
  4 23  1  0  0  0  0
  4 24  1  0  0  0  0
  4 25  1  0  0  0  0
  5  6  2  0  0  0  0
  5  7  1  0  0  0  0
  5  8  1  0  0  0  0
  6  9  1  0  0  0  0
  6 10  1  0  0  0  0
  7 11  1  0  0  0  0
  8 12  2  0  0  0  0
  8 26  1  0  0  0  0
  9 13  1  0  0  0  0
 10 14  2  0  0  0  0
 10 27  1  0  0  0  0
 11 13  2  0  0  0  0
 11 15  1  0  0  0  0
 12 14  1  0  0  0  0
 13 16  1  0  0  0  0
 14 28  1  0  0  0  0
 15 17  2  0  0  0  0
 15 29  1  0  0  0  0
 16 18  2  0  0  0  0
 16 30  1  0  0  0  0
 17 18  1  0  0  0  0
 17 31  1  0  0  0  0
 18 32  1  0  0  0  0
M  END
>  <Mol_ID>
7337

>  <Formula>
C16H14OS

>  <MolWeight>
254.34676

>  <Cat>
E4382

>  <Name>
2-Isopropyl Thioxanthone

>  <Synonyms>
2-Isopropyl Thioxanthone

>  <Target>
Others

>  <Form>
free base

>  <CAS>
5495-84-1

>  <URL>
https://www.selleckchem.com/products/2-isopropyl-thioxanthone.html

$$$$
