2-methoxycinnamaldehyde
 OpenBabel08302521223D

 22 22  0  0  0  0  0  0  0  0999 V2000
    1.4715   -0.1896    0.1161 C   0  0  0  0  0  0  0  0  0  0  0  0
    0.6100   -1.3051    0.0575 C   0  0  0  0  0  0  0  0  0  0  0  0
    0.8886    1.0989    0.0814 C   0  0  0  0  0  0  0  0  0  0  0  0
    2.9305   -0.2561    0.3192 C   0  0  0  0  0  0  0  0  0  0  0  0
   -0.7804   -1.0939   -0.0275 C   0  0  0  0  0  0  0  0  0  0  0  0
    0.8807   -2.6453    0.0764 O   0  0  0  0  0  0  0  0  0  0  0  0
   -0.4924    1.2849   -0.0076 C   0  0  0  0  0  0  0  0  0  0  0  0
    3.8259    0.5571   -0.2672 C   0  0  0  0  0  0  0  0  0  0  0  0
   -1.3311    0.1841   -0.0565 C   0  0  0  0  0  0  0  0  0  0  0  0
    2.2015   -3.1435    0.0256 C   0  0  0  0  0  0  0  0  0  0  0  0
    5.2643    0.3951    0.0306 C   0  0  0  0  0  0  0  0  0  0  0  0
    6.1009    1.1645   -0.4251 O   0  0  0  0  0  0  0  0  0  0  0  0
    1.5094    1.9905    0.1500 H   0  0  0  0  0  0  0  0  0  0  0  0
    3.2694   -1.0039    1.0252 H   0  0  0  0  0  0  0  0  0  0  0  0
   -1.4463   -1.9547   -0.0643 H   0  0  0  0  0  0  0  0  0  0  0  0
   -0.9076    2.2893   -0.0218 H   0  0  0  0  0  0  0  0  0  0  0  0
    3.5716    1.3521   -0.9571 H   0  0  0  0  0  0  0  0  0  0  0  0
   -2.4086    0.3125   -0.1101 H   0  0  0  0  0  0  0  0  0  0  0  0
    2.7875   -2.6917   -0.7794 H   0  0  0  0  0  0  0  0  0  0  0  0
    2.6852   -3.0425    1.0009 H   0  0  0  0  0  0  0  0  0  0  0  0
    2.1419   -4.2169   -0.1846 H   0  0  0  0  0  0  0  0  0  0  0  0
    5.5357   -0.4556    0.6773 H   0  0  0  0  0  0  0  0  0  0  0  0
  1  2  2  0  0  0  0
  1  3  1  0  0  0  0
  1  4  1  0  0  0  0
  2  5  1  0  0  0  0
  2  6  1  0  0  0  0
  3  7  2  0  0  0  0
  3 13  1  0  0  0  0
  4  8  2  0  0  0  0
  4 14  1  0  0  0  0
  5  9  2  0  0  0  0
  5 15  1  0  0  0  0
  6 10  1  0  0  0  0
  7  9  1  0  0  0  0
  7 16  1  0  0  0  0
  8 11  1  0  0  0  0
  8 17  1  0  0  0  0
  9 18  1  0  0  0  0
 10 19  1  0  0  0  0
 10 20  1  0  0  0  0
 10 21  1  0  0  0  0
 11 12  2  0  0  0  0
 11 22  1  0  0  0  0
M  END
>  <Mol_ID>
4636

>  <Formula>
C10H10O2

>  <MolWeight>
162.1852

>  <Cat>
S9482

>  <Name>
2-methoxycinnamaldehyde

>  <Synonyms>
O-methoxycinnamaldehyde

>  <Target>
Others

>  <Form>
Free Base

>  <CAS>
1504-74-1

>  <URL>
http://www.selleckchem.com/products/2-methoxycinnamaldehyde.html

$$$$
