2-Mercaptobenzothiazole
 OpenBabel08302521353D

 15 16  0  0  0  0  0  0  0  0999 V2000
   -0.6976    1.3912    0.0202 S   0  0  0  0  0  0  0  0  0  0  0  0
   -1.4813   -0.1942    0.0057 C   0  0  0  0  0  0  0  0  0  0  0  0
   -0.5270   -1.1889   -0.0059 N   0  0  0  0  0  0  0  0  0  0  0  0
    0.7964   -0.7461   -0.0051 C   0  0  0  0  0  0  0  0  0  0  0  0
    0.9090    0.6433    0.0103 C   0  0  0  0  0  0  0  0  0  0  0  0
    1.9106   -1.5655   -0.0177 C   0  0  0  0  0  0  0  0  0  0  0  0
    3.1686   -0.9563   -0.0138 C   0  0  0  0  0  0  0  0  0  0  0  0
    3.2874    0.4440    0.0042 C   0  0  0  0  0  0  0  0  0  0  0  0
    2.1492    1.2561    0.0164 C   0  0  0  0  0  0  0  0  0  0  0  0
   -3.1121   -0.4852    0.0063 S   0  0  0  0  0  0  0  0  0  0  0  0
   -0.7853   -2.1653   -0.0138 H   0  0  0  0  0  0  0  0  0  0  0  0
    1.8224   -2.6462   -0.0310 H   0  0  0  0  0  0  0  0  0  0  0  0
    4.0667   -1.5705   -0.0245 H   0  0  0  0  0  0  0  0  0  0  0  0
    4.2750    0.9002    0.0084 H   0  0  0  0  0  0  0  0  0  0  0  0
    2.2397    2.3374    0.0301 H   0  0  0  0  0  0  0  0  0  0  0  0
  1  2  1  0  0  0  0
  1  5  1  0  0  0  0
  2  3  1  0  0  0  0
  2 10  2  0  0  0  0
  3  4  1  0  0  0  0
  3 11  1  0  0  0  0
  4  5  2  0  0  0  0
  6  7  2  0  0  0  0
  6  4  1  0  0  0  0
  6 12  1  0  0  0  0
  7  8  1  0  0  0  0
  7 13  1  0  0  0  0
  8  9  2  0  0  0  0
  8 14  1  0  0  0  0
  9  5  1  0  0  0  0
  9 15  1  0  0  0  0
M  END
>  <Mol_ID>
6799

>  <Formula>
C7H5NS2

>  <MolWeight>
167.2513

>  <Cat>
E0184

>  <Name>
2-Mercaptobenzothiazole

>  <Synonyms>
Mercapto-2-benzothiazole, Benzothiazole-2-thiol, 2-MBT

>  <Target>
Others

>  <Form>
Free base

>  <CAS>
149-30-4

>  <URL>
http://www.selleckchem.com/products/2-mercaptobenzothiazole.html

$$$$
