2-Methylheptanoic Acid
 OpenBabel08302520393D

 26 25  0  0  0  0  0  0  0  0999 V2000
    1.0352    0.0536    0.1526 C   0  0  3  0  0  0  0  0  0  0  0  0
    0.5169   -0.9216   -0.9219 C   0  0  0  0  0  0  0  0  0  0  0  0
    0.5248    1.4688   -0.1055 C   0  0  0  0  0  0  0  0  0  0  0  0
    2.5647    0.0731    0.2193 C   0  0  0  0  0  0  0  0  0  0  0  0
    1.0345   -2.3563   -0.7439 C   0  0  0  0  0  0  0  0  0  0  0  0
   -0.8175    1.5864    0.0206 O   0  0  0  0  0  0  0  0  0  0  0  0
    1.2279    2.4306   -0.3693 O   0  0  0  0  0  0  0  0  0  0  0  0
    0.4571   -3.3640   -1.7438 C   0  0  0  0  0  0  0  0  0  0  0  0
    0.8098   -3.0499   -3.1987 C   0  0  0  0  0  0  0  0  0  0  0  0
    0.2838   -4.1198   -4.1435 C   0  0  0  0  0  0  0  0  0  0  0  0
    0.6633   -0.2480    1.1424 H   0  0  0  0  0  0  0  0  0  0  0  0
   -0.5804   -0.9407   -0.9062 H   0  0  0  0  0  0  0  0  0  0  0  0
    0.8011   -0.5399   -1.9097 H   0  0  0  0  0  0  0  0  0  0  0  0
    2.9232    0.8632    0.8893 H   0  0  0  0  0  0  0  0  0  0  0  0
    2.9607   -0.8739    0.5988 H   0  0  0  0  0  0  0  0  0  0  0  0
    2.9980    0.2550   -0.7709 H   0  0  0  0  0  0  0  0  0  0  0  0
    2.1260   -2.3773   -0.8332 H   0  0  0  0  0  0  0  0  0  0  0  0
    0.7907   -2.6992    0.2694 H   0  0  0  0  0  0  0  0  0  0  0  0
   -1.2719    0.7600    0.2644 H   0  0  0  0  0  0  0  0  0  0  0  0
    0.8530   -4.3558   -1.4895 H   0  0  0  0  0  0  0  0  0  0  0  0
   -0.6314   -3.4194   -1.6259 H   0  0  0  0  0  0  0  0  0  0  0  0
    0.3831   -2.0864   -3.4949 H   0  0  0  0  0  0  0  0  0  0  0  0
    1.8978   -2.9747   -3.3106 H   0  0  0  0  0  0  0  0  0  0  0  0
   -0.8069   -4.1924   -4.0838 H   0  0  0  0  0  0  0  0  0  0  0  0
    0.5511   -3.8763   -5.1767 H   0  0  0  0  0  0  0  0  0  0  0  0
    0.7083   -5.1001   -3.9055 H   0  0  0  0  0  0  0  0  0  0  0  0
  1  2  1  0  0  0  0
  1  3  1  0  0  0  0
  1  4  1  0  0  0  0
  1 11  1  0  0  0  0
  2  5  1  0  0  0  0
  2 12  1  0  0  0  0
  2 13  1  0  0  0  0
  3  6  1  0  0  0  0
  3  7  2  0  0  0  0
  4 14  1  0  0  0  0
  4 15  1  0  0  0  0
  4 16  1  0  0  0  0
  5  8  1  0  0  0  0
  5 17  1  0  0  0  0
  5 18  1  0  0  0  0
  6 19  1  0  0  0  0
  8  9  1  0  0  0  0
  8 20  1  0  0  0  0
  8 21  1  0  0  0  0
  9 10  1  0  0  0  0
  9 22  1  0  0  0  0
  9 23  1  0  0  0  0
 10 24  1  0  0  0  0
 10 25  1  0  0  0  0
 10 26  1  0  0  0  0
M  END
>  <Mol_ID>
3564

>  <Formula>
C8H16O2

>  <MolWeight>
144.21144

>  <Cat>
S6099

>  <Name>
2-Methylheptanoic Acid

>  <Synonyms>
N/A

>  <Target>
Others

>  <Form>
free base

>  <CAS>
1188-02-9

>  <URL>
http://www.selleck.cn/products/methylheptanoic-acid.html

$$$$
