2-Methyltetrahydrofuran-3-one
 OpenBabel08302520393D

 15 15  0  0  0  0  0  0  0  0999 V2000
   -0.8182   -0.9381   -0.0213 C   0  0  0  0  0  0  0  0  0  0  0  0
    0.6848   -1.0198    0.1158 C   0  0  3  0  0  0  0  0  0  0  0  0
   -1.2853    0.4626    0.1714 C   0  0  0  0  0  0  0  0  0  0  0  0
   -1.5621   -1.8907   -0.2064 O   0  0  0  0  0  0  0  0  0  0  0  0
    1.0669    0.3588    0.3123 O   0  0  0  0  0  0  0  0  0  0  0  0
    1.0921   -1.8165    1.3353 C   0  0  0  0  0  0  0  0  0  0  0  0
   -0.0016    1.1799   -0.1750 C   0  0  0  0  0  0  0  0  0  0  0  0
    1.1335   -1.3879   -0.8113 H   0  0  0  0  0  0  0  0  0  0  0  0
   -2.1131    0.7317   -0.4847 H   0  0  0  0  0  0  0  0  0  0  0  0
   -1.5499    0.5927    1.2245 H   0  0  0  0  0  0  0  0  0  0  0  0
    0.7657   -2.8581    1.2595 H   0  0  0  0  0  0  0  0  0  0  0  0
    2.1784   -1.7913    1.4668 H   0  0  0  0  0  0  0  0  0  0  0  0
    0.6530   -1.3882    2.2439 H   0  0  0  0  0  0  0  0  0  0  0  0
    0.0587    2.1682    0.2897 H   0  0  0  0  0  0  0  0  0  0  0  0
    0.1162    1.2965   -1.2590 H   0  0  0  0  0  0  0  0  0  0  0  0
  1  2  1  0  0  0  0
  1  3  1  0  0  0  0
  1  4  2  0  0  0  0
  2  5  1  0  0  0  0
  2  6  1  0  0  0  0
  2  8  1  0  0  0  0
  3  7  1  0  0  0  0
  3  9  1  0  0  0  0
  3 10  1  0  0  0  0
  5  7  1  0  0  0  0
  6 11  1  0  0  0  0
  6 12  1  0  0  0  0
  6 13  1  0  0  0  0
  7 14  1  0  0  0  0
  7 15  1  0  0  0  0
M  END
>  <Mol_ID>
3627

>  <Formula>
C5H8O2

>  <MolWeight>
100.11582

>  <Cat>
S6274

>  <Name>
2-Methyltetrahydrofuran-3-one

>  <Synonyms>
N/A

>  <Target>
Others

>  <Form>
free base

>  <CAS>
3188-00-9

>  <URL>
http://www.selleck.cn/products/methyltetrahydrofuran-3-one.html

$$$$
