2-Methoxyestradiol.cdx
 OpenBabel08302522013D

 48 51  0  0  0  0  0  0  0  0999 V2000
    3.9500    1.4192    0.0457 C   0  0  0  0  0  0  0  0  0  0  0  0
    4.5251    0.1852   -0.2517 C   0  0  0  0  0  0  0  0  0  0  0  0
    3.7339   -0.9681   -0.2442 C   0  0  0  0  0  0  0  0  0  0  0  0
    2.3623   -0.9272    0.0496 C   0  0  0  0  0  0  0  0  0  0  0  0
    1.7519    0.3076    0.3229 C   0  0  0  0  0  0  0  0  0  0  0  0
    2.5688    1.4536    0.3372 C   0  0  0  0  0  0  0  0  0  0  0  0
    1.5957   -2.2256   -0.0060 C   0  0  0  0  0  0  0  0  0  0  0  0
    0.1494   -2.1319    0.4689 C   0  0  0  0  0  0  0  0  0  0  0  0
   -0.4903   -0.8236   -0.0058 C   0  0  2  0  0  0  0  0  0  0  0  0
    0.2648    0.3684    0.6632 C   0  0  2  0  0  0  0  0  0  0  0  0
   -1.9745   -0.7522    0.3510 C   0  0  1  0  0  0  0  0  0  0  0  0
   -2.6300    0.5600   -0.1221 C   0  0  2  0  0  0  0  0  0  0  0  0
   -1.9483    1.7183    0.6165 C   0  0  0  0  0  0  0  0  0  0  0  0
   -0.4260    1.7283    0.3777 C   0  0  0  0  0  0  0  0  0  0  0  0
   -2.9168   -1.8303   -0.1815 C   0  0  0  0  0  0  0  0  0  0  0  0
   -4.3148   -1.1954   -0.0653 C   0  0  0  0  0  0  0  0  0  0  0  0
   -4.0832    0.2813    0.3133 C   0  0  2  0  0  0  0  0  0  0  0  0
    4.4991    2.6677    0.1116 O   0  0  0  0  0  0  0  0  0  0  0  0
    5.8647    2.8945   -0.1679 C   0  0  0  0  0  0  0  0  0  0  0  0
    5.8258   -0.0714   -0.5689 O   0  0  0  0  0  0  0  0  0  0  0  0
   -2.5516    0.8065   -1.6500 C   0  0  0  0  0  0  0  0  0  0  0  0
   -5.0395    1.1426   -0.2734 O   0  0  0  0  0  0  0  0  0  0  0  0
    4.2037   -1.9227   -0.4784 H   0  0  0  0  0  0  0  0  0  0  0  0
    2.1398    2.4242    0.5782 H   0  0  0  0  0  0  0  0  0  0  0  0
    1.6017   -2.5728   -1.0477 H   0  0  0  0  0  0  0  0  0  0  0  0
    2.1138   -2.9835    0.5947 H   0  0  0  0  0  0  0  0  0  0  0  0
   -0.4010   -3.0029    0.0963 H   0  0  0  0  0  0  0  0  0  0  0  0
    0.1173   -2.1849    1.5645 H   0  0  0  0  0  0  0  0  0  0  0  0
   -0.3738   -0.7698   -1.0963 H   0  0  0  0  0  0  0  0  0  0  0  0
    0.2105    0.2252    1.7537 H   0  0  0  0  0  0  0  0  0  0  0  0
   -2.0417   -0.8023    1.4506 H   0  0  0  0  0  0  0  0  0  0  0  0
   -2.1284    1.6315    1.6958 H   0  0  0  0  0  0  0  0  0  0  0  0
   -2.3770    2.6797    0.3091 H   0  0  0  0  0  0  0  0  0  0  0  0
   -0.0015    2.5032    1.0277 H   0  0  0  0  0  0  0  0  0  0  0  0
   -0.2138    2.0458   -0.6502 H   0  0  0  0  0  0  0  0  0  0  0  0
   -2.6943   -2.0771   -1.2268 H   0  0  0  0  0  0  0  0  0  0  0  0
   -2.8522   -2.7568    0.3975 H   0  0  0  0  0  0  0  0  0  0  0  0
   -4.8717   -1.3048   -1.0025 H   0  0  0  0  0  0  0  0  0  0  0  0
   -4.9035   -1.6929    0.7134 H   0  0  0  0  0  0  0  0  0  0  0  0
   -4.1797    0.3870    1.4014 H   0  0  0  0  0  0  0  0  0  0  0  0
    6.5040    2.3915    0.5648 H   0  0  0  0  0  0  0  0  0  0  0  0
    6.1113    2.6137   -1.1970 H   0  0  0  0  0  0  0  0  0  0  0  0
    6.0529    3.9688   -0.0726 H   0  0  0  0  0  0  0  0  0  0  0  0
    6.3564    0.7274   -0.5165 H   0  0  0  0  0  0  0  0  0  0  0  0
   -3.0347    0.0119   -2.2268 H   0  0  0  0  0  0  0  0  0  0  0  0
   -3.0489    1.7466   -1.9149 H   0  0  0  0  0  0  0  0  0  0  0  0
   -1.5239    0.8811   -2.0148 H   0  0  0  0  0  0  0  0  0  0  0  0
   -5.1021    0.9375   -1.2212 H   0  0  0  0  0  0  0  0  0  0  0  0
  1  2  2  0  0  0  0
  1 18  1  0  0  0  0
  2  3  1  0  0  0  0
  2 20  1  0  0  0  0
  3  4  2  0  0  0  0
  3 23  1  0  0  0  0
  4  5  1  0  0  0  0
  4  7  1  0  0  0  0
  5  6  2  0  0  0  0
  6  1  1  0  0  0  0
  6 24  1  0  0  0  0
  7  8  1  0  0  0  0
  7 25  1  0  0  0  0
  7 26  1  0  0  0  0
  8 27  1  0  0  0  0
  8 28  1  0  0  0  0
  9  8  1  0  0  0  0
  9 10  1  0  0  0  0
  9 11  1  0  0  0  0
  9 29  1  6  0  0  0
 10  5  1  0  0  0  0
 10 14  1  0  0  0  0
 10 30  1  1  0  0  0
 11 12  1  0  0  0  0
 11 15  1  0  0  0  0
 11 31  1  1  0  0  0
 12 13  1  0  0  0  0
 12 21  1  6  0  0  0
 13 14  1  0  0  0  0
 13 32  1  0  0  0  0
 13 33  1  0  0  0  0
 14 34  1  0  0  0  0
 14 35  1  0  0  0  0
 15 16  1  0  0  0  0
 15 36  1  0  0  0  0
 15 37  1  0  0  0  0
 16 17  1  0  0  0  0
 16 38  1  0  0  0  0
 16 39  1  0  0  0  0
 17 12  1  0  0  0  0
 17 22  1  0  0  0  0
 17 40  1  1  0  0  0
 18 19  1  0  0  0  0
 19 41  1  0  0  0  0
 19 42  1  0  0  0  0
 19 43  1  0  0  0  0
 20 44  1  0  0  0  0
 21 45  1  0  0  0  0
 21 46  1  0  0  0  0
 21 47  1  0  0  0  0
 22 48  1  0  0  0  0
M  END
>  <Mol_ID>
133

>  <Formula>
C19H26O3

>  <MolWeight>
302.40794

>  <Cat>
S1233

>  <Name>
2-Methoxyestradiol (2-MeOE2)

>  <Synonyms>
NSC 659853, 2-ME2

>  <Target>
Apoptosis related,Autophagy,HIF,Microtubule Associated

>  <Form>
free base

>  <CAS>
362-07-2

>  <URL>
http://selleckchem.com/products/2-Methoxyestradiol(2ME2).html

$$$$
