2-Methylsuccinic acid
 OpenBabel08302520393D

 17 16  0  0  0  0  0  0  0  0999 V2000
    0.8940   -0.1313   -0.0941 C   0  0  3  0  0  0  0  0  0  0  0  0
    0.4498    0.6944   -1.2963 C   0  0  0  0  0  0  0  0  0  0  0  0
    0.4036   -1.5643   -0.1609 C   0  0  0  0  0  0  0  0  0  0  0  0
    0.4795    0.5225    1.2207 C   0  0  0  0  0  0  0  0  0  0  0  0
    0.8849    0.0940   -2.6079 C   0  0  0  0  0  0  0  0  0  0  0  0
   -0.9337   -1.7179   -0.1537 O   0  0  0  0  0  0  0  0  0  0  0  0
    1.1696   -2.5172   -0.1950 O   0  0  0  0  0  0  0  0  0  0  0  0
    2.2161    0.1227   -2.8135 O   0  0  0  0  0  0  0  0  0  0  0  0
    0.0970   -0.3446   -3.4311 O   0  0  0  0  0  0  0  0  0  0  0  0
    1.9910   -0.1872   -0.0957 H   0  0  0  0  0  0  0  0  0  0  0  0
   -0.6431    0.7882   -1.3235 H   0  0  0  0  0  0  0  0  0  0  0  0
    0.8428    1.7161   -1.2432 H   0  0  0  0  0  0  0  0  0  0  0  0
    0.8328   -0.0662    2.0742 H   0  0  0  0  0  0  0  0  0  0  0  0
    0.9067    1.5275    1.3038 H   0  0  0  0  0  0  0  0  0  0  0  0
   -0.6083    0.6103    1.3075 H   0  0  0  0  0  0  0  0  0  0  0  0
   -1.4666   -0.9019   -0.1431 H   0  0  0  0  0  0  0  0  0  0  0  0
    2.7500    0.5028   -2.0908 H   0  0  0  0  0  0  0  0  0  0  0  0
  1  2  1  0  0  0  0
  1  3  1  0  0  0  0
  1  4  1  0  0  0  0
  1 10  1  0  0  0  0
  2  5  1  0  0  0  0
  2 11  1  0  0  0  0
  2 12  1  0  0  0  0
  3  6  1  0  0  0  0
  3  7  2  0  0  0  0
  4 13  1  0  0  0  0
  4 14  1  0  0  0  0
  4 15  1  0  0  0  0
  5  8  1  0  0  0  0
  5  9  2  0  0  0  0
  6 16  1  0  0  0  0
  8 17  1  0  0  0  0
M  END
>  <Mol_ID>
3679

>  <Formula>
C5H8O4

>  <MolWeight>
132.11462

>  <Cat>
S6356

>  <Name>
2-Methylsuccinic acid

>  <Synonyms>
Pyrotartaric acid; 2-methylbutanedioic acid; propane-1,2-dicarboxylic acid; Methylsuccinate

>  <Target>
Others

>  <Form>
free base

>  <CAS>
498-21-5

>  <URL>
http://www.selleck.cn/products/2-methylsuccinic-acid.html

$$$$
