2-Methylbenzoxazole
 OpenBabel08302521363D

 17 18  0  0  0  0  0  0  0  0999 V2000
    1.0325    0.1321    0.0709 C   0  0  0  0  0  0  0  0  0  0  0  0
   -0.2820    2.6441    2.2405 C   0  0  0  0  0  0  0  0  0  0  0  0
    0.4555    3.3887    1.3340 C   0  0  0  0  0  0  0  0  0  0  0  0
   -0.2106    1.3125    1.9178 N   0  0  0  0  0  0  0  0  0  0  0  0
   -0.9395    3.3053    3.2860 C   0  0  0  0  0  0  0  0  0  0  0  0
    1.0000    2.5242    0.4291 O   0  0  0  0  0  0  0  0  0  0  0  0
    0.5990    4.7700    1.3766 C   0  0  0  0  0  0  0  0  0  0  0  0
    0.5638    1.2948    0.8500 C   0  0  0  0  0  0  0  0  0  0  0  0
   -0.8125    4.6995    3.3694 C   0  0  0  0  0  0  0  0  0  0  0  0
   -0.0582    5.4164    2.4317 C   0  0  0  0  0  0  0  0  0  0  0  0
    0.6516    0.1746   -0.9534 H   0  0  0  0  0  0  0  0  0  0  0  0
    0.6882   -0.8008    0.5276 H   0  0  0  0  0  0  0  0  0  0  0  0
    2.1259    0.1111    0.0368 H   0  0  0  0  0  0  0  0  0  0  0  0
   -1.5207    2.7456    4.0099 H   0  0  0  0  0  0  0  0  0  0  0  0
    1.1884    5.3062    0.6437 H   0  0  0  0  0  0  0  0  0  0  0  0
   -1.3086    5.2314    4.1797 H   0  0  0  0  0  0  0  0  0  0  0  0
    0.0227    6.4980    2.5261 H   0  0  0  0  0  0  0  0  0  0  0  0
  1  8  1  0  0  0  0
  1 11  1  0  0  0  0
  1 12  1  0  0  0  0
  1 13  1  0  0  0  0
  2  3  2  0  0  0  0
  2  4  1  0  0  0  0
  2  5  1  0  0  0  0
  3  6  1  0  0  0  0
  3  7  1  0  0  0  0
  4  8  2  0  0  0  0
  5  9  2  0  0  0  0
  5 14  1  0  0  0  0
  6  8  1  0  0  0  0
  7 10  2  0  0  0  0
  7 15  1  0  0  0  0
  9 10  1  0  0  0  0
  9 16  1  0  0  0  0
 10 17  1  0  0  0  0
M  END
>  <Mol_ID>
7230

>  <Formula>
C8H7NO

>  <MolWeight>
133.14728

>  <Cat>
E4237

>  <Name>
2-Methylbenzoxazole

>  <Target>
Others

>  <Form>
Free base

>  <CAS>
95-21-6

>  <URL>
https://www.selleckchem.com/products/2-methylbenzoxazole.html

$$$$
