2-Methoxybenzoic acid
 OpenBabel08302520393D

 19 19  0  0  0  0  0  0  0  0999 V2000
    1.4518   -0.2402    0.1478 C   0  0  0  0  0  0  0  0  0  0  0  0
    0.5905   -1.3468    0.0734 C   0  0  0  0  0  0  0  0  0  0  0  0
   -0.7941   -1.1056   -0.0493 C   0  0  0  0  0  0  0  0  0  0  0  0
   -1.3265    0.1823   -0.1000 C   0  0  0  0  0  0  0  0  0  0  0  0
   -0.4753    1.2726   -0.0468 C   0  0  0  0  0  0  0  0  0  0  0  0
    0.8979    1.0621    0.0748 C   0  0  0  0  0  0  0  0  0  0  0  0
    0.8187   -2.6924    0.0682 O   0  0  0  0  0  0  0  0  0  0  0  0
    2.1145   -3.2402    0.1974 C   0  0  0  0  0  0  0  0  0  0  0  0
    2.9188   -0.2869    0.3754 C   0  0  0  0  0  0  0  0  0  0  0  0
    3.5485   -1.0551    1.0781 O   0  0  0  0  0  0  0  0  0  0  0  0
    3.5602    0.7151   -0.2616 O   0  0  0  0  0  0  0  0  0  0  0  0
   -1.4758   -1.9542   -0.1040 H   0  0  0  0  0  0  0  0  0  0  0  0
   -2.4006    0.3245   -0.1819 H   0  0  0  0  0  0  0  0  0  0  0  0
   -0.8724    2.2832   -0.0901 H   0  0  0  0  0  0  0  0  0  0  0  0
    1.5442    1.9380    0.1292 H   0  0  0  0  0  0  0  0  0  0  0  0
    2.7997   -2.8549   -0.5618 H   0  0  0  0  0  0  0  0  0  0  0  0
    2.4839   -3.1144    1.2175 H   0  0  0  0  0  0  0  0  0  0  0  0
    2.0280   -4.3199    0.0326 H   0  0  0  0  0  0  0  0  0  0  0  0
    4.4930    0.6155    0.0261 H   0  0  0  0  0  0  0  0  0  0  0  0
  1  2  2  0  0  0  0
  1  6  1  0  0  0  0
  1  9  1  0  0  0  0
  2  3  1  0  0  0  0
  2  7  1  0  0  0  0
  3  4  2  0  0  0  0
  3 12  1  0  0  0  0
  4  5  1  0  0  0  0
  4 13  1  0  0  0  0
  5  6  2  0  0  0  0
  5 14  1  0  0  0  0
  6 15  1  0  0  0  0
  7  8  1  0  0  0  0
  8 16  1  0  0  0  0
  8 17  1  0  0  0  0
  8 18  1  0  0  0  0
  9 10  2  0  0  0  0
  9 11  1  0  0  0  0
 11 19  1  0  0  0  0
M  END
>  <Mol_ID>
3643

>  <Formula>
C8H8O3

>  <MolWeight>
152.14732

>  <Cat>
S6295

>  <Name>
2-Methoxybenzoic acid

>  <Synonyms>
o-Anisic acid

>  <Target>
Others

>  <Form>
free base

>  <CAS>
579-75-9

>  <URL>
http://www.selleck.cn/products/2-methoxybenzoic-acid.html

$$$$
