2-Methylpentanedioic acid
 OpenBabel08302520393D

 20 19  0  0  0  0  0  0  0  0999 V2000
    1.1321   -0.1187    0.0965 C   0  0  0  0  0  0  0  0  0  0  0  0
    0.3751    0.1564    1.3876 C   0  0  3  0  0  0  0  0  0  0  0  0
   -0.6351    1.2865    1.1229 C   0  0  0  0  0  0  0  0  0  0  0  0
   -1.4951    1.7112    2.3162 C   0  0  0  0  0  0  0  0  0  0  0  0
   -0.6910    2.1996    3.4917 C   0  0  0  0  0  0  0  0  0  0  0  0
    0.7606   -0.8892   -0.7739 O   0  0  0  0  0  0  0  0  0  0  0  0
    2.2589    0.6192   -0.0262 O   0  0  0  0  0  0  0  0  0  0  0  0
    0.5092    2.4107    3.5254 O   0  0  0  0  0  0  0  0  0  0  0  0
   -1.4622    2.4095    4.5752 O   0  0  0  0  0  0  0  0  0  0  0  0
   -0.2573   -1.1371    1.8974 C   0  0  0  0  0  0  0  0  0  0  0  0
    1.1061    0.4663    2.1424 H   0  0  0  0  0  0  0  0  0  0  0  0
   -0.0904    2.1661    0.7529 H   0  0  0  0  0  0  0  0  0  0  0  0
   -1.3073    0.9882    0.3070 H   0  0  0  0  0  0  0  0  0  0  0  0
   -2.1463    2.5359    2.0028 H   0  0  0  0  0  0  0  0  0  0  0  0
   -2.1337    0.8832    2.6392 H   0  0  0  0  0  0  0  0  0  0  0  0
    2.4309    1.2130    0.7279 H   0  0  0  0  0  0  0  0  0  0  0  0
   -0.8450    2.7259    5.2678 H   0  0  0  0  0  0  0  0  0  0  0  0
    0.5268   -1.8512    2.1753 H   0  0  0  0  0  0  0  0  0  0  0  0
   -0.8703   -0.9686    2.7865 H   0  0  0  0  0  0  0  0  0  0  0  0
   -0.8800   -1.6157    1.1352 H   0  0  0  0  0  0  0  0  0  0  0  0
  1  2  1  0  0  0  0
  1  6  2  0  0  0  0
  1  7  1  0  0  0  0
  2  3  1  0  0  0  0
  2 10  1  0  0  0  0
  2 11  1  0  0  0  0
  3  4  1  0  0  0  0
  3 12  1  0  0  0  0
  3 13  1  0  0  0  0
  4  5  1  0  0  0  0
  4 14  1  0  0  0  0
  4 15  1  0  0  0  0
  5  8  2  0  0  0  0
  5  9  1  0  0  0  0
  7 16  1  0  0  0  0
  9 17  1  0  0  0  0
 10 18  1  0  0  0  0
 10 19  1  0  0  0  0
 10 20  1  0  0  0  0
M  END
>  <Mol_ID>
3569

>  <Formula>
C6H10O4

>  <MolWeight>
146.1412

>  <Cat>
S6110

>  <Name>
2-Methylpentanedioic acid

>  <Synonyms>
alpha-Methylglutaric acid

>  <Target>
Others

>  <Form>
free base

>  <CAS>
617-62-9

>  <URL>
http://www.selleck.cn/products/2-methylpentanedioic-acid.html

$$$$
