2-Methyllactic acid
 OpenBabel08302520393D

 15 14  0  0  0  0  0  0  0  0999 V2000
    0.9669    0.0756    0.1061 C   0  0  0  0  0  0  0  0  0  0  0  0
    0.4440    0.5543    1.4702 C   0  0  0  0  0  0  0  0  0  0  0  0
    0.5462    1.0209   -1.0147 C   0  0  0  0  0  0  0  0  0  0  0  0
    0.4676   -1.3419   -0.1444 C   0  0  0  0  0  0  0  0  0  0  0  0
    2.4034    0.0316    0.1865 O   0  0  0  0  0  0  0  0  0  0  0  0
    1.3306    0.2658    2.4606 O   0  0  0  0  0  0  0  0  0  0  0  0
   -0.6197    1.1173    1.6707 O   0  0  0  0  0  0  0  0  0  0  0  0
    0.9705    0.7011   -1.9735 H   0  0  0  0  0  0  0  0  0  0  0  0
   -0.5428    1.0700   -1.1153 H   0  0  0  0  0  0  0  0  0  0  0  0
    0.9129    2.0373   -0.8306 H   0  0  0  0  0  0  0  0  0  0  0  0
    0.8458   -1.7274   -1.0977 H   0  0  0  0  0  0  0  0  0  0  0  0
    0.8265   -2.0253    0.6342 H   0  0  0  0  0  0  0  0  0  0  0  0
   -0.6262   -1.3883   -0.1561 H   0  0  0  0  0  0  0  0  0  0  0  0
    2.7276    0.9474    0.0956 H   0  0  0  0  0  0  0  0  0  0  0  0
    2.1125   -0.1803    2.0566 H   0  0  0  0  0  0  0  0  0  0  0  0
  1  2  1  0  0  0  0
  1  3  1  0  0  0  0
  1  4  1  0  0  0  0
  1  5  1  0  0  0  0
  2  6  1  0  0  0  0
  2  7  2  0  0  0  0
  3  8  1  0  0  0  0
  3  9  1  0  0  0  0
  3 10  1  0  0  0  0
  4 11  1  0  0  0  0
  4 12  1  0  0  0  0
  4 13  1  0  0  0  0
  5 14  1  0  0  0  0
  6 15  1  0  0  0  0
M  END
>  <Mol_ID>
3650

>  <Formula>
C4H8O3

>  <MolWeight>
104.10452

>  <Cat>
S6307

>  <Name>
2-Methyllactic acid

>  <Synonyms>
2-Hydroxyisobutyric acid, Acetonic acid

>  <Target>
Others

>  <Form>
free base

>  <CAS>
594-61-6

>  <URL>
http://www.selleck.cn/products/2-methyllactic-acid.html

$$$$
