2-Methylpentanoic acid
 OpenBabel08302521293D

 20 19  0  0  0  0  0  0  0  0999 V2000
    0.8417    2.3355    0.8325 O   0  0  0  0  0  0  0  0  0  0  0  0
    1.0941    0.3972   -0.2323 O   0  0  0  0  0  0  0  0  0  0  0  0
   -1.1712    1.2474    0.1682 C   0  0  3  0  0  0  0  0  0  0  0  0
   -1.6478    0.4131   -1.0342 C   0  0  0  0  0  0  0  0  0  0  0  0
   -3.1554    0.4261   -1.3064 C   0  0  0  0  0  0  0  0  0  0  0  0
   -1.6894    0.7269    1.5046 C   0  0  0  0  0  0  0  0  0  0  0  0
   -3.7316    1.8158   -1.5296 C   0  0  0  0  0  0  0  0  0  0  0  0
    0.3445    1.2521    0.2084 C   0  0  0  0  0  0  0  0  0  0  0  0
    1.8135    2.2018    0.7953 H   0  0  0  0  0  0  0  0  0  0  0  0
   -1.4948    2.2845    0.0232 H   0  0  0  0  0  0  0  0  0  0  0  0
   -1.1328    0.7682   -1.9374 H   0  0  0  0  0  0  0  0  0  0  0  0
   -1.3332   -0.6308   -0.9029 H   0  0  0  0  0  0  0  0  0  0  0  0
   -3.3409   -0.1729   -2.2066 H   0  0  0  0  0  0  0  0  0  0  0  0
   -3.6975   -0.0678   -0.4930 H   0  0  0  0  0  0  0  0  0  0  0  0
   -1.4469    1.4320    2.3078 H   0  0  0  0  0  0  0  0  0  0  0  0
   -2.7750    0.5961    1.5011 H   0  0  0  0  0  0  0  0  0  0  0  0
   -1.2273   -0.2317    1.7658 H   0  0  0  0  0  0  0  0  0  0  0  0
   -3.1431    2.3768   -2.2622 H   0  0  0  0  0  0  0  0  0  0  0  0
   -4.7574    1.7411   -1.9053 H   0  0  0  0  0  0  0  0  0  0  0  0
   -3.7631    2.3870   -0.5969 H   0  0  0  0  0  0  0  0  0  0  0  0
  1  8  1  0  0  0  0
  1  9  1  0  0  0  0
  2  8  2  0  0  0  0
  3  4  1  0  0  0  0
  3  6  1  0  0  0  0
  3  8  1  0  0  0  0
  3 10  1  0  0  0  0
  4  5  1  0  0  0  0
  4 11  1  0  0  0  0
  4 12  1  0  0  0  0
  5  7  1  0  0  0  0
  5 13  1  0  0  0  0
  5 14  1  0  0  0  0
  6 15  1  0  0  0  0
  6 16  1  0  0  0  0
  6 17  1  0  0  0  0
  7 18  1  0  0  0  0
  7 19  1  0  0  0  0
  7 20  1  0  0  0  0
M  END
>  <Mol_ID>
5479

>  <Formula>
C6H12O2

>  <MolWeight>
116.15828

>  <Cat>
S3314

>  <Name>
2-Methylpentanoic acid

>  <Synonyms>
2-Methylvaleric acid, Methylpropylacetic acid

>  <Target>
Others

>  <Form>
Free Base

>  <CAS>
97-61-0

>  <URL>
https://www.selleckchem.com/products/2-methylpentanoic-acid.html

$$$$
