2-Methylcyclohexanone
 OpenBabel08302521363D

 20 20  0  0  0  0  0  0  0  0999 V2000
    1.1038   -0.1494   -0.0623 C   0  0  0  0  0  0  0  0  0  0  0  0
    2.2403    1.0440   -2.9166 O   0  0  0  0  0  0  0  0  0  0  0  0
    0.5936    0.7431   -1.1939 C   0  0  3  0  0  0  0  0  0  0  0  0
    1.7580    1.4587   -1.8654 C   0  0  0  0  0  0  0  0  0  0  0  0
   -0.4461    1.7700   -0.7343 C   0  0  0  0  0  0  0  0  0  0  0  0
    2.3661    2.6218   -1.1190 C   0  0  0  0  0  0  0  0  0  0  0  0
    0.1626    2.9076    0.0875 C   0  0  0  0  0  0  0  0  0  0  0  0
    1.2889    3.6009   -0.6765 C   0  0  0  0  0  0  0  0  0  0  0  0
    0.6045   -1.1232   -0.1021 H   0  0  0  0  0  0  0  0  0  0  0  0
    0.8981    0.2703    0.9271 H   0  0  0  0  0  0  0  0  0  0  0  0
    2.1818   -0.3304   -0.1309 H   0  0  0  0  0  0  0  0  0  0  0  0
    0.1282    0.1039   -1.9548 H   0  0  0  0  0  0  0  0  0  0  0  0
   -0.9297    2.2040   -1.6196 H   0  0  0  0  0  0  0  0  0  0  0  0
   -1.2361    1.2769   -0.1558 H   0  0  0  0  0  0  0  0  0  0  0  0
    2.9170    2.2272   -0.2585 H   0  0  0  0  0  0  0  0  0  0  0  0
    3.0817    3.1293   -1.7744 H   0  0  0  0  0  0  0  0  0  0  0  0
    0.5429    2.5285    1.0415 H   0  0  0  0  0  0  0  0  0  0  0  0
   -0.6172    3.6399    0.3272 H   0  0  0  0  0  0  0  0  0  0  0  0
    1.7363    4.3791   -0.0477 H   0  0  0  0  0  0  0  0  0  0  0  0
    0.8687    4.1024   -1.5571 H   0  0  0  0  0  0  0  0  0  0  0  0
  1  3  1  0  0  0  0
  1  9  1  0  0  0  0
  1 10  1  0  0  0  0
  1 11  1  0  0  0  0
  2  4  2  0  0  0  0
  3  4  1  0  0  0  0
  3  5  1  0  0  0  0
  3 12  1  0  0  0  0
  4  6  1  0  0  0  0
  5  7  1  0  0  0  0
  5 13  1  0  0  0  0
  5 14  1  0  0  0  0
  6  8  1  0  0  0  0
  6 15  1  0  0  0  0
  6 16  1  0  0  0  0
  7  8  1  0  0  0  0
  7 17  1  0  0  0  0
  7 18  1  0  0  0  0
  8 19  1  0  0  0  0
  8 20  1  0  0  0  0
M  END
>  <Mol_ID>
7175

>  <Formula>
C7H12O

>  <MolWeight>
112.16958

>  <Cat>
E4173

>  <Name>
2-Methylcyclohexanone

>  <Synonyms>
o-Methylcyclohexanone

>  <Target>
Others

>  <Form>
Free base

>  <CAS>
583-60-8

>  <URL>
https://www.selleckchem.com/products/2-methylcyclohexanone.html

$$$$
