2-Methylthiophene
 OpenBabel08302521363D

 12 12  0  0  0  0  0  0  0  0999 V2000
    2.3203   -0.1826    0.0123 C   0  0  0  0  0  0  0  0  0  0  0  0
    0.8360   -0.3129    0.0069 C   0  0  0  0  0  0  0  0  0  0  0  0
    0.0750   -1.4639   -0.0013 C   0  0  0  0  0  0  0  0  0  0  0  0
   -0.1436    1.0915    0.0125 S   0  0  0  0  0  0  0  0  0  0  0  0
   -1.3230   -1.1878    0.0019 C   0  0  0  0  0  0  0  0  0  0  0  0
   -1.5806    0.1647    0.0113 C   0  0  0  0  0  0  0  0  0  0  0  0
    2.6666    0.3663   -0.8696 H   0  0  0  0  0  0  0  0  0  0  0  0
    2.6600    0.3451    0.9094 H   0  0  0  0  0  0  0  0  0  0  0  0
    2.7985   -1.1677    0.0025 H   0  0  0  0  0  0  0  0  0  0  0  0
    0.4995   -2.4606   -0.0072 H   0  0  0  0  0  0  0  0  0  0  0  0
   -2.0994   -1.9426   -0.0012 H   0  0  0  0  0  0  0  0  0  0  0  0
   -2.5438    0.6558    0.0174 H   0  0  0  0  0  0  0  0  0  0  0  0
  1  2  1  0  0  0  0
  1  7  1  0  0  0  0
  1  8  1  0  0  0  0
  1  9  1  0  0  0  0
  2  3  2  0  0  0  0
  2  4  1  0  0  0  0
  3  5  1  0  0  0  0
  3 10  1  0  0  0  0
  4  6  1  0  0  0  0
  5  6  2  0  0  0  0
  5 11  1  0  0  0  0
  6 12  1  0  0  0  0
M  END
>  <Mol_ID>
7176

>  <Formula>
C5H6S

>  <MolWeight>
98.16614

>  <Cat>
E4174

>  <Name>
2-Methylthiophene

>  <Synonyms>
Thiophene, 2-methyl-

>  <Target>
Others

>  <Form>
Free base

>  <CAS>
554-14-3

>  <URL>
https://www.selleckchem.com/products/2-methylthiophene.html

$$$$
