2¡ä-O-Methyluridine
 OpenBabel08302521363D

 32 33  0  0  1  0  0  0  0  0999 V2000
    1.0469    0.0668   -0.0252 O   0  0  0  0  0  0  0  0  0  0  0  0
    0.3764   -1.1598    0.2097 C   0  0  0  0  0  0  0  0  0  0  0  0
    1.8063   -2.7626   -2.6736 O   0  0  0  0  0  0  0  0  0  0  0  0
    2.3607    2.1685   -1.1893 O   0  0  0  0  0  0  0  0  0  0  0  0
    5.4907    0.9748    0.4071 C   0  0  0  0  0  0  0  0  0  0  0  0
    6.7754    0.6345   -0.1076 O   0  0  0  0  0  0  0  0  0  0  0  0
    4.6188   -5.9920   -1.2674 O   0  0  0  0  0  0  0  0  0  0  0  0
    3.1167   -0.7702   -1.2184 C   0  0  1  0  0  0  0  0  0  0  0  0
    2.4690   -0.0210   -0.0391 C   0  0  1  0  0  0  0  0  0  0  0  0
    4.4086   -0.1554   -1.4443 O   0  0  0  0  0  0  0  0  0  0  0  0
    3.0647    1.3819   -0.2174 C   0  0  1  0  0  0  0  0  0  0  0  0
    4.4709    1.0999   -0.7274 C   0  0  1  0  0  0  0  0  0  0  0  0
    3.3521   -2.2073   -1.0339 N   0  0  0  0  0  0  0  0  0  0  0  0
    2.6817   -3.0910   -1.8758 C   0  0  0  0  0  0  0  0  0  0  0  0
    4.3491   -2.6513   -0.1842 C   0  0  0  0  0  0  0  0  0  0  0  0
    3.0681   -4.4050   -1.7896 N   0  0  0  0  0  0  0  0  0  0  0  0
    4.7701   -3.9161   -0.1759 C   0  0  0  0  0  0  0  0  0  0  0  0
    4.1549   -4.8675   -1.1135 C   0  0  0  0  0  0  0  0  0  0  0  0
    0.3310   -1.7459   -0.7095 H   0  0  0  0  0  0  0  0  0  0  0  0
    0.8537   -1.7324    1.0099 H   0  0  0  0  0  0  0  0  0  0  0  0
   -0.6496   -0.9308    0.5131 H   0  0  0  0  0  0  0  0  0  0  0  0
    2.3508    1.7017   -2.0425 H   0  0  0  0  0  0  0  0  0  0  0  0
    5.5806    1.9194    0.9500 H   0  0  0  0  0  0  0  0  0  0  0  0
    5.2132    0.1947    1.1212 H   0  0  0  0  0  0  0  0  0  0  0  0
    6.6422   -0.0881   -0.7504 H   0  0  0  0  0  0  0  0  0  0  0  0
    2.5215   -0.6055   -2.1244 H   0  0  0  0  0  0  0  0  0  0  0  0
    2.8144   -0.4289    0.9194 H   0  0  0  0  0  0  0  0  0  0  0  0
    3.0465    1.9587    0.7123 H   0  0  0  0  0  0  0  0  0  0  0  0
    4.8129    1.8516   -1.4479 H   0  0  0  0  0  0  0  0  0  0  0  0
    4.8270   -1.9198    0.4560 H   0  0  0  0  0  0  0  0  0  0  0  0
    2.6512   -5.0361   -2.4580 H   0  0  0  0  0  0  0  0  0  0  0  0
    5.5831   -4.2714    0.4447 H   0  0  0  0  0  0  0  0  0  0  0  0
  1  2  1  0  0  0  0
  2 19  1  0  0  0  0
  2 20  1  0  0  0  0
  2 21  1  0  0  0  0
  3 14  2  0  0  0  0
  4 22  1  0  0  0  0
  5  6  1  0  0  0  0
  5 23  1  0  0  0  0
  5 24  1  0  0  0  0
  6 25  1  0  0  0  0
  7 18  2  0  0  0  0
  8  9  1  0  0  0  0
  8 10  1  0  0  0  0
  8 26  1  6  0  0  0
  8 13  1  0  0  0  0
  9  1  1  0  0  0  0
  9 11  1  0  0  0  0
  9 27  1  1  0  0  0
 10 12  1  0  0  0  0
 11  4  1  0  0  0  0
 11 12  1  0  0  0  0
 11 28  1  1  0  0  0
 12 29  1  6  0  0  0
 12  5  1  0  0  0  0
 13 14  1  0  0  0  0
 13 15  1  0  0  0  0
 14 16  1  0  0  0  0
 15 17  2  0  0  0  0
 15 30  1  0  0  0  0
 16 18  1  0  0  0  0
 16 31  1  0  0  0  0
 17 18  1  0  0  0  0
 17 32  1  0  0  0  0
M  END
>  <Mol_ID>
7178

>  <Formula>
C10H14N2O6

>  <MolWeight>
258.22796

>  <Cat>
E4177

>  <Name>
2¡ä-O-Methyluridine

>  <Synonyms>
2¡ä-O-Methyluridine

>  <Target>
Others

>  <Form>
free base

>  <CAS>
2140-76-3

>  <URL>
https://www.selleckchem.com/products/2-o-methyluridine.html

$$$$
