2¡ä-O-(2-Methoxyethyl)guanosine
 OpenBabel08302521343D

 43 45  0  0  0  0  0  0  0  0999 V2000
    1.7485   -0.3950    2.5131 O   0  0  0  0  0  0  0  0  0  0  0  0
    1.0913    0.4418    1.5601 C   0  0  0  0  0  0  0  0  0  0  0  0
   -0.4261    0.2861    1.6700 C   0  0  2  0  0  0  0  0  0  0  0  0
   -0.9431    0.5459    3.0804 C   0  0  1  0  0  0  0  0  0  0  0  0
   -1.7559    1.7293    3.0771 O   0  0  0  0  0  0  0  0  0  0  0  0
   -1.7436   -0.6940    3.4812 C   0  0  1  0  0  0  0  0  0  0  0  0
   -3.0364   -0.2506    3.9417 O   0  0  0  0  0  0  0  0  0  0  0  0
   -1.7522   -1.5578    2.2120 C   0  0  1  0  0  0  0  0  0  0  0  0
   -0.7864   -1.0473    1.2859 O   0  0  0  0  0  0  0  0  0  0  0  0
   -1.4137   -2.9449    2.4702 N   0  0  0  0  0  0  0  0  0  0  0  0
   -0.1941   -3.4240    2.8904 C   0  0  0  0  0  0  0  0  0  0  0  0
   -0.2096   -4.7309    3.0719 N   0  0  0  0  0  0  0  0  0  0  0  0
   -1.4748   -5.1080    2.7060 C   0  0  0  0  0  0  0  0  0  0  0  0
   -2.0890   -6.4167    2.6472 C   0  0  0  0  0  0  0  0  0  0  0  0
   -1.5535   -7.4773    2.9531 O   0  0  0  0  0  0  0  0  0  0  0  0
   -3.4001   -6.3599    2.1931 N   0  0  0  0  0  0  0  0  0  0  0  0
   -4.0566   -5.1993    1.8380 C   0  0  0  0  0  0  0  0  0  0  0  0
   -5.3348   -5.3381    1.4088 N   0  0  0  0  0  0  0  0  0  0  0  0
   -3.5216   -4.0102    1.9033 N   0  0  0  0  0  0  0  0  0  0  0  0
   -2.2393   -4.0244    2.3317 C   0  0  0  0  0  0  0  0  0  0  0  0
   -3.8620   -1.2862    4.4789 C   0  0  0  0  0  0  0  0  0  0  0  0
   -5.1164   -0.6410    5.0719 C   0  0  0  0  0  0  0  0  0  0  0  0
   -6.0781   -1.6389    5.4094 O   0  0  0  0  0  0  0  0  0  0  0  0
   -7.2420   -1.0615    5.9926 C   0  0  0  0  0  0  0  0  0  0  0  0
    2.7051   -0.2574    2.3911 H   0  0  0  0  0  0  0  0  0  0  0  0
    1.3859    1.4774    1.7560 H   0  0  0  0  0  0  0  0  0  0  0  0
    1.4341    0.1509    0.5615 H   0  0  0  0  0  0  0  0  0  0  0  0
   -0.8961    0.9652    0.9481 H   0  0  0  0  0  0  0  0  0  0  0  0
   -0.1369    0.7277    3.7985 H   0  0  0  0  0  0  0  0  0  0  0  0
   -2.5838    1.4760    3.5366 H   0  0  0  0  0  0  0  0  0  0  0  0
   -1.2327   -1.1933    4.3148 H   0  0  0  0  0  0  0  0  0  0  0  0
   -2.7301   -1.5255    1.7197 H   0  0  0  0  0  0  0  0  0  0  0  0
    0.6609   -2.7786    3.0491 H   0  0  0  0  0  0  0  0  0  0  0  0
   -3.8530   -7.2522    2.0915 H   0  0  0  0  0  0  0  0  0  0  0  0
   -5.8324   -4.4531    1.3841 H   0  0  0  0  0  0  0  0  0  0  0  0
   -5.8809   -6.0882    1.8086 H   0  0  0  0  0  0  0  0  0  0  0  0
   -4.1477   -1.9878    3.6910 H   0  0  0  0  0  0  0  0  0  0  0  0
   -3.3247   -1.8417    5.2562 H   0  0  0  0  0  0  0  0  0  0  0  0
   -4.8471   -0.0595    5.9623 H   0  0  0  0  0  0  0  0  0  0  0  0
   -5.5503    0.0532    4.3419 H   0  0  0  0  0  0  0  0  0  0  0  0
   -7.0241   -0.7245    7.0104 H   0  0  0  0  0  0  0  0  0  0  0  0
   -7.6113   -0.2235    5.3920 H   0  0  0  0  0  0  0  0  0  0  0  0
   -8.0229   -1.8256    6.0364 H   0  0  0  0  0  0  0  0  0  0  0  0
  1  2  1  0  0  0  0
  1 25  1  0  0  0  0
  2 26  1  0  0  0  0
  2 27  1  0  0  0  0
  3  2  1  0  0  0  0
  3  4  1  0  0  0  0
  3  9  1  0  0  0  0
  3 28  1  6  0  0  0
  4  5  1  0  0  0  0
  4  6  1  0  0  0  0
  4 29  1  1  0  0  0
  5 30  1  0  0  0  0
  6  8  1  0  0  0  0
  6 31  1  1  0  0  0
  6  7  1  0  0  0  0
  7 21  1  0  0  0  0
  8  9  1  0  0  0  0
  8 32  1  6  0  0  0
  8 10  1  0  0  0  0
 10 11  1  0  0  0  0
 10 20  1  0  0  0  0
 11 12  2  0  0  0  0
 11 33  1  0  0  0  0
 12 13  1  0  0  0  0
 13 14  1  0  0  0  0
 13 20  2  0  0  0  0
 14 15  2  0  0  0  0
 14 16  1  0  0  0  0
 16 17  1  0  0  0  0
 16 34  1  0  0  0  0
 17 18  1  0  0  0  0
 17 19  2  0  0  0  0
 18 35  1  0  0  0  0
 18 36  1  0  0  0  0
 19 20  1  0  0  0  0
 21 22  1  0  0  0  0
 21 37  1  0  0  0  0
 21 38  1  0  0  0  0
 22 23  1  0  0  0  0
 22 39  1  0  0  0  0
 22 40  1  0  0  0  0
 23 24  1  0  0  0  0
 24 41  1  0  0  0  0
 24 42  1  0  0  0  0
 24 43  1  0  0  0  0
M  END
>  <Mol_ID>
6446

>  <Formula>
C13H19N5O6

>  <MolWeight>
341.31986

>  <Cat>
E2377

>  <Name>
2¡ä-O-(2-Methoxyethyl)guanosine

>  <Synonyms>
2'-O-MOE-rG

>  <Target>
Others

>  <Form>
free base

>  <CAS>
473278-54-5

>  <URL>
http://www.selleckchem.com/products/2--o--2-Methoxyethyl-guanosine.html

$$$$
