2-Octenoic acid
 OpenBabel08302520383D

 24 23  0  0  0  0  0  0  0  0999 V2000
   -0.4457    1.2732    0.5751 C   0  0  0  0  0  0  0  0  0  0  0  0
   -1.2175    1.0600   -0.6688 C   0  0  0  0  0  0  0  0  0  0  0  0
   -1.1145   -0.1034   -1.3307 C   0  0  0  0  0  0  0  0  0  0  0  0
   -1.8532   -0.4129   -2.6006 C   0  0  0  0  0  0  0  0  0  0  0  0
   -2.7861   -1.6220   -2.4719 C   0  0  0  0  0  0  0  0  0  0  0  0
   -3.8904   -1.4894   -1.4145 C   0  0  0  0  0  0  0  0  0  0  0  0
   -4.8426   -0.3194   -1.6665 C   0  0  0  0  0  0  0  0  0  0  0  0
   -5.9274   -0.2428   -0.6027 C   0  0  0  0  0  0  0  0  0  0  0  0
    0.3131    0.4594    1.0698 O   0  0  0  0  0  0  0  0  0  0  0  0
   -0.6769    2.4890    1.1089 O   0  0  0  0  0  0  0  0  0  0  0  0
   -1.8620    1.8491   -1.0295 H   0  0  0  0  0  0  0  0  0  0  0  0
   -0.4588   -0.8863   -0.9486 H   0  0  0  0  0  0  0  0  0  0  0  0
   -2.4158    0.4600   -2.9514 H   0  0  0  0  0  0  0  0  0  0  0  0
   -1.1108   -0.6253   -3.3796 H   0  0  0  0  0  0  0  0  0  0  0  0
   -3.2461   -1.8136   -3.4493 H   0  0  0  0  0  0  0  0  0  0  0  0
   -2.1876   -2.5113   -2.2350 H   0  0  0  0  0  0  0  0  0  0  0  0
   -4.4663   -2.4238   -1.4056 H   0  0  0  0  0  0  0  0  0  0  0  0
   -3.4420   -1.3953   -0.4189 H   0  0  0  0  0  0  0  0  0  0  0  0
   -4.2946    0.6281   -1.6648 H   0  0  0  0  0  0  0  0  0  0  0  0
   -5.3092   -0.4246   -2.6526 H   0  0  0  0  0  0  0  0  0  0  0  0
   -5.4906   -0.1134    0.3930 H   0  0  0  0  0  0  0  0  0  0  0  0
   -6.5858    0.6101   -0.7959 H   0  0  0  0  0  0  0  0  0  0  0  0
   -6.5392   -1.1501   -0.5956 H   0  0  0  0  0  0  0  0  0  0  0  0
   -1.3055    3.0493    0.6214 H   0  0  0  0  0  0  0  0  0  0  0  0
  1  2  1  0  0  0  0
  1  9  2  0  0  0  0
  1 10  1  0  0  0  0
  2  3  2  0  0  0  0
  2 11  1  0  0  0  0
  3  4  1  0  0  0  0
  3 12  1  0  0  0  0
  4  5  1  0  0  0  0
  4 13  1  0  0  0  0
  4 14  1  0  0  0  0
  5  6  1  0  0  0  0
  5 15  1  0  0  0  0
  5 16  1  0  0  0  0
  6  7  1  0  0  0  0
  6 17  1  0  0  0  0
  6 18  1  0  0  0  0
  7  8  1  0  0  0  0
  7 19  1  0  0  0  0
  7 20  1  0  0  0  0
  8 21  1  0  0  0  0
  8 22  1  0  0  0  0
  8 23  1  0  0  0  0
 10 24  1  0  0  0  0
M  END
>  <Mol_ID>
3461

>  <Formula>
C8H14O2

>  <MolWeight>
142.19556

>  <Cat>
S6162

>  <Name>
2-Octenoic acid

>  <Synonyms>
2-Octenoate

>  <Target>
Others

>  <Form>
free base

>  <CAS>
1871-67-6

>  <URL>
http://www.selleck.cn/products/2-octenoic-acid.html

$$$$
