2-Oxo-3-phenylpropanoic acid
 OpenBabel08302520393D

 20 20  0  0  0  0  0  0  0  0999 V2000
   -1.3763   -3.1919    0.2422 C   0  0  0  0  0  0  0  0  0  0  0  0
   -0.3627   -2.0639    0.0810 C   0  0  0  0  0  0  0  0  0  0  0  0
   -0.7802   -0.9881   -0.3426 O   0  0  0  0  0  0  0  0  0  0  0  0
    1.0574   -2.3565    0.4759 C   0  0  0  0  0  0  0  0  0  0  0  0
   -1.0901   -4.3057    0.6336 O   0  0  0  0  0  0  0  0  0  0  0  0
   -2.6150   -2.7606   -0.0682 O   0  0  0  0  0  0  0  0  0  0  0  0
    1.9189   -2.8299   -0.6645 C   0  0  0  0  0  0  0  0  0  0  0  0
    2.6142   -1.9110   -1.4627 C   0  0  0  0  0  0  0  0  0  0  0  0
    3.4625   -2.3557   -2.4793 C   0  0  0  0  0  0  0  0  0  0  0  0
    3.6134   -3.7207   -2.7167 C   0  0  0  0  0  0  0  0  0  0  0  0
    2.9019   -4.6410   -1.9498 C   0  0  0  0  0  0  0  0  0  0  0  0
    2.0550   -4.1991   -0.9319 C   0  0  0  0  0  0  0  0  0  0  0  0
    1.4797   -1.4389    0.9052 H   0  0  0  0  0  0  0  0  0  0  0  0
    1.0739   -3.0820    1.2975 H   0  0  0  0  0  0  0  0  0  0  0  0
   -2.5668   -1.8167   -0.3547 H   0  0  0  0  0  0  0  0  0  0  0  0
    2.5158   -0.8410   -1.2890 H   0  0  0  0  0  0  0  0  0  0  0  0
    4.0143   -1.6373   -3.0800 H   0  0  0  0  0  0  0  0  0  0  0  0
    4.2859   -4.0667   -3.4974 H   0  0  0  0  0  0  0  0  0  0  0  0
    3.0157   -5.7062   -2.1367 H   0  0  0  0  0  0  0  0  0  0  0  0
    1.5169   -4.9367   -0.3368 H   0  0  0  0  0  0  0  0  0  0  0  0
  1  2  1  0  0  0  0
  1  5  2  0  0  0  0
  1  6  1  0  0  0  0
  2  3  2  0  0  0  0
  2  4  1  0  0  0  0
  4  7  1  0  0  0  0
  4 13  1  0  0  0  0
  4 14  1  0  0  0  0
  6 15  1  0  0  0  0
  7  8  2  0  0  0  0
  7 12  1  0  0  0  0
  8  9  1  0  0  0  0
  8 16  1  0  0  0  0
  9 10  2  0  0  0  0
  9 17  1  0  0  0  0
 10 11  1  0  0  0  0
 10 18  1  0  0  0  0
 11 12  2  0  0  0  0
 11 19  1  0  0  0  0
 12 20  1  0  0  0  0
M  END
>  <Mol_ID>
3581

>  <Formula>
C9H8O3

>  <MolWeight>
164.15802

>  <Cat>
S6131

>  <Name>
2-Oxo-3-phenylpropanoic acid

>  <Synonyms>
Phenylpyruvic acid

>  <Target>
Others

>  <Form>
free base

>  <CAS>
156-06-9

>  <URL>
http://www.selleck.cn/products/2-oxo-3-phenylpropanoic-acid.html

$$$$
