2-Oxobutanoic acid
 OpenBabel08302520393D

 13 12  0  0  0  0  0  0  0  0999 V2000
    0.8548   -0.0135   -0.0189 C   0  0  0  0  0  0  0  0  0  0  0  0
    0.6523    1.4256    0.4433 C   0  0  0  0  0  0  0  0  0  0  0  0
    0.2593   -1.0676    0.8735 C   0  0  0  0  0  0  0  0  0  0  0  0
    1.3280   -0.1886   -1.1355 O   0  0  0  0  0  0  0  0  0  0  0  0
    0.3991    2.2223   -0.6114 O   0  0  0  0  0  0  0  0  0  0  0  0
    0.6621    1.7613    1.6105 O   0  0  0  0  0  0  0  0  0  0  0  0
    0.5927   -2.4737    0.4039 C   0  0  0  0  0  0  0  0  0  0  0  0
    0.6199   -0.9319    1.8959 H   0  0  0  0  0  0  0  0  0  0  0  0
   -0.8254   -0.9333    0.8635 H   0  0  0  0  0  0  0  0  0  0  0  0
    0.5225    1.7133   -1.4459 H   0  0  0  0  0  0  0  0  0  0  0  0
    1.6690   -2.6628    0.4716 H   0  0  0  0  0  0  0  0  0  0  0  0
    0.0724   -3.2131    1.0203 H   0  0  0  0  0  0  0  0  0  0  0  0
    0.2898   -2.6272   -0.6358 H   0  0  0  0  0  0  0  0  0  0  0  0
  1  2  1  0  0  0  0
  1  3  1  0  0  0  0
  1  4  2  0  0  0  0
  2  5  1  0  0  0  0
  2  6  2  0  0  0  0
  3  7  1  0  0  0  0
  3  8  1  0  0  0  0
  3  9  1  0  0  0  0
  5 10  1  0  0  0  0
  7 11  1  0  0  0  0
  7 12  1  0  0  0  0
  7 13  1  0  0  0  0
M  END
>  <Mol_ID>
3665

>  <Formula>
C4H6O3

>  <MolWeight>
102.08864

>  <Cat>
S6329

>  <Name>
2-Oxobutanoic acid

>  <Synonyms>
2-Oxobutyrate, 2-ketobutyric acid, 2-oxobutyric acid, alpha-ketobutyric acid, ¦Á-ketobutyric acid

>  <Target>
Others

>  <Form>
free base

>  <CAS>
600-18-0

>  <URL>
http://www.selleck.cn/products/oxobutanoic-acid.html

$$$$
