2-Pentylfuran
 OpenBabel08302521273D

 24 24  0  0  0  0  0  0  0  0999 V2000
    0.7566    3.2058   -0.0903 C   0  0  0  0  0  0  0  0  0  0  0  0
    1.1862    4.4440    0.3371 C   0  0  0  0  0  0  0  0  0  0  0  0
    1.7847    2.5320   -0.6799 O   0  0  0  0  0  0  0  0  0  0  0  0
   -0.5522    2.5038   -0.0271 C   0  0  0  0  0  0  0  0  0  0  0  0
    2.5545    4.5338   -0.0131 C   0  0  0  0  0  0  0  0  0  0  0  0
    2.8702    3.3448   -0.6289 C   0  0  0  0  0  0  0  0  0  0  0  0
   -1.3959    2.7864   -1.2725 C   0  0  0  0  0  0  0  0  0  0  0  0
   -2.7422    2.0543   -1.2886 C   0  0  0  0  0  0  0  0  0  0  0  0
   -3.6712    2.4466   -0.1384 C   0  0  0  0  0  0  0  0  0  0  0  0
   -5.0149    1.7409   -0.2388 C   0  0  0  0  0  0  0  0  0  0  0  0
    0.5849    5.1885    0.8391 H   0  0  0  0  0  0  0  0  0  0  0  0
   -0.3889    1.4247    0.0791 H   0  0  0  0  0  0  0  0  0  0  0  0
   -1.0777    2.8375    0.8742 H   0  0  0  0  0  0  0  0  0  0  0  0
    3.2280    5.3607    0.1606 H   0  0  0  0  0  0  0  0  0  0  0  0
    3.7758    2.9435   -1.0623 H   0  0  0  0  0  0  0  0  0  0  0  0
   -1.5684    3.8663   -1.3690 H   0  0  0  0  0  0  0  0  0  0  0  0
   -0.8326    2.4847   -2.1654 H   0  0  0  0  0  0  0  0  0  0  0  0
   -3.2396    2.2774   -2.2408 H   0  0  0  0  0  0  0  0  0  0  0  0
   -2.5687    0.9713   -1.2709 H   0  0  0  0  0  0  0  0  0  0  0  0
   -3.2181    2.1858    0.8239 H   0  0  0  0  0  0  0  0  0  0  0  0
   -3.8315    3.5310   -0.1416 H   0  0  0  0  0  0  0  0  0  0  0  0
   -4.8897    0.6539   -0.2167 H   0  0  0  0  0  0  0  0  0  0  0  0
   -5.6551    2.0251    0.6028 H   0  0  0  0  0  0  0  0  0  0  0  0
   -5.5329    2.0093   -1.1655 H   0  0  0  0  0  0  0  0  0  0  0  0
  1  2  2  0  0  0  0
  1  3  1  0  0  0  0
  1  4  1  0  0  0  0
  2  5  1  0  0  0  0
  2 11  1  0  0  0  0
  3  6  1  0  0  0  0
  4  7  1  0  0  0  0
  4 12  1  0  0  0  0
  4 13  1  0  0  0  0
  5  6  2  0  0  0  0
  5 14  1  0  0  0  0
  6 15  1  0  0  0  0
  7  8  1  0  0  0  0
  7 16  1  0  0  0  0
  7 17  1  0  0  0  0
  8  9  1  0  0  0  0
  8 18  1  0  0  0  0
  8 19  1  0  0  0  0
  9 10  1  0  0  0  0
  9 20  1  0  0  0  0
  9 21  1  0  0  0  0
 10 22  1  0  0  0  0
 10 23  1  0  0  0  0
 10 24  1  0  0  0  0
M  END
>  <Mol_ID>
5319

>  <Formula>
C9H14O

>  <MolWeight>
138.20686

>  <Cat>
S9334

>  <Name>
2-Pentylfuran

>  <Synonyms>
2-Amylfuran

>  <Target>
Others

>  <Form>
Free Base

>  <CAS>
3777-69-3

>  <URL>
https://www.selleckchem.com/products/2-pentylfuran.html

$$$$
