2-Phenylpropionic acid
 OpenBabel08302520393D

 21 21  0  0  0  0  0  0  0  0999 V2000
    1.3545   -0.1677    0.1092 C   0  0  0  0  0  0  0  0  0  0  0  0
    2.8599   -0.3959    0.1827 C   0  0  3  0  0  0  0  0  0  0  0  0
    0.4909   -1.2762    0.0785 C   0  0  0  0  0  0  0  0  0  0  0  0
    0.7956    1.1179    0.0294 C   0  0  0  0  0  0  0  0  0  0  0  0
    3.5834   -0.4345   -1.1629 C   0  0  0  0  0  0  0  0  0  0  0  0
    3.5575    0.6109    1.1048 C   0  0  0  0  0  0  0  0  0  0  0  0
   -0.8917   -1.1012   -0.0014 C   0  0  0  0  0  0  0  0  0  0  0  0
   -0.5880    1.2895   -0.0442 C   0  0  0  0  0  0  0  0  0  0  0  0
    2.8120   -0.3702   -2.2713 O   0  0  0  0  0  0  0  0  0  0  0  0
    4.8001   -0.5435   -1.2563 O   0  0  0  0  0  0  0  0  0  0  0  0
   -1.4308    0.1815   -0.0557 C   0  0  0  0  0  0  0  0  0  0  0  0
    3.0126   -1.3910    0.6238 H   0  0  0  0  0  0  0  0  0  0  0  0
    0.8872   -2.2897    0.1237 H   0  0  0  0  0  0  0  0  0  0  0  0
    1.4237    2.0062    0.0295 H   0  0  0  0  0  0  0  0  0  0  0  0
    3.0709    0.6532    2.0856 H   0  0  0  0  0  0  0  0  0  0  0  0
    4.6055    0.3334    1.2637 H   0  0  0  0  0  0  0  0  0  0  0  0
    3.5601    1.6205    0.6791 H   0  0  0  0  0  0  0  0  0  0  0  0
   -1.5501   -1.9668   -0.0132 H   0  0  0  0  0  0  0  0  0  0  0  0
   -1.0088    2.2916   -0.0868 H   0  0  0  0  0  0  0  0  0  0  0  0
    1.8526   -0.2910   -2.1055 H   0  0  0  0  0  0  0  0  0  0  0  0
   -2.5084    0.3181   -0.1039 H   0  0  0  0  0  0  0  0  0  0  0  0
  1  2  1  0  0  0  0
  1  3  2  0  0  0  0
  1  4  1  0  0  0  0
  2  5  1  0  0  0  0
  2  6  1  0  0  0  0
  2 12  1  0  0  0  0
  3  7  1  0  0  0  0
  3 13  1  0  0  0  0
  4  8  2  0  0  0  0
  4 14  1  0  0  0  0
  5  9  1  0  0  0  0
  5 10  2  0  0  0  0
  6 15  1  0  0  0  0
  6 16  1  0  0  0  0
  6 17  1  0  0  0  0
  7 11  2  0  0  0  0
  7 18  1  0  0  0  0
  8 11  1  0  0  0  0
  8 19  1  0  0  0  0
  9 20  1  0  0  0  0
 11 21  1  0  0  0  0
M  END
>  <Mol_ID>
3660

>  <Formula>
C9H10O2

>  <MolWeight>
150.1745

>  <Cat>
S6321

>  <Name>
2-Phenylpropionic acid

>  <Synonyms>
2-Phenylpropionate, Hydratropic acid, ¦Á-methyl-¦Á-toluic acid

>  <Target>
Others

>  <Form>
free base

>  <CAS>
492-37-5

>  <URL>
http://www.selleck.cn/products/phenylpropionic-acid.html

$$$$
