2-Phenylimidazole
 OpenBabel08302521353D

 19 20  0  0  0  0  0  0  0  0999 V2000
   -0.3157    1.0608   -0.0379 C   0  0  0  0  0  0  0  0  0  0  0  0
   -0.6739    2.4780    0.0322 C   0  0  0  0  0  0  0  0  0  0  0  0
   -0.0836    0.3831   -1.2145 N   0  0  0  0  0  0  0  0  0  0  0  0
   -0.1823    0.2338    0.9849 N   0  0  0  0  0  0  0  0  0  0  0  0
   -1.4469    2.9438    1.1053 C   0  0  0  0  0  0  0  0  0  0  0  0
   -0.2436    3.3984   -0.9351 C   0  0  0  0  0  0  0  0  0  0  0  0
    0.2528   -0.9066   -0.9120 C   0  0  0  0  0  0  0  0  0  0  0  0
    0.1900   -0.9749    0.4571 C   0  0  0  0  0  0  0  0  0  0  0  0
   -1.7904    4.2941    1.2056 C   0  0  0  0  0  0  0  0  0  0  0  0
   -0.5822    4.7500   -0.8316 C   0  0  0  0  0  0  0  0  0  0  0  0
   -1.3570    5.1972    0.2376 C   0  0  0  0  0  0  0  0  0  0  0  0
   -0.1655    0.7792   -2.1391 H   0  0  0  0  0  0  0  0  0  0  0  0
   -1.7824    2.2477    1.8721 H   0  0  0  0  0  0  0  0  0  0  0  0
    0.3857    3.0859   -1.7637 H   0  0  0  0  0  0  0  0  0  0  0  0
    0.4946   -1.6360   -1.6706 H   0  0  0  0  0  0  0  0  0  0  0  0
    0.3890   -1.8282    1.0921 H   0  0  0  0  0  0  0  0  0  0  0  0
   -2.3893    4.6391    2.0447 H   0  0  0  0  0  0  0  0  0  0  0  0
   -0.2310    5.4577   -1.5784 H   0  0  0  0  0  0  0  0  0  0  0  0
   -1.6134    6.2499    0.3222 H   0  0  0  0  0  0  0  0  0  0  0  0
  1  2  1  0  0  0  0
  1  3  1  0  0  0  0
  1  4  2  0  0  0  0
  2  5  2  0  0  0  0
  2  6  1  0  0  0  0
  3  7  1  0  0  0  0
  3 12  1  0  0  0  0
  4  8  1  0  0  0  0
  5  9  1  0  0  0  0
  5 13  1  0  0  0  0
  6 10  2  0  0  0  0
  6 14  1  0  0  0  0
  7  8  2  0  0  0  0
  7 15  1  0  0  0  0
  8 16  1  0  0  0  0
  9 11  2  0  0  0  0
  9 17  1  0  0  0  0
 10 11  1  0  0  0  0
 10 18  1  0  0  0  0
 11 19  1  0  0  0  0
M  END
>  <Mol_ID>
6685

>  <Formula>
C9H8N2

>  <MolWeight>
144.17322

>  <Cat>
S5877

>  <Name>
2-Phenylimidazole

>  <Synonyms>
PhI, 2-Phenyl-1H-imidazole

>  <Target>
Others

>  <Form>
Free base

>  <CAS>
670-96-2

>  <URL>
http://www.selleckchem.com/products/2-phenylimidazole.html

$$$$
