2-Thiophenecarboxaldehyde
 OpenBabel08302521363D

 11 11  0  0  0  0  0  0  0  0999 V2000
    0.8549    0.1122    0.0366 C   0  0  0  0  0  0  0  0  0  0  0  0
    1.8118   -0.2200    0.7339 O   0  0  0  0  0  0  0  0  0  0  0  0
    0.2910   -0.6934   -1.0211 C   0  0  0  0  0  0  0  0  0  0  0  0
    0.6809   -1.9484   -1.4443 C   0  0  0  0  0  0  0  0  0  0  0  0
   -1.0318   -0.0997   -1.9261 S   0  0  0  0  0  0  0  0  0  0  0  0
   -0.1137   -2.4207   -2.5289 C   0  0  0  0  0  0  0  0  0  0  0  0
   -1.0786   -1.5087   -2.8958 C   0  0  0  0  0  0  0  0  0  0  0  0
    0.3757    1.0917    0.2108 H   0  0  0  0  0  0  0  0  0  0  0  0
    1.5010   -2.4966   -0.9940 H   0  0  0  0  0  0  0  0  0  0  0  0
    0.0191   -3.3784   -3.0173 H   0  0  0  0  0  0  0  0  0  0  0  0
   -1.8116   -1.6012   -3.6861 H   0  0  0  0  0  0  0  0  0  0  0  0
  1  2  2  0  0  0  0
  1  3  1  0  0  0  0
  1  8  1  0  0  0  0
  3  4  2  0  0  0  0
  3  5  1  0  0  0  0
  4  6  1  0  0  0  0
  4  9  1  0  0  0  0
  5  7  1  0  0  0  0
  6  7  2  0  0  0  0
  6 10  1  0  0  0  0
  7 11  1  0  0  0  0
M  END
>  <Mol_ID>
7185

>  <Formula>
C5H4OS

>  <MolWeight>
112.14966

>  <Cat>
E4185

>  <Name>
2-Thiophenecarboxaldehyde

>  <Synonyms>
Formylthiophene

>  <Target>
Others

>  <Form>
Free base

>  <CAS>
98-03-3

>  <URL>
https://www.selleckchem.com/products/2-thiophenecarboxaldehyde.html

$$$$
