2-Thiouracil.cdx
 OpenBabel08302520013D

 12 12  0  0  0  0  0  0  0  0999 V2000
    0.4662    1.3825    0.0148 N   0  0  0  0  0  0  0  0  0  0  0  0
    0.8040    0.0575    0.0013 C   0  0  0  0  0  0  0  0  0  0  0  0
    2.3897   -0.4382    0.0091 S   0  0  0  0  0  0  0  0  0  0  0  0
   -0.2325   -0.8323   -0.0190 N   0  0  0  0  0  0  0  0  0  0  0  0
   -1.5585   -0.4889   -0.0212 C   0  0  0  0  0  0  0  0  0  0  0  0
   -2.4625   -1.3158   -0.0255 O   0  0  0  0  0  0  0  0  0  0  0  0
   -1.8493    0.9596   -0.0160 C   0  0  0  0  0  0  0  0  0  0  0  0
   -0.8302    1.8221    0.0036 C   0  0  0  0  0  0  0  0  0  0  0  0
    1.2276    2.0546    0.0314 H   0  0  0  0  0  0  0  0  0  0  0  0
   -0.0212   -1.8194   -0.0247 H   0  0  0  0  0  0  0  0  0  0  0  0
   -2.8875    1.2623   -0.0262 H   0  0  0  0  0  0  0  0  0  0  0  0
   -0.9817    2.8968    0.0109 H   0  0  0  0  0  0  0  0  0  0  0  0
  1  2  1  0  0  0  0
  1  8  1  0  0  0  0
  1  9  1  0  0  0  0
  2  3  2  0  0  0  0
  2  4  1  0  0  0  0
  4  5  1  0  0  0  0
  4 10  1  0  0  0  0
  5  6  2  0  0  0  0
  5  7  1  0  0  0  0
  7  8  2  0  0  0  0
  7 11  1  0  0  0  0
  8 12  1  0  0  0  0
M  END
>  <Mol_ID>
311

>  <Formula>
C4H4N2OS

>  <MolWeight>
128.15236

>  <Cat>
S3100

>  <Name>
2-Thiouracil

>  <Synonyms>
Deracil,Thiouracil

>  <Target>
Hydroxylase

>  <Form>
free base

>  <CAS>
141-90-2

>  <URL>
http://selleckchem.com/products/2-thiouracil.html

$$$$
