2-Thiohydantoin
 OpenBabel08302520323D

 11 11  0  0  0  0  0  0  0  0999 V2000
    1.5860   -0.1846   -0.0207 C   0  0  0  0  0  0  0  0  0  0  0  0
    0.3828   -0.8269   -0.0007 N   0  0  0  0  0  0  0  0  0  0  0  0
    1.3298    1.3171   -0.0332 C   0  0  0  0  0  0  0  0  0  0  0  0
    2.6798   -0.7277   -0.0316 O   0  0  0  0  0  0  0  0  0  0  0  0
   -0.6341    0.0662    0.0135 C   0  0  0  0  0  0  0  0  0  0  0  0
   -0.1120    1.3372    0.0057 N   0  0  0  0  0  0  0  0  0  0  0  0
   -2.2404   -0.2967    0.0365 S   0  0  0  0  0  0  0  0  0  0  0  0
    0.2789   -1.8288    0.0058 H   0  0  0  0  0  0  0  0  0  0  0  0
    1.7309    1.8021    0.8577 H   0  0  0  0  0  0  0  0  0  0  0  0
    1.6772    1.7723   -0.9620 H   0  0  0  0  0  0  0  0  0  0  0  0
   -0.6919    2.1681    0.0129 H   0  0  0  0  0  0  0  0  0  0  0  0
  1  2  1  0  0  0  0
  1  3  1  0  0  0  0
  1  4  2  0  0  0  0
  2  5  1  0  0  0  0
  2  8  1  0  0  0  0
  3  6  1  0  0  0  0
  3  9  1  0  0  0  0
  3 10  1  0  0  0  0
  5  7  2  0  0  0  0
  5  6  1  0  0  0  0
  6 11  1  0  0  0  0
M  END
>  <Mol_ID>
3351

>  <Formula>
C3H4N2OS

>  <MolWeight>
116.14166

>  <Cat>
S5613

>  <Name>
2-Thiohydantoin

>  <Synonyms>
N/A

>  <Target>
Others

>  <Form>
Free Base

>  <CAS>
503-87-7

>  <URL>
http://www.selleckchem.com/products/2-thiohydantoin.html

$$$$
