2-Tridecanone
 OpenBabel08302521363D

 40 39  0  0  0  0  0  0  0  0999 V2000
    1.2597   -1.5945    1.5040 C   0  0  0  0  0  0  0  0  0  0  0  0
    0.6098   -0.2288    1.2614 C   0  0  0  0  0  0  0  0  0  0  0  0
    0.7220   -2.6969    0.5834 C   0  0  0  0  0  0  0  0  0  0  0  0
    1.1407    0.8341    2.2330 C   0  0  0  0  0  0  0  0  0  0  0  0
    1.0237   -2.4663   -0.8976 C   0  0  0  0  0  0  0  0  0  0  0  0
    0.5743    2.2364    1.9787 C   0  0  0  0  0  0  0  0  0  0  0  0
    0.5425   -3.6109   -1.7746 C   0  0  0  0  0  0  0  0  0  0  0  0
   -0.9460    2.3295    2.1555 C   0  0  0  0  0  0  0  0  0  0  0  0
    0.7515   -3.4611   -3.2595 C   0  0  0  0  0  0  0  0  0  0  0  0
   -0.0154   -4.6097   -1.3206 O   0  0  0  0  0  0  0  0  0  0  0  0
   -1.4611    3.7565    1.9423 C   0  0  0  0  0  0  0  0  0  0  0  0
   -2.9826    3.8201    2.1095 C   0  0  0  0  0  0  0  0  0  0  0  0
   -3.5207    5.2357    1.9033 C   0  0  0  0  0  0  0  0  0  0  0  0
   -5.0325    5.2856    2.0737 C   0  0  0  0  0  0  0  0  0  0  0  0
    1.0716   -1.8978    2.5419 H   0  0  0  0  0  0  0  0  0  0  0  0
    2.3474   -1.5192    1.3897 H   0  0  0  0  0  0  0  0  0  0  0  0
    0.8040    0.1051    0.2373 H   0  0  0  0  0  0  0  0  0  0  0  0
   -0.4737   -0.3327    1.3754 H   0  0  0  0  0  0  0  0  0  0  0  0
    1.1650   -3.6507    0.8957 H   0  0  0  0  0  0  0  0  0  0  0  0
   -0.3609   -2.8004    0.7280 H   0  0  0  0  0  0  0  0  0  0  0  0
    0.9249    0.5332    3.2656 H   0  0  0  0  0  0  0  0  0  0  0  0
    2.2332    0.8851    2.1424 H   0  0  0  0  0  0  0  0  0  0  0  0
    0.5280   -1.5572   -1.2527 H   0  0  0  0  0  0  0  0  0  0  0  0
    2.1041   -2.3611   -1.0461 H   0  0  0  0  0  0  0  0  0  0  0  0
    1.0581    2.9331    2.6754 H   0  0  0  0  0  0  0  0  0  0  0  0
    0.8486    2.5635    0.9679 H   0  0  0  0  0  0  0  0  0  0  0  0
   -1.4459    1.6680    1.4418 H   0  0  0  0  0  0  0  0  0  0  0  0
   -1.2150    1.9883    3.1623 H   0  0  0  0  0  0  0  0  0  0  0  0
    1.2274   -4.3639   -3.6510 H   0  0  0  0  0  0  0  0  0  0  0  0
   -0.2138   -3.3020   -3.7459 H   0  0  0  0  0  0  0  0  0  0  0  0
    1.4013   -2.6084   -3.4727 H   0  0  0  0  0  0  0  0  0  0  0  0
   -0.9821    4.4355    2.6582 H   0  0  0  0  0  0  0  0  0  0  0  0
   -1.1884    4.0998    0.9367 H   0  0  0  0  0  0  0  0  0  0  0  0
   -3.4583    3.1408    1.3915 H   0  0  0  0  0  0  0  0  0  0  0  0
   -3.2540    3.4690    3.1129 H   0  0  0  0  0  0  0  0  0  0  0  0
   -3.0563    5.9199    2.6225 H   0  0  0  0  0  0  0  0  0  0  0  0
   -3.2611    5.5932    0.8998 H   0  0  0  0  0  0  0  0  0  0  0  0
   -5.3276    4.9363    3.0684 H   0  0  0  0  0  0  0  0  0  0  0  0
   -5.3956    6.3110    1.9529 H   0  0  0  0  0  0  0  0  0  0  0  0
   -5.5321    4.6591    1.3278 H   0  0  0  0  0  0  0  0  0  0  0  0
  1  2  1  0  0  0  0
  1  3  1  0  0  0  0
  1 15  1  0  0  0  0
  1 16  1  0  0  0  0
  2  4  1  0  0  0  0
  2 17  1  0  0  0  0
  2 18  1  0  0  0  0
  3  5  1  0  0  0  0
  3 19  1  0  0  0  0
  3 20  1  0  0  0  0
  4  6  1  0  0  0  0
  4 21  1  0  0  0  0
  4 22  1  0  0  0  0
  5  7  1  0  0  0  0
  5 23  1  0  0  0  0
  5 24  1  0  0  0  0
  6  8  1  0  0  0  0
  6 25  1  0  0  0  0
  6 26  1  0  0  0  0
  7  9  1  0  0  0  0
  7 10  2  0  0  0  0
  8 11  1  0  0  0  0
  8 27  1  0  0  0  0
  8 28  1  0  0  0  0
  9 29  1  0  0  0  0
  9 30  1  0  0  0  0
  9 31  1  0  0  0  0
 11 12  1  0  0  0  0
 11 32  1  0  0  0  0
 11 33  1  0  0  0  0
 12 13  1  0  0  0  0
 12 34  1  0  0  0  0
 12 35  1  0  0  0  0
 13 14  1  0  0  0  0
 13 36  1  0  0  0  0
 13 37  1  0  0  0  0
 14 38  1  0  0  0  0
 14 39  1  0  0  0  0
 14 40  1  0  0  0  0
M  END
>  <Mol_ID>
7168

>  <Formula>
C13H26O

>  <MolWeight>
198.34494

>  <Cat>
E4163

>  <Name>
2-Tridecanone

>  <Synonyms>
2-Tridecanone

>  <Target>
Others

>  <Form>
free base

>  <CAS>
593-08-8

>  <URL>
https://www.selleckchem.com/products/2-tridecanone.html

$$$$
