2(5H)-Furanone
 OpenBabel08302521363D

 10 10  0  0  0  0  0  0  0  0999 V2000
   -1.8807   -0.1426    0.0025 O   0  0  0  0  0  0  0  0  0  0  0  0
   -0.6658   -0.0713    0.0023 C   0  0  0  0  0  0  0  0  0  0  0  0
    0.2386   -1.2203   -0.0013 C   0  0  0  0  0  0  0  0  0  0  0  0
    0.0688    1.0742    0.0043 O   0  0  0  0  0  0  0  0  0  0  0  0
    1.4755   -0.7327   -0.0014 C   0  0  0  0  0  0  0  0  0  0  0  0
    1.4559    0.7415    0.0080 C   0  0  0  0  0  0  0  0  0  0  0  0
   -0.0947   -2.2420   -0.0042 H   0  0  0  0  0  0  0  0  0  0  0  0
    2.3769   -1.3272   -0.0057 H   0  0  0  0  0  0  0  0  0  0  0  0
    1.9326    1.1641   -0.8810 H   0  0  0  0  0  0  0  0  0  0  0  0
    1.9233    1.1508    0.9081 H   0  0  0  0  0  0  0  0  0  0  0  0
  1  2  2  0  0  0  0
  2  3  1  0  0  0  0
  2  4  1  0  0  0  0
  3  5  2  0  0  0  0
  3  7  1  0  0  0  0
  4  6  1  0  0  0  0
  5  6  1  0  0  0  0
  5  8  1  0  0  0  0
  6  9  1  0  0  0  0
  6 10  1  0  0  0  0
M  END
>  <Mol_ID>
7164

>  <Formula>
C4H4O2

>  <MolWeight>
84.07336

>  <Cat>
E4155

>  <Name>
2(5H)-Furanone

>  <Synonyms>
BUTENOLIDE

>  <Target>
Others

>  <Form>
Free base

>  <CAS>
497-23-4

>  <URL>
https://www.selleckchem.com/products/2-5h-furanone.html

$$$$
