28-Homobrassinolide
 OpenBabel08302521563D

 85 88  0  0  1  0  0  0  0  0999 V2000
   -0.2331   -0.6900   -0.5310 C   0  0  0  0  0  0  0  0  0  0  0  0
    4.2342    1.1790   -1.5393 C   0  0  0  0  0  0  0  0  0  0  0  0
   -2.2257    1.5781    1.1263 C   0  0  1  0  0  0  0  0  0  0  0  0
   -3.0202    0.6952    0.1799 C   0  0  2  0  0  0  0  0  0  0  0  0
   -2.9347    2.0062    2.4211 C   0  0  0  0  0  0  0  0  0  0  0  0
   -4.2769    1.2721   -0.4942 C   0  0  1  0  0  0  0  0  0  0  0  0
   -3.2521   -0.5124    0.8778 O   0  0  0  0  0  0  0  0  0  0  0  0
   -4.9187    0.2496   -1.4994 C   0  0  2  0  0  0  0  0  0  0  0  0
   -5.2351    1.7243    0.4535 O   0  0  0  0  0  0  0  0  0  0  0  0
   -6.2059    0.8202   -2.1638 C   0  0  0  0  0  0  0  0  0  0  0  0
   -5.1494   -1.1692   -0.8997 C   0  0  0  0  0  0  0  0  0  0  0  0
   -5.9394    2.0907   -2.9837 C   0  0  0  0  0  0  0  0  0  0  0  0
   -6.8781   -0.1944   -3.1004 C   0  0  0  0  0  0  0  0  0  0  0  0
   -6.0101   -1.2272    0.3607 C   0  0  0  0  0  0  0  0  0  0  0  0
    7.0209    0.5824    0.5349 O   0  0  0  0  0  0  0  0  0  0  0  0
    5.0210    5.4491   -1.9411 O   0  0  0  0  0  0  0  0  0  0  0  0
    7.2217    4.9623   -0.7685 O   0  0  0  0  0  0  0  0  0  0  0  0
    2.6048    0.2914    0.7730 C   0  0  1  0  0  0  0  0  0  0  0  0
    1.2371    0.1791    1.4030 C   0  0  1  0  0  0  0  0  0  0  0  0
    2.7496    1.8402    0.4741 C   0  0  1  0  0  0  0  0  0  0  0  0
    3.7297   -0.2001    1.7050 C   0  0  0  0  0  0  0  0  0  0  0  0
    0.1086    0.5246    0.3851 C   0  0  2  0  0  0  0  0  0  0  0  0
    0.6209   -0.9517    2.2060 C   0  0  0  0  0  0  0  0  0  0  0  0
    4.0211    2.1670   -0.3579 C   0  0  1  0  0  0  0  0  0  0  0  0
    1.4387    2.5861    0.0859 C   0  0  0  0  0  0  0  0  0  0  0  0
    5.0212   -0.3006    1.0836 O   0  0  0  0  0  0  0  0  0  0  0  0
   -0.9042    0.8803    1.5040 C   0  0  2  0  0  0  0  0  0  0  0  0
    0.4671    1.6609   -0.5734 C   0  0  0  0  0  0  0  0  0  0  0  0
   -0.8246   -0.3938    2.4184 C   0  0  0  0  0  0  0  0  0  0  0  0
    5.1738    2.1215    0.6994 C   0  0  1  0  0  0  0  0  0  0  0  0
    3.9095    3.5709   -0.9931 C   0  0  0  0  0  0  0  0  0  0  0  0
    5.8296    0.7588    0.7779 C   0  0  0  0  0  0  0  0  0  0  0  0
    6.1436    3.3136    0.5799 C   0  0  0  0  0  0  0  0  0  0  0  0
    5.1751    4.0442   -1.6851 C   0  0  2  0  0  0  0  0  0  0  0  0
    6.4384    3.7730   -0.8417 C   0  0  1  0  0  0  0  0  0  0  0  0
   -0.7750   -0.3801   -1.4323 H   0  0  0  0  0  0  0  0  0  0  0  0
    0.6781   -1.1671   -0.9074 H   0  0  0  0  0  0  0  0  0  0  0  0
   -0.8380   -1.4602   -0.0473 H   0  0  0  0  0  0  0  0  0  0  0  0
    5.1844    1.3672   -2.0500 H   0  0  0  0  0  0  0  0  0  0  0  0
    3.4306    1.2749   -2.2782 H   0  0  0  0  0  0  0  0  0  0  0  0
    4.2712    0.1273   -1.2525 H   0  0  0  0  0  0  0  0  0  0  0  0
   -1.9848    2.5106    0.5979 H   0  0  0  0  0  0  0  0  0  0  0  0
   -2.3853    0.4656   -0.6719 H   0  0  0  0  0  0  0  0  0  0  0  0
   -2.2817    2.6642    3.0083 H   0  0  0  0  0  0  0  0  0  0  0  0
   -3.1922    1.1533    3.0549 H   0  0  0  0  0  0  0  0  0  0  0  0
   -3.8398    2.5827    2.2299 H   0  0  0  0  0  0  0  0  0  0  0  0
   -3.9449    2.1545   -1.0562 H   0  0  0  0  0  0  0  0  0  0  0  0
   -3.8407   -0.3042    1.6235 H   0  0  0  0  0  0  0  0  0  0  0  0
   -4.1787    0.1092   -2.3020 H   0  0  0  0  0  0  0  0  0  0  0  0
   -5.0958    2.6800    0.5743 H   0  0  0  0  0  0  0  0  0  0  0  0
   -6.9212    1.0724   -1.3713 H   0  0  0  0  0  0  0  0  0  0  0  0
   -5.5818   -1.8441   -1.6436 H   0  0  0  0  0  0  0  0  0  0  0  0
   -4.1825   -1.6500   -0.7200 H   0  0  0  0  0  0  0  0  0  0  0  0
   -5.2646    2.7956   -2.4913 H   0  0  0  0  0  0  0  0  0  0  0  0
   -5.5069    1.8514   -3.9613 H   0  0  0  0  0  0  0  0  0  0  0  0
   -6.8795    2.6263   -3.1563 H   0  0  0  0  0  0  0  0  0  0  0  0
   -7.7497    0.2469   -3.5886 H   0  0  0  0  0  0  0  0  0  0  0  0
   -7.2426   -1.0725   -2.5560 H   0  0  0  0  0  0  0  0  0  0  0  0
   -6.1826   -0.5346   -3.8742 H   0  0  0  0  0  0  0  0  0  0  0  0
   -7.0627   -1.0613    0.1239 H   0  0  0  0  0  0  0  0  0  0  0  0
   -5.9081   -2.2092    0.8328 H   0  0  0  0  0  0  0  0  0  0  0  0
   -5.7372   -0.4941    1.1199 H   0  0  0  0  0  0  0  0  0  0  0  0
    4.3069    5.5412   -2.5958 H   0  0  0  0  0  0  0  0  0  0  0  0
    6.5960    5.6914   -0.9691 H   0  0  0  0  0  0  0  0  0  0  0  0
    2.6167   -0.2952   -0.1489 H   0  0  0  0  0  0  0  0  0  0  0  0
    1.3192    0.9544    2.1859 H   0  0  0  0  0  0  0  0  0  0  0  0
    2.9078    2.2998    1.4609 H   0  0  0  0  0  0  0  0  0  0  0  0
    3.4793   -1.2277    2.0237 H   0  0  0  0  0  0  0  0  0  0  0  0
    3.7893    0.3938    2.6229 H   0  0  0  0  0  0  0  0  0  0  0  0
    0.6069   -1.9015    1.6552 H   0  0  0  0  0  0  0  0  0  0  0  0
    1.1245   -1.1280    3.1601 H   0  0  0  0  0  0  0  0  0  0  0  0
    1.5661    3.4749   -0.5286 H   0  0  0  0  0  0  0  0  0  0  0  0
    0.9800    2.9858    1.0016 H   0  0  0  0  0  0  0  0  0  0  0  0
   -0.4475    1.6742    2.1185 H   0  0  0  0  0  0  0  0  0  0  0  0
   -0.4227    2.2022   -0.9117 H   0  0  0  0  0  0  0  0  0  0  0  0
    0.9403    1.2759   -1.4877 H   0  0  0  0  0  0  0  0  0  0  0  0
   -1.5404   -1.1811    2.1720 H   0  0  0  0  0  0  0  0  0  0  0  0
   -0.9826   -0.1217    3.4666 H   0  0  0  0  0  0  0  0  0  0  0  0
    4.7998    2.2688    1.7198 H   0  0  0  0  0  0  0  0  0  0  0  0
    3.6140    4.3077   -0.2330 H   0  0  0  0  0  0  0  0  0  0  0  0
    3.1194    3.5893   -1.7562 H   0  0  0  0  0  0  0  0  0  0  0  0
    5.6997    4.1667    1.1219 H   0  0  0  0  0  0  0  0  0  0  0  0
    7.0798    3.1133    1.1106 H   0  0  0  0  0  0  0  0  0  0  0  0
    5.2852    3.5583   -2.6616 H   0  0  0  0  0  0  0  0  0  0  0  0
    7.0375    3.0001   -1.3371 H   0  0  0  0  0  0  0  0  0  0  0  0
  1 36  1  0  0  0  0
  1 37  1  0  0  0  0
  1 38  1  0  0  0  0
  2 39  1  0  0  0  0
  2 40  1  0  0  0  0
  2 41  1  0  0  0  0
  3  4  1  0  0  0  0
  3  5  1  0  0  0  0
  3 42  1  6  0  0  0
  4  6  1  0  0  0  0
  4  7  1  0  0  0  0
  4 43  1  6  0  0  0
  5 44  1  0  0  0  0
  5 45  1  0  0  0  0
  5 46  1  0  0  0  0
  6  8  1  0  0  0  0
  6  9  1  0  0  0  0
  6 47  1  6  0  0  0
  7 48  1  0  0  0  0
  8 10  1  0  0  0  0
  8 11  1  0  0  0  0
  8 49  1  6  0  0  0
  9 50  1  0  0  0  0
 10 12  1  0  0  0  0
 10 13  1  0  0  0  0
 10 51  1  0  0  0  0
 11 14  1  0  0  0  0
 11 52  1  0  0  0  0
 11 53  1  0  0  0  0
 12 54  1  0  0  0  0
 12 55  1  0  0  0  0
 12 56  1  0  0  0  0
 13 57  1  0  0  0  0
 13 58  1  0  0  0  0
 13 59  1  0  0  0  0
 14 60  1  0  0  0  0
 14 61  1  0  0  0  0
 14 62  1  0  0  0  0
 15 32  2  0  0  0  0
 16 63  1  0  0  0  0
 17 64  1  0  0  0  0
 18 19  1  0  0  0  0
 18 20  1  0  0  0  0
 18 21  1  0  0  0  0
 18 65  1  6  0  0  0
 19 22  1  0  0  0  0
 19 23  1  0  0  0  0
 19 66  1  1  0  0  0
 20 24  1  0  0  0  0
 20 25  1  0  0  0  0
 20 67  1  1  0  0  0
 21 26  1  0  0  0  0
 21 68  1  0  0  0  0
 21 69  1  0  0  0  0
 22  1  1  6  0  0  0
 22 27  1  0  0  0  0
 22 28  1  0  0  0  0
 23 29  1  0  0  0  0
 23 70  1  0  0  0  0
 23 71  1  0  0  0  0
 24  2  1  6  0  0  0
 24 30  1  0  0  0  0
 24 31  1  0  0  0  0
 25 28  1  0  0  0  0
 25 72  1  0  0  0  0
 25 73  1  0  0  0  0
 26 32  1  0  0  0  0
 27  3  1  0  0  0  0
 27 29  1  0  0  0  0
 27 74  1  1  0  0  0
 28 75  1  0  0  0  0
 28 76  1  0  0  0  0
 29 77  1  0  0  0  0
 29 78  1  0  0  0  0
 30 32  1  0  0  0  0
 30 33  1  0  0  0  0
 30 79  1  1  0  0  0
 31 34  1  0  0  0  0
 31 80  1  0  0  0  0
 31 81  1  0  0  0  0
 33 35  1  0  0  0  0
 33 82  1  0  0  0  0
 33 83  1  0  0  0  0
 34 16  1  0  0  0  0
 34 35  1  0  0  0  0
 34 84  1  6  0  0  0
 35 17  1  0  0  0  0
 35 85  1  6  0  0  0
M  END
>  <Mol_ID>
10050

>  <Formula>
C29H50O6

>  <MolWeight>
494.7037

>  <Cat>
E5604

>  <Name>
28-Homobrassinolide

>  <Synonyms>
N/A

>  <Target>
Liver X Receptor

>  <Form>
free base

>  <CAS>
82373-95-3

>  <URL>
https://www.selleckchem.com/products/28-homobrassinolide.html

$$$$
