2OH-BNPP1
 OpenBabel08302521353D

 41 43  0  0  0  0  0  0  0  0999 V2000
    2.5946   -0.3615    0.6439 O   0  0  0  0  0  0  0  0  0  0  0  0
   -0.6265   -4.1855    2.8625 N   0  0  0  0  0  0  0  0  0  0  0  0
   -0.7433   -3.7250    1.5901 N   0  0  0  0  0  0  0  0  0  0  0  0
    1.1203   -4.4573    4.5510 N   0  0  0  0  0  0  0  0  0  0  0  0
    3.2623   -3.6337    3.7848 N   0  0  0  0  0  0  0  0  0  0  0  0
    3.6403   -2.7122    1.6712 N   0  0  0  0  0  0  0  0  0  0  0  0
   -1.8030   -4.7314    3.5632 C   0  0  0  0  0  0  0  0  0  0  0  0
    0.6575   -4.0781    3.3455 C   0  0  0  0  0  0  0  0  0  0  0  0
   -3.0645   -4.6936    2.6663 C   0  0  0  0  0  0  0  0  0  0  0  0
   -1.5634   -6.2006    3.9617 C   0  0  0  0  0  0  0  0  0  0  0  0
   -2.1112   -3.8961    4.8242 C   0  0  0  0  0  0  0  0  0  0  0  0
    1.4007   -3.4928    2.3354 C   0  0  0  0  0  0  0  0  0  0  0  0
    0.4765   -3.2504    1.2879 C   0  0  0  0  0  0  0  0  0  0  0  0
    0.7331   -2.6181   -0.0436 C   0  0  0  0  0  0  0  0  0  0  0  0
    2.7576   -3.2837    2.5900 C   0  0  0  0  0  0  0  0  0  0  0  0
    0.3600   -1.1601    0.0757 C   0  0  0  0  0  0  0  0  0  0  0  0
    2.4299   -4.1915    4.6867 C   0  0  0  0  0  0  0  0  0  0  0  0
    1.2696   -0.1456    0.4006 C   0  0  0  0  0  0  0  0  0  0  0  0
   -0.9693   -0.7829   -0.2033 C   0  0  0  0  0  0  0  0  0  0  0  0
    0.8714    1.1915    0.4464 C   0  0  0  0  0  0  0  0  0  0  0  0
   -1.3680    0.5551   -0.1611 C   0  0  0  0  0  0  0  0  0  0  0  0
   -0.4467    1.5433    0.1687 C   0  0  0  0  0  0  0  0  0  0  0  0
    2.7276   -1.2075    1.1155 H   0  0  0  0  0  0  0  0  0  0  0  0
    3.6271   -3.2080    0.7834 H   0  0  0  0  0  0  0  0  0  0  0  0
    4.5704   -2.7479    2.0905 H   0  0  0  0  0  0  0  0  0  0  0  0
   -2.9281   -5.2963    1.7606 H   0  0  0  0  0  0  0  0  0  0  0  0
   -3.9410   -5.0890    3.1930 H   0  0  0  0  0  0  0  0  0  0  0  0
   -3.3057   -3.6705    2.3533 H   0  0  0  0  0  0  0  0  0  0  0  0
   -0.7244   -6.3105    4.6561 H   0  0  0  0  0  0  0  0  0  0  0  0
   -2.4461   -6.6221    4.4566 H   0  0  0  0  0  0  0  0  0  0  0  0
   -1.3463   -6.8157    3.0807 H   0  0  0  0  0  0  0  0  0  0  0  0
   -1.2957   -3.9329    5.5531 H   0  0  0  0  0  0  0  0  0  0  0  0
   -2.2798   -2.8433    4.5695 H   0  0  0  0  0  0  0  0  0  0  0  0
   -3.0117   -4.2655    5.3293 H   0  0  0  0  0  0  0  0  0  0  0  0
    0.1261   -3.1037   -0.8186 H   0  0  0  0  0  0  0  0  0  0  0  0
    1.7716   -2.7338   -0.3658 H   0  0  0  0  0  0  0  0  0  0  0  0
    2.8774   -4.4625    5.6384 H   0  0  0  0  0  0  0  0  0  0  0  0
   -1.7057   -1.5419   -0.4644 H   0  0  0  0  0  0  0  0  0  0  0  0
    1.5969    1.9600    0.6995 H   0  0  0  0  0  0  0  0  0  0  0  0
   -2.3960    0.8231   -0.3900 H   0  0  0  0  0  0  0  0  0  0  0  0
   -0.7497    2.5857    0.2051 H   0  0  0  0  0  0  0  0  0  0  0  0
  1 18  1  0  0  0  0
  1 23  1  0  0  0  0
  2  3  1  0  0  0  0
  2  7  1  0  0  0  0
  2  8  1  0  0  0  0
  3 13  2  0  0  0  0
  4  8  2  0  0  0  0
  4 17  1  0  0  0  0
  5 15  1  0  0  0  0
  5 17  2  0  0  0  0
  6 15  1  0  0  0  0
  6 24  1  0  0  0  0
  6 25  1  0  0  0  0
  7  9  1  0  0  0  0
  7 10  1  0  0  0  0
  7 11  1  0  0  0  0
  8 12  1  0  0  0  0
  9 26  1  0  0  0  0
  9 27  1  0  0  0  0
  9 28  1  0  0  0  0
 10 29  1  0  0  0  0
 10 30  1  0  0  0  0
 10 31  1  0  0  0  0
 11 32  1  0  0  0  0
 11 33  1  0  0  0  0
 11 34  1  0  0  0  0
 12 13  1  0  0  0  0
 12 15  2  0  0  0  0
 13 14  1  0  0  0  0
 14 16  1  0  0  0  0
 14 35  1  0  0  0  0
 14 36  1  0  0  0  0
 16 18  2  0  0  0  0
 16 19  1  0  0  0  0
 17 37  1  0  0  0  0
 18 20  1  0  0  0  0
 19 21  2  0  0  0  0
 19 38  1  0  0  0  0
 20 22  2  0  0  0  0
 20 39  1  0  0  0  0
 21 22  1  0  0  0  0
 21 40  1  0  0  0  0
 22 41  1  0  0  0  0
M  END
>  <Mol_ID>
6675

>  <Formula>
C16H19N5O

>  <MolWeight>
297.35496

>  <Cat>
S3522

>  <Name>
2OH-BNPP1

>  <Synonyms>
N/A

>  <Target>
Serine/threonin kinase

>  <Form>
Free base

>  <CAS>
833481-73-5

>  <URL>
http://www.selleckchem.com/products/2oh-bnpp1.html

$$$$
