(2R,3R)-(-)-2,3-Butanediol
 OpenBabel08302521293D

 16 15  0  0  0  0  0  0  0  0999 V2000
    2.8316    2.2109    3.0008 C   0  0  0  0  0  0  0  0  0  0  0  0
    2.5028    1.0094    2.1276 C   0  0  1  0  0  0  0  0  0  0  0  0
    1.0748    0.9006    2.0096 O   0  0  0  0  0  0  0  0  0  0  0  0
    3.0809    1.1147    0.7036 C   0  0  2  0  0  0  0  0  0  0  0  0
    2.6552   -0.0317   -0.0440 O   0  0  0  0  0  0  0  0  0  0  0  0
    4.6001    1.1606    0.6663 C   0  0  0  0  0  0  0  0  0  0  0  0
    2.4688    3.1375    2.5425 H   0  0  0  0  0  0  0  0  0  0  0  0
    2.3341    2.1266    3.9733 H   0  0  0  0  0  0  0  0  0  0  0  0
    3.9070    2.3033    3.1772 H   0  0  0  0  0  0  0  0  0  0  0  0
    2.8487    0.0848    2.6035 H   0  0  0  0  0  0  0  0  0  0  0  0
    0.7218    0.7807    2.9074 H   0  0  0  0  0  0  0  0  0  0  0  0
    2.6683    1.9909    0.1908 H   0  0  0  0  0  0  0  0  0  0  0  0
    1.6901   -0.0821    0.1110 H   0  0  0  0  0  0  0  0  0  0  0  0
    4.9576    1.1227   -0.3682 H   0  0  0  0  0  0  0  0  0  0  0  0
    4.9897    2.0712    1.1295 H   0  0  0  0  0  0  0  0  0  0  0  0
    5.0299    0.2934    1.1788 H   0  0  0  0  0  0  0  0  0  0  0  0
  1  7  1  0  0  0  0
  1  8  1  0  0  0  0
  1  9  1  0  0  0  0
  2  1  1  0  0  0  0
  2  3  1  0  0  0  0
  2 10  1  1  0  0  0
  3 11  1  0  0  0  0
  4  6  1  0  0  0  0
  4 12  1  6  0  0  0
  4  5  1  0  0  0  0
  4  2  1  0  0  0  0
  5 13  1  0  0  0  0
  6 14  1  0  0  0  0
  6 15  1  0  0  0  0
  6 16  1  0  0  0  0
M  END
>  <Mol_ID>
5495

>  <Formula>
C4H10O2

>  <MolWeight>
90.121

>  <Cat>
S3333

>  <Name>
(2R,3R)-(-)-2,3-Butanediol

>  <Synonyms>
(2R,3R)-Butane-2,3-diol

>  <Target>
Others

>  <Form>
Free Base

>  <CAS>
24347-58-8

>  <URL>
https://www.selleckchem.com/products/2r-3r-2-3-butanediol.html

$$$$
