3',?4',?5',?5,?7-?Pentamethoxyflavone
 OpenBabel08302521503D

 47 49  0  0  0  0  0  0  0  0999 V2000
    1.0183    0.2736    0.0950 O   0  0  0  0  0  0  0  0  0  0  0  0
    0.0025   -0.7061    0.0890 C   0  0  0  0  0  0  0  0  0  0  0  0
    1.3389   -2.9097    0.3319 O   0  0  0  0  0  0  0  0  0  0  0  0
    5.2165    2.3925   -0.0185 O   0  0  0  0  0  0  0  0  0  0  0  0
    4.5257    3.6371   -0.0331 C   0  0  0  0  0  0  0  0  0  0  0  0
    7.0911   -6.4236   -3.1001 O   0  0  0  0  0  0  0  0  0  0  0  0
    6.5447   -5.6567   -4.1655 C   0  0  0  0  0  0  0  0  0  0  0  0
    7.4603   -7.0981    1.7267 O   0  0  0  0  0  0  0  0  0  0  0  0
    8.7505   -7.6983    1.6974 C   0  0  0  0  0  0  0  0  0  0  0  0
    8.0631   -7.9909   -0.8832 O   0  0  0  0  0  0  0  0  0  0  0  0
    8.3378   -8.5320   -2.1643 C   0  0  0  0  0  0  0  0  0  0  0  0
    3.0742   -1.2311    0.1269 C   0  0  0  0  0  0  0  0  0  0  0  0
    4.4854   -1.1545    0.0798 C   0  0  0  0  0  0  0  0  0  0  0  0
    2.3519   -0.0222    0.0948 C   0  0  0  0  0  0  0  0  0  0  0  0
    2.5178   -2.6139    0.2101 C   0  0  0  0  0  0  0  0  0  0  0  0
    5.3265   -2.2465    0.0532 O   0  0  0  0  0  0  0  0  0  0  0  0
    5.1610    0.0704    0.0374 C   0  0  0  0  0  0  0  0  0  0  0  0
    3.0652    1.2023    0.0440 C   0  0  0  0  0  0  0  0  0  0  0  0
    3.4586   -3.7402    0.1234 C   0  0  0  0  0  0  0  0  0  0  0  0
    4.7645   -3.4970    0.0390 C   0  0  0  0  0  0  0  0  0  0  0  0
    4.4540    1.2606    0.0228 C   0  0  0  0  0  0  0  0  0  0  0  0
    5.6934   -4.6017   -0.1933 C   0  0  0  0  0  0  0  0  0  0  0  0
    5.9948   -4.9567   -1.5122 C   0  0  0  0  0  0  0  0  0  0  0  0
    6.2253   -5.3532    0.8486 C   0  0  0  0  0  0  0  0  0  0  0  0
    6.7998   -6.0640   -1.8091 C   0  0  0  0  0  0  0  0  0  0  0  0
    7.0514   -6.4533    0.5823 C   0  0  0  0  0  0  0  0  0  0  0  0
    7.3241   -6.8431   -0.7521 C   0  0  0  0  0  0  0  0  0  0  0  0
    0.0692   -1.3432   -0.7964 H   0  0  0  0  0  0  0  0  0  0  0  0
   -0.0143   -1.2493    1.0363 H   0  0  0  0  0  0  0  0  0  0  0  0
   -0.9565   -0.1817    0.0224 H   0  0  0  0  0  0  0  0  0  0  0  0
    3.9165    3.7376   -0.9376 H   0  0  0  0  0  0  0  0  0  0  0  0
    3.9185    3.7648    0.8693 H   0  0  0  0  0  0  0  0  0  0  0  0
    5.2740    4.4356   -0.0452 H   0  0  0  0  0  0  0  0  0  0  0  0
    5.4526   -5.7346   -4.1852 H   0  0  0  0  0  0  0  0  0  0  0  0
    6.8700   -4.6126   -4.1122 H   0  0  0  0  0  0  0  0  0  0  0  0
    6.9254   -6.0719   -5.1035 H   0  0  0  0  0  0  0  0  0  0  0  0
    8.6926   -8.7174    1.3043 H   0  0  0  0  0  0  0  0  0  0  0  0
    9.4793   -7.0939    1.1467 H   0  0  0  0  0  0  0  0  0  0  0  0
    9.1026   -7.7757    2.7311 H   0  0  0  0  0  0  0  0  0  0  0  0
    7.4182   -8.7882   -2.6997 H   0  0  0  0  0  0  0  0  0  0  0  0
    8.9866   -7.8666   -2.7422 H   0  0  0  0  0  0  0  0  0  0  0  0
    8.8904   -9.4652   -2.0152 H   0  0  0  0  0  0  0  0  0  0  0  0
    6.2485    0.0902    0.0123 H   0  0  0  0  0  0  0  0  0  0  0  0
    2.4773    2.1177    0.0204 H   0  0  0  0  0  0  0  0  0  0  0  0
    3.0328   -4.7363    0.0938 H   0  0  0  0  0  0  0  0  0  0  0  0
    5.5569   -4.3510   -2.3029 H   0  0  0  0  0  0  0  0  0  0  0  0
    5.9988   -5.0980    1.8828 H   0  0  0  0  0  0  0  0  0  0  0  0
  1  2  1  0  0  0  0
  1 14  1  0  0  0  0
  2 28  1  0  0  0  0
  2 29  1  0  0  0  0
  2 30  1  0  0  0  0
  3 15  2  0  0  0  0
  4  5  1  0  0  0  0
  4 21  1  0  0  0  0
  5 31  1  0  0  0  0
  5 32  1  0  0  0  0
  5 33  1  0  0  0  0
  6  7  1  0  0  0  0
  6 25  1  0  0  0  0
  7 34  1  0  0  0  0
  7 35  1  0  0  0  0
  7 36  1  0  0  0  0
  8  9  1  0  0  0  0
  8 26  1  0  0  0  0
  9 37  1  0  0  0  0
  9 38  1  0  0  0  0
  9 39  1  0  0  0  0
 10 11  1  0  0  0  0
 10 27  1  0  0  0  0
 11 40  1  0  0  0  0
 11 41  1  0  0  0  0
 11 42  1  0  0  0  0
 12 13  1  0  0  0  0
 12 14  2  0  0  0  0
 12 15  1  0  0  0  0
 13 16  1  0  0  0  0
 13 17  2  0  0  0  0
 14 18  1  0  0  0  0
 15 19  1  0  0  0  0
 16 20  1  0  0  0  0
 17 21  1  0  0  0  0
 17 43  1  0  0  0  0
 18 21  2  0  0  0  0
 18 44  1  0  0  0  0
 19 20  2  0  0  0  0
 19 45  1  0  0  0  0
 20 22  1  0  0  0  0
 22 23  2  0  0  0  0
 22 24  1  0  0  0  0
 23 25  1  0  0  0  0
 23 46  1  0  0  0  0
 24 26  2  0  0  0  0
 24 47  1  0  0  0  0
 25 27  2  0  0  0  0
 26 27  1  0  0  0  0
M  END
>  <Mol_ID>
9942

>  <Formula>
C20H20O7

>  <MolWeight>
372.3686

>  <Cat>
E5176

>  <Name>
3',?4',?5',?5,?7-?Pentamethoxyflavone

>  <Synonyms>
N/A

>  <Target>
Nrf2

>  <Form>
free base

>  <CAS>
53350-26-8

>  <URL>
https://www.selleckchem.com/products/3-?4-?5-?5-?7-?pentamethoxyflavone.html

$$$$
