3'-Fluoro-3'-deoxythymidine (Alovudine)
 OpenBabel08302521243D

 30 31  0  0  0  0  0  0  0  0999 V2000
   -0.7324   -0.9697   -0.1591 C   0  0  2  0  0  0  0  0  0  0  0  0
   -1.4209   -2.0709    0.5023 N   0  0  0  0  0  0  0  0  0  0  0  0
    0.6783   -0.9982    0.1368 O   0  0  0  0  0  0  0  0  0  0  0  0
   -1.2122    0.4102    0.2545 C   0  0  0  0  0  0  0  0  0  0  0  0
   -2.6257   -2.4866   -0.0490 C   0  0  0  0  0  0  0  0  0  0  0  0
   -0.8539   -2.7310    1.5752 C   0  0  0  0  0  0  0  0  0  0  0  0
    1.1603    0.3689    0.0882 C   0  0  1  0  0  0  0  0  0  0  0  0
   -0.0437    1.2525   -0.1928 C   0  0  1  0  0  0  0  0  0  0  0  0
   -3.1846   -3.6014    0.5177 N   0  0  0  0  0  0  0  0  0  0  0  0
   -3.1757   -1.9299   -0.9968 O   0  0  0  0  0  0  0  0  0  0  0  0
   -1.3590   -3.8668    2.0699 C   0  0  0  0  0  0  0  0  0  0  0  0
    1.8103    0.6737    1.4370 C   0  0  0  0  0  0  0  0  0  0  0  0
   -0.1465    1.4255   -1.5420 F   0  0  0  0  0  0  0  0  0  0  0  0
   -2.5951   -4.4025    1.4538 C   0  0  0  0  0  0  0  0  0  0  0  0
   -0.7239   -4.6582    3.1644 C   0  0  0  0  0  0  0  0  0  0  0  0
    2.8724   -0.2406    1.6910 O   0  0  0  0  0  0  0  0  0  0  0  0
   -3.0541   -5.4958    1.7616 O   0  0  0  0  0  0  0  0  0  0  0  0
   -0.8316   -1.0958   -1.2464 H   0  0  0  0  0  0  0  0  0  0  0  0
   -2.1537    0.6862   -0.2285 H   0  0  0  0  0  0  0  0  0  0  0  0
   -1.3358    0.4777    1.3419 H   0  0  0  0  0  0  0  0  0  0  0  0
    0.0629   -2.3148    1.9820 H   0  0  0  0  0  0  0  0  0  0  0  0
    1.9041    0.4154   -0.7145 H   0  0  0  0  0  0  0  0  0  0  0  0
    0.0028    2.2438    0.2645 H   0  0  0  0  0  0  0  0  0  0  0  0
   -4.0171   -3.9586    0.0764 H   0  0  0  0  0  0  0  0  0  0  0  0
    2.2229    1.6876    1.4516 H   0  0  0  0  0  0  0  0  0  0  0  0
    1.0943    0.5729    2.2591 H   0  0  0  0  0  0  0  0  0  0  0  0
   -1.4364   -4.8496    3.9732 H   0  0  0  0  0  0  0  0  0  0  0  0
   -0.3670   -5.6185    2.7783 H   0  0  0  0  0  0  0  0  0  0  0  0
    0.1357   -4.1340    3.5962 H   0  0  0  0  0  0  0  0  0  0  0  0
    2.5400   -1.1253    1.4392 H   0  0  0  0  0  0  0  0  0  0  0  0
  1  3  1  0  0  0  0
  1  4  1  0  0  0  0
  1 18  1  6  0  0  0
  1  2  1  0  0  0  0
  2  5  1  0  0  0  0
  2  6  1  0  0  0  0
  3  7  1  0  0  0  0
  4  8  1  0  0  0  0
  4 19  1  0  0  0  0
  4 20  1  0  0  0  0
  5  9  1  0  0  0  0
  5 10  2  0  0  0  0
  6 11  2  0  0  0  0
  6 21  1  0  0  0  0
  7 12  1  0  0  0  0
  7  8  1  0  0  0  0
  7 22  1  6  0  0  0
  8 23  1  1  0  0  0
  8 13  1  0  0  0  0
  9 14  1  0  0  0  0
  9 24  1  0  0  0  0
 11 15  1  0  0  0  0
 11 14  1  0  0  0  0
 12 16  1  0  0  0  0
 12 25  1  0  0  0  0
 12 26  1  0  0  0  0
 14 17  2  0  0  0  0
 15 27  1  0  0  0  0
 15 28  1  0  0  0  0
 15 29  1  0  0  0  0
 16 30  1  0  0  0  0
M  END
>  <Mol_ID>
5016

>  <Formula>
C10H13FN2O4

>  <MolWeight>
244.2196232

>  <Cat>
S6848

>  <Name>
3'-Fluoro-3'-deoxythymidine (Alovudine)

>  <Synonyms>
CL 184824, FddThd, FLT, MIV-310

>  <Target>
DNA/RNA Synthesis,HIV,Reverse Transcriptase

>  <Form>
Free Base

>  <CAS>
25526-93-6

>  <URL>
http://www.selleckchem.com/products/3-fluoro-3-deoxythymidine.html

$$$$
