3'-Hydroxy-4'-methoxyacetophenone
 OpenBabel08302521243D

 22 22  0  0  0  0  0  0  0  0999 V2000
   -1.7775    0.0464    0.0002 C   0  0  0  0  0  0  0  0  0  0  0  0
   -1.0794   -1.1669   -0.0449 C   0  0  0  0  0  0  0  0  0  0  0  0
    0.3156   -1.1863   -0.0115 C   0  0  0  0  0  0  0  0  0  0  0  0
    0.9961    0.0304    0.0660 C   0  0  0  0  0  0  0  0  0  0  0  0
    0.3052    1.2457    0.1304 C   0  0  0  0  0  0  0  0  0  0  0  0
   -1.0923    1.2684    0.0741 C   0  0  0  0  0  0  0  0  0  0  0  0
   -1.9019    2.5300    0.0459 C   0  0  0  0  0  0  0  0  0  0  0  0
   -1.2423    3.8856    0.0338 C   0  0  0  0  0  0  0  0  0  0  0  0
   -3.1346    2.4479    0.0196 O   0  0  0  0  0  0  0  0  0  0  0  0
    2.3571    0.1278    0.0005 O   0  0  0  0  0  0  0  0  0  0  0  0
    0.8841   -2.4198   -0.1669 O   0  0  0  0  0  0  0  0  0  0  0  0
    1.9913   -2.7217    0.6768 C   0  0  0  0  0  0  0  0  0  0  0  0
   -2.8658    0.0302   -0.0463 H   0  0  0  0  0  0  0  0  0  0  0  0
   -1.6348   -2.0992   -0.1192 H   0  0  0  0  0  0  0  0  0  0  0  0
    0.8983    2.1512    0.1750 H   0  0  0  0  0  0  0  0  0  0  0  0
   -1.5644    4.4223   -0.8618 H   0  0  0  0  0  0  0  0  0  0  0  0
   -1.5610    4.4340    0.9252 H   0  0  0  0  0  0  0  0  0  0  0  0
   -0.1553    3.8580    0.0273 H   0  0  0  0  0  0  0  0  0  0  0  0
    2.6510   -0.5799   -0.5988 H   0  0  0  0  0  0  0  0  0  0  0  0
    2.9267   -2.4141    0.2018 H   0  0  0  0  0  0  0  0  0  0  0  0
    1.8952   -2.2886    1.6774 H   0  0  0  0  0  0  0  0  0  0  0  0
    2.0376   -3.8109    0.7807 H   0  0  0  0  0  0  0  0  0  0  0  0
  1  2  2  0  0  0  0
  1 13  1  0  0  0  0
  2  3  1  0  0  0  0
  2 14  1  0  0  0  0
  3  4  2  0  0  0  0
  3 11  1  0  0  0  0
  4  5  1  0  0  0  0
  4 10  1  0  0  0  0
  5  6  2  0  0  0  0
  5 15  1  0  0  0  0
  6  1  1  0  0  0  0
  6  7  1  0  0  0  0
  7  8  1  0  0  0  0
  7  9  2  0  0  0  0
  8 16  1  0  0  0  0
  8 17  1  0  0  0  0
  8 18  1  0  0  0  0
 10 19  1  0  0  0  0
 11 12  1  0  0  0  0
 12 20  1  0  0  0  0
 12 21  1  0  0  0  0
 12 22  1  0  0  0  0
M  END
>  <Mol_ID>
5104

>  <Formula>
C9H10O3

>  <MolWeight>
166.1739

>  <Cat>
S3210

>  <Name>
3'-Hydroxy-4'-methoxyacetophenone

>  <Synonyms>
Acetoisovanillone, Isoacetovanillone, Diosmin EP Impurity A

>  <Target>
Anti-infection

>  <Form>
free base

>  <CAS>
6100-74-9

>  <URL>
http://www.selleckchem.com/products/3-hydroxy-4-methoxyacetophenone.html

$$$$
