3,3-Dimethyl-1-butanol
 OpenBabel08302521353D

 21 20  0  0  0  0  0  0  0  0999 V2000
    0.9045    0.0302    0.0443 C   0  0  0  0  0  0  0  0  0  0  0  0
    0.4389   -0.3588   -1.3809 C   0  0  0  0  0  0  0  0  0  0  0  0
    2.4167    0.0928    0.2576 C   0  0  0  0  0  0  0  0  0  0  0  0
    0.9249   -1.7671   -1.7592 C   0  0  0  0  0  0  0  0  0  0  0  0
   -1.1020   -0.3527   -1.4047 C   0  0  0  0  0  0  0  0  0  0  0  0
    0.9464    0.6495   -2.4232 C   0  0  0  0  0  0  0  0  0  0  0  0
    2.6920    0.4669    1.6031 O   0  0  0  0  0  0  0  0  0  0  0  0
    0.4841   -0.6744    0.7755 H   0  0  0  0  0  0  0  0  0  0  0  0
    0.4775    1.0054    0.3164 H   0  0  0  0  0  0  0  0  0  0  0  0
    2.8841   -0.8803    0.0878 H   0  0  0  0  0  0  0  0  0  0  0  0
    2.8931    0.8270   -0.3982 H   0  0  0  0  0  0  0  0  0  0  0  0
    0.5776   -2.5126   -1.0353 H   0  0  0  0  0  0  0  0  0  0  0  0
    0.5473   -2.0617   -2.7453 H   0  0  0  0  0  0  0  0  0  0  0  0
    2.0175   -1.8232   -1.8027 H   0  0  0  0  0  0  0  0  0  0  0  0
   -1.4990    0.6334   -1.1386 H   0  0  0  0  0  0  0  0  0  0  0  0
   -1.4848   -0.6087   -2.3994 H   0  0  0  0  0  0  0  0  0  0  0  0
   -1.5128   -1.0804   -0.6960 H   0  0  0  0  0  0  0  0  0  0  0  0
    0.6373    1.6701   -2.1691 H   0  0  0  0  0  0  0  0  0  0  0  0
    2.0383    0.6382   -2.5040 H   0  0  0  0  0  0  0  0  0  0  0  0
    0.5478    0.4218   -3.4188 H   0  0  0  0  0  0  0  0  0  0  0  0
    2.3396    1.3638    1.7344 H   0  0  0  0  0  0  0  0  0  0  0  0
  1  2  1  0  0  0  0
  1  3  1  0  0  0  0
  1  8  1  0  0  0  0
  1  9  1  0  0  0  0
  2  4  1  0  0  0  0
  2  5  1  0  0  0  0
  2  6  1  0  0  0  0
  3  7  1  0  0  0  0
  3 10  1  0  0  0  0
  3 11  1  0  0  0  0
  4 12  1  0  0  0  0
  4 13  1  0  0  0  0
  4 14  1  0  0  0  0
  5 15  1  0  0  0  0
  5 16  1  0  0  0  0
  5 17  1  0  0  0  0
  6 18  1  0  0  0  0
  6 19  1  0  0  0  0
  6 20  1  0  0  0  0
  7 21  1  0  0  0  0
M  END
>  <Mol_ID>
7011

>  <Formula>
C6H14O

>  <MolWeight>
102.17476

>  <Cat>
E4432

>  <Name>
3,3-Dimethyl-1-butanol

>  <Synonyms>
Neohexanol

>  <Target>
Others

>  <Form>
free base

>  <CAS>
624-95-3

>  <URL>
https://www.selleckchem.com/products/3-3-dimethyl-1-butanol.html

$$$$
