3,3-Dimethylglutaric acid
 OpenBabel08302520393D

 23 22  0  0  0  0  0  0  0  0999 V2000
    1.0746    0.1021    0.0470 C   0  0  0  0  0  0  0  0  0  0  0  0
    0.5836   -0.8524    1.1661 C   0  0  0  0  0  0  0  0  0  0  0  0
    0.6288    1.5679    0.2585 C   0  0  0  0  0  0  0  0  0  0  0  0
    0.5418   -0.3650   -1.3228 C   0  0  0  0  0  0  0  0  0  0  0  0
    2.6159    0.0299   -0.0039 C   0  0  0  0  0  0  0  0  0  0  0  0
   -0.9211   -0.9397    1.3132 C   0  0  0  0  0  0  0  0  0  0  0  0
    1.0039    2.1062    1.6164 C   0  0  0  0  0  0  0  0  0  0  0  0
   -1.4468   -0.0466    2.1739 O   0  0  0  0  0  0  0  0  0  0  0  0
   -1.6103   -1.7296    0.6847 O   0  0  0  0  0  0  0  0  0  0  0  0
    2.1241    2.8494    1.6338 O   0  0  0  0  0  0  0  0  0  0  0  0
    0.3748    1.8190    2.6289 O   0  0  0  0  0  0  0  0  0  0  0  0
    0.9355   -1.8743    0.9667 H   0  0  0  0  0  0  0  0  0  0  0  0
    1.0213   -0.6020    2.1399 H   0  0  0  0  0  0  0  0  0  0  0  0
    1.0372    2.2241   -0.5200 H   0  0  0  0  0  0  0  0  0  0  0  0
   -0.4610    1.6635    0.1698 H   0  0  0  0  0  0  0  0  0  0  0  0
    0.9298    0.2658   -2.1311 H   0  0  0  0  0  0  0  0  0  0  0  0
    0.8419   -1.3972   -1.5338 H   0  0  0  0  0  0  0  0  0  0  0  0
   -0.5510   -0.3145   -1.3709 H   0  0  0  0  0  0  0  0  0  0  0  0
    3.0698    0.3716    0.9322 H   0  0  0  0  0  0  0  0  0  0  0  0
    2.9567   -0.9976   -0.1741 H   0  0  0  0  0  0  0  0  0  0  0  0
    3.0147    0.6495   -0.8152 H   0  0  0  0  0  0  0  0  0  0  0  0
   -0.7997    0.5611    2.6079 H   0  0  0  0  0  0  0  0  0  0  0  0
    2.5544    2.9630    0.7636 H   0  0  0  0  0  0  0  0  0  0  0  0
  1  2  1  0  0  0  0
  1  3  1  0  0  0  0
  1  4  1  0  0  0  0
  1  5  1  0  0  0  0
  2  6  1  0  0  0  0
  2 12  1  0  0  0  0
  2 13  1  0  0  0  0
  3  7  1  0  0  0  0
  3 14  1  0  0  0  0
  3 15  1  0  0  0  0
  4 16  1  0  0  0  0
  4 17  1  0  0  0  0
  4 18  1  0  0  0  0
  5 19  1  0  0  0  0
  5 20  1  0  0  0  0
  5 21  1  0  0  0  0
  6  8  1  0  0  0  0
  6  9  2  0  0  0  0
  7 10  1  0  0  0  0
  7 11  2  0  0  0  0
  8 22  1  0  0  0  0
 10 23  1  0  0  0  0
M  END
>  <Mol_ID>
3634

>  <Formula>
C7H12O4

>  <MolWeight>
160.16778

>  <Cat>
S6283

>  <Name>
3,3-Dimethylglutaric acid

>  <Synonyms>
3,3-Dimethylpentanedioate

>  <Target>
Others

>  <Form>
free base

>  <CAS>
4839-46-7

>  <URL>
http://www.selleck.cn/products/3-3-dimethylglutaric-acid.html

$$$$
