3,4-Dichlorophenyl isothiocyanate
 OpenBabel08302521373D

 14 14  0  0  0  0  0  0  0  0999 V2000
    1.0804   -0.0083   -0.2030 N   0  0  0  0  0  0  0  0  0  0  0  0
    0.5824    0.8297   -0.8604 C   0  0  0  0  0  0  0  0  0  0  0  0
   -0.1568    1.9500   -1.7198 S   0  0  0  0  0  0  0  0  0  0  0  0
    2.4869    0.0540   -0.0938 C   0  0  0  0  0  0  0  0  0  0  0  0
    3.2352    1.2409   -0.0094 C   0  0  0  0  0  0  0  0  0  0  0  0
    3.1737   -1.1635    0.0139 C   0  0  0  0  0  0  0  0  0  0  0  0
    4.6248    1.2051    0.1476 C   0  0  0  0  0  0  0  0  0  0  0  0
    4.5618   -1.2025    0.1751 C   0  0  0  0  0  0  0  0  0  0  0  0
    5.2873   -0.0166    0.2391 C   0  0  0  0  0  0  0  0  0  0  0  0
    2.7510    2.2127   -0.0556 H   0  0  0  0  0  0  0  0  0  0  0  0
    2.6168   -2.0973   -0.0240 H   0  0  0  0  0  0  0  0  0  0  0  0
    5.1881    2.1334    0.2039 H   0  0  0  0  0  0  0  0  0  0  0  0
    5.0726   -2.1591    0.2530 H   0  0  0  0  0  0  0  0  0  0  0  0
    6.3668   -0.0435    0.3644 H   0  0  0  0  0  0  0  0  0  0  0  0
  1  2  2  0  0  0  0
  1  4  1  0  0  0  0
  2  3  2  0  0  0  0
  4  5  2  0  0  0  0
  4  6  1  0  0  0  0
  5  7  1  0  0  0  0
  5 10  1  0  0  0  0
  6  8  2  0  0  0  0
  6 11  1  0  0  0  0
  7  9  2  0  0  0  0
  7 12  1  0  0  0  0
  8  9  1  0  0  0  0
  8 13  1  0  0  0  0
  9 14  1  0  0  0  0
M  END
>  <Mol_ID>
7586

>  <Formula>
C7H3Cl2NS

>  <MolWeight>
204.07642

>  <Cat>
E2896

>  <Name>
3,4-Dichlorophenyl isothiocyanate

>  <Synonyms>
1,2-Dichloro-4-isothiocyanatobenzene

>  <Target>
Others

>  <Form>
free base

>  <CAS>
6590-94-9

>  <URL>
https://www.selleckchem.com/products/3,4-dichlorophenyl-isothiocyanate.html

$$$$
