3,4-Diaminopyridine
 OpenBabel08302520403D

 15 15  0  0  0  0  0  0  0  0999 V2000
   -1.4506   -0.1087   -0.0948 C   0  0  0  0  0  0  0  0  0  0  0  0
   -0.6825   -1.2888   -0.0816 C   0  0  0  0  0  0  0  0  0  0  0  0
   -0.7949    1.1228   -0.0087 C   0  0  0  0  0  0  0  0  0  0  0  0
   -2.8537   -0.1369    0.0275 N   0  0  0  0  0  0  0  0  0  0  0  0
    0.7032   -1.1370    0.0241 C   0  0  0  0  0  0  0  0  0  0  0  0
   -1.2733   -2.5600    0.0498 N   0  0  0  0  0  0  0  0  0  0  0  0
    0.5899    1.1501    0.0273 C   0  0  0  0  0  0  0  0  0  0  0  0
    1.3604    0.0463    0.0390 N   0  0  0  0  0  0  0  0  0  0  0  0
   -1.3506    2.0521    0.0420 H   0  0  0  0  0  0  0  0  0  0  0  0
   -3.2870   -0.9813   -0.3189 H   0  0  0  0  0  0  0  0  0  0  0  0
   -3.3163    0.7044   -0.2994 H   0  0  0  0  0  0  0  0  0  0  0  0
    1.3491   -2.0061    0.1113 H   0  0  0  0  0  0  0  0  0  0  0  0
   -0.6787   -3.3226   -0.2579 H   0  0  0  0  0  0  0  0  0  0  0  0
   -2.2077   -2.6200   -0.3303 H   0  0  0  0  0  0  0  0  0  0  0  0
    1.1285    2.0922    0.0742 H   0  0  0  0  0  0  0  0  0  0  0  0
  1  2  2  0  0  0  0
  1  3  1  0  0  0  0
  1  4  1  0  0  0  0
  2  5  1  0  0  0  0
  2  6  1  0  0  0  0
  3  7  2  0  0  0  0
  3  9  1  0  0  0  0
  4 10  1  0  0  0  0
  4 11  1  0  0  0  0
  5  8  2  0  0  0  0
  5 12  1  0  0  0  0
  6 13  1  0  0  0  0
  6 14  1  0  0  0  0
  7  8  1  0  0  0  0
  7 15  1  0  0  0  0
M  END
>  <Mol_ID>
3792

>  <Formula>
C5H7N3

>  <MolWeight>
109.12918

>  <Cat>
S4622

>  <Name>
3,4-Diaminopyridine

>  <Synonyms>
Amifampridine, pyridine-3,4-diamine

>  <Target>
Others

>  <Form>
free base

>  <CAS>
54-96-6

>  <URL>
http://www.selleck.cn/products/3-4-diaminopyridine.html

$$$$
