3,4-Dimethylbenzoic acid
 OpenBabel08302521363D

 21 21  0  0  0  0  0  0  0  0999 V2000
    0.9882    0.0960   -0.1212 C   0  0  0  0  0  0  0  0  0  0  0  0
    0.3435   -0.9420    0.4490 O   0  0  0  0  0  0  0  0  0  0  0  0
    0.3971    1.0433   -0.6112 O   0  0  0  0  0  0  0  0  0  0  0  0
    5.2725    2.6177   -0.0126 C   0  0  0  0  0  0  0  0  0  0  0  0
    6.7995    0.0084    0.0605 C   0  0  0  0  0  0  0  0  0  0  0  0
    2.4750    0.0284   -0.0631 C   0  0  0  0  0  0  0  0  0  0  0  0
    3.1732    1.2431   -0.0479 C   0  0  0  0  0  0  0  0  0  0  0  0
    3.1928   -1.1718   -0.0695 C   0  0  0  0  0  0  0  0  0  0  0  0
    4.5796    1.2821   -0.0180 C   0  0  0  0  0  0  0  0  0  0  0  0
    4.5875   -1.1445   -0.0294 C   0  0  0  0  0  0  0  0  0  0  0  0
    5.2973    0.0704    0.0028 C   0  0  0  0  0  0  0  0  0  0  0  0
    0.8999   -1.5943    0.9080 H   0  0  0  0  0  0  0  0  0  0  0  0
    5.8634    2.7335    0.9011 H   0  0  0  0  0  0  0  0  0  0  0  0
    5.9235    2.7117   -0.8877 H   0  0  0  0  0  0  0  0  0  0  0  0
    4.5553    3.4449   -0.0486 H   0  0  0  0  0  0  0  0  0  0  0  0
    7.1132   -0.5201    0.9679 H   0  0  0  0  0  0  0  0  0  0  0  0
    7.1918   -0.5204   -0.8140 H   0  0  0  0  0  0  0  0  0  0  0  0
    7.2714    0.9959    0.0833 H   0  0  0  0  0  0  0  0  0  0  0  0
    2.6098    2.1779   -0.0679 H   0  0  0  0  0  0  0  0  0  0  0  0
    2.6949   -2.1331   -0.1371 H   0  0  0  0  0  0  0  0  0  0  0  0
    5.1396   -2.0872   -0.0435 H   0  0  0  0  0  0  0  0  0  0  0  0
  1  2  1  0  0  0  0
  1  3  2  0  0  0  0
  1  6  1  0  0  0  0
  2 12  1  0  0  0  0
  4  9  1  0  0  0  0
  4 13  1  0  0  0  0
  4 14  1  0  0  0  0
  4 15  1  0  0  0  0
  5 11  1  0  0  0  0
  5 16  1  0  0  0  0
  5 17  1  0  0  0  0
  5 18  1  0  0  0  0
  6  7  2  0  0  0  0
  6  8  1  0  0  0  0
  7  9  1  0  0  0  0
  7 19  1  0  0  0  0
  8 10  2  0  0  0  0
  8 20  1  0  0  0  0
  9 11  2  0  0  0  0
 10 11  1  0  0  0  0
 10 21  1  0  0  0  0
M  END
>  <Mol_ID>
7215

>  <Formula>
C9H10O2

>  <MolWeight>
150.1745

>  <Cat>
E4220

>  <Name>
3,4-Dimethylbenzoic acid

>  <Synonyms>
3,4-Dimethylbenzoic acid

>  <Target>
Others

>  <Form>
free base

>  <CAS>
619-04-5

>  <URL>
https://www.selleckchem.com/products/3-4-dimethylbenzoic-acid.html

$$$$
