3,4-Dimethoxyphenol
 OpenBabel08302521363D

 21 21  0  0  0  0  0  0  0  0999 V2000
    2.2751    0.0654    0.4234 O   0  0  0  0  0  0  0  0  0  0  0  0
    3.2155   -0.5245   -0.4605 C   0  0  0  0  0  0  0  0  0  0  0  0
    0.7364   -2.5046   -0.4014 O   0  0  0  0  0  0  0  0  0  0  0  0
    1.7240   -3.0342    0.4681 C   0  0  0  0  0  0  0  0  0  0  0  0
   -3.2049    0.0694   -0.1836 O   0  0  0  0  0  0  0  0  0  0  0  0
    0.9484   -0.0767    0.1280 C   0  0  0  0  0  0  0  0  0  0  0  0
    0.2405   -1.2580   -0.1281 C   0  0  0  0  0  0  0  0  0  0  0  0
    0.2410    1.1373    0.2154 C   0  0  0  0  0  0  0  0  0  0  0  0
   -1.1620   -1.2058   -0.2360 C   0  0  0  0  0  0  0  0  0  0  0  0
   -1.1468    1.1828    0.0819 C   0  0  0  0  0  0  0  0  0  0  0  0
   -1.8472   -0.0002   -0.1169 C   0  0  0  0  0  0  0  0  0  0  0  0
    3.7583   -1.2998    0.0855 H   0  0  0  0  0  0  0  0  0  0  0  0
    2.7788   -0.9179   -1.3823 H   0  0  0  0  0  0  0  0  0  0  0  0
    3.9571    0.2366   -0.7203 H   0  0  0  0  0  0  0  0  0  0  0  0
    2.6607   -3.1240   -0.0873 H   0  0  0  0  0  0  0  0  0  0  0  0
    1.8644   -2.4631    1.3917 H   0  0  0  0  0  0  0  0  0  0  0  0
    1.4290   -4.0541    0.7354 H   0  0  0  0  0  0  0  0  0  0  0  0
   -3.5570   -0.8363   -0.2058 H   0  0  0  0  0  0  0  0  0  0  0  0
    0.7827    2.0645    0.3841 H   0  0  0  0  0  0  0  0  0  0  0  0
   -1.7092   -2.1287   -0.4040 H   0  0  0  0  0  0  0  0  0  0  0  0
   -1.6783    2.1273    0.1462 H   0  0  0  0  0  0  0  0  0  0  0  0
  1  2  1  0  0  0  0
  1  6  1  0  0  0  0
  2 12  1  0  0  0  0
  2 13  1  0  0  0  0
  2 14  1  0  0  0  0
  3  4  1  0  0  0  0
  3  7  1  0  0  0  0
  4 15  1  0  0  0  0
  4 16  1  0  0  0  0
  4 17  1  0  0  0  0
  5 11  1  0  0  0  0
  5 18  1  0  0  0  0
  6  7  2  0  0  0  0
  6  8  1  0  0  0  0
  7  9  1  0  0  0  0
  8 10  2  0  0  0  0
  8 19  1  0  0  0  0
  9 11  2  0  0  0  0
  9 20  1  0  0  0  0
 10 11  1  0  0  0  0
 10 21  1  0  0  0  0
M  END
>  <Mol_ID>
7075

>  <Formula>
C8H10O3

>  <MolWeight>
154.1632

>  <Cat>
E4089

>  <Name>
3,4-Dimethoxyphenol

>  <Synonyms>
3,4-Dimethoxyphenol

>  <Target>
Tyrosinase

>  <Form>
free base

>  <CAS>
2033-89-8

>  <URL>
https://www.selleckchem.com/products/3-4-dimethoxyphenol.html

$$$$
