3,5-Diiodo-L-tyrosine dihydrate
 OpenBabel08302521363D

 24 24  0  0  1  0  0  0  0  0999 V2000
    0.8167    0.0252    0.1515 C   0  0  0  0  0  0  0  0  0  0  0  0
    0.3527   -1.4470    0.1143 C   0  0  1  0  0  0  0  0  0  0  0  0
   -1.1870   -1.5451    0.0303 C   0  0  0  0  0  0  0  0  0  0  0  0
    1.0137   -2.1492   -1.0119 N   0  0  0  0  0  0  0  0  0  0  0  0
   -1.6369   -2.0985   -1.1215 O   0  0  0  0  0  0  0  0  0  0  0  0
   -1.9557   -1.1824    0.9086 O   0  0  0  0  0  0  0  0  0  0  0  0
   -0.4688    0.1637    5.5565 I   0  0  0  0  0  0  0  0  0  0  0  0
   -0.4760    5.0835    1.9388 I   0  0  0  0  0  0  0  0  0  0  0  0
   -0.8024    3.2464    4.5815 O   0  0  0  0  0  0  0  0  0  0  0  0
    0.4027    0.8564    1.3511 C   0  0  0  0  0  0  0  0  0  0  0  0
    0.2419    0.3021    2.6291 C   0  0  0  0  0  0  0  0  0  0  0  0
    0.2076    2.2405    1.1942 C   0  0  0  0  0  0  0  0  0  0  0  0
   -0.1720    1.0945    3.7050 C   0  0  0  0  0  0  0  0  0  0  0  0
   -0.1894    3.0372    2.2779 C   0  0  0  0  0  0  0  0  0  0  0  0
   -0.3924    2.4639    3.5349 C   0  0  0  0  0  0  0  0  0  0  0  0
    0.4517    0.5227   -0.7584 H   0  0  0  0  0  0  0  0  0  0  0  0
    1.9142    0.0594    0.1098 H   0  0  0  0  0  0  0  0  0  0  0  0
    0.6592   -1.9829    1.0181 H   0  0  0  0  0  0  0  0  0  0  0  0
    0.8148   -3.1464   -1.0406 H   0  0  0  0  0  0  0  0  0  0  0  0
    0.9436   -1.6776   -1.9087 H   0  0  0  0  0  0  0  0  0  0  0  0
   -0.8898   -2.3520   -1.6917 H   0  0  0  0  0  0  0  0  0  0  0  0
   -0.9451    2.6633    5.3483 H   0  0  0  0  0  0  0  0  0  0  0  0
    0.4096   -0.7580    2.7936 H   0  0  0  0  0  0  0  0  0  0  0  0
    0.3566    2.6954    0.2179 H   0  0  0  0  0  0  0  0  0  0  0  0
  1  2  1  0  0  0  0
  1 10  1  0  0  0  0
  1 16  1  0  0  0  0
  1 17  1  0  0  0  0
  2  3  1  0  0  0  0
  2  4  1  0  0  0  0
  2 18  1  1  0  0  0
  3  5  1  0  0  0  0
  3  6  2  0  0  0  0
  4 19  1  0  0  0  0
  4 20  1  0  0  0  0
  5 21  1  0  0  0  0
  7 13  1  0  0  0  0
  8 14  1  0  0  0  0
  9 15  1  0  0  0  0
  9 22  1  0  0  0  0
 10 11  2  0  0  0  0
 10 12  1  0  0  0  0
 11 13  1  0  0  0  0
 11 23  1  0  0  0  0
 12 14  2  0  0  0  0
 12 24  1  0  0  0  0
 13 15  2  0  0  0  0
 14 15  1  0  0  0  0
M  END
>  <Mol_ID>
7290

>  <Formula>
C9H9I2NO3

>  <MolWeight>
432.9816

>  <Cat>
E4318

>  <Name>
3,5-Diiodo-L-tyrosine dihydrate

>  <Synonyms>
3,5-Diiodo-L-tyrosine dihydrate

>  <Target>
Others

>  <Form>
free base

>  <CAS>
300-39-0

>  <URL>
https://www.selleckchem.com/products/3-5-diiodo-l-tyrosine-dihydrate.html

$$$$
