3,5-Dihydroxybenzoic acid
 OpenBabel08302520393D

 17 17  0  0  0  0  0  0  0  0999 V2000
   -0.0513    1.8366   -0.0008 C   0  0  0  0  0  0  0  0  0  0  0  0
    1.1753    1.1579   -0.0013 C   0  0  0  0  0  0  0  0  0  0  0  0
   -1.2563    1.1204   -0.0080 C   0  0  0  0  0  0  0  0  0  0  0  0
   -0.0164    3.3192   -0.0470 C   0  0  0  0  0  0  0  0  0  0  0  0
    1.1863   -0.2327    0.0157 C   0  0  0  0  0  0  0  0  0  0  0  0
   -1.2154   -0.2718    0.0159 C   0  0  0  0  0  0  0  0  0  0  0  0
   -1.0482    3.9175    0.5814 O   0  0  0  0  0  0  0  0  0  0  0  0
    0.8906    3.9376   -0.5779 O   0  0  0  0  0  0  0  0  0  0  0  0
   -0.0022   -0.9528    0.0307 C   0  0  0  0  0  0  0  0  0  0  0  0
    2.3556   -0.9336    0.0137 O   0  0  0  0  0  0  0  0  0  0  0  0
   -2.3565   -1.0180    0.0182 O   0  0  0  0  0  0  0  0  0  0  0  0
    2.1044    1.7228   -0.0211 H   0  0  0  0  0  0  0  0  0  0  0  0
   -2.2097    1.6347   -0.0641 H   0  0  0  0  0  0  0  0  0  0  0  0
   -1.5911    3.3359    1.1434 H   0  0  0  0  0  0  0  0  0  0  0  0
    0.0169   -2.0386    0.0387 H   0  0  0  0  0  0  0  0  0  0  0  0
    3.1009   -0.3115   -0.0367 H   0  0  0  0  0  0  0  0  0  0  0  0
   -3.1322   -0.4381   -0.0482 H   0  0  0  0  0  0  0  0  0  0  0  0
  1  2  2  0  0  0  0
  1  3  1  0  0  0  0
  1  4  1  0  0  0  0
  2  5  1  0  0  0  0
  2 12  1  0  0  0  0
  3  6  2  0  0  0  0
  3 13  1  0  0  0  0
  4  7  1  0  0  0  0
  4  8  2  0  0  0  0
  5  9  2  0  0  0  0
  5 10  1  0  0  0  0
  6 11  1  0  0  0  0
  6  9  1  0  0  0  0
  7 14  1  0  0  0  0
  9 15  1  0  0  0  0
 10 16  1  0  0  0  0
 11 17  1  0  0  0  0
M  END
>  <Mol_ID>
3599

>  <Formula>
C7H6O4

>  <MolWeight>
154.12014

>  <Cat>
S6160

>  <Name>
3,5-Dihydroxybenzoic acid

>  <Synonyms>
¦Á-resorcylic acid

>  <Target>
Others,Others

>  <Form>
free base

>  <CAS>
99-10-5

>  <URL>
http://www.selleck.cn/products/3-5-dihydroxybenzoic-acid.html

$$$$
