3,5-Dimethoxybenzoic acid
 OpenBabel08302521363D

 23 23  0  0  0  0  0  0  0  0999 V2000
    0.9468   -0.1095   -0.2167 C   0  0  0  0  0  0  0  0  0  0  0  0
    0.3144   -1.1566    0.3481 O   0  0  0  0  0  0  0  0  0  0  0  0
    0.3530    0.8033   -0.7676 O   0  0  0  0  0  0  0  0  0  0  0  0
    5.1774    2.3823    0.1620 O   0  0  0  0  0  0  0  0  0  0  0  0
    4.4524    3.6042    0.0792 C   0  0  0  0  0  0  0  0  0  0  0  0
    5.2236   -2.3967    0.3348 O   0  0  0  0  0  0  0  0  0  0  0  0
    6.6380   -2.3530    0.5153 C   0  0  0  0  0  0  0  0  0  0  0  0
    2.4257   -0.1068   -0.0456 C   0  0  0  0  0  0  0  0  0  0  0  0
    3.0597    1.1445   -0.0225 C   0  0  0  0  0  0  0  0  0  0  0  0
    3.1914   -1.2765    0.0533 C   0  0  0  0  0  0  0  0  0  0  0  0
    4.4449    1.2258    0.1130 C   0  0  0  0  0  0  0  0  0  0  0  0
    4.5812   -1.1946    0.2032 C   0  0  0  0  0  0  0  0  0  0  0  0
    5.1974    0.0577    0.2166 C   0  0  0  0  0  0  0  0  0  0  0  0
    0.8690   -1.7474    0.8870 H   0  0  0  0  0  0  0  0  0  0  0  0
    3.9797    3.7091   -0.9027 H   0  0  0  0  0  0  0  0  0  0  0  0
    3.7157    3.6852    0.8856 H   0  0  0  0  0  0  0  0  0  0  0  0
    5.1658    4.4247    0.1993 H   0  0  0  0  0  0  0  0  0  0  0  0
    7.1338   -2.0737   -0.4202 H   0  0  0  0  0  0  0  0  0  0  0  0
    6.9288   -1.6821    1.3311 H   0  0  0  0  0  0  0  0  0  0  0  0
    6.9747   -3.3567    0.7916 H   0  0  0  0  0  0  0  0  0  0  0  0
    2.4459    2.0341   -0.1155 H   0  0  0  0  0  0  0  0  0  0  0  0
    2.7347   -2.2610   -0.0088 H   0  0  0  0  0  0  0  0  0  0  0  0
    6.2749    0.1630    0.3100 H   0  0  0  0  0  0  0  0  0  0  0  0
  1  2  1  0  0  0  0
  1  3  2  0  0  0  0
  1  8  1  0  0  0  0
  2 14  1  0  0  0  0
  4  5  1  0  0  0  0
  4 11  1  0  0  0  0
  5 15  1  0  0  0  0
  5 16  1  0  0  0  0
  5 17  1  0  0  0  0
  6  7  1  0  0  0  0
  6 12  1  0  0  0  0
  7 18  1  0  0  0  0
  7 19  1  0  0  0  0
  7 20  1  0  0  0  0
  8  9  2  0  0  0  0
  8 10  1  0  0  0  0
  9 11  1  0  0  0  0
  9 21  1  0  0  0  0
 10 12  2  0  0  0  0
 10 22  1  0  0  0  0
 11 13  2  0  0  0  0
 12 13  1  0  0  0  0
 13 23  1  0  0  0  0
M  END
>  <Mol_ID>
7098

>  <Formula>
C9H10O4

>  <MolWeight>
182.1733

>  <Cat>
E4121

>  <Name>
3,5-Dimethoxybenzoic acid

>  <Synonyms>
3,5-Dimethoxybenzoic acid

>  <Target>
Fungal

>  <Form>
Free base

>  <CAS>
1132-21-4

>  <URL>
https://www.selleckchem.com/products/3-5-dimethoxybenzoic-acid.html

$$$$
