3,5-Di-tert-butylphenol
 OpenBabel08302521363D

 37 37  0  0  0  0  0  0  0  0999 V2000
    0.9940   -0.0027    0.0146 C   0  0  0  0  0  0  0  0  0  0  0  0
    0.4890    0.7144   -1.2565 C   0  0  0  0  0  0  0  0  0  0  0  0
    0.3740   -1.4191    0.0149 C   0  0  0  0  0  0  0  0  0  0  0  0
    0.4493    0.7311    1.2593 C   0  0  0  0  0  0  0  0  0  0  0  0
    5.3908    2.6536    0.0141 C   0  0  0  0  0  0  0  0  0  0  0  0
    5.6224    3.0829    1.4757 C   0  0  0  0  0  0  0  0  0  0  0  0
    6.7610    2.5719   -0.7004 C   0  0  0  0  0  0  0  0  0  0  0  0
    4.5978    3.7701   -0.7050 C   0  0  0  0  0  0  0  0  0  0  0  0
    5.4350   -2.2636    0.0828 O   0  0  0  0  0  0  0  0  0  0  0  0
    2.5344   -0.0003    0.0306 C   0  0  0  0  0  0  0  0  0  0  0  0
    3.2421    1.2261    0.0289 C   0  0  0  0  0  0  0  0  0  0  0  0
    3.2903   -1.1810    0.0436 C   0  0  0  0  0  0  0  0  0  0  0  0
    4.6521    1.3027    0.0165 C   0  0  0  0  0  0  0  0  0  0  0  0
    4.6805   -1.1252    0.0604 C   0  0  0  0  0  0  0  0  0  0  0  0
    5.3555    0.0897    0.0544 C   0  0  0  0  0  0  0  0  0  0  0  0
    0.8516    0.2134   -2.1619 H   0  0  0  0  0  0  0  0  0  0  0  0
   -0.6066    0.7230   -1.2959 H   0  0  0  0  0  0  0  0  0  0  0  0
    0.8188    1.7579   -1.3044 H   0  0  0  0  0  0  0  0  0  0  0  0
    0.6655   -1.9867    0.9065 H   0  0  0  0  0  0  0  0  0  0  0  0
   -0.7215   -1.3724    0.0071 H   0  0  0  0  0  0  0  0  0  0  0  0
    0.6778   -1.9922   -0.8690 H   0  0  0  0  0  0  0  0  0  0  0  0
    0.7948    0.2523    2.1830 H   0  0  0  0  0  0  0  0  0  0  0  0
    0.7624    1.7801    1.2945 H   0  0  0  0  0  0  0  0  0  0  0  0
   -0.6472    0.7249    1.2715 H   0  0  0  0  0  0  0  0  0  0  0  0
    6.2262    2.3469    2.0194 H   0  0  0  0  0  0  0  0  0  0  0  0
    6.1468    4.0442    1.5275 H   0  0  0  0  0  0  0  0  0  0  0  0
    4.6746    3.1929    2.0156 H   0  0  0  0  0  0  0  0  0  0  0  0
    6.6511    2.1898   -1.7223 H   0  0  0  0  0  0  0  0  0  0  0  0
    7.2349    3.5586   -0.7640 H   0  0  0  0  0  0  0  0  0  0  0  0
    7.4695    1.9254   -0.1718 H   0  0  0  0  0  0  0  0  0  0  0  0
    4.3539    3.4825   -1.7344 H   0  0  0  0  0  0  0  0  0  0  0  0
    3.6633    4.0176   -0.1908 H   0  0  0  0  0  0  0  0  0  0  0  0
    5.1783    4.6998   -0.7490 H   0  0  0  0  0  0  0  0  0  0  0  0
    4.8387   -3.0295    0.0672 H   0  0  0  0  0  0  0  0  0  0  0  0
    2.6645    2.1470    0.0406 H   0  0  0  0  0  0  0  0  0  0  0  0
    2.8087   -2.1516    0.0442 H   0  0  0  0  0  0  0  0  0  0  0  0
    6.4401    0.0598    0.0839 H   0  0  0  0  0  0  0  0  0  0  0  0
  1  2  1  0  0  0  0
  1  3  1  0  0  0  0
  1  4  1  0  0  0  0
  1 10  1  0  0  0  0
  2 16  1  0  0  0  0
  2 17  1  0  0  0  0
  2 18  1  0  0  0  0
  3 19  1  0  0  0  0
  3 20  1  0  0  0  0
  3 21  1  0  0  0  0
  4 22  1  0  0  0  0
  4 23  1  0  0  0  0
  4 24  1  0  0  0  0
  5  6  1  0  0  0  0
  5  7  1  0  0  0  0
  5  8  1  0  0  0  0
  5 13  1  0  0  0  0
  6 25  1  0  0  0  0
  6 26  1  0  0  0  0
  6 27  1  0  0  0  0
  7 28  1  0  0  0  0
  7 29  1  0  0  0  0
  7 30  1  0  0  0  0
  8 31  1  0  0  0  0
  8 32  1  0  0  0  0
  8 33  1  0  0  0  0
  9 14  1  0  0  0  0
  9 34  1  0  0  0  0
 10 11  2  0  0  0  0
 10 12  1  0  0  0  0
 11 13  1  0  0  0  0
 11 35  1  0  0  0  0
 12 14  2  0  0  0  0
 12 36  1  0  0  0  0
 13 15  2  0  0  0  0
 14 15  1  0  0  0  0
 15 37  1  0  0  0  0
M  END
>  <Mol_ID>
7233

>  <Formula>
C14H22O

>  <MolWeight>
206.32388

>  <Cat>
E4240

>  <Name>
3,5-Di-tert-butylphenol

>  <Target>
ROS

>  <Form>
Free base

>  <CAS>
1138-52-9

>  <URL>
https://www.selleckchem.com/products/3-5-di-tert-butylphenol.html

$$$$
