3,6,9-Trioxaundecanedioic Acid
 OpenBabel08302521313D

 29 28  0  0  0  0  0  0  0  0999 V2000
    0.9751    0.0751    0.2286 O   0  0  0  0  0  0  0  0  0  0  0  0
   -1.1957   -2.1412    2.2610 O   0  0  0  0  0  0  0  0  0  0  0  0
    3.7655    2.3325   -0.6765 O   0  0  0  0  0  0  0  0  0  0  0  0
   -2.1894   -3.5371    4.2213 O   0  0  0  0  0  0  0  0  0  0  0  0
    5.9061    3.7470   -0.5134 O   0  0  0  0  0  0  0  0  0  0  0  0
   -3.9574   -4.3482    3.0581 O   0  0  0  0  0  0  0  0  0  0  0  0
    5.8570    4.5180   -2.6433 O   0  0  0  0  0  0  0  0  0  0  0  0
    0.5449   -0.6144    1.4109 C   0  0  0  0  0  0  0  0  0  0  0  0
    2.1744    0.8315    0.4410 C   0  0  0  0  0  0  0  0  0  0  0  0
   -0.7405   -1.3980    1.1137 C   0  0  0  0  0  0  0  0  0  0  0  0
    2.5711    1.5514   -0.8540 C   0  0  0  0  0  0  0  0  0  0  0  0
   -2.3883   -2.8746    1.9247 C   0  0  0  0  0  0  0  0  0  0  0  0
    4.0918    3.0220   -1.8984 C   0  0  0  0  0  0  0  0  0  0  0  0
   -2.9434   -3.6657    3.1043 C   0  0  0  0  0  0  0  0  0  0  0  0
    5.3672    3.8445   -1.7533 C   0  0  0  0  0  0  0  0  0  0  0  0
   -1.4324   -2.9432    4.0182 H   0  0  0  0  0  0  0  0  0  0  0  0
    5.3327    3.1496    0.0226 H   0  0  0  0  0  0  0  0  0  0  0  0
    1.3295   -1.3018    1.7465 H   0  0  0  0  0  0  0  0  0  0  0  0
    0.3595    0.1076    2.2142 H   0  0  0  0  0  0  0  0  0  0  0  0
    2.0140    1.5677    1.2368 H   0  0  0  0  0  0  0  0  0  0  0  0
    2.9851    0.1645    0.7558 H   0  0  0  0  0  0  0  0  0  0  0  0
   -1.5254   -0.6989    0.8001 H   0  0  0  0  0  0  0  0  0  0  0  0
   -0.5607   -2.0878    0.2802 H   0  0  0  0  0  0  0  0  0  0  0  0
    2.7346    0.8128   -1.6481 H   0  0  0  0  0  0  0  0  0  0  0  0
    1.7507    2.2054   -1.1734 H   0  0  0  0  0  0  0  0  0  0  0  0
   -3.1648   -2.1715    1.6072 H   0  0  0  0  0  0  0  0  0  0  0  0
   -2.1551   -3.5910    1.1305 H   0  0  0  0  0  0  0  0  0  0  0  0
    4.2567    2.2898   -2.6955 H   0  0  0  0  0  0  0  0  0  0  0  0
    3.2791    3.7104   -2.1522 H   0  0  0  0  0  0  0  0  0  0  0  0
  1  8  1  0  0  0  0
  1  9  1  0  0  0  0
  2 10  1  0  0  0  0
  2 12  1  0  0  0  0
  3 11  1  0  0  0  0
  3 13  1  0  0  0  0
  4 14  1  0  0  0  0
  4 16  1  0  0  0  0
  5 15  1  0  0  0  0
  5 17  1  0  0  0  0
  6 14  2  0  0  0  0
  7 15  2  0  0  0  0
  8 10  1  0  0  0  0
  8 18  1  0  0  0  0
  8 19  1  0  0  0  0
  9 11  1  0  0  0  0
  9 20  1  0  0  0  0
  9 21  1  0  0  0  0
 10 22  1  0  0  0  0
 10 23  1  0  0  0  0
 11 24  1  0  0  0  0
 11 25  1  0  0  0  0
 12 14  1  0  0  0  0
 12 26  1  0  0  0  0
 12 27  1  0  0  0  0
 13 15  1  0  0  0  0
 13 28  1  0  0  0  0
 13 29  1  0  0  0  0
M  END
>  <Mol_ID>
5863

>  <Formula>
C8H14O7

>  <MolWeight>
222.19256

>  <Cat>
S1912

>  <Name>
3,6,9-Trioxaundecanedioic Acid

>  <Synonyms>
N/A

>  <Target>
PROTAC Linker

>  <Form>
Free Base

>  <CAS>
13887-98-4

>  <URL>
http://www.selleckchem.com/products/3-6-9-trioxaundecanedioic-acid.html

$$$$
