3,6-Dihydroxyflavone
 OpenBabel08302521373D

 29 31  0  0  0  0  0  0  0  0999 V2000
    1.1595    0.0833   -0.2088 O   0  0  0  0  0  0  0  0  0  0  0  0
   -1.0144   -0.7130   -1.7627 O   0  0  0  0  0  0  0  0  0  0  0  0
   -4.4922   -4.3293   -1.5074 O   0  0  0  0  0  0  0  0  0  0  0  0
    0.6965   -1.8817    1.1339 C   0  0  0  0  0  0  0  0  0  0  0  0
   -0.0096   -3.0297    1.4431 O   0  0  0  0  0  0  0  0  0  0  0  0
    0.4375   -1.0606    0.0930 C   0  0  0  0  0  0  0  0  0  0  0  0
   -1.1024   -3.3425    0.6737 C   0  0  0  0  0  0  0  0  0  0  0  0
   -0.7170   -1.3900   -0.7852 C   0  0  0  0  0  0  0  0  0  0  0  0
   -1.5035   -2.5752   -0.4176 C   0  0  0  0  0  0  0  0  0  0  0  0
   -1.8379   -4.4768    1.0256 C   0  0  0  0  0  0  0  0  0  0  0  0
   -2.6431   -2.9178   -1.1511 C   0  0  0  0  0  0  0  0  0  0  0  0
   -2.9835   -4.8229    0.2997 C   0  0  0  0  0  0  0  0  0  0  0  0
   -3.3775   -4.0367   -0.7807 C   0  0  0  0  0  0  0  0  0  0  0  0
    1.7830   -1.5672    2.0731 C   0  0  0  0  0  0  0  0  0  0  0  0
    1.5179   -0.7906    3.2092 C   0  0  0  0  0  0  0  0  0  0  0  0
    3.1071   -1.9106    1.7673 C   0  0  0  0  0  0  0  0  0  0  0  0
    2.5669   -0.3315    4.0080 C   0  0  0  0  0  0  0  0  0  0  0  0
    4.1523   -1.4508    2.5698 C   0  0  0  0  0  0  0  0  0  0  0  0
    3.8837   -0.6511    3.6805 C   0  0  0  0  0  0  0  0  0  0  0  0
    1.9259    0.1464    0.3843 H   0  0  0  0  0  0  0  0  0  0  0  0
   -4.9210   -5.1168   -1.1350 H   0  0  0  0  0  0  0  0  0  0  0  0
   -1.5252   -5.0903    1.8666 H   0  0  0  0  0  0  0  0  0  0  0  0
   -2.9597   -2.3142   -1.9983 H   0  0  0  0  0  0  0  0  0  0  0  0
   -3.5534   -5.7008    0.5900 H   0  0  0  0  0  0  0  0  0  0  0  0
    0.4964   -0.5120    3.4615 H   0  0  0  0  0  0  0  0  0  0  0  0
    3.3316   -2.5120    0.8899 H   0  0  0  0  0  0  0  0  0  0  0  0
    2.3583    0.2913    4.8747 H   0  0  0  0  0  0  0  0  0  0  0  0
    5.1806   -1.7009    2.3185 H   0  0  0  0  0  0  0  0  0  0  0  0
    4.7017   -0.2726    4.2892 H   0  0  0  0  0  0  0  0  0  0  0  0
  1  6  1  0  0  0  0
  1 20  1  0  0  0  0
  2  8  2  0  0  0  0
  3 13  1  0  0  0  0
  3 21  1  0  0  0  0
  4  5  1  0  0  0  0
  4  6  2  0  0  0  0
  4 14  1  0  0  0  0
  5  7  1  0  0  0  0
  6  8  1  0  0  0  0
  7  9  2  0  0  0  0
  7 10  1  0  0  0  0
  8  9  1  0  0  0  0
  9 11  1  0  0  0  0
 10 12  2  0  0  0  0
 10 22  1  0  0  0  0
 11 13  2  0  0  0  0
 11 23  1  0  0  0  0
 12 13  1  0  0  0  0
 12 24  1  0  0  0  0
 14 15  2  0  0  0  0
 14 16  1  0  0  0  0
 15 17  1  0  0  0  0
 15 25  1  0  0  0  0
 16 18  2  0  0  0  0
 16 26  1  0  0  0  0
 17 19  2  0  0  0  0
 17 27  1  0  0  0  0
 18 19  1  0  0  0  0
 18 28  1  0  0  0  0
 19 29  1  0  0  0  0
M  END
>  <Mol_ID>
7407

>  <Formula>
C15H10O4

>  <MolWeight>
254.2375

>  <Cat>
E4501

>  <Name>
3,6-Dihydroxyflavone

>  <Synonyms>
3,6-Dihydroxyflavone

>  <Target>
Others

>  <Form>
free base

>  <CAS>
108238-41-1

>  <URL>
https://www.selleckchem.com/products/3-6-dihydroxyflavone.html

$$$$
