3-(2-Hydroxyphenyl)propionic acid
 OpenBabel08302521303D

 22 22  0  0  0  0  0  0  0  0999 V2000
   -1.9064   -0.0994    0.1766 C   0  0  0  0  0  0  0  0  0  0  0  0
   -1.1749   -1.2810    0.0832 C   0  0  0  0  0  0  0  0  0  0  0  0
    0.2143   -1.2338   -0.0158 C   0  0  0  0  0  0  0  0  0  0  0  0
    0.8662   -0.0015   -0.0141 C   0  0  0  0  0  0  0  0  0  0  0  0
    0.1500    1.1964    0.0820 C   0  0  0  0  0  0  0  0  0  0  0  0
   -1.2507    1.1333    0.1663 C   0  0  0  0  0  0  0  0  0  0  0  0
    0.8516    2.5393    0.0640 C   0  0  0  0  0  0  0  0  0  0  0  0
    2.2272    0.0472   -0.1105 O   0  0  0  0  0  0  0  0  0  0  0  0
    0.6117    3.3915    1.3054 C   0  0  0  0  0  0  0  0  0  0  0  0
    1.2034    2.7809    2.5511 C   0  0  0  0  0  0  0  0  0  0  0  0
    0.3519    1.9682    3.2157 O   0  0  0  0  0  0  0  0  0  0  0  0
    2.3339    3.0115    2.9532 O   0  0  0  0  0  0  0  0  0  0  0  0
   -2.9908   -0.1395    0.2451 H   0  0  0  0  0  0  0  0  0  0  0  0
   -1.6867   -2.2404    0.0756 H   0  0  0  0  0  0  0  0  0  0  0  0
    0.7708   -2.1620   -0.1030 H   0  0  0  0  0  0  0  0  0  0  0  0
   -1.8454    2.0434    0.2116 H   0  0  0  0  0  0  0  0  0  0  0  0
    1.9320    2.4162   -0.0757 H   0  0  0  0  0  0  0  0  0  0  0  0
    0.4999    3.0876   -0.8200 H   0  0  0  0  0  0  0  0  0  0  0  0
    2.5811   -0.8569   -0.0866 H   0  0  0  0  0  0  0  0  0  0  0  0
    1.0902    4.3704    1.1707 H   0  0  0  0  0  0  0  0  0  0  0  0
   -0.4503    3.6061    1.4697 H   0  0  0  0  0  0  0  0  0  0  0  0
   -0.4913    1.8185    2.7471 H   0  0  0  0  0  0  0  0  0  0  0  0
  1  2  2  0  0  0  0
  1 13  1  0  0  0  0
  2  3  1  0  0  0  0
  2 14  1  0  0  0  0
  3  4  2  0  0  0  0
  3 15  1  0  0  0  0
  4  5  1  0  0  0  0
  4  8  1  0  0  0  0
  5  6  2  0  0  0  0
  5  7  1  0  0  0  0
  6  1  1  0  0  0  0
  6 16  1  0  0  0  0
  7  9  1  0  0  0  0
  7 17  1  0  0  0  0
  7 18  1  0  0  0  0
  8 19  1  0  0  0  0
  9 10  1  0  0  0  0
  9 20  1  0  0  0  0
  9 21  1  0  0  0  0
 10 11  1  0  0  0  0
 10 12  2  0  0  0  0
 11 22  1  0  0  0  0
M  END
>  <Mol_ID>
5500

>  <Formula>
C9H10O3

>  <MolWeight>
166.1739

>  <Cat>
S3339

>  <Name>
3-(2-Hydroxyphenyl)propionic acid

>  <Synonyms>
Melilotic acid, Melilotate, 2-hydroxybenzenepropanoic acid

>  <Target>
Others

>  <Form>
Free Base

>  <CAS>
495-78-3

>  <URL>
https://www.selleckchem.com/products/3-2-hydroxyphenyl-propionic-acid.html

$$$$
