3-(3,4,5-Trimethoxyphenyl)propanoic acid
 OpenBabel08302521363D

 33 33  0  0  0  0  0  0  0  0999 V2000
    0.9477    0.1307   -0.7553 O   0  0  0  0  0  0  0  0  0  0  0  0
    0.5246   -1.0012   -1.5089 C   0  0  0  0  0  0  0  0  0  0  0  0
    2.1199    2.5100   -0.0498 O   0  0  0  0  0  0  0  0  0  0  0  0
    0.9781    2.5288    0.8139 C   0  0  0  0  0  0  0  0  0  0  0  0
    5.0283    2.4754    0.5040 O   0  0  0  0  0  0  0  0  0  0  0  0
    4.4787    3.7788    0.3985 C   0  0  0  0  0  0  0  0  0  0  0  0
    5.0464   -2.3505    0.5021 C   0  0  0  0  0  0  0  0  0  0  0  0
    5.0371   -3.3032   -0.6947 C   0  0  0  0  0  0  0  0  0  0  0  0
    5.6954   -4.6175   -0.3496 C   0  0  0  0  0  0  0  0  0  0  0  0
    5.6902   -5.4856   -1.3878 O   0  0  0  0  0  0  0  0  0  0  0  0
    6.1774   -4.9018    0.7362 O   0  0  0  0  0  0  0  0  0  0  0  0
    2.2371    0.1119   -0.2822 C   0  0  0  0  0  0  0  0  0  0  0  0
    2.8451    1.3460    0.0149 C   0  0  0  0  0  0  0  0  0  0  0  0
    2.9463   -1.0818   -0.0871 C   0  0  0  0  0  0  0  0  0  0  0  0
    4.2187    1.3881    0.2980 C   0  0  0  0  0  0  0  0  0  0  0  0
    4.3009   -1.0619    0.2510 C   0  0  0  0  0  0  0  0  0  0  0  0
    4.9317    0.1788    0.4071 C   0  0  0  0  0  0  0  0  0  0  0  0
    1.3304   -1.4546   -2.0969 H   0  0  0  0  0  0  0  0  0  0  0  0
    0.0712   -1.7390   -0.8398 H   0  0  0  0  0  0  0  0  0  0  0  0
   -0.2389   -0.6661   -2.2178 H   0  0  0  0  0  0  0  0  0  0  0  0
    0.6523    1.5505    1.1829 H   0  0  0  0  0  0  0  0  0  0  0  0
    1.1999    3.1560    1.6829 H   0  0  0  0  0  0  0  0  0  0  0  0
    0.1486    2.9856    0.2654 H   0  0  0  0  0  0  0  0  0  0  0  0
    4.0033    3.9486   -0.5722 H   0  0  0  0  0  0  0  0  0  0  0  0
    3.7995    3.9800    1.2322 H   0  0  0  0  0  0  0  0  0  0  0  0
    5.3073    4.4904    0.4746 H   0  0  0  0  0  0  0  0  0  0  0  0
    6.0854   -2.1368    0.7834 H   0  0  0  0  0  0  0  0  0  0  0  0
    4.5919   -2.8337    1.3755 H   0  0  0  0  0  0  0  0  0  0  0  0
    4.0111   -3.5230   -1.0132 H   0  0  0  0  0  0  0  0  0  0  0  0
    5.5767   -2.8530   -1.5364 H   0  0  0  0  0  0  0  0  0  0  0  0
    5.2790   -5.1315   -2.1978 H   0  0  0  0  0  0  0  0  0  0  0  0
    2.4455   -2.0380   -0.1861 H   0  0  0  0  0  0  0  0  0  0  0  0
    5.9949    0.2238    0.6420 H   0  0  0  0  0  0  0  0  0  0  0  0
  1  2  1  0  0  0  0
  1 12  1  0  0  0  0
  2 18  1  0  0  0  0
  2 19  1  0  0  0  0
  2 20  1  0  0  0  0
  3  4  1  0  0  0  0
  3 13  1  0  0  0  0
  4 21  1  0  0  0  0
  4 22  1  0  0  0  0
  4 23  1  0  0  0  0
  5  6  1  0  0  0  0
  5 15  1  0  0  0  0
  6 24  1  0  0  0  0
  6 25  1  0  0  0  0
  6 26  1  0  0  0  0
  7  8  1  0  0  0  0
  7 16  1  0  0  0  0
  7 27  1  0  0  0  0
  7 28  1  0  0  0  0
  8  9  1  0  0  0  0
  8 29  1  0  0  0  0
  8 30  1  0  0  0  0
  9 10  1  0  0  0  0
  9 11  2  0  0  0  0
 10 31  1  0  0  0  0
 12 13  2  0  0  0  0
 12 14  1  0  0  0  0
 13 15  1  0  0  0  0
 14 16  2  0  0  0  0
 14 32  1  0  0  0  0
 15 17  2  0  0  0  0
 16 17  1  0  0  0  0
 17 33  1  0  0  0  0
M  END
>  <Mol_ID>
7224

>  <Formula>
C12H16O5

>  <MolWeight>
240.25244

>  <Cat>
E4231

>  <Name>
3-(3,4,5-Trimethoxyphenyl)propanoic acid

>  <Synonyms>
3-(3,4,5-Trimethoxyphenyl)-propanoic acid

>  <Target>
Endogenous Metabolite

>  <Form>
free base

>  <CAS>
25173-72-2

>  <URL>
https://www.selleckchem.com/products/3-3-4-5-trimethoxyphenyl-propanoic-acid.html

$$$$
