3-(3-Methoxyphenyl)propionic acid
 OpenBabel08302520383D

 25 25  0  0  0  0  0  0  0  0999 V2000
    1.3605   -0.1709    0.1090 C   0  0  0  0  0  0  0  0  0  0  0  0
    0.5205   -1.2944    0.0230 C   0  0  0  0  0  0  0  0  0  0  0  0
    0.7724    1.0993    0.2103 C   0  0  0  0  0  0  0  0  0  0  0  0
    2.8656   -0.2945    0.1556 C   0  0  0  0  0  0  0  0  0  0  0  0
   -0.8696   -1.1567   -0.0002 C   0  0  0  0  0  0  0  0  0  0  0  0
   -0.6144    1.2440    0.1810 C   0  0  0  0  0  0  0  0  0  0  0  0
    3.4843   -1.4578   -0.6190 C   0  0  0  0  0  0  0  0  0  0  0  0
   -1.4298    0.1202    0.0711 C   0  0  0  0  0  0  0  0  0  0  0  0
   -1.7736   -2.1809   -0.0776 O   0  0  0  0  0  0  0  0  0  0  0  0
    3.1351   -1.4630   -2.0858 C   0  0  0  0  0  0  0  0  0  0  0  0
   -1.2437   -3.4988   -0.1690 C   0  0  0  0  0  0  0  0  0  0  0  0
    3.6167   -0.4036   -2.7706 O   0  0  0  0  0  0  0  0  0  0  0  0
    2.5201   -2.3689   -2.6295 O   0  0  0  0  0  0  0  0  0  0  0  0
    0.9636   -2.2822   -0.0322 H   0  0  0  0  0  0  0  0  0  0  0  0
    1.3899    1.9896    0.3102 H   0  0  0  0  0  0  0  0  0  0  0  0
    3.3072    0.6404   -0.2118 H   0  0  0  0  0  0  0  0  0  0  0  0
    3.1582   -0.3830    1.2096 H   0  0  0  0  0  0  0  0  0  0  0  0
   -1.0624    2.2323    0.2455 H   0  0  0  0  0  0  0  0  0  0  0  0
    4.5765   -1.4384   -0.5301 H   0  0  0  0  0  0  0  0  0  0  0  0
    3.1681   -2.4178   -0.1928 H   0  0  0  0  0  0  0  0  0  0  0  0
   -2.5103    0.2344    0.0420 H   0  0  0  0  0  0  0  0  0  0  0  0
   -0.7169   -3.6433   -1.1182 H   0  0  0  0  0  0  0  0  0  0  0  0
   -0.5953   -3.7302    0.6828 H   0  0  0  0  0  0  0  0  0  0  0  0
   -2.0829   -4.1999   -0.1385 H   0  0  0  0  0  0  0  0  0  0  0  0
    4.1146    0.2369   -2.2309 H   0  0  0  0  0  0  0  0  0  0  0  0
  1  2  2  0  0  0  0
  1  3  1  0  0  0  0
  1  4  1  0  0  0  0
  2  5  1  0  0  0  0
  2 14  1  0  0  0  0
  3  6  2  0  0  0  0
  3 15  1  0  0  0  0
  4  7  1  0  0  0  0
  4 16  1  0  0  0  0
  4 17  1  0  0  0  0
  5  8  2  0  0  0  0
  5  9  1  0  0  0  0
  6  8  1  0  0  0  0
  6 18  1  0  0  0  0
  7 10  1  0  0  0  0
  7 19  1  0  0  0  0
  7 20  1  0  0  0  0
  8 21  1  0  0  0  0
  9 11  1  0  0  0  0
 10 12  1  0  0  0  0
 10 13  2  0  0  0  0
 11 22  1  0  0  0  0
 11 23  1  0  0  0  0
 11 24  1  0  0  0  0
 12 25  1  0  0  0  0
M  END
>  <Mol_ID>
3519

>  <Formula>
C10H12O3

>  <MolWeight>
180.20048

>  <Cat>
S6030

>  <Name>
3-(3-Methoxyphenyl)propionic acid

>  <Synonyms>
N/A

>  <Target>
Others

>  <Form>
free base

>  <CAS>
10516-71-9

>  <URL>
http://www.selleck.cn/products/3-3-methoxyphenyl-propionic-acid.html

$$$$
