3-(3-Hydroxyphenyl)propionic Acid
 OpenBabel08302520393D

 22 22  0  0  0  0  0  0  0  0999 V2000
   -1.2364   -1.1047   -0.0353 C   0  0  0  0  0  0  0  0  0  0  0  0
    0.1624   -1.1693    0.0420 C   0  0  0  0  0  0  0  0  0  0  0  0
   -1.8412    0.1529   -0.1984 C   0  0  0  0  0  0  0  0  0  0  0  0
   -2.1061   -2.3402    0.0150 C   0  0  0  0  0  0  0  0  0  0  0  0
    0.9195    0.0005    0.0231 C   0  0  0  0  0  0  0  0  0  0  0  0
   -1.0727    1.3198   -0.2092 C   0  0  0  0  0  0  0  0  0  0  0  0
   -1.6058   -3.4898    0.8885 C   0  0  0  0  0  0  0  0  0  0  0  0
    0.3116    1.2433   -0.0831 C   0  0  0  0  0  0  0  0  0  0  0  0
    2.2805   -0.0372    0.1054 O   0  0  0  0  0  0  0  0  0  0  0  0
   -1.3694   -3.1005    2.3302 C   0  0  0  0  0  0  0  0  0  0  0  0
   -2.4851   -2.7406    2.9944 O   0  0  0  0  0  0  0  0  0  0  0  0
   -0.2741   -3.1598    2.8693 O   0  0  0  0  0  0  0  0  0  0  0  0
    0.6671   -2.1258    0.1342 H   0  0  0  0  0  0  0  0  0  0  0  0
   -2.9204    0.2387   -0.3077 H   0  0  0  0  0  0  0  0  0  0  0  0
   -3.1064   -2.0515    0.3629 H   0  0  0  0  0  0  0  0  0  0  0  0
   -2.2290   -2.7070   -1.0123 H   0  0  0  0  0  0  0  0  0  0  0  0
   -1.5530    2.2893   -0.3117 H   0  0  0  0  0  0  0  0  0  0  0  0
   -2.3224   -4.3195    0.8765 H   0  0  0  0  0  0  0  0  0  0  0  0
   -0.6691   -3.8956    0.4924 H   0  0  0  0  0  0  0  0  0  0  0  0
    0.9151    2.1458   -0.0738 H   0  0  0  0  0  0  0  0  0  0  0  0
    2.5598   -0.9657    0.1657 H   0  0  0  0  0  0  0  0  0  0  0  0
   -3.3022   -2.7572    2.4624 H   0  0  0  0  0  0  0  0  0  0  0  0
  1  2  2  0  0  0  0
  1  3  1  0  0  0  0
  1  4  1  0  0  0  0
  2  5  1  0  0  0  0
  2 13  1  0  0  0  0
  3  6  2  0  0  0  0
  3 14  1  0  0  0  0
  4  7  1  0  0  0  0
  4 15  1  0  0  0  0
  4 16  1  0  0  0  0
  5  8  2  0  0  0  0
  5  9  1  0  0  0  0
  6  8  1  0  0  0  0
  6 17  1  0  0  0  0
  7 10  1  0  0  0  0
  7 18  1  0  0  0  0
  7 19  1  0  0  0  0
  8 20  1  0  0  0  0
  9 21  1  0  0  0  0
 10 11  1  0  0  0  0
 10 12  2  0  0  0  0
 11 22  1  0  0  0  0
M  END
>  <Mol_ID>
3550

>  <Formula>
C9H10O3

>  <MolWeight>
166.1739

>  <Cat>
S6074

>  <Name>
3-(3-Hydroxyphenyl)propionic Acid

>  <Synonyms>
m-Hydroxyphenylpropionic acid, 3-Hydroxyhydrocinnamic acid

>  <Target>
Others

>  <Form>
free base

>  <CAS>
621-54-5

>  <URL>
http://www.selleck.cn/products/3-3-hydroxyphenyl-propionic-acid.html

$$$$
