3-(4-Hydroxyphenyl)-1-propanol
 OpenBabel08302520143D

 23 23  0  0  0  0  0  0  0  0999 V2000
   -1.8053    0.0358   -0.0611 C   0  0  0  0  0  0  0  0  0  0  0  0
   -1.1528   -1.2017    0.0459 C   0  0  0  0  0  0  0  0  0  0  0  0
   -1.0332    1.1996   -0.1872 C   0  0  0  0  0  0  0  0  0  0  0  0
   -3.3122    0.1210   -0.0509 C   0  0  0  0  0  0  0  0  0  0  0  0
    0.2424   -1.2728    0.0528 C   0  0  0  0  0  0  0  0  0  0  0  0
    0.3609    1.1286   -0.1836 C   0  0  0  0  0  0  0  0  0  0  0  0
   -3.9697   -0.4401    1.2123 C   0  0  0  0  0  0  0  0  0  0  0  0
    0.9876   -0.1043   -0.0582 C   0  0  0  0  0  0  0  0  0  0  0  0
   -3.5523    0.2870    2.4853 C   0  0  0  0  0  0  0  0  0  0  0  0
    2.3509   -0.1268   -0.0486 O   0  0  0  0  0  0  0  0  0  0  0  0
   -4.2384   -0.2727    3.6004 O   0  0  0  0  0  0  0  0  0  0  0  0
   -1.7279   -2.1212    0.1296 H   0  0  0  0  0  0  0  0  0  0  0  0
   -1.5090    2.1725   -0.2853 H   0  0  0  0  0  0  0  0  0  0  0  0
   -3.6305    1.1631   -0.1838 H   0  0  0  0  0  0  0  0  0  0  0  0
   -3.6897   -0.4234   -0.9261 H   0  0  0  0  0  0  0  0  0  0  0  0
    0.7234   -2.2412    0.1458 H   0  0  0  0  0  0  0  0  0  0  0  0
    0.9556    2.0328   -0.2755 H   0  0  0  0  0  0  0  0  0  0  0  0
   -5.0597   -0.3697    1.1036 H   0  0  0  0  0  0  0  0  0  0  0  0
   -3.7598   -1.5113    1.3212 H   0  0  0  0  0  0  0  0  0  0  0  0
   -2.4801    0.1814    2.6747 H   0  0  0  0  0  0  0  0  0  0  0  0
   -3.7897    1.3541    2.4332 H   0  0  0  0  0  0  0  0  0  0  0  0
    2.6422   -1.0445    0.0775 H   0  0  0  0  0  0  0  0  0  0  0  0
   -5.1903   -0.1355    3.4587 H   0  0  0  0  0  0  0  0  0  0  0  0
  1  2  2  0  0  0  0
  1  3  1  0  0  0  0
  1  4  1  0  0  0  0
  2  5  1  0  0  0  0
  2 12  1  0  0  0  0
  3  6  2  0  0  0  0
  3 13  1  0  0  0  0
  4  7  1  0  0  0  0
  4 14  1  0  0  0  0
  4 15  1  0  0  0  0
  5  8  2  0  0  0  0
  5 16  1  0  0  0  0
  6  8  1  0  0  0  0
  6 17  1  0  0  0  0
  7  9  1  0  0  0  0
  7 18  1  0  0  0  0
  7 19  1  0  0  0  0
  8 10  1  0  0  0  0
  9 11  1  0  0  0  0
  9 20  1  0  0  0  0
  9 21  1  0  0  0  0
 10 22  1  0  0  0  0
 11 23  1  0  0  0  0
M  END
>  <Mol_ID>
3148

>  <Formula>
C9H12O2

>  <MolWeight>
152.19038

>  <Cat>
S5835

>  <Name>
3-(4-Hydroxyphenyl)-1-propanol

>  <Synonyms>
N/A

>  <Target>
Others

>  <Form>
Free Base

>  <CAS>
10210-17-0

>  <URL>
http://www.selleckchem.com/products/3-4-hydroxyphenyl-1-propanol.html

$$$$
