3-Amino-4-methylpentanoic acid
 OpenBabel08302521383D

 22 21  0  0  0  0  0  0  0  0999 V2000
    0.8830   -0.0479    0.0098 C   0  0  3  0  0  0  0  0  0  0  0  0
    0.4497    1.4082   -0.2243 C   0  0  0  0  0  0  0  0  0  0  0  0
    0.3829   -0.9984   -1.1209 C   0  0  0  0  0  0  0  0  0  0  0  0
    0.4626   -0.5428    1.3244 N   0  0  0  0  0  0  0  0  0  0  0  0
    1.0079    2.3436    0.8157 C   0  0  0  0  0  0  0  0  0  0  0  0
    0.8688   -2.4406   -0.9034 C   0  0  0  0  0  0  0  0  0  0  0  0
   -1.1385   -1.0003   -1.3111 C   0  0  0  0  0  0  0  0  0  0  0  0
    2.2181    2.8599    0.5098 O   0  0  0  0  0  0  0  0  0  0  0  0
    0.4450    2.5943    1.8744 O   0  0  0  0  0  0  0  0  0  0  0  0
    1.9813   -0.0773   -0.0010 H   0  0  0  0  0  0  0  0  0  0  0  0
    0.7597    1.7546   -1.2171 H   0  0  0  0  0  0  0  0  0  0  0  0
   -0.6407    1.5171   -0.1922 H   0  0  0  0  0  0  0  0  0  0  0  0
    0.8280   -0.6497   -2.0636 H   0  0  0  0  0  0  0  0  0  0  0  0
    0.8261    0.0602    2.0678 H   0  0  0  0  0  0  0  0  0  0  0  0
   -0.5520   -0.4840    1.4208 H   0  0  0  0  0  0  0  0  0  0  0  0
    0.4303   -2.8814    0.0004 H   0  0  0  0  0  0  0  0  0  0  0  0
    0.5816   -3.0750   -1.7479 H   0  0  0  0  0  0  0  0  0  0  0  0
    1.9567   -2.4766   -0.8097 H   0  0  0  0  0  0  0  0  0  0  0  0
   -1.5083   -0.0100   -1.5931 H   0  0  0  0  0  0  0  0  0  0  0  0
   -1.4230   -1.6869   -2.1155 H   0  0  0  0  0  0  0  0  0  0  0  0
   -1.6620   -1.3185   -0.4040 H   0  0  0  0  0  0  0  0  0  0  0  0
    2.5792    2.5678   -0.3466 H   0  0  0  0  0  0  0  0  0  0  0  0
  1  2  1  0  0  0  0
  1  3  1  0  0  0  0
  1  4  1  0  0  0  0
  1 10  1  0  0  0  0
  2  5  1  0  0  0  0
  2 11  1  0  0  0  0
  2 12  1  0  0  0  0
  3  6  1  0  0  0  0
  3  7  1  0  0  0  0
  3 13  1  0  0  0  0
  4 14  1  0  0  0  0
  4 15  1  0  0  0  0
  5  8  1  0  0  0  0
  5  9  2  0  0  0  0
  6 16  1  0  0  0  0
  6 17  1  0  0  0  0
  6 18  1  0  0  0  0
  7 19  1  0  0  0  0
  7 20  1  0  0  0  0
  7 21  1  0  0  0  0
  8 22  1  0  0  0  0
M  END
>  <Mol_ID>
7910

>  <Formula>
C6H13NO2

>  <MolWeight>
131.17292

>  <Cat>
S6142

>  <Name>
3-Amino-4-methylpentanoic acid

>  <Synonyms>
beta-Leucine, DL-Homovaline, DL-beta-leucine, beta-Aminoisocaproic acid

>  <Target>
Others

>  <Form>
free base

>  <CAS>
5699-54-7

>  <URL>
http://www.selleck.cn/products/3-amino-4-methylpentanoic-acid.html

$$$$
