3-Aminobutanoic acid
 OpenBabel08302521453D

 16 15  0  0  0  0  0  0  0  0999 V2000
    0.9762   -0.0573    0.1964 C   0  0  0  0  0  0  0  0  0  0  0  0
    0.4806   -1.0302   -0.8772 C   0  0  3  0  0  0  0  0  0  0  0  0
    0.5642    1.3788   -0.0363 C   0  0  0  0  0  0  0  0  0  0  0  0
    1.0182   -2.4391   -0.6378 C   0  0  0  0  0  0  0  0  0  0  0  0
   -0.9969   -1.0602   -0.8901 N   0  0  0  0  0  0  0  0  0  0  0  0
   -0.6810    1.5311   -0.5377 O   0  0  0  0  0  0  0  0  0  0  0  0
    1.2620    2.3346    0.2782 O   0  0  0  0  0  0  0  0  0  0  0  0
    2.0747   -0.0751    0.2041 H   0  0  0  0  0  0  0  0  0  0  0  0
    0.6320   -0.3522    1.1951 H   0  0  0  0  0  0  0  0  0  0  0  0
    0.8177   -0.6798   -1.8600 H   0  0  0  0  0  0  0  0  0  0  0  0
    0.6579   -2.8509    0.3120 H   0  0  0  0  0  0  0  0  0  0  0  0
    0.7055   -3.1178   -1.4391 H   0  0  0  0  0  0  0  0  0  0  0  0
    2.1126   -2.4391   -0.6093 H   0  0  0  0  0  0  0  0  0  0  0  0
   -1.2976   -1.6574   -1.6694 H   0  0  0  0  0  0  0  0  0  0  0  0
   -1.3279   -1.5643   -0.0585 H   0  0  0  0  0  0  0  0  0  0  0  0
   -1.0965    0.6514   -0.7291 H   0  0  0  0  0  0  0  0  0  0  0  0
  1  2  1  0  0  0  0
  1  3  1  0  0  0  0
  1  8  1  0  0  0  0
  1  9  1  0  0  0  0
  2  4  1  0  0  0  0
  2  5  1  0  0  0  0
  2 10  1  0  0  0  0
  3  6  1  0  0  0  0
  3  7  2  0  0  0  0
  4 11  1  0  0  0  0
  4 12  1  0  0  0  0
  4 13  1  0  0  0  0
  5 14  1  0  0  0  0
  5 15  1  0  0  0  0
  6 16  1  0  0  0  0
M  END
>  <Mol_ID>
9514

>  <Formula>
C4H9NO2

>  <MolWeight>
103.11976

>  <Cat>
E4287

>  <Name>
3-Aminobutanoic acid

>  <Synonyms>
3-Aminobutanoic acid

>  <Target>
Others

>  <Form>
free base

>  <CAS>
541-48-0

>  <URL>
https://www.selleckchem.com/products/3-aminobutanoic-acid.html

$$$$
