3-Amino-9-ethylcarbazole
 OpenBabel08302521343D

 30 32  0  0  0  0  0  0  0  0999 V2000
    1.0296   -0.1005   -0.0581 C   0  0  0  0  0  0  0  0  0  0  0  0
    2.5404   -0.1262   -0.2144 C   0  0  0  0  0  0  0  0  0  0  0  0
   -0.6788   -3.7976    5.1938 N   0  0  0  0  0  0  0  0  0  0  0  0
   -0.0664    0.8164    3.2897 C   0  0  0  0  0  0  0  0  0  0  0  0
   -0.1160   -0.6114    3.3591 C   0  0  0  0  0  0  0  0  0  0  0  0
    0.3936    1.1630    2.0180 C   0  0  0  0  0  0  0  0  0  0  0  0
   -0.3750    1.8426    4.2084 C   0  0  0  0  0  0  0  0  0  0  0  0
    0.3163   -1.1092    2.1296 C   0  0  0  0  0  0  0  0  0  0  0  0
   -0.4799   -1.5230    4.3755 C   0  0  0  0  0  0  0  0  0  0  0  0
    0.6036   -0.0170    1.3304 N   0  0  0  0  0  0  0  0  0  0  0  0
    0.5667    2.5049    1.6358 C   0  0  0  0  0  0  0  0  0  0  0  0
   -0.2119    3.1781    3.8350 C   0  0  0  0  0  0  0  0  0  0  0  0
    0.4120   -2.4884    1.8908 C   0  0  0  0  0  0  0  0  0  0  0  0
   -0.4468   -2.9011    4.1404 C   0  0  0  0  0  0  0  0  0  0  0  0
    0.2568    3.5025    2.5658 C   0  0  0  0  0  0  0  0  0  0  0  0
    0.0457   -3.3658    2.9213 C   0  0  0  0  0  0  0  0  0  0  0  0
    0.5856   -1.0024   -0.4935 H   0  0  0  0  0  0  0  0  0  0  0  0
    0.6008    0.7491   -0.6012 H   0  0  0  0  0  0  0  0  0  0  0  0
    2.9771    0.8450    0.0395 H   0  0  0  0  0  0  0  0  0  0  0  0
    3.0007   -0.8805    0.4319 H   0  0  0  0  0  0  0  0  0  0  0  0
    2.8089   -0.3545   -1.2514 H   0  0  0  0  0  0  0  0  0  0  0  0
   -1.3058   -3.4337    5.9047 H   0  0  0  0  0  0  0  0  0  0  0  0
   -0.9414   -4.7287    4.8878 H   0  0  0  0  0  0  0  0  0  0  0  0
   -0.7376    1.5961    5.2019 H   0  0  0  0  0  0  0  0  0  0  0  0
   -0.7850   -1.1403    5.3447 H   0  0  0  0  0  0  0  0  0  0  0  0
    0.9321    2.7733    0.6508 H   0  0  0  0  0  0  0  0  0  0  0  0
   -0.4479    3.9676    4.5441 H   0  0  0  0  0  0  0  0  0  0  0  0
    0.7773   -2.8814    0.9481 H   0  0  0  0  0  0  0  0  0  0  0  0
    0.3837    4.5471    2.2906 H   0  0  0  0  0  0  0  0  0  0  0  0
    0.1530   -4.4346    2.7547 H   0  0  0  0  0  0  0  0  0  0  0  0
  1  2  1  0  0  0  0
  1 10  1  0  0  0  0
  1 17  1  0  0  0  0
  1 18  1  0  0  0  0
  2 19  1  0  0  0  0
  2 20  1  0  0  0  0
  2 21  1  0  0  0  0
  3 14  1  0  0  0  0
  3 22  1  0  0  0  0
  3 23  1  0  0  0  0
  4  5  1  0  0  0  0
  4  6  1  0  0  0  0
  4  7  2  0  0  0  0
  5  8  2  0  0  0  0
  5  9  1  0  0  0  0
  6 10  1  0  0  0  0
  6 11  2  0  0  0  0
  7 12  1  0  0  0  0
  7 24  1  0  0  0  0
  8 10  1  0  0  0  0
  8 13  1  0  0  0  0
  9 14  2  0  0  0  0
  9 25  1  0  0  0  0
 11 15  1  0  0  0  0
 11 26  1  0  0  0  0
 12 15  2  0  0  0  0
 12 27  1  0  0  0  0
 13 16  2  0  0  0  0
 13 28  1  0  0  0  0
 14 16  1  0  0  0  0
 15 29  1  0  0  0  0
 16 30  1  0  0  0  0
M  END
>  <Mol_ID>
6503

>  <Formula>
C14H14N2

>  <MolWeight>
210.27436

>  <Cat>
E2703

>  <Name>
3-Amino-9-ethylcarbazole

>  <Synonyms>
AEC

>  <Target>
Others

>  <Form>
free base

>  <CAS>
132-32-1

>  <URL>
http://www.selleckchem.com/products/3-amino-9-ethylcarbazole.html

$$$$
