3-Aminoisobutyric acid
 OpenBabel08302521383D

 16 15  0  0  0  0  0  0  0  0999 V2000
    0.9620   -0.0530   -0.0977 C   0  0  0  0  0  0  0  0  0  0  0  0
    0.1809   -0.0143    1.2035 C   0  0  3  0  0  0  0  0  0  0  0  0
   -0.7101    1.2368    1.2126 C   0  0  0  0  0  0  0  0  0  0  0  0
   -0.6084   -1.3142    1.3439 C   0  0  0  0  0  0  0  0  0  0  0  0
    0.5806    0.4303   -1.1522 O   0  0  0  0  0  0  0  0  0  0  0  0
    2.1341   -0.7165    0.0013 O   0  0  0  0  0  0  0  0  0  0  0  0
   -1.4447    1.3932    2.4704 N   0  0  0  0  0  0  0  0  0  0  0  0
    0.8974    0.0733    2.0302 H   0  0  0  0  0  0  0  0  0  0  0  0
   -0.0875    2.1275    1.0667 H   0  0  0  0  0  0  0  0  0  0  0  0
   -1.4275    1.2119    0.3828 H   0  0  0  0  0  0  0  0  0  0  0  0
    0.0561   -2.1829    1.2851 H   0  0  0  0  0  0  0  0  0  0  0  0
   -1.1300   -1.3653    2.3043 H   0  0  0  0  0  0  0  0  0  0  0  0
   -1.3503   -1.4146    0.5447 H   0  0  0  0  0  0  0  0  0  0  0  0
    2.3204   -1.0646    0.8958 H   0  0  0  0  0  0  0  0  0  0  0  0
   -2.0028    2.2465    2.4174 H   0  0  0  0  0  0  0  0  0  0  0  0
   -2.1222    0.6383    2.5704 H   0  0  0  0  0  0  0  0  0  0  0  0
  1  2  1  0  0  0  0
  1  5  2  0  0  0  0
  1  6  1  0  0  0  0
  2  3  1  0  0  0  0
  2  4  1  0  0  0  0
  2  8  1  0  0  0  0
  3  7  1  0  0  0  0
  3  9  1  0  0  0  0
  3 10  1  0  0  0  0
  4 11  1  0  0  0  0
  4 12  1  0  0  0  0
  4 13  1  0  0  0  0
  6 14  1  0  0  0  0
  7 15  1  0  0  0  0
  7 16  1  0  0  0  0
M  END
>  <Mol_ID>
7907

>  <Formula>
C4H9NO2

>  <MolWeight>
103.11976

>  <Cat>
S6134

>  <Name>
3-Aminoisobutyric acid

>  <Synonyms>
3-Amino-2-methylpropanoic acid, 3-Aminoisobutyrate, ¦Â-aminoisobutyric acid

>  <Target>
Others

>  <Form>
free base

>  <CAS>
144-90-1

>  <URL>
http://www.selleck.cn/products/3-aminoisobutyric-acid.html

$$$$
