3-Amino-1,2,4-triazole
 OpenBabel08302521303D

 10 10  0  0  0  0  0  0  0  0999 V2000
    0.1486   -1.0345    0.0103 N   0  0  0  0  0  0  0  0  0  0  0  0
   -0.0449    1.1370    0.0204 N   0  0  0  0  0  0  0  0  0  0  0  0
    1.4251   -0.6122   -0.0342 N   0  0  0  0  0  0  0  0  0  0  0  0
   -2.0516   -0.1368    0.1007 N   0  0  0  0  0  0  0  0  0  0  0  0
   -0.7221    0.0197    0.0428 C   0  0  0  0  0  0  0  0  0  0  0  0
    1.2542    0.7125   -0.0187 C   0  0  0  0  0  0  0  0  0  0  0  0
   -0.0537   -2.0245    0.0255 H   0  0  0  0  0  0  0  0  0  0  0  0
   -2.5220   -1.0052   -0.1199 H   0  0  0  0  0  0  0  0  0  0  0  0
   -2.6183    0.6958   -0.0348 H   0  0  0  0  0  0  0  0  0  0  0  0
    2.0983    1.3900   -0.0363 H   0  0  0  0  0  0  0  0  0  0  0  0
  1  3  1  0  0  0  0
  1  5  1  0  0  0  0
  1  7  1  0  0  0  0
  2  5  2  0  0  0  0
  2  6  1  0  0  0  0
  3  6  2  0  0  0  0
  4  5  1  0  0  0  0
  4  8  1  0  0  0  0
  4  9  1  0  0  0  0
  6 10  1  0  0  0  0
M  END
>  <Mol_ID>
5655

>  <Formula>
C2H4N4

>  <MolWeight>
84.07996

>  <Cat>
S5977

>  <Name>
3-Amino-1,2,4-triazole

>  <Synonyms>
1,2,4-Triazol-3-amine, 3-AT, Aminotriazole, Amitrol, 3-Amino-1H-1,2,4-triazole, Trapidil impurity B

>  <Target>
Catalase,Peroxidases

>  <Form>
Free Base

>  <CAS>
61-82-5

>  <URL>
http://www.selleckchem.com/products/3-amino-1-2-4-triazole.html

$$$$
