3-Amino-4-hydroxybenzoic acid
 OpenBabel08302521263D

 18 18  0  0  0  0  0  0  0  0999 V2000
   -1.9201   -0.6668   -0.0028 C   0  0  0  0  0  0  0  0  0  0  0  0
   -0.7103   -1.3830    0.0504 C   0  0  0  0  0  0  0  0  0  0  0  0
   -1.9051    0.7327   -0.0793 C   0  0  0  0  0  0  0  0  0  0  0  0
   -3.1809   -1.4519   -0.0362 C   0  0  0  0  0  0  0  0  0  0  0  0
    0.5122   -0.7127   -0.0067 C   0  0  0  0  0  0  0  0  0  0  0  0
   -0.6864    1.4127   -0.0641 C   0  0  0  0  0  0  0  0  0  0  0  0
   -4.2429   -0.8290    0.5142 O   0  0  0  0  0  0  0  0  0  0  0  0
   -3.2392   -2.5788   -0.4983 O   0  0  0  0  0  0  0  0  0  0  0  0
    0.4995    0.6881   -0.0057 C   0  0  0  0  0  0  0  0  0  0  0  0
    1.7255   -1.4191    0.1081 N   0  0  0  0  0  0  0  0  0  0  0  0
    1.6733    1.3853    0.0769 O   0  0  0  0  0  0  0  0  0  0  0  0
   -0.7373   -2.4680    0.1053 H   0  0  0  0  0  0  0  0  0  0  0  0
   -2.8215    1.3101   -0.1660 H   0  0  0  0  0  0  0  0  0  0  0  0
   -0.6567    2.4981   -0.0904 H   0  0  0  0  0  0  0  0  0  0  0  0
   -4.0400   -0.0135    1.0063 H   0  0  0  0  0  0  0  0  0  0  0  0
    2.4483   -1.0423   -0.5027 H   0  0  0  0  0  0  0  0  0  0  0  0
    1.6124   -2.4150   -0.0729 H   0  0  0  0  0  0  0  0  0  0  0  0
    2.3185    0.7506    0.4399 H   0  0  0  0  0  0  0  0  0  0  0  0
  1  2  2  0  0  0  0
  1  3  1  0  0  0  0
  1  4  1  0  0  0  0
  2  5  1  0  0  0  0
  2 12  1  0  0  0  0
  3  6  2  0  0  0  0
  3 13  1  0  0  0  0
  4  7  1  0  0  0  0
  4  8  2  0  0  0  0
  5  9  2  0  0  0  0
  5 10  1  0  0  0  0
  6  9  1  0  0  0  0
  6 14  1  0  0  0  0
  7 15  1  0  0  0  0
  9 11  1  0  0  0  0
 10 16  1  0  0  0  0
 10 17  1  0  0  0  0
 11 18  1  0  0  0  0
M  END
>  <Mol_ID>
5261

>  <Formula>
C7H7NO3

>  <MolWeight>
153.13538

>  <Cat>
S6361

>  <Name>
3-Amino-4-hydroxybenzoic acid

>  <Synonyms>
N/A

>  <Target>
Others

>  <Form>
Free Base

>  <CAS>
1571-72-8

>  <URL>
https://www.selleckchem.com/products/3-amino-4-hydroxybenzoic-acid.html

$$$$
