3-deazaadenosine
 OpenBabel08302521353D

 33 35  0  0  0  0  0  0  0  0999 V2000
   -1.9127    0.8550    0.1014 O   0  0  0  0  0  0  0  0  0  0  0  0
    1.4041    6.9313   -1.6769 N   0  0  0  0  0  0  0  0  0  0  0  0
    1.9123   -0.8423   -1.7087 C   0  0  0  0  0  0  0  0  0  0  0  0
    3.3316   -0.8868   -1.5869 O   0  0  0  0  0  0  0  0  0  0  0  0
   -0.8247   -1.3821    0.8369 O   0  0  0  0  0  0  0  0  0  0  0  0
    0.9490    2.5725   -0.1326 N   0  0  0  0  0  0  0  0  0  0  0  0
    0.2005    3.7281   -0.2183 C   0  0  0  0  0  0  0  0  0  0  0  0
    2.2003    2.8603   -0.6047 C   0  0  0  0  0  0  0  0  0  0  0  0
    1.0618    4.6541   -0.8083 C   0  0  0  0  0  0  0  0  0  0  0  0
   -1.1042    4.0684    0.1339 C   0  0  0  0  0  0  0  0  0  0  0  0
    2.2939    4.0864   -1.0581 N   0  0  0  0  0  0  0  0  0  0  0  0
    0.6046    5.9660   -1.0749 C   0  0  0  0  0  0  0  0  0  0  0  0
   -1.4686    5.3729   -0.1743 C   0  0  0  0  0  0  0  0  0  0  0  0
   -0.6712    6.2957   -0.7642 N   0  0  0  0  0  0  0  0  0  0  0  0
    0.5066    1.2823    0.3863 C   0  0  2  0  0  0  0  0  0  0  0  0
    1.6304    0.3606    0.3922 O   0  0  0  0  0  0  0  0  0  0  0  0
   -0.6078    0.6296   -0.4398 C   0  0  1  0  0  0  0  0  0  0  0  0
    1.2644   -0.8463   -0.3200 C   0  0  1  0  0  0  0  0  0  0  0  0
   -0.2537   -0.8494   -0.3732 C   0  0  1  0  0  0  0  0  0  0  0  0
   -2.1415    0.0451    0.6070 H   0  0  0  0  0  0  0  0  0  0  0  0
    2.1768    6.5261   -2.1864 H   0  0  0  0  0  0  0  0  0  0  0  0
    0.8407    7.6264   -2.1479 H   0  0  0  0  0  0  0  0  0  0  0  0
    1.6050   -1.7266   -2.2760 H   0  0  0  0  0  0  0  0  0  0  0  0
    1.6572    0.0517   -2.2829 H   0  0  0  0  0  0  0  0  0  0  0  0
    3.6029   -0.1234   -1.0456 H   0  0  0  0  0  0  0  0  0  0  0  0
   -0.1653   -1.3216    1.5536 H   0  0  0  0  0  0  0  0  0  0  0  0
    3.0119    2.1432   -0.6002 H   0  0  0  0  0  0  0  0  0  0  0  0
   -1.7982    3.3796    0.6009 H   0  0  0  0  0  0  0  0  0  0  0  0
   -2.4701    5.7292    0.0554 H   0  0  0  0  0  0  0  0  0  0  0  0
    0.2092    1.4514    1.4282 H   0  0  0  0  0  0  0  0  0  0  0  0
   -0.5947    0.9855   -1.4774 H   0  0  0  0  0  0  0  0  0  0  0  0
    1.6584   -1.6843    0.2659 H   0  0  0  0  0  0  0  0  0  0  0  0
   -0.6720   -1.4234   -1.2032 H   0  0  0  0  0  0  0  0  0  0  0  0
  1 20  1  0  0  0  0
  2 12  1  0  0  0  0
  2 21  1  0  0  0  0
  2 22  1  0  0  0  0
  3  4  1  0  0  0  0
  3 23  1  0  0  0  0
  3 24  1  0  0  0  0
  4 25  1  0  0  0  0
  5 26  1  0  0  0  0
  6  7  1  0  0  0  0
  6  8  1  0  0  0  0
  7  9  2  0  0  0  0
  7 10  1  0  0  0  0
  8 11  2  0  0  0  0
  8 27  1  0  0  0  0
  9 11  1  0  0  0  0
  9 12  1  0  0  0  0
 10 13  2  0  0  0  0
 10 28  1  0  0  0  0
 12 14  2  0  0  0  0
 13 14  1  0  0  0  0
 13 29  1  0  0  0  0
 15 16  1  0  0  0  0
 15 17  1  0  0  0  0
 15 30  1  1  0  0  0
 15  6  1  0  0  0  0
 16 18  1  0  0  0  0
 17  1  1  0  0  0  0
 17 19  1  0  0  0  0
 17 31  1  6  0  0  0
 18 19  1  0  0  0  0
 18 32  1  1  0  0  0
 18  3  1  0  0  0  0
 19  5  1  0  0  0  0
 19 33  1  6  0  0  0
M  END
>  <Mol_ID>
6706

>  <Formula>
C11H14N4O4

>  <MolWeight>
266.25326

>  <Cat>
S6835

>  <Name>
3-deazaadenosine

>  <Target>
Histamine Receptor

>  <Form>
Free base

>  <CAS>
6736-58-9

>  <URL>
http://www.selleckchem.com/products/3-deazaadenosine.html

$$$$
