3-Deazaadenosine hydrochloride
 OpenBabel08302521243D

 33 35  0  0  0  0  0  0  0  0999 V2000
    1.6319    0.3532    0.3945 O   0  0  0  0  0  0  0  0  0  0  0  0
   -1.9083    0.8567    0.0951 O   0  0  0  0  0  0  0  0  0  0  0  0
   -0.8253   -1.3833    0.8330 O   0  0  0  0  0  0  0  0  0  0  0  0
    3.3341   -0.8910   -1.5881 O   0  0  0  0  0  0  0  0  0  0  0  0
    0.9586    2.5695   -0.1272 N   0  0  0  0  0  0  0  0  0  0  0  0
    2.3219    4.0839   -1.0245 N   0  0  0  0  0  0  0  0  0  0  0  0
   -0.6452    6.2982   -0.7617 N   0  0  0  0  0  0  0  0  0  0  0  0
    1.4451    6.9403   -1.6343 N   0  0  0  0  0  0  0  0  0  0  0  0
   -0.6046    0.6282   -0.4436 C   0  0  1  0  0  0  0  0  0  0  0  0
    0.5120    1.2796    0.3867 C   0  0  1  0  0  0  0  0  0  0  0  0
   -0.2522   -0.8497   -0.3769 C   0  0  1  0  0  0  0  0  0  0  0  0
    1.2660   -0.8507   -0.3221 C   0  0  1  0  0  0  0  0  0  0  0  0
    1.9157   -0.8434   -1.7084 C   0  0  0  0  0  0  0  0  0  0  0  0
    0.2142    3.7267   -0.2172 C   0  0  0  0  0  0  0  0  0  0  0  0
    2.2195    2.8545   -0.5805 C   0  0  0  0  0  0  0  0  0  0  0  0
    1.0860    4.6549   -0.7890 C   0  0  0  0  0  0  0  0  0  0  0  0
   -1.0939    4.0670    0.1189 C   0  0  0  0  0  0  0  0  0  0  0  0
    0.6356    5.9698   -1.0511 C   0  0  0  0  0  0  0  0  0  0  0  0
   -1.4516    5.3760   -0.1852 C   0  0  0  0  0  0  0  0  0  0  0  0
   -2.1422    0.0454    0.5994 H   0  0  0  0  0  0  0  0  0  0  0  0
   -0.1641   -1.3285    1.5497 H   0  0  0  0  0  0  0  0  0  0  0  0
    3.6066   -0.1287   -1.0460 H   0  0  0  0  0  0  0  0  0  0  0  0
    2.2258    6.5360   -2.1372 H   0  0  0  0  0  0  0  0  0  0  0  0
    0.8876    7.6402   -2.1052 H   0  0  0  0  0  0  0  0  0  0  0  0
   -0.5867    0.9860   -1.4794 H   0  0  0  0  0  0  0  0  0  0  0  0
    0.2111    1.4462    1.4277 H   0  0  0  0  0  0  0  0  0  0  0  0
   -0.6706   -1.4237   -1.2080 H   0  0  0  0  0  0  0  0  0  0  0  0
    1.6582   -1.6908    0.2613 H   0  0  0  0  0  0  0  0  0  0  0  0
    1.6058   -1.7249   -2.2809 H   0  0  0  0  0  0  0  0  0  0  0  0
    1.6617    0.0533   -2.2817 H   0  0  0  0  0  0  0  0  0  0  0  0
    3.0290    2.1376   -0.5682 H   0  0  0  0  0  0  0  0  0  0  0  0
   -1.7945    3.3789    0.5728 H   0  0  0  0  0  0  0  0  0  0  0  0
   -2.4549    5.7321    0.0344 H   0  0  0  0  0  0  0  0  0  0  0  0
  1 10  1  0  0  0  0
  1 12  1  0  0  0  0
  2 20  1  0  0  0  0
  3 21  1  0  0  0  0
  4 13  1  0  0  0  0
  4 22  1  0  0  0  0
  5 14  1  0  0  0  0
  5 15  1  0  0  0  0
  6 15  2  0  0  0  0
  6 16  1  0  0  0  0
  7 18  2  0  0  0  0
  7 19  1  0  0  0  0
  8 18  1  0  0  0  0
  8 23  1  0  0  0  0
  8 24  1  0  0  0  0
  9  2  1  0  0  0  0
  9 10  1  0  0  0  0
  9 11  1  0  0  0  0
  9 25  1  6  0  0  0
 10 26  1  1  0  0  0
 10  5  1  0  0  0  0
 11  3  1  0  0  0  0
 11 12  1  0  0  0  0
 11 27  1  6  0  0  0
 12 28  1  1  0  0  0
 12 13  1  0  0  0  0
 13 29  1  0  0  0  0
 13 30  1  0  0  0  0
 14 16  2  0  0  0  0
 14 17  1  0  0  0  0
 15 31  1  0  0  0  0
 16 18  1  0  0  0  0
 17 19  2  0  0  0  0
 17 32  1  0  0  0  0
 19 33  1  0  0  0  0
M  END
>  <Mol_ID>
5086

>  <Formula>
C11H15ClN4O4

>  <MolWeight>
302.7142

>  <Cat>
S0787

>  <Name>
3-Deazaadenosine hydrochloride

>  <Synonyms>
3-DZA HCl, c3Ado HCl

>  <Target>
Interleukins,TNF-alpha

>  <Form>
hydrochloride

>  <CAS>
86583-19-9

>  <URL>
http://www.selleckchem.com/products/3-deazaadenosine-hydrochloride.html

$$$$
