3-Furaldehyde
 OpenBabel08302521363D

 11 11  0  0  0  0  0  0  0  0999 V2000
    0.9818    0.0891   -0.0336 C   0  0  0  0  0  0  0  0  0  0  0  0
    0.7009    0.6043   -1.1108 O   0  0  0  0  0  0  0  0  0  0  0  0
    0.2682   -1.0383    0.5187 C   0  0  0  0  0  0  0  0  0  0  0  0
   -0.8374   -1.7479   -0.0264 C   0  0  0  0  0  0  0  0  0  0  0  0
    0.5455   -1.6503    1.7223 C   0  0  0  0  0  0  0  0  0  0  0  0
   -1.1476   -2.7370    0.8767 C   0  0  0  0  0  0  0  0  0  0  0  0
   -0.3095   -2.6823    1.9436 O   0  0  0  0  0  0  0  0  0  0  0  0
    1.8159    0.4749    0.5769 H   0  0  0  0  0  0  0  0  0  0  0  0
   -1.3393   -1.5541   -0.9652 H   0  0  0  0  0  0  0  0  0  0  0  0
    1.2785   -1.4843    2.5003 H   0  0  0  0  0  0  0  0  0  0  0  0
   -1.8948   -3.5181    0.9073 H   0  0  0  0  0  0  0  0  0  0  0  0
  1  2  2  0  0  0  0
  1  3  1  0  0  0  0
  1  8  1  0  0  0  0
  3  4  1  0  0  0  0
  3  5  2  0  0  0  0
  4  6  2  0  0  0  0
  4  9  1  0  0  0  0
  5  7  1  0  0  0  0
  5 10  1  0  0  0  0
  6  7  1  0  0  0  0
  6 11  1  0  0  0  0
M  END
>  <Mol_ID>
7061

>  <Formula>
C5H4O2

>  <MolWeight>
96.08406

>  <Cat>
E4073

>  <Name>
3-Furaldehyde

>  <Synonyms>
3-Furancarboxaldehyde

>  <Target>
Others

>  <Form>
Free base

>  <CAS>
498-60-2

>  <URL>
https://www.selleckchem.com/products/3-furaldehyde.html

$$$$
