3-Furoic acid
 OpenBabel08302520393D

 12 12  0  0  0  0  0  0  0  0999 V2000
    1.1657    0.6377    0.0008 C   0  0  0  0  0  0  0  0  0  0  0  0
    2.3218    1.5184    0.0068 C   0  0  0  0  0  0  0  0  0  0  0  0
    1.0497   -0.7848   -0.0002 C   0  0  0  0  0  0  0  0  0  0  0  0
   -0.1382    1.1001   -0.0074 C   0  0  0  0  0  0  0  0  0  0  0  0
    3.5286    0.8973    0.0149 O   0  0  0  0  0  0  0  0  0  0  0  0
    2.2352    2.7373    0.0079 O   0  0  0  0  0  0  0  0  0  0  0  0
   -0.2972   -1.0712   -0.0072 C   0  0  0  0  0  0  0  0  0  0  0  0
   -1.0231    0.0726   -0.0117 O   0  0  0  0  0  0  0  0  0  0  0  0
    1.8331   -1.5283    0.0043 H   0  0  0  0  0  0  0  0  0  0  0  0
   -0.5724    2.0918   -0.0104 H   0  0  0  0  0  0  0  0  0  0  0  0
    3.4755   -0.0722    0.0126 H   0  0  0  0  0  0  0  0  0  0  0  0
   -0.8705   -1.9878   -0.0097 H   0  0  0  0  0  0  0  0  0  0  0  0
  1  2  1  0  0  0  0
  1  3  1  0  0  0  0
  1  4  2  0  0  0  0
  2  5  1  0  0  0  0
  2  6  2  0  0  0  0
  3  7  2  0  0  0  0
  3  9  1  0  0  0  0
  4  8  1  0  0  0  0
  4 10  1  0  0  0  0
  5 11  1  0  0  0  0
  7  8  1  0  0  0  0
  7 12  1  0  0  0  0
M  END
>  <Mol_ID>
3562

>  <Formula>
C5H4O3

>  <MolWeight>
112.08346

>  <Cat>
S6097

>  <Name>
3-Furoic acid

>  <Synonyms>
N/A

>  <Target>
Others

>  <Form>
free base

>  <CAS>
488-93-7

>  <URL>
http://www.selleck.cn/products/3-furoic-acid.html

$$$$
