3-Hydroxy-2-methylpyridine
 OpenBabel08302521363D

 15 15  0  0  0  0  0  0  0  0999 V2000
   -1.8962    1.1206    0.0058 O   0  0  0  0  0  0  0  0  0  0  0  0
   -1.5446   -1.7451    0.0119 C   0  0  0  0  0  0  0  0  0  0  0  0
   -0.6282    0.6162    0.0059 C   0  0  0  0  0  0  0  0  0  0  0  0
   -0.4129   -0.7618    0.0028 C   0  0  0  0  0  0  0  0  0  0  0  0
    0.4683    1.4738    0.0106 C   0  0  0  0  0  0  0  0  0  0  0  0
    0.8365   -1.2986   -0.0032 N   0  0  0  0  0  0  0  0  0  0  0  0
    1.7505    0.9341    0.0089 C   0  0  0  0  0  0  0  0  0  0  0  0
    1.8824   -0.4438   -0.0006 C   0  0  0  0  0  0  0  0  0  0  0  0
   -1.8501    2.0905   -0.0075 H   0  0  0  0  0  0  0  0  0  0  0  0
   -1.4913   -2.3786   -0.8790 H   0  0  0  0  0  0  0  0  0  0  0  0
   -1.4723   -2.3799    0.9008 H   0  0  0  0  0  0  0  0  0  0  0  0
   -2.5258   -1.2623    0.0238 H   0  0  0  0  0  0  0  0  0  0  0  0
    0.3440    2.5513    0.0177 H   0  0  0  0  0  0  0  0  0  0  0  0
    2.6269    1.5718    0.0152 H   0  0  0  0  0  0  0  0  0  0  0  0
    2.8620   -0.9135   -0.0051 H   0  0  0  0  0  0  0  0  0  0  0  0
  1  3  1  0  0  0  0
  1  9  1  0  0  0  0
  2  4  1  0  0  0  0
  2 10  1  0  0  0  0
  2 11  1  0  0  0  0
  2 12  1  0  0  0  0
  3  4  2  0  0  0  0
  3  5  1  0  0  0  0
  4  6  1  0  0  0  0
  5  7  2  0  0  0  0
  5 13  1  0  0  0  0
  6  8  2  0  0  0  0
  7  8  1  0  0  0  0
  7 14  1  0  0  0  0
  8 15  1  0  0  0  0
M  END
>  <Mol_ID>
7101

>  <Formula>
C6H7NO

>  <MolWeight>
109.12588

>  <Cat>
E4125

>  <Name>
3-Hydroxy-2-methylpyridine

>  <Synonyms>
3-Hydroxy-2-methylpyridine

>  <Target>
Others

>  <Form>
free base

>  <CAS>
1121-25-1

>  <URL>
https://www.selleckchem.com/products/3-hydroxy-2-methylpyridine.html

$$$$
