3-Hydroxypyridine
 OpenBabel08302521363D

 12 12  0  0  0  0  0  0  0  0999 V2000
   -2.2919    0.1051    0.0313 O   0  0  0  0  0  0  0  0  0  0  0  0
   -0.3001   -1.2391    0.0065 C   0  0  0  0  0  0  0  0  0  0  0  0
   -0.9347   -0.0044    0.0178 C   0  0  0  0  0  0  0  0  0  0  0  0
    1.0924   -1.2783   -0.0158 C   0  0  0  0  0  0  0  0  0  0  0  0
   -0.1586    1.1439    0.0108 C   0  0  0  0  0  0  0  0  0  0  0  0
    1.7886   -0.0783   -0.0268 C   0  0  0  0  0  0  0  0  0  0  0  0
    1.1951    1.1350   -0.0121 N   0  0  0  0  0  0  0  0  0  0  0  0
   -2.6775   -0.7857   -0.0106 H   0  0  0  0  0  0  0  0  0  0  0  0
   -0.8627   -2.1665    0.0172 H   0  0  0  0  0  0  0  0  0  0  0  0
    1.6247   -2.2228   -0.0261 H   0  0  0  0  0  0  0  0  0  0  0  0
   -0.6186    2.1272    0.0221 H   0  0  0  0  0  0  0  0  0  0  0  0
    2.8745   -0.0613   -0.0476 H   0  0  0  0  0  0  0  0  0  0  0  0
  1  3  1  0  0  0  0
  1  8  1  0  0  0  0
  2  3  2  0  0  0  0
  2  4  1  0  0  0  0
  2  9  1  0  0  0  0
  3  5  1  0  0  0  0
  4  6  2  0  0  0  0
  4 10  1  0  0  0  0
  5  7  2  0  0  0  0
  5 11  1  0  0  0  0
  6  7  1  0  0  0  0
  6 12  1  0  0  0  0
M  END
>  <Mol_ID>
7256

>  <Formula>
C5H5NO

>  <MolWeight>
95.0993

>  <Cat>
E4270

>  <Name>
3-Hydroxypyridine

>  <Target>
Others

>  <Form>
Free base

>  <CAS>
109-00-2

>  <URL>
https://www.selleckchem.com/products/3-hydroxypyridine.html

$$$$
