3-Hydroxy-4-aminopyridine
 OpenBabel08302521373D

 14 14  0  0  0  0  0  0  0  0999 V2000
    1.0250    0.0354   -0.2153 N   0  0  0  0  0  0  0  0  0  0  0  0
   -1.2587   -0.8336   -1.5297 O   0  0  0  0  0  0  0  0  0  0  0  0
    0.3948   -1.1710    0.1595 C   0  0  0  0  0  0  0  0  0  0  0  0
   -0.7786   -1.5666   -0.4833 C   0  0  0  0  0  0  0  0  0  0  0  0
    0.8806   -1.9580    1.1980 C   0  0  0  0  0  0  0  0  0  0  0  0
   -1.4242   -2.7177   -0.0700 C   0  0  0  0  0  0  0  0  0  0  0  0
    0.1704   -3.1013    1.5432 C   0  0  0  0  0  0  0  0  0  0  0  0
   -0.9720   -3.4980    0.9381 N   0  0  0  0  0  0  0  0  0  0  0  0
    0.4083    0.8287   -0.0395 H   0  0  0  0  0  0  0  0  0  0  0  0
    1.9096    0.1791    0.2682 H   0  0  0  0  0  0  0  0  0  0  0  0
   -0.5199   -0.2351   -1.7590 H   0  0  0  0  0  0  0  0  0  0  0  0
    1.7829   -1.7004    1.7382 H   0  0  0  0  0  0  0  0  0  0  0  0
   -2.3346   -3.0531   -0.5549 H   0  0  0  0  0  0  0  0  0  0  0  0
    0.5122   -3.7473    2.3472 H   0  0  0  0  0  0  0  0  0  0  0  0
  1  3  1  0  0  0  0
  1  9  1  0  0  0  0
  1 10  1  0  0  0  0
  2  4  1  0  0  0  0
  2 11  1  0  0  0  0
  3  4  2  0  0  0  0
  3  5  1  0  0  0  0
  4  6  1  0  0  0  0
  5  7  2  0  0  0  0
  5 12  1  0  0  0  0
  6  8  2  0  0  0  0
  6 13  1  0  0  0  0
  7  8  1  0  0  0  0
  7 14  1  0  0  0  0
M  END
>  <Mol_ID>
7423

>  <Formula>
C5H6N2O

>  <MolWeight>
110.11394

>  <Cat>
E4523

>  <Name>
3-Hydroxy-4-aminopyridine

>  <Target>
Others

>  <Form>
Free base

>  <CAS>
52334-53-9

>  <URL>
https://www.selleckchem.com/products/3-hydroxy-4-aminopyridine.html

$$$$
