3-Hydroxybenzaldehyde
 OpenBabel08302521293D

 15 15  0  0  0  0  0  0  0  0999 V2000
    2.2451   -0.0207    0.0150 O   0  0  0  0  0  0  0  0  0  0  0  0
   -1.4921   -3.5354    0.0023 O   0  0  0  0  0  0  0  0  0  0  0  0
   -1.2309   -1.1831   -0.0035 C   0  0  0  0  0  0  0  0  0  0  0  0
    0.1678   -1.2333    0.0067 C   0  0  0  0  0  0  0  0  0  0  0  0
    0.8820   -0.0392    0.0114 C   0  0  0  0  0  0  0  0  0  0  0  0
   -1.9028    0.0442   -0.0104 C   0  0  0  0  0  0  0  0  0  0  0  0
    0.2244    1.1874    0.0105 C   0  0  0  0  0  0  0  0  0  0  0  0
   -1.1700    1.2308   -0.0014 C   0  0  0  0  0  0  0  0  0  0  0  0
   -2.0198   -2.4302   -0.0063 C   0  0  0  0  0  0  0  0  0  0  0  0
    2.5752   -0.9340   -0.0151 H   0  0  0  0  0  0  0  0  0  0  0  0
    0.6740   -2.1941    0.0115 H   0  0  0  0  0  0  0  0  0  0  0  0
   -2.9891    0.0891   -0.0215 H   0  0  0  0  0  0  0  0  0  0  0  0
    0.8003    2.1092    0.0177 H   0  0  0  0  0  0  0  0  0  0  0  0
   -1.6810    2.1905   -0.0044 H   0  0  0  0  0  0  0  0  0  0  0  0
   -3.1181   -2.3187   -0.0157 H   0  0  0  0  0  0  0  0  0  0  0  0
  1  5  1  0  0  0  0
  1 10  1  0  0  0  0
  2  9  2  0  0  0  0
  3  4  2  0  0  0  0
  3  6  1  0  0  0  0
  3  9  1  0  0  0  0
  4  5  1  0  0  0  0
  4 11  1  0  0  0  0
  5  7  2  0  0  0  0
  6  8  2  0  0  0  0
  6 12  1  0  0  0  0
  7  8  1  0  0  0  0
  7 13  1  0  0  0  0
  8 14  1  0  0  0  0
  9 15  1  0  0  0  0
M  END
>  <Mol_ID>
5469

>  <Formula>
C7H6O2

>  <MolWeight>
122.12134

>  <Cat>
S3157

>  <Name>
3-Hydroxybenzaldehyde

>  <Synonyms>
3-HBA

>  <Target>
Others

>  <Form>
Free Base

>  <CAS>
100-83-4

>  <URL>
https://www.selleckchem.com/products/3-hydroxybenzaldehyde.html

$$$$
