3-Hydroxybenzyl alcohol
 OpenBabel08302521263D

 17 17  0  0  0  0  0  0  0  0999 V2000
   -1.2305   -1.1912   -0.0053 C   0  0  0  0  0  0  0  0  0  0  0  0
    0.1735   -1.2178    0.0014 C   0  0  0  0  0  0  0  0  0  0  0  0
   -1.8877    0.0476   -0.0087 C   0  0  0  0  0  0  0  0  0  0  0  0
   -2.0141   -2.4756    0.0067 C   0  0  0  0  0  0  0  0  0  0  0  0
    0.8903   -0.0227    0.0049 C   0  0  0  0  0  0  0  0  0  0  0  0
   -1.1577    1.2381   -0.0025 C   0  0  0  0  0  0  0  0  0  0  0  0
   -1.7344   -3.2359   -1.1603 O   0  0  0  0  0  0  0  0  0  0  0  0
    0.2328    1.2019    0.0052 C   0  0  0  0  0  0  0  0  0  0  0  0
    2.2540   -0.0103    0.0095 O   0  0  0  0  0  0  0  0  0  0  0  0
    0.6881   -2.1749    0.0030 H   0  0  0  0  0  0  0  0  0  0  0  0
   -2.9753    0.0964   -0.0116 H   0  0  0  0  0  0  0  0  0  0  0  0
   -1.7583   -3.0699    0.8899 H   0  0  0  0  0  0  0  0  0  0  0  0
   -3.0923   -2.2847    0.0327 H   0  0  0  0  0  0  0  0  0  0  0  0
   -1.6754    2.1944   -0.0009 H   0  0  0  0  0  0  0  0  0  0  0  0
   -1.7649   -2.6184   -1.9114 H   0  0  0  0  0  0  0  0  0  0  0  0
    0.8074    2.1251    0.0133 H   0  0  0  0  0  0  0  0  0  0  0  0
    2.5720   -0.9270   -0.0017 H   0  0  0  0  0  0  0  0  0  0  0  0
  1  2  2  0  0  0  0
  1  3  1  0  0  0  0
  1  4  1  0  0  0  0
  2  5  1  0  0  0  0
  2 10  1  0  0  0  0
  3  6  2  0  0  0  0
  3 11  1  0  0  0  0
  4  7  1  0  0  0  0
  4 12  1  0  0  0  0
  4 13  1  0  0  0  0
  5  8  2  0  0  0  0
  5  9  1  0  0  0  0
  6  8  1  0  0  0  0
  6 14  1  0  0  0  0
  7 15  1  0  0  0  0
  8 16  1  0  0  0  0
  9 17  1  0  0  0  0
M  END
>  <Mol_ID>
5263

>  <Formula>
C7H8O2

>  <MolWeight>
124.13722

>  <Cat>
S6363

>  <Name>
3-Hydroxybenzyl alcohol

>  <Synonyms>
N/A

>  <Target>
Others

>  <Form>
Free Base

>  <CAS>
620-24-6

>  <URL>
https://www.selleckchem.com/products/3-hydroxybenzyl-alcohol.html

$$$$
