3-Hydroxybutyric acid
 OpenBabel08302520433D

 15 14  0  0  0  0  0  0  0  0999 V2000
    0.9045   -0.1524   -0.0446 C   0  0  0  0  0  0  0  0  0  0  0  0
    0.1813    0.1276    1.2436 C   0  0  0  0  0  0  0  0  0  0  0  0
   -0.6788    1.3799    1.1494 C   0  0  3  0  0  0  0  0  0  0  0  0
   -1.7942    1.2860    0.1147 C   0  0  0  0  0  0  0  0  0  0  0  0
    0.4451   -0.8416   -0.9415 O   0  0  0  0  0  0  0  0  0  0  0  0
    2.1054    0.4559   -0.1387 O   0  0  0  0  0  0  0  0  0  0  0  0
   -1.2550    1.6223    2.4340 O   0  0  0  0  0  0  0  0  0  0  0  0
   -0.4222   -0.7502    1.5055 H   0  0  0  0  0  0  0  0  0  0  0  0
    0.9080    0.2180    2.0600 H   0  0  0  0  0  0  0  0  0  0  0  0
   -0.0512    2.2462    0.9153 H   0  0  0  0  0  0  0  0  0  0  0  0
   -2.4164    0.4006    0.2852 H   0  0  0  0  0  0  0  0  0  0  0  0
   -2.4557    2.1561    0.1871 H   0  0  0  0  0  0  0  0  0  0  0  0
   -1.3957    1.2424   -0.9025 H   0  0  0  0  0  0  0  0  0  0  0  0
    2.3614    0.9743    0.6480 H   0  0  0  0  0  0  0  0  0  0  0  0
   -1.9790    0.9846    2.5689 H   0  0  0  0  0  0  0  0  0  0  0  0
  1  2  1  0  0  0  0
  1  5  2  0  0  0  0
  1  6  1  0  0  0  0
  2  3  1  0  0  0  0
  2  8  1  0  0  0  0
  2  9  1  0  0  0  0
  3  4  1  0  0  0  0
  3  7  1  0  0  0  0
  3 10  1  0  0  0  0
  4 11  1  0  0  0  0
  4 12  1  0  0  0  0
  4 13  1  0  0  0  0
  6 14  1  0  0  0  0
  7 15  1  0  0  0  0
M  END
>  <Mol_ID>
4036

>  <Formula>
C4H8O3

>  <MolWeight>
104.10452

>  <Cat>
S1031

>  <Name>
3-Hydroxybutyric acid

>  <Synonyms>
3-hydroxybutanoic acid, ¦Â-Hydroxybutyric acid, BHB

>  <Target>
Others

>  <Form>
Free Base

>  <CAS>
300-85-6

>  <URL>
http://www.selleck.cn/products/3-hydroxybutyric-acid.html

$$$$
