3-Hydroxybenzoic acid
 OpenBabel08302521263D

 16 16  0  0  0  0  0  0  0  0999 V2000
    0.9417   -0.0160   -0.0633 C   0  0  0  0  0  0  0  0  0  0  0  0
    0.2402   -0.0706    1.2425 C   0  0  0  0  0  0  0  0  0  0  0  0
    0.6016    0.7658    2.3081 C   0  0  0  0  0  0  0  0  0  0  0  0
   -0.1013    0.6746    3.5061 C   0  0  0  0  0  0  0  0  0  0  0  0
   -1.1582   -0.2189    3.6521 C   0  0  0  0  0  0  0  0  0  0  0  0
   -1.5333   -1.0320    2.5836 C   0  0  0  0  0  0  0  0  0  0  0  0
   -0.8372   -0.9571    1.3769 C   0  0  0  0  0  0  0  0  0  0  0  0
    0.3779   -0.1973   -1.1279 O   0  0  0  0  0  0  0  0  0  0  0  0
    2.2668    0.2130    0.0454 O   0  0  0  0  0  0  0  0  0  0  0  0
    0.2109    1.4584    4.5770 O   0  0  0  0  0  0  0  0  0  0  0  0
    1.3966    1.4951    2.1938 H   0  0  0  0  0  0  0  0  0  0  0  0
   -1.6993   -0.2705    4.5938 H   0  0  0  0  0  0  0  0  0  0  0  0
   -2.3702   -1.7175    2.6891 H   0  0  0  0  0  0  0  0  0  0  0  0
   -1.1375   -1.5854    0.5399 H   0  0  0  0  0  0  0  0  0  0  0  0
    2.6270    0.1253    0.9467 H   0  0  0  0  0  0  0  0  0  0  0  0
    0.9021    2.0932    4.3275 H   0  0  0  0  0  0  0  0  0  0  0  0
  1  2  1  0  0  0  0
  1  8  2  0  0  0  0
  1  9  1  0  0  0  0
  2  3  2  0  0  0  0
  2  7  1  0  0  0  0
  3  4  1  0  0  0  0
  3 11  1  0  0  0  0
  4  5  2  0  0  0  0
  4 10  1  0  0  0  0
  5  6  1  0  0  0  0
  5 12  1  0  0  0  0
  6  7  2  0  0  0  0
  6 13  1  0  0  0  0
  7 14  1  0  0  0  0
  9 15  1  0  0  0  0
 10 16  1  0  0  0  0
M  END
>  <Mol_ID>
5281

>  <Formula>
C7H6O3

>  <MolWeight>
138.12074

>  <Cat>
S6367

>  <Name>
3-Hydroxybenzoic acid

>  <Synonyms>
m-Hydroxybenzoic acid, 3-Carboxyphenol, m-Salicylic acid

>  <Target>
Others

>  <Form>
Free Base

>  <CAS>
99-06-9

>  <URL>
https://www.selleckchem.com/products/3-hydroxybenzoic-acid.html

$$$$
