3-HYDROXY-3-METHYLGLUTARIC ACID
 OpenBabel08302521503D

 21 20  0  0  0  0  0  0  0  0999 V2000
    0.8974   -0.0005   -0.0835 C   0  0  0  0  0  0  0  0  0  0  0  0
    0.3967   -0.9113    1.0427 C   0  0  0  0  0  0  0  0  0  0  0  0
    2.3961   -0.0654   -0.1785 C   0  0  0  0  0  0  0  0  0  0  0  0
    1.0278   -0.5967    2.4100 C   0  0  0  0  0  0  0  0  0  0  0  0
   -1.1338   -0.8806    1.0868 C   0  0  0  0  0  0  0  0  0  0  0  0
    0.7731   -2.2567    0.6672 O   0  0  0  0  0  0  0  0  0  0  0  0
    2.8628   -1.2675   -0.5789 O   0  0  0  0  0  0  0  0  0  0  0  0
    3.1258    0.8478    0.1871 O   0  0  0  0  0  0  0  0  0  0  0  0
    0.7782    0.8124    2.8806 C   0  0  0  0  0  0  0  0  0  0  0  0
    1.7487    1.6908    2.5632 O   0  0  0  0  0  0  0  0  0  0  0  0
   -0.2395    1.1450    3.4754 O   0  0  0  0  0  0  0  0  0  0  0  0
    0.6045    1.0425    0.0805 H   0  0  0  0  0  0  0  0  0  0  0  0
    0.4891   -0.2947   -1.0583 H   0  0  0  0  0  0  0  0  0  0  0  0
    0.6287   -1.2779    3.1742 H   0  0  0  0  0  0  0  0  0  0  0  0
    2.1056   -0.8016    2.4185 H   0  0  0  0  0  0  0  0  0  0  0  0
   -1.5518   -1.2172    0.1306 H   0  0  0  0  0  0  0  0  0  0  0  0
   -1.5162   -1.5711    1.8469 H   0  0  0  0  0  0  0  0  0  0  0  0
   -1.5214    0.1208    1.2951 H   0  0  0  0  0  0  0  0  0  0  0  0
    0.3989   -2.8656    1.3354 H   0  0  0  0  0  0  0  0  0  0  0  0
    2.1402   -1.9429   -0.5680 H   0  0  0  0  0  0  0  0  0  0  0  0
    2.5091    1.3593    2.0308 H   0  0  0  0  0  0  0  0  0  0  0  0
  1  2  1  0  0  0  0
  1  3  1  0  0  0  0
  1 12  1  0  0  0  0
  1 13  1  0  0  0  0
  2  4  1  0  0  0  0
  2  5  1  0  0  0  0
  2  6  1  0  0  0  0
  3  7  1  0  0  0  0
  3  8  2  0  0  0  0
  4  9  1  0  0  0  0
  4 14  1  0  0  0  0
  4 15  1  0  0  0  0
  5 16  1  0  0  0  0
  5 17  1  0  0  0  0
  5 18  1  0  0  0  0
  6 19  1  0  0  0  0
  7 20  1  0  0  0  0
  9 10  1  0  0  0  0
  9 11  2  0  0  0  0
 10 21  1  0  0  0  0
M  END
>  <Mol_ID>
9897

>  <Formula>
C6H10O5

>  <MolWeight>
162.1406

>  <Cat>
E5010

>  <Name>
3-HYDROXY-3-METHYLGLUTARIC ACID

>  <Synonyms>
MEGLUTOL

>  <Target>
HMG-CoA Reductase

>  <Form>
free base

>  <CAS>
503-49-1

>  <URL>
https://www.selleckchem.com/products/3-hydroxy-3-methylglutaric-acid.html

$$$$
