3-Hydroxypicolinic acid
 OpenBabel08302520393D

 15 15  0  0  0  0  0  0  0  0999 V2000
   -0.2534    1.2037    0.0607 C   0  0  0  0  0  0  0  0  0  0  0  0
   -0.9919    0.0232    0.0420 C   0  0  0  0  0  0  0  0  0  0  0  0
    1.1220    1.2418    0.0380 N   0  0  0  0  0  0  0  0  0  0  0  0
   -0.8890    2.5639    0.1083 C   0  0  0  0  0  0  0  0  0  0  0  0
   -0.2955   -1.1824    0.0084 C   0  0  0  0  0  0  0  0  0  0  0  0
   -2.3528    0.0157    0.0547 O   0  0  0  0  0  0  0  0  0  0  0  0
    1.7556    0.0496    0.0013 C   0  0  0  0  0  0  0  0  0  0  0  0
    0.0843    3.5165    0.1156 O   0  0  0  0  0  0  0  0  0  0  0  0
   -2.0754    2.8300    0.1380 O   0  0  0  0  0  0  0  0  0  0  0  0
    1.0985   -1.1711   -0.0118 C   0  0  0  0  0  0  0  0  0  0  0  0
   -0.8182   -2.1342    0.0002 H   0  0  0  0  0  0  0  0  0  0  0  0
   -2.6918   -0.8914   -0.0113 H   0  0  0  0  0  0  0  0  0  0  0  0
    2.8416    0.0970   -0.0186 H   0  0  0  0  0  0  0  0  0  0  0  0
    0.9601    3.0621    0.0881 H   0  0  0  0  0  0  0  0  0  0  0  0
    1.6614   -2.0987   -0.0376 H   0  0  0  0  0  0  0  0  0  0  0  0
  1  2  2  0  0  0  0
  1  3  1  0  0  0  0
  1  4  1  0  0  0  0
  2  5  1  0  0  0  0
  2  6  1  0  0  0  0
  3  7  2  0  0  0  0
  4  8  1  0  0  0  0
  4  9  2  0  0  0  0
  5 10  2  0  0  0  0
  5 11  1  0  0  0  0
  6 12  1  0  0  0  0
  7 10  1  0  0  0  0
  7 13  1  0  0  0  0
  8 14  1  0  0  0  0
 10 15  1  0  0  0  0
M  END
>  <Mol_ID>
3610

>  <Formula>
C6H5NO3

>  <MolWeight>
139.1088

>  <Cat>
S6252

>  <Name>
3-Hydroxypicolinic acid

>  <Synonyms>
N/A

>  <Target>
Others

>  <Form>
free base

>  <CAS>
874-24-8

>  <URL>
http://www.selleck.cn/products/3-hydroxypicolinic-acid.html

$$$$
