3-Isomangostin
 OpenBabel08302521453D

 56 59  0  0  0  0  0  0  0  0999 V2000
    1.0853    0.1443   -0.3948 C   0  0  0  0  0  0  0  0  0  0  0  0
    0.0796    0.2644    0.7185 C   0  0  0  0  0  0  0  0  0  0  0  0
   -0.1141    1.3609    1.4721 C   0  0  0  0  0  0  0  0  0  0  0  0
   -1.0074    1.2798    2.6744 C   0  0  0  0  0  0  0  0  0  0  0  0
    0.6066    2.6521    1.2022 C   0  0  0  0  0  0  0  0  0  0  0  0
   -0.1006    1.5406   -2.7989 O   0  0  0  0  0  0  0  0  0  0  0  0
    1.6409   -2.3625    0.4531 O   0  0  0  0  0  0  0  0  0  0  0  0
    1.9932   -3.5723    1.0910 C   0  0  0  0  0  0  0  0  0  0  0  0
    0.8592   -4.8017   -1.2199 O   0  0  0  0  0  0  0  0  0  0  0  0
   -2.0898    2.4685   -4.8213 O   0  0  0  0  0  0  0  0  0  0  0  0
   -3.0079   -1.5117   -9.6780 C   0  0  0  0  0  0  0  0  0  0  0  0
   -4.8937   -1.9146   -8.0422 C   0  0  0  0  0  0  0  0  0  0  0  0
    0.1873   -0.8599   -2.5580 C   0  0  0  0  0  0  0  0  0  0  0  0
    0.0195   -2.0300   -3.2812 C   0  0  0  0  0  0  0  0  0  0  0  0
    0.7984   -1.0276   -1.3039 C   0  0  0  0  0  0  0  0  0  0  0  0
   -0.3879    0.4205   -3.1895 C   0  0  0  0  0  0  0  0  0  0  0  0
   -0.5256   -2.0296   -4.5081 O   0  0  0  0  0  0  0  0  0  0  0  0
    0.3044   -3.3118   -2.8394 C   0  0  0  0  0  0  0  0  0  0  0  0
    1.1057   -2.3591   -0.7993 C   0  0  0  0  0  0  0  0  0  0  0  0
   -1.4105    0.2049   -4.2976 C   0  0  0  0  0  0  0  0  0  0  0  0
   -1.5589   -1.1418   -4.6108 C   0  0  0  0  0  0  0  0  0  0  0  0
    0.7972   -3.4850   -1.5772 C   0  0  0  0  0  0  0  0  0  0  0  0
   -2.2247    1.1231   -5.0214 C   0  0  0  0  0  0  0  0  0  0  0  0
   -2.5520   -1.6550   -5.3617 C   0  0  0  0  0  0  0  0  0  0  0  0
   -3.0449    0.6365   -6.0664 C   0  0  0  0  0  0  0  0  0  0  0  0
   -3.0289   -0.7437   -6.2413 C   0  0  0  0  0  0  0  0  0  0  0  0
   -3.9618    1.3023   -7.0709 C   0  0  0  0  0  0  0  0  0  0  0  0
   -2.7072   -1.1929   -7.4920 O   0  0  0  0  0  0  0  0  0  0  0  0
   -4.0673    0.5388   -8.4551 C   0  0  0  0  0  0  0  0  0  0  0  0
   -3.7317   -0.9820   -8.4265 C   0  0  0  0  0  0  0  0  0  0  0  0
    2.0738   -0.0165    0.0551 H   0  0  0  0  0  0  0  0  0  0  0  0
    1.1959    1.0677   -0.9645 H   0  0  0  0  0  0  0  0  0  0  0  0
   -0.4666   -0.6423    0.9752 H   0  0  0  0  0  0  0  0  0  0  0  0
   -0.5800    0.5825    3.4031 H   0  0  0  0  0  0  0  0  0  0  0  0
   -1.1134    2.2490    3.1680 H   0  0  0  0  0  0  0  0  0  0  0  0
   -2.0075    0.9300    2.3986 H   0  0  0  0  0  0  0  0  0  0  0  0
    1.6673    2.5471    1.4416 H   0  0  0  0  0  0  0  0  0  0  0  0
    0.5017    2.9452    0.1534 H   0  0  0  0  0  0  0  0  0  0  0  0
    0.1981    3.4707    1.8029 H   0  0  0  0  0  0  0  0  0  0  0  0
    1.1227   -4.2202    1.2425 H   0  0  0  0  0  0  0  0  0  0  0  0
    2.7979   -4.0812    0.5484 H   0  0  0  0  0  0  0  0  0  0  0  0
    2.3897   -3.3205    2.0773 H   0  0  0  0  0  0  0  0  0  0  0  0
    1.6764   -4.9694   -0.7404 H   0  0  0  0  0  0  0  0  0  0  0  0
   -2.9687    2.8692   -4.7281 H   0  0  0  0  0  0  0  0  0  0  0  0
   -2.2956   -2.3092   -9.3964 H   0  0  0  0  0  0  0  0  0  0  0  0
   -3.6760   -1.9296  -10.4298 H   0  0  0  0  0  0  0  0  0  0  0  0
   -2.3822   -0.7375  -10.1356 H   0  0  0  0  0  0  0  0  0  0  0  0
   -5.6770   -1.3737   -7.5017 H   0  0  0  0  0  0  0  0  0  0  0  0
   -5.3495   -2.3934   -8.9109 H   0  0  0  0  0  0  0  0  0  0  0  0
   -4.5555   -2.7216   -7.3728 H   0  0  0  0  0  0  0  0  0  0  0  0
    0.0699   -4.1608   -3.4808 H   0  0  0  0  0  0  0  0  0  0  0  0
   -2.5386   -2.7081   -5.6284 H   0  0  0  0  0  0  0  0  0  0  0  0
   -3.6899    2.3481   -7.2494 H   0  0  0  0  0  0  0  0  0  0  0  0
   -4.9703    1.3109   -6.6306 H   0  0  0  0  0  0  0  0  0  0  0  0
   -3.3663    1.0391   -9.1338 H   0  0  0  0  0  0  0  0  0  0  0  0
   -5.0633    0.6891   -8.8932 H   0  0  0  0  0  0  0  0  0  0  0  0
  1  2  1  0  0  0  0
  1 15  1  0  0  0  0
  1 31  1  0  0  0  0
  1 32  1  0  0  0  0
  2  3  2  0  0  0  0
  2 33  1  0  0  0  0
  3  4  1  0  0  0  0
  3  5  1  0  0  0  0
  4 34  1  0  0  0  0
  4 35  1  0  0  0  0
  4 36  1  0  0  0  0
  5 37  1  0  0  0  0
  5 38  1  0  0  0  0
  5 39  1  0  0  0  0
  6 16  2  0  0  0  0
  7  8  1  0  0  0  0
  7 19  1  0  0  0  0
  8 40  1  0  0  0  0
  8 41  1  0  0  0  0
  8 42  1  0  0  0  0
  9 22  1  0  0  0  0
  9 43  1  0  0  0  0
 10 23  1  0  0  0  0
 10 44  1  0  0  0  0
 11 30  1  0  0  0  0
 11 45  1  0  0  0  0
 11 46  1  0  0  0  0
 11 47  1  0  0  0  0
 12 30  1  0  0  0  0
 12 48  1  0  0  0  0
 12 49  1  0  0  0  0
 12 50  1  0  0  0  0
 13 14  1  0  0  0  0
 13 15  2  0  0  0  0
 13 16  1  0  0  0  0
 14 17  1  0  0  0  0
 14 18  2  0  0  0  0
 15 19  1  0  0  0  0
 16 20  1  0  0  0  0
 17 21  1  0  0  0  0
 18 22  1  0  0  0  0
 18 51  1  0  0  0  0
 19 22  2  0  0  0  0
 20 21  2  0  0  0  0
 20 23  1  0  0  0  0
 21 24  1  0  0  0  0
 23 25  2  0  0  0  0
 24 26  2  0  0  0  0
 24 52  1  0  0  0  0
 25 26  1  0  0  0  0
 25 27  1  0  0  0  0
 26 28  1  0  0  0  0
 27 29  1  0  0  0  0
 27 53  1  0  0  0  0
 27 54  1  0  0  0  0
 28 30  1  0  0  0  0
 29 30  1  0  0  0  0
 29 55  1  0  0  0  0
 29 56  1  0  0  0  0
M  END
>  <Mol_ID>
9596

>  <Formula>
C24H26O6

>  <MolWeight>
410.45964

>  <Cat>
E2058

>  <Name>
3-Isomangostin

>  <Synonyms>
N/A

>  <Target>
MTH1

>  <Form>
free base

>  <CAS>
19275-46-8

>  <URL>
https://www.selleckchem.com/products/3-isomangostin.html

$$$$
