3-Maleimidopropionic acid
 OpenBabel08302521243D

 19 19  0  0  0  0  0  0  0  0999 V2000
    0.0563    0.8261   -0.0578 N   0  0  0  0  0  0  0  0  0  0  0  0
    0.6846    0.0354   -0.9636 C   0  0  0  0  0  0  0  0  0  0  0  0
    0.3442   -1.3533   -0.6328 C   0  0  0  0  0  0  0  0  0  0  0  0
   -0.4854   -1.3309    0.4105 C   0  0  0  0  0  0  0  0  0  0  0  0
   -0.7060    0.0726    0.7740 C   0  0  0  0  0  0  0  0  0  0  0  0
    0.8572    4.3104    1.1683 C   0  0  0  0  0  0  0  0  0  0  0  0
    0.7284    2.8186    1.2379 C   0  0  0  0  0  0  0  0  0  0  0  0
    0.1072    2.2782   -0.0456 C   0  0  0  0  0  0  0  0  0  0  0  0
    0.4294    5.0489    0.2986 O   0  0  0  0  0  0  0  0  0  0  0  0
    1.5267    4.8086    2.2259 O   0  0  0  0  0  0  0  0  0  0  0  0
   -1.4495    0.4325    1.6664 O   0  0  0  0  0  0  0  0  0  0  0  0
    1.3954    0.3511   -1.8984 O   0  0  0  0  0  0  0  0  0  0  0  0
    0.7260   -2.2021   -1.1719 H   0  0  0  0  0  0  0  0  0  0  0  0
   -0.9408   -2.1571    0.9270 H   0  0  0  0  0  0  0  0  0  0  0  0
    0.1071    2.5677    2.1039 H   0  0  0  0  0  0  0  0  0  0  0  0
    1.7236    2.3850    1.3821 H   0  0  0  0  0  0  0  0  0  0  0  0
    0.6734    2.6231   -0.9190 H   0  0  0  0  0  0  0  0  0  0  0  0
   -0.9203    2.6473   -0.1482 H   0  0  0  0  0  0  0  0  0  0  0  0
    1.5437    5.7767    2.0714 H   0  0  0  0  0  0  0  0  0  0  0  0
  1  2  1  0  0  0  0
  1  5  1  0  0  0  0
  1  8  1  0  0  0  0
  2  3  1  0  0  0  0
  2 12  2  0  0  0  0
  3  4  2  0  0  0  0
  3 13  1  0  0  0  0
  4  5  1  0  0  0  0
  4 14  1  0  0  0  0
  5 11  2  0  0  0  0
  6  7  1  0  0  0  0
  6  9  2  0  0  0  0
  6 10  1  0  0  0  0
  7  8  1  0  0  0  0
  7 15  1  0  0  0  0
  7 16  1  0  0  0  0
  8 17  1  0  0  0  0
  8 18  1  0  0  0  0
 10 19  1  0  0  0  0
M  END
>  <Mol_ID>
5098

>  <Formula>
C7H7NO4

>  <MolWeight>
169.13478

>  <Cat>
S1127

>  <Name>
3-Maleimidopropionic acid

>  <Synonyms>
N/A

>  <Target>
PROTAC Linker

>  <Form>
free base

>  <CAS>
7423-55-4

>  <URL>
http://www.selleckchem.com/products/3-maleimidopropionic-acid.html

$$$$
