3-Methoxytyramine hydrochloride
 OpenBabel08302521303D

 25 25  0  0  0  0  0  0  0  0999 V2000
    1.0044    0.0384    0.0116 C   0  0  0  0  0  0  0  0  0  0  0  0
    0.3074   -1.1705    0.0244 C   0  0  0  0  0  0  0  0  0  0  0  0
   -1.0923   -1.1450   -0.0047 C   0  0  0  0  0  0  0  0  0  0  0  0
   -1.7924    0.0733   -0.0431 C   0  0  0  0  0  0  0  0  0  0  0  0
   -1.0709    1.2726   -0.0413 C   0  0  0  0  0  0  0  0  0  0  0  0
    0.3228    1.2540   -0.0014 C   0  0  0  0  0  0  0  0  0  0  0  0
    2.3641    0.1130   -0.0722 O   0  0  0  0  0  0  0  0  0  0  0  0
    0.8771   -2.4141   -0.0434 O   0  0  0  0  0  0  0  0  0  0  0  0
    1.9393   -2.6597    0.8750 C   0  0  0  0  0  0  0  0  0  0  0  0
   -3.3030    0.0982   -0.0609 C   0  0  0  0  0  0  0  0  0  0  0  0
   -3.8740    0.2466    1.3533 C   0  0  0  0  0  0  0  0  0  0  0  0
   -5.3346    0.3127    1.3358 N   0  0  0  0  0  0  0  0  0  0  0  0
   -1.6394   -2.0852   -0.0059 H   0  0  0  0  0  0  0  0  0  0  0  0
   -1.5874    2.2297   -0.0949 H   0  0  0  0  0  0  0  0  0  0  0  0
    0.8786    2.1864   -0.0231 H   0  0  0  0  0  0  0  0  0  0  0  0
    2.6306   -0.6317   -0.6378 H   0  0  0  0  0  0  0  0  0  0  0  0
    2.8937   -2.3220    0.4629 H   0  0  0  0  0  0  0  0  0  0  0  0
    1.7576   -2.2183    1.8599 H   0  0  0  0  0  0  0  0  0  0  0  0
    2.0211   -3.7449    0.9988 H   0  0  0  0  0  0  0  0  0  0  0  0
   -3.6408    0.9262   -0.6987 H   0  0  0  0  0  0  0  0  0  0  0  0
   -3.6825   -0.8179   -0.5311 H   0  0  0  0  0  0  0  0  0  0  0  0
   -3.5660   -0.6044    1.9710 H   0  0  0  0  0  0  0  0  0  0  0  0
   -3.4832    1.1519    1.8325 H   0  0  0  0  0  0  0  0  0  0  0  0
   -5.6751    0.3892    2.2939 H   0  0  0  0  0  0  0  0  0  0  0  0
   -5.6319    1.1657    0.8629 H   0  0  0  0  0  0  0  0  0  0  0  0
  1  2  2  0  0  0  0
  1  7  1  0  0  0  0
  2  3  1  0  0  0  0
  2  8  1  0  0  0  0
  3  4  2  0  0  0  0
  3 13  1  0  0  0  0
  4  5  1  0  0  0  0
  4 10  1  0  0  0  0
  5  6  2  0  0  0  0
  5 14  1  0  0  0  0
  6  1  1  0  0  0  0
  6 15  1  0  0  0  0
  7 16  1  0  0  0  0
  8  9  1  0  0  0  0
  9 17  1  0  0  0  0
  9 18  1  0  0  0  0
  9 19  1  0  0  0  0
 10 11  1  0  0  0  0
 10 20  1  0  0  0  0
 10 21  1  0  0  0  0
 11 12  1  0  0  0  0
 11 22  1  0  0  0  0
 11 23  1  0  0  0  0
 12 24  1  0  0  0  0
 12 25  1  0  0  0  0
M  END
>  <Mol_ID>
5517

>  <Formula>
C9H14ClNO2

>  <MolWeight>
203.66596

>  <Cat>
S3370

>  <Name>
3-Methoxytyramine hydrochloride

>  <Synonyms>
3-O-methyl Dopamine hydrochloride, 3MT hydrochloride

>  <Target>
Others

>  <Form>
Hydrochloride

>  <CAS>
1477-68-5

>  <URL>
https://www.selleckchem.com/products/3-methoxytyramine-hydrochloride.html

$$$$
