3-Methylglutaric acid
 OpenBabel08302521303D

 20 19  0  0  0  0  0  0  0  0999 V2000
    0.1928   -0.1575   -1.3446 O   0  0  0  0  0  0  0  0  0  0  0  0
    0.3444   -1.1147   -0.4041 C   0  0  0  0  0  0  0  0  0  0  0  0
    1.1084   -2.3224   -0.8944 C   0  0  0  0  0  0  0  0  0  0  0  0
    0.6664   -3.6248   -0.2029 C   0  0  0  0  0  0  0  0  0  0  0  0
   -0.8299   -3.9689   -0.3557 C   0  0  0  0  0  0  0  0  0  0  0  0
   -1.2987   -4.1918   -1.7777 C   0  0  0  0  0  0  0  0  0  0  0  0
   -2.3304   -5.0611   -1.8664 O   0  0  0  0  0  0  0  0  0  0  0  0
   -0.0735   -0.9821    0.7364 O   0  0  0  0  0  0  0  0  0  0  0  0
    1.5483   -4.7912   -0.6618 C   0  0  0  0  0  0  0  0  0  0  0  0
   -0.8433   -3.6269   -2.7600 O   0  0  0  0  0  0  0  0  0  0  0  0
    0.5402   -0.4059   -2.2235 H   0  0  0  0  0  0  0  0  0  0  0  0
    1.0159   -2.4095   -1.9799 H   0  0  0  0  0  0  0  0  0  0  0  0
    2.1683   -2.1302   -0.6856 H   0  0  0  0  0  0  0  0  0  0  0  0
    0.8448   -3.4999    0.8746 H   0  0  0  0  0  0  0  0  0  0  0  0
   -1.0201   -4.8828    0.2219 H   0  0  0  0  0  0  0  0  0  0  0  0
   -1.4591   -3.1834    0.0761 H   0  0  0  0  0  0  0  0  0  0  0  0
   -2.6345   -5.4154   -1.0095 H   0  0  0  0  0  0  0  0  0  0  0  0
    2.6058   -4.5710   -0.4819 H   0  0  0  0  0  0  0  0  0  0  0  0
    1.3013   -5.7032   -0.1097 H   0  0  0  0  0  0  0  0  0  0  0  0
    1.4257   -4.9965   -1.7299 H   0  0  0  0  0  0  0  0  0  0  0  0
  1  2  1  0  0  0  0
  1 11  1  0  0  0  0
  2  3  1  0  0  0  0
  2  8  2  0  0  0  0
  3  4  1  0  0  0  0
  3 12  1  0  0  0  0
  3 13  1  0  0  0  0
  4  5  1  0  0  0  0
  4  9  1  0  0  0  0
  4 14  1  0  0  0  0
  5  6  1  0  0  0  0
  5 15  1  0  0  0  0
  5 16  1  0  0  0  0
  6  7  1  0  0  0  0
  6 10  2  0  0  0  0
  7 17  1  0  0  0  0
  9 18  1  0  0  0  0
  9 19  1  0  0  0  0
  9 20  1  0  0  0  0
M  END
>  <Mol_ID>
5505

>  <Formula>
C6H10O4

>  <MolWeight>
146.1412

>  <Cat>
S3347

>  <Name>
3-Methylglutaric acid

>  <Synonyms>
MGA, 3MG acid

>  <Target>
Others

>  <Form>
Free Base

>  <CAS>
626-51-7

>  <URL>
https://www.selleckchem.com/products/3-methylglutaric-acid.html

$$$$
