3-Methyl-2-buten-1-ol
 OpenBabel08302521293D

 16 15  0  0  0  0  0  0  0  0999 V2000
    0.9058   -0.1191    0.0110 O   0  0  0  0  0  0  0  0  0  0  0  0
    1.7515    2.7250    1.7891 C   0  0  0  0  0  0  0  0  0  0  0  0
    0.9756    1.6431    1.5807 C   0  0  0  0  0  0  0  0  0  0  0  0
    2.2452    3.0766    3.1655 C   0  0  0  0  0  0  0  0  0  0  0  0
    2.1772    3.6547    0.6874 C   0  0  0  0  0  0  0  0  0  0  0  0
    0.4087    1.1829    0.2763 C   0  0  0  0  0  0  0  0  0  0  0  0
    1.8757   -0.0568    0.0498 H   0  0  0  0  0  0  0  0  0  0  0  0
    0.7028    1.0171    2.4293 H   0  0  0  0  0  0  0  0  0  0  0  0
    3.3400    3.0799    3.1860 H   0  0  0  0  0  0  0  0  0  0  0  0
    1.8877    4.0707    3.4536 H   0  0  0  0  0  0  0  0  0  0  0  0
    1.9002    2.3664    3.9244 H   0  0  0  0  0  0  0  0  0  0  0  0
    2.7605    3.1183   -0.0680 H   0  0  0  0  0  0  0  0  0  0  0  0
    1.3057    4.1158    0.2114 H   0  0  0  0  0  0  0  0  0  0  0  0
    2.8065    4.4649    1.0710 H   0  0  0  0  0  0  0  0  0  0  0  0
    0.6685    1.8301   -0.5653 H   0  0  0  0  0  0  0  0  0  0  0  0
   -0.6822    1.1298    0.3398 H   0  0  0  0  0  0  0  0  0  0  0  0
  1  6  1  0  0  0  0
  1  7  1  0  0  0  0
  2  3  2  0  0  0  0
  2  4  1  0  0  0  0
  2  5  1  0  0  0  0
  3  6  1  0  0  0  0
  3  8  1  0  0  0  0
  4  9  1  0  0  0  0
  4 10  1  0  0  0  0
  4 11  1  0  0  0  0
  5 12  1  0  0  0  0
  5 13  1  0  0  0  0
  5 14  1  0  0  0  0
  6 15  1  0  0  0  0
  6 16  1  0  0  0  0
M  END
>  <Mol_ID>
5457

>  <Formula>
C5H10O

>  <MolWeight>
86.1323

>  <Cat>
S3123

>  <Name>
3-Methyl-2-buten-1-ol

>  <Synonyms>
Prenol, Prenyl alcohol, Dimethylallyl alcohol

>  <Target>
Others

>  <Form>
Free Base

>  <CAS>
556-82-1

>  <URL>
https://www.selleckchem.com/products/3-methyl-2-buten-1-ol.html

$$$$
