3-Methyl-2-cyclopenten-1-one
 OpenBabel08302521363D

 15 15  0  0  0  0  0  0  0  0999 V2000
    2.5938    0.6249    0.0133 C   0  0  0  0  0  0  0  0  0  0  0  0
   -2.2146    0.5266   -0.0136 O   0  0  0  0  0  0  0  0  0  0  0  0
    0.1045    0.9842    0.0022 C   0  0  0  0  0  0  0  0  0  0  0  0
    1.1725    0.1801   -0.0025 C   0  0  0  0  0  0  0  0  0  0  0  0
   -1.0697    0.1029    0.0004 C   0  0  0  0  0  0  0  0  0  0  0  0
    0.8424   -1.2831   -0.0305 C   0  0  0  0  0  0  0  0  0  0  0  0
   -0.6799   -1.3446    0.0373 C   0  0  0  0  0  0  0  0  0  0  0  0
    3.1064    0.2273    0.8950 H   0  0  0  0  0  0  0  0  0  0  0  0
    3.1152    0.2713   -0.8815 H   0  0  0  0  0  0  0  0  0  0  0  0
    2.6743    1.7166    0.0421 H   0  0  0  0  0  0  0  0  0  0  0  0
    0.0507    2.0582    0.0142 H   0  0  0  0  0  0  0  0  0  0  0  0
    1.2085   -1.7460   -0.9537 H   0  0  0  0  0  0  0  0  0  0  0  0
    1.2907   -1.8106    0.8178 H   0  0  0  0  0  0  0  0  0  0  0  0
   -1.0208   -1.7962    0.9735 H   0  0  0  0  0  0  0  0  0  0  0  0
   -1.1014   -1.8771   -0.8193 H   0  0  0  0  0  0  0  0  0  0  0  0
  1  4  1  0  0  0  0
  1  8  1  0  0  0  0
  1  9  1  0  0  0  0
  1 10  1  0  0  0  0
  2  5  2  0  0  0  0
  3  4  2  0  0  0  0
  3  5  1  0  0  0  0
  3 11  1  0  0  0  0
  4  6  1  0  0  0  0
  5  7  1  0  0  0  0
  6  7  1  0  0  0  0
  6 12  1  0  0  0  0
  6 13  1  0  0  0  0
  7 14  1  0  0  0  0
  7 15  1  0  0  0  0
M  END
>  <Mol_ID>
7189

>  <Formula>
C6H8O

>  <MolWeight>
96.12712

>  <Cat>
E4189

>  <Name>
3-Methyl-2-cyclopenten-1-one

>  <Target>
Others

>  <Form>
Free base

>  <CAS>
2758-18-1

>  <URL>
https://www.selleckchem.com/products/3-methyl-2-cyclopenten-1-one.html

$$$$
