3-Methoxybenzoic acid
 OpenBabel08302520383D

 19 19  0  0  0  0  0  0  0  0999 V2000
    1.4364   -0.1989    0.0688 C   0  0  0  0  0  0  0  0  0  0  0  0
    0.5783   -1.3104    0.0609 C   0  0  0  0  0  0  0  0  0  0  0  0
    0.9095    1.0976    0.0282 C   0  0  0  0  0  0  0  0  0  0  0  0
    2.8994   -0.4587    0.0740 C   0  0  0  0  0  0  0  0  0  0  0  0
   -0.8034   -1.1277    0.0389 C   0  0  0  0  0  0  0  0  0  0  0  0
   -0.4740    1.2797    0.0120 C   0  0  0  0  0  0  0  0  0  0  0  0
    3.6253    0.4847    0.7088 O   0  0  0  0  0  0  0  0  0  0  0  0
    3.3921   -1.4602   -0.4155 O   0  0  0  0  0  0  0  0  0  0  0  0
   -1.3215    0.1707    0.0201 C   0  0  0  0  0  0  0  0  0  0  0  0
   -1.7448   -2.1198    0.0303 O   0  0  0  0  0  0  0  0  0  0  0  0
   -1.2665   -3.4603    0.0269 C   0  0  0  0  0  0  0  0  0  0  0  0
    1.0199   -2.3026    0.0659 H   0  0  0  0  0  0  0  0  0  0  0  0
    1.5518    1.9719   -0.0242 H   0  0  0  0  0  0  0  0  0  0  0  0
   -0.8960    2.2813   -0.0223 H   0  0  0  0  0  0  0  0  0  0  0  0
    3.1082    1.1340    1.2185 H   0  0  0  0  0  0  0  0  0  0  0  0
   -2.3999    0.3164   -0.0021 H   0  0  0  0  0  0  0  0  0  0  0  0
   -0.6934   -3.6718   -0.8820 H   0  0  0  0  0  0  0  0  0  0  0  0
   -0.6771   -3.6714    0.9253 H   0  0  0  0  0  0  0  0  0  0  0  0
   -2.1353   -4.1253    0.0363 H   0  0  0  0  0  0  0  0  0  0  0  0
  1  2  2  0  0  0  0
  1  3  1  0  0  0  0
  1  4  1  0  0  0  0
  2  5  1  0  0  0  0
  2 12  1  0  0  0  0
  3  6  2  0  0  0  0
  3 13  1  0  0  0  0
  4  7  1  0  0  0  0
  4  8  2  0  0  0  0
  5  9  2  0  0  0  0
  5 10  1  0  0  0  0
  6  9  1  0  0  0  0
  6 14  1  0  0  0  0
  7 15  1  0  0  0  0
  9 16  1  0  0  0  0
 10 11  1  0  0  0  0
 11 17  1  0  0  0  0
 11 18  1  0  0  0  0
 11 19  1  0  0  0  0
M  END
>  <Mol_ID>
3515

>  <Formula>
C8H8O3

>  <MolWeight>
152.14732

>  <Cat>
S6025

>  <Name>
3-Methoxybenzoic acid

>  <Synonyms>
m-Anisic acid, 3-Methoxybenzoate, 3-Anisic acid, m-Methylsalicylic acid

>  <Target>
Others

>  <Form>
free base

>  <CAS>
586-38-9

>  <URL>
http://www.selleck.cn/products/3-methoxybenzoic-acid.html

$$$$
