3-Methylxanthine
 OpenBabel08302521253D

 18 19  0  0  0  0  0  0  0  0999 V2000
    1.0204   -0.0424   -0.0393 O   0  0  0  0  0  0  0  0  0  0  0  0
    4.9509    2.2302   -0.0550 O   0  0  0  0  0  0  0  0  0  0  0  0
    5.1036   -0.0831   -0.0554 N   0  0  0  0  0  0  0  0  0  0  0  0
    2.6536   -2.5699   -0.0457 N   0  0  0  0  0  0  0  0  0  0  0  0
    3.0261    1.0600   -0.0473 N   0  0  0  0  0  0  0  0  0  0  0  0
    4.8828   -2.5245   -0.0543 N   0  0  0  0  0  0  0  0  0  0  0  0
    4.3832   -1.2582   -0.0525 C   0  0  0  0  0  0  0  0  0  0  0  0
    3.0202   -1.2573   -0.0473 C   0  0  0  0  0  0  0  0  0  0  0  0
    2.2444   -0.0728   -0.0440 C   0  0  0  0  0  0  0  0  0  0  0  0
    4.4094    1.1243   -0.0529 C   0  0  0  0  0  0  0  0  0  0  0  0
    6.5532   -0.1040   -0.0612 C   0  0  0  0  0  0  0  0  0  0  0  0
    3.8153   -3.2997   -0.0501 C   0  0  0  0  0  0  0  0  0  0  0  0
    1.7077   -2.9301   -0.0420 H   0  0  0  0  0  0  0  0  0  0  0  0
    2.5452    1.9449   -0.0452 H   0  0  0  0  0  0  0  0  0  0  0  0
    6.9073   -0.6272    0.8325 H   0  0  0  0  0  0  0  0  0  0  0  0
    6.9003   -0.6287   -0.9566 H   0  0  0  0  0  0  0  0  0  0  0  0
    6.9703    0.9065   -0.0636 H   0  0  0  0  0  0  0  0  0  0  0  0
    3.8172   -4.3821   -0.0500 H   0  0  0  0  0  0  0  0  0  0  0  0
  1  9  2  0  0  0  0
  2 10  2  0  0  0  0
  3  7  1  0  0  0  0
  3 10  1  0  0  0  0
  3 11  1  0  0  0  0
  4  8  1  0  0  0  0
  4 12  1  0  0  0  0
  4 13  1  0  0  0  0
  5  9  1  0  0  0  0
  5 10  1  0  0  0  0
  5 14  1  0  0  0  0
  6  7  1  0  0  0  0
  6 12  2  0  0  0  0
  7  8  2  0  0  0  0
  8  9  1  0  0  0  0
 11 15  1  0  0  0  0
 11 16  1  0  0  0  0
 11 17  1  0  0  0  0
 12 18  1  0  0  0  0
M  END
>  <Mol_ID>
5178

>  <Formula>
C6H6N4O2

>  <MolWeight>
166.13744

>  <Cat>
S6186

>  <Name>
3-Methylxanthine

>  <Synonyms>
3-MX

>  <Target>
PDE

>  <Form>
free base

>  <CAS>
1076-22-8

>  <URL>
http://www.selleckchem.com/products/3-methylxanthine.html

$$$$
