3-(Methylthio)propionic acid
 OpenBabel08302520393D

 15 14  0  0  0  0  0  0  0  0999 V2000
    0.8115    0.1230   -0.5050 C   0  0  0  0  0  0  0  0  0  0  0  0
    0.0610   -1.1344   -0.8677 C   0  0  0  0  0  0  0  0  0  0  0  0
   -0.7244   -1.6805    0.3126 C   0  0  0  0  0  0  0  0  0  0  0  0
    0.4390    1.2090   -1.2174 O   0  0  0  0  0  0  0  0  0  0  0  0
    1.6985    0.1625    0.3346 O   0  0  0  0  0  0  0  0  0  0  0  0
   -2.1525   -0.6155    0.7038 S   0  0  0  0  0  0  0  0  0  0  0  0
   -2.7659   -1.5122    2.1531 C   0  0  0  0  0  0  0  0  0  0  0  0
   -0.5816   -0.9743   -1.7386 H   0  0  0  0  0  0  0  0  0  0  0  0
    0.8159   -1.8666   -1.1846 H   0  0  0  0  0  0  0  0  0  0  0  0
   -1.1107   -2.6716    0.0535 H   0  0  0  0  0  0  0  0  0  0  0  0
   -0.0877   -1.7779    1.1981 H   0  0  0  0  0  0  0  0  0  0  0  0
   -0.3238    1.0577   -1.8069 H   0  0  0  0  0  0  0  0  0  0  0  0
   -2.9612   -2.5565    1.8963 H   0  0  0  0  0  0  0  0  0  0  0  0
   -2.0409   -1.4637    2.9702 H   0  0  0  0  0  0  0  0  0  0  0  0
   -3.7007   -1.0568    2.4900 H   0  0  0  0  0  0  0  0  0  0  0  0
  1  2  1  0  0  0  0
  1  4  1  0  0  0  0
  1  5  2  0  0  0  0
  2  3  1  0  0  0  0
  2  8  1  0  0  0  0
  2  9  1  0  0  0  0
  3  6  1  0  0  0  0
  3 10  1  0  0  0  0
  3 11  1  0  0  0  0
  4 12  1  0  0  0  0
  6  7  1  0  0  0  0
  7 13  1  0  0  0  0
  7 14  1  0  0  0  0
  7 15  1  0  0  0  0
M  END
>  <Mol_ID>
3670

>  <Formula>
C4H8O2S

>  <MolWeight>
120.17012

>  <Cat>
S6341

>  <Name>
3-(Methylthio)propionic acid

>  <Synonyms>
3-methylthiopropionate, 4-Thiapentanoic acid, 3-Methylsulfanylpropionic acid

>  <Target>
Others

>  <Form>
free base

>  <CAS>
646-01-5

>  <URL>
http://www.selleck.cn/products/methylthio-propionic-acid.html

$$$$
