3-Methylvaleric acid
 OpenBabel08302520393D

 20 19  0  0  0  0  0  0  0  0999 V2000
    1.1320    0.0082   -0.1454 C   0  0  0  0  0  0  0  0  0  0  0  0
    0.3640   -0.7546    0.9107 C   0  0  0  0  0  0  0  0  0  0  0  0
   -0.5776    0.1399    1.7383 C   0  0  3  0  0  0  0  0  0  0  0  0
   -1.6588    0.8545    0.9008 C   0  0  0  0  0  0  0  0  0  0  0  0
   -2.6082   -0.0626    0.1422 C   0  0  0  0  0  0  0  0  0  0  0  0
    1.4988    1.1682   -0.0418 O   0  0  0  0  0  0  0  0  0  0  0  0
    1.4290   -0.7442   -1.2313 O   0  0  0  0  0  0  0  0  0  0  0  0
   -1.2089   -0.6803    2.8677 C   0  0  0  0  0  0  0  0  0  0  0  0
   -0.2072   -1.5646    0.4441 H   0  0  0  0  0  0  0  0  0  0  0  0
    1.1101   -1.2194    1.5664 H   0  0  0  0  0  0  0  0  0  0  0  0
    0.0287    0.9255    2.2094 H   0  0  0  0  0  0  0  0  0  0  0  0
   -2.2540    1.4944    1.5651 H   0  0  0  0  0  0  0  0  0  0  0  0
   -1.1803    1.5317    0.1835 H   0  0  0  0  0  0  0  0  0  0  0  0
   -3.2041   -0.6746    0.8255 H   0  0  0  0  0  0  0  0  0  0  0  0
   -3.3037    0.5351   -0.4557 H   0  0  0  0  0  0  0  0  0  0  0  0
   -2.0719   -0.7253   -0.5423 H   0  0  0  0  0  0  0  0  0  0  0  0
    1.1018   -1.6613   -1.1871 H   0  0  0  0  0  0  0  0  0  0  0  0
   -0.4363   -1.0896    3.5272 H   0  0  0  0  0  0  0  0  0  0  0  0
   -1.8712   -0.0571    3.4775 H   0  0  0  0  0  0  0  0  0  0  0  0
   -1.7929   -1.5214    2.4803 H   0  0  0  0  0  0  0  0  0  0  0  0
  1  2  1  0  0  0  0
  1  6  2  0  0  0  0
  1  7  1  0  0  0  0
  2  3  1  0  0  0  0
  2  9  1  0  0  0  0
  2 10  1  0  0  0  0
  3  4  1  0  0  0  0
  3  8  1  0  0  0  0
  3 11  1  0  0  0  0
  4  5  1  0  0  0  0
  4 12  1  0  0  0  0
  4 13  1  0  0  0  0
  5 14  1  0  0  0  0
  5 15  1  0  0  0  0
  5 16  1  0  0  0  0
  7 17  1  0  0  0  0
  8 18  1  0  0  0  0
  8 19  1  0  0  0  0
  8 20  1  0  0  0  0
M  END
>  <Mol_ID>
3556

>  <Formula>
C6H12O2

>  <MolWeight>
116.15828

>  <Cat>
S6089

>  <Name>
3-Methylvaleric acid

>  <Synonyms>
N/A

>  <Target>
Others

>  <Form>
free base

>  <CAS>
105-43-1

>  <URL>
http://www.selleck.cn/products/3-methylvaleric-acid.html

$$$$
