3-Methoxyflavone
 OpenBabel08302521373D

 31 33  0  0  0  0  0  0  0  0999 V2000
    1.0137    0.0711   -0.0143 O   0  0  0  0  0  0  0  0  0  0  0  0
    0.3171    1.3086    0.0245 C   0  0  0  0  0  0  0  0  0  0  0  0
    2.7273    2.4807    0.1290 O   0  0  0  0  0  0  0  0  0  0  0  0
    3.0903   -1.0678    0.0152 C   0  0  0  0  0  0  0  0  0  0  0  0
    2.4017    0.0926    0.0385 C   0  0  0  0  0  0  0  0  0  0  0  0
    4.4655   -1.1989    0.0829 O   0  0  0  0  0  0  0  0  0  0  0  0
    3.2124    1.3546    0.1004 C   0  0  0  0  0  0  0  0  0  0  0  0
    5.2278   -0.0648    0.1103 C   0  0  0  0  0  0  0  0  0  0  0  0
    4.6775    1.2092    0.1073 C   0  0  0  0  0  0  0  0  0  0  0  0
    6.6140   -0.2261    0.1285 C   0  0  0  0  0  0  0  0  0  0  0  0
    5.5094    2.3361    0.1043 C   0  0  0  0  0  0  0  0  0  0  0  0
    7.4474    0.8943    0.1274 C   0  0  0  0  0  0  0  0  0  0  0  0
    6.8956    2.1756    0.1106 C   0  0  0  0  0  0  0  0  0  0  0  0
    2.4174   -2.3706   -0.1301 C   0  0  0  0  0  0  0  0  0  0  0  0
    2.1942   -2.8963   -1.4106 C   0  0  0  0  0  0  0  0  0  0  0  0
    2.0223   -3.1111    0.9901 C   0  0  0  0  0  0  0  0  0  0  0  0
    1.5867   -4.1436   -1.5679 C   0  0  0  0  0  0  0  0  0  0  0  0
    1.4157   -4.3611    0.8291 C   0  0  0  0  0  0  0  0  0  0  0  0
    1.1990   -4.8765   -0.4478 C   0  0  0  0  0  0  0  0  0  0  0  0
    0.5258    1.8556    0.9493 H   0  0  0  0  0  0  0  0  0  0  0  0
    0.5358    1.9084   -0.8643 H   0  0  0  0  0  0  0  0  0  0  0  0
   -0.7545    1.0875    0.0148 H   0  0  0  0  0  0  0  0  0  0  0  0
    7.0458   -1.2239    0.1367 H   0  0  0  0  0  0  0  0  0  0  0  0
    5.0808    3.3359    0.0908 H   0  0  0  0  0  0  0  0  0  0  0  0
    8.5275    0.7685    0.1351 H   0  0  0  0  0  0  0  0  0  0  0  0
    7.5434    3.0491    0.1029 H   0  0  0  0  0  0  0  0  0  0  0  0
    2.4966   -2.3368   -2.2931 H   0  0  0  0  0  0  0  0  0  0  0  0
    2.1885   -2.7211    1.9925 H   0  0  0  0  0  0  0  0  0  0  0  0
    1.4182   -4.5436   -2.5641 H   0  0  0  0  0  0  0  0  0  0  0  0
    1.1136   -4.9322    1.7039 H   0  0  0  0  0  0  0  0  0  0  0  0
    0.7280   -5.8476   -0.5678 H   0  0  0  0  0  0  0  0  0  0  0  0
  1  2  1  0  0  0  0
  1  5  1  0  0  0  0
  2 20  1  0  0  0  0
  2 21  1  0  0  0  0
  2 22  1  0  0  0  0
  3  7  2  0  0  0  0
  4  5  2  0  0  0  0
  4  6  1  0  0  0  0
  4 14  1  0  0  0  0
  5  7  1  0  0  0  0
  6  8  1  0  0  0  0
  7  9  1  0  0  0  0
  8  9  2  0  0  0  0
  8 10  1  0  0  0  0
  9 11  1  0  0  0  0
 10 12  2  0  0  0  0
 10 23  1  0  0  0  0
 11 13  2  0  0  0  0
 11 24  1  0  0  0  0
 12 13  1  0  0  0  0
 12 25  1  0  0  0  0
 13 26  1  0  0  0  0
 14 15  2  0  0  0  0
 14 16  1  0  0  0  0
 15 17  1  0  0  0  0
 15 27  1  0  0  0  0
 16 18  2  0  0  0  0
 16 28  1  0  0  0  0
 17 19  2  0  0  0  0
 17 29  1  0  0  0  0
 18 19  1  0  0  0  0
 18 30  1  0  0  0  0
 19 31  1  0  0  0  0
M  END
>  <Mol_ID>
7426

>  <Formula>
C16H12O3

>  <MolWeight>
252.26468

>  <Cat>
E4526

>  <Name>
3-Methoxyflavone

>  <Synonyms>
3-Methoxyflavone

>  <Target>
Antiviral

>  <Form>
Free base

>  <CAS>
7245-02-5

>  <URL>
https://www.selleckchem.com/products/3-methoxyflavone.html

$$$$
