3-Methyladipic acid
 OpenBabel08302520383D

 23 22  0  0  0  0  0  0  0  0999 V2000
    1.0177   -0.0099   -0.1272 C   0  0  3  0  0  0  0  0  0  0  0  0
    0.4940    0.6954    1.1425 C   0  0  0  0  0  0  0  0  0  0  0  0
    0.5686    0.7839   -1.3697 C   0  0  0  0  0  0  0  0  0  0  0  0
    0.5296   -1.4630   -0.2024 C   0  0  0  0  0  0  0  0  0  0  0  0
    0.9442    0.0336    2.4475 C   0  0  0  0  0  0  0  0  0  0  0  0
    1.1194    0.2242   -2.6635 C   0  0  0  0  0  0  0  0  0  0  0  0
    0.4390    0.7754    3.6636 C   0  0  0  0  0  0  0  0  0  0  0  0
    0.3008    0.4308   -3.7194 O   0  0  0  0  0  0  0  0  0  0  0  0
    2.1995   -0.3349   -2.7760 O   0  0  0  0  0  0  0  0  0  0  0  0
    0.8477    0.1987    4.8182 O   0  0  0  0  0  0  0  0  0  0  0  0
   -0.2684    1.7692    3.6420 O   0  0  0  0  0  0  0  0  0  0  0  0
    2.1149   -0.0212   -0.0924 H   0  0  0  0  0  0  0  0  0  0  0  0
    0.8371    1.7388    1.1377 H   0  0  0  0  0  0  0  0  0  0  0  0
   -0.6033    0.7361    1.1158 H   0  0  0  0  0  0  0  0  0  0  0  0
   -0.5269    0.7914   -1.4122 H   0  0  0  0  0  0  0  0  0  0  0  0
    0.9111    1.8233   -1.3025 H   0  0  0  0  0  0  0  0  0  0  0  0
    0.8777   -1.9589   -1.1136 H   0  0  0  0  0  0  0  0  0  0  0  0
    0.9103   -2.0563    0.6339 H   0  0  0  0  0  0  0  0  0  0  0  0
   -0.5641   -1.5124   -0.1878 H   0  0  0  0  0  0  0  0  0  0  0  0
    0.5538   -0.9864    2.5126 H   0  0  0  0  0  0  0  0  0  0  0  0
    2.0385    0.0091    2.4887 H   0  0  0  0  0  0  0  0  0  0  0  0
   -0.5227    0.9081   -3.5043 H   0  0  0  0  0  0  0  0  0  0  0  0
    1.4021   -0.5937    4.6885 H   0  0  0  0  0  0  0  0  0  0  0  0
  1  2  1  0  0  0  0
  1  3  1  0  0  0  0
  1  4  1  0  0  0  0
  1 12  1  0  0  0  0
  2  5  1  0  0  0  0
  2 13  1  0  0  0  0
  2 14  1  0  0  0  0
  3  6  1  0  0  0  0
  3 15  1  0  0  0  0
  3 16  1  0  0  0  0
  4 17  1  0  0  0  0
  4 18  1  0  0  0  0
  4 19  1  0  0  0  0
  5  7  1  0  0  0  0
  5 20  1  0  0  0  0
  5 21  1  0  0  0  0
  6  8  1  0  0  0  0
  6  9  2  0  0  0  0
  7 10  1  0  0  0  0
  7 11  2  0  0  0  0
  8 22  1  0  0  0  0
 10 23  1  0  0  0  0
M  END
>  <Mol_ID>
3467

>  <Formula>
C7H12O4

>  <MolWeight>
160.16778

>  <Cat>
S6169

>  <Name>
3-Methyladipic acid

>  <Synonyms>
3-Methyladipate, ¦Â-Methyladipic acid, ¦Â-Methyladipate

>  <Target>
Others

>  <Form>
free base

>  <CAS>
3058-01-3

>  <URL>
http://www.selleck.cn/products/3-methyladipic-acid.html

$$$$
