3-Methoxysalicylaldehyde
 OpenBabel08302521363D

 19 19  0  0  0  0  0  0  0  0999 V2000
    0.9165   -0.0052   -0.0774 C   0  0  0  0  0  0  0  0  0  0  0  0
    1.7419    0.7615   -0.5631 O   0  0  0  0  0  0  0  0  0  0  0  0
    1.7440    2.1570    1.6137 O   0  0  0  0  0  0  0  0  0  0  0  0
    0.3527    2.5580    4.1861 O   0  0  0  0  0  0  0  0  0  0  0  0
    1.4793    3.3970    3.9776 C   0  0  0  0  0  0  0  0  0  0  0  0
    0.2570    0.3070    1.2057 C   0  0  0  0  0  0  0  0  0  0  0  0
    0.7002    1.3641    2.0210 C   0  0  0  0  0  0  0  0  0  0  0  0
   -0.8248   -0.4951    1.5916 C   0  0  0  0  0  0  0  0  0  0  0  0
    0.0660    1.6051    3.2465 C   0  0  0  0  0  0  0  0  0  0  0  0
   -1.4692   -0.2405    2.7975 C   0  0  0  0  0  0  0  0  0  0  0  0
   -1.0201    0.7955    3.6172 C   0  0  0  0  0  0  0  0  0  0  0  0
    0.6410   -0.9509   -0.5714 H   0  0  0  0  0  0  0  0  0  0  0  0
    1.9929    1.9071    0.6952 H   0  0  0  0  0  0  0  0  0  0  0  0
    2.4059    2.8166    3.9217 H   0  0  0  0  0  0  0  0  0  0  0  0
    1.3387    4.0384    3.1024 H   0  0  0  0  0  0  0  0  0  0  0  0
    1.5634    4.0562    4.8475 H   0  0  0  0  0  0  0  0  0  0  0  0
   -1.1801   -1.3047    0.9585 H   0  0  0  0  0  0  0  0  0  0  0  0
   -2.3181   -0.8456    3.1066 H   0  0  0  0  0  0  0  0  0  0  0  0
   -1.5229    0.9838    4.5630 H   0  0  0  0  0  0  0  0  0  0  0  0
  1  2  2  0  0  0  0
  1  6  1  0  0  0  0
  1 12  1  0  0  0  0
  3  7  1  0  0  0  0
  3 13  1  0  0  0  0
  4  5  1  0  0  0  0
  4  9  1  0  0  0  0
  5 14  1  0  0  0  0
  5 15  1  0  0  0  0
  5 16  1  0  0  0  0
  6  7  2  0  0  0  0
  6  8  1  0  0  0  0
  7  9  1  0  0  0  0
  8 10  2  0  0  0  0
  8 17  1  0  0  0  0
  9 11  2  0  0  0  0
 10 11  1  0  0  0  0
 10 18  1  0  0  0  0
 11 19  1  0  0  0  0
M  END
>  <Mol_ID>
7293

>  <Formula>
C8H8O3

>  <MolWeight>
152.14732

>  <Cat>
E4321

>  <Name>
3-Methoxysalicylaldehyde

>  <Synonyms>
3-Methoxysalicylaldehyde

>  <Target>
Others

>  <Form>
free base

>  <CAS>
148-53-8

>  <URL>
https://www.selleckchem.com/products/3-methoxysalicylaldehyde.html

$$$$
