3-Nitro-L-tyrosine
 OpenBabel08302521453D

 26 26  0  0  0  0  0  0  0  0999 V2000
   -4.2038    6.8465   -1.9020 O   0  0  0  0  0  0  0  0  0  0  0  0
    0.0485    1.0585   -0.1325 O   0  0  0  0  0  0  0  0  0  0  0  0
   -2.0162    0.6636   -0.9874 O   0  0  0  0  0  0  0  0  0  0  0  0
   -3.1354    7.2072    2.1282 O   0  5  0  0  0  0  0  0  0  0  0  0
   -3.6795    8.1994    0.2473 O   0  0  0  0  0  0  0  0  0  0  0  0
   -0.7561    2.5394    1.8110 N   0  0  0  0  0  0  0  0  0  0  0  0
   -3.4592    7.1875    0.9322 N   0  3  0  0  0  0  0  0  0  0  0  0
   -3.2243    2.1919    1.2376 C   0  0  0  0  0  0  0  0  0  0  0  0
   -1.7966    1.6167    1.2706 C   0  0  1  0  0  0  0  0  0  0  0  0
   -3.4453    3.4541    0.4336 C   0  0  0  0  0  0  0  0  0  0  0  0
   -3.3342    4.7199    1.0285 C   0  0  0  0  0  0  0  0  0  0  0  0
   -3.8172    3.3757   -0.9153 C   0  0  0  0  0  0  0  0  0  0  0  0
   -3.5822    5.8842    0.2750 C   0  0  0  0  0  0  0  0  0  0  0  0
   -4.0629    4.5322   -1.6608 C   0  0  0  0  0  0  0  0  0  0  0  0
   -3.9436    5.7895   -1.0737 C   0  0  0  0  0  0  0  0  0  0  0  0
   -1.3119    1.0767   -0.0834 C   0  0  0  0  0  0  0  0  0  0  0  0
   -4.0913    7.6908   -1.4173 H   0  0  0  0  0  0  0  0  0  0  0  0
    0.3736    1.4391    0.7188 H   0  0  0  0  0  0  0  0  0  0  0  0
   -1.1125    2.9522    2.6770 H   0  0  0  0  0  0  0  0  0  0  0  0
   -0.6657    3.3343    1.1688 H   0  0  0  0  0  0  0  0  0  0  0  0
   -3.5482    2.3844    2.2699 H   0  0  0  0  0  0  0  0  0  0  0  0
   -3.9137    1.4214    0.8667 H   0  0  0  0  0  0  0  0  0  0  0  0
   -1.8132    0.7421    1.9342 H   0  0  0  0  0  0  0  0  0  0  0  0
   -3.0748    4.7929    2.0837 H   0  0  0  0  0  0  0  0  0  0  0  0
   -3.9330    2.4073   -1.4029 H   0  0  0  0  0  0  0  0  0  0  0  0
   -4.3555    4.4466   -2.7056 H   0  0  0  0  0  0  0  0  0  0  0  0
  1 15  1  0  0  0  0
  1 17  1  0  0  0  0
  2 16  1  0  0  0  0
  2 18  1  0  0  0  0
  3 16  2  0  0  0  0
  4  7  1  0  0  0  0
  5  7  2  0  0  0  0
  6 19  1  0  0  0  0
  6 20  1  0  0  0  0
  7 13  1  0  0  0  0
  8 10  1  0  0  0  0
  8 21  1  0  0  0  0
  8 22  1  0  0  0  0
  9 16  1  0  0  0  0
  9 23  1  1  0  0  0
  9  6  1  0  0  0  0
  9  8  1  0  0  0  0
 10 11  2  0  0  0  0
 10 12  1  0  0  0  0
 11 13  1  0  0  0  0
 11 24  1  0  0  0  0
 12 14  2  0  0  0  0
 12 25  1  0  0  0  0
 13 15  2  0  0  0  0
 14 15  1  0  0  0  0
 14 26  1  0  0  0  0
M  CHG  2   4  -1   7   1
M  END
>  <Mol_ID>
9359

>  <Formula>
C9H10N2O5

>  <MolWeight>
226.1861

>  <Cat>
S6345

>  <Name>
3-Nitro-L-tyrosine

>  <Synonyms>
3-NT, N-Tyr, MNT

>  <Target>
Adrenergic Receptor

>  <Form>
free base

>  <CAS>
621-44-3

>  <URL>
http://www.selleckchem.com/products/3-nitro-l-tyrosine.html

$$$$
