3-Octanol
 OpenBabel08302521373D

 27 26  0  0  0  0  0  0  0  0999 V2000
    1.1298    0.1119    0.1176 C   0  0  3  0  0  0  0  0  0  0  0  0
    0.6575   -1.1964   -0.5331 C   0  0  0  0  0  0  0  0  0  0  0  0
    0.5540    1.3355   -0.6061 C   0  0  0  0  0  0  0  0  0  0  0  0
    2.5548    0.1702    0.0919 O   0  0  0  0  0  0  0  0  0  0  0  0
    1.1979   -2.4307    0.2006 C   0  0  0  0  0  0  0  0  0  0  0  0
    1.0040    2.6481    0.0233 C   0  0  0  0  0  0  0  0  0  0  0  0
    0.6801   -3.7595   -0.3598 C   0  0  0  0  0  0  0  0  0  0  0  0
    1.1173   -4.0297   -1.8004 C   0  0  0  0  0  0  0  0  0  0  0  0
    0.6704   -5.4068   -2.2680 C   0  0  0  0  0  0  0  0  0  0  0  0
    0.8206    0.1314    1.1688 H   0  0  0  0  0  0  0  0  0  0  0  0
   -0.4382   -1.2282   -0.5452 H   0  0  0  0  0  0  0  0  0  0  0  0
    1.0014   -1.2195   -1.5738 H   0  0  0  0  0  0  0  0  0  0  0  0
    0.8753    1.3340   -1.6548 H   0  0  0  0  0  0  0  0  0  0  0  0
   -0.5412    1.2912   -0.5969 H   0  0  0  0  0  0  0  0  0  0  0  0
    2.8362    0.1556   -0.8385 H   0  0  0  0  0  0  0  0  0  0  0  0
    2.2935   -2.4335    0.1735 H   0  0  0  0  0  0  0  0  0  0  0  0
    0.9080   -2.3701    1.2568 H   0  0  0  0  0  0  0  0  0  0  0  0
    2.0911    2.7648   -0.0316 H   0  0  0  0  0  0  0  0  0  0  0  0
    0.5506    3.4939   -0.5031 H   0  0  0  0  0  0  0  0  0  0  0  0
    0.7045    2.7022    1.0747 H   0  0  0  0  0  0  0  0  0  0  0  0
    1.0545   -4.5666    0.2831 H   0  0  0  0  0  0  0  0  0  0  0  0
   -0.4138   -3.7857   -0.2930 H   0  0  0  0  0  0  0  0  0  0  0  0
    0.6920   -3.2789   -2.4745 H   0  0  0  0  0  0  0  0  0  0  0  0
    2.2084   -3.9600   -1.8792 H   0  0  0  0  0  0  0  0  0  0  0  0
   -0.4197   -5.5000   -2.2270 H   0  0  0  0  0  0  0  0  0  0  0  0
    0.9867   -5.5769   -3.3020 H   0  0  0  0  0  0  0  0  0  0  0  0
    1.1068   -6.1946   -1.6459 H   0  0  0  0  0  0  0  0  0  0  0  0
  1  2  1  0  0  0  0
  1  3  1  0  0  0  0
  1  4  1  0  0  0  0
  1 10  1  0  0  0  0
  2  5  1  0  0  0  0
  2 11  1  0  0  0  0
  2 12  1  0  0  0  0
  3  6  1  0  0  0  0
  3 13  1  0  0  0  0
  3 14  1  0  0  0  0
  4 15  1  0  0  0  0
  5  7  1  0  0  0  0
  5 16  1  0  0  0  0
  5 17  1  0  0  0  0
  6 18  1  0  0  0  0
  6 19  1  0  0  0  0
  6 20  1  0  0  0  0
  7  8  1  0  0  0  0
  7 21  1  0  0  0  0
  7 22  1  0  0  0  0
  8  9  1  0  0  0  0
  8 23  1  0  0  0  0
  8 24  1  0  0  0  0
  9 25  1  0  0  0  0
  9 26  1  0  0  0  0
  9 27  1  0  0  0  0
M  END
>  <Mol_ID>
7387

>  <Formula>
C8H18O

>  <MolWeight>
130.22792

>  <Cat>
E4458

>  <Name>
3-Octanol

>  <Target>
Others

>  <Form>
Free base

>  <CAS>
589-98-0

>  <URL>
https://www.selleckchem.com/products/3-octanol.html

$$$$
