3-Oxopentanedioic acid
 OpenBabel08302520383D

 16 15  0  0  0  0  0  0  0  0999 V2000
    0.7675    0.0076    0.0572 C   0  0  0  0  0  0  0  0  0  0  0  0
    0.3920    0.2577   -1.3779 C   0  0  0  0  0  0  0  0  0  0  0  0
    1.7235    0.9808    0.6886 C   0  0  0  0  0  0  0  0  0  0  0  0
   -0.4236   -0.7928   -2.0789 C   0  0  0  0  0  0  0  0  0  0  0  0
    0.6619    1.3249   -1.9432 O   0  0  0  0  0  0  0  0  0  0  0  0
    1.7417    2.2284    0.1796 O   0  0  0  0  0  0  0  0  0  0  0  0
    2.3977    0.6805    1.6659 O   0  0  0  0  0  0  0  0  0  0  0  0
   -0.1642   -0.9520   -3.5490 C   0  0  0  0  0  0  0  0  0  0  0  0
    0.3040    0.1316   -4.2011 O   0  0  0  0  0  0  0  0  0  0  0  0
   -0.4195   -1.9932   -4.1402 O   0  0  0  0  0  0  0  0  0  0  0  0
    1.2369   -0.9818    0.1056 H   0  0  0  0  0  0  0  0  0  0  0  0
   -0.1502    0.0053    0.6528 H   0  0  0  0  0  0  0  0  0  0  0  0
   -0.2178   -1.7598   -1.6071 H   0  0  0  0  0  0  0  0  0  0  0  0
   -1.4809   -0.5481   -1.9366 H   0  0  0  0  0  0  0  0  0  0  0  0
    1.2386    2.3380   -0.6602 H   0  0  0  0  0  0  0  0  0  0  0  0
    0.4740    0.9196   -3.6337 H   0  0  0  0  0  0  0  0  0  0  0  0
  1  2  1  0  0  0  0
  1  3  1  0  0  0  0
  1 11  1  0  0  0  0
  1 12  1  0  0  0  0
  2  4  1  0  0  0  0
  2  5  2  0  0  0  0
  3  6  1  0  0  0  0
  3  7  2  0  0  0  0
  4  8  1  0  0  0  0
  4 13  1  0  0  0  0
  4 14  1  0  0  0  0
  6 15  1  0  0  0  0
  8  9  1  0  0  0  0
  8 10  2  0  0  0  0
  9 16  1  0  0  0  0
M  END
>  <Mol_ID>
3531

>  <Formula>
C5H6O5

>  <MolWeight>
146.09814

>  <Cat>
S6048

>  <Name>
3-Oxopentanedioic acid

>  <Synonyms>
1,3-Acetonedicarboxylic acid; 3-Oxoglutaric acid

>  <Target>
Others

>  <Form>
free base

>  <CAS>
542-05-2

>  <URL>
http://www.selleck.cn/products/3-oxopentanedioic-acid.html

$$$$
