3-Pentanol
 OpenBabel08302521363D

 18 17  0  0  0  0  0  0  0  0999 V2000
    1.0622   -0.0131   -0.0604 C   0  0  0  0  0  0  0  0  0  0  0  0
    0.5751   -0.5446    1.2923 C   0  0  0  0  0  0  0  0  0  0  0  0
    0.5774    1.4219   -0.3025 C   0  0  0  0  0  0  0  0  0  0  0  0
    0.5862   -0.8584   -1.1057 O   0  0  0  0  0  0  0  0  0  0  0  0
    1.0637   -1.9615    1.5678 C   0  0  0  0  0  0  0  0  0  0  0  0
    1.0563    1.9773   -1.6381 C   0  0  0  0  0  0  0  0  0  0  0  0
    2.1584   -0.0391   -0.0919 H   0  0  0  0  0  0  0  0  0  0  0  0
    0.9126    0.1160    2.0993 H   0  0  0  0  0  0  0  0  0  0  0  0
   -0.5206   -0.5547    1.3100 H   0  0  0  0  0  0  0  0  0  0  0  0
   -0.5190    1.4497   -0.2965 H   0  0  0  0  0  0  0  0  0  0  0  0
    0.9284    2.0751    0.5045 H   0  0  0  0  0  0  0  0  0  0  0  0
   -0.3859   -0.8355   -1.0858 H   0  0  0  0  0  0  0  0  0  0  0  0
    2.1561   -1.9897    1.6370 H   0  0  0  0  0  0  0  0  0  0  0  0
    0.6544   -2.3227    2.5161 H   0  0  0  0  0  0  0  0  0  0  0  0
    0.7500   -2.6550    0.7827 H   0  0  0  0  0  0  0  0  0  0  0  0
    0.6709    1.3880   -2.4764 H   0  0  0  0  0  0  0  0  0  0  0  0
    0.7079    3.0073   -1.7650 H   0  0  0  0  0  0  0  0  0  0  0  0
    2.1499    1.9789   -1.6918 H   0  0  0  0  0  0  0  0  0  0  0  0
  1  2  1  0  0  0  0
  1  3  1  0  0  0  0
  1  4  1  0  0  0  0
  1  7  1  0  0  0  0
  2  5  1  0  0  0  0
  2  8  1  0  0  0  0
  2  9  1  0  0  0  0
  3  6  1  0  0  0  0
  3 10  1  0  0  0  0
  3 11  1  0  0  0  0
  4 12  1  0  0  0  0
  5 13  1  0  0  0  0
  5 14  1  0  0  0  0
  5 15  1  0  0  0  0
  6 16  1  0  0  0  0
  6 17  1  0  0  0  0
  6 18  1  0  0  0  0
M  END
>  <Mol_ID>
7079

>  <Formula>
C5H12O

>  <MolWeight>
88.14818

>  <Cat>
E4094

>  <Name>
3-Pentanol

>  <Target>
Anti-infection

>  <Form>
Free base

>  <CAS>
584-02-1

>  <URL>
https://www.selleckchem.com/products/3-pentanol.html

$$$$
