3-Phenoxybenzoic acid
 OpenBabel08302521303D

 26 27  0  0  0  0  0  0  0  0999 V2000
    1.1343    0.0504   -0.0276 O   0  0  0  0  0  0  0  0  0  0  0  0
   -0.3045    5.5302   -2.0053 O   0  0  0  0  0  0  0  0  0  0  0  0
    0.2186    3.8224   -3.3874 O   0  0  0  0  0  0  0  0  0  0  0  0
    0.4436    1.2434   -0.0584 C   0  0  0  0  0  0  0  0  0  0  0  0
    0.6186    2.1992   -1.0633 C   0  0  0  0  0  0  0  0  0  0  0  0
   -0.1912    3.3367   -1.0956 C   0  0  0  0  0  0  0  0  0  0  0  0
    1.3382   -0.6073   -1.2245 C   0  0  0  0  0  0  0  0  0  0  0  0
   -0.4618    1.4785    0.9763 C   0  0  0  0  0  0  0  0  0  0  0  0
   -1.1371    3.5483   -0.0841 C   0  0  0  0  0  0  0  0  0  0  0  0
   -1.2525    2.6300    0.9634 C   0  0  0  0  0  0  0  0  0  0  0  0
    2.5330   -1.3156   -1.3572 C   0  0  0  0  0  0  0  0  0  0  0  0
    0.4109   -0.6079   -2.2732 C   0  0  0  0  0  0  0  0  0  0  0  0
    2.8310   -1.9582   -2.5611 C   0  0  0  0  0  0  0  0  0  0  0  0
    0.7235   -1.2233   -3.4842 C   0  0  0  0  0  0  0  0  0  0  0  0
    1.9359   -1.8936   -3.6297 C   0  0  0  0  0  0  0  0  0  0  0  0
   -0.0757    4.2297   -2.2779 C   0  0  0  0  0  0  0  0  0  0  0  0
   -0.3627    5.7466   -1.0580 H   0  0  0  0  0  0  0  0  0  0  0  0
    1.3459    2.0370   -1.8570 H   0  0  0  0  0  0  0  0  0  0  0  0
   -0.5770    0.7484    1.7741 H   0  0  0  0  0  0  0  0  0  0  0  0
   -1.8188    4.3939   -0.1157 H   0  0  0  0  0  0  0  0  0  0  0  0
   -1.9836    2.7901    1.7525 H   0  0  0  0  0  0  0  0  0  0  0  0
    3.2400   -1.3544   -0.5331 H   0  0  0  0  0  0  0  0  0  0  0  0
   -0.5458   -0.1027   -2.1751 H   0  0  0  0  0  0  0  0  0  0  0  0
    3.7673   -2.4989   -2.6719 H   0  0  0  0  0  0  0  0  0  0  0  0
    0.0241   -1.1674   -4.3143 H   0  0  0  0  0  0  0  0  0  0  0  0
    2.1806   -2.3679   -4.5766 H   0  0  0  0  0  0  0  0  0  0  0  0
  1  4  1  0  0  0  0
  1  7  1  0  0  0  0
  2 16  1  0  0  0  0
  2 17  1  0  0  0  0
  3 16  2  0  0  0  0
  4  5  2  0  0  0  0
  4  8  1  0  0  0  0
  5  6  1  0  0  0  0
  5 18  1  0  0  0  0
  6  9  2  0  0  0  0
  6 16  1  0  0  0  0
  7 11  2  0  0  0  0
  7 12  1  0  0  0  0
  8 10  2  0  0  0  0
  8 19  1  0  0  0  0
  9 10  1  0  0  0  0
  9 20  1  0  0  0  0
 10 21  1  0  0  0  0
 11 13  1  0  0  0  0
 11 22  1  0  0  0  0
 12 14  2  0  0  0  0
 12 23  1  0  0  0  0
 13 15  2  0  0  0  0
 13 24  1  0  0  0  0
 14 15  1  0  0  0  0
 14 25  1  0  0  0  0
 15 26  1  0  0  0  0
M  END
>  <Mol_ID>
5611

>  <Formula>
C13H10O3

>  <MolWeight>
214.2167

>  <Cat>
S3597

>  <Name>
3-Phenoxybenzoic acid

>  <Synonyms>
3-PBA, m-phenoxybenzoic acid

>  <Target>
Others

>  <Form>
Free Base

>  <CAS>
3739-38-6

>  <URL>
http://www.selleckchem.com/products/3-phenoxybenzoic-acid.html

$$$$
