3-Pyridineacetic acid
 OpenBabel08302521373D

 17 17  0  0  0  0  0  0  0  0999 V2000
    0.8785   -0.1332    0.0661 C   0  0  0  0  0  0  0  0  0  0  0  0
    2.3416   -0.4717   -0.1166 C   0  0  0  0  0  0  0  0  0  0  0  0
    3.2137    0.0584    0.7648 O   0  0  0  0  0  0  0  0  0  0  0  0
    2.7263   -1.2006   -1.0226 O   0  0  0  0  0  0  0  0  0  0  0  0
    0.5262    0.7972    1.1948 C   0  0  0  0  0  0  0  0  0  0  0  0
    0.1783    0.3136    2.4600 C   0  0  0  0  0  0  0  0  0  0  0  0
    0.5540    2.1777    1.0192 C   0  0  0  0  0  0  0  0  0  0  0  0
   -0.1442    1.2096    3.4752 C   0  0  0  0  0  0  0  0  0  0  0  0
    0.2646    3.0655    1.9938 N   0  0  0  0  0  0  0  0  0  0  0  0
   -0.0916    2.5641    3.1957 C   0  0  0  0  0  0  0  0  0  0  0  0
    0.3378   -1.0776    0.2032 H   0  0  0  0  0  0  0  0  0  0  0  0
    0.5239    0.3078   -0.8737 H   0  0  0  0  0  0  0  0  0  0  0  0
    2.8304    0.6254    1.4613 H   0  0  0  0  0  0  0  0  0  0  0  0
    0.1401   -0.7553    2.6598 H   0  0  0  0  0  0  0  0  0  0  0  0
    0.8189    2.6266    0.0643 H   0  0  0  0  0  0  0  0  0  0  0  0
   -0.4378    0.8609    4.4596 H   0  0  0  0  0  0  0  0  0  0  0  0
   -0.3443    3.3037    3.9507 H   0  0  0  0  0  0  0  0  0  0  0  0
  1  2  1  0  0  0  0
  1  5  1  0  0  0  0
  1 11  1  0  0  0  0
  1 12  1  0  0  0  0
  2  3  1  0  0  0  0
  2  4  2  0  0  0  0
  3 13  1  0  0  0  0
  5  6  2  0  0  0  0
  5  7  1  0  0  0  0
  6  8  1  0  0  0  0
  6 14  1  0  0  0  0
  7  9  2  0  0  0  0
  7 15  1  0  0  0  0
  8 10  2  0  0  0  0
  8 16  1  0  0  0  0
  9 10  1  0  0  0  0
 10 17  1  0  0  0  0
M  END
>  <Mol_ID>
7393

>  <Formula>
C7H7NO2

>  <MolWeight>
137.13598

>  <Cat>
E4482

>  <Name>
3-Pyridineacetic acid

>  <Target>
Others

>  <Form>
Free base

>  <CAS>
501-81-5

>  <URL>
https://www.selleckchem.com/products/3-pyridineacetic-acid.html

$$$$
