3-TYP.cdx
 OpenBabel08302520433D

 17 18  0  0  0  0  0  0  0  0999 V2000
    1.4386    0.0358   -0.0148 C   0  0  0  0  0  0  0  0  0  0  0  0
    0.7226    1.2370    0.0114 C   0  0  0  0  0  0  0  0  0  0  0  0
   -0.6667    1.1395    0.0407 C   0  0  0  0  0  0  0  0  0  0  0  0
   -1.3557   -0.0310    0.0437 N   0  0  0  0  0  0  0  0  0  0  0  0
   -0.6249   -1.1642    0.0171 C   0  0  0  0  0  0  0  0  0  0  0  0
    0.7590   -1.1821   -0.0119 C   0  0  0  0  0  0  0  0  0  0  0  0
    1.3681    2.5332    0.0092 C   0  0  0  0  0  0  0  0  0  0  0  0
    0.6900    3.7260    0.0504 N   0  0  0  0  0  0  0  0  0  0  0  0
    1.5773    4.7121    0.0352 N   0  0  0  0  0  0  0  0  0  0  0  0
    2.7941    4.1550   -0.0150 N   0  0  0  0  0  0  0  0  0  0  0  0
    2.7203    2.7938   -0.0340 C   0  0  0  0  0  0  0  0  0  0  0  0
    2.5239    0.0262   -0.0369 H   0  0  0  0  0  0  0  0  0  0  0  0
   -1.2956    2.0273    0.0634 H   0  0  0  0  0  0  0  0  0  0  0  0
   -1.1982   -2.0869    0.0197 H   0  0  0  0  0  0  0  0  0  0  0  0
    1.2986   -2.1224   -0.0320 H   0  0  0  0  0  0  0  0  0  0  0  0
    3.6075    4.7597   -0.0328 H   0  0  0  0  0  0  0  0  0  0  0  0
    3.6010    2.1726   -0.0753 H   0  0  0  0  0  0  0  0  0  0  0  0
  1  2  2  0  0  0  0
  1 12  1  0  0  0  0
  2  3  1  0  0  0  0
  2  7  1  0  0  0  0
  3  4  2  0  0  0  0
  3 13  1  0  0  0  0
  4  5  1  0  0  0  0
  5  6  2  0  0  0  0
  5 14  1  0  0  0  0
  6  1  1  0  0  0  0
  6 15  1  0  0  0  0
  7  8  1  0  0  0  0
  8  9  2  0  0  0  0
  9 10  1  0  0  0  0
 10 11  1  0  0  0  0
 10 16  1  0  0  0  0
 11  7  2  0  0  0  0
 11 17  1  0  0  0  0
M  END
>  <Mol_ID>
4160

>  <Formula>
C7H6N4

>  <MolWeight>
146.14934

>  <Cat>
S8628

>  <Name>
3-TYP

>  <Synonyms>
3-(1H-1,2,3-triazol-4-yl) pyridine

>  <Target>
Sirtuin

>  <Form>
free base

>  <CAS>
120241-79-4

>  <URL>
http://selleckchem.com/products/3-typ.html

$$$$
