3BDO.cdx
 OpenBabel08302520423D

 41 43  0  0  0  0  0  0  0  0999 V2000
   -0.9438    6.2559    3.3705 C   0  0  0  0  0  0  0  0  0  0  0  0
   -0.3230    5.3359    4.2098 C   0  0  0  0  0  0  0  0  0  0  0  0
   -0.3847    3.9763    3.9082 C   0  0  0  0  0  0  0  0  0  0  0  0
   -1.0625    3.5270    2.7658 C   0  0  0  0  0  0  0  0  0  0  0  0
   -1.6805    4.4333    1.8955 C   0  0  0  0  0  0  0  0  0  0  0  0
   -1.6125    5.7933    2.2271 C   0  0  0  0  0  0  0  0  0  0  0  0
   -2.2330    6.7816    1.3672 N   0  3  0  0  0  0  0  0  0  0  0  0
   -1.4923    7.6576    0.8968 O   0  0  0  0  0  0  0  0  0  0  0  0
   -3.4592    6.7129    1.2044 O   0  5  0  0  0  0  0  0  0  0  0  0
   -2.3150    4.0871    0.7308 O   0  0  0  0  0  0  0  0  0  0  0  0
   -2.4170    2.6969    0.4381 C   0  0  0  0  0  0  0  0  0  0  0  0
   -3.1710    2.4697   -0.8742 C   0  0  3  0  0  0  0  0  0  0  0  0
   -4.6000    2.9852   -0.8593 C   0  0  0  0  0  0  0  0  0  0  0  0
   -5.3867    1.9187   -1.6072 C   0  0  3  0  0  0  0  0  0  0  0  0
   -4.5592    0.7015   -1.3003 C   0  0  0  0  0  0  0  0  0  0  0  0
   -3.2641    1.0561   -1.0730 O   0  0  0  0  0  0  0  0  0  0  0  0
   -4.9475   -0.4565   -1.2763 O   0  0  0  0  0  0  0  0  0  0  0  0
   -5.4650    2.1714   -3.1170 C   0  0  0  0  0  0  0  0  0  0  0  0
   -6.2971    1.1370   -3.8413 C   0  0  0  0  0  0  0  0  0  0  0  0
   -7.6789    1.3074   -3.9984 C   0  0  0  0  0  0  0  0  0  0  0  0
   -8.4478    0.3180   -4.6169 C   0  0  0  0  0  0  0  0  0  0  0  0
   -7.8459   -0.8511   -5.0791 C   0  0  0  0  0  0  0  0  0  0  0  0
   -6.4728   -1.0285   -4.9331 C   0  0  0  0  0  0  0  0  0  0  0  0
   -5.7020   -0.0378   -4.3239 C   0  0  0  0  0  0  0  0  0  0  0  0
   -0.9018    7.3175    3.6033 H   0  0  0  0  0  0  0  0  0  0  0  0
    0.2104    5.6743    5.0957 H   0  0  0  0  0  0  0  0  0  0  0  0
    0.1045    3.2560    4.5618 H   0  0  0  0  0  0  0  0  0  0  0  0
   -1.0736    2.4555    2.5869 H   0  0  0  0  0  0  0  0  0  0  0  0
   -1.4179    2.2525    0.3404 H   0  0  0  0  0  0  0  0  0  0  0  0
   -2.9455    2.1728    1.2461 H   0  0  0  0  0  0  0  0  0  0  0  0
   -2.6169    2.9065   -1.7144 H   0  0  0  0  0  0  0  0  0  0  0  0
   -4.6883    3.9868   -1.2908 H   0  0  0  0  0  0  0  0  0  0  0  0
   -4.9721    3.0460    0.1714 H   0  0  0  0  0  0  0  0  0  0  0  0
   -6.3829    1.8152   -1.1634 H   0  0  0  0  0  0  0  0  0  0  0  0
   -5.9004    3.1616   -3.3019 H   0  0  0  0  0  0  0  0  0  0  0  0
   -4.4636    2.1984   -3.5665 H   0  0  0  0  0  0  0  0  0  0  0  0
   -8.1703    2.2061   -3.6334 H   0  0  0  0  0  0  0  0  0  0  0  0
   -9.5204    0.4532   -4.7285 H   0  0  0  0  0  0  0  0  0  0  0  0
   -8.4465   -1.6279   -5.5445 H   0  0  0  0  0  0  0  0  0  0  0  0
   -6.0011   -1.9452   -5.2772 H   0  0  0  0  0  0  0  0  0  0  0  0
   -4.6347   -0.2084   -4.1994 H   0  0  0  0  0  0  0  0  0  0  0  0
  1  2  2  0  0  0  0
  1 25  1  0  0  0  0
  2  3  1  0  0  0  0
  2 26  1  0  0  0  0
  3  4  2  0  0  0  0
  3 27  1  0  0  0  0
  4  5  1  0  0  0  0
  4 28  1  0  0  0  0
  5  6  2  0  0  0  0
  5 10  1  0  0  0  0
  6  1  1  0  0  0  0
  6  7  1  0  0  0  0
  7  8  2  0  0  0  0
  7  9  1  0  0  0  0
 10 11  1  0  0  0  0
 11 12  1  0  0  0  0
 11 29  1  0  0  0  0
 11 30  1  0  0  0  0
 12 13  1  0  0  0  0
 12 31  1  0  0  0  0
 13 14  1  0  0  0  0
 13 32  1  0  0  0  0
 13 33  1  0  0  0  0
 14 15  1  0  0  0  0
 14 18  1  0  0  0  0
 14 34  1  0  0  0  0
 15 16  1  0  0  0  0
 15 17  2  0  0  0  0
 16 12  1  0  0  0  0
 18 19  1  0  0  0  0
 18 35  1  0  0  0  0
 18 36  1  0  0  0  0
 19 20  2  0  0  0  0
 20 21  1  0  0  0  0
 20 37  1  0  0  0  0
 21 22  2  0  0  0  0
 21 38  1  0  0  0  0
 22 23  1  0  0  0  0
 22 39  1  0  0  0  0
 23 24  2  0  0  0  0
 23 40  1  0  0  0  0
 24 19  1  0  0  0  0
 24 41  1  0  0  0  0
M  CHG  2   7   1   9  -1
M  END
>  <Mol_ID>
4007

>  <Formula>
C18H17NO5

>  <MolWeight>
327.33128

>  <Cat>
S8317

>  <Name>
3BDO

>  <Synonyms>
3-benzyl-5-((2-nitrophenoxy) methyl)-dihydrofuran-2(3H)-one

>  <Target>
Apoptosis related,Autophagy,FKBP,mTOR

>  <Form>
free base

>  <CAS>
890405-51-3

>  <URL>
http://selleckchem.com/products/3bdo.html

$$$$
