3PO.cdx
 OpenBabel08302520003D

 26 27  0  0  0  0  0  0  0  0999 V2000
   -0.6361    1.1545    0.0163 C   0  0  0  0  0  0  0  0  0  0  0  0
    0.6205    1.0934    0.5941 C   0  0  0  0  0  0  0  0  0  0  0  0
    1.3071   -0.1203    0.5635 C   0  0  0  0  0  0  0  0  0  0  0  0
    0.7232   -1.2403   -0.0341 C   0  0  0  0  0  0  0  0  0  0  0  0
   -0.5388   -1.0594   -0.6002 C   0  0  0  0  0  0  0  0  0  0  0  0
   -1.2344    0.1038   -0.5808 N   0  0  0  0  0  0  0  0  0  0  0  0
    1.4564   -2.5138   -0.0650 C   0  0  0  0  0  0  0  0  0  0  0  0
    0.8520   -3.7106   -0.0376 C   0  0  0  0  0  0  0  0  0  0  0  0
    1.6506   -4.9658    0.0063 C   0  0  0  0  0  0  0  0  0  0  0  0
    0.9635   -6.1696    0.5443 C   0  0  0  0  0  0  0  0  0  0  0  0
    2.8028   -5.0272   -0.4047 O   0  0  0  0  0  0  0  0  0  0  0  0
    1.3270   -7.4286    0.0674 C   0  0  0  0  0  0  0  0  0  0  0  0
    0.6612   -8.5288    0.5777 C   0  0  0  0  0  0  0  0  0  0  0  0
   -0.3085   -8.4505    1.5149 N   0  0  0  0  0  0  0  0  0  0  0  0
   -0.6209   -7.2235    1.9784 C   0  0  0  0  0  0  0  0  0  0  0  0
   -0.0164   -6.0631    1.5338 C   0  0  0  0  0  0  0  0  0  0  0  0
   -1.2094    2.0773    0.0148 H   0  0  0  0  0  0  0  0  0  0  0  0
    1.0573    1.9707    1.0582 H   0  0  0  0  0  0  0  0  0  0  0  0
    2.2931   -0.1829    1.0178 H   0  0  0  0  0  0  0  0  0  0  0  0
   -1.0545   -1.8672   -1.1119 H   0  0  0  0  0  0  0  0  0  0  0  0
    2.5435   -2.4501   -0.0611 H   0  0  0  0  0  0  0  0  0  0  0  0
   -0.2262   -3.8110   -0.0124 H   0  0  0  0  0  0  0  0  0  0  0  0
    2.1002   -7.5500   -0.6841 H   0  0  0  0  0  0  0  0  0  0  0  0
    0.8933   -9.5345    0.2377 H   0  0  0  0  0  0  0  0  0  0  0  0
   -1.3928   -7.1958    2.7430 H   0  0  0  0  0  0  0  0  0  0  0  0
   -0.3008   -5.1128    1.9713 H   0  0  0  0  0  0  0  0  0  0  0  0
  1  2  2  0  0  0  0
  1 17  1  0  0  0  0
  2  3  1  0  0  0  0
  2 18  1  0  0  0  0
  3  4  2  0  0  0  0
  3 19  1  0  0  0  0
  4  5  1  0  0  0  0
  4  7  1  0  0  0  0
  5  6  2  0  0  0  0
  5 20  1  0  0  0  0
  6  1  1  0  0  0  0
  7  8  2  0  0  0  0
  7 21  1  0  0  0  0
  8  9  1  0  0  0  0
  8 22  1  0  0  0  0
  9 10  1  0  0  0  0
  9 11  2  0  0  0  0
 10 12  2  0  0  0  0
 12 13  1  0  0  0  0
 12 23  1  0  0  0  0
 13 14  2  0  0  0  0
 13 24  1  0  0  0  0
 14 15  1  0  0  0  0
 15 16  2  0  0  0  0
 15 25  1  0  0  0  0
 16 10  1  0  0  0  0
 16 26  1  0  0  0  0
M  END
>  <Mol_ID>
2745

>  <Formula>
C13H10N2O

>  <MolWeight>
210.2313

>  <Cat>
S7639

>  <Name>
3PO

>  <Synonyms>
3-(3-pyridinyl)-1-(4-pyridinyl)-2-propen-1-one

>  <Target>
PFKFB

>  <Form>
free base

>  <CAS>
18550-98-6

>  <URL>
http://selleckchem.com/products/3po.html

$$$$
