(3S)-3¦Â-Butyl-1,3,4,5-tetrahydroisobenzofuran-1-
 OpenBabel08302521503D

 30 31  0  0  1  0  0  0  0  0999 V2000
    3.0386    0.1811   -1.3366 C   0  0  0  0  0  0  0  0  0  0  0  0
    2.5542   -0.8336   -2.3720 C   0  0  0  0  0  0  0  0  0  0  0  0
    1.0354   -0.9971   -2.4056 C   0  0  0  0  0  0  0  0  0  0  0  0
    0.6048   -2.0257   -3.4410 C   0  0  0  0  0  0  0  0  0  0  0  0
    5.1214    0.9097    2.3870 O   0  0  0  0  0  0  0  0  0  0  0  0
    3.1802   -1.3610    0.7092 C   0  0  0  0  0  0  0  0  0  0  0  0
    4.1606   -1.1286    1.5763 C   0  0  0  0  0  0  0  0  0  0  0  0
    2.6742   -0.0943    0.1326 C   0  0  1  0  0  0  0  0  0  0  0  0
    2.6400   -2.7336    0.4605 C   0  0  0  0  0  0  0  0  0  0  0  0
    4.3122    0.3236    1.6884 C   0  0  0  0  0  0  0  0  0  0  0  0
    4.8563   -2.1510    2.2897 C   0  0  0  0  0  0  0  0  0  0  0  0
    3.3587    0.9137    0.9118 O   0  0  0  0  0  0  0  0  0  0  0  0
    3.4277   -3.8689    1.1598 C   0  0  0  0  0  0  0  0  0  0  0  0
    4.5327   -3.4398    2.0970 C   0  0  0  0  0  0  0  0  0  0  0  0
    2.6612    1.1773   -1.6047 H   0  0  0  0  0  0  0  0  0  0  0  0
    4.1303    0.2675   -1.4244 H   0  0  0  0  0  0  0  0  0  0  0  0
    2.9060   -0.5129   -3.3602 H   0  0  0  0  0  0  0  0  0  0  0  0
    3.0408   -1.7969   -2.1999 H   0  0  0  0  0  0  0  0  0  0  0  0
    0.6600   -1.3125   -1.4267 H   0  0  0  0  0  0  0  0  0  0  0  0
    0.5651   -0.0355   -2.6398 H   0  0  0  0  0  0  0  0  0  0  0  0
    1.0267   -3.0108   -3.2163 H   0  0  0  0  0  0  0  0  0  0  0  0
   -0.4858   -2.1186   -3.4480 H   0  0  0  0  0  0  0  0  0  0  0  0
    0.9266   -1.7337   -4.4455 H   0  0  0  0  0  0  0  0  0  0  0  0
    1.5998    0.0276    0.3100 H   0  0  0  0  0  0  0  0  0  0  0  0
    2.6216   -2.9645   -0.6056 H   0  0  0  0  0  0  0  0  0  0  0  0
    1.5946   -2.7644    0.7947 H   0  0  0  0  0  0  0  0  0  0  0  0
    5.6567   -1.8601    2.9667 H   0  0  0  0  0  0  0  0  0  0  0  0
    3.8709   -4.5109    0.3875 H   0  0  0  0  0  0  0  0  0  0  0  0
    2.7211   -4.4999    1.7120 H   0  0  0  0  0  0  0  0  0  0  0  0
    5.0766   -4.2177    2.6159 H   0  0  0  0  0  0  0  0  0  0  0  0
  1  2  1  0  0  0  0
  1 15  1  0  0  0  0
  1 16  1  0  0  0  0
  2  3  1  0  0  0  0
  2 17  1  0  0  0  0
  2 18  1  0  0  0  0
  3  4  1  0  0  0  0
  3 19  1  0  0  0  0
  3 20  1  0  0  0  0
  4 21  1  0  0  0  0
  4 22  1  0  0  0  0
  4 23  1  0  0  0  0
  5 10  2  0  0  0  0
  6  7  2  0  0  0  0
  6  8  1  0  0  0  0
  6  9  1  0  0  0  0
  7 10  1  0  0  0  0
  7 11  1  0  0  0  0
  8 12  1  0  0  0  0
  8 24  1  1  0  0  0
  8  1  1  0  0  0  0
  9 13  1  0  0  0  0
  9 25  1  0  0  0  0
  9 26  1  0  0  0  0
 10 12  1  0  0  0  0
 11 14  2  0  0  0  0
 11 27  1  0  0  0  0
 13 14  1  0  0  0  0
 13 28  1  0  0  0  0
 13 29  1  0  0  0  0
 14 30  1  0  0  0  0
M  END
>  <Mol_ID>
9901

>  <Formula>
C12H16O2

>  <MolWeight>
192.25424

>  <Cat>
E5034

>  <Name>
(3S)-3¦Â-Butyl-1,3,4,5-tetrahydroisobenzofuran-1-

>  <Synonyms>
Senkyunolide A

>  <Target>
NLRP3, CD markers

>  <Form>
free base

>  <CAS>
63038-10-8

>  <URL>
https://www.selleckchem.com/products/senkyunolide-a-e5034.html

$$$$
