4',5,7-Trimethoxyflavone
 OpenBabel08302521283D

 39 41  0  0  0  0  0  0  0  0999 V2000
   -0.4418   -1.9230    0.0277 O   0  0  0  0  0  0  0  0  0  0  0  0
    0.8293    2.9027   -0.0076 O   0  0  0  0  0  0  0  0  0  0  0  0
    4.0142   -0.5673   -0.0137 O   0  0  0  0  0  0  0  0  0  0  0  0
   -2.1607    1.7418    0.1867 O   0  0  0  0  0  0  0  0  0  0  0  0
   -5.2336   -6.1078   -0.6906 O   0  0  0  0  0  0  0  0  0  0  0  0
   -0.0575    0.5191    0.0538 C   0  0  0  0  0  0  0  0  0  0  0  0
    0.3934   -0.8219    0.0402 C   0  0  0  0  0  0  0  0  0  0  0  0
   -1.7971   -1.7029   -0.0116 C   0  0  0  0  0  0  0  0  0  0  0  0
    0.9153    1.5379    0.0188 C   0  0  0  0  0  0  0  0  0  0  0  0
   -1.5398    0.6886    0.1073 C   0  0  0  0  0  0  0  0  0  0  0  0
   -2.6395   -2.8825   -0.1933 C   0  0  0  0  0  0  0  0  0  0  0  0
   -2.3724   -0.5095    0.0460 C   0  0  0  0  0  0  0  0  0  0  0  0
    1.7578   -1.1433    0.0213 C   0  0  0  0  0  0  0  0  0  0  0  0
    2.7161   -0.1409    0.0020 C   0  0  0  0  0  0  0  0  0  0  0  0
    2.2873    1.1818   -0.0052 C   0  0  0  0  0  0  0  0  0  0  0  0
   -2.9447   -3.3077   -1.4911 C   0  0  0  0  0  0  0  0  0  0  0  0
   -3.2194   -3.5322    0.8985 C   0  0  0  0  0  0  0  0  0  0  0  0
   -3.8076   -4.3844   -1.7010 C   0  0  0  0  0  0  0  0  0  0  0  0
   -4.0758   -4.6166    0.6846 C   0  0  0  0  0  0  0  0  0  0  0  0
   -4.3752   -5.0455   -0.6126 C   0  0  0  0  0  0  0  0  0  0  0  0
   -0.4115    3.5741   -0.0063 C   0  0  0  0  0  0  0  0  0  0  0  0
    5.0259    0.4352   -0.0359 C   0  0  0  0  0  0  0  0  0  0  0  0
   -5.5599   -6.5574   -2.0007 C   0  0  0  0  0  0  0  0  0  0  0  0
   -3.4462   -0.3576    0.0213 H   0  0  0  0  0  0  0  0  0  0  0  0
    2.0695   -2.1853    0.0191 H   0  0  0  0  0  0  0  0  0  0  0  0
    3.0104    1.9947   -0.0302 H   0  0  0  0  0  0  0  0  0  0  0  0
   -2.5205   -2.7999   -2.3533 H   0  0  0  0  0  0  0  0  0  0  0  0
   -3.0202   -3.1983    1.9145 H   0  0  0  0  0  0  0  0  0  0  0  0
   -4.0136   -4.6742   -2.7262 H   0  0  0  0  0  0  0  0  0  0  0  0
   -4.5204   -5.1262    1.5352 H   0  0  0  0  0  0  0  0  0  0  0  0
   -0.9936    3.3159   -0.8957 H   0  0  0  0  0  0  0  0  0  0  0  0
   -0.9284    3.4138    0.9435 H   0  0  0  0  0  0  0  0  0  0  0  0
   -0.2193    4.6485   -0.0673 H   0  0  0  0  0  0  0  0  0  0  0  0
    4.9654    1.0371   -0.9491 H   0  0  0  0  0  0  0  0  0  0  0  0
    4.9781    1.0675    0.8572 H   0  0  0  0  0  0  0  0  0  0  0  0
    5.9983   -0.0670   -0.0339 H   0  0  0  0  0  0  0  0  0  0  0  0
   -6.0275   -5.7597   -2.5882 H   0  0  0  0  0  0  0  0  0  0  0  0
   -4.6752   -6.9550   -2.5101 H   0  0  0  0  0  0  0  0  0  0  0  0
   -6.2860   -7.3694   -1.9069 H   0  0  0  0  0  0  0  0  0  0  0  0
  1  7  1  0  0  0  0
  1  8  1  0  0  0  0
  2  9  1  0  0  0  0
  2 21  1  0  0  0  0
  3 14  1  0  0  0  0
  3 22  1  0  0  0  0
  4 10  2  0  0  0  0
  5 20  1  0  0  0  0
  5 23  1  0  0  0  0
  6  7  2  0  0  0  0
  6  9  1  0  0  0  0
  6 10  1  0  0  0  0
  7 13  1  0  0  0  0
  8 11  1  0  0  0  0
  8 12  2  0  0  0  0
  9 15  2  0  0  0  0
 10 12  1  0  0  0  0
 11 16  2  0  0  0  0
 11 17  1  0  0  0  0
 12 24  1  0  0  0  0
 13 14  2  0  0  0  0
 13 25  1  0  0  0  0
 14 15  1  0  0  0  0
 15 26  1  0  0  0  0
 16 18  1  0  0  0  0
 16 27  1  0  0  0  0
 17 19  2  0  0  0  0
 17 28  1  0  0  0  0
 18 20  2  0  0  0  0
 18 29  1  0  0  0  0
 19 20  1  0  0  0  0
 19 30  1  0  0  0  0
 21 31  1  0  0  0  0
 21 32  1  0  0  0  0
 21 33  1  0  0  0  0
 22 34  1  0  0  0  0
 22 35  1  0  0  0  0
 22 36  1  0  0  0  0
 23 37  1  0  0  0  0
 23 38  1  0  0  0  0
 23 39  1  0  0  0  0
M  END
>  <Mol_ID>
5408

>  <Formula>
C18H16O5

>  <MolWeight>
312.31664

>  <Cat>
S0913

>  <Name>
4',5,7-Trimethoxyflavone

>  <Synonyms>
5,?7,?4'-?Trimethoxyflavone, TMF

>  <Target>
Apoptosis related,Caspase,PARP

>  <Form>
Free Base

>  <CAS>
5631-70-9

>  <URL>
https://www.selleckchem.com/products/4-5-7-trimethoxyflavone.html

$$$$
