4'-Methoxychalcone
 OpenBabel08302520143D

 32 33  0  0  0  0  0  0  0  0999 V2000
    1.3930   -0.1954    0.0428 C   0  0  0  0  0  0  0  0  0  0  0  0
    2.8593   -0.4770    0.1277 C   0  0  0  0  0  0  0  0  0  0  0  0
    0.5913   -1.1306   -0.6259 C   0  0  0  0  0  0  0  0  0  0  0  0
    0.7813    0.9215    0.6233 C   0  0  0  0  0  0  0  0  0  0  0  0
    3.8035    0.6724    0.1893 C   0  0  0  0  0  0  0  0  0  0  0  0
    3.2607   -1.6345    0.1260 O   0  0  0  0  0  0  0  0  0  0  0  0
   -0.7962   -0.9513   -0.7269 C   0  0  0  0  0  0  0  0  0  0  0  0
   -0.6075    1.0916    0.5270 C   0  0  0  0  0  0  0  0  0  0  0  0
    5.1315    0.4580    0.2678 C   0  0  0  0  0  0  0  0  0  0  0  0
   -1.4014    0.1633   -0.1510 C   0  0  0  0  0  0  0  0  0  0  0  0
    6.0985    1.5574    0.3849 C   0  0  0  0  0  0  0  0  0  0  0  0
   -2.7349    0.4625   -0.1752 O   0  0  0  0  0  0  0  0  0  0  0  0
    5.7684    2.7650    1.0173 C   0  0  0  0  0  0  0  0  0  0  0  0
    7.4048    1.3818   -0.0899 C   0  0  0  0  0  0  0  0  0  0  0  0
   -3.5835   -0.4541   -0.8549 C   0  0  0  0  0  0  0  0  0  0  0  0
    6.7091    3.7850    1.1498 C   0  0  0  0  0  0  0  0  0  0  0  0
    8.3490    2.4025    0.0472 C   0  0  0  0  0  0  0  0  0  0  0  0
    8.0018    3.6029    0.6647 C   0  0  0  0  0  0  0  0  0  0  0  0
    1.0434   -2.0113   -1.0824 H   0  0  0  0  0  0  0  0  0  0  0  0
    1.3435    1.6697    1.1730 H   0  0  0  0  0  0  0  0  0  0  0  0
    3.4041    1.6723    0.1606 H   0  0  0  0  0  0  0  0  0  0  0  0
   -1.3681   -1.7036   -1.2588 H   0  0  0  0  0  0  0  0  0  0  0  0
   -1.0769    1.9587    0.9863 H   0  0  0  0  0  0  0  0  0  0  0  0
    5.5353   -0.5513    0.2564 H   0  0  0  0  0  0  0  0  0  0  0  0
    4.7752    2.9247    1.4282 H   0  0  0  0  0  0  0  0  0  0  0  0
    7.6962    0.4534   -0.5734 H   0  0  0  0  0  0  0  0  0  0  0  0
   -3.2756   -0.5842   -1.8981 H   0  0  0  0  0  0  0  0  0  0  0  0
   -3.6199   -1.4136   -0.3297 H   0  0  0  0  0  0  0  0  0  0  0  0
   -4.5941   -0.0341   -0.8593 H   0  0  0  0  0  0  0  0  0  0  0  0
    6.4347    4.7153    1.6399 H   0  0  0  0  0  0  0  0  0  0  0  0
    9.3602    2.2585   -0.3260 H   0  0  0  0  0  0  0  0  0  0  0  0
    8.7375    4.3926    0.7754 H   0  0  0  0  0  0  0  0  0  0  0  0
  1  2  1  0  0  0  0
  1  3  2  0  0  0  0
  1  4  1  0  0  0  0
  2  5  1  0  0  0  0
  2  6  2  0  0  0  0
  3  7  1  0  0  0  0
  3 19  1  0  0  0  0
  4  8  2  0  0  0  0
  4 20  1  0  0  0  0
  5  9  2  0  0  0  0
  5 21  1  0  0  0  0
  7 10  2  0  0  0  0
  7 22  1  0  0  0  0
  8 10  1  0  0  0  0
  8 23  1  0  0  0  0
  9 11  1  0  0  0  0
  9 24  1  0  0  0  0
 10 12  1  0  0  0  0
 11 13  2  0  0  0  0
 11 14  1  0  0  0  0
 12 15  1  0  0  0  0
 13 16  1  0  0  0  0
 13 25  1  0  0  0  0
 14 17  2  0  0  0  0
 14 26  1  0  0  0  0
 15 27  1  0  0  0  0
 15 28  1  0  0  0  0
 15 29  1  0  0  0  0
 16 18  2  0  0  0  0
 16 30  1  0  0  0  0
 17 18  1  0  0  0  0
 17 31  1  0  0  0  0
 18 32  1  0  0  0  0
M  END
>  <Mol_ID>
3159

>  <Formula>
C16H14O2

>  <MolWeight>
238.28116

>  <Cat>
S5851

>  <Name>
4'-Methoxychalcone

>  <Synonyms>
N/A

>  <Target>
PPAR,TNF-alpha

>  <Form>
Free Base

>  <CAS>
959-23-9

>  <URL>
http://www.selleckchem.com/products/4-methoxychalcone.html

$$$$
