4'-Methoxyflavone
 OpenBabel08302521373D

 31 33  0  0  0  0  0  0  0  0999 V2000
   -1.7712    1.9811    0.0680 O   0  0  0  0  0  0  0  0  0  0  0  0
   -5.2664   -6.0373   -0.4229 O   0  0  0  0  0  0  0  0  0  0  0  0
   -4.8195   -7.2233   -1.0682 C   0  0  0  0  0  0  0  0  0  0  0  0
   -1.8338   -1.5569   -0.0121 C   0  0  0  0  0  0  0  0  0  0  0  0
   -0.4868   -1.8784    0.0433 O   0  0  0  0  0  0  0  0  0  0  0  0
   -2.3107   -0.3028    0.0042 C   0  0  0  0  0  0  0  0  0  0  0  0
    0.4287   -0.8586    0.0419 C   0  0  0  0  0  0  0  0  0  0  0  0
   -1.3674    0.8236    0.0470 C   0  0  0  0  0  0  0  0  0  0  0  0
    0.0597    0.4839    0.0374 C   0  0  0  0  0  0  0  0  0  0  0  0
    1.7762   -1.2139    0.0292 C   0  0  0  0  0  0  0  0  0  0  0  0
    1.0331    1.4839    0.0114 C   0  0  0  0  0  0  0  0  0  0  0  0
    2.7537   -0.2169    0.0045 C   0  0  0  0  0  0  0  0  0  0  0  0
    2.3829    1.1302   -0.0064 C   0  0  0  0  0  0  0  0  0  0  0  0
   -2.7270   -2.7258   -0.1305 C   0  0  0  0  0  0  0  0  0  0  0  0
   -2.2651   -3.8879   -0.7639 C   0  0  0  0  0  0  0  0  0  0  0  0
   -4.0284   -2.7239    0.3867 C   0  0  0  0  0  0  0  0  0  0  0  0
   -3.0800   -5.0167   -0.8823 C   0  0  0  0  0  0  0  0  0  0  0  0
   -4.8420   -3.8535    0.2690 C   0  0  0  0  0  0  0  0  0  0  0  0
   -4.3745   -5.0028   -0.3678 C   0  0  0  0  0  0  0  0  0  0  0  0
   -4.4977   -7.0237   -2.0962 H   0  0  0  0  0  0  0  0  0  0  0  0
   -4.0208   -7.7011   -0.4906 H   0  0  0  0  0  0  0  0  0  0  0  0
   -5.6628   -7.9177   -1.1175 H   0  0  0  0  0  0  0  0  0  0  0  0
   -3.3584   -0.0460   -0.0427 H   0  0  0  0  0  0  0  0  0  0  0  0
    2.0665   -2.2611    0.0331 H   0  0  0  0  0  0  0  0  0  0  0  0
    0.7411    2.5324   -0.0016 H   0  0  0  0  0  0  0  0  0  0  0  0
    3.8062   -0.4895   -0.0096 H   0  0  0  0  0  0  0  0  0  0  0  0
    3.1449    1.9047   -0.0303 H   0  0  0  0  0  0  0  0  0  0  0  0
   -1.2602   -3.9289   -1.1802 H   0  0  0  0  0  0  0  0  0  0  0  0
   -4.4284   -1.8523    0.8989 H   0  0  0  0  0  0  0  0  0  0  0  0
   -2.6664   -5.8872   -1.3790 H   0  0  0  0  0  0  0  0  0  0  0  0
   -5.8456   -3.8351    0.6871 H   0  0  0  0  0  0  0  0  0  0  0  0
  1  8  2  0  0  0  0
  2  3  1  0  0  0  0
  2 19  1  0  0  0  0
  3 20  1  0  0  0  0
  3 21  1  0  0  0  0
  3 22  1  0  0  0  0
  4  5  1  0  0  0  0
  4  6  2  0  0  0  0
  4 14  1  0  0  0  0
  5  7  1  0  0  0  0
  6  8  1  0  0  0  0
  6 23  1  0  0  0  0
  7  9  2  0  0  0  0
  7 10  1  0  0  0  0
  8  9  1  0  0  0  0
  9 11  1  0  0  0  0
 10 12  2  0  0  0  0
 10 24  1  0  0  0  0
 11 13  2  0  0  0  0
 11 25  1  0  0  0  0
 12 13  1  0  0  0  0
 12 26  1  0  0  0  0
 13 27  1  0  0  0  0
 14 15  2  0  0  0  0
 14 16  1  0  0  0  0
 15 17  1  0  0  0  0
 15 28  1  0  0  0  0
 16 18  2  0  0  0  0
 16 29  1  0  0  0  0
 17 19  2  0  0  0  0
 17 30  1  0  0  0  0
 18 19  1  0  0  0  0
 18 31  1  0  0  0  0
M  END
>  <Mol_ID>
7404

>  <Formula>
C16H12O3

>  <MolWeight>
252.26468

>  <Cat>
E4498

>  <Name>
4'-Methoxyflavone

>  <Synonyms>
4'-METHOXYFLAVONE

>  <Target>
Others

>  <Form>
free base

>  <CAS>
4143-74-2

>  <URL>
https://www.selleckchem.com/products/4-methoxyflavone.html

$$$$
