4,6-O-Ethylidene-¦Á-D-glucose
 OpenBabel08302521373D

 28 29  0  0  1  0  0  0  0  0999 V2000
    0.8493   -0.0007    0.1221 O   0  0  0  0  0  0  0  0  0  0  0  0
    2.3668   -2.4619    0.0450 O   0  0  0  0  0  0  0  0  0  0  0  0
    2.3374    3.8154    2.2224 C   0  0  0  0  0  0  0  0  0  0  0  0
    4.8460   -1.2830   -0.6915 O   0  0  0  0  0  0  0  0  0  0  0  0
    2.8754    1.2055    0.7729 C   0  0  2  0  0  0  0  0  0  0  0  0
    4.4027    1.1348    0.7271 C   0  0  2  0  0  0  0  0  0  0  0  0
    2.2836   -0.0090    0.0455 C   0  0  1  0  0  0  0  0  0  0  0  0
    2.4344    2.4318    0.1941 O   0  0  0  0  0  0  0  0  0  0  0  0
    4.9020   -0.0726    1.3072 O   0  0  0  0  0  0  0  0  0  0  0  0
    4.9344    2.3553    1.4734 C   0  0  0  0  0  0  0  0  0  0  0  0
    2.8601   -1.2835    0.6937 C   0  0  2  0  0  0  0  0  0  0  0  0
    2.9758    3.5748    0.8566 C   0  0  3  0  0  0  0  0  0  0  0  0
    4.3986   -1.2387    0.6581 C   0  0  1  0  0  0  0  0  0  0  0  0
    4.4021    3.5568    0.9214 O   0  0  0  0  0  0  0  0  0  0  0  0
    0.5852   -0.1979    1.0360 H   0  0  0  0  0  0  0  0  0  0  0  0
    2.6124   -2.3804   -0.8943 H   0  0  0  0  0  0  0  0  0  0  0  0
    2.7048    4.7492    2.6590 H   0  0  0  0  0  0  0  0  0  0  0  0
    1.2471    3.8573    2.1357 H   0  0  0  0  0  0  0  0  0  0  0  0
    2.5719    3.0219    2.9378 H   0  0  0  0  0  0  0  0  0  0  0  0
    5.7554   -1.6264   -0.6562 H   0  0  0  0  0  0  0  0  0  0  0  0
    2.5151    1.1567    1.8081 H   0  0  0  0  0  0  0  0  0  0  0  0
    4.7455    1.2158   -0.3136 H   0  0  0  0  0  0  0  0  0  0  0  0
    2.5158    0.0299   -1.0258 H   0  0  0  0  0  0  0  0  0  0  0  0
    4.7148    2.3011    2.5462 H   0  0  0  0  0  0  0  0  0  0  0  0
    6.0261    2.3981    1.3934 H   0  0  0  0  0  0  0  0  0  0  0  0
    2.5203   -1.3359    1.7350 H   0  0  0  0  0  0  0  0  0  0  0  0
    2.7163    4.4330    0.2275 H   0  0  0  0  0  0  0  0  0  0  0  0
    4.7983   -2.1212    1.1668 H   0  0  0  0  0  0  0  0  0  0  0  0
  1 15  1  0  0  0  0
  2 16  1  0  0  0  0
  3 12  1  0  0  0  0
  3 17  1  0  0  0  0
  3 18  1  0  0  0  0
  3 19  1  0  0  0  0
  4 20  1  0  0  0  0
  5  6  1  0  0  0  0
  5  7  1  0  0  0  0
  5  8  1  0  0  0  0
  5 21  1  1  0  0  0
  6  9  1  0  0  0  0
  6 10  1  0  0  0  0
  6 22  1  6  0  0  0
  7  1  1  0  0  0  0
  7 11  1  0  0  0  0
  7 23  1  6  0  0  0
  8 12  1  0  0  0  0
  9 13  1  0  0  0  0
 10 14  1  0  0  0  0
 10 24  1  0  0  0  0
 10 25  1  0  0  0  0
 11  2  1  0  0  0  0
 11 13  1  0  0  0  0
 11 26  1  1  0  0  0
 12 14  1  0  0  0  0
 12 27  1  0  0  0  0
 13 28  1  1  0  0  0
 13  4  1  0  0  0  0
M  END
>  <Mol_ID>
7466

>  <Formula>
C8H14O6

>  <MolWeight>
206.19316

>  <Cat>
E4571

>  <Name>
4,6-O-Ethylidene-¦Á-D-glucose

>  <Synonyms>
Ethylidene-glucose

>  <Target>
GLUT

>  <Form>
free base

>  <CAS>
13224-99-2

>  <URL>
https://www.selleckchem.com/products/4-6-o-ethylidene-alpha-d-glucose.html

$$$$
