4,7-Dihydroxycoumarin
 OpenBabel08302521373D

 19 20  0  0  0  0  0  0  0  0999 V2000
    1.1136    0.0460   -0.1949 O   0  0  0  0  0  0  0  0  0  0  0  0
    0.6157   -4.5955   -0.9516 O   0  0  0  0  0  0  0  0  0  0  0  0
   -3.5793   -0.2358   -4.5378 O   0  0  0  0  0  0  0  0  0  0  0  0
   -1.2022   -1.8575   -2.3309 C   0  0  0  0  0  0  0  0  0  0  0  0
   -0.5853   -0.7772   -1.7010 C   0  0  0  0  0  0  0  0  0  0  0  0
   -0.8094   -3.1819   -2.0552 O   0  0  0  0  0  0  0  0  0  0  0  0
   -2.2154   -1.6810   -3.2710 C   0  0  0  0  0  0  0  0  0  0  0  0
    0.5052   -1.0486   -0.7682 C   0  0  0  0  0  0  0  0  0  0  0  0
   -1.0205    0.5150   -2.0165 C   0  0  0  0  0  0  0  0  0  0  0  0
    0.2314   -3.4545   -1.1840 C   0  0  0  0  0  0  0  0  0  0  0  0
   -2.6118   -0.3889   -3.5896 C   0  0  0  0  0  0  0  0  0  0  0  0
    0.8854   -2.3097   -0.5342 C   0  0  0  0  0  0  0  0  0  0  0  0
   -2.0292    0.7122   -2.9657 C   0  0  0  0  0  0  0  0  0  0  0  0
    1.8753   -0.2522    0.3311 H   0  0  0  0  0  0  0  0  0  0  0  0
   -3.7216    0.7134   -4.6904 H   0  0  0  0  0  0  0  0  0  0  0  0
   -2.6766   -2.5341   -3.7580 H   0  0  0  0  0  0  0  0  0  0  0  0
   -0.5670    1.3796   -1.5355 H   0  0  0  0  0  0  0  0  0  0  0  0
    1.6944   -2.5584    0.1388 H   0  0  0  0  0  0  0  0  0  0  0  0
   -2.3371    1.7251   -3.2074 H   0  0  0  0  0  0  0  0  0  0  0  0
  1  8  1  0  0  0  0
  1 14  1  0  0  0  0
  2 10  2  0  0  0  0
  3 11  1  0  0  0  0
  3 15  1  0  0  0  0
  4  5  2  0  0  0  0
  4  6  1  0  0  0  0
  4  7  1  0  0  0  0
  5  8  1  0  0  0  0
  5  9  1  0  0  0  0
  6 10  1  0  0  0  0
  7 11  2  0  0  0  0
  7 16  1  0  0  0  0
  8 12  2  0  0  0  0
  9 13  2  0  0  0  0
  9 17  1  0  0  0  0
 10 12  1  0  0  0  0
 11 13  1  0  0  0  0
 12 18  1  0  0  0  0
 13 19  1  0  0  0  0
M  END
>  <Mol_ID>
7441

>  <Formula>
C9H6O4

>  <MolWeight>
178.14154

>  <Cat>
E4543

>  <Name>
4,7-Dihydroxycoumarin

>  <Synonyms>
4,7-DIHYDROXYCOUMARIN

>  <Target>
Others

>  <Form>
free base

>  <CAS>
1983-81-9

>  <URL>
https://www.selleckchem.com/products/4-7-dihydroxycoumarin.html

$$$$
