4-(4-Methoxyphenyl)-2-butanone
 OpenBabel08302521373D

 27 27  0  0  0  0  0  0  0  0999 V2000
    0.8945   -0.0838   -0.0409 C   0  0  0  0  0  0  0  0  0  0  0  0
   -0.1617   -1.1899   -0.0158 C   0  0  0  0  0  0  0  0  0  0  0  0
    0.4444   -2.5589   -0.2543 C   0  0  0  0  0  0  0  0  0  0  0  0
   -0.5011   -3.7314   -0.2234 C   0  0  0  0  0  0  0  0  0  0  0  0
    1.6501   -2.7319   -0.4296 O   0  0  0  0  0  0  0  0  0  0  0  0
   -0.6291    5.2980    1.0572 O   0  0  0  0  0  0  0  0  0  0  0  0
   -1.6629    5.5808    1.9947 C   0  0  0  0  0  0  0  0  0  0  0  0
    0.3822    1.3174    0.2086 C   0  0  0  0  0  0  0  0  0  0  0  0
   -0.6921    1.5858    1.0634 C   0  0  0  0  0  0  0  0  0  0  0  0
    1.0681    2.4085   -0.3493 C   0  0  0  0  0  0  0  0  0  0  0  0
   -1.0680    2.8986    1.3648 C   0  0  0  0  0  0  0  0  0  0  0  0
    0.6893    3.7211   -0.0522 C   0  0  0  0  0  0  0  0  0  0  0  0
   -0.3733    3.9738    0.8160 C   0  0  0  0  0  0  0  0  0  0  0  0
    1.4025   -0.1116   -1.0138 H   0  0  0  0  0  0  0  0  0  0  0  0
    1.6604   -0.2922    0.7182 H   0  0  0  0  0  0  0  0  0  0  0  0
   -0.6612   -1.2326    0.9572 H   0  0  0  0  0  0  0  0  0  0  0  0
   -0.9165   -1.0079   -0.7899 H   0  0  0  0  0  0  0  0  0  0  0  0
   -0.3451   -4.3438   -1.1150 H   0  0  0  0  0  0  0  0  0  0  0  0
   -0.3173   -4.3204    0.6787 H   0  0  0  0  0  0  0  0  0  0  0  0
   -1.5390   -3.3876   -0.2170 H   0  0  0  0  0  0  0  0  0  0  0  0
   -2.6231    5.1755    1.6591 H   0  0  0  0  0  0  0  0  0  0  0  0
   -1.4031    5.2071    2.9909 H   0  0  0  0  0  0  0  0  0  0  0  0
   -1.7684    6.6671    2.0614 H   0  0  0  0  0  0  0  0  0  0  0  0
   -1.2493    0.7809    1.5366 H   0  0  0  0  0  0  0  0  0  0  0  0
    1.9177    2.2440   -1.0097 H   0  0  0  0  0  0  0  0  0  0  0  0
   -1.8975    3.0412    2.0461 H   0  0  0  0  0  0  0  0  0  0  0  0
    1.2391    4.5518   -0.4874 H   0  0  0  0  0  0  0  0  0  0  0  0
  1  2  1  0  0  0  0
  1  8  1  0  0  0  0
  1 14  1  0  0  0  0
  1 15  1  0  0  0  0
  2  3  1  0  0  0  0
  2 16  1  0  0  0  0
  2 17  1  0  0  0  0
  3  4  1  0  0  0  0
  3  5  2  0  0  0  0
  4 18  1  0  0  0  0
  4 19  1  0  0  0  0
  4 20  1  0  0  0  0
  6  7  1  0  0  0  0
  6 13  1  0  0  0  0
  7 21  1  0  0  0  0
  7 22  1  0  0  0  0
  7 23  1  0  0  0  0
  8  9  2  0  0  0  0
  8 10  1  0  0  0  0
  9 11  1  0  0  0  0
  9 24  1  0  0  0  0
 10 12  2  0  0  0  0
 10 25  1  0  0  0  0
 11 13  2  0  0  0  0
 11 26  1  0  0  0  0
 12 13  1  0  0  0  0
 12 27  1  0  0  0  0
M  END
>  <Mol_ID>
7360

>  <Formula>
C11H14O2

>  <MolWeight>
178.22766

>  <Cat>
E4409

>  <Name>
4-(4-Methoxyphenyl)-2-butanone

>  <Synonyms>
4-(4-Methoxyphenyl)-2-butanone

>  <Target>
Others

>  <Form>
free base

>  <CAS>
104-20-1

>  <URL>
https://www.selleckchem.com/products/4-4-methoxyphenyl-2-butanone.html

$$$$
