4-Acetamidobutyric acid
 OpenBabel08302521303D

 21 20  0  0  0  0  0  0  0  0999 V2000
   -0.7884    4.6432    0.3290 O   0  0  0  0  0  0  0  0  0  0  0  0
   -2.6312    3.5494    0.9436 O   0  0  0  0  0  0  0  0  0  0  0  0
   -0.0684   -1.8172   -0.1340 O   0  0  0  0  0  0  0  0  0  0  0  0
   -1.9042   -1.0927   -1.3137 N   0  0  0  0  0  0  0  0  0  0  0  0
   -1.7524    1.2235   -0.5095 C   0  0  0  0  0  0  0  0  0  0  0  0
   -1.3803    0.2271   -1.6016 C   0  0  0  0  0  0  0  0  0  0  0  0
   -1.2295    2.6217   -0.8253 C   0  0  0  0  0  0  0  0  0  0  0  0
   -1.6370    3.6020    0.2394 C   0  0  0  0  0  0  0  0  0  0  0  0
   -1.1958   -2.0126   -0.5728 C   0  0  0  0  0  0  0  0  0  0  0  0
   -1.9368   -3.3050   -0.3611 C   0  0  0  0  0  0  0  0  0  0  0  0
   -1.1683    5.1993    1.0417 H   0  0  0  0  0  0  0  0  0  0  0  0
   -2.8695   -1.2902   -1.5448 H   0  0  0  0  0  0  0  0  0  0  0  0
   -1.3519    0.8907    0.4567 H   0  0  0  0  0  0  0  0  0  0  0  0
   -2.8435    1.2475   -0.3944 H   0  0  0  0  0  0  0  0  0  0  0  0
   -1.8034    0.5346   -2.5633 H   0  0  0  0  0  0  0  0  0  0  0  0
   -0.2917    0.1669   -1.7111 H   0  0  0  0  0  0  0  0  0  0  0  0
   -1.6229    2.9792   -1.7832 H   0  0  0  0  0  0  0  0  0  0  0  0
   -0.1356    2.5974   -0.8859 H   0  0  0  0  0  0  0  0  0  0  0  0
   -2.8856   -3.1132    0.1472 H   0  0  0  0  0  0  0  0  0  0  0  0
   -2.1226   -3.7874   -1.3247 H   0  0  0  0  0  0  0  0  0  0  0  0
   -1.3352   -3.9752    0.2595 H   0  0  0  0  0  0  0  0  0  0  0  0
  1  8  1  0  0  0  0
  1 11  1  0  0  0  0
  2  8  2  0  0  0  0
  3  9  2  0  0  0  0
  4  6  1  0  0  0  0
  4  9  1  0  0  0  0
  4 12  1  0  0  0  0
  5  6  1  0  0  0  0
  5  7  1  0  0  0  0
  5 13  1  0  0  0  0
  5 14  1  0  0  0  0
  6 15  1  0  0  0  0
  6 16  1  0  0  0  0
  7  8  1  0  0  0  0
  7 17  1  0  0  0  0
  7 18  1  0  0  0  0
  9 10  1  0  0  0  0
 10 19  1  0  0  0  0
 10 20  1  0  0  0  0
 10 21  1  0  0  0  0
M  END
>  <Mol_ID>
5511

>  <Formula>
C6H11NO3

>  <MolWeight>
145.15644

>  <Cat>
S3358

>  <Name>
4-Acetamidobutyric acid

>  <Synonyms>
N-acetyl GABA

>  <Target>
Others

>  <Form>
Free Base

>  <CAS>
3025-96-5

>  <URL>
https://www.selleckchem.com/products/4-acetamidobutyric-acid.html

$$$$
