4-Aminoantipyrine.cdx
 OpenBabel08302519503D

 28 29  0  0  0  0  0  0  0  0999 V2000
   -0.2243   -1.1728    0.1835 N   0  0  0  0  0  0  0  0  0  0  0  0
   -0.5123   -2.5446    0.0814 C   0  0  0  0  0  0  0  0  0  0  0  0
    1.0678   -0.6733    0.3715 C   0  0  0  0  0  0  0  0  0  0  0  0
   -1.0498   -0.1380   -0.3185 N   0  0  0  0  0  0  0  0  0  0  0  0
   -0.0916   -3.3902    1.1157 C   0  0  0  0  0  0  0  0  0  0  0  0
   -1.2054   -3.0881   -1.0052 C   0  0  0  0  0  0  0  0  0  0  0  0
    0.9852    0.8121    0.1612 C   0  0  0  0  0  0  0  0  0  0  0  0
    2.1147   -1.2559    0.6167 O   0  0  0  0  0  0  0  0  0  0  0  0
   -0.2999    1.0417   -0.1723 C   0  0  0  0  0  0  0  0  0  0  0  0
   -2.4684   -0.1794    0.0352 C   0  0  0  0  0  0  0  0  0  0  0  0
   -0.3793   -4.7538    1.0819 C   0  0  0  0  0  0  0  0  0  0  0  0
   -1.4559   -4.4619   -1.0592 C   0  0  0  0  0  0  0  0  0  0  0  0
    2.0702    1.6352    0.3458 N   0  0  0  0  0  0  0  0  0  0  0  0
   -0.9251    2.3961   -0.2552 C   0  0  0  0  0  0  0  0  0  0  0  0
   -1.0548   -5.2907   -0.0102 C   0  0  0  0  0  0  0  0  0  0  0  0
    0.4354   -2.9793    1.9741 H   0  0  0  0  0  0  0  0  0  0  0  0
   -1.5072   -2.4563   -1.8358 H   0  0  0  0  0  0  0  0  0  0  0  0
   -2.6339    0.2033    1.0476 H   0  0  0  0  0  0  0  0  0  0  0  0
   -3.0404    0.4369   -0.6681 H   0  0  0  0  0  0  0  0  0  0  0  0
   -2.8879   -1.1873   -0.0196 H   0  0  0  0  0  0  0  0  0  0  0  0
   -0.0710   -5.3904    1.9063 H   0  0  0  0  0  0  0  0  0  0  0  0
   -1.9600   -4.8912   -1.9207 H   0  0  0  0  0  0  0  0  0  0  0  0
    2.0468    2.4606   -0.2450 H   0  0  0  0  0  0  0  0  0  0  0  0
    2.9355    1.1024    0.2361 H   0  0  0  0  0  0  0  0  0  0  0  0
   -1.4952    2.5120   -1.1799 H   0  0  0  0  0  0  0  0  0  0  0  0
   -1.6015    2.5489    0.5943 H   0  0  0  0  0  0  0  0  0  0  0  0
   -0.1789    3.1962   -0.2161 H   0  0  0  0  0  0  0  0  0  0  0  0
   -1.2574   -6.3587   -0.0478 H   0  0  0  0  0  0  0  0  0  0  0  0
  1  2  1  0  0  0  0
  1  3  1  0  0  0  0
  1  4  1  0  0  0  0
  2  5  2  0  0  0  0
  2  6  1  0  0  0  0
  3  7  1  0  0  0  0
  3  8  2  0  0  0  0
  4  9  1  0  0  0  0
  4 10  1  0  0  0  0
  5 11  1  0  0  0  0
  5 16  1  0  0  0  0
  6 12  2  0  0  0  0
  6 17  1  0  0  0  0
  7 13  1  0  0  0  0
  7  9  2  0  0  0  0
  9 14  1  0  0  0  0
 10 18  1  0  0  0  0
 10 19  1  0  0  0  0
 10 20  1  0  0  0  0
 11 15  2  0  0  0  0
 11 21  1  0  0  0  0
 12 15  1  0  0  0  0
 12 22  1  0  0  0  0
 13 23  1  0  0  0  0
 13 24  1  0  0  0  0
 14 25  1  0  0  0  0
 14 26  1  0  0  0  0
 14 27  1  0  0  0  0
 15 28  1  0  0  0  0
M  END
>  <Mol_ID>
1488

>  <Formula>
C11H13N3O

>  <MolWeight>
203.24042

>  <Cat>
S4509

>  <Name>
4-Aminoantipyrine

>  <Synonyms>
Ampyrone, NSC 60242, Metapirazone, Solnapyrin-A, Solvapyrin-A,  Minoazophene, Aminoazophene,  Aminoantipyrin

>  <Target>
COX

>  <Form>
free base

>  <CAS>
83-07-8

>  <URL>
http://selleckchem.com/products/4-aminoantipyrine.html

$$$$
