4-AMINOHIPPURIC ACID.cdx
 OpenBabel08302522003D

 24 24  0  0  0  0  0  0  0  0999 V2000
   -1.5861    0.5290    3.6134 C   0  0  0  0  0  0  0  0  0  0  0  0
   -1.3585   -0.7636    2.8392 C   0  0  0  0  0  0  0  0  0  0  0  0
   -1.9461   -0.6460    1.5198 N   0  0  0  0  0  0  0  0  0  0  0  0
   -1.9415   -1.6837    0.6189 C   0  0  0  0  0  0  0  0  0  0  0  0
   -1.4124   -2.7661    0.8434 O   0  0  0  0  0  0  0  0  0  0  0  0
   -2.5995   -1.3965   -0.6850 C   0  0  0  0  0  0  0  0  0  0  0  0
   -2.1048   -1.9920   -1.8477 C   0  0  0  0  0  0  0  0  0  0  0  0
   -2.6705   -1.6748   -3.0890 C   0  0  0  0  0  0  0  0  0  0  0  0
   -3.7659   -0.8103   -3.1789 C   0  0  0  0  0  0  0  0  0  0  0  0
   -4.2478   -0.2141   -2.0112 C   0  0  0  0  0  0  0  0  0  0  0  0
   -3.6875   -0.5203   -0.7679 C   0  0  0  0  0  0  0  0  0  0  0  0
   -2.1712    1.5062    3.1610 O   0  0  0  0  0  0  0  0  0  0  0  0
   -1.0696    0.5078    4.8628 O   0  0  0  0  0  0  0  0  0  0  0  0
   -4.2158   -0.3641   -4.4260 N   0  0  0  0  0  0  0  0  0  0  0  0
   -0.2862   -0.9460    2.7286 H   0  0  0  0  0  0  0  0  0  0  0  0
   -1.8390   -1.5970    3.3594 H   0  0  0  0  0  0  0  0  0  0  0  0
   -2.2395    0.2841    1.2347 H   0  0  0  0  0  0  0  0  0  0  0  0
   -1.2601   -2.6751   -1.7974 H   0  0  0  0  0  0  0  0  0  0  0  0
   -2.2390   -2.1046   -3.9896 H   0  0  0  0  0  0  0  0  0  0  0  0
   -5.0641    0.5019   -2.0587 H   0  0  0  0  0  0  0  0  0  0  0  0
   -4.1119   -0.0637    0.1223 H   0  0  0  0  0  0  0  0  0  0  0  0
   -0.6241   -0.3289    5.0980 H   0  0  0  0  0  0  0  0  0  0  0  0
   -5.1626    0.0014   -4.4206 H   0  0  0  0  0  0  0  0  0  0  0  0
   -4.0567   -1.0175   -5.1857 H   0  0  0  0  0  0  0  0  0  0  0  0
  1  2  1  0  0  0  0
  1 12  2  0  0  0  0
  1 13  1  0  0  0  0
  2  3  1  0  0  0  0
  2 15  1  0  0  0  0
  2 16  1  0  0  0  0
  3  4  1  0  0  0  0
  3 17  1  0  0  0  0
  4  5  2  0  0  0  0
  4  6  1  0  0  0  0
  6  7  2  0  0  0  0
  6 11  1  0  0  0  0
  7  8  1  0  0  0  0
  7 18  1  0  0  0  0
  8  9  2  0  0  0  0
  8 19  1  0  0  0  0
  9 10  1  0  0  0  0
  9 14  1  0  0  0  0
 10 11  2  0  0  0  0
 10 20  1  0  0  0  0
 11 21  1  0  0  0  0
 13 22  1  0  0  0  0
 14 23  1  0  0  0  0
 14 24  1  0  0  0  0
M  END
>  <Mol_ID>
1076

>  <Formula>
C9H10N2O3

>  <MolWeight>
194.1873

>  <Cat>
S2883

>  <Name>
4-Aminohippuric Acid

>  <Synonyms>
N/A

>  <Target>
Others

>  <Form>
free base

>  <CAS>
61-78-9

>  <URL>
http://selleckchem.com/products/4-aminohippuric-acid.html

$$$$
