4-Carboxypyrazole
 OpenBabel08302521363D

 12 12  0  0  0  0  0  0  0  0999 V2000
    0.9287    0.0321    0.0748 C   0  0  0  0  0  0  0  0  0  0  0  0
    0.3155    1.2433    0.0729 O   0  0  0  0  0  0  0  0  0  0  0  0
    0.2872   -1.0085    0.0776 O   0  0  0  0  0  0  0  0  0  0  0  0
    2.3793    0.0675    0.0745 C   0  0  0  0  0  0  0  0  0  0  0  0
    3.2422   -1.0541    0.0759 C   0  0  0  0  0  0  0  0  0  0  0  0
    3.2466    1.1457    0.0725 C   0  0  0  0  0  0  0  0  0  0  0  0
    4.5337   -0.7157    0.0746 N   0  0  0  0  0  0  0  0  0  0  0  0
    4.5114    0.6235    0.0725 N   0  0  0  0  0  0  0  0  0  0  0  0
    0.9412    1.9872    0.0706 H   0  0  0  0  0  0  0  0  0  0  0  0
    2.9708   -2.1037    0.0776 H   0  0  0  0  0  0  0  0  0  0  0  0
    3.1048    2.2159    0.0711 H   0  0  0  0  0  0  0  0  0  0  0  0
    5.3987    1.1179    0.0712 H   0  0  0  0  0  0  0  0  0  0  0  0
  1  2  1  0  0  0  0
  1  3  2  0  0  0  0
  1  4  1  0  0  0  0
  2  9  1  0  0  0  0
  4  5  1  0  0  0  0
  4  6  2  0  0  0  0
  5  7  2  0  0  0  0
  5 10  1  0  0  0  0
  6  8  1  0  0  0  0
  6 11  1  0  0  0  0
  7  8  1  0  0  0  0
  8 12  1  0  0  0  0
M  END
>  <Mol_ID>
7099

>  <Formula>
C4H4N2O2

>  <MolWeight>
112.08676

>  <Cat>
E4123

>  <Name>
4-Carboxypyrazole

>  <Synonyms>
4-Carboxypyrazole

>  <Target>
Others

>  <Form>
Free base

>  <CAS>
37718-11-9

>  <URL>
https://www.selleckchem.com/products/4-carboxypyrazole.html

$$$$
