4-CMTB
 OpenBabel08302521313D

 34 35  0  0  0  0  0  0  0  0999 V2000
    1.8550   -4.0938    0.4395 S   0  0  0  0  0  0  0  0  0  0  0  0
   -1.0538   -4.0709    0.5279 O   0  0  0  0  0  0  0  0  0  0  0  0
    0.0560   -2.2183   -0.3411 N   0  0  0  0  0  0  0  0  0  0  0  0
    2.2858   -2.0449   -1.0461 N   0  0  0  0  0  0  0  0  0  0  0  0
   -2.4104   -2.1848   -0.0783 C   0  0  3  0  0  0  0  0  0  0  0  0
   -2.6935   -1.4907    1.2937 C   0  0  0  0  0  0  0  0  0  0  0  0
   -2.5358   -1.4416   -1.4095 C   0  0  0  0  0  0  0  0  0  0  0  0
   -1.9454   -0.1836    1.5700 C   0  0  0  0  0  0  0  0  0  0  0  0
   -4.1910   -1.3257    1.5757 C   0  0  0  0  0  0  0  0  0  0  0  0
   -1.0566   -2.9324    0.0583 C   0  0  0  0  0  0  0  0  0  0  0  0
   -3.0338   -0.1423   -1.5412 C   0  0  0  0  0  0  0  0  0  0  0  0
   -2.1284   -2.1005   -2.5902 C   0  0  0  0  0  0  0  0  0  0  0  0
   -2.9858    0.5268   -2.7689 C   0  0  0  0  0  0  0  0  0  0  0  0
   -2.0723   -1.4329   -3.8148 C   0  0  0  0  0  0  0  0  0  0  0  0
   -2.4722   -0.1054   -3.8965 C   0  0  0  0  0  0  0  0  0  0  0  0
    1.3471   -2.6868   -0.3853 C   0  0  0  0  0  0  0  0  0  0  0  0
    3.4336   -3.8927   -0.1938 C   0  0  0  0  0  0  0  0  0  0  0  0
    3.4720   -2.7521   -0.9634 C   0  0  0  0  0  0  0  0  0  0  0  0
   -0.0663   -1.3547   -0.8469 H   0  0  0  0  0  0  0  0  0  0  0  0
   -3.1531   -2.9943   -0.1653 H   0  0  0  0  0  0  0  0  0  0  0  0
   -2.3385   -2.1886    2.0675 H   0  0  0  0  0  0  0  0  0  0  0  0
   -2.3860    0.6756    1.0606 H   0  0  0  0  0  0  0  0  0  0  0  0
   -1.9884    0.0431    2.6423 H   0  0  0  0  0  0  0  0  0  0  0  0
   -0.8899   -0.2464    1.2958 H   0  0  0  0  0  0  0  0  0  0  0  0
   -4.6979   -2.2964    1.5540 H   0  0  0  0  0  0  0  0  0  0  0  0
   -4.3468   -0.8998    2.5737 H   0  0  0  0  0  0  0  0  0  0  0  0
   -4.6837   -0.6700    0.8545 H   0  0  0  0  0  0  0  0  0  0  0  0
   -3.4677    0.3914   -0.7041 H   0  0  0  0  0  0  0  0  0  0  0  0
   -1.8166   -3.1451   -2.5632 H   0  0  0  0  0  0  0  0  0  0  0  0
   -3.3454    1.5504   -2.8400 H   0  0  0  0  0  0  0  0  0  0  0  0
   -1.7055   -1.9482   -4.6990 H   0  0  0  0  0  0  0  0  0  0  0  0
   -2.4012    0.4299   -4.8394 H   0  0  0  0  0  0  0  0  0  0  0  0
    4.2271   -4.5944    0.0174 H   0  0  0  0  0  0  0  0  0  0  0  0
    4.3449   -2.3873   -1.4907 H   0  0  0  0  0  0  0  0  0  0  0  0
  1 16  1  0  0  0  0
  1 17  1  0  0  0  0
  2 10  2  0  0  0  0
  3 10  1  0  0  0  0
  3 16  1  0  0  0  0
  3 19  1  0  0  0  0
  4 16  2  0  0  0  0
  4 18  1  0  0  0  0
  5  6  1  0  0  0  0
  5  7  1  0  0  0  0
  5 10  1  0  0  0  0
  5 20  1  0  0  0  0
  6  8  1  0  0  0  0
  6  9  1  0  0  0  0
  6 21  1  0  0  0  0
  7 11  2  0  0  0  0
  7 12  1  0  0  0  0
  8 22  1  0  0  0  0
  8 23  1  0  0  0  0
  8 24  1  0  0  0  0
  9 25  1  0  0  0  0
  9 26  1  0  0  0  0
  9 27  1  0  0  0  0
 11 13  1  0  0  0  0
 11 28  1  0  0  0  0
 12 14  2  0  0  0  0
 12 29  1  0  0  0  0
 13 15  2  0  0  0  0
 13 30  1  0  0  0  0
 14 15  1  0  0  0  0
 14 31  1  0  0  0  0
 15 32  1  0  0  0  0
 17 18  2  0  0  0  0
 17 33  1  0  0  0  0
 18 34  1  0  0  0  0
M  END
>  <Mol_ID>
6001

>  <Formula>
C14H15ClN2OS

>  <MolWeight>
294.7997

>  <Cat>
S2954

>  <Name>
4-CMTB

>  <Synonyms>
N/A

>  <Target>
GPR

>  <Form>
Free Base

>  <CAS>
300851-67-6

>  <URL>
http://www.selleckchem.com/products/4-cmtb.html

$$$$
