4-Ethylresorcinol
 OpenBabel08302521463D

 20 20  0  0  0  0  0  0  0  0999 V2000
    0.9530    0.1041   -0.1236 C   0  0  0  0  0  0  0  0  0  0  0  0
    0.5114    1.4655   -0.6493 C   0  0  0  0  0  0  0  0  0  0  0  0
    1.6221   -2.6435    0.6445 O   0  0  0  0  0  0  0  0  0  0  0  0
   -0.3296   -4.5165   -3.1917 O   0  0  0  0  0  0  0  0  0  0  0  0
    0.5689   -1.1140   -0.9367 C   0  0  0  0  0  0  0  0  0  0  0  0
    0.9392   -2.4048   -0.5174 C   0  0  0  0  0  0  0  0  0  0  0  0
   -0.1448   -1.0070   -2.1434 C   0  0  0  0  0  0  0  0  0  0  0  0
    0.6320   -3.5349   -1.2749 C   0  0  0  0  0  0  0  0  0  0  0  0
   -0.4571   -2.1372   -2.9076 C   0  0  0  0  0  0  0  0  0  0  0  0
   -0.0587   -3.3922   -2.4685 C   0  0  0  0  0  0  0  0  0  0  0  0
    0.5404   -0.0103    0.8861 H   0  0  0  0  0  0  0  0  0  0  0  0
    2.0472    0.1200   -0.0373 H   0  0  0  0  0  0  0  0  0  0  0  0
    0.9154    1.6599   -1.6491 H   0  0  0  0  0  0  0  0  0  0  0  0
   -0.5802    1.5383   -0.6946 H   0  0  0  0  0  0  0  0  0  0  0  0
    0.8719    2.2579    0.0135 H   0  0  0  0  0  0  0  0  0  0  0  0
    1.7145   -1.8193    1.1459 H   0  0  0  0  0  0  0  0  0  0  0  0
   -0.7690   -4.2559   -4.0171 H   0  0  0  0  0  0  0  0  0  0  0  0
   -0.4678   -0.0415   -2.5225 H   0  0  0  0  0  0  0  0  0  0  0  0
    0.9360   -4.5191   -0.9340 H   0  0  0  0  0  0  0  0  0  0  0  0
   -1.0050   -2.0136   -3.8367 H   0  0  0  0  0  0  0  0  0  0  0  0
  1  2  1  0  0  0  0
  1  5  1  0  0  0  0
  1 11  1  0  0  0  0
  1 12  1  0  0  0  0
  2 13  1  0  0  0  0
  2 14  1  0  0  0  0
  2 15  1  0  0  0  0
  3  6  1  0  0  0  0
  3 16  1  0  0  0  0
  4 10  1  0  0  0  0
  4 17  1  0  0  0  0
  5  6  2  0  0  0  0
  5  7  1  0  0  0  0
  6  8  1  0  0  0  0
  7  9  2  0  0  0  0
  7 18  1  0  0  0  0
  8 10  2  0  0  0  0
  8 19  1  0  0  0  0
  9 10  1  0  0  0  0
  9 20  1  0  0  0  0
M  END
>  <Mol_ID>
9617

>  <Formula>
C8H10O2

>  <MolWeight>
138.1638

>  <Cat>
E2204

>  <Name>
4-Ethylresorcinol

>  <Synonyms>
N/A

>  <Target>
PKA, Antioxidant

>  <Form>
free base

>  <CAS>
2896-60-8

>  <URL>
https://www.selleckchem.com/products/4-ethylresorcinol.html

$$$$
