4-Ethylphenol
 OpenBabel08302520393D

 19 19  0  0  0  0  0  0  0  0999 V2000
   -1.8778    0.0589   -0.0248 C   0  0  0  0  0  0  0  0  0  0  0  0
   -1.2010   -1.1697   -0.0024 C   0  0  0  0  0  0  0  0  0  0  0  0
   -1.1325    1.2460   -0.0266 C   0  0  0  0  0  0  0  0  0  0  0  0
   -3.3849    0.1020   -0.0305 C   0  0  0  0  0  0  0  0  0  0  0  0
    0.1956   -1.2122    0.0052 C   0  0  0  0  0  0  0  0  0  0  0  0
    0.2633    1.2039   -0.0181 C   0  0  0  0  0  0  0  0  0  0  0  0
   -3.9673    0.1272    1.3744 C   0  0  0  0  0  0  0  0  0  0  0  0
    0.9162   -0.0220   -0.0036 C   0  0  0  0  0  0  0  0  0  0  0  0
    2.2797   -0.0171    0.0019 O   0  0  0  0  0  0  0  0  0  0  0  0
   -1.7609   -2.1021    0.0060 H   0  0  0  0  0  0  0  0  0  0  0  0
   -1.6331    2.2110   -0.0385 H   0  0  0  0  0  0  0  0  0  0  0  0
   -3.7256    0.9838   -0.5868 H   0  0  0  0  0  0  0  0  0  0  0  0
   -3.7740   -0.7671   -0.5754 H   0  0  0  0  0  0  0  0  0  0  0  0
    0.6970   -2.1740    0.0170 H   0  0  0  0  0  0  0  0  0  0  0  0
    0.8384    2.1253   -0.0237 H   0  0  0  0  0  0  0  0  0  0  0  0
   -3.6445    1.0186    1.9228 H   0  0  0  0  0  0  0  0  0  0  0  0
   -5.0610    0.1360    1.3287 H   0  0  0  0  0  0  0  0  0  0  0  0
   -3.6594   -0.7523    1.9501 H   0  0  0  0  0  0  0  0  0  0  0  0
    2.5905   -0.9367    0.0088 H   0  0  0  0  0  0  0  0  0  0  0  0
  1  2  2  0  0  0  0
  1  3  1  0  0  0  0
  1  4  1  0  0  0  0
  2  5  1  0  0  0  0
  2 10  1  0  0  0  0
  3  6  2  0  0  0  0
  3 11  1  0  0  0  0
  4  7  1  0  0  0  0
  4 12  1  0  0  0  0
  4 13  1  0  0  0  0
  5  8  2  0  0  0  0
  5 14  1  0  0  0  0
  6  8  1  0  0  0  0
  6 15  1  0  0  0  0
  7 16  1  0  0  0  0
  7 17  1  0  0  0  0
  7 18  1  0  0  0  0
  8  9  1  0  0  0  0
  9 19  1  0  0  0  0
M  END
>  <Mol_ID>
3651

>  <Formula>
C8H10O

>  <MolWeight>
122.1644

>  <Cat>
S6308

>  <Name>
4-Ethylphenol

>  <Synonyms>
P-Ethylphenol, 4-Hydroxyphenylethane

>  <Target>
Others

>  <Form>
free base

>  <CAS>
123-07-9

>  <URL>
http://www.selleck.cn/products/4-ethylphenol.html

$$$$
