4-Ethyloctanoic acid
 OpenBabel08302520383D

 32 31  0  0  0  0  0  0  0  0999 V2000
    1.0207   -0.0111   -0.0434 C   0  0  3  0  0  0  0  0  0  0  0  0
    0.4657    0.6638    1.2395 C   0  0  0  0  0  0  0  0  0  0  0  0
    0.4135    0.6589   -1.3057 C   0  0  0  0  0  0  0  0  0  0  0  0
    0.7079   -1.5292   -0.0331 C   0  0  0  0  0  0  0  0  0  0  0  0
    0.9755    0.0630    2.5557 C   0  0  0  0  0  0  0  0  0  0  0  0
    0.6699    2.1599   -1.5013 C   0  0  0  0  0  0  0  0  0  0  0  0
    1.2808   -2.3357   -1.1925 C   0  0  0  0  0  0  0  0  0  0  0  0
    0.4472    0.8086    3.7623 C   0  0  0  0  0  0  0  0  0  0  0  0
    2.1363    2.5816   -1.6071 C   0  0  0  0  0  0  0  0  0  0  0  0
    0.8884    0.2688    4.9259 O   0  0  0  0  0  0  0  0  0  0  0  0
   -0.2968    1.7708    3.7332 O   0  0  0  0  0  0  0  0  0  0  0  0
    2.8750    1.9863   -2.7955 C   0  0  0  0  0  0  0  0  0  0  0  0
    2.1102    0.1137   -0.0606 H   0  0  0  0  0  0  0  0  0  0  0  0
    0.7263    1.7285    1.2325 H   0  0  0  0  0  0  0  0  0  0  0  0
   -0.6315    0.6159    1.2297 H   0  0  0  0  0  0  0  0  0  0  0  0
    0.7649    0.1530   -2.2083 H   0  0  0  0  0  0  0  0  0  0  0  0
   -0.6733    0.5084   -1.2885 H   0  0  0  0  0  0  0  0  0  0  0  0
    1.1086   -1.9877    0.8772 H   0  0  0  0  0  0  0  0  0  0  0  0
   -0.3789   -1.6705   -0.0027 H   0  0  0  0  0  0  0  0  0  0  0  0
    0.6408   -0.9715    2.6578 H   0  0  0  0  0  0  0  0  0  0  0  0
    2.0698    0.0998    2.5787 H   0  0  0  0  0  0  0  0  0  0  0  0
    0.1508    2.4710   -2.4179 H   0  0  0  0  0  0  0  0  0  0  0  0
    0.1959    2.7247   -0.6900 H   0  0  0  0  0  0  0  0  0  0  0  0
    2.3525   -2.5073   -1.0507 H   0  0  0  0  0  0  0  0  0  0  0  0
    0.7909   -3.3149   -1.2318 H   0  0  0  0  0  0  0  0  0  0  0  0
    1.1352   -1.8656   -2.1659 H   0  0  0  0  0  0  0  0  0  0  0  0
    2.1723    3.6738   -1.7001 H   0  0  0  0  0  0  0  0  0  0  0  0
    2.6700    2.3315   -0.6824 H   0  0  0  0  0  0  0  0  0  0  0  0
    1.4687   -0.5053    4.8053 H   0  0  0  0  0  0  0  0  0  0  0  0
    2.4063    2.2913   -3.7402 H   0  0  0  0  0  0  0  0  0  0  0  0
    3.9126    2.3275   -2.8083 H   0  0  0  0  0  0  0  0  0  0  0  0
    2.8834    0.8920   -2.7581 H   0  0  0  0  0  0  0  0  0  0  0  0
  1  2  1  0  0  0  0
  1  3  1  0  0  0  0
  1  4  1  0  0  0  0
  1 13  1  0  0  0  0
  2  5  1  0  0  0  0
  2 14  1  0  0  0  0
  2 15  1  0  0  0  0
  3  6  1  0  0  0  0
  3 16  1  0  0  0  0
  3 17  1  0  0  0  0
  4  7  1  0  0  0  0
  4 18  1  0  0  0  0
  4 19  1  0  0  0  0
  5  8  1  0  0  0  0
  5 20  1  0  0  0  0
  5 21  1  0  0  0  0
  6  9  1  0  0  0  0
  6 22  1  0  0  0  0
  6 23  1  0  0  0  0
  7 24  1  0  0  0  0
  7 25  1  0  0  0  0
  7 26  1  0  0  0  0
  8 10  1  0  0  0  0
  8 11  2  0  0  0  0
  9 12  1  0  0  0  0
  9 27  1  0  0  0  0
  9 28  1  0  0  0  0
 10 29  1  0  0  0  0
 12 30  1  0  0  0  0
 12 31  1  0  0  0  0
 12 32  1  0  0  0  0
M  END
>  <Mol_ID>
3524

>  <Formula>
C10H20O2

>  <MolWeight>
172.2646

>  <Cat>
S6039

>  <Name>
4-Ethyloctanoic acid

>  <Synonyms>
N/A

>  <Target>
Others

>  <Form>
free base

>  <CAS>
16493-80-4

>  <URL>
http://www.selleck.cn/products/4-ethyloctanoic-acid.html

$$$$
