4-Ethoxycoumarin
 OpenBabel08302521373D

 24 25  0  0  0  0  0  0  0  0999 V2000
    1.0514   -0.0901    0.1047 O   0  0  0  0  0  0  0  0  0  0  0  0
    0.3807    1.0526    0.6368 C   0  0  0  0  0  0  0  0  0  0  0  0
   -1.1234    0.8059    0.6796 C   0  0  0  0  0  0  0  0  0  0  0  0
    5.2764    2.1159   -0.1270 O   0  0  0  0  0  0  0  0  0  0  0  0
    3.1249   -1.3246    0.0606 C   0  0  0  0  0  0  0  0  0  0  0  0
    4.5192   -1.3510    0.0005 C   0  0  0  0  0  0  0  0  0  0  0  0
    2.4347   -0.0284    0.0172 C   0  0  0  0  0  0  0  0  0  0  0  0
    2.4555   -2.5514    0.1486 C   0  0  0  0  0  0  0  0  0  0  0  0
    5.2709   -0.1663   -0.0761 O   0  0  0  0  0  0  0  0  0  0  0  0
    5.2448   -2.5438    0.0198 C   0  0  0  0  0  0  0  0  0  0  0  0
    3.1712    1.0804   -0.1115 C   0  0  0  0  0  0  0  0  0  0  0  0
    3.1685   -3.7574    0.1681 C   0  0  0  0  0  0  0  0  0  0  0  0
    4.6449    1.0661   -0.1091 C   0  0  0  0  0  0  0  0  0  0  0  0
    4.5616   -3.7533    0.1004 C   0  0  0  0  0  0  0  0  0  0  0  0
    0.7468    1.2511    1.6512 H   0  0  0  0  0  0  0  0  0  0  0  0
    0.5621    1.9271    0.0055 H   0  0  0  0  0  0  0  0  0  0  0  0
   -1.3844   -0.0597    1.2986 H   0  0  0  0  0  0  0  0  0  0  0  0
   -1.6428    1.6831    1.0806 H   0  0  0  0  0  0  0  0  0  0  0  0
   -1.5116    0.6072   -0.3246 H   0  0  0  0  0  0  0  0  0  0  0  0
    1.3687   -2.5839    0.1980 H   0  0  0  0  0  0  0  0  0  0  0  0
    6.3299   -2.5269   -0.0308 H   0  0  0  0  0  0  0  0  0  0  0  0
    2.7492    2.0706   -0.2231 H   0  0  0  0  0  0  0  0  0  0  0  0
    2.6326   -4.7015    0.2321 H   0  0  0  0  0  0  0  0  0  0  0  0
    5.1128   -4.6904    0.1082 H   0  0  0  0  0  0  0  0  0  0  0  0
  1  2  1  0  0  0  0
  1  7  1  0  0  0  0
  2  3  1  0  0  0  0
  2 15  1  0  0  0  0
  2 16  1  0  0  0  0
  3 17  1  0  0  0  0
  3 18  1  0  0  0  0
  3 19  1  0  0  0  0
  4 13  2  0  0  0  0
  5  6  2  0  0  0  0
  5  7  1  0  0  0  0
  5  8  1  0  0  0  0
  6  9  1  0  0  0  0
  6 10  1  0  0  0  0
  7 11  2  0  0  0  0
  8 12  2  0  0  0  0
  8 20  1  0  0  0  0
  9 13  1  0  0  0  0
 10 14  2  0  0  0  0
 10 21  1  0  0  0  0
 11 13  1  0  0  0  0
 11 22  1  0  0  0  0
 12 14  1  0  0  0  0
 12 23  1  0  0  0  0
 14 24  1  0  0  0  0
M  END
>  <Mol_ID>
7445

>  <Formula>
C11H10O3

>  <MolWeight>
190.1953

>  <Cat>
E4547

>  <Name>
4-Ethoxycoumarin

>  <Synonyms>
4-Ethoxycoumarin

>  <Target>
Others

>  <Form>
Free base

>  <CAS>
35817-27-7

>  <URL>
https://www.selleckchem.com/products/4-ethoxycoumarin.html

$$$$
