4-Guanidinobutanoic acid
 OpenBabel08302521383D

 21 20  0  0  0  0  0  0  0  0999 V2000
    1.3220    0.2158    3.2409 C   0  0  0  0  0  0  0  0  0  0  0  0
    0.2858    1.0439    2.5149 C   0  0  0  0  0  0  0  0  0  0  0  0
    2.1670    0.9730    3.9758 O   0  0  0  0  0  0  0  0  0  0  0  0
    1.4108   -1.0008    3.1933 O   0  0  0  0  0  0  0  0  0  0  0  0
   -0.6756    0.1565    1.7276 C   0  0  0  0  0  0  0  0  0  0  0  0
   -1.7611    0.9678    1.0247 C   0  0  0  0  0  0  0  0  0  0  0  0
   -2.6185    0.0836    0.2574 N   0  0  0  0  0  0  0  0  0  0  0  0
   -3.6605    0.5434   -0.4666 C   0  0  0  0  0  0  0  0  0  0  0  0
   -4.3508   -0.4312   -1.0853 N   0  0  0  0  0  0  0  0  0  0  0  0
   -3.9499    1.7876   -0.6001 N   0  0  0  0  0  0  0  0  0  0  0  0
   -0.2696    1.6270    3.2575 H   0  0  0  0  0  0  0  0  0  0  0  0
    0.8053    1.7273    1.8346 H   0  0  0  0  0  0  0  0  0  0  0  0
    1.9892    1.9315    3.9292 H   0  0  0  0  0  0  0  0  0  0  0  0
   -0.1155   -0.4309    0.9880 H   0  0  0  0  0  0  0  0  0  0  0  0
   -1.1451   -0.5714    2.4038 H   0  0  0  0  0  0  0  0  0  0  0  0
   -2.3556    1.5135    1.7673 H   0  0  0  0  0  0  0  0  0  0  0  0
   -1.2966    1.7022    0.3549 H   0  0  0  0  0  0  0  0  0  0  0  0
   -2.6383   -0.8805    0.5526 H   0  0  0  0  0  0  0  0  0  0  0  0
   -5.2598   -0.1829   -1.4523 H   0  0  0  0  0  0  0  0  0  0  0  0
   -4.3308   -1.3484   -0.6654 H   0  0  0  0  0  0  0  0  0  0  0  0
   -4.7445    1.8832   -1.2310 H   0  0  0  0  0  0  0  0  0  0  0  0
  1  2  1  0  0  0  0
  1  3  1  0  0  0  0
  1  4  2  0  0  0  0
  2  5  1  0  0  0  0
  2 11  1  0  0  0  0
  2 12  1  0  0  0  0
  3 13  1  0  0  0  0
  5  6  1  0  0  0  0
  5 14  1  0  0  0  0
  5 15  1  0  0  0  0
  6  7  1  0  0  0  0
  6 16  1  0  0  0  0
  6 17  1  0  0  0  0
  7  8  1  0  0  0  0
  7 18  1  0  0  0  0
  8  9  1  0  0  0  0
  8 10  2  0  0  0  0
  9 19  1  0  0  0  0
  9 20  1  0  0  0  0
 10 21  1  0  0  0  0
M  END
>  <Mol_ID>
7908

>  <Formula>
C5H11N3O2

>  <MolWeight>
145.15974

>  <Cat>
S6137

>  <Name>
4-Guanidinobutanoic acid

>  <Synonyms>
4-Guanidinobutanoate, gamma-Guanidinobutyric acid, gamma-Guanidinobutanoate

>  <Target>
Others

>  <Form>
free base

>  <CAS>
463-00-3

>  <URL>
http://www.selleck.cn/products/4-guanidinobutanoic-acid.html

$$$$
