4-Hydroxy-L-phenylglycine
 OpenBabel08302521453D

 21 21  0  0  1  0  0  0  0  0999 V2000
    1.0235    0.0460   -0.0362 C   0  0  1  0  0  0  0  0  0  0  0  0
    2.2526   -0.5657   -0.7557 C   0  0  0  0  0  0  0  0  0  0  0  0
    1.3076    0.1351    1.4232 N   0  0  0  0  0  0  0  0  0  0  0  0
    2.0641   -0.8531   -2.0657 O   0  0  0  0  0  0  0  0  0  0  0  0
    3.3087   -0.8297   -0.1905 O   0  0  0  0  0  0  0  0  0  0  0  0
   -0.4579    5.0250   -2.3729 O   0  0  0  0  0  0  0  0  0  0  0  0
    0.6112    1.3879   -0.6292 C   0  0  0  0  0  0  0  0  0  0  0  0
    1.1161    2.6009   -0.1259 C   0  0  0  0  0  0  0  0  0  0  0  0
   -0.2699    1.4460   -1.7261 C   0  0  0  0  0  0  0  0  0  0  0  0
    0.7589    3.8261   -0.6911 C   0  0  0  0  0  0  0  0  0  0  0  0
   -0.6132    2.6729   -2.3044 C   0  0  0  0  0  0  0  0  0  0  0  0
   -0.0964    3.8513   -1.7825 C   0  0  0  0  0  0  0  0  0  0  0  0
    0.1963   -0.6660   -0.1397 H   0  0  0  0  0  0  0  0  0  0  0  0
    2.1825    0.6493    1.5270 H   0  0  0  0  0  0  0  0  0  0  0  0
    1.5682   -0.8024    1.7384 H   0  0  0  0  0  0  0  0  0  0  0  0
    1.1939   -0.5863   -2.4101 H   0  0  0  0  0  0  0  0  0  0  0  0
   -0.0056    5.7521   -1.9139 H   0  0  0  0  0  0  0  0  0  0  0  0
    1.7860    2.6122    0.7310 H   0  0  0  0  0  0  0  0  0  0  0  0
   -0.7106    0.5456   -2.1458 H   0  0  0  0  0  0  0  0  0  0  0  0
    1.1583    4.7405   -0.2624 H   0  0  0  0  0  0  0  0  0  0  0  0
   -1.2858    2.7115   -3.1567 H   0  0  0  0  0  0  0  0  0  0  0  0
  1  7  1  0  0  0  0
  1 13  1  6  0  0  0
  1  3  1  0  0  0  0
  1  2  1  0  0  0  0
  2  4  1  0  0  0  0
  2  5  2  0  0  0  0
  3 14  1  0  0  0  0
  3 15  1  0  0  0  0
  4 16  1  0  0  0  0
  6 12  1  0  0  0  0
  6 17  1  0  0  0  0
  7  8  2  0  0  0  0
  7  9  1  0  0  0  0
  8 10  1  0  0  0  0
  8 18  1  0  0  0  0
  9 11  2  0  0  0  0
  9 19  1  0  0  0  0
 10 12  2  0  0  0  0
 10 20  1  0  0  0  0
 11 12  1  0  0  0  0
 11 21  1  0  0  0  0
M  END
>  <Mol_ID>
9518

>  <Formula>
C8H9NO3

>  <MolWeight>
167.16196

>  <Cat>
E4339

>  <Name>
4-Hydroxy-L-phenylglycine

>  <Synonyms>
4-Hydroxy-L-phenylglycine

>  <Target>
Others

>  <Form>
free base

>  <CAS>
32462-30-9

>  <URL>
https://www.selleckchem.com/products/4-hydroxy-l-phenylglycine.html

$$$$
