4-Hydroxybenzylamine
 OpenBabel08302521363D

 18 18  0  0  0  0  0  0  0  0999 V2000
    0.8958   -0.0223    0.0710 C   0  0  0  0  0  0  0  0  0  0  0  0
    1.3172    0.8252    1.1812 N   0  0  0  0  0  0  0  0  0  0  0  0
   -0.6398   -5.1921    1.8144 O   0  0  0  0  0  0  0  0  0  0  0  0
    0.4813   -1.3919    0.5444 C   0  0  0  0  0  0  0  0  0  0  0  0
   -0.5809   -1.5453    1.4503 C   0  0  0  0  0  0  0  0  0  0  0  0
    1.1400   -2.5384    0.0763 C   0  0  0  0  0  0  0  0  0  0  0  0
   -0.9705   -2.8134    1.8876 C   0  0  0  0  0  0  0  0  0  0  0  0
    0.7523   -3.8062    0.5122 C   0  0  0  0  0  0  0  0  0  0  0  0
   -0.2968   -3.9347    1.4143 C   0  0  0  0  0  0  0  0  0  0  0  0
    1.7198   -0.0995   -0.6478 H   0  0  0  0  0  0  0  0  0  0  0  0
    0.0550    0.4446   -0.4544 H   0  0  0  0  0  0  0  0  0  0  0  0
    2.1128    0.3854    1.6414 H   0  0  0  0  0  0  0  0  0  0  0  0
    1.6519    1.7133    0.8134 H   0  0  0  0  0  0  0  0  0  0  0  0
   -1.3855   -5.1236    2.4333 H   0  0  0  0  0  0  0  0  0  0  0  0
   -1.1018   -0.6654    1.8238 H   0  0  0  0  0  0  0  0  0  0  0  0
    1.9608   -2.4529   -0.6323 H   0  0  0  0  0  0  0  0  0  0  0  0
   -1.7898   -2.9026    2.5931 H   0  0  0  0  0  0  0  0  0  0  0  0
    1.2671   -4.6911    0.1496 H   0  0  0  0  0  0  0  0  0  0  0  0
  1  2  1  0  0  0  0
  1  4  1  0  0  0  0
  1 10  1  0  0  0  0
  1 11  1  0  0  0  0
  2 12  1  0  0  0  0
  2 13  1  0  0  0  0
  3  9  1  0  0  0  0
  3 14  1  0  0  0  0
  4  5  2  0  0  0  0
  4  6  1  0  0  0  0
  5  7  1  0  0  0  0
  5 15  1  0  0  0  0
  6  8  2  0  0  0  0
  6 16  1  0  0  0  0
  7  9  2  0  0  0  0
  7 17  1  0  0  0  0
  8  9  1  0  0  0  0
  8 18  1  0  0  0  0
M  END
>  <Mol_ID>
7144

>  <Formula>
C7H9NO

>  <MolWeight>
123.15246

>  <Cat>
E4129

>  <Name>
4-Hydroxybenzylamine

>  <Synonyms>
4-HOBA

>  <Target>
Endogenous Metabolite

>  <Form>
free base

>  <CAS>
696-60-6

>  <URL>
https://www.selleckchem.com/products/4-hydroxybenzylamine.html

$$$$
