4-Hydroxy-2,5-dimethyl-3(2H)furanone
 OpenBabel08302520323D

 17 17  0  0  0  0  0  0  0  0999 V2000
   -0.3355    1.2182   -0.0898 C   0  0  0  0  0  0  0  0  0  0  0  0
    1.0498    0.7595   -0.0603 C   0  0  0  0  0  0  0  0  0  0  0  0
   -1.2388    0.0379   -0.3118 C   0  0  3  0  0  0  0  0  0  0  0  0
   -0.6460    2.3956    0.0182 O   0  0  0  0  0  0  0  0  0  0  0  0
    0.9447   -0.5658   -0.1279 C   0  0  0  0  0  0  0  0  0  0  0  0
    2.1440    1.5585    0.0043 O   0  0  0  0  0  0  0  0  0  0  0  0
   -0.3492   -1.0971   -0.1731 O   0  0  0  0  0  0  0  0  0  0  0  0
   -2.3679   -0.0457    0.6929 C   0  0  0  0  0  0  0  0  0  0  0  0
    2.0665   -1.5446   -0.1634 C   0  0  0  0  0  0  0  0  0  0  0  0
   -1.6130    0.0525   -1.3414 H   0  0  0  0  0  0  0  0  0  0  0  0
    1.7978    2.4736    0.0396 H   0  0  0  0  0  0  0  0  0  0  0  0
   -3.0439    0.8098    0.5952 H   0  0  0  0  0  0  0  0  0  0  0  0
   -2.9435   -0.9656    0.5459 H   0  0  0  0  0  0  0  0  0  0  0  0
   -1.9892   -0.0652    1.7205 H   0  0  0  0  0  0  0  0  0  0  0  0
    2.0648   -2.1632    0.7383 H   0  0  0  0  0  0  0  0  0  0  0  0
    1.9649   -2.2003   -1.0339 H   0  0  0  0  0  0  0  0  0  0  0  0
    3.0392   -1.0466   -0.2344 H   0  0  0  0  0  0  0  0  0  0  0  0
  1  2  1  0  0  0  0
  1  3  1  0  0  0  0
  1  4  2  0  0  0  0
  2  5  2  0  0  0  0
  2  6  1  0  0  0  0
  3  7  1  0  0  0  0
  3  8  1  0  0  0  0
  3 10  1  0  0  0  0
  5  9  1  0  0  0  0
  5  7  1  0  0  0  0
  6 11  1  0  0  0  0
  8 12  1  0  0  0  0
  8 13  1  0  0  0  0
  8 14  1  0  0  0  0
  9 15  1  0  0  0  0
  9 16  1  0  0  0  0
  9 17  1  0  0  0  0
M  END
>  <Mol_ID>
3342

>  <Formula>
C6H8O3

>  <MolWeight>
128.12592

>  <Cat>
S5178

>  <Name>
4-Hydroxy-2,5-dimethyl-3(2H)furanone

>  <Synonyms>
furaneol, HDMF

>  <Target>
Others

>  <Form>
Free Base

>  <CAS>
3658-77-3

>  <URL>
http://www.selleckchem.com/products/4-hydroxy-2-5-dimethyl-3-2h-furanone.html

$$$$
