4-Hydroxyphenylpyruvic acid
 OpenBabel08302521303D

 21 21  0  0  0  0  0  0  0  0999 V2000
    2.2785   -0.0061   -0.0059 O   0  0  0  0  0  0  0  0  0  0  0  0
   -4.2028   -0.8953    2.1111 O   0  0  0  0  0  0  0  0  0  0  0  0
   -4.5596    1.3219    3.3662 O   0  0  0  0  0  0  0  0  0  0  0  0
   -3.9070    2.5186    1.5394 O   0  0  0  0  0  0  0  0  0  0  0  0
   -1.8791    0.0471   -0.0021 C   0  0  0  0  0  0  0  0  0  0  0  0
   -3.3841    0.0885    0.0385 C   0  0  0  0  0  0  0  0  0  0  0  0
   -1.1966   -1.1788   -0.0158 C   0  0  0  0  0  0  0  0  0  0  0  0
   -1.1383    1.2377    0.0080 C   0  0  0  0  0  0  0  0  0  0  0  0
    0.2007   -1.2134   -0.0227 C   0  0  0  0  0  0  0  0  0  0  0  0
    0.2566    1.2021    0.0043 C   0  0  0  0  0  0  0  0  0  0  0  0
    0.9153   -0.0204   -0.0094 C   0  0  0  0  0  0  0  0  0  0  0  0
   -3.9231    0.1001    1.4436 C   0  0  0  0  0  0  0  0  0  0  0  0
   -4.1122    1.4631    2.1028 C   0  0  0  0  0  0  0  0  0  0  0  0
    2.5996   -0.9224   -0.0110 H   0  0  0  0  0  0  0  0  0  0  0  0
   -4.6472    0.3610    3.5737 H   0  0  0  0  0  0  0  0  0  0  0  0
   -3.7648    0.9551   -0.5145 H   0  0  0  0  0  0  0  0  0  0  0  0
   -3.8011   -0.7851   -0.4777 H   0  0  0  0  0  0  0  0  0  0  0  0
   -1.7481   -2.1173   -0.0211 H   0  0  0  0  0  0  0  0  0  0  0  0
   -1.6385    2.2051    0.0196 H   0  0  0  0  0  0  0  0  0  0  0  0
    0.7088   -2.1726   -0.0356 H   0  0  0  0  0  0  0  0  0  0  0  0
    0.8267    2.1271    0.0143 H   0  0  0  0  0  0  0  0  0  0  0  0
  1 11  1  0  0  0  0
  1 14  1  0  0  0  0
  2 12  2  0  0  0  0
  3 13  1  0  0  0  0
  3 15  1  0  0  0  0
  4 13  2  0  0  0  0
  5  6  1  0  0  0  0
  5  7  2  0  0  0  0
  5  8  1  0  0  0  0
  6 12  1  0  0  0  0
  6 16  1  0  0  0  0
  6 17  1  0  0  0  0
  7  9  1  0  0  0  0
  7 18  1  0  0  0  0
  8 10  2  0  0  0  0
  8 19  1  0  0  0  0
  9 11  2  0  0  0  0
  9 20  1  0  0  0  0
 10 11  1  0  0  0  0
 10 21  1  0  0  0  0
 12 13  1  0  0  0  0
M  END
>  <Mol_ID>
5728

>  <Formula>
C9H8O4

>  <MolWeight>
180.15742

>  <Cat>
S2995

>  <Name>
4-Hydroxyphenylpyruvic acid

>  <Synonyms>
4-HPPA

>  <Target>
COX

>  <Form>
Free Base

>  <CAS>
156-39-8

>  <URL>
http://www.selleckchem.com/products/4-hydroxyphenylpyruvic-acid.html

$$$$
