4-Hydroxy-5-methylfuran-3(2H)-one
 OpenBabel08302521533D

 14 14  0  0  0  0  0  0  0  0999 V2000
    1.1871    0.3306    0.1590 O   0  0  0  0  0  0  0  0  0  0  0  0
    1.5548    0.7300   -2.7020 O   0  0  0  0  0  0  0  0  0  0  0  0
   -1.5894    1.5753    0.8063 C   0  0  0  0  0  0  0  0  0  0  0  0
    0.3277    0.9333   -0.6999 C   0  0  0  0  0  0  0  0  0  0  0  0
    0.5405    1.1035   -2.1327 C   0  0  0  0  0  0  0  0  0  0  0  0
   -0.8662    1.4858   -0.4911 C   0  0  0  0  0  0  0  0  0  0  0  0
   -0.6577    1.7676   -2.7367 C   0  0  0  0  0  0  0  0  0  0  0  0
   -1.5158    2.0290   -1.6030 O   0  0  0  0  0  0  0  0  0  0  0  0
    1.9516    0.0551   -0.3866 H   0  0  0  0  0  0  0  0  0  0  0  0
   -1.6752    2.6194    1.1213 H   0  0  0  0  0  0  0  0  0  0  0  0
   -2.5977    1.1605    0.7066 H   0  0  0  0  0  0  0  0  0  0  0  0
   -1.0770    1.0209    1.5989 H   0  0  0  0  0  0  0  0  0  0  0  0
   -0.3899    2.7133   -3.2122 H   0  0  0  0  0  0  0  0  0  0  0  0
   -1.1716    1.0912   -3.4241 H   0  0  0  0  0  0  0  0  0  0  0  0
  1  4  1  0  0  0  0
  1  9  1  0  0  0  0
  2  5  2  0  0  0  0
  3  6  1  0  0  0  0
  3 10  1  0  0  0  0
  3 11  1  0  0  0  0
  3 12  1  0  0  0  0
  4  5  1  0  0  0  0
  4  6  2  0  0  0  0
  5  7  1  0  0  0  0
  6  8  1  0  0  0  0
  7  8  1  0  0  0  0
  7 13  1  0  0  0  0
  7 14  1  0  0  0  0
M  END
>  <Mol_ID>
9961

>  <Formula>
C5H6O3

>  <MolWeight>
114.09934

>  <Cat>
E5217

>  <Name>
4-Hydroxy-5-methylfuran-3(2H)-one

>  <Synonyms>
norfuraneol

>  <Target>
Fungal

>  <Form>
free base

>  <CAS>
19322-27-1

>  <URL>
https://www.selleckchem.com/products/4-hydroxy-5-methylfuran-3-2h-one.html

$$$$
