4-Hydroxyflavanone
 OpenBabel08302521373D

 30 32  0  0  0  0  0  0  0  0999 V2000
   -1.7594   -2.0028    0.0134 O   0  0  0  0  0  0  0  0  0  0  0  0
   -5.1111    5.9744   -1.0612 O   0  0  0  0  0  0  0  0  0  0  0  0
   -1.7956    1.5537    0.2853 C   0  0  3  0  0  0  0  0  0  0  0  0
   -0.4429    1.8732   -0.0817 O   0  0  0  0  0  0  0  0  0  0  0  0
   -2.3010    0.2948   -0.4065 C   0  0  0  0  0  0  0  0  0  0  0  0
    0.4358    0.8320   -0.0121 C   0  0  0  0  0  0  0  0  0  0  0  0
   -1.3728   -0.8424   -0.0892 C   0  0  0  0  0  0  0  0  0  0  0  0
    0.0589   -0.5084    0.0031 C   0  0  0  0  0  0  0  0  0  0  0  0
    1.7892    1.1696   -0.0034 C   0  0  0  0  0  0  0  0  0  0  0  0
    1.0271   -1.5166    0.0454 C   0  0  0  0  0  0  0  0  0  0  0  0
    2.7606    0.1678    0.0333 C   0  0  0  0  0  0  0  0  0  0  0  0
    2.3804   -1.1746    0.0587 C   0  0  0  0  0  0  0  0  0  0  0  0
   -2.6709    2.7431   -0.0848 C   0  0  0  0  0  0  0  0  0  0  0  0
   -2.3576    3.5631   -1.1840 C   0  0  0  0  0  0  0  0  0  0  0  0
   -3.8309    3.0270    0.6532 C   0  0  0  0  0  0  0  0  0  0  0  0
   -3.1628    4.6529   -1.5223 C   0  0  0  0  0  0  0  0  0  0  0  0
   -4.6404    4.1145    0.3109 C   0  0  0  0  0  0  0  0  0  0  0  0
   -4.2980    4.9197   -0.7684 C   0  0  0  0  0  0  0  0  0  0  0  0
   -4.7371    6.4512   -1.8207 H   0  0  0  0  0  0  0  0  0  0  0  0
   -1.8131    1.4324    1.3775 H   0  0  0  0  0  0  0  0  0  0  0  0
   -2.3302    0.4056   -1.4967 H   0  0  0  0  0  0  0  0  0  0  0  0
   -3.3065    0.0399   -0.0530 H   0  0  0  0  0  0  0  0  0  0  0  0
    2.0877    2.2148   -0.0265 H   0  0  0  0  0  0  0  0  0  0  0  0
    0.7322   -2.5642    0.0460 H   0  0  0  0  0  0  0  0  0  0  0  0
    3.8147    0.4356    0.0366 H   0  0  0  0  0  0  0  0  0  0  0  0
    3.1384   -1.9542    0.0769 H   0  0  0  0  0  0  0  0  0  0  0  0
   -1.4715    3.3627   -1.7836 H   0  0  0  0  0  0  0  0  0  0  0  0
   -4.1148    2.4080    1.5017 H   0  0  0  0  0  0  0  0  0  0  0  0
   -2.8858    5.2738   -2.3681 H   0  0  0  0  0  0  0  0  0  0  0  0
   -5.5343    4.3342    0.8867 H   0  0  0  0  0  0  0  0  0  0  0  0
  1  7  2  0  0  0  0
  2 18  1  0  0  0  0
  2 19  1  0  0  0  0
  3  4  1  0  0  0  0
  3  5  1  0  0  0  0
  3 13  1  0  0  0  0
  3 20  1  0  0  0  0
  4  6  1  0  0  0  0
  5  7  1  0  0  0  0
  5 21  1  0  0  0  0
  5 22  1  0  0  0  0
  6  8  2  0  0  0  0
  6  9  1  0  0  0  0
  7  8  1  0  0  0  0
  8 10  1  0  0  0  0
  9 11  2  0  0  0  0
  9 23  1  0  0  0  0
 10 12  2  0  0  0  0
 10 24  1  0  0  0  0
 11 12  1  0  0  0  0
 11 25  1  0  0  0  0
 12 26  1  0  0  0  0
 13 14  2  0  0  0  0
 13 15  1  0  0  0  0
 14 16  1  0  0  0  0
 14 27  1  0  0  0  0
 15 17  2  0  0  0  0
 15 28  1  0  0  0  0
 16 18  2  0  0  0  0
 16 29  1  0  0  0  0
 17 18  1  0  0  0  0
 17 30  1  0  0  0  0
M  END
>  <Mol_ID>
7468

>  <Formula>
C15H12O3

>  <MolWeight>
240.25398

>  <Cat>
E4573

>  <Name>
4-Hydroxyflavanone

>  <Synonyms>
4-Hydroxyflavanone

>  <Target>
NO Synthase

>  <Form>
Free base

>  <CAS>
6515-37-3

>  <URL>
https://www.selleckchem.com/products/4-hydroxyflavanone.html

$$$$
