4-Hydroxy-6-methylcoumarin
 OpenBabel08302521373D

 21 22  0  0  0  0  0  0  0  0999 V2000
    1.0615   -0.0609    0.1891 O   0  0  0  0  0  0  0  0  0  0  0  0
    0.5367    3.8586    2.7852 O   0  0  0  0  0  0  0  0  0  0  0  0
   -2.9008   -3.0047    1.7407 C   0  0  0  0  0  0  0  0  0  0  0  0
   -1.3400    0.8310    2.8295 C   0  0  0  0  0  0  0  0  0  0  0  0
   -0.7144    0.1092    1.8157 C   0  0  0  0  0  0  0  0  0  0  0  0
   -0.8815    2.1096    3.2022 O   0  0  0  0  0  0  0  0  0  0  0  0
   -2.4544    0.3375    3.5043 C   0  0  0  0  0  0  0  0  0  0  0  0
    0.4372    0.7059    1.1466 C   0  0  0  0  0  0  0  0  0  0  0  0
   -1.2330   -1.1458    1.4765 C   0  0  0  0  0  0  0  0  0  0  0  0
    0.1590    2.7198    2.5215 C   0  0  0  0  0  0  0  0  0  0  0  0
   -2.9723   -0.9065    3.1456 C   0  0  0  0  0  0  0  0  0  0  0  0
    0.8281    1.9434    1.4675 C   0  0  0  0  0  0  0  0  0  0  0  0
   -2.3673   -1.6569    2.1289 C   0  0  0  0  0  0  0  0  0  0  0  0
    1.8552    0.4044   -0.1255 H   0  0  0  0  0  0  0  0  0  0  0  0
   -3.0890   -3.0414    0.6627 H   0  0  0  0  0  0  0  0  0  0  0  0
   -2.1790   -3.7833    2.0067 H   0  0  0  0  0  0  0  0  0  0  0  0
   -3.8441   -3.2253    2.2506 H   0  0  0  0  0  0  0  0  0  0  0  0
   -2.9210    0.9195    4.2938 H   0  0  0  0  0  0  0  0  0  0  0  0
   -0.7609   -1.7299    0.6884 H   0  0  0  0  0  0  0  0  0  0  0  0
   -3.8534   -1.2836    3.6598 H   0  0  0  0  0  0  0  0  0  0  0  0
    1.6537    2.4426    0.9782 H   0  0  0  0  0  0  0  0  0  0  0  0
  1  8  1  0  0  0  0
  1 14  1  0  0  0  0
  2 10  2  0  0  0  0
  3 13  1  0  0  0  0
  3 15  1  0  0  0  0
  3 16  1  0  0  0  0
  3 17  1  0  0  0  0
  4  5  2  0  0  0  0
  4  6  1  0  0  0  0
  4  7  1  0  0  0  0
  5  8  1  0  0  0  0
  5  9  1  0  0  0  0
  6 10  1  0  0  0  0
  7 11  2  0  0  0  0
  7 18  1  0  0  0  0
  8 12  2  0  0  0  0
  9 13  2  0  0  0  0
  9 19  1  0  0  0  0
 10 12  1  0  0  0  0
 11 13  1  0  0  0  0
 11 20  1  0  0  0  0
 12 21  1  0  0  0  0
M  END
>  <Mol_ID>
7379

>  <Formula>
C10H8O3

>  <MolWeight>
176.16872

>  <Cat>
E4435

>  <Name>
4-Hydroxy-6-methylcoumarin

>  <Synonyms>
4-Hydroxy-6-methylcoumarin

>  <Target>
Others

>  <Form>
free base

>  <CAS>
13252-83-0

>  <URL>
https://www.selleckchem.com/products/4-hydroxy-6-methylcoumarin.html

$$$$
