4-Hydroxycoumarin
 OpenBabel08302521363D

 18 19  0  0  0  0  0  0  0  0999 V2000
    0.4013   -2.7648   -0.0065 O   0  0  0  0  0  0  0  0  0  0  0  0
    3.1333    1.0949    0.0208 O   0  0  0  0  0  0  0  0  0  0  0  0
   -0.5863   -0.5597   -0.0075 C   0  0  0  0  0  0  0  0  0  0  0  0
   -0.4190    0.8239    0.0314 C   0  0  0  0  0  0  0  0  0  0  0  0
    0.6066   -1.4033   -0.0017 C   0  0  0  0  0  0  0  0  0  0  0  0
   -1.8882   -1.0698   -0.0455 C   0  0  0  0  0  0  0  0  0  0  0  0
    0.8648    1.4018    0.0534 O   0  0  0  0  0  0  0  0  0  0  0  0
   -1.5053    1.6978    0.0458 C   0  0  0  0  0  0  0  0  0  0  0  0
    1.8196   -0.8442    0.0150 C   0  0  0  0  0  0  0  0  0  0  0  0
   -2.9882   -0.2051   -0.0360 C   0  0  0  0  0  0  0  0  0  0  0  0
    2.0049    0.6151    0.0274 C   0  0  0  0  0  0  0  0  0  0  0  0
   -2.7967    1.1767    0.0134 C   0  0  0  0  0  0  0  0  0  0  0  0
    1.2614   -3.2177    0.0192 H   0  0  0  0  0  0  0  0  0  0  0  0
   -2.0575   -2.1437   -0.0827 H   0  0  0  0  0  0  0  0  0  0  0  0
   -1.3462    2.7716    0.0813 H   0  0  0  0  0  0  0  0  0  0  0  0
    2.7329   -1.4241    0.0203 H   0  0  0  0  0  0  0  0  0  0  0  0
   -3.9959   -0.6129   -0.0656 H   0  0  0  0  0  0  0  0  0  0  0  0
   -3.6541    1.8449    0.0251 H   0  0  0  0  0  0  0  0  0  0  0  0
  1  5  1  0  0  0  0
  1 13  1  0  0  0  0
  2 11  2  0  0  0  0
  3  4  2  0  0  0  0
  3  5  1  0  0  0  0
  3  6  1  0  0  0  0
  4  7  1  0  0  0  0
  4  8  1  0  0  0  0
  5  9  2  0  0  0  0
  6 10  2  0  0  0  0
  6 14  1  0  0  0  0
  7 11  1  0  0  0  0
  8 12  2  0  0  0  0
  8 15  1  0  0  0  0
  9 11  1  0  0  0  0
  9 16  1  0  0  0  0
 10 12  1  0  0  0  0
 10 17  1  0  0  0  0
 12 18  1  0  0  0  0
M  END
>  <Mol_ID>
7036

>  <Formula>
C9H6O3

>  <MolWeight>
162.14214

>  <Cat>
E2662

>  <Name>
4-Hydroxycoumarin

>  <Synonyms>
4-Hydroxycoumarin

>  <Target>
AChR

>  <Form>
free base

>  <CAS>
1076-38-6

>  <URL>
https://www.selleckchem.com/products/4-hydroxycoumarin.html

$$$$
