4-IBP
 OpenBabel08302520403D

 44 46  0  0  0  0  0  0  0  0999 V2000
    1.3231    0.0020    0.2349 N   0  0  0  0  0  0  0  0  0  0  0  0
    2.7171    0.0005   -0.2641 C   0  0  0  0  0  0  0  0  0  0  0  0
    0.6066    1.2160   -0.1912 C   0  0  0  0  0  0  0  0  0  0  0  0
    0.6185   -1.2080   -0.2286 C   0  0  0  0  0  0  0  0  0  0  0  0
    3.5622    1.1339    0.2887 C   0  0  0  0  0  0  0  0  0  0  0  0
   -0.8141    1.2353    0.3658 C   0  0  0  0  0  0  0  0  0  0  0  0
   -0.8240   -1.2622    0.2875 C   0  0  0  0  0  0  0  0  0  0  0  0
    3.7378    1.2882    1.6722 C   0  0  0  0  0  0  0  0  0  0  0  0
    4.1643    2.0629   -0.5742 C   0  0  0  0  0  0  0  0  0  0  0  0
   -1.5840    0.0062   -0.1037 C   0  0  0  0  0  0  0  0  0  0  0  0
    4.4527    2.3745    2.1811 C   0  0  0  0  0  0  0  0  0  0  0  0
    4.8889    3.1434   -0.0639 C   0  0  0  0  0  0  0  0  0  0  0  0
   -2.9374    0.0246    0.4352 N   0  0  0  0  0  0  0  0  0  0  0  0
    5.0204    3.3066    1.3138 C   0  0  0  0  0  0  0  0  0  0  0  0
   -3.9880   -0.5832   -0.2233 C   0  0  0  0  0  0  0  0  0  0  0  0
   -5.3206   -0.4977    0.4354 C   0  0  0  0  0  0  0  0  0  0  0  0
   -3.8633   -1.1808   -1.2859 O   0  0  0  0  0  0  0  0  0  0  0  0
   -5.6655    0.5562    1.2919 C   0  0  0  0  0  0  0  0  0  0  0  0
   -6.2673   -1.4898    0.1451 C   0  0  0  0  0  0  0  0  0  0  0  0
   -6.9414    0.6035    1.8687 C   0  0  0  0  0  0  0  0  0  0  0  0
   -7.5395   -1.4435    0.7216 C   0  0  0  0  0  0  0  0  0  0  0  0
   -7.8704   -0.3976    1.5823 C   0  0  0  0  0  0  0  0  0  0  0  0
   -9.7669   -0.3190    2.4288 I   0  0  0  0  0  0  0  0  0  0  0  0
    3.2135   -0.9353    0.0253 H   0  0  0  0  0  0  0  0  0  0  0  0
    2.7253    0.0296   -1.3621 H   0  0  0  0  0  0  0  0  0  0  0  0
    0.5758    1.2866   -1.2863 H   0  0  0  0  0  0  0  0  0  0  0  0
    1.1096    2.1152    0.1797 H   0  0  0  0  0  0  0  0  0  0  0  0
    1.1417   -2.1018    0.1328 H   0  0  0  0  0  0  0  0  0  0  0  0
    0.6131   -1.2572   -1.3257 H   0  0  0  0  0  0  0  0  0  0  0  0
   -1.3267    2.1476    0.0387 H   0  0  0  0  0  0  0  0  0  0  0  0
   -0.7850    1.2712    1.4632 H   0  0  0  0  0  0  0  0  0  0  0  0
   -0.8225   -1.3811    1.3790 H   0  0  0  0  0  0  0  0  0  0  0  0
   -1.3262   -2.1479   -0.1206 H   0  0  0  0  0  0  0  0  0  0  0  0
    3.2930    0.5700    2.3577 H   0  0  0  0  0  0  0  0  0  0  0  0
    4.0596    1.9609   -1.6518 H   0  0  0  0  0  0  0  0  0  0  0  0
   -1.6652    0.0393   -1.1976 H   0  0  0  0  0  0  0  0  0  0  0  0
    4.5566    2.4997    3.2557 H   0  0  0  0  0  0  0  0  0  0  0  0
    5.3428    3.8614   -0.7410 H   0  0  0  0  0  0  0  0  0  0  0  0
   -3.0576    0.3080    1.3979 H   0  0  0  0  0  0  0  0  0  0  0  0
    5.5639    4.1595    1.7110 H   0  0  0  0  0  0  0  0  0  0  0  0
   -4.9731    1.3667    1.4965 H   0  0  0  0  0  0  0  0  0  0  0  0
   -6.0143   -2.3011   -0.5352 H   0  0  0  0  0  0  0  0  0  0  0  0
   -7.1974    1.4304    2.5264 H   0  0  0  0  0  0  0  0  0  0  0  0
   -8.2575   -2.2241    0.4832 H   0  0  0  0  0  0  0  0  0  0  0  0
  1  2  1  0  0  0  0
  1  3  1  0  0  0  0
  1  4  1  0  0  0  0
  2  5  1  0  0  0  0
  2 24  1  0  0  0  0
  2 25  1  0  0  0  0
  3  6  1  0  0  0  0
  3 26  1  0  0  0  0
  3 27  1  0  0  0  0
  4  7  1  0  0  0  0
  4 28  1  0  0  0  0
  4 29  1  0  0  0  0
  5  8  2  0  0  0  0
  5  9  1  0  0  0  0
  6 10  1  0  0  0  0
  6 30  1  0  0  0  0
  6 31  1  0  0  0  0
  7 10  1  0  0  0  0
  7 32  1  0  0  0  0
  7 33  1  0  0  0  0
  8 11  1  0  0  0  0
  8 34  1  0  0  0  0
  9 12  2  0  0  0  0
  9 35  1  0  0  0  0
 10 13  1  0  0  0  0
 10 36  1  0  0  0  0
 11 14  2  0  0  0  0
 11 37  1  0  0  0  0
 12 14  1  0  0  0  0
 12 38  1  0  0  0  0
 13 15  1  0  0  0  0
 13 39  1  0  0  0  0
 14 40  1  0  0  0  0
 15 16  1  0  0  0  0
 15 17  2  0  0  0  0
 16 18  2  0  0  0  0
 16 19  1  0  0  0  0
 18 20  1  0  0  0  0
 18 41  1  0  0  0  0
 19 21  2  0  0  0  0
 19 42  1  0  0  0  0
 20 22  2  0  0  0  0
 20 43  1  0  0  0  0
 21 22  1  0  0  0  0
 21 44  1  0  0  0  0
 22 23  1  0  0  0  0
M  END
>  <Mol_ID>
3835

>  <Formula>
C19H21IN2O

>  <MolWeight>
420.28731

>  <Cat>
S6561

>  <Name>
4-IBP

>  <Synonyms>
N/A

>  <Target>
Sigma Receptor

>  <Form>
free base

>  <CAS>
155798-08-6

>  <URL>
http://www.selleck.cn/products/4-ibp.html

$$$$
