4-IPP
 OpenBabel08302521233D

 20 21  0  0  0  0  0  0  0  0999 V2000
   -0.5932    1.0607    0.4688 C   0  0  0  0  0  0  0  0  0  0  0  0
   -1.3666    0.0212    0.1434 N   0  0  0  0  0  0  0  0  0  0  0  0
   -0.7130   -1.0592   -0.3120 C   0  0  0  0  0  0  0  0  0  0  0  0
    0.6554   -1.1228   -0.4517 C   0  0  0  0  0  0  0  0  0  0  0  0
    1.3651    0.0120   -0.1052 C   0  0  0  0  0  0  0  0  0  0  0  0
    0.7436    1.1134    0.3727 N   0  0  0  0  0  0  0  0  0  0  0  0
    2.8365    0.0893   -0.2292 C   0  0  0  0  0  0  0  0  0  0  0  0
    3.5282   -0.6054   -1.2411 C   0  0  0  0  0  0  0  0  0  0  0  0
    4.9224   -0.5682   -1.3324 C   0  0  0  0  0  0  0  0  0  0  0  0
    5.6593    0.1771   -0.4187 C   0  0  0  0  0  0  0  0  0  0  0  0
    5.0019    0.8969    0.5753 C   0  0  0  0  0  0  0  0  0  0  0  0
    3.6061    0.8563    0.6651 C   0  0  0  0  0  0  0  0  0  0  0  0
   -1.8522   -2.7260   -0.8500 I   0  0  0  0  0  0  0  0  0  0  0  0
   -1.0942    1.9461    0.8457 H   0  0  0  0  0  0  0  0  0  0  0  0
    1.1479   -2.0190   -0.8024 H   0  0  0  0  0  0  0  0  0  0  0  0
    2.9860   -1.1805   -1.9882 H   0  0  0  0  0  0  0  0  0  0  0  0
    5.4287   -1.1210   -2.1198 H   0  0  0  0  0  0  0  0  0  0  0  0
    6.7437    0.2022   -0.4851 H   0  0  0  0  0  0  0  0  0  0  0  0
    5.5736    1.4894    1.2849 H   0  0  0  0  0  0  0  0  0  0  0  0
    3.1153    1.4265    1.4530 H   0  0  0  0  0  0  0  0  0  0  0  0
  1  2  2  0  0  0  0
  1  6  1  0  0  0  0
  1 14  1  0  0  0  0
  2  3  1  0  0  0  0
  3  4  2  0  0  0  0
  3 13  1  0  0  0  0
  4  5  1  0  0  0  0
  4 15  1  0  0  0  0
  5  6  2  0  0  0  0
  5  7  1  0  0  0  0
  7  8  2  0  0  0  0
  7 12  1  0  0  0  0
  8  9  1  0  0  0  0
  8 16  1  0  0  0  0
  9 10  2  0  0  0  0
  9 17  1  0  0  0  0
 10 11  1  0  0  0  0
 10 18  1  0  0  0  0
 11 12  2  0  0  0  0
 11 19  1  0  0  0  0
 12 20  1  0  0  0  0
M  END
>  <Mol_ID>
4885

>  <Formula>
C10H7IN2

>  <MolWeight>
282.08045

>  <Cat>
S2643

>  <Name>
4-IPP

>  <Synonyms>
4-Iodo-6-phenylpyrimidine

>  <Target>
MIF

>  <Form>
Free Base

>  <CAS>
41270-96-6

>  <URL>
http://www.selleck.cn/products/4-ipp.html

$$$$
