4-Isopropylbenzoic acid
 OpenBabel08302521363D

 24 24  0  0  0  0  0  0  0  0999 V2000
    0.8681   -0.0315   -0.0129 C   0  0  0  0  0  0  0  0  0  0  0  0
    0.4374   -0.9091   -1.1908 C   0  0  0  0  0  0  0  0  0  0  0  0
    0.4201   -0.6480    1.3156 C   0  0  0  0  0  0  0  0  0  0  0  0
   -1.0974    5.4415   -0.3309 C   0  0  0  0  0  0  0  0  0  0  0  0
   -0.2968    6.3502   -0.9241 O   0  0  0  0  0  0  0  0  0  0  0  0
   -2.1956    5.7218    0.1175 O   0  0  0  0  0  0  0  0  0  0  0  0
    0.3643    1.3966   -0.1495 C   0  0  0  0  0  0  0  0  0  0  0  0
   -1.0066    1.6802   -0.2265 C   0  0  0  0  0  0  0  0  0  0  0  0
    1.2725    2.4665   -0.1572 C   0  0  0  0  0  0  0  0  0  0  0  0
   -1.4590    3.0001   -0.2999 C   0  0  0  0  0  0  0  0  0  0  0  0
    0.8232    3.7913   -0.2279 C   0  0  0  0  0  0  0  0  0  0  0  0
   -0.5482    4.0605   -0.3062 C   0  0  0  0  0  0  0  0  0  0  0  0
    1.9663   -0.0150   -0.0103 H   0  0  0  0  0  0  0  0  0  0  0  0
    0.8602   -1.9152   -1.0953 H   0  0  0  0  0  0  0  0  0  0  0  0
   -0.6514   -1.0130   -1.2512 H   0  0  0  0  0  0  0  0  0  0  0  0
    0.7864   -0.4881   -2.1400 H   0  0  0  0  0  0  0  0  0  0  0  0
    0.7569   -0.0395    2.1625 H   0  0  0  0  0  0  0  0  0  0  0  0
   -0.6703   -0.7329    1.3804 H   0  0  0  0  0  0  0  0  0  0  0  0
    0.8392   -1.6526    1.4373 H   0  0  0  0  0  0  0  0  0  0  0  0
    0.4666    5.9775   -1.4027 H   0  0  0  0  0  0  0  0  0  0  0  0
   -1.7411    0.8781   -0.2057 H   0  0  0  0  0  0  0  0  0  0  0  0
    2.3423    2.2757   -0.0831 H   0  0  0  0  0  0  0  0  0  0  0  0
   -2.5292    3.1977   -0.3358 H   0  0  0  0  0  0  0  0  0  0  0  0
    1.5572    4.5908   -0.1766 H   0  0  0  0  0  0  0  0  0  0  0  0
  1  2  1  0  0  0  0
  1  3  1  0  0  0  0
  1  7  1  0  0  0  0
  1 13  1  0  0  0  0
  2 14  1  0  0  0  0
  2 15  1  0  0  0  0
  2 16  1  0  0  0  0
  3 17  1  0  0  0  0
  3 18  1  0  0  0  0
  3 19  1  0  0  0  0
  4  5  1  0  0  0  0
  4  6  2  0  0  0  0
  4 12  1  0  0  0  0
  5 20  1  0  0  0  0
  7  8  2  0  0  0  0
  7  9  1  0  0  0  0
  8 10  1  0  0  0  0
  8 21  1  0  0  0  0
  9 11  2  0  0  0  0
  9 22  1  0  0  0  0
 10 12  2  0  0  0  0
 10 23  1  0  0  0  0
 11 12  1  0  0  0  0
 11 24  1  0  0  0  0
M  END
>  <Mol_ID>
7190

>  <Formula>
C10H12O2

>  <MolWeight>
164.20108

>  <Cat>
E4190

>  <Name>
4-Isopropylbenzoic acid

>  <Target>
Fungal

>  <Form>
Free base

>  <CAS>
536-66-3

>  <URL>
https://www.selleckchem.com/products/4-isopropylbenzoic-acid.html

$$$$
