4-Methylvaleric acid
 OpenBabel08302520393D

 20 19  0  0  0  0  0  0  0  0999 V2000
    0.9202    0.1373   -0.0912 C   0  0  0  0  0  0  0  0  0  0  0  0
    0.4063   -0.3678    1.2699 C   0  0  0  0  0  0  0  0  0  0  0  0
    0.4607    1.5635   -0.3985 C   0  0  0  0  0  0  0  0  0  0  0  0
    0.4510   -0.8075   -1.2021 C   0  0  0  0  0  0  0  0  0  0  0  0
    0.8595    0.4798    2.4597 C   0  0  0  0  0  0  0  0  0  0  0  0
    0.3259   -0.0620    3.7678 C   0  0  0  0  0  0  0  0  0  0  0  0
    0.7068    0.6919    4.8266 O   0  0  0  0  0  0  0  0  0  0  0  0
   -0.3696   -1.0552    3.8939 O   0  0  0  0  0  0  0  0  0  0  0  0
    2.0176    0.1250   -0.0823 H   0  0  0  0  0  0  0  0  0  0  0  0
   -0.6909   -0.4156    1.2542 H   0  0  0  0  0  0  0  0  0  0  0  0
    0.7527   -1.3990    1.4189 H   0  0  0  0  0  0  0  0  0  0  0  0
    0.6619    1.8265   -1.4428 H   0  0  0  0  0  0  0  0  0  0  0  0
   -0.6132    1.6832   -0.2211 H   0  0  0  0  0  0  0  0  0  0  0  0
    0.9933    2.2887    0.2249 H   0  0  0  0  0  0  0  0  0  0  0  0
    0.8307   -0.4824   -2.1765 H   0  0  0  0  0  0  0  0  0  0  0  0
    0.8145   -1.8254   -1.0269 H   0  0  0  0  0  0  0  0  0  0  0  0
   -0.6423   -0.8411   -1.2589 H   0  0  0  0  0  0  0  0  0  0  0  0
    1.9532    0.4890    2.5118 H   0  0  0  0  0  0  0  0  0  0  0  0
    0.4921    1.5059    2.3559 H   0  0  0  0  0  0  0  0  0  0  0  0
    1.2571    1.4596    4.5848 H   0  0  0  0  0  0  0  0  0  0  0  0
  1  2  1  0  0  0  0
  1  3  1  0  0  0  0
  1  4  1  0  0  0  0
  1  9  1  0  0  0  0
  2  5  1  0  0  0  0
  2 10  1  0  0  0  0
  2 11  1  0  0  0  0
  3 12  1  0  0  0  0
  3 13  1  0  0  0  0
  3 14  1  0  0  0  0
  4 15  1  0  0  0  0
  4 16  1  0  0  0  0
  4 17  1  0  0  0  0
  5  6  1  0  0  0  0
  5 18  1  0  0  0  0
  5 19  1  0  0  0  0
  6  7  1  0  0  0  0
  6  8  2  0  0  0  0
  7 20  1  0  0  0  0
M  END
>  <Mol_ID>
3629

>  <Formula>
C6H12O2

>  <MolWeight>
116.15828

>  <Cat>
S6278

>  <Name>
4-Methylvaleric acid

>  <Synonyms>
Isocaproic acid, Isohexanoic acid, Isobutylacetic acid, Isobutylacetate, Isohexanoate, Isocaproate, 4-Methylpentanoate, 4-Methylpentanoic acid

>  <Target>
Others

>  <Form>
free base

>  <CAS>
646-07-1

>  <URL>
http://www.selleck.cn/products/4-methylvaleric-acid.html

$$$$
