4-Methylumbelliferone.cdx
 OpenBabel08302521353D

 21 22  0  0  0  0  0  0  0  0999 V2000
    1.4314   -1.1877   -0.0246 C   0  0  0  0  0  0  0  0  0  0  0  0
    2.5824   -0.4163    0.0032 C   0  0  0  0  0  0  0  0  0  0  0  0
    2.5029    0.9706    0.0405 C   0  0  0  0  0  0  0  0  0  0  0  0
    1.2488    1.5957    0.0419 C   0  0  0  0  0  0  0  0  0  0  0  0
    0.0651    0.8456    0.0072 C   0  0  0  0  0  0  0  0  0  0  0  0
    0.1906   -0.5483   -0.0192 C   0  0  0  0  0  0  0  0  0  0  0  0
   -1.2850    1.4298   -0.0081 C   0  0  0  0  0  0  0  0  0  0  0  0
   -2.3362    0.5946   -0.0166 C   0  0  0  0  0  0  0  0  0  0  0  0
   -2.2185   -0.8710   -0.0148 C   0  0  0  0  0  0  0  0  0  0  0  0
   -0.9385   -1.3919   -0.0349 O   0  0  0  0  0  0  0  0  0  0  0  0
    3.7845   -1.0570   -0.0052 O   0  0  0  0  0  0  0  0  0  0  0  0
   -3.2199   -1.5794   -0.0023 O   0  0  0  0  0  0  0  0  0  0  0  0
   -1.5236    2.9123   -0.0231 C   0  0  0  0  0  0  0  0  0  0  0  0
    1.4959   -2.2710   -0.0492 H   0  0  0  0  0  0  0  0  0  0  0  0
    3.3982    1.5846    0.0683 H   0  0  0  0  0  0  0  0  0  0  0  0
    1.2377    2.6801    0.0736 H   0  0  0  0  0  0  0  0  0  0  0  0
   -3.3563    0.9619   -0.0294 H   0  0  0  0  0  0  0  0  0  0  0  0
    4.4945   -0.3942    0.0134 H   0  0  0  0  0  0  0  0  0  0  0  0
   -2.0831    3.1954   -0.9219 H   0  0  0  0  0  0  0  0  0  0  0  0
   -2.1057    3.2116    0.8557 H   0  0  0  0  0  0  0  0  0  0  0  0
   -0.6158    3.5163   -0.0191 H   0  0  0  0  0  0  0  0  0  0  0  0
  1  2  2  0  0  0  0
  1 14  1  0  0  0  0
  2  3  1  0  0  0  0
  2 11  1  0  0  0  0
  3  4  2  0  0  0  0
  3 15  1  0  0  0  0
  4  5  1  0  0  0  0
  4 16  1  0  0  0  0
  5  6  2  0  0  0  0
  5  7  1  0  0  0  0
  6  1  1  0  0  0  0
  7  8  2  0  0  0  0
  7 13  1  0  0  0  0
  8  9  1  0  0  0  0
  8 17  1  0  0  0  0
  9 10  1  0  0  0  0
  9 12  2  0  0  0  0
 10  6  1  0  0  0  0
 11 18  1  0  0  0  0
 13 19  1  0  0  0  0
 13 20  1  0  0  0  0
 13 21  1  0  0  0  0
M  END
>  <Mol_ID>
655

>  <Formula>
C10H8O3

>  <MolWeight>
176.16872

>  <Cat>
S2256

>  <Name>
4-Methylumbelliferone (4-MU)

>  <Synonyms>
N/A

>  <Target>
Others

>  <Form>
free base

>  <CAS>
90-33-5

>  <URL>
http://selleckchem.com/products/4-Methylumbelliferone(4-MU).html

$$$$
