4-Methoxycinnamic acid
 OpenBabel08302521363D

 23 23  0  0  0  0  0  0  0  0999 V2000
    0.7546   -0.0083    0.0141 C   0  0  0  0  0  0  0  0  0  0  0  0
    1.8579    0.4201    0.6516 C   0  0  0  0  0  0  0  0  0  0  0  0
    2.6451    1.6207    0.2980 C   0  0  0  0  0  0  0  0  0  0  0  0
    3.8884    1.5717    0.8215 O   0  0  0  0  0  0  0  0  0  0  0  0
    2.2482    2.5712   -0.3564 O   0  0  0  0  0  0  0  0  0  0  0  0
   -1.9520    2.1048   -4.4361 O   0  0  0  0  0  0  0  0  0  0  0  0
   -1.6487    1.6816   -5.7577 C   0  0  0  0  0  0  0  0  0  0  0  0
    0.1458    0.5959   -1.1704 C   0  0  0  0  0  0  0  0  0  0  0  0
    0.5345    0.1888   -2.4503 C   0  0  0  0  0  0  0  0  0  0  0  0
   -0.8748    1.5355   -1.0264 C   0  0  0  0  0  0  0  0  0  0  0  0
   -0.1298    0.6844   -3.5786 C   0  0  0  0  0  0  0  0  0  0  0  0
   -1.5457    2.0125   -2.1521 C   0  0  0  0  0  0  0  0  0  0  0  0
   -1.1859    1.5852   -3.4311 C   0  0  0  0  0  0  0  0  0  0  0  0
    0.2357   -0.8905    0.3849 H   0  0  0  0  0  0  0  0  0  0  0  0
    2.1900   -0.1367    1.5155 H   0  0  0  0  0  0  0  0  0  0  0  0
    4.1140    0.7514    1.2960 H   0  0  0  0  0  0  0  0  0  0  0  0
   -0.6039    1.8857   -6.0120 H   0  0  0  0  0  0  0  0  0  0  0  0
   -1.8905    0.6220   -5.8931 H   0  0  0  0  0  0  0  0  0  0  0  0
   -2.2742    2.2604   -6.4439 H   0  0  0  0  0  0  0  0  0  0  0  0
    1.3389   -0.5314   -2.5820 H   0  0  0  0  0  0  0  0  0  0  0  0
   -1.1709    1.8882   -0.0432 H   0  0  0  0  0  0  0  0  0  0  0  0
    0.1892    0.3307   -4.5528 H   0  0  0  0  0  0  0  0  0  0  0  0
   -2.3701    2.7084   -2.0290 H   0  0  0  0  0  0  0  0  0  0  0  0
  1  2  2  3  0  0  0
  1  8  1  0  0  0  0
  1 14  1  0  0  0  0
  2  3  1  0  0  0  0
  2 15  1  0  0  0  0
  3  4  1  0  0  0  0
  3  5  2  0  0  0  0
  4 16  1  0  0  0  0
  6  7  1  0  0  0  0
  6 13  1  0  0  0  0
  7 17  1  0  0  0  0
  7 18  1  0  0  0  0
  7 19  1  0  0  0  0
  8  9  2  0  0  0  0
  8 10  1  0  0  0  0
  9 11  1  0  0  0  0
  9 20  1  0  0  0  0
 10 12  2  0  0  0  0
 10 21  1  0  0  0  0
 11 13  2  0  0  0  0
 11 22  1  0  0  0  0
 12 13  1  0  0  0  0
 12 23  1  0  0  0  0
M  END
>  <Mol_ID>
7072

>  <Formula>
C10H10O3

>  <MolWeight>
178.1846

>  <Cat>
E4085

>  <Name>
4-Methoxycinnamic acid

>  <Synonyms>
4-Methoxycinnamic acid

>  <Target>
Endogenous Metabolite

>  <Form>
free base

>  <CAS>
830-09-1

>  <URL>
https://www.selleckchem.com/products/4-methoxycinnamic-acid.html

$$$$
