4-Methylumbelliferyl-¦Â-D-xylopyranoside
 OpenBabel08302521373D

 38 40  0  0  1  0  0  0  0  0999 V2000
    8.2133    9.2899    2.3265 C   0  0  0  0  0  0  0  0  0  0  0  0
    4.7212    4.5644   -0.6476 O   0  0  0  0  0  0  0  0  0  0  0  0
    7.2557    6.0956    5.8196 O   0  0  0  0  0  0  0  0  0  0  0  0
    2.3169    3.0639   -1.2180 O   0  0  0  0  0  0  0  0  0  0  0  0
    2.3892    0.2407   -0.8190 O   0  0  0  0  0  0  0  0  0  0  0  0
    4.5670   -0.6947    0.9817 O   0  0  0  0  0  0  0  0  0  0  0  0
    6.3614    5.9509    2.3815 C   0  0  0  0  0  0  0  0  0  0  0  0
    6.7951    7.1877    1.9141 C   0  0  0  0  0  0  0  0  0  0  0  0
    5.6819    5.0483    1.5699 C   0  0  0  0  0  0  0  0  0  0  0  0
    6.5643    5.5372    3.7125 O   0  0  0  0  0  0  0  0  0  0  0  0
    6.4770    7.5270    0.5913 C   0  0  0  0  0  0  0  0  0  0  0  0
    7.5708    8.0327    2.8277 C   0  0  0  0  0  0  0  0  0  0  0  0
    5.3789    5.3783    0.2476 C   0  0  0  0  0  0  0  0  0  0  0  0
    7.1589    6.3802    4.6316 C   0  0  0  0  0  0  0  0  0  0  0  0
    5.7554    6.6341   -0.2269 C   0  0  0  0  0  0  0  0  0  0  0  0
    7.7128    7.6366    4.1022 C   0  0  0  0  0  0  0  0  0  0  0  0
    4.5631    3.2165   -0.2001 C   0  0  1  0  0  0  0  0  0  0  0  0
    3.5649    2.3891   -1.0291 C   0  0  1  0  0  0  0  0  0  0  0  0
    5.8223    2.5343   -0.2311 O   0  0  0  0  0  0  0  0  0  0  0  0
    3.3658    1.0910   -0.2131 C   0  0  2  0  0  0  0  0  0  0  0  0
    5.7989    1.3155    0.4971 C   0  0  0  0  0  0  0  0  0  0  0  0
    4.7019    0.3570    0.0211 C   0  0  1  0  0  0  0  0  0  0  0  0
    8.8851    9.0711    1.4891 H   0  0  0  0  0  0  0  0  0  0  0  0
    7.4578   10.0127    1.9993 H   0  0  0  0  0  0  0  0  0  0  0  0
    8.8175    9.7729    3.1028 H   0  0  0  0  0  0  0  0  0  0  0  0
    1.6300    2.6042   -0.7033 H   0  0  0  0  0  0  0  0  0  0  0  0
    2.6106    0.1370   -1.7617 H   0  0  0  0  0  0  0  0  0  0  0  0
    3.8508   -0.4692    1.6015 H   0  0  0  0  0  0  0  0  0  0  0  0
    5.4219    4.1038    2.0247 H   0  0  0  0  0  0  0  0  0  0  0  0
    6.7672    8.4827    0.1694 H   0  0  0  0  0  0  0  0  0  0  0  0
    5.5129    6.9181   -1.2440 H   0  0  0  0  0  0  0  0  0  0  0  0
    8.2654    8.2208    4.8289 H   0  0  0  0  0  0  0  0  0  0  0  0
    4.1396    3.2403    0.8115 H   0  0  0  0  0  0  0  0  0  0  0  0
    3.9656    2.1573   -2.0231 H   0  0  0  0  0  0  0  0  0  0  0  0
    2.9256    1.3459    0.7602 H   0  0  0  0  0  0  0  0  0  0  0  0
    6.7785    0.8388    0.3764 H   0  0  0  0  0  0  0  0  0  0  0  0
    5.7027    1.5389    1.5662 H   0  0  0  0  0  0  0  0  0  0  0  0
    5.0129   -0.1144   -0.9176 H   0  0  0  0  0  0  0  0  0  0  0  0
  1 12  1  0  0  0  0
  1 23  1  0  0  0  0
  1 24  1  0  0  0  0
  1 25  1  0  0  0  0
  2 13  1  0  0  0  0
  3 14  2  0  0  0  0
  4 26  1  0  0  0  0
  5 27  1  0  0  0  0
  6 28  1  0  0  0  0
  7  8  1  0  0  0  0
  7  9  2  0  0  0  0
  7 10  1  0  0  0  0
  8 11  2  0  0  0  0
  8 12  1  0  0  0  0
  9 13  1  0  0  0  0
  9 29  1  0  0  0  0
 10 14  1  0  0  0  0
 11 15  1  0  0  0  0
 11 30  1  0  0  0  0
 12 16  2  0  0  0  0
 13 15  2  0  0  0  0
 14 16  1  0  0  0  0
 15 31  1  0  0  0  0
 16 32  1  0  0  0  0
 17 18  1  0  0  0  0
 17 19  1  0  0  0  0
 17 33  1  1  0  0  0
 17  2  1  0  0  0  0
 18  4  1  0  0  0  0
 18 20  1  0  0  0  0
 18 34  1  6  0  0  0
 19 21  1  0  0  0  0
 20  5  1  0  0  0  0
 20 22  1  0  0  0  0
 20 35  1  1  0  0  0
 21 22  1  0  0  0  0
 21 36  1  0  0  0  0
 21 37  1  0  0  0  0
 22  6  1  0  0  0  0
 22 38  1  6  0  0  0
M  END
>  <Mol_ID>
7450

>  <Formula>
C15H16O7

>  <MolWeight>
308.28334

>  <Cat>
E4554

>  <Name>
4-Methylumbelliferyl-¦Â-D-xylopyranoside

>  <Synonyms>
4-Methylumbelliferyl-¦Â-D-xyloside

>  <Target>
Others

>  <Form>
free base

>  <CAS>
6734-33-4

>  <URL>
https://www.selleckchem.com/products/4-methylumbelliferyl-beta-d-xylopyranoside.html

$$$$
