4-Methylumbelliferyl N-acetyl-beta-D-glucosaminid
 OpenBabel08302521383D

 48 50  0  0  1  0  0  0  0  0999 V2000
    0.9408    0.0271   -0.3879 O   0  0  0  0  0  0  0  0  0  0  0  0
    2.4180   -2.4698    0.1776 N   0  0  0  0  0  0  0  0  0  0  0  0
    1.3277   -3.1987   -0.2429 C   0  0  0  0  0  0  0  0  0  0  0  0
    0.9556   -4.3357    0.6699 C   0  0  0  0  0  0  0  0  0  0  0  0
    0.7009   -2.9538   -1.2675 O   0  0  0  0  0  0  0  0  0  0  0  0
    5.0900   -2.5326   -0.9010 O   0  0  0  0  0  0  0  0  0  0  0  0
    4.8185    2.3593   -1.7720 C   0  0  0  0  0  0  0  0  0  0  0  0
    4.0770    3.5235   -1.3920 O   0  0  0  0  0  0  0  0  0  0  0  0
    6.4986    0.0319   -0.9976 O   0  0  0  0  0  0  0  0  0  0  0  0
   -1.2373    6.2373   -0.9040 C   0  0  0  0  0  0  0  0  0  0  0  0
   -4.5555    3.4522   -3.0283 O   0  0  0  0  0  0  0  0  0  0  0  0
    2.3695    0.0359   -0.2627 C   0  0  1  0  0  0  0  0  0  0  0  0
    2.9536   -1.3590   -0.6240 C   0  0  1  0  0  0  0  0  0  0  0  0
    2.9653    1.0004   -1.1445 O   0  0  0  0  0  0  0  0  0  0  0  0
    4.4916   -1.2966   -0.4847 C   0  0  2  0  0  0  0  0  0  0  0  0
    4.3645    1.1745   -0.9146 C   0  0  1  0  0  0  0  0  0  0  0  0
    5.1037   -0.1161   -1.2674 C   0  0  1  0  0  0  0  0  0  0  0  0
    0.3195    1.2435   -0.4826 C   0  0  0  0  0  0  0  0  0  0  0  0
   -0.9167    1.2318   -1.1207 C   0  0  0  0  0  0  0  0  0  0  0  0
    0.8379    2.4580   -0.0259 C   0  0  0  0  0  0  0  0  0  0  0  0
   -1.5740    2.4385   -1.3665 C   0  0  0  0  0  0  0  0  0  0  0  0
    0.1742    3.6631   -0.2915 C   0  0  0  0  0  0  0  0  0  0  0  0
   -1.0434    3.6703   -0.9774 C   0  0  0  0  0  0  0  0  0  0  0  0
   -2.7971    2.3522   -2.0597 O   0  0  0  0  0  0  0  0  0  0  0  0
   -1.7755    4.8964   -1.3105 C   0  0  0  0  0  0  0  0  0  0  0  0
   -3.5011    3.4930   -2.4053 C   0  0  0  0  0  0  0  0  0  0  0  0
   -2.9276    4.7822   -1.9886 C   0  0  0  0  0  0  0  0  0  0  0  0
    2.9454   -2.7966    0.9785 H   0  0  0  0  0  0  0  0  0  0  0  0
    0.1960   -3.9970    1.3785 H   0  0  0  0  0  0  0  0  0  0  0  0
    0.5552   -5.1607    0.0723 H   0  0  0  0  0  0  0  0  0  0  0  0
    1.8264   -4.7070    1.2166 H   0  0  0  0  0  0  0  0  0  0  0  0
    4.8284   -2.6985   -1.8241 H   0  0  0  0  0  0  0  0  0  0  0  0
    5.8816    2.5750   -1.6362 H   0  0  0  0  0  0  0  0  0  0  0  0
    4.6215    2.1819   -2.8344 H   0  0  0  0  0  0  0  0  0  0  0  0
    3.1407    3.2979   -1.5568 H   0  0  0  0  0  0  0  0  0  0  0  0
    6.6961   -0.3302   -0.1160 H   0  0  0  0  0  0  0  0  0  0  0  0
   -1.1249    6.2951    0.1840 H   0  0  0  0  0  0  0  0  0  0  0  0
   -0.2648    6.4258   -1.3716 H   0  0  0  0  0  0  0  0  0  0  0  0
   -1.9047    7.0531   -1.2030 H   0  0  0  0  0  0  0  0  0  0  0  0
    2.6083    0.2767    0.7827 H   0  0  0  0  0  0  0  0  0  0  0  0
    2.7122   -1.5767   -1.6735 H   0  0  0  0  0  0  0  0  0  0  0  0
    4.7560   -1.1951    0.5759 H   0  0  0  0  0  0  0  0  0  0  0  0
    4.5192    1.4433    0.1392 H   0  0  0  0  0  0  0  0  0  0  0  0
    5.0091   -0.3219   -2.3405 H   0  0  0  0  0  0  0  0  0  0  0  0
   -1.3471    0.2928   -1.4591 H   0  0  0  0  0  0  0  0  0  0  0  0
    1.7805    2.5065    0.5109 H   0  0  0  0  0  0  0  0  0  0  0  0
    0.6444    4.5873    0.0352 H   0  0  0  0  0  0  0  0  0  0  0  0
   -3.5152    5.6476   -2.2749 H   0  0  0  0  0  0  0  0  0  0  0  0
  1 18  1  0  0  0  0
  2  3  1  0  0  0  0
  2 28  1  0  0  0  0
  3  4  1  0  0  0  0
  3  5  2  0  0  0  0
  4 29  1  0  0  0  0
  4 30  1  0  0  0  0
  4 31  1  0  0  0  0
  6 32  1  0  0  0  0
  7  8  1  0  0  0  0
  7 33  1  0  0  0  0
  7 34  1  0  0  0  0
  8 35  1  0  0  0  0
  9 36  1  0  0  0  0
 10 25  1  0  0  0  0
 10 37  1  0  0  0  0
 10 38  1  0  0  0  0
 10 39  1  0  0  0  0
 11 26  2  0  0  0  0
 12  1  1  0  0  0  0
 12 13  1  0  0  0  0
 12 14  1  0  0  0  0
 12 40  1  1  0  0  0
 13  2  1  0  0  0  0
 13 15  1  0  0  0  0
 13 41  1  6  0  0  0
 14 16  1  0  0  0  0
 15  6  1  0  0  0  0
 15 17  1  0  0  0  0
 15 42  1  1  0  0  0
 16 17  1  0  0  0  0
 16 43  1  1  0  0  0
 16  7  1  0  0  0  0
 17  9  1  0  0  0  0
 17 44  1  6  0  0  0
 18 19  2  0  0  0  0
 18 20  1  0  0  0  0
 19 21  1  0  0  0  0
 19 45  1  0  0  0  0
 20 22  2  0  0  0  0
 20 46  1  0  0  0  0
 21 23  2  0  0  0  0
 21 24  1  0  0  0  0
 22 23  1  0  0  0  0
 22 47  1  0  0  0  0
 23 25  1  0  0  0  0
 24 26  1  0  0  0  0
 25 27  2  0  0  0  0
 26 27  1  0  0  0  0
 27 48  1  0  0  0  0
M  END
>  <Mol_ID>
7648

>  <Formula>
C18H21NO8

>  <MolWeight>
379.36124

>  <Cat>
E4015

>  <Name>
4-Methylumbelliferyl N-acetyl-beta-D-glucosaminid

>  <Target>
Dye

>  <Form>
free base

>  <CAS>
37067-30-4

>  <URL>
https://www.selleckchem.com/products/4-methylumbelliferyl-n-acetyl-beta-d-glucosaminide.html

$$$$
