4-Methoxycinnamaldehyde
 OpenBabel08302521363D

 22 22  0  0  0  0  0  0  0  0999 V2000
    0.9106    0.1715   -0.1302 C   0  0  0  0  0  0  0  0  0  0  0  0
    1.9560    0.9699   -0.3794 C   0  0  0  0  0  0  0  0  0  0  0  0
    2.6743    1.0418   -1.6684 C   0  0  0  0  0  0  0  0  0  0  0  0
    3.6354    1.7887   -1.8110 O   0  0  0  0  0  0  0  0  0  0  0  0
   -1.5869   -3.4162   -3.6859 O   0  0  0  0  0  0  0  0  0  0  0  0
   -1.1882   -4.7798   -3.7590 C   0  0  0  0  0  0  0  0  0  0  0  0
    0.2995   -0.7728   -1.0651 C   0  0  0  0  0  0  0  0  0  0  0  0
    0.7525   -2.0940   -1.1219 C   0  0  0  0  0  0  0  0  0  0  0  0
   -0.7544   -0.3736   -1.8892 C   0  0  0  0  0  0  0  0  0  0  0  0
    0.1483   -3.0146   -1.9869 C   0  0  0  0  0  0  0  0  0  0  0  0
   -1.3544   -1.2952   -2.7525 C   0  0  0  0  0  0  0  0  0  0  0  0
   -0.9102   -2.6191   -2.8044 C   0  0  0  0  0  0  0  0  0  0  0  0
    0.4497    0.1923    0.8565 H   0  0  0  0  0  0  0  0  0  0  0  0
    2.3422    1.6296    0.3913 H   0  0  0  0  0  0  0  0  0  0  0  0
    2.3067    0.3995   -2.4834 H   0  0  0  0  0  0  0  0  0  0  0  0
   -0.1337   -4.8730   -4.0385 H   0  0  0  0  0  0  0  0  0  0  0  0
   -1.3953   -5.2986   -2.8170 H   0  0  0  0  0  0  0  0  0  0  0  0
   -1.7805   -5.2604   -4.5437 H   0  0  0  0  0  0  0  0  0  0  0  0
    1.5724   -2.4233   -0.4874 H   0  0  0  0  0  0  0  0  0  0  0  0
   -1.1253    0.6486   -1.8629 H   0  0  0  0  0  0  0  0  0  0  0  0
    0.5263   -4.0315   -1.9915 H   0  0  0  0  0  0  0  0  0  0  0  0
   -2.1812   -0.9811   -3.3853 H   0  0  0  0  0  0  0  0  0  0  0  0
  1  2  2  3  0  0  0
  1  7  1  0  0  0  0
  1 13  1  0  0  0  0
  2  3  1  0  0  0  0
  2 14  1  0  0  0  0
  3  4  2  0  0  0  0
  3 15  1  0  0  0  0
  5  6  1  0  0  0  0
  5 12  1  0  0  0  0
  6 16  1  0  0  0  0
  6 17  1  0  0  0  0
  6 18  1  0  0  0  0
  7  8  2  0  0  0  0
  7  9  1  0  0  0  0
  8 10  1  0  0  0  0
  8 19  1  0  0  0  0
  9 11  2  0  0  0  0
  9 20  1  0  0  0  0
 10 12  2  0  0  0  0
 10 21  1  0  0  0  0
 11 12  1  0  0  0  0
 11 22  1  0  0  0  0
M  END
>  <Mol_ID>
7323

>  <Formula>
C10H10O2

>  <MolWeight>
162.1852

>  <Cat>
E4365

>  <Name>
4-Methoxycinnamaldehyde

>  <Synonyms>
p-Methoxycinnamaldehyde

>  <Target>
RSV

>  <Form>
Free base

>  <CAS>
1963-36-6

>  <URL>
https://www.selleckchem.com/products/4-methoxycinnamaldehyde.html

$$$$
