4-Methylumbelliferyl beta-D-glucopyranoside
 OpenBabel08302521383D

 42 44  0  0  1  0  0  0  0  0999 V2000
    3.2027    4.2091   -7.4197 C   0  0  0  0  0  0  0  0  0  0  0  0
    4.1973    4.5376   -0.9370 O   0  0  0  0  0  0  0  0  0  0  0  0
   -1.1363    3.4511   -5.4662 O   0  0  0  0  0  0  0  0  0  0  0  0
    3.3876    5.5388    1.5772 O   0  0  0  0  0  0  0  0  0  0  0  0
    2.5201    0.0962    0.1437 C   0  0  0  0  0  0  0  0  0  0  0  0
    3.3429   -0.3942   -0.9147 O   0  0  0  0  0  0  0  0  0  0  0  0
    1.8676    3.8292    3.3307 O   0  0  0  0  0  0  0  0  0  0  0  0
    2.2911    0.9868    2.9402 O   0  0  0  0  0  0  0  0  0  0  0  0
    1.9250    4.1508   -3.7963 C   0  0  0  0  0  0  0  0  0  0  0  0
    2.8066    4.2860   -4.8718 C   0  0  0  0  0  0  0  0  0  0  0  0
    2.3383    4.2379   -2.4653 C   0  0  0  0  0  0  0  0  0  0  0  0
    0.5540    3.8963   -3.9957 O   0  0  0  0  0  0  0  0  0  0  0  0
    4.1456    4.5635   -4.5764 C   0  0  0  0  0  0  0  0  0  0  0  0
    2.2888    4.1069   -6.2355 C   0  0  0  0  0  0  0  0  0  0  0  0
    3.6807    4.4421   -2.1900 C   0  0  0  0  0  0  0  0  0  0  0  0
    0.0430    3.7060   -5.2655 C   0  0  0  0  0  0  0  0  0  0  0  0
    4.5755    4.6469   -3.2443 C   0  0  0  0  0  0  0  0  0  0  0  0
    0.9860    3.8213   -6.3855 C   0  0  0  0  0  0  0  0  0  0  0  0
    3.7819    3.6003    0.0746 C   0  0  2  0  0  0  0  0  0  0  0  0
    3.1859    2.3729   -0.3772 O   0  0  0  0  0  0  0  0  0  0  0  0
    2.8755    4.2793    1.1254 C   0  0  1  0  0  0  0  0  0  0  0  0
    3.1022    1.4062    0.6905 C   0  0  1  0  0  0  0  0  0  0  0  0
    2.7363    3.3122    2.3167 C   0  0  2  0  0  0  0  0  0  0  0  0
    2.2516    1.9246    1.8608 C   0  0  2  0  0  0  0  0  0  0  0  0
    3.6378    5.2112   -7.4962 H   0  0  0  0  0  0  0  0  0  0  0  0
    4.0118    3.4740   -7.3524 H   0  0  0  0  0  0  0  0  0  0  0  0
    2.6719    4.0153   -8.3593 H   0  0  0  0  0  0  0  0  0  0  0  0
    4.3405    5.4521    1.7499 H   0  0  0  0  0  0  0  0  0  0  0  0
    2.4805   -0.6750    0.9184 H   0  0  0  0  0  0  0  0  0  0  0  0
    1.5106    0.2396   -0.2587 H   0  0  0  0  0  0  0  0  0  0  0  0
    3.4003    0.3318   -1.5664 H   0  0  0  0  0  0  0  0  0  0  0  0
    1.0216    4.0811    2.9214 H   0  0  0  0  0  0  0  0  0  0  0  0
    3.0758    1.1651    3.4886 H   0  0  0  0  0  0  0  0  0  0  0  0
    1.6059    4.1393   -1.6733 H   0  0  0  0  0  0  0  0  0  0  0  0
    4.8799    4.7079   -5.3637 H   0  0  0  0  0  0  0  0  0  0  0  0
    5.6223    4.8560   -3.0327 H   0  0  0  0  0  0  0  0  0  0  0  0
    0.5445    3.6579   -7.3626 H   0  0  0  0  0  0  0  0  0  0  0  0
    4.7306    3.3392    0.5590 H   0  0  0  0  0  0  0  0  0  0  0  0
    1.8841    4.4864    0.7028 H   0  0  0  0  0  0  0  0  0  0  0  0
    4.1256    1.1920    1.0249 H   0  0  0  0  0  0  0  0  0  0  0  0
    3.7096    3.2140    2.8140 H   0  0  0  0  0  0  0  0  0  0  0  0
    1.2012    2.0058    1.5559 H   0  0  0  0  0  0  0  0  0  0  0  0
  1 14  1  0  0  0  0
  1 25  1  0  0  0  0
  1 26  1  0  0  0  0
  1 27  1  0  0  0  0
  2 15  1  0  0  0  0
  3 16  2  0  0  0  0
  4 28  1  0  0  0  0
  5  6  1  0  0  0  0
  5 29  1  0  0  0  0
  5 30  1  0  0  0  0
  6 31  1  0  0  0  0
  7 32  1  0  0  0  0
  8 33  1  0  0  0  0
  9 10  1  0  0  0  0
  9 11  2  0  0  0  0
  9 12  1  0  0  0  0
 10 13  2  0  0  0  0
 10 14  1  0  0  0  0
 11 15  1  0  0  0  0
 11 34  1  0  0  0  0
 12 16  1  0  0  0  0
 13 17  1  0  0  0  0
 13 35  1  0  0  0  0
 14 18  2  0  0  0  0
 15 17  2  0  0  0  0
 16 18  1  0  0  0  0
 17 36  1  0  0  0  0
 18 37  1  0  0  0  0
 19 20  1  0  0  0  0
 19 21  1  0  0  0  0
 19 38  1  1  0  0  0
 19  2  1  0  0  0  0
 20 22  1  0  0  0  0
 21  4  1  0  0  0  0
 21 23  1  0  0  0  0
 21 39  1  6  0  0  0
 22  5  1  0  0  0  0
 22 24  1  0  0  0  0
 22 40  1  1  0  0  0
 23  7  1  0  0  0  0
 23 24  1  0  0  0  0
 23 41  1  1  0  0  0
 24  8  1  0  0  0  0
 24 42  1  6  0  0  0
M  END
>  <Mol_ID>
7646

>  <Formula>
C16H18O8

>  <MolWeight>
338.30932

>  <Cat>
E4012

>  <Name>
4-Methylumbelliferyl beta-D-glucopyranoside

>  <Synonyms>
MUD

>  <Target>
Others

>  <Form>
free base

>  <CAS>
18997-57-4

>  <URL>
https://www.selleckchem.com/products/4-methylumbelliferyl-beta-d-glucopyranoside.html

$$$$
