4-Methylanisole
 OpenBabel08302521363D

 19 19  0  0  0  0  0  0  0  0999 V2000
    1.1069   -0.0353    0.0873 O   0  0  0  0  0  0  0  0  0  0  0  0
    0.3731    1.1830    0.0907 C   0  0  0  0  0  0  0  0  0  0  0  0
    6.7840   -0.0208   -0.0249 C   0  0  0  0  0  0  0  0  0  0  0  0
    2.4714    0.0713    0.0663 C   0  0  0  0  0  0  0  0  0  0  0  0
    3.1983    1.2609    0.0551 C   0  0  0  0  0  0  0  0  0  0  0  0
    3.1563   -1.1453    0.0544 C   0  0  0  0  0  0  0  0  0  0  0  0
    4.5969    1.2326    0.0275 C   0  0  0  0  0  0  0  0  0  0  0  0
    4.5533   -1.1762    0.0274 C   0  0  0  0  0  0  0  0  0  0  0  0
    5.2854    0.0156    0.0129 C   0  0  0  0  0  0  0  0  0  0  0  0
    0.5787    1.7630    0.9967 H   0  0  0  0  0  0  0  0  0  0  0  0
    0.5775    1.7709   -0.8103 H   0  0  0  0  0  0  0  0  0  0  0  0
   -0.6923    0.9336    0.0895 H   0  0  0  0  0  0  0  0  0  0  0  0
    7.1720   -0.5570    0.8469 H   0  0  0  0  0  0  0  0  0  0  0  0
    7.1260   -0.5187   -0.9378 H   0  0  0  0  0  0  0  0  0  0  0  0
    7.2093    0.9883   -0.0138 H   0  0  0  0  0  0  0  0  0  0  0  0
    2.7116    2.2299    0.0657 H   0  0  0  0  0  0  0  0  0  0  0  0
    2.5978   -2.0781    0.0640 H   0  0  0  0  0  0  0  0  0  0  0  0
    5.1433    2.1731    0.0164 H   0  0  0  0  0  0  0  0  0  0  0  0
    5.0640   -2.1363    0.0164 H   0  0  0  0  0  0  0  0  0  0  0  0
  1  2  1  0  0  0  0
  1  4  1  0  0  0  0
  2 10  1  0  0  0  0
  2 11  1  0  0  0  0
  2 12  1  0  0  0  0
  3  9  1  0  0  0  0
  3 13  1  0  0  0  0
  3 14  1  0  0  0  0
  3 15  1  0  0  0  0
  4  5  2  0  0  0  0
  4  6  1  0  0  0  0
  5  7  1  0  0  0  0
  5 16  1  0  0  0  0
  6  8  2  0  0  0  0
  6 17  1  0  0  0  0
  7  9  2  0  0  0  0
  7 18  1  0  0  0  0
  8  9  1  0  0  0  0
  8 19  1  0  0  0  0
M  END
>  <Mol_ID>
7184

>  <Formula>
C8H10O

>  <MolWeight>
122.1644

>  <Cat>
E4184

>  <Name>
4-Methylanisole

>  <Target>
Others

>  <Form>
Free base

>  <CAS>
104-93-8

>  <URL>
https://www.selleckchem.com/products/4-methylanisole.html

$$$$
