4-Methyl-n-octanoic Acid
 OpenBabel08302520383D

 29 28  0  0  0  0  0  0  0  0999 V2000
    0.9679    0.0368   -0.0377 C   0  0  3  0  0  0  0  0  0  0  0  0
    0.4035    0.1842   -1.4671 C   0  0  0  0  0  0  0  0  0  0  0  0
    0.5466   -1.2984    0.6183 C   0  0  0  0  0  0  0  0  0  0  0  0
    0.5041    1.1861    0.8723 C   0  0  0  0  0  0  0  0  0  0  0  0
    0.7726    1.5097   -2.1420 C   0  0  0  0  0  0  0  0  0  0  0  0
    0.9897   -2.5932   -0.0748 C   0  0  0  0  0  0  0  0  0  0  0  0
    0.2910    1.5817   -3.5726 C   0  0  0  0  0  0  0  0  0  0  0  0
    2.5043   -2.7916   -0.1429 C   0  0  0  0  0  0  0  0  0  0  0  0
    0.6165    2.7546   -4.1627 O   0  0  0  0  0  0  0  0  0  0  0  0
   -0.3326    0.7076   -4.1560 O   0  0  0  0  0  0  0  0  0  0  0  0
    2.8527   -4.1281   -0.7876 C   0  0  0  0  0  0  0  0  0  0  0  0
    2.0622    0.0797   -0.0894 H   0  0  0  0  0  0  0  0  0  0  0  0
    0.7806   -0.6363   -2.0896 H   0  0  0  0  0  0  0  0  0  0  0  0
   -0.6889    0.0795   -1.4472 H   0  0  0  0  0  0  0  0  0  0  0  0
    0.9166   -1.3195    1.6509 H   0  0  0  0  0  0  0  0  0  0  0  0
   -0.5495   -1.3221    0.6886 H   0  0  0  0  0  0  0  0  0  0  0  0
    0.9541    1.0963    1.8670 H   0  0  0  0  0  0  0  0  0  0  0  0
    0.7987    2.1640    0.4826 H   0  0  0  0  0  0  0  0  0  0  0  0
   -0.5848    1.1804    0.9914 H   0  0  0  0  0  0  0  0  0  0  0  0
    0.3108    2.3481   -1.6115 H   0  0  0  0  0  0  0  0  0  0  0  0
    1.8609    1.6332   -2.1431 H   0  0  0  0  0  0  0  0  0  0  0  0
    0.5595   -3.4302    0.4915 H   0  0  0  0  0  0  0  0  0  0  0  0
    0.5571   -2.6544   -1.0793 H   0  0  0  0  0  0  0  0  0  0  0  0
    2.9729   -1.9882   -0.7204 H   0  0  0  0  0  0  0  0  0  0  0  0
    2.9289   -2.7612    0.8672 H   0  0  0  0  0  0  0  0  0  0  0  0
    1.1059    3.3673   -3.5806 H   0  0  0  0  0  0  0  0  0  0  0  0
    2.5535   -4.1420   -1.8412 H   0  0  0  0  0  0  0  0  0  0  0  0
    3.9317   -4.3061   -0.7408 H   0  0  0  0  0  0  0  0  0  0  0  0
    2.3511   -4.9577   -0.2796 H   0  0  0  0  0  0  0  0  0  0  0  0
  1  2  1  0  0  0  0
  1  3  1  0  0  0  0
  1  4  1  0  0  0  0
  1 12  1  0  0  0  0
  2  5  1  0  0  0  0
  2 13  1  0  0  0  0
  2 14  1  0  0  0  0
  3  6  1  0  0  0  0
  3 15  1  0  0  0  0
  3 16  1  0  0  0  0
  4 17  1  0  0  0  0
  4 18  1  0  0  0  0
  4 19  1  0  0  0  0
  5  7  1  0  0  0  0
  5 20  1  0  0  0  0
  5 21  1  0  0  0  0
  6  8  1  0  0  0  0
  6 22  1  0  0  0  0
  6 23  1  0  0  0  0
  7  9  1  0  0  0  0
  7 10  2  0  0  0  0
  8 11  1  0  0  0  0
  8 24  1  0  0  0  0
  8 25  1  0  0  0  0
  9 26  1  0  0  0  0
 11 27  1  0  0  0  0
 11 28  1  0  0  0  0
 11 29  1  0  0  0  0
M  END
>  <Mol_ID>
3518

>  <Formula>
C9H18O2

>  <MolWeight>
158.23802

>  <Cat>
S6029

>  <Name>
4-Methyl-n-octanoic Acid

>  <Synonyms>
N/A

>  <Target>
Others

>  <Form>
free base

>  <CAS>
54947-74-9

>  <URL>
http://www.selleck.cn/products/4-methyl-n-octanoic-acid.html

$$$$
