4-Methoxyphenethyl alcohol
 OpenBabel08302521363D

 23 23  0  0  0  0  0  0  0  0999 V2000
    1.0109    0.1967    0.0617 C   0  0  0  0  0  0  0  0  0  0  0  0
    2.3556   -0.5252    0.1759 C   0  0  0  0  0  0  0  0  0  0  0  0
    3.3688    0.1575   -0.5563 O   0  0  0  0  0  0  0  0  0  0  0  0
   -1.1476    0.2436   -5.2065 O   0  0  0  0  0  0  0  0  0  0  0  0
   -1.5021   -0.9619   -5.8723 C   0  0  0  0  0  0  0  0  0  0  0  0
    0.4319    0.1678   -1.3352 C   0  0  0  0  0  0  0  0  0  0  0  0
    0.0942   -1.0442   -1.9517 C   0  0  0  0  0  0  0  0  0  0  0  0
    0.2132    1.3604   -2.0345 C   0  0  0  0  0  0  0  0  0  0  0  0
   -0.4346   -1.0662   -3.2477 C   0  0  0  0  0  0  0  0  0  0  0  0
   -0.3184    1.3353   -3.3259 C   0  0  0  0  0  0  0  0  0  0  0  0
   -0.6421    0.1255   -3.9409 C   0  0  0  0  0  0  0  0  0  0  0  0
    1.1412    1.2385    0.3804 H   0  0  0  0  0  0  0  0  0  0  0  0
    0.2852   -0.2594    0.7455 H   0  0  0  0  0  0  0  0  0  0  0  0
    2.6704   -0.5472    1.2237 H   0  0  0  0  0  0  0  0  0  0  0  0
    2.3056   -1.5595   -0.1779 H   0  0  0  0  0  0  0  0  0  0  0  0
    3.0661    0.2128   -1.4808 H   0  0  0  0  0  0  0  0  0  0  0  0
   -0.6307   -1.6107   -6.0071 H   0  0  0  0  0  0  0  0  0  0  0  0
   -2.3055   -1.4828   -5.3413 H   0  0  0  0  0  0  0  0  0  0  0  0
   -1.8762   -0.6975   -6.8658 H   0  0  0  0  0  0  0  0  0  0  0  0
    0.2390   -1.9875   -1.4292 H   0  0  0  0  0  0  0  0  0  0  0  0
    0.4543    2.3204   -1.5829 H   0  0  0  0  0  0  0  0  0  0  0  0
   -0.6736   -2.0303   -3.6834 H   0  0  0  0  0  0  0  0  0  0  0  0
   -0.4845    2.2698   -3.8572 H   0  0  0  0  0  0  0  0  0  0  0  0
  1  2  1  0  0  0  0
  1  6  1  0  0  0  0
  1 12  1  0  0  0  0
  1 13  1  0  0  0  0
  2  3  1  0  0  0  0
  2 14  1  0  0  0  0
  2 15  1  0  0  0  0
  3 16  1  0  0  0  0
  4  5  1  0  0  0  0
  4 11  1  0  0  0  0
  5 17  1  0  0  0  0
  5 18  1  0  0  0  0
  5 19  1  0  0  0  0
  6  7  2  0  0  0  0
  6  8  1  0  0  0  0
  7  9  1  0  0  0  0
  7 20  1  0  0  0  0
  8 10  2  0  0  0  0
  8 21  1  0  0  0  0
  9 11  2  0  0  0  0
  9 22  1  0  0  0  0
 10 11  1  0  0  0  0
 10 23  1  0  0  0  0
M  END
>  <Mol_ID>
7143

>  <Formula>
C9H12O2

>  <MolWeight>
152.19038

>  <Cat>
E4128

>  <Name>
4-Methoxyphenethyl alcohol

>  <Synonyms>
p-Methoxyphenethyl alcohol

>  <Target>
DNA/RNA Synthesis

>  <Form>
Free base

>  <CAS>
702-23-8

>  <URL>
https://www.selleckchem.com/products/4-methoxyphenethyl-alcohol.html

$$$$
