4-Methoxyfuro[2,3-b]quinolin-8-ol
 OpenBabel08302521453D

 25 27  0  0  0  0  0  0  0  0999 V2000
    0.8661    0.0367   -0.0507 O   0  0  0  0  0  0  0  0  0  0  0  0
    0.0751   -1.1385   -0.0488 C   0  0  0  0  0  0  0  0  0  0  0  0
    6.4585    2.2902   -0.0512 O   0  0  0  0  0  0  0  0  0  0  0  0
    2.9795    1.1169   -0.0515 C   0  0  0  0  0  0  0  0  0  0  0  0
    2.2507   -0.1054   -0.0507 C   0  0  0  0  0  0  0  0  0  0  0  0
    4.3939    1.0725   -0.0517 C   0  0  0  0  0  0  0  0  0  0  0  0
    2.3289    2.3748   -0.0524 C   0  0  0  0  0  0  0  0  0  0  0  0
    2.9778   -1.3140   -0.0511 C   0  0  0  0  0  0  0  0  0  0  0  0
    5.0912   -0.0727   -0.0520 N   0  0  0  0  0  0  0  0  0  0  0  0
    5.0806    2.2977   -0.0517 C   0  0  0  0  0  0  0  0  0  0  0  0
    3.0429    3.5700   -0.0531 C   0  0  0  0  0  0  0  0  0  0  0  0
    4.3658   -1.1953   -0.0519 C   0  0  0  0  0  0  0  0  0  0  0  0
    2.7266   -2.7181   -0.0514 C   0  0  0  0  0  0  0  0  0  0  0  0
    4.4275    3.5338   -0.0526 C   0  0  0  0  0  0  0  0  0  0  0  0
    4.9464   -2.4288   -0.0535 O   0  0  0  0  0  0  0  0  0  0  0  0
    3.9495   -3.3434   -0.0535 C   0  0  0  0  0  0  0  0  0  0  0  0
    0.2422   -1.7272   -0.9558 H   0  0  0  0  0  0  0  0  0  0  0  0
    0.2427   -1.7246    0.8599 H   0  0  0  0  0  0  0  0  0  0  0  0
   -0.9757   -0.8333   -0.0491 H   0  0  0  0  0  0  0  0  0  0  0  0
    6.7898    3.2013   -0.0509 H   0  0  0  0  0  0  0  0  0  0  0  0
    1.2408    2.4259   -0.0527 H   0  0  0  0  0  0  0  0  0  0  0  0
    2.5154    4.5204   -0.0544 H   0  0  0  0  0  0  0  0  0  0  0  0
    1.7794   -3.2355   -0.0511 H   0  0  0  0  0  0  0  0  0  0  0  0
    4.9838    4.4659   -0.0532 H   0  0  0  0  0  0  0  0  0  0  0  0
    4.2630   -4.3781   -0.0550 H   0  0  0  0  0  0  0  0  0  0  0  0
  1  2  1  0  0  0  0
  1  5  1  0  0  0  0
  2 17  1  0  0  0  0
  2 18  1  0  0  0  0
  2 19  1  0  0  0  0
  3 10  1  0  0  0  0
  3 20  1  0  0  0  0
  4  5  2  0  0  0  0
  4  6  1  0  0  0  0
  4  7  1  0  0  0  0
  5  8  1  0  0  0  0
  6  9  2  0  0  0  0
  6 10  1  0  0  0  0
  7 11  2  0  0  0  0
  7 21  1  0  0  0  0
  8 12  2  0  0  0  0
  8 13  1  0  0  0  0
  9 12  1  0  0  0  0
 10 14  2  0  0  0  0
 11 14  1  0  0  0  0
 11 22  1  0  0  0  0
 12 15  1  0  0  0  0
 13 16  2  0  0  0  0
 13 23  1  0  0  0  0
 14 24  1  0  0  0  0
 15 16  1  0  0  0  0
 16 25  1  0  0  0  0
M  END
>  <Mol_ID>
9604

>  <Formula>
C12H9NO3

>  <MolWeight>
215.20476

>  <Cat>
E2167

>  <Name>
4-Methoxyfuro[2,3-b]quinolin-8-ol

>  <Synonyms>
Robustine

>  <Target>
Metabolism

>  <Form>
free base

>  <CAS>
2255-50-7

>  <URL>
https://www.selleckchem.com/products/8-hydroxy-dictanmnine.html

$$$$
