4-Methyl-6-Methoxycoumarin
 OpenBabel08302521373D

 24 25  0  0  0  0  0  0  0  0999 V2000
   -0.3476   -2.9762   -0.0172 C   0  0  0  0  0  0  0  0  0  0  0  0
    4.2495   -0.6829    0.0118 O   0  0  0  0  0  0  0  0  0  0  0  0
    5.3660    0.1994    0.0066 C   0  0  0  0  0  0  0  0  0  0  0  0
   -3.1742    0.9340   -0.0121 O   0  0  0  0  0  0  0  0  0  0  0  0
    0.6091   -0.5841   -0.0068 C   0  0  0  0  0  0  0  0  0  0  0  0
    0.3816    0.7923   -0.0153 C   0  0  0  0  0  0  0  0  0  0  0  0
    1.9407   -1.0206    0.0036 C   0  0  0  0  0  0  0  0  0  0  0  0
   -0.5487   -1.4896   -0.0117 C   0  0  0  0  0  0  0  0  0  0  0  0
   -0.9206    1.3256   -0.0200 O   0  0  0  0  0  0  0  0  0  0  0  0
    1.4258    1.7156   -0.0177 C   0  0  0  0  0  0  0  0  0  0  0  0
    3.0073   -0.1079    0.0017 C   0  0  0  0  0  0  0  0  0  0  0  0
   -1.7769   -0.9511   -0.0145 C   0  0  0  0  0  0  0  0  0  0  0  0
   -2.0288    0.4981   -0.0146 C   0  0  0  0  0  0  0  0  0  0  0  0
    2.7440    1.2624   -0.0101 C   0  0  0  0  0  0  0  0  0  0  0  0
    0.2115   -3.2901   -0.9050 H   0  0  0  0  0  0  0  0  0  0  0  0
    0.1946   -3.2996    0.8774 H   0  0  0  0  0  0  0  0  0  0  0  0
   -1.3019   -3.5151   -0.0298 H   0  0  0  0  0  0  0  0  0  0  0  0
    5.3819    0.8103   -0.9021 H   0  0  0  0  0  0  0  0  0  0  0  0
    5.3781    0.8257    0.9049 H   0  0  0  0  0  0  0  0  0  0  0  0
    6.2749   -0.4098    0.0137 H   0  0  0  0  0  0  0  0  0  0  0  0
    2.1804   -2.0810    0.0133 H   0  0  0  0  0  0  0  0  0  0  0  0
    1.2128    2.7813   -0.0259 H   0  0  0  0  0  0  0  0  0  0  0  0
   -2.6723   -1.5624   -0.0187 H   0  0  0  0  0  0  0  0  0  0  0  0
    3.5382    2.0012   -0.0133 H   0  0  0  0  0  0  0  0  0  0  0  0
  1  8  1  0  0  0  0
  1 15  1  0  0  0  0
  1 16  1  0  0  0  0
  1 17  1  0  0  0  0
  2  3  1  0  0  0  0
  2 11  1  0  0  0  0
  3 18  1  0  0  0  0
  3 19  1  0  0  0  0
  3 20  1  0  0  0  0
  4 13  2  0  0  0  0
  5  6  1  0  0  0  0
  5  7  2  0  0  0  0
  5  8  1  0  0  0  0
  6  9  1  0  0  0  0
  6 10  2  0  0  0  0
  7 11  1  0  0  0  0
  7 21  1  0  0  0  0
  8 12  2  0  0  0  0
  9 13  1  0  0  0  0
 10 14  1  0  0  0  0
 10 22  1  0  0  0  0
 11 14  2  0  0  0  0
 12 13  1  0  0  0  0
 12 23  1  0  0  0  0
 14 24  1  0  0  0  0
M  END
>  <Mol_ID>
7460

>  <Formula>
C11H10O3

>  <MolWeight>
190.1953

>  <Cat>
E4564

>  <Name>
4-Methyl-6-Methoxycoumarin

>  <Synonyms>
4-Methyl-6-Methoxycoumarin

>  <Target>
Others

>  <Form>
Free base

>  <CAS>
6295-35-8

>  <URL>
https://www.selleckchem.com/products/4-methyl-6-methoxycoumarin.html

$$$$
