4-Methyl-1-pentanol
 OpenBabel08302521363D

 21 20  0  0  0  0  0  0  0  0999 V2000
    0.9371    0.0713   -0.1379 C   0  0  0  0  0  0  0  0  0  0  0  0
    0.4316    1.4480    0.3347 C   0  0  0  0  0  0  0  0  0  0  0  0
    0.4704   -0.3548   -1.5310 C   0  0  0  0  0  0  0  0  0  0  0  0
    0.8967    2.5859   -0.5749 C   0  0  0  0  0  0  0  0  0  0  0  0
   -1.0885    1.4837    0.5004 C   0  0  0  0  0  0  0  0  0  0  0  0
    1.0225   -1.7256   -1.9092 C   0  0  0  0  0  0  0  0  0  0  0  0
    0.5678   -2.0863   -3.2067 O   0  0  0  0  0  0  0  0  0  0  0  0
    0.6215   -0.6865    0.5915 H   0  0  0  0  0  0  0  0  0  0  0  0
    2.0343    0.0777   -0.1164 H   0  0  0  0  0  0  0  0  0  0  0  0
    0.8697    1.6234    1.3264 H   0  0  0  0  0  0  0  0  0  0  0  0
   -0.6236   -0.3855   -1.5820 H   0  0  0  0  0  0  0  0  0  0  0  0
    0.7900    0.3712   -2.2874 H   0  0  0  0  0  0  0  0  0  0  0  0
    0.4415    2.5252   -1.5682 H   0  0  0  0  0  0  0  0  0  0  0  0
    0.6226    3.5562   -0.1464 H   0  0  0  0  0  0  0  0  0  0  0  0
    1.9850    2.5679   -0.6935 H   0  0  0  0  0  0  0  0  0  0  0  0
   -1.4265    0.6808    1.1639 H   0  0  0  0  0  0  0  0  0  0  0  0
   -1.4040    2.4349    0.9433 H   0  0  0  0  0  0  0  0  0  0  0  0
   -1.6065    1.3781   -0.4578 H   0  0  0  0  0  0  0  0  0  0  0  0
    2.1167   -1.7117   -1.9279 H   0  0  0  0  0  0  0  0  0  0  0  0
    0.6998   -2.4956   -1.2019 H   0  0  0  0  0  0  0  0  0  0  0  0
   -0.4007   -2.1627   -3.1658 H   0  0  0  0  0  0  0  0  0  0  0  0
  1  2  1  0  0  0  0
  1  3  1  0  0  0  0
  1  8  1  0  0  0  0
  1  9  1  0  0  0  0
  2  4  1  0  0  0  0
  2  5  1  0  0  0  0
  2 10  1  0  0  0  0
  3  6  1  0  0  0  0
  3 11  1  0  0  0  0
  3 12  1  0  0  0  0
  4 13  1  0  0  0  0
  4 14  1  0  0  0  0
  4 15  1  0  0  0  0
  5 16  1  0  0  0  0
  5 17  1  0  0  0  0
  5 18  1  0  0  0  0
  6  7  1  0  0  0  0
  6 19  1  0  0  0  0
  6 20  1  0  0  0  0
  7 21  1  0  0  0  0
M  END
>  <Mol_ID>
7157

>  <Formula>
C6H14O

>  <MolWeight>
102.17476

>  <Cat>
E4148

>  <Name>
4-Methyl-1-pentanol

>  <Synonyms>
Isohexanol

>  <Target>
Others

>  <Form>
Free base

>  <CAS>
626-89-1

>  <URL>
https://www.selleckchem.com/products/4-methyl-1-pentanol.html

$$$$
