4-Methyl-2-oxovaleric acid
 OpenBabel08302521293D

 19 18  0  0  0  0  0  0  0  0999 V2000
    1.8751    1.0425   -0.4439 O   0  0  0  0  0  0  0  0  0  0  0  0
    1.4376    1.1237    2.0739 O   0  0  0  0  0  0  0  0  0  0  0  0
    2.4250   -0.9110    2.3675 O   0  0  0  0  0  0  0  0  0  0  0  0
    3.8561   -0.7183   -1.7104 C   0  0  0  0  0  0  0  0  0  0  0  0
    3.0369   -1.1042   -0.4692 C   0  0  0  0  0  0  0  0  0  0  0  0
    4.9367    0.3170   -1.3853 C   0  0  0  0  0  0  0  0  0  0  0  0
    4.5066   -1.9685   -2.3072 C   0  0  0  0  0  0  0  0  0  0  0  0
    2.3195    0.0673    0.1543 C   0  0  0  0  0  0  0  0  0  0  0  0
    2.0766    0.0107    1.6630 C   0  0  0  0  0  0  0  0  0  0  0  0
    1.2682    1.7030    1.2930 H   0  0  0  0  0  0  0  0  0  0  0  0
    3.1873   -0.2866   -2.4655 H   0  0  0  0  0  0  0  0  0  0  0  0
    3.6981   -1.5618    0.2742 H   0  0  0  0  0  0  0  0  0  0  0  0
    2.2722   -1.8434   -0.7359 H   0  0  0  0  0  0  0  0  0  0  0  0
    5.5750   -0.0181   -0.5608 H   0  0  0  0  0  0  0  0  0  0  0  0
    5.5760    0.4985   -2.2564 H   0  0  0  0  0  0  0  0  0  0  0  0
    4.4945    1.2774   -1.1032 H   0  0  0  0  0  0  0  0  0  0  0  0
    3.7473   -2.6979   -2.6069 H   0  0  0  0  0  0  0  0  0  0  0  0
    5.0970   -1.7158   -3.1948 H   0  0  0  0  0  0  0  0  0  0  0  0
    5.1748   -2.4509   -1.5848 H   0  0  0  0  0  0  0  0  0  0  0  0
  1  8  2  0  0  0  0
  2  9  1  0  0  0  0
  2 10  1  0  0  0  0
  3  9  2  0  0  0  0
  4  5  1  0  0  0  0
  4  6  1  0  0  0  0
  4  7  1  0  0  0  0
  4 11  1  0  0  0  0
  5  8  1  0  0  0  0
  5 12  1  0  0  0  0
  5 13  1  0  0  0  0
  6 14  1  0  0  0  0
  6 15  1  0  0  0  0
  6 16  1  0  0  0  0
  7 17  1  0  0  0  0
  7 18  1  0  0  0  0
  7 19  1  0  0  0  0
  8  9  1  0  0  0  0
M  END
>  <Mol_ID>
5430

>  <Formula>
C6H10O3

>  <MolWeight>
130.1418

>  <Cat>
S2987

>  <Name>
4-Methyl-2-oxovaleric acid

>  <Synonyms>
Ketoleucine, 4-MOV, KIC, 4-Methyl-2-oxopentanoic acid, alpha-Ketoisocaproic acid, alpha-ketoisocaproate, 2-Oxoisohexanoate

>  <Target>
Dehydrogenase,OXPHOS

>  <Form>
Free Base

>  <CAS>
816-66-0

>  <URL>
https://www.selleckchem.com/products/4-methyl-2-oxovaleric-acid.html

$$$$
