4-Methylcinnamic acid
 OpenBabel08302521373D

 22 22  0  0  0  0  0  0  0  0999 V2000
    2.4835   -0.1034   -0.0119 C   0  0  0  0  0  0  0  0  0  0  0  0
    3.2503   -1.0558    0.5429 C   0  0  0  0  0  0  0  0  0  0  0  0
    4.7199   -0.9464    0.4544 C   0  0  0  0  0  0  0  0  0  0  0  0
    5.3405   -1.9841    1.0507 O   0  0  0  0  0  0  0  0  0  0  0  0
    5.3180   -0.0357   -0.0914 O   0  0  0  0  0  0  0  0  0  0  0  0
   -3.3094    0.0487   -0.0310 C   0  0  0  0  0  0  0  0  0  0  0  0
    1.0130   -0.0984    0.0163 C   0  0  0  0  0  0  0  0  0  0  0  0
    0.3423    1.1311   -0.0029 C   0  0  0  0  0  0  0  0  0  0  0  0
    0.2527   -1.2743    0.0015 C   0  0  0  0  0  0  0  0  0  0  0  0
   -1.0556    1.1855   -0.0115 C   0  0  0  0  0  0  0  0  0  0  0  0
   -1.1449   -1.2212   -0.0050 C   0  0  0  0  0  0  0  0  0  0  0  0
   -1.8102    0.0089   -0.0112 C   0  0  0  0  0  0  0  0  0  0  0  0
    2.9492    0.7472   -0.5095 H   0  0  0  0  0  0  0  0  0  0  0  0
    2.8217   -1.8984    1.0658 H   0  0  0  0  0  0  0  0  0  0  0  0
    4.7557   -2.6485    1.4563 H   0  0  0  0  0  0  0  0  0  0  0  0
   -3.6868   -0.4490   -0.9302 H   0  0  0  0  0  0  0  0  0  0  0  0
   -3.7118   -0.4541    0.8543 H   0  0  0  0  0  0  0  0  0  0  0  0
   -3.6849    1.0771   -0.0335 H   0  0  0  0  0  0  0  0  0  0  0  0
    0.9018    2.0645   -0.0078 H   0  0  0  0  0  0  0  0  0  0  0  0
    0.7302   -2.2498   -0.0229 H   0  0  0  0  0  0  0  0  0  0  0  0
   -1.5470    2.1559   -0.0233 H   0  0  0  0  0  0  0  0  0  0  0  0
   -1.7126   -2.1491   -0.0162 H   0  0  0  0  0  0  0  0  0  0  0  0
  1  2  2  3  0  0  0
  1  7  1  0  0  0  0
  1 13  1  0  0  0  0
  2  3  1  0  0  0  0
  2 14  1  0  0  0  0
  3  4  1  0  0  0  0
  3  5  2  0  0  0  0
  4 15  1  0  0  0  0
  6 12  1  0  0  0  0
  6 16  1  0  0  0  0
  6 17  1  0  0  0  0
  6 18  1  0  0  0  0
  7  8  2  0  0  0  0
  7  9  1  0  0  0  0
  8 10  1  0  0  0  0
  8 19  1  0  0  0  0
  9 11  2  0  0  0  0
  9 20  1  0  0  0  0
 10 12  2  0  0  0  0
 10 21  1  0  0  0  0
 11 12  1  0  0  0  0
 11 22  1  0  0  0  0
M  END
>  <Mol_ID>
7341

>  <Formula>
C10H10O2

>  <MolWeight>
162.1852

>  <Cat>
E4387

>  <Name>
4-Methylcinnamic acid

>  <Synonyms>
4-Methylcinnamic acid

>  <Target>
Antifungal

>  <Form>
free base

>  <CAS>
1866-39-3

>  <URL>
https://www.selleckchem.com/products/4-methylcinnamic-acid.html

$$$$
