4-MMPB
 OpenBabel08302521453D

 41 44  0  0  0  0  0  0  0  0999 V2000
    0.8380   -0.1172   -0.1555 C   0  0  0  0  0  0  0  0  0  0  0  0
   -5.4067    2.6497   -5.2407 C   0  0  0  0  0  0  0  0  0  0  0  0
    1.1112    2.3895   -0.0597 C   0  0  0  0  0  0  0  0  0  0  0  0
    0.6678    3.5887   -0.6014 C   0  0  0  0  0  0  0  0  0  0  0  0
    2.1625    2.2936    0.8610 N   0  0  0  0  0  0  0  0  0  0  0  0
    0.4899    1.2725   -0.5944 C   0  0  0  0  0  0  0  0  0  0  0  0
   -0.3147    3.6827   -1.5266 N   0  0  0  0  0  0  0  0  0  0  0  0
    1.3528    5.1620   -0.1019 S   0  0  0  0  0  0  0  0  0  0  0  0
    2.8461    3.3676    1.4547 C   0  0  0  0  0  0  0  0  0  0  0  0
   -0.4869    1.3481   -1.5212 N   0  0  0  0  0  0  0  0  0  0  0  0
   -0.8729    2.5519   -1.9645 C   0  0  0  0  0  0  0  0  0  0  0  0
    2.6015    4.7025    1.0889 C   0  0  0  0  0  0  0  0  0  0  0  0
    3.8723    3.0904    2.3722 C   0  0  0  0  0  0  0  0  0  0  0  0
    3.3517    5.7311    1.6791 C   0  0  0  0  0  0  0  0  0  0  0  0
    4.6154    4.1192    2.9514 C   0  0  0  0  0  0  0  0  0  0  0  0
    4.3510    5.4405    2.6092 C   0  0  0  0  0  0  0  0  0  0  0  0
   -1.9388    2.6030   -2.8381 N   0  0  0  0  0  0  0  0  0  0  0  0
   -2.2390    3.8753   -3.4936 C   0  0  0  0  0  0  0  0  0  0  0  0
   -2.1484    1.4315   -3.6929 C   0  0  0  0  0  0  0  0  0  0  0  0
   -3.7005    3.8413   -4.0102 C   0  0  0  0  0  0  0  0  0  0  0  0
   -3.6051    1.4274   -4.2048 C   0  0  0  0  0  0  0  0  0  0  0  0
   -3.9869    2.6833   -4.8921 N   0  0  0  0  0  0  0  0  0  0  0  0
    0.3280   -0.8616   -0.7787 H   0  0  0  0  0  0  0  0  0  0  0  0
    0.5244   -0.2777    0.8811 H   0  0  0  0  0  0  0  0  0  0  0  0
    1.9134   -0.2966   -0.2448 H   0  0  0  0  0  0  0  0  0  0  0  0
   -5.6172    1.8078   -5.9092 H   0  0  0  0  0  0  0  0  0  0  0  0
   -6.0493    2.5540   -4.3572 H   0  0  0  0  0  0  0  0  0  0  0  0
   -5.6921    3.5609   -5.7769 H   0  0  0  0  0  0  0  0  0  0  0  0
    2.2457    1.4147    1.3549 H   0  0  0  0  0  0  0  0  0  0  0  0
    4.1042    2.0628    2.6411 H   0  0  0  0  0  0  0  0  0  0  0  0
    3.1621    6.7690    1.4141 H   0  0  0  0  0  0  0  0  0  0  0  0
    5.4027    3.8869    3.6636 H   0  0  0  0  0  0  0  0  0  0  0  0
    4.9273    6.2462    3.0568 H   0  0  0  0  0  0  0  0  0  0  0  0
   -1.5513    4.0434   -4.3316 H   0  0  0  0  0  0  0  0  0  0  0  0
   -2.1512    4.7263   -2.8079 H   0  0  0  0  0  0  0  0  0  0  0  0
   -1.4519    1.4592   -4.5418 H   0  0  0  0  0  0  0  0  0  0  0  0
   -1.9867    0.4859   -3.1626 H   0  0  0  0  0  0  0  0  0  0  0  0
   -3.8985    4.7717   -4.5549 H   0  0  0  0  0  0  0  0  0  0  0  0
   -4.3713    3.8214   -3.1389 H   0  0  0  0  0  0  0  0  0  0  0  0
   -4.2698    1.2492   -3.3482 H   0  0  0  0  0  0  0  0  0  0  0  0
   -3.7250    0.5835   -4.8946 H   0  0  0  0  0  0  0  0  0  0  0  0
  1  6  1  0  0  0  0
  1 23  1  0  0  0  0
  1 24  1  0  0  0  0
  1 25  1  0  0  0  0
  2 22  1  0  0  0  0
  2 26  1  0  0  0  0
  2 27  1  0  0  0  0
  2 28  1  0  0  0  0
  3  4  2  0  0  0  0
  3  5  1  0  0  0  0
  3  6  1  0  0  0  0
  4  7  1  0  0  0  0
  4  8  1  0  0  0  0
  5  9  1  0  0  0  0
  5 29  1  0  0  0  0
  6 10  2  0  0  0  0
  7 11  2  0  0  0  0
  8 12  1  0  0  0  0
  9 12  2  0  0  0  0
  9 13  1  0  0  0  0
 10 11  1  0  0  0  0
 11 17  1  0  0  0  0
 12 14  1  0  0  0  0
 13 15  2  0  0  0  0
 13 30  1  0  0  0  0
 14 16  2  0  0  0  0
 14 31  1  0  0  0  0
 15 16  1  0  0  0  0
 15 32  1  0  0  0  0
 16 33  1  0  0  0  0
 17 18  1  0  0  0  0
 17 19  1  0  0  0  0
 18 20  1  0  0  0  0
 18 34  1  0  0  0  0
 18 35  1  0  0  0  0
 19 21  1  0  0  0  0
 19 36  1  0  0  0  0
 19 37  1  0  0  0  0
 20 22  1  0  0  0  0
 20 38  1  0  0  0  0
 20 39  1  0  0  0  0
 21 22  1  0  0  0  0
 21 40  1  0  0  0  0
 21 41  1  0  0  0  0
M  END
>  <Mol_ID>
9435

>  <Formula>
C16H19N5S

>  <MolWeight>
313.42056

>  <Cat>
E0335

>  <Name>
4-MMPB

>  <Target>
Lipoxygenase

>  <Form>
free base

>  <CAS>
928853-86-5

>  <URL>
http://www.selleckchem.com/products/4-mmpb.html

$$$$
