4-Nitrophenyl-2-acetamido-2-deoxy-¦Â-D-glucopyran
 OpenBabel08302521383D

 42 43  0  0  1  0  0  0  0  0999 V2000
    0.9624    0.0874   -0.3568 O   0  0  0  0  0  0  0  0  0  0  0  0
    2.4512   -2.3978    0.2351 N   0  0  0  0  0  0  0  0  0  0  0  0
    1.3517   -3.1224   -0.1741 C   0  0  0  0  0  0  0  0  0  0  0  0
    0.9931   -4.2662    0.7376 C   0  0  0  0  0  0  0  0  0  0  0  0
    0.7097   -2.8681   -1.1838 O   0  0  0  0  0  0  0  0  0  0  0  0
    5.1205   -2.4557   -0.8476 O   0  0  0  0  0  0  0  0  0  0  0  0
    4.8459    2.4362   -1.7003 C   0  0  0  0  0  0  0  0  0  0  0  0
    4.1060    3.5999   -1.3183 O   0  0  0  0  0  0  0  0  0  0  0  0
    6.5244    0.1081   -0.9317 O   0  0  0  0  0  0  0  0  0  0  0  0
   -1.7792    4.9341   -1.1447 N   0  3  0  0  0  0  0  0  0  0  0  0
   -2.8780    4.8660   -1.7151 O   0  5  0  0  0  0  0  0  0  0  0  0
   -1.2323    5.9915   -0.7970 O   0  0  0  0  0  0  0  0  0  0  0  0
    2.3896    0.1038   -0.2142 C   0  0  1  0  0  0  0  0  0  0  0  0
    2.9823   -1.2884   -0.5697 C   0  0  1  0  0  0  0  0  0  0  0  0
    2.9879    1.0736   -1.0881 O   0  0  0  0  0  0  0  0  0  0  0  0
    4.5205   -1.2226   -0.4273 C   0  0  2  0  0  0  0  0  0  0  0  0
    4.3862    1.2492   -0.8492 C   0  0  1  0  0  0  0  0  0  0  0  0
    5.1309   -0.0387   -1.2035 C   0  0  1  0  0  0  0  0  0  0  0  0
    0.3261    1.2977   -0.4266 C   0  0  0  0  0  0  0  0  0  0  0  0
   -0.9278    1.2719   -1.0435 C   0  0  0  0  0  0  0  0  0  0  0  0
    0.8413    2.5131    0.0350 C   0  0  0  0  0  0  0  0  0  0  0  0
   -1.6329    2.4580   -1.2696 C   0  0  0  0  0  0  0  0  0  0  0  0
    0.1572    3.7084   -0.2033 C   0  0  0  0  0  0  0  0  0  0  0  0
   -1.0750    3.6772   -0.8651 C   0  0  0  0  0  0  0  0  0  0  0  0
    2.9984   -2.7416    1.0146 H   0  0  0  0  0  0  0  0  0  0  0  0
    0.2167   -3.9422    1.4355 H   0  0  0  0  0  0  0  0  0  0  0  0
    0.6190   -5.0989    0.1353 H   0  0  0  0  0  0  0  0  0  0  0  0
    1.8623   -4.6198    1.2988 H   0  0  0  0  0  0  0  0  0  0  0  0
    4.8769   -2.6130   -1.7783 H   0  0  0  0  0  0  0  0  0  0  0  0
    5.9086    2.6488   -1.5592 H   0  0  0  0  0  0  0  0  0  0  0  0
    4.6530    2.2625   -2.7640 H   0  0  0  0  0  0  0  0  0  0  0  0
    3.1711    3.3858   -1.5010 H   0  0  0  0  0  0  0  0  0  0  0  0
    6.7095   -0.1889   -0.0235 H   0  0  0  0  0  0  0  0  0  0  0  0
    2.6157    0.3440    0.8346 H   0  0  0  0  0  0  0  0  0  0  0  0
    2.7435   -1.5129   -1.6179 H   0  0  0  0  0  0  0  0  0  0  0  0
    4.7831   -1.1252    0.6346 H   0  0  0  0  0  0  0  0  0  0  0  0
    4.5342    1.5138    0.2066 H   0  0  0  0  0  0  0  0  0  0  0  0
    5.0383   -0.2412   -2.2781 H   0  0  0  0  0  0  0  0  0  0  0  0
   -1.3412    0.3221   -1.3791 H   0  0  0  0  0  0  0  0  0  0  0  0
    1.7931    2.5672    0.5550 H   0  0  0  0  0  0  0  0  0  0  0  0
   -2.5953    2.4128   -1.7755 H   0  0  0  0  0  0  0  0  0  0  0  0
    0.6048    4.6463    0.1187 H   0  0  0  0  0  0  0  0  0  0  0  0
  1 19  1  0  0  0  0
  2  3  1  0  0  0  0
  2 25  1  0  0  0  0
  3  4  1  0  0  0  0
  3  5  2  0  0  0  0
  4 26  1  0  0  0  0
  4 27  1  0  0  0  0
  4 28  1  0  0  0  0
  6 29  1  0  0  0  0
  7  8  1  0  0  0  0
  7 30  1  0  0  0  0
  7 31  1  0  0  0  0
  8 32  1  0  0  0  0
  9 33  1  0  0  0  0
 10 11  1  0  0  0  0
 10 12  2  0  0  0  0
 10 24  1  0  0  0  0
 13  1  1  0  0  0  0
 13 14  1  0  0  0  0
 13 15  1  0  0  0  0
 13 34  1  1  0  0  0
 14  2  1  0  0  0  0
 14 16  1  0  0  0  0
 14 35  1  6  0  0  0
 15 17  1  0  0  0  0
 16  6  1  0  0  0  0
 16 18  1  0  0  0  0
 16 36  1  1  0  0  0
 17 18  1  0  0  0  0
 17 37  1  1  0  0  0
 17  7  1  0  0  0  0
 18  9  1  0  0  0  0
 18 38  1  6  0  0  0
 19 20  2  0  0  0  0
 19 21  1  0  0  0  0
 20 22  1  0  0  0  0
 20 39  1  0  0  0  0
 21 23  2  0  0  0  0
 21 40  1  0  0  0  0
 22 24  2  0  0  0  0
 22 41  1  0  0  0  0
 23 24  1  0  0  0  0
 23 42  1  0  0  0  0
M  CHG  2  10   1  11  -1
M  END
>  <Mol_ID>
7627

>  <Formula>
C14H18N2O8

>  <MolWeight>
342.30132

>  <Cat>
E2965

>  <Name>
4-Nitrophenyl-2-acetamido-2-deoxy-¦Â-D-glucopyran

>  <Target>
Others

>  <Form>
Nitrophenyl

>  <CAS>
3459-18-5

>  <URL>
https://www.selleckchem.com/products/4-nitrophenyl-2-acetamido-2-deoxy-beta-d-glucopyranoside.h

$$$$
