4-Nitrophenyl alpha-D-glucopyranoside
 OpenBabel08302521383D

 36 37  0  0  1  0  0  0  0  0999 V2000
    0.7968   -0.0355    0.0003 O   0  0  0  0  0  0  0  0  0  0  0  0
    2.2059    0.9413   -2.2719 O   0  0  0  0  0  0  0  0  0  0  0  0
    3.1183   -1.5812   -3.3712 O   0  0  0  0  0  0  0  0  0  0  0  0
    3.1450   -3.4046    1.2465 C   0  0  0  0  0  0  0  0  0  0  0  0
    2.4697   -3.3135    2.5036 O   0  0  0  0  0  0  0  0  0  0  0  0
    2.8011   -3.8830   -1.6480 O   0  0  0  0  0  0  0  0  0  0  0  0
   -1.6879   -0.5364    5.0137 N   0  3  0  0  0  0  0  0  0  0  0  0
   -0.9978   -0.3395    6.0262 O   0  5  0  0  0  0  0  0  0  0  0  0
   -2.8469   -0.9725    5.0277 O   0  0  0  0  0  0  0  0  0  0  0  0
    2.2375   -0.0283   -0.0135 C   0  0  2  0  0  0  0  0  0  0  0  0
    2.7683   -0.0931   -1.4594 C   0  0  1  0  0  0  0  0  0  0  0  0
    2.8137   -1.0825    0.7702 O   0  0  0  0  0  0  0  0  0  0  0  0
    2.5235   -1.4786   -2.0758 C   0  0  2  0  0  0  0  0  0  0  0  0
    2.5287   -2.4007    0.2641 C   0  0  1  0  0  0  0  0  0  0  0  0
    3.0899   -2.5745   -1.1490 C   0  0  1  0  0  0  0  0  0  0  0  0
    0.2063    0.0203    1.2397 C   0  0  0  0  0  0  0  0  0  0  0  0
    0.8494    0.4147    2.4177 C   0  0  0  0  0  0  0  0  0  0  0  0
   -1.1249   -0.4059    1.2964 C   0  0  0  0  0  0  0  0  0  0  0  0
    0.2182    0.2658    3.6548 C   0  0  0  0  0  0  0  0  0  0  0  0
   -1.7709   -0.5530    2.5300 C   0  0  0  0  0  0  0  0  0  0  0  0
   -1.0775   -0.2564    3.7099 C   0  0  0  0  0  0  0  0  0  0  0  0
    1.2518    0.7609   -2.3605 H   0  0  0  0  0  0  0  0  0  0  0  0
    4.0669   -1.3644   -3.3033 H   0  0  0  0  0  0  0  0  0  0  0  0
    3.0584   -4.4361    0.8938 H   0  0  0  0  0  0  0  0  0  0  0  0
    4.2012   -3.1781    1.4270 H   0  0  0  0  0  0  0  0  0  0  0  0
    2.4296   -2.3635    2.7199 H   0  0  0  0  0  0  0  0  0  0  0  0
    1.9324   -3.8692   -2.0878 H   0  0  0  0  0  0  0  0  0  0  0  0
    2.5726    0.9331    0.3948 H   0  0  0  0  0  0  0  0  0  0  0  0
    3.8507    0.0846   -1.4413 H   0  0  0  0  0  0  0  0  0  0  0  0
    1.4530   -1.6403   -2.2346 H   0  0  0  0  0  0  0  0  0  0  0  0
    1.4417   -2.5588    0.2652 H   0  0  0  0  0  0  0  0  0  0  0  0
    4.1849   -2.4876   -1.1284 H   0  0  0  0  0  0  0  0  0  0  0  0
    1.8614    0.8078    2.4170 H   0  0  0  0  0  0  0  0  0  0  0  0
   -1.6535   -0.6690    0.3825 H   0  0  0  0  0  0  0  0  0  0  0  0
    0.7619    0.5324    4.5592 H   0  0  0  0  0  0  0  0  0  0  0  0
   -2.7921   -0.9285    2.5553 H   0  0  0  0  0  0  0  0  0  0  0  0
  1 16  1  0  0  0  0
  2 22  1  0  0  0  0
  3 23  1  0  0  0  0
  4  5  1  0  0  0  0
  4 24  1  0  0  0  0
  4 25  1  0  0  0  0
  5 26  1  0  0  0  0
  6 27  1  0  0  0  0
  7  8  1  0  0  0  0
  7  9  2  0  0  0  0
  7 21  1  0  0  0  0
 10  1  1  0  0  0  0
 10 11  1  0  0  0  0
 10 12  1  0  0  0  0
 10 28  1  1  0  0  0
 11  2  1  0  0  0  0
 11 13  1  0  0  0  0
 11 29  1  1  0  0  0
 12 14  1  0  0  0  0
 13  3  1  0  0  0  0
 13 15  1  0  0  0  0
 13 30  1  6  0  0  0
 14  4  1  0  0  0  0
 14 15  1  0  0  0  0
 14 31  1  6  0  0  0
 15  6  1  0  0  0  0
 15 32  1  1  0  0  0
 16 17  2  0  0  0  0
 16 18  1  0  0  0  0
 17 19  1  0  0  0  0
 17 33  1  0  0  0  0
 18 20  2  0  0  0  0
 18 34  1  0  0  0  0
 19 21  2  0  0  0  0
 19 35  1  0  0  0  0
 20 21  1  0  0  0  0
 20 36  1  0  0  0  0
M  CHG  2   7   1   8  -1
M  END
>  <Mol_ID>
7647

>  <Formula>
C12H15NO8

>  <MolWeight>
301.2494

>  <Cat>
E4014

>  <Name>
4-Nitrophenyl alpha-D-glucopyranoside

>  <Target>
Carbohydrate Metabolism

>  <Form>
free base

>  <CAS>
3767-28-0

>  <URL>
https://www.selleckchem.com/products/4-nitrophenyl-alpha-d-glucopyranoside.html

$$$$
