4-Nitrophenyl beta-D-glucopyranoside
 OpenBabel08302521383D

 36 37  0  0  1  0  0  0  0  0999 V2000
    3.0085    1.1733    0.4637 O   0  0  0  0  0  0  0  0  0  0  0  0
    2.5940    0.7639   -2.3813 O   0  0  0  0  0  0  0  0  0  0  0  0
    3.1098   -1.8882   -3.3506 O   0  0  0  0  0  0  0  0  0  0  0  0
    2.9957   -3.4434    1.4000 C   0  0  0  0  0  0  0  0  0  0  0  0
    2.4912   -3.0476    2.6795 O   0  0  0  0  0  0  0  0  0  0  0  0
    2.4740   -4.0382   -1.4636 O   0  0  0  0  0  0  0  0  0  0  0  0
    0.6317    3.0541    5.2187 N   0  3  0  0  0  0  0  0  0  0  0  0
   -0.1474    2.3028    5.8184 O   0  5  0  0  0  0  0  0  0  0  0  0
    0.9160    4.2079    5.5655 O   0  0  0  0  0  0  0  0  0  0  0  0
    2.5807   -0.0831   -0.0751 C   0  0  1  0  0  0  0  0  0  0  0  0
    3.0932   -0.2702   -1.5200 C   0  0  1  0  0  0  0  0  0  0  0  0
    3.0773   -1.1537    0.7348 O   0  0  0  0  0  0  0  0  0  0  0  0
    2.6236   -1.6504   -2.0248 C   0  0  2  0  0  0  0  0  0  0  0  0
    2.5441   -2.4269    0.3504 C   0  0  1  0  0  0  0  0  0  0  0  0
    3.0222   -2.7838   -1.0597 C   0  0  1  0  0  0  0  0  0  0  0  0
    2.4098    1.5502    1.6409 C   0  0  0  0  0  0  0  0  0  0  0  0
    1.5496    0.7510    2.4049 C   0  0  0  0  0  0  0  0  0  0  0  0
    2.7133    2.8406    2.0831 C   0  0  0  0  0  0  0  0  0  0  0  0
    0.9835    1.2321    3.5854 C   0  0  0  0  0  0  0  0  0  0  0  0
    2.1440    3.3391    3.2614 C   0  0  0  0  0  0  0  0  0  0  0  0
    1.2748    2.5223    4.0007 C   0  0  0  0  0  0  0  0  0  0  0  0
    2.1262    0.3464   -3.1292 H   0  0  0  0  0  0  0  0  0  0  0  0
    4.0820   -1.8159   -3.3442 H   0  0  0  0  0  0  0  0  0  0  0  0
    2.6167   -4.4451    1.1821 H   0  0  0  0  0  0  0  0  0  0  0  0
    4.0872   -3.4799    1.4764 H   0  0  0  0  0  0  0  0  0  0  0  0
    2.8714   -2.1649    2.8517 H   0  0  0  0  0  0  0  0  0  0  0  0
    1.6131   -3.8902   -1.8939 H   0  0  0  0  0  0  0  0  0  0  0  0
    1.4808   -0.0893   -0.1139 H   0  0  0  0  0  0  0  0  0  0  0  0
    4.1878   -0.2128   -1.5504 H   0  0  0  0  0  0  0  0  0  0  0  0
    1.5319   -1.6412   -2.1339 H   0  0  0  0  0  0  0  0  0  0  0  0
    1.4471   -2.3713    0.3889 H   0  0  0  0  0  0  0  0  0  0  0  0
    4.1131   -2.8940   -1.0737 H   0  0  0  0  0  0  0  0  0  0  0  0
    1.3006   -0.2656    2.1264 H   0  0  0  0  0  0  0  0  0  0  0  0
    3.3833    3.4697    1.5035 H   0  0  0  0  0  0  0  0  0  0  0  0
    0.3225    0.5820    4.1550 H   0  0  0  0  0  0  0  0  0  0  0  0
    2.3880    4.3522    3.5851 H   0  0  0  0  0  0  0  0  0  0  0  0
  1 16  1  0  0  0  0
  2 22  1  0  0  0  0
  3 23  1  0  0  0  0
  4  5  1  0  0  0  0
  4 24  1  0  0  0  0
  4 25  1  0  0  0  0
  5 26  1  0  0  0  0
  6 27  1  0  0  0  0
  7  8  1  0  0  0  0
  7  9  2  0  0  0  0
  7 21  1  0  0  0  0
 10 11  1  0  0  0  0
 10 12  1  0  0  0  0
 10 28  1  6  0  0  0
 10  1  1  0  0  0  0
 11  2  1  0  0  0  0
 11 13  1  0  0  0  0
 11 29  1  1  0  0  0
 12 14  1  0  0  0  0
 13  3  1  0  0  0  0
 13 15  1  0  0  0  0
 13 30  1  6  0  0  0
 14  4  1  0  0  0  0
 14 15  1  0  0  0  0
 14 31  1  1  0  0  0
 15  6  1  0  0  0  0
 15 32  1  1  0  0  0
 16 17  2  0  0  0  0
 16 18  1  0  0  0  0
 17 19  1  0  0  0  0
 17 33  1  0  0  0  0
 18 20  2  0  0  0  0
 18 34  1  0  0  0  0
 19 21  2  0  0  0  0
 19 35  1  0  0  0  0
 20 21  1  0  0  0  0
 20 36  1  0  0  0  0
M  CHG  2   7   1   8  -1
M  END
>  <Mol_ID>
7657

>  <Formula>
C12H15NO8

>  <MolWeight>
301.2494

>  <Cat>
E4033

>  <Name>
4-Nitrophenyl beta-D-glucopyranoside

>  <Target>
Others

>  <Form>
free base

>  <CAS>
2492-87-7

>  <URL>
https://www.selleckchem.com/products/4-nitrophenyl-beta-d-glucopyranoside.html

$$$$
