4-O-Methyl honokiol
 OpenBabel08302521533D

 41 42  0  0  0  0  0  0  0  0999 V2000
   -1.8155   -2.0233   -1.1921 O   0  0  0  0  0  0  0  0  0  0  0  0
    0.9054    2.3382    1.1984 C   0  0  0  0  0  0  0  0  0  0  0  0
    0.4776    2.4781    2.6337 C   0  0  0  0  0  0  0  0  0  0  0  0
    1.3096    2.4384    3.6823 C   0  0  0  0  0  0  0  0  0  0  0  0
    3.2798   -4.2767    2.4370 C   0  0  0  0  0  0  0  0  0  0  0  0
    4.6594   -3.7183    2.2037 C   0  0  0  0  0  0  0  0  0  0  0  0
    5.2056   -2.7210    2.9130 C   0  0  0  0  0  0  0  0  0  0  0  0
    2.7846   -6.3257   -0.0068 O   0  0  0  0  0  0  0  0  0  0  0  0
    3.6571   -6.9185    0.9312 C   0  0  0  0  0  0  0  0  0  0  0  0
    0.2043   -1.2392   -0.0498 C   0  0  0  0  0  0  0  0  0  0  0  0
    0.8210   -0.1035    0.5271 C   0  0  0  0  0  0  0  0  0  0  0  0
   -1.0501   -1.0212   -0.6552 C   0  0  0  0  0  0  0  0  0  0  0  0
    0.2305    1.1749    0.5093 C   0  0  0  0  0  0  0  0  0  0  0  0
   -1.6329    0.2475   -0.7138 C   0  0  0  0  0  0  0  0  0  0  0  0
   -1.0017    1.3411   -0.1248 C   0  0  0  0  0  0  0  0  0  0  0  0
    0.8915   -2.5598    0.0073 C   0  0  0  0  0  0  0  0  0  0  0  0
    1.6803   -2.9280    1.1137 C   0  0  0  0  0  0  0  0  0  0  0  0
    0.8267   -3.4871   -1.0332 C   0  0  0  0  0  0  0  0  0  0  0  0
    2.3954   -4.1567    1.2150 C   0  0  0  0  0  0  0  0  0  0  0  0
    1.4679   -4.7260   -0.9352 C   0  0  0  0  0  0  0  0  0  0  0  0
    2.2609   -5.0796    0.1708 C   0  0  0  0  0  0  0  0  0  0  0  0
   -1.5515   -2.8567   -0.7693 H   0  0  0  0  0  0  0  0  0  0  0  0
    1.9945    2.2252    1.1222 H   0  0  0  0  0  0  0  0  0  0  0  0
    0.6654    3.2670    0.6655 H   0  0  0  0  0  0  0  0  0  0  0  0
   -0.5858    2.6324    2.8139 H   0  0  0  0  0  0  0  0  0  0  0  0
    0.9316    2.5552    4.6942 H   0  0  0  0  0  0  0  0  0  0  0  0
    2.3782    2.2932    3.5595 H   0  0  0  0  0  0  0  0  0  0  0  0
    2.8024   -3.7452    3.2728 H   0  0  0  0  0  0  0  0  0  0  0  0
    3.3468   -5.3006    2.8005 H   0  0  0  0  0  0  0  0  0  0  0  0
    5.2436   -4.1589    1.3982 H   0  0  0  0  0  0  0  0  0  0  0  0
    6.2088   -2.3656    2.6899 H   0  0  0  0  0  0  0  0  0  0  0  0
    4.6725   -2.2350    3.7229 H   0  0  0  0  0  0  0  0  0  0  0  0
    4.5751   -6.3391    1.0432 H   0  0  0  0  0  0  0  0  0  0  0  0
    3.1538   -7.1034    1.8830 H   0  0  0  0  0  0  0  0  0  0  0  0
    3.9477   -7.8979    0.5372 H   0  0  0  0  0  0  0  0  0  0  0  0
    1.7950   -0.2001    1.0037 H   0  0  0  0  0  0  0  0  0  0  0  0
   -2.5970    0.3761   -1.1978 H   0  0  0  0  0  0  0  0  0  0  0  0
   -1.4805    2.3132   -0.1571 H   0  0  0  0  0  0  0  0  0  0  0  0
    1.7713   -2.2274    1.9459 H   0  0  0  0  0  0  0  0  0  0  0  0
    0.2892   -3.2625   -1.9528 H   0  0  0  0  0  0  0  0  0  0  0  0
    1.3651   -5.4321   -1.7593 H   0  0  0  0  0  0  0  0  0  0  0  0
  1 12  1  0  0  0  0
  1 22  1  0  0  0  0
  2  3  1  0  0  0  0
  2 13  1  0  0  0  0
  2 23  1  0  0  0  0
  2 24  1  0  0  0  0
  3  4  2  0  0  0  0
  3 25  1  0  0  0  0
  4 26  1  0  0  0  0
  4 27  1  0  0  0  0
  5  6  1  0  0  0  0
  5 19  1  0  0  0  0
  5 28  1  0  0  0  0
  5 29  1  0  0  0  0
  6  7  2  0  0  0  0
  6 30  1  0  0  0  0
  7 31  1  0  0  0  0
  7 32  1  0  0  0  0
  8  9  1  0  0  0  0
  8 21  1  0  0  0  0
  9 33  1  0  0  0  0
  9 34  1  0  0  0  0
  9 35  1  0  0  0  0
 10 11  2  0  0  0  0
 10 12  1  0  0  0  0
 10 16  1  0  0  0  0
 11 13  1  0  0  0  0
 11 36  1  0  0  0  0
 12 14  2  0  0  0  0
 13 15  2  0  0  0  0
 14 15  1  0  0  0  0
 14 37  1  0  0  0  0
 15 38  1  0  0  0  0
 16 17  2  0  0  0  0
 16 18  1  0  0  0  0
 17 19  1  0  0  0  0
 17 39  1  0  0  0  0
 18 20  2  0  0  0  0
 18 40  1  0  0  0  0
 19 21  2  0  0  0  0
 20 21  1  0  0  0  0
 20 41  1  0  0  0  0
M  END
>  <Mol_ID>
9982

>  <Formula>
C19H20O2

>  <MolWeight>
280.3609

>  <Cat>
E5347

>  <Name>
4-O-Methyl honokiol

>  <Synonyms>
NA

>  <Target>
PPAR¦Ã, NF-¦ÊB

>  <Form>
Free Base

>  <CAS>
68592-15-4

>  <URL>
https://www.selleckchem.com/products/4-o-methyl-honokiol.html

$$$$
