4-Octyl Itaconate
 OpenBabel08302520143D

 39 38  0  0  0  0  0  0  0  0999 V2000
    4.8613   -0.4893   -0.5671 C   0  0  0  0  0  0  0  0  0  0  0  0
    6.1824   -1.1033   -0.1297 C   0  0  0  0  0  0  0  0  0  0  0  0
    7.3669   -0.4893   -0.8153 C   0  0  0  0  0  0  0  0  0  0  0  0
    7.6914    0.9293   -0.5672 C   0  0  0  0  0  0  0  0  0  0  0  0
    4.2428   -0.8317   -1.5669 O   0  0  0  0  0  0  0  0  0  0  0  0
    4.4511    0.4614    0.3169 O   0  0  0  0  0  0  0  0  0  0  0  0
    8.3850    1.6506   -1.2623 O   0  0  0  0  0  0  0  0  0  0  0  0
    7.1595    1.3730    0.5818 O   0  0  0  0  0  0  0  0  0  0  0  0
    1.6883    3.9655   -1.9507 C   0  0  0  0  0  0  0  0  0  0  0  0
    1.7409    2.8355   -0.9165 C   0  0  0  0  0  0  0  0  0  0  0  0
    3.1045    2.1325   -0.8932 C   0  0  0  0  0  0  0  0  0  0  0  0
    3.1314    1.0052    0.1396 C   0  0  0  0  0  0  0  0  0  0  0  0
    8.2041   -1.1692   -1.6203 C   0  0  0  0  0  0  0  0  0  0  0  0
    0.3090    4.6367   -1.9925 C   0  0  0  0  0  0  0  0  0  0  0  0
    0.2695    5.7793   -3.0133 C   0  0  0  0  0  0  0  0  0  0  0  0
   -1.1112    6.4363   -3.0824 C   0  0  0  0  0  0  0  0  0  0  0  0
   -1.1383    7.5764   -4.0906 C   0  0  0  0  0  0  0  0  0  0  0  0
    6.2784   -1.0358    0.9598 H   0  0  0  0  0  0  0  0  0  0  0  0
    6.1166   -2.1783   -0.3432 H   0  0  0  0  0  0  0  0  0  0  0  0
    7.4503    2.3047    0.6282 H   0  0  0  0  0  0  0  0  0  0  0  0
    2.4521    4.7150   -1.7112 H   0  0  0  0  0  0  0  0  0  0  0  0
    1.9274    3.5647   -2.9431 H   0  0  0  0  0  0  0  0  0  0  0  0
    0.9555    2.1021   -1.1348 H   0  0  0  0  0  0  0  0  0  0  0  0
    1.5280    3.2478    0.0780 H   0  0  0  0  0  0  0  0  0  0  0  0
    3.8997    2.8534   -0.6700 H   0  0  0  0  0  0  0  0  0  0  0  0
    3.3333    1.7263   -1.8860 H   0  0  0  0  0  0  0  0  0  0  0  0
    2.4206    0.2086   -0.1099 H   0  0  0  0  0  0  0  0  0  0  0  0
    2.8365    1.3991    1.1189 H   0  0  0  0  0  0  0  0  0  0  0  0
    8.0581   -2.2247   -1.8368 H   0  0  0  0  0  0  0  0  0  0  0  0
    9.0670   -0.6938   -2.0780 H   0  0  0  0  0  0  0  0  0  0  0  0
   -0.4533    3.8909   -2.2489 H   0  0  0  0  0  0  0  0  0  0  0  0
    0.0577    5.0265   -0.9986 H   0  0  0  0  0  0  0  0  0  0  0  0
    1.0199    6.5338   -2.7479 H   0  0  0  0  0  0  0  0  0  0  0  0
    0.5365    5.3929   -4.0044 H   0  0  0  0  0  0  0  0  0  0  0  0
   -1.8633    5.6909   -3.3658 H   0  0  0  0  0  0  0  0  0  0  0  0
   -1.3937    6.8237   -2.0966 H   0  0  0  0  0  0  0  0  0  0  0  0
   -0.8233    7.2351   -5.0819 H   0  0  0  0  0  0  0  0  0  0  0  0
   -2.1509    7.9831   -4.1787 H   0  0  0  0  0  0  0  0  0  0  0  0
   -0.4737    8.3892   -3.7802 H   0  0  0  0  0  0  0  0  0  0  0  0
  1  2  1  0  0  0  0
  1  5  2  0  0  0  0
  1  6  1  0  0  0  0
  2  3  1  0  0  0  0
  2 18  1  0  0  0  0
  2 19  1  0  0  0  0
  3  4  1  0  0  0  0
  3 13  2  0  0  0  0
  4  7  2  0  0  0  0
  4  8  1  0  0  0  0
  6 12  1  0  0  0  0
  8 20  1  0  0  0  0
  9 10  1  0  0  0  0
  9 14  1  0  0  0  0
  9 21  1  0  0  0  0
  9 22  1  0  0  0  0
 10 11  1  0  0  0  0
 10 23  1  0  0  0  0
 10 24  1  0  0  0  0
 11 12  1  0  0  0  0
 11 25  1  0  0  0  0
 11 26  1  0  0  0  0
 12 27  1  0  0  0  0
 12 28  1  0  0  0  0
 13 29  1  0  0  0  0
 13 30  1  0  0  0  0
 14 15  1  0  0  0  0
 14 31  1  0  0  0  0
 14 32  1  0  0  0  0
 15 16  1  0  0  0  0
 15 33  1  0  0  0  0
 15 34  1  0  0  0  0
 16 17  1  0  0  0  0
 16 35  1  0  0  0  0
 16 36  1  0  0  0  0
 17 37  1  0  0  0  0
 17 38  1  0  0  0  0
 17 39  1  0  0  0  0
M  END
>  <Mol_ID>
3190

>  <Formula>
C13H22O4

>  <MolWeight>
242.31138

>  <Cat>
S5929

>  <Name>
4-Octyl Itaconate

>  <Synonyms>
N/A

>  <Target>
Nrf2

>  <Form>
Free Base

>  <CAS>
3133-16-2

>  <URL>
http://www.selleckchem.com/products/4-octyl-Itaconate.html

$$$$
