4-Pentenoic acid
 OpenBabel08302520393D

 15 14  0  0  0  0  0  0  0  0999 V2000
    0.9867   -0.1207    0.0743 C   0  0  0  0  0  0  0  0  0  0  0  0
    0.5196   -1.5327   -0.1855 C   0  0  0  0  0  0  0  0  0  0  0  0
    0.5028    0.3908    1.4306 C   0  0  0  0  0  0  0  0  0  0  0  0
    0.9394   -2.0049   -1.3828 O   0  0  0  0  0  0  0  0  0  0  0  0
   -0.1579   -2.2049    0.5756 O   0  0  0  0  0  0  0  0  0  0  0  0
    0.9715    1.7971    1.6857 C   0  0  0  0  0  0  0  0  0  0  0  0
    0.1524    2.8371    1.8879 C   0  0  0  0  0  0  0  0  0  0  0  0
    0.5998    0.5202   -0.7264 H   0  0  0  0  0  0  0  0  0  0  0  0
    2.0823   -0.1124    0.0409 H   0  0  0  0  0  0  0  0  0  0  0  0
   -0.5919    0.3323    1.4828 H   0  0  0  0  0  0  0  0  0  0  0  0
    0.8860   -0.2537    2.2319 H   0  0  0  0  0  0  0  0  0  0  0  0
    1.4715   -1.3689   -1.8977 H   0  0  0  0  0  0  0  0  0  0  0  0
    2.0469    1.9612    1.7291 H   0  0  0  0  0  0  0  0  0  0  0  0
    0.5493    3.8285    2.0827 H   0  0  0  0  0  0  0  0  0  0  0  0
   -0.9280    2.7260    1.8756 H   0  0  0  0  0  0  0  0  0  0  0  0
  1  2  1  0  0  0  0
  1  3  1  0  0  0  0
  1  8  1  0  0  0  0
  1  9  1  0  0  0  0
  2  4  1  0  0  0  0
  2  5  2  0  0  0  0
  3  6  1  0  0  0  0
  3 10  1  0  0  0  0
  3 11  1  0  0  0  0
  4 12  1  0  0  0  0
  6  7  2  0  0  0  0
  6 13  1  0  0  0  0
  7 14  1  0  0  0  0
  7 15  1  0  0  0  0
M  END
>  <Mol_ID>
3624

>  <Formula>
C5H8O2

>  <MolWeight>
100.11582

>  <Cat>
S6268

>  <Name>
4-Pentenoic acid

>  <Synonyms>
Allylacetic acid, 3-vinylpropionic acid, 4-penten-1-oic acid

>  <Target>
Mitochondrial Metabolism

>  <Form>
free base

>  <CAS>
591-80-0

>  <URL>
http://www.selleck.cn/products/pentenoic-acid.html

$$$$
