4-Phenylbutyric acid (4-PBA)
 OpenBabel08302521313D

 24 24  0  0  0  0  0  0  0  0999 V2000
   -1.1871   -4.6275    1.4707 O   0  0  0  0  0  0  0  0  0  0  0  0
   -2.1127   -3.5921   -0.2713 O   0  0  0  0  0  0  0  0  0  0  0  0
   -1.4281    0.2750    1.6414 C   0  0  0  0  0  0  0  0  0  0  0  0
   -1.7312   -1.0071    0.8592 C   0  0  0  0  0  0  0  0  0  0  0  0
   -1.8601    1.5245    0.9085 C   0  0  0  0  0  0  0  0  0  0  0  0
   -1.2505   -2.2614    1.5949 C   0  0  0  0  0  0  0  0  0  0  0  0
   -3.1482    2.0516    1.0785 C   0  0  0  0  0  0  0  0  0  0  0  0
   -0.9770    2.1817    0.0396 C   0  0  0  0  0  0  0  0  0  0  0  0
   -1.5736   -3.5129    0.8192 C   0  0  0  0  0  0  0  0  0  0  0  0
   -3.5398    3.2088    0.3976 C   0  0  0  0  0  0  0  0  0  0  0  0
   -1.3648    3.3429   -0.6325 C   0  0  0  0  0  0  0  0  0  0  0  0
   -2.6478    3.8561   -0.4569 C   0  0  0  0  0  0  0  0  0  0  0  0
   -1.4490   -5.3568    0.8680 H   0  0  0  0  0  0  0  0  0  0  0  0
   -1.9211    0.2428    2.6217 H   0  0  0  0  0  0  0  0  0  0  0  0
   -0.3524    0.3385    1.8498 H   0  0  0  0  0  0  0  0  0  0  0  0
   -1.2523   -0.9632   -0.1273 H   0  0  0  0  0  0  0  0  0  0  0  0
   -2.8104   -1.0837    0.6746 H   0  0  0  0  0  0  0  0  0  0  0  0
   -1.7350   -2.3325    2.5753 H   0  0  0  0  0  0  0  0  0  0  0  0
   -0.1645   -2.2208    1.7368 H   0  0  0  0  0  0  0  0  0  0  0  0
   -3.8575    1.5703    1.7487 H   0  0  0  0  0  0  0  0  0  0  0  0
    0.0279    1.7952   -0.1142 H   0  0  0  0  0  0  0  0  0  0  0  0
   -4.5412    3.6081    0.5350 H   0  0  0  0  0  0  0  0  0  0  0  0
   -0.6668    3.8491   -1.2932 H   0  0  0  0  0  0  0  0  0  0  0  0
   -2.9536    4.7579   -0.9825 H   0  0  0  0  0  0  0  0  0  0  0  0
  1  9  1  0  0  0  0
  1 13  1  0  0  0  0
  2  9  2  0  0  0  0
  3  4  1  0  0  0  0
  3  5  1  0  0  0  0
  3 14  1  0  0  0  0
  3 15  1  0  0  0  0
  4  6  1  0  0  0  0
  4 16  1  0  0  0  0
  4 17  1  0  0  0  0
  5  7  2  0  0  0  0
  5  8  1  0  0  0  0
  6  9  1  0  0  0  0
  6 18  1  0  0  0  0
  6 19  1  0  0  0  0
  7 10  1  0  0  0  0
  7 20  1  0  0  0  0
  8 11  2  0  0  0  0
  8 21  1  0  0  0  0
 10 12  2  0  0  0  0
 10 22  1  0  0  0  0
 11 12  1  0  0  0  0
 11 23  1  0  0  0  0
 12 24  1  0  0  0  0
M  END
>  <Mol_ID>
5743

>  <Formula>
C10H12O2

>  <MolWeight>
164.20108

>  <Cat>
S3592

>  <Name>
4-Phenylbutyric acid (4-PBA)

>  <Synonyms>
Benzenebutyric acid

>  <Target>
Autophagy,HDAC

>  <Form>
Free Base

>  <CAS>
1821-12-1

>  <URL>
http://www.selleckchem.com/products/4-phenylbutyric-acid-4-pba-.html

$$$$
