4-tert-Octylphenol
 OpenBabel08302521373D

 37 37  0  0  0  0  0  0  0  0999 V2000
    1.0433   -0.2002   -0.1318 C   0  0  0  0  0  0  0  0  0  0  0  0
    0.5810    0.6714    1.1062 C   0  0  0  0  0  0  0  0  0  0  0  0
    0.4519    0.4725   -1.4084 C   0  0  0  0  0  0  0  0  0  0  0  0
    0.3841   -1.6014   -0.0931 C   0  0  0  0  0  0  0  0  0  0  0  0
    1.0406    0.4084    2.5867 C   0  0  0  0  0  0  0  0  0  0  0  0
    2.5652    0.4631    2.7695 C   0  0  0  0  0  0  0  0  0  0  0  0
    0.4610    1.5589    3.4526 C   0  0  0  0  0  0  0  0  0  0  0  0
    0.5045   -0.9020    3.1900 C   0  0  0  0  0  0  0  0  0  0  0  0
    6.7569   -0.2567   -0.3004 O   0  0  0  0  0  0  0  0  0  0  0  0
    2.5741   -0.2458   -0.3007 C   0  0  0  0  0  0  0  0  0  0  0  0
    3.2905   -1.4528   -0.3555 C   0  0  0  0  0  0  0  0  0  0  0  0
    3.3219    0.9502   -0.3593 C   0  0  0  0  0  0  0  0  0  0  0  0
    4.6896   -1.4722   -0.3746 C   0  0  0  0  0  0  0  0  0  0  0  0
    4.7212    0.9339   -0.3719 C   0  0  0  0  0  0  0  0  0  0  0  0
    5.3942   -0.2739   -0.3528 C   0  0  0  0  0  0  0  0  0  0  0  0
    0.8459    1.7147    0.8802 H   0  0  0  0  0  0  0  0  0  0  0  0
   -0.5189    0.6628    1.1133 H   0  0  0  0  0  0  0  0  0  0  0  0
    0.6771   -0.1145   -2.3067 H   0  0  0  0  0  0  0  0  0  0  0  0
   -0.6391    0.5585   -1.3375 H   0  0  0  0  0  0  0  0  0  0  0  0
    0.8462    1.4807   -1.5748 H   0  0  0  0  0  0  0  0  0  0  0  0
    0.4860   -2.1132   -1.0582 H   0  0  0  0  0  0  0  0  0  0  0  0
    0.8435   -2.2635    0.6466 H   0  0  0  0  0  0  0  0  0  0  0  0
   -0.6864   -1.5324    0.1272 H   0  0  0  0  0  0  0  0  0  0  0  0
    2.9815    1.3904    2.3614 H   0  0  0  0  0  0  0  0  0  0  0  0
    2.8366    0.4420    3.8320 H   0  0  0  0  0  0  0  0  0  0  0  0
    3.0642   -0.3926    2.3114 H   0  0  0  0  0  0  0  0  0  0  0  0
   -0.6344    1.5812    3.3999 H   0  0  0  0  0  0  0  0  0  0  0  0
    0.7359    1.4361    4.5076 H   0  0  0  0  0  0  0  0  0  0  0  0
    0.8308    2.5348    3.1242 H   0  0  0  0  0  0  0  0  0  0  0  0
   -0.5049   -0.7773    3.5972 H   0  0  0  0  0  0  0  0  0  0  0  0
    0.4565   -1.7209    2.4809 H   0  0  0  0  0  0  0  0  0  0  0  0
    1.1416   -1.2467    4.0133 H   0  0  0  0  0  0  0  0  0  0  0  0
    7.0692   -1.1669   -0.1680 H   0  0  0  0  0  0  0  0  0  0  0  0
    2.7820   -2.4147   -0.3547 H   0  0  0  0  0  0  0  0  0  0  0  0
    2.8254    1.9174   -0.3379 H   0  0  0  0  0  0  0  0  0  0  0  0
    5.2040   -2.4287   -0.3851 H   0  0  0  0  0  0  0  0  0  0  0  0
    5.2781    1.8652   -0.3609 H   0  0  0  0  0  0  0  0  0  0  0  0
  1  2  1  0  0  0  0
  1  3  1  0  0  0  0
  1  4  1  0  0  0  0
  1 10  1  0  0  0  0
  2  5  1  0  0  0  0
  2 16  1  0  0  0  0
  2 17  1  0  0  0  0
  3 18  1  0  0  0  0
  3 19  1  0  0  0  0
  3 20  1  0  0  0  0
  4 21  1  0  0  0  0
  4 22  1  0  0  0  0
  4 23  1  0  0  0  0
  5  6  1  0  0  0  0
  5  7  1  0  0  0  0
  5  8  1  0  0  0  0
  6 24  1  0  0  0  0
  6 25  1  0  0  0  0
  6 26  1  0  0  0  0
  7 27  1  0  0  0  0
  7 28  1  0  0  0  0
  7 29  1  0  0  0  0
  8 30  1  0  0  0  0
  8 31  1  0  0  0  0
  8 32  1  0  0  0  0
  9 15  1  0  0  0  0
  9 33  1  0  0  0  0
 10 11  2  0  0  0  0
 10 12  1  0  0  0  0
 11 13  1  0  0  0  0
 11 34  1  0  0  0  0
 12 14  2  0  0  0  0
 12 35  1  0  0  0  0
 13 15  2  0  0  0  0
 13 36  1  0  0  0  0
 14 15  1  0  0  0  0
 14 37  1  0  0  0  0
M  END
>  <Mol_ID>
7373

>  <Formula>
C14H22O

>  <MolWeight>
206.32388

>  <Cat>
E4425

>  <Name>
4-tert-Octylphenol

>  <Target>
Others

>  <Form>
Free base

>  <CAS>
140-66-9

>  <URL>
https://www.selleckchem.com/products/4-tert-octylphenol.html

$$$$
