4-Vinylcyclohexene dioxide
 OpenBabel08302521313D

 22 24  0  0  0  0  0  0  0  0999 V2000
   -1.5444    0.6912    0.8612 O   0  0  0  0  0  0  0  0  0  0  0  0
    3.4585   -0.5379   -1.7622 O   0  0  0  0  0  0  0  0  0  0  0  0
   -0.5441    1.0501   -0.1034 C   0  0  3  0  0  0  0  0  0  0  0  0
    1.7579    0.0050   -0.0490 C   0  0  3  0  0  0  0  0  0  0  0  0
   -1.1944   -0.3032   -0.1026 C   0  0  3  0  0  0  0  0  0  0  0  0
    0.8449    1.1485    0.4515 C   0  0  0  0  0  0  0  0  0  0  0  0
    2.5088    0.4309   -1.2890 C   0  0  3  0  0  0  0  0  0  0  0  0
    1.0193   -1.3339   -0.3083 C   0  0  0  0  0  0  0  0  0  0  0  0
   -0.3398   -1.4285    0.3832 C   0  0  0  0  0  0  0  0  0  0  0  0
    3.9967    0.6895   -1.2580 C   0  0  0  0  0  0  0  0  0  0  0  0
   -0.7877    1.7609   -0.8790 H   0  0  0  0  0  0  0  0  0  0  0  0
    2.4950   -0.1732    0.7462 H   0  0  0  0  0  0  0  0  0  0  0  0
   -1.8934   -0.5587   -0.8857 H   0  0  0  0  0  0  0  0  0  0  0  0
    1.2723    2.1300    0.2146 H   0  0  0  0  0  0  0  0  0  0  0  0
    0.7929    1.0962    1.5475 H   0  0  0  0  0  0  0  0  0  0  0  0
    1.8989    0.9263   -2.0333 H   0  0  0  0  0  0  0  0  0  0  0  0
    0.8647   -1.4687   -1.3880 H   0  0  0  0  0  0  0  0  0  0  0  0
    1.6577   -2.1661    0.0119 H   0  0  0  0  0  0  0  0  0  0  0  0
   -0.8143   -2.3858    0.1443 H   0  0  0  0  0  0  0  0  0  0  0  0
   -0.2146   -1.3903    1.4710 H   0  0  0  0  0  0  0  0  0  0  0  0
    4.5270    0.6447   -0.3153 H   0  0  0  0  0  0  0  0  0  0  0  0
    4.4186    1.3774   -1.9795 H   0  0  0  0  0  0  0  0  0  0  0  0
  1  3  1  0  0  0  0
  1  5  1  0  0  0  0
  2  7  1  0  0  0  0
  2 10  1  0  0  0  0
  3  5  1  0  0  0  0
  3  6  1  0  0  0  0
  3 11  1  0  0  0  0
  4  6  1  0  0  0  0
  4  7  1  0  0  0  0
  4  8  1  0  0  0  0
  4 12  1  0  0  0  0
  5  9  1  0  0  0  0
  5 13  1  0  0  0  0
  6 14  1  0  0  0  0
  6 15  1  0  0  0  0
  7 10  1  0  0  0  0
  7 16  1  0  0  0  0
  8  9  1  0  0  0  0
  8 17  1  0  0  0  0
  8 18  1  0  0  0  0
  9 19  1  0  0  0  0
  9 20  1  0  0  0  0
 10 21  1  0  0  0  0
 10 22  1  0  0  0  0
M  END
>  <Mol_ID>
5828

>  <Formula>
C8H12O2

>  <MolWeight>
140.17968

>  <Cat>
E0024

>  <Name>
4-Vinylcyclohexene dioxide

>  <Synonyms>
Vinylcyclohexene dioxide, VCD

>  <Target>
Others

>  <Form>
Free Base

>  <CAS>
106-87-6

>  <URL>
http://www.selleckchem.com/products/4-vinylcyclohexene-dioxide.html

$$$$
