4SC-201(resminostat,BYK408740).cdx
 OpenBabel08302522043D

 43 44  0  0  0  0  0  0  0  0999 V2000
    1.4147   -0.3269   -0.0155 C   0  0  0  0  0  0  0  0  0  0  0  0
    0.5209   -1.4010   -0.0717 C   0  0  0  0  0  0  0  0  0  0  0  0
   -0.8576   -1.1799   -0.1155 C   0  0  0  0  0  0  0  0  0  0  0  0
   -1.3463    0.1228   -0.0245 C   0  0  0  0  0  0  0  0  0  0  0  0
   -0.4644    1.2074    0.1110 C   0  0  0  0  0  0  0  0  0  0  0  0
    0.9194    0.9754    0.0740 C   0  0  0  0  0  0  0  0  0  0  0  0
   -1.0067    2.5922    0.4128 C   0  0  0  0  0  0  0  0  0  0  0  0
   -1.7219    2.6361    1.7036 N   0  0  0  0  0  0  0  0  0  0  0  0
   -0.8481    2.2938    2.8296 C   0  0  0  0  0  0  0  0  0  0  0  0
   -2.3091    3.9581    1.9204 C   0  0  0  0  0  0  0  0  0  0  0  0
    1.1413   -3.0592   -0.0964 S   0  0  0  0  0  0  0  0  0  0  0  0
    1.3138   -3.4613    1.5523 N   0  0  0  0  0  0  0  0  0  0  0  0
    0.1057   -3.9427   -0.6022 O   0  0  0  0  0  0  0  0  0  0  0  0
    2.4822   -3.0469   -0.6455 O   0  0  0  0  0  0  0  0  0  0  0  0
    2.4690   -3.2928    2.2694 C   0  0  0  0  0  0  0  0  0  0  0  0
    2.1896   -3.6293    3.5777 C   0  0  0  0  0  0  0  0  0  0  0  0
    0.8078   -3.9628    3.6547 C   0  0  0  0  0  0  0  0  0  0  0  0
    0.2866   -3.8460    2.3796 C   0  0  0  0  0  0  0  0  0  0  0  0
    0.0474   -4.3379    4.8080 C   0  0  0  0  0  0  0  0  0  0  0  0
    0.5373   -4.4024    6.0570 C   0  0  0  0  0  0  0  0  0  0  0  0
   -0.3310   -4.7631    7.2028 C   0  0  0  0  0  0  0  0  0  0  0  0
    0.3335   -4.7686    8.4009 N   0  0  0  0  0  0  0  0  0  0  0  0
   -1.5249   -5.0177    7.0995 O   0  0  0  0  0  0  0  0  0  0  0  0
   -0.4269   -5.0660    9.5524 O   0  0  0  0  0  0  0  0  0  0  0  0
    2.4899   -0.4908   -0.0187 H   0  0  0  0  0  0  0  0  0  0  0  0
   -1.5587   -2.0078   -0.1913 H   0  0  0  0  0  0  0  0  0  0  0  0
   -2.4215    0.2955   -0.0041 H   0  0  0  0  0  0  0  0  0  0  0  0
    1.6168    1.8065    0.1571 H   0  0  0  0  0  0  0  0  0  0  0  0
   -0.1941    3.3308    0.3931 H   0  0  0  0  0  0  0  0  0  0  0  0
   -1.6917    2.8613   -0.4026 H   0  0  0  0  0  0  0  0  0  0  0  0
   -0.0002    2.9819    2.9187 H   0  0  0  0  0  0  0  0  0  0  0  0
   -1.4119    2.3130    3.7689 H   0  0  0  0  0  0  0  0  0  0  0  0
   -0.4581    1.2740    2.7439 H   0  0  0  0  0  0  0  0  0  0  0  0
   -1.5487    4.7463    1.9644 H   0  0  0  0  0  0  0  0  0  0  0  0
   -3.0196    4.2038    1.1240 H   0  0  0  0  0  0  0  0  0  0  0  0
   -2.8745    3.9754    2.8594 H   0  0  0  0  0  0  0  0  0  0  0  0
    3.3892   -2.9760    1.7954 H   0  0  0  0  0  0  0  0  0  0  0  0
    2.9120   -3.6207    4.3835 H   0  0  0  0  0  0  0  0  0  0  0  0
   -0.7108   -4.0099    1.9909 H   0  0  0  0  0  0  0  0  0  0  0  0
   -1.0064   -4.5718    4.6509 H   0  0  0  0  0  0  0  0  0  0  0  0
    1.5734   -4.1800    6.2735 H   0  0  0  0  0  0  0  0  0  0  0  0
    1.3109   -4.5449    8.5423 H   0  0  0  0  0  0  0  0  0  0  0  0
   -1.3225   -5.2145    9.1805 H   0  0  0  0  0  0  0  0  0  0  0  0
  1  2  2  0  0  0  0
  1 25  1  0  0  0  0
  2  3  1  0  0  0  0
  2 11  1  0  0  0  0
  3  4  2  0  0  0  0
  3 26  1  0  0  0  0
  4  5  1  0  0  0  0
  4 27  1  0  0  0  0
  5  6  2  0  0  0  0
  5  7  1  0  0  0  0
  6  1  1  0  0  0  0
  6 28  1  0  0  0  0
  7  8  1  0  0  0  0
  7 29  1  0  0  0  0
  7 30  1  0  0  0  0
  8  9  1  0  0  0  0
  8 10  1  0  0  0  0
  9 31  1  0  0  0  0
  9 32  1  0  0  0  0
  9 33  1  0  0  0  0
 10 34  1  0  0  0  0
 10 35  1  0  0  0  0
 10 36  1  0  0  0  0
 11 12  1  0  0  0  0
 11 13  2  0  0  0  0
 11 14  2  0  0  0  0
 12 15  1  0  0  0  0
 15 16  2  0  0  0  0
 15 37  1  0  0  0  0
 16 17  1  0  0  0  0
 16 38  1  0  0  0  0
 17 18  2  0  0  0  0
 17 19  1  0  0  0  0
 18 12  1  0  0  0  0
 18 39  1  0  0  0  0
 19 20  2  0  0  0  0
 19 40  1  0  0  0  0
 20 21  1  0  0  0  0
 20 41  1  0  0  0  0
 21 22  1  0  0  0  0
 21 23  2  0  0  0  0
 22 24  1  0  0  0  0
 22 42  1  0  0  0  0
 24 43  1  0  0  0  0
M  END
>  <Mol_ID>
1299

>  <Formula>
C16H19N3O4S

>  <MolWeight>
349.40476

>  <Cat>
S2693

>  <Name>
Resminostat

>  <Synonyms>
RAS2410

>  <Target>
HDAC

>  <Form>
free base

>  <CAS>
864814-88-0

>  <URL>
http://selleckchem.com/products/resminostat-ras2410.html

$$$$
