4SC-202.cdx
 OpenBabel08302519583D

 53 56  0  0  0  0  0  0  0  0999 V2000
   -0.2478   -0.9807    0.2856 C   0  0  0  0  0  0  0  0  0  0  0  0
   -1.4409   -1.5814    0.7160 C   0  0  0  0  0  0  0  0  0  0  0  0
   -2.5416   -0.7622    1.0070 C   0  0  0  0  0  0  0  0  0  0  0  0
   -2.4384    0.6326    0.9170 C   0  0  0  0  0  0  0  0  0  0  0  0
   -1.2248    1.2134    0.5383 C   0  0  0  0  0  0  0  0  0  0  0  0
   -0.1386    0.4096    0.1875 C   0  0  0  0  0  0  0  0  0  0  0  0
   -1.5373   -3.0253    0.8499 C   0  0  0  0  0  0  0  0  0  0  0  0
   -0.4864   -3.8606    1.1777 C   0  0  0  0  0  0  0  0  0  0  0  0
   -0.9908   -5.1277    1.2011 N   0  0  0  0  0  0  0  0  0  0  0  0
   -2.3087   -5.1825    0.9367 N   0  0  0  0  0  0  0  0  0  0  0  0
   -2.6381   -3.9055    0.7261 C   0  0  0  0  0  0  0  0  0  0  0  0
   -1.0792    2.9761    0.4191 S   0  0  0  0  0  0  0  0  0  0  0  0
   -0.5618    3.4770    1.9670 N   0  0  0  0  0  0  0  0  0  0  0  0
    0.7434    3.5171    2.3904 C   0  0  0  0  0  0  0  0  0  0  0  0
    0.7418    3.9860    3.6929 C   0  0  0  0  0  0  0  0  0  0  0  0
   -0.6159    4.1830    4.0657 C   0  0  0  0  0  0  0  0  0  0  0  0
   -1.4043    3.8344    2.9870 C   0  0  0  0  0  0  0  0  0  0  0  0
    1.9269    4.2550    4.4510 C   0  0  0  0  0  0  0  0  0  0  0  0
    1.9815    4.6674    5.7325 C   0  0  0  0  0  0  0  0  0  0  0  0
    3.3065    4.9907    6.3382 C   0  0  0  0  0  0  0  0  0  0  0  0
    4.3284    4.8933    5.6756 O   0  0  0  0  0  0  0  0  0  0  0  0
    3.2309    5.3475    7.6761 N   0  0  0  0  0  0  0  0  0  0  0  0
    4.3386    5.6670    8.5107 C   0  0  0  0  0  0  0  0  0  0  0  0
    5.5719    6.0707    7.9832 C   0  0  0  0  0  0  0  0  0  0  0  0
    6.6636    6.3207    8.8177 C   0  0  0  0  0  0  0  0  0  0  0  0
    6.5256    6.2062   10.1952 C   0  0  0  0  0  0  0  0  0  0  0  0
    5.2858    5.8719   10.7392 C   0  0  0  0  0  0  0  0  0  0  0  0
    4.1940    5.5585    9.9117 C   0  0  0  0  0  0  0  0  0  0  0  0
    2.9428    5.2954   10.5156 N   0  0  0  0  0  0  0  0  0  0  0  0
    0.0152    3.2910   -0.4797 O   0  0  0  0  0  0  0  0  0  0  0  0
   -2.4067    3.5364    0.2458 O   0  0  0  0  0  0  0  0  0  0  0  0
   -0.2634   -6.3462    1.4610 C   0  0  0  0  0  0  0  0  0  0  0  0
    0.6085   -1.5903    0.0062 H   0  0  0  0  0  0  0  0  0  0  0  0
   -3.4896   -1.1967    1.3189 H   0  0  0  0  0  0  0  0  0  0  0  0
   -3.3097    1.2471    1.1370 H   0  0  0  0  0  0  0  0  0  0  0  0
    0.7907    0.8463   -0.1727 H   0  0  0  0  0  0  0  0  0  0  0  0
    0.5550   -3.6663    1.3942 H   0  0  0  0  0  0  0  0  0  0  0  0
   -3.6662   -3.6695    0.4817 H   0  0  0  0  0  0  0  0  0  0  0  0
    1.5554    3.2604    1.7189 H   0  0  0  0  0  0  0  0  0  0  0  0
   -0.9892    4.5646    5.0074 H   0  0  0  0  0  0  0  0  0  0  0  0
   -2.4781    3.8621    2.8503 H   0  0  0  0  0  0  0  0  0  0  0  0
    2.8697    4.1330    3.9143 H   0  0  0  0  0  0  0  0  0  0  0  0
    1.0917    4.8038    6.3318 H   0  0  0  0  0  0  0  0  0  0  0  0
    2.3410    5.2936    8.1508 H   0  0  0  0  0  0  0  0  0  0  0  0
    5.7068    6.2263    6.9161 H   0  0  0  0  0  0  0  0  0  0  0  0
    7.6171    6.6121    8.3844 H   0  0  0  0  0  0  0  0  0  0  0  0
    7.3780    6.3898   10.8442 H   0  0  0  0  0  0  0  0  0  0  0  0
    5.1895    5.8257   11.8214 H   0  0  0  0  0  0  0  0  0  0  0  0
    3.0401    5.0143   11.4888 H   0  0  0  0  0  0  0  0  0  0  0  0
    2.3923    4.6170   10.0048 H   0  0  0  0  0  0  0  0  0  0  0  0
   -0.7632   -6.8844    2.2693 H   0  0  0  0  0  0  0  0  0  0  0  0
   -0.2591   -6.9430    0.5452 H   0  0  0  0  0  0  0  0  0  0  0  0
    0.7611   -6.1032    1.7532 H   0  0  0  0  0  0  0  0  0  0  0  0
  1  2  2  0  0  0  0
  1 33  1  0  0  0  0
  2  3  1  0  0  0  0
  2  7  1  0  0  0  0
  3  4  2  0  0  0  0
  3 34  1  0  0  0  0
  4  5  1  0  0  0  0
  4 35  1  0  0  0  0
  5  6  2  0  0  0  0
  5 12  1  0  0  0  0
  6  1  1  0  0  0  0
  6 36  1  0  0  0  0
  7  8  2  0  0  0  0
  8  9  1  0  0  0  0
  8 37  1  0  0  0  0
  9 10  1  0  0  0  0
  9 32  1  0  0  0  0
 10 11  2  0  0  0  0
 11  7  1  0  0  0  0
 11 38  1  0  0  0  0
 12 13  1  0  0  0  0
 12 30  2  0  0  0  0
 12 31  2  0  0  0  0
 13 14  1  0  0  0  0
 14 15  2  0  0  0  0
 14 39  1  0  0  0  0
 15 16  1  0  0  0  0
 15 18  1  0  0  0  0
 16 17  2  0  0  0  0
 16 40  1  0  0  0  0
 17 13  1  0  0  0  0
 17 41  1  0  0  0  0
 18 19  2  0  0  0  0
 18 42  1  0  0  0  0
 19 20  1  0  0  0  0
 19 43  1  0  0  0  0
 20 21  2  0  0  0  0
 20 22  1  0  0  0  0
 22 23  1  0  0  0  0
 22 44  1  0  0  0  0
 23 24  2  0  0  0  0
 24 25  1  0  0  0  0
 24 45  1  0  0  0  0
 25 26  2  0  0  0  0
 25 46  1  0  0  0  0
 26 27  1  0  0  0  0
 26 47  1  0  0  0  0
 27 28  2  0  0  0  0
 27 48  1  0  0  0  0
 28 23  1  0  0  0  0
 28 29  1  0  0  0  0
 29 49  1  0  0  0  0
 29 50  1  0  0  0  0
 32 51  1  0  0  0  0
 32 52  1  0  0  0  0
 32 53  1  0  0  0  0
M  END
>  <Mol_ID>
2528

>  <Formula>
C23H21N5O3S

>  <MolWeight>
447.50954

>  <Cat>
S7555

>  <Name>
Domatinostat (4SC-202)

>  <Synonyms>
N/A

>  <Target>
HDAC

>  <Form>
free base

>  <CAS>
910462-43-0

>  <URL>
http://selleckchem.com/products/4sc-202.html

$$$$
