5'-Deoxy-5'-(methylthio)adenosine
 OpenBabel08302521383D

 35 37  0  0  1  0  0  0  0  0999 V2000
   -1.8847    0.9383    0.0794 O   0  0  0  0  0  0  0  0  0  0  0  0
    2.9025    6.3363   -1.9720 N   0  0  0  0  0  0  0  0  0  0  0  0
    1.9456   -0.9513   -1.7712 C   0  0  0  0  0  0  0  0  0  0  0  0
    3.7844   -0.9822   -1.7014 S   0  0  0  0  0  0  0  0  0  0  0  0
    4.0606   -2.4952   -0.7432 C   0  0  0  0  0  0  0  0  0  0  0  0
   -0.8290   -1.3364    0.7773 O   0  0  0  0  0  0  0  0  0  0  0  0
    0.9747    2.5926   -0.0178 N   0  0  0  0  0  0  0  0  0  0  0  0
    1.5281    3.0087   -1.1987 C   0  0  0  0  0  0  0  0  0  0  0  0
    0.9510    3.6777    0.8263 C   0  0  0  0  0  0  0  0  0  0  0  0
    1.8613    4.3383   -0.9861 C   0  0  0  0  0  0  0  0  0  0  0  0
    1.7204    2.3025   -2.3209 N   0  0  0  0  0  0  0  0  0  0  0  0
    1.4963    4.7399    0.2821 N   0  0  0  0  0  0  0  0  0  0  0  0
    2.4936    5.0087   -2.0485 C   0  0  0  0  0  0  0  0  0  0  0  0
    2.3405    3.0417   -3.2623 C   0  0  0  0  0  0  0  0  0  0  0  0
    2.7422    4.3296   -3.1861 N   0  0  0  0  0  0  0  0  0  0  0  0
    0.5350    1.2636    0.3436 C   0  0  2  0  0  0  0  0  0  0  0  0
    1.6542    0.3533    0.2919 O   0  0  0  0  0  0  0  0  0  0  0  0
   -0.5969    0.6760   -0.4970 C   0  0  1  0  0  0  0  0  0  0  0  0
    1.2595   -0.8529   -0.4025 C   0  0  1  0  0  0  0  0  0  0  0  0
   -0.2719   -0.8093   -0.4496 C   0  0  1  0  0  0  0  0  0  0  0  0
   -2.1224    0.1416    0.5999 H   0  0  0  0  0  0  0  0  0  0  0  0
    3.0138    6.6610   -1.0190 H   0  0  0  0  0  0  0  0  0  0  0  0
    3.6543    6.5231   -2.6236 H   0  0  0  0  0  0  0  0  0  0  0  0
    1.6215   -1.8476   -2.3114 H   0  0  0  0  0  0  0  0  0  0  0  0
    1.6828   -0.0971   -2.3956 H   0  0  0  0  0  0  0  0  0  0  0  0
    3.7350   -2.3624    0.2910 H   0  0  0  0  0  0  0  0  0  0  0  0
    3.5378   -3.3427   -1.1937 H   0  0  0  0  0  0  0  0  0  0  0  0
    5.1312   -2.7211   -0.7291 H   0  0  0  0  0  0  0  0  0  0  0  0
   -0.1871   -1.1990    1.5007 H   0  0  0  0  0  0  0  0  0  0  0  0
    0.5370    3.6290    1.8247 H   0  0  0  0  0  0  0  0  0  0  0  0
    2.5444    2.5375   -4.2049 H   0  0  0  0  0  0  0  0  0  0  0  0
    0.2290    1.3091    1.3975 H   0  0  0  0  0  0  0  0  0  0  0  0
   -0.6006    1.0459   -1.5251 H   0  0  0  0  0  0  0  0  0  0  0  0
    1.5753   -1.6982    0.2215 H   0  0  0  0  0  0  0  0  0  0  0  0
   -0.7269   -1.3741   -1.2693 H   0  0  0  0  0  0  0  0  0  0  0  0
  1 21  1  0  0  0  0
  2 13  1  0  0  0  0
  2 22  1  0  0  0  0
  2 23  1  0  0  0  0
  3  4  1  0  0  0  0
  3 24  1  0  0  0  0
  3 25  1  0  0  0  0
  4  5  1  0  0  0  0
  5 26  1  0  0  0  0
  5 27  1  0  0  0  0
  5 28  1  0  0  0  0
  6 29  1  0  0  0  0
  7  8  1  0  0  0  0
  7  9  1  0  0  0  0
  8 10  2  0  0  0  0
  8 11  1  0  0  0  0
  9 12  2  0  0  0  0
  9 30  1  0  0  0  0
 10 12  1  0  0  0  0
 10 13  1  0  0  0  0
 11 14  2  0  0  0  0
 13 15  2  0  0  0  0
 14 15  1  0  0  0  0
 14 31  1  0  0  0  0
 16 17  1  0  0  0  0
 16 18  1  0  0  0  0
 16 32  1  1  0  0  0
 16  7  1  0  0  0  0
 17 19  1  0  0  0  0
 18  1  1  0  0  0  0
 18 20  1  0  0  0  0
 18 33  1  6  0  0  0
 19 20  1  0  0  0  0
 19 34  1  1  0  0  0
 19  3  1  0  0  0  0
 20  6  1  0  0  0  0
 20 35  1  6  0  0  0
M  END
>  <Mol_ID>
7656

>  <Formula>
C11H15N5O3S

>  <MolWeight>
297.3335

>  <Cat>
E4032

>  <Name>
5'-Deoxy-5'-(methylthio)adenosine

>  <Synonyms>
Methylthioadenosine, MTA

>  <Target>
Adenosine Receptor

>  <Form>
free base

>  <CAS>
2457-80-9

>  <URL>
https://www.selleckchem.com/products/5-deoxy-5-methylthio-adenosine.html

$$$$
