5'-Deoxy-5-fluorocytidine
 OpenBabel08302521363D

 29 30  0  0  1  0  0  0  0  0999 V2000
    2.8855    0.2479    1.4052 O   0  0  0  0  0  0  0  0  0  0  0  0
    0.0766    1.6872   -0.4620 O   0  0  0  0  0  0  0  0  0  0  0  0
    3.7070   -2.0487    0.4690 O   0  0  0  0  0  0  0  0  0  0  0  0
    2.9381   -1.3235   -2.9980 C   0  0  0  0  0  0  0  0  0  0  0  0
    1.9414    2.9540   -5.2717 F   0  0  0  0  0  0  0  0  0  0  0  0
   -0.8253    2.6865   -4.7999 N   0  0  0  0  0  0  0  0  0  0  0  0
    2.7712    1.0623   -0.9173 C   0  0  1  0  0  0  0  0  0  0  0  0
    2.3276   -0.0198    0.1019 C   0  0  1  0  0  0  0  0  0  0  0  0
    3.9017    0.4509   -1.5951 O   0  0  0  0  0  0  0  0  0  0  0  0
    2.8585   -1.3471   -0.4509 C   0  0  1  0  0  0  0  0  0  0  0  0
    3.6575   -0.9681   -1.6928 C   0  0  1  0  0  0  0  0  0  0  0  0
    1.8311    1.5511   -1.9343 N   0  0  0  0  0  0  0  0  0  0  0  0
    0.4865    1.7842   -1.6136 C   0  0  0  0  0  0  0  0  0  0  0  0
    2.3399    2.0519   -3.1257 C   0  0  0  0  0  0  0  0  0  0  0  0
   -0.3836    2.1048   -2.6341 N   0  0  0  0  0  0  0  0  0  0  0  0
    1.5320    2.4967   -4.0784 C   0  0  0  0  0  0  0  0  0  0  0  0
    0.0804    2.4211   -3.8078 C   0  0  0  0  0  0  0  0  0  0  0  0
    3.8166    0.5040    1.3038 H   0  0  0  0  0  0  0  0  0  0  0  0
    4.3750   -1.4289    0.8032 H   0  0  0  0  0  0  0  0  0  0  0  0
    2.6495   -0.4565   -3.5906 H   0  0  0  0  0  0  0  0  0  0  0  0
    3.6056   -1.9171   -3.6319 H   0  0  0  0  0  0  0  0  0  0  0  0
    2.0471   -1.9378   -2.8339 H   0  0  0  0  0  0  0  0  0  0  0  0
   -0.5172    3.2481   -5.5847 H   0  0  0  0  0  0  0  0  0  0  0  0
   -1.7626    2.8822   -4.4664 H   0  0  0  0  0  0  0  0  0  0  0  0
    3.1443    1.9499   -0.3933 H   0  0  0  0  0  0  0  0  0  0  0  0
    1.2498   -0.0931    0.2435 H   0  0  0  0  0  0  0  0  0  0  0  0
    2.0390   -2.0306   -0.6825 H   0  0  0  0  0  0  0  0  0  0  0  0
    4.6384   -1.4567   -1.7001 H   0  0  0  0  0  0  0  0  0  0  0  0
    3.4143    2.0464   -3.2740 H   0  0  0  0  0  0  0  0  0  0  0  0
  1 18  1  0  0  0  0
  2 13  2  0  0  0  0
  3 19  1  0  0  0  0
  4 20  1  0  0  0  0
  4 21  1  0  0  0  0
  4 22  1  0  0  0  0
  5 16  1  0  0  0  0
  6 17  1  0  0  0  0
  6 23  1  0  0  0  0
  6 24  1  0  0  0  0
  7  8  1  0  0  0  0
  7  9  1  0  0  0  0
  7 12  1  0  0  0  0
  7 25  1  1  0  0  0
  8 10  1  0  0  0  0
  8 26  1  1  0  0  0
  8  1  1  0  0  0  0
  9 11  1  0  0  0  0
 10  3  1  0  0  0  0
 10 11  1  0  0  0  0
 10 27  1  6  0  0  0
 11 28  1  1  0  0  0
 11  4  1  0  0  0  0
 12 13  1  0  0  0  0
 12 14  1  0  0  0  0
 13 15  1  0  0  0  0
 14 16  2  0  0  0  0
 14 29  1  0  0  0  0
 15 17  2  0  0  0  0
 16 17  1  0  0  0  0
M  END
>  <Mol_ID>
7302

>  <Formula>
C9H12FN3O4

>  <MolWeight>
245.2076832

>  <Cat>
E4330

>  <Name>
5'-Deoxy-5-fluorocytidine

>  <Synonyms>
5'-Deoxy-5-fluorocytidine

>  <Target>
Others

>  <Form>
free base

>  <CAS>
66335-38-4

>  <URL>
https://www.selleckchem.com/products/5-deoxy-5-fluorocytidine.html

$$$$
