5'-Fluoroindirubinoxime
 OpenBabel08302521323D

 32 35  0  0  0  0  0  0  0  0999 V2000
    1.4009   -0.2616   -0.0271 N   0  0  0  0  0  0  0  0  0  0  0  0
    0.8477   -1.5358   -0.0365 O   0  0  0  0  0  0  0  0  0  0  0  0
    5.3600    3.3282   -0.0607 O   0  0  0  0  0  0  0  0  0  0  0  0
   -1.8106    3.0490   -0.0441 F   0  0  0  0  0  0  0  0  0  0  0  0
    3.5589    1.0332   -0.0329 C   0  0  0  0  0  0  0  0  0  0  0  0
    2.6916   -0.2310   -0.0360 C   0  0  0  0  0  0  0  0  0  0  0  0
    4.8730    0.5890   -0.0223 N   0  0  0  0  0  0  0  0  0  0  0  0
    3.6504   -1.3605   -0.0521 C   0  0  0  0  0  0  0  0  0  0  0  0
    4.9311   -0.7954   -0.0589 C   0  0  0  0  0  0  0  0  0  0  0  0
    3.4513   -2.7314   -0.0548 C   0  0  0  0  0  0  0  0  0  0  0  0
    6.0474   -1.6090   -0.0525 C   0  0  0  0  0  0  0  0  0  0  0  0
    4.5742   -3.5557   -0.0564 C   0  0  0  0  0  0  0  0  0  0  0  0
    5.8628   -2.9991   -0.0547 C   0  0  0  0  0  0  0  0  0  0  0  0
    3.1235    2.3078   -0.0449 C   0  0  0  0  0  0  0  0  0  0  0  0
    1.7998    2.9626   -0.0486 C   0  0  0  0  0  0  0  0  0  0  0  0
    4.1448    3.4261   -0.0507 C   0  0  0  0  0  0  0  0  0  0  0  0
    2.0490    4.3453   -0.0452 C   0  0  0  0  0  0  0  0  0  0  0  0
    0.4859    2.5331   -0.0498 C   0  0  0  0  0  0  0  0  0  0  0  0
    3.4128    4.6006   -0.0481 N   0  0  0  0  0  0  0  0  0  0  0  0
    1.0424    5.2982   -0.0432 C   0  0  0  0  0  0  0  0  0  0  0  0
   -0.5401    3.4756   -0.0459 C   0  0  0  0  0  0  0  0  0  0  0  0
   -0.2762    4.8465   -0.0425 C   0  0  0  0  0  0  0  0  0  0  0  0
   -0.1095   -1.3481   -0.0276 H   0  0  0  0  0  0  0  0  0  0  0  0
    5.6515    1.2345   -0.0950 H   0  0  0  0  0  0  0  0  0  0  0  0
    2.4608   -3.1682   -0.0512 H   0  0  0  0  0  0  0  0  0  0  0  0
    7.0480   -1.1910   -0.0434 H   0  0  0  0  0  0  0  0  0  0  0  0
    4.4459   -4.6360   -0.0548 H   0  0  0  0  0  0  0  0  0  0  0  0
    6.7265   -3.6590   -0.0504 H   0  0  0  0  0  0  0  0  0  0  0  0
    0.1894    1.4996   -0.0528 H   0  0  0  0  0  0  0  0  0  0  0  0
    3.8433    5.5132   -0.0498 H   0  0  0  0  0  0  0  0  0  0  0  0
    1.2576    6.3611   -0.0414 H   0  0  0  0  0  0  0  0  0  0  0  0
   -1.1116    5.5403   -0.0384 H   0  0  0  0  0  0  0  0  0  0  0  0
  1  2  1  0  0  0  0
  1  6  2  0  0  0  0
  2 23  1  0  0  0  0
  3 16  2  0  0  0  0
  4 21  1  0  0  0  0
  5  6  1  0  0  0  0
  5  7  1  0  0  0  0
  5 14  2  0  0  0  0
  6  8  1  0  0  0  0
  7  9  1  0  0  0  0
  7 24  1  0  0  0  0
  8  9  2  0  0  0  0
  8 10  1  0  0  0  0
  9 11  1  0  0  0  0
 10 12  2  0  0  0  0
 10 25  1  0  0  0  0
 11 13  2  0  0  0  0
 11 26  1  0  0  0  0
 12 13  1  0  0  0  0
 12 27  1  0  0  0  0
 13 28  1  0  0  0  0
 14 15  1  0  0  0  0
 14 16  1  0  0  0  0
 15 17  2  0  0  0  0
 15 18  1  0  0  0  0
 16 19  1  0  0  0  0
 17 19  1  0  0  0  0
 17 20  1  0  0  0  0
 18 21  2  0  0  0  0
 18 29  1  0  0  0  0
 19 30  1  0  0  0  0
 20 22  2  0  0  0  0
 20 31  1  0  0  0  0
 21 22  1  0  0  0  0
 22 32  1  0  0  0  0
M  END
>  <Mol_ID>
6171

>  <Formula>
C16H10FN3O2

>  <MolWeight>
295.2679032

>  <Cat>
S0550

>  <Name>
5'-Fluoroindirubinoxime

>  <Synonyms>
5'-FIO, compound 13

>  <Target>
FLT3

>  <Form>
free base

>  <CAS>
861214-33-7

>  <URL>
http://www.selleckchem.com/products/5-fluoroindirubinoxime.html

$$$$
