5,5-Dimethyl-1-pyrroline N-oxide
 OpenBabel08302521383D

 19 19  0  0  0  0  0  0  0  0999 V2000
    1.2353    0.0643    0.0611 C   0  0  0  0  0  0  0  0  0  0  0  0
   -0.6538    0.8409    1.5773 C   0  0  0  0  0  0  0  0  0  0  0  0
    2.0900    1.5962    2.4105 O   0  5  0  0  0  0  0  0  0  0  0  0
    0.4797    1.2545    0.6459 C   0  0  0  0  0  0  0  0  0  0  0  0
    1.4336    2.0684    1.4299 N   0  3  0  0  0  0  0  0  0  0  0  0
    0.0320    2.2587   -0.4293 C   0  0  0  0  0  0  0  0  0  0  0  0
    1.5586    3.3047    1.0522 C   0  0  0  0  0  0  0  0  0  0  0  0
    0.6863    3.5957   -0.1013 C   0  0  0  0  0  0  0  0  0  0  0  0
    0.7204   -0.3356   -0.8196 H   0  0  0  0  0  0  0  0  0  0  0  0
    1.3180   -0.7507    0.7883 H   0  0  0  0  0  0  0  0  0  0  0  0
    2.2540    0.3353   -0.2400 H   0  0  0  0  0  0  0  0  0  0  0  0
   -1.4269    0.2887    1.0317 H   0  0  0  0  0  0  0  0  0  0  0  0
   -0.2908    0.1958    2.3856 H   0  0  0  0  0  0  0  0  0  0  0  0
   -1.1257    1.7114    2.0468 H   0  0  0  0  0  0  0  0  0  0  0  0
    0.3282    1.9392   -1.4348 H   0  0  0  0  0  0  0  0  0  0  0  0
   -1.0599    2.3667   -0.4578 H   0  0  0  0  0  0  0  0  0  0  0  0
    2.2233    4.0207    1.5471 H   0  0  0  0  0  0  0  0  0  0  0  0
    1.2855    3.9734   -0.9350 H   0  0  0  0  0  0  0  0  0  0  0  0
   -0.0481    4.3574    0.1766 H   0  0  0  0  0  0  0  0  0  0  0  0
  1  4  1  0  0  0  0
  1  9  1  0  0  0  0
  1 10  1  0  0  0  0
  1 11  1  0  0  0  0
  2  4  1  0  0  0  0
  2 12  1  0  0  0  0
  2 13  1  0  0  0  0
  2 14  1  0  0  0  0
  3  5  1  0  0  0  0
  4  5  1  0  0  0  0
  4  6  1  0  0  0  0
  5  7  2  0  0  0  0
  6  8  1  0  0  0  0
  6 15  1  0  0  0  0
  6 16  1  0  0  0  0
  7  8  1  0  0  0  0
  7 17  1  0  0  0  0
  8 18  1  0  0  0  0
  8 19  1  0  0  0  0
M  CHG  2   3  -1   5   1
M  END
>  <Mol_ID>
7659

>  <Formula>
C6H11NO

>  <MolWeight>
113.15764

>  <Cat>
E4042

>  <Name>
5,5-Dimethyl-1-pyrroline N-oxide

>  <Synonyms>
DMPO

>  <Target>
Others

>  <Form>
free base

>  <CAS>
3317-61-1

>  <URL>
https://www.selleckchem.com/products/5,5-dimethyl-1-pyrroline-n-oxide.html

$$$$
