5,6-Dimethylbenzimidazole
 OpenBabel08302521293D

 21 22  0  0  0  0  0  0  0  0999 V2000
   -2.1325   -1.1044    0.0167 N   0  0  0  0  0  0  0  0  0  0  0  0
   -2.1670    1.1127    0.0048 N   0  0  0  0  0  0  0  0  0  0  0  0
   -0.8163   -0.7188    0.0072 C   0  0  0  0  0  0  0  0  0  0  0  0
    1.5837   -0.7093   -0.0058 C   0  0  0  0  0  0  0  0  0  0  0  0
    1.5658    0.7034    0.0044 C   0  0  0  0  0  0  0  0  0  0  0  0
   -0.8666    0.6678    0.0040 C   0  0  0  0  0  0  0  0  0  0  0  0
    0.3785   -1.4414    0.0004 C   0  0  0  0  0  0  0  0  0  0  0  0
    0.3329    1.3920    0.0035 C   0  0  0  0  0  0  0  0  0  0  0  0
    2.8820   -1.4738   -0.0324 C   0  0  0  0  0  0  0  0  0  0  0  0
    2.8199    1.5372    0.0204 C   0  0  0  0  0  0  0  0  0  0  0  0
   -2.9020    0.0246    0.0123 C   0  0  0  0  0  0  0  0  0  0  0  0
   -2.4728   -2.0544    0.0254 H   0  0  0  0  0  0  0  0  0  0  0  0
    0.3761   -2.5271   -0.0016 H   0  0  0  0  0  0  0  0  0  0  0  0
    0.2938    2.4768    0.0031 H   0  0  0  0  0  0  0  0  0  0  0  0
    3.4431   -1.2296   -0.9398 H   0  0  0  0  0  0  0  0  0  0  0  0
    3.4828   -1.2348    0.8505 H   0  0  0  0  0  0  0  0  0  0  0  0
    2.7124   -2.5562   -0.0310 H   0  0  0  0  0  0  0  0  0  0  0  0
    2.8590    2.1726   -0.8706 H   0  0  0  0  0  0  0  0  0  0  0  0
    2.8334    2.1705    0.9140 H   0  0  0  0  0  0  0  0  0  0  0  0
    3.7335    0.9382    0.0351 H   0  0  0  0  0  0  0  0  0  0  0  0
   -3.9835   -0.0095    0.0162 H   0  0  0  0  0  0  0  0  0  0  0  0
  1  3  1  0  0  0  0
  1 11  1  0  0  0  0
  1 12  1  0  0  0  0
  2  6  1  0  0  0  0
  2 11  2  0  0  0  0
  3  6  2  0  0  0  0
  3  7  1  0  0  0  0
  4  5  1  0  0  0  0
  4  7  2  0  0  0  0
  4  9  1  0  0  0  0
  5  8  2  0  0  0  0
  5 10  1  0  0  0  0
  6  8  1  0  0  0  0
  7 13  1  0  0  0  0
  8 14  1  0  0  0  0
  9 15  1  0  0  0  0
  9 16  1  0  0  0  0
  9 17  1  0  0  0  0
 10 18  1  0  0  0  0
 10 19  1  0  0  0  0
 10 20  1  0  0  0  0
 11 21  1  0  0  0  0
M  END
>  <Mol_ID>
5449

>  <Formula>
C9H10N2

>  <MolWeight>
146.1891

>  <Cat>
S3097

>  <Name>
5,6-Dimethylbenzimidazole

>  <Synonyms>
5,6-DMB, Dimezol, Dimedazol, 5,6-Dimethyl-1H-benzo[d]imidazole, 5,6-Dimethyl-1H-benzimidazole

>  <Target>
Others

>  <Form>
Free Base

>  <CAS>
582-60-5

>  <URL>
https://www.selleckchem.com/products/5-6-dimethylbenzimidazole.html

$$$$
