5,7-Dihydroxy-4-phenylcoumarin
 OpenBabel08302521373D

 29 31  0  0  0  0  0  0  0  0999 V2000
    1.0661    0.2365    0.2016 O   0  0  0  0  0  0  0  0  0  0  0  0
   -3.9205   -3.3716    1.7361 O   0  0  0  0  0  0  0  0  0  0  0  0
    0.4996    1.2276    4.7814 O   0  0  0  0  0  0  0  0  0  0  0  0
   -1.1336   -1.7116    0.2327 C   0  0  0  0  0  0  0  0  0  0  0  0
   -0.6973   -0.8969    1.3854 C   0  0  0  0  0  0  0  0  0  0  0  0
   -2.1957   -2.5192    0.3916 C   0  0  0  0  0  0  0  0  0  0  0  0
   -1.3704   -1.0404    2.5999 C   0  0  0  0  0  0  0  0  0  0  0  0
    0.3805    0.0036    1.3600 C   0  0  0  0  0  0  0  0  0  0  0  0
   -2.9439   -2.6371    1.6533 C   0  0  0  0  0  0  0  0  0  0  0  0
   -2.4779   -1.9002    2.7230 O   0  0  0  0  0  0  0  0  0  0  0  0
   -0.9978   -0.3469    3.7565 C   0  0  0  0  0  0  0  0  0  0  0  0
    0.7755    0.7047    2.5027 C   0  0  0  0  0  0  0  0  0  0  0  0
    0.0830    0.5210    3.6925 C   0  0  0  0  0  0  0  0  0  0  0  0
   -0.4752   -1.7663   -1.0891 C   0  0  0  0  0  0  0  0  0  0  0  0
   -0.8844   -0.9172   -2.1252 C   0  0  0  0  0  0  0  0  0  0  0  0
    0.6151   -2.6247   -1.2954 C   0  0  0  0  0  0  0  0  0  0  0  0
   -0.1998   -0.9123   -3.3423 C   0  0  0  0  0  0  0  0  0  0  0  0
    1.2952   -2.6195   -2.5153 C   0  0  0  0  0  0  0  0  0  0  0  0
    0.8901   -1.7606   -3.5360 C   0  0  0  0  0  0  0  0  0  0  0  0
    2.0105    0.3164    0.4120 H   0  0  0  0  0  0  0  0  0  0  0  0
   -0.0976    1.0442    5.5256 H   0  0  0  0  0  0  0  0  0  0  0  0
   -2.5649   -3.1544   -0.4066 H   0  0  0  0  0  0  0  0  0  0  0  0
   -1.5542   -0.4954    4.6756 H   0  0  0  0  0  0  0  0  0  0  0  0
    1.6013    1.4090    2.4679 H   0  0  0  0  0  0  0  0  0  0  0  0
   -1.7130   -0.2293   -1.9761 H   0  0  0  0  0  0  0  0  0  0  0  0
    0.9576   -3.2789   -0.4976 H   0  0  0  0  0  0  0  0  0  0  0  0
   -0.5053   -0.2315   -4.1330 H   0  0  0  0  0  0  0  0  0  0  0  0
    2.1508   -3.2736   -2.6629 H   0  0  0  0  0  0  0  0  0  0  0  0
    1.4307   -1.7437   -4.4787 H   0  0  0  0  0  0  0  0  0  0  0  0
  1  8  1  0  0  0  0
  1 20  1  0  0  0  0
  2  9  2  0  0  0  0
  3 13  1  0  0  0  0
  3 21  1  0  0  0  0
  4  5  1  0  0  0  0
  4  6  2  0  0  0  0
  4 14  1  0  0  0  0
  5  7  2  0  0  0  0
  5  8  1  0  0  0  0
  6  9  1  0  0  0  0
  6 22  1  0  0  0  0
  7 10  1  0  0  0  0
  7 11  1  0  0  0  0
  8 12  2  0  0  0  0
  9 10  1  0  0  0  0
 11 13  2  0  0  0  0
 11 23  1  0  0  0  0
 12 13  1  0  0  0  0
 12 24  1  0  0  0  0
 14 15  2  0  0  0  0
 14 16  1  0  0  0  0
 15 17  1  0  0  0  0
 15 25  1  0  0  0  0
 16 18  2  0  0  0  0
 16 26  1  0  0  0  0
 17 19  2  0  0  0  0
 17 27  1  0  0  0  0
 18 19  1  0  0  0  0
 18 28  1  0  0  0  0
 19 29  1  0  0  0  0
M  END
>  <Mol_ID>
7467

>  <Formula>
C15H10O4

>  <MolWeight>
254.2375

>  <Cat>
E4572

>  <Name>
5,7-Dihydroxy-4-phenylcoumarin

>  <Synonyms>
5,7-Dihydroxy-4-phenylcoumarin

>  <Target>
Antibacterial

>  <Form>
Free base

>  <CAS>
7758-73-8

>  <URL>
https://www.selleckchem.com/products/5-7-dihydroxy-4-phenylcoumarin.html

$$$$
