5,7-Dihydroxychromone
 OpenBabel08302521313D

 19 20  0  0  0  0  0  0  0  0999 V2000
   -0.7758   -2.1260    0.0163 O   0  0  0  0  0  0  0  0  0  0  0  0
    0.1054    2.6411   -0.0160 O   0  0  0  0  0  0  0  0  0  0  0  0
    3.6594   -0.5581   -0.0099 O   0  0  0  0  0  0  0  0  0  0  0  0
   -2.4228    1.6027   -0.0012 O   0  0  0  0  0  0  0  0  0  0  0  0
   -0.4092    0.2905    0.0012 C   0  0  0  0  0  0  0  0  0  0  0  0
    0.0557   -1.0302    0.0148 C   0  0  0  0  0  0  0  0  0  0  0  0
    0.5206    1.3401   -0.0051 C   0  0  0  0  0  0  0  0  0  0  0  0
    1.4253   -1.3010    0.0203 C   0  0  0  0  0  0  0  0  0  0  0  0
   -1.8779    0.5081   -0.0175 C   0  0  0  0  0  0  0  0  0  0  0  0
    1.8938    1.0726   -0.0077 C   0  0  0  0  0  0  0  0  0  0  0  0
    2.3317   -0.2484    0.0024 C   0  0  0  0  0  0  0  0  0  0  0  0
   -2.7162   -0.7040   -0.0636 C   0  0  0  0  0  0  0  0  0  0  0  0
   -2.1268   -1.8997   -0.0428 C   0  0  0  0  0  0  0  0  0  0  0  0
    0.8620    3.2472   -0.0027 H   0  0  0  0  0  0  0  0  0  0  0  0
    4.1815    0.2598   -0.0570 H   0  0  0  0  0  0  0  0  0  0  0  0
    1.7828   -2.3270    0.0302 H   0  0  0  0  0  0  0  0  0  0  0  0
    2.6112    1.8861   -0.0206 H   0  0  0  0  0  0  0  0  0  0  0  0
   -3.7887   -0.5706   -0.1112 H   0  0  0  0  0  0  0  0  0  0  0  0
   -2.6713   -2.8345   -0.0710 H   0  0  0  0  0  0  0  0  0  0  0  0
  1  6  1  0  0  0  0
  1 13  1  0  0  0  0
  2  7  1  0  0  0  0
  2 14  1  0  0  0  0
  3 11  1  0  0  0  0
  3 15  1  0  0  0  0
  4  9  2  0  0  0  0
  5  6  2  0  0  0  0
  5  7  1  0  0  0  0
  5  9  1  0  0  0  0
  6  8  1  0  0  0  0
  7 10  2  0  0  0  0
  8 11  2  0  0  0  0
  8 16  1  0  0  0  0
  9 12  1  0  0  0  0
 10 11  1  0  0  0  0
 10 17  1  0  0  0  0
 12 13  2  0  0  0  0
 12 18  1  0  0  0  0
 13 19  1  0  0  0  0
M  END
>  <Mol_ID>
6050

>  <Formula>
C9H6O4

>  <MolWeight>
178.14154

>  <Cat>
E0023

>  <Name>
5,7-Dihydroxychromone

>  <Synonyms>
DHC

>  <Target>
Nrf2

>  <Form>
Free Base

>  <CAS>
31721-94-5

>  <URL>
http://www.selleckchem.com/products/5-7-dihydroxychromone.html

$$$$
