5,?7,?3'-?Trihydroxy-?6,?4',?5'-?trimethoxyflavon
 OpenBabel08302521493D

 42 44  0  0  0  0  0  0  0  0999 V2000
    0.2000    2.6044   -0.0262 O   0  0  0  0  0  0  0  0  0  0  0  0
   -2.3621    1.6499    0.0048 O   0  0  0  0  0  0  0  0  0  0  0  0
    3.6128   -0.8635    0.0308 O   0  0  0  0  0  0  0  0  0  0  0  0
    2.7246    2.1272   -0.0303 O   0  0  0  0  0  0  0  0  0  0  0  0
    4.1373    2.0595   -0.0350 C   0  0  0  0  0  0  0  0  0  0  0  0
   -4.8772   -5.3589    2.1584 O   0  0  0  0  0  0  0  0  0  0  0  0
   -4.5465   -4.8263    3.4306 C   0  0  0  0  0  0  0  0  0  0  0  0
   -4.5661   -5.2705   -2.6103 O   0  0  0  0  0  0  0  0  0  0  0  0
   -5.5427   -6.4142   -0.4483 O   0  0  0  0  0  0  0  0  0  0  0  0
   -6.1229   -7.0983    0.6499 C   0  0  0  0  0  0  0  0  0  0  0  0
    0.0166   -1.0542    0.0226 C   0  0  0  0  0  0  0  0  0  0  0  0
   -0.3976    0.2741    0.0007 C   0  0  0  0  0  0  0  0  0  0  0  0
   -0.8449   -2.1244    0.0288 O   0  0  0  0  0  0  0  0  0  0  0  0
    1.3754   -1.3630    0.0336 C   0  0  0  0  0  0  0  0  0  0  0  0
    0.5755    1.2821   -0.0115 C   0  0  0  0  0  0  0  0  0  0  0  0
   -1.8560    0.5407   -0.0171 C   0  0  0  0  0  0  0  0  0  0  0  0
   -2.1969   -1.8668   -0.0539 C   0  0  0  0  0  0  0  0  0  0  0  0
    2.3470   -0.3557    0.0142 C   0  0  0  0  0  0  0  0  0  0  0  0
    1.9626    0.9884   -0.0102 C   0  0  0  0  0  0  0  0  0  0  0  0
   -2.7376   -0.6436   -0.0735 C   0  0  0  0  0  0  0  0  0  0  0  0
   -3.0430   -3.0657   -0.1154 C   0  0  0  0  0  0  0  0  0  0  0  0
   -3.5266   -3.6524    1.0639 C   0  0  0  0  0  0  0  0  0  0  0  0
   -3.3918   -3.6194   -1.3485 C   0  0  0  0  0  0  0  0  0  0  0  0
   -4.3719   -4.7757    1.0282 C   0  0  0  0  0  0  0  0  0  0  0  0
   -4.2252   -4.7372   -1.3916 C   0  0  0  0  0  0  0  0  0  0  0  0
   -4.7306   -5.3295   -0.2176 C   0  0  0  0  0  0  0  0  0  0  0  0
    1.0213    3.1308   -0.0161 H   0  0  0  0  0  0  0  0  0  0  0  0
    4.2826   -0.1856   -0.0923 H   0  0  0  0  0  0  0  0  0  0  0  0
    4.5094    1.6142    0.8927 H   0  0  0  0  0  0  0  0  0  0  0  0
    4.5019    1.5373   -0.9247 H   0  0  0  0  0  0  0  0  0  0  0  0
    4.5265    3.0808   -0.0856 H   0  0  0  0  0  0  0  0  0  0  0  0
   -3.4753   -4.9235    3.6302 H   0  0  0  0  0  0  0  0  0  0  0  0
   -4.8826   -3.7896    3.5277 H   0  0  0  0  0  0  0  0  0  0  0  0
   -5.0802   -5.4188    4.1808 H   0  0  0  0  0  0  0  0  0  0  0  0
   -4.1524   -4.7538   -3.3188 H   0  0  0  0  0  0  0  0  0  0  0  0
   -5.3558   -7.5321    1.2994 H   0  0  0  0  0  0  0  0  0  0  0  0
   -6.8148   -6.4516    1.1995 H   0  0  0  0  0  0  0  0  0  0  0  0
   -6.7109   -7.9315    0.2533 H   0  0  0  0  0  0  0  0  0  0  0  0
    1.6875   -2.4050    0.0521 H   0  0  0  0  0  0  0  0  0  0  0  0
   -3.8017   -0.4548   -0.1269 H   0  0  0  0  0  0  0  0  0  0  0  0
   -3.2292   -3.2088    2.0095 H   0  0  0  0  0  0  0  0  0  0  0  0
   -3.0130   -3.1805   -2.2673 H   0  0  0  0  0  0  0  0  0  0  0  0
  1 15  1  0  0  0  0
  1 27  1  0  0  0  0
  2 16  2  0  0  0  0
  3 18  1  0  0  0  0
  3 28  1  0  0  0  0
  4  5  1  0  0  0  0
  4 19  1  0  0  0  0
  5 29  1  0  0  0  0
  5 30  1  0  0  0  0
  5 31  1  0  0  0  0
  6  7  1  0  0  0  0
  6 24  1  0  0  0  0
  7 32  1  0  0  0  0
  7 33  1  0  0  0  0
  7 34  1  0  0  0  0
  8 25  1  0  0  0  0
  8 35  1  0  0  0  0
  9 10  1  0  0  0  0
  9 26  1  0  0  0  0
 10 36  1  0  0  0  0
 10 37  1  0  0  0  0
 10 38  1  0  0  0  0
 11 12  2  0  0  0  0
 11 13  1  0  0  0  0
 11 14  1  0  0  0  0
 12 15  1  0  0  0  0
 12 16  1  0  0  0  0
 13 17  1  0  0  0  0
 14 18  2  0  0  0  0
 14 39  1  0  0  0  0
 15 19  2  0  0  0  0
 16 20  1  0  0  0  0
 17 20  2  0  0  0  0
 17 21  1  0  0  0  0
 18 19  1  0  0  0  0
 20 40  1  0  0  0  0
 21 22  2  0  0  0  0
 21 23  1  0  0  0  0
 22 24  1  0  0  0  0
 22 41  1  0  0  0  0
 23 25  2  0  0  0  0
 23 42  1  0  0  0  0
 24 26  2  0  0  0  0
 25 26  1  0  0  0  0
M  END
>  <Mol_ID>
9817

>  <Formula>
C18H16O8

>  <MolWeight>
360.31484

>  <Cat>
E2412

>  <Name>
5,?7,?3'-?Trihydroxy-?6,?4',?5'-?trimethoxyflavon

>  <Synonyms>
NA

>  <Target>
NA

>  <Form>
free base

>  <CAS>
78417-26-2

>  <URL>
https://www.selleckchem.com/products/5-7-3 -trihydroxy-6-4--5 -trimethoxyflavone.html

$$$$
