5-Aminovaleric acid
 OpenBabel08302521453D

 19 18  0  0  0  0  0  0  0  0999 V2000
    1.2189   -0.1167   -0.1563 C   0  0  0  0  0  0  0  0  0  0  0  0
    0.5787    1.2303    0.1808 C   0  0  0  0  0  0  0  0  0  0  0  0
    0.7643   -1.2052    0.7897 C   0  0  0  0  0  0  0  0  0  0  0  0
    1.0492    2.3819   -0.7132 C   0  0  0  0  0  0  0  0  0  0  0  0
    1.3036   -2.4090    0.4829 O   0  0  0  0  0  0  0  0  0  0  0  0
   -0.0038   -1.0562    1.7264 O   0  0  0  0  0  0  0  0  0  0  0  0
    0.6907    2.1986   -2.1879 C   0  0  0  0  0  0  0  0  0  0  0  0
    1.1263    3.3574   -2.9577 N   0  0  0  0  0  0  0  0  0  0  0  0
    2.3092   -0.0363   -0.0887 H   0  0  0  0  0  0  0  0  0  0  0  0
    0.9410   -0.4242   -1.1693 H   0  0  0  0  0  0  0  0  0  0  0  0
   -0.5140    1.1459    0.1254 H   0  0  0  0  0  0  0  0  0  0  0  0
    0.8141    1.4879    1.2213 H   0  0  0  0  0  0  0  0  0  0  0  0
    0.5871    3.3060   -0.3418 H   0  0  0  0  0  0  0  0  0  0  0  0
    2.1337    2.5072   -0.6041 H   0  0  0  0  0  0  0  0  0  0  0  0
    1.8998   -2.3881   -0.2897 H   0  0  0  0  0  0  0  0  0  0  0  0
    1.1835    1.3120   -2.5978 H   0  0  0  0  0  0  0  0  0  0  0  0
   -0.3905    2.0669   -2.3032 H   0  0  0  0  0  0  0  0  0  0  0  0
    0.8132    3.2626   -3.9233 H   0  0  0  0  0  0  0  0  0  0  0  0
    0.6779    4.1996   -2.5972 H   0  0  0  0  0  0  0  0  0  0  0  0
  1  2  1  0  0  0  0
  1  3  1  0  0  0  0
  1  9  1  0  0  0  0
  1 10  1  0  0  0  0
  2  4  1  0  0  0  0
  2 11  1  0  0  0  0
  2 12  1  0  0  0  0
  3  5  1  0  0  0  0
  3  6  2  0  0  0  0
  4  7  1  0  0  0  0
  4 13  1  0  0  0  0
  4 14  1  0  0  0  0
  5 15  1  0  0  0  0
  7  8  1  0  0  0  0
  7 16  1  0  0  0  0
  7 17  1  0  0  0  0
  8 18  1  0  0  0  0
  8 19  1  0  0  0  0
M  END
>  <Mol_ID>
9504

>  <Formula>
C5H11NO2

>  <MolWeight>
117.14634

>  <Cat>
E4204

>  <Name>
5-Aminovaleric acid

>  <Synonyms>
5-Aminovaleric acid

>  <Target>
Endogenous Metabolite

>  <Form>
free base

>  <CAS>
660-88-8

>  <URL>
https://www.selleckchem.com/products/5-aminovaleric-acid.html

$$$$
