5-Aminolevulinic acid hydrochloride.cdx
 OpenBabel08302519583D

 18 17  0  0  0  0  0  0  0  0999 V2000
    1.6273   -0.6391    1.1475 N   0  0  0  0  0  0  0  0  0  0  0  0
    0.6225    0.1869    1.8270 C   0  0  0  0  0  0  0  0  0  0  0  0
    1.0542    1.6527    1.8530 C   0  0  0  0  0  0  0  0  0  0  0  0
    0.1029    2.6400    2.4950 C   0  0  0  0  0  0  0  0  0  0  0  0
    0.3383    2.7821    3.9870 C   0  0  0  0  0  0  0  0  0  0  0  0
    1.7281    3.2430    4.3525 C   0  0  0  0  0  0  0  0  0  0  0  0
    2.0537    4.4643    3.8838 O   0  0  0  0  0  0  0  0  0  0  0  0
    2.1227    2.0422    1.3795 O   0  0  0  0  0  0  0  0  0  0  0  0
    2.4739    2.5953    5.0721 O   0  0  0  0  0  0  0  0  0  0  0  0
    1.8140   -0.2250    0.2304 H   0  0  0  0  0  0  0  0  0  0  0  0
    2.5177   -0.5220    1.6390 H   0  0  0  0  0  0  0  0  0  0  0  0
   -0.3271    0.1125    1.2883 H   0  0  0  0  0  0  0  0  0  0  0  0
    0.4873   -0.1679    2.8516 H   0  0  0  0  0  0  0  0  0  0  0  0
    0.2180    3.5996    1.9789 H   0  0  0  0  0  0  0  0  0  0  0  0
   -0.9238    2.3085    2.3043 H   0  0  0  0  0  0  0  0  0  0  0  0
   -0.3775    3.4882    4.4230 H   0  0  0  0  0  0  0  0  0  0  0  0
    0.1715    1.8178    4.4825 H   0  0  0  0  0  0  0  0  0  0  0  0
    1.3860    4.8898    3.3164 H   0  0  0  0  0  0  0  0  0  0  0  0
  1  2  1  0  0  0  0
  1 10  1  0  0  0  0
  1 11  1  0  0  0  0
  2  3  1  0  0  0  0
  2 12  1  0  0  0  0
  2 13  1  0  0  0  0
  3  4  1  0  0  0  0
  3  8  2  0  0  0  0
  4  5  1  0  0  0  0
  4 14  1  0  0  0  0
  4 15  1  0  0  0  0
  5  6  1  0  0  0  0
  5 16  1  0  0  0  0
  5 17  1  0  0  0  0
  6  7  1  0  0  0  0
  6  9  2  0  0  0  0
  7 18  1  0  0  0  0
M  END
>  <Mol_ID>
248

>  <Formula>
C5H10ClNO3

>  <MolWeight>
167.5908

>  <Cat>
S2553

>  <Name>
5-Aminolevulinic acid HCl

>  <Synonyms>
5-ALA hydrochloride

>  <Target>
Others

>  <Form>
Hydrochloride

>  <CAS>
5451-09-2

>  <URL>
http://selleckchem.com/products/5-Aminolevulinic-acid-hydrochloride.html

$$$$
