5-amino-2,4-dimethylpyridine?(5A-DMP)
 OpenBabel08302521333D

 19 19  0  0  0  0  0  0  0  0999 V2000
    1.3695    0.0690    0.0303 N   0  0  0  0  0  0  0  0  0  0  0  0
   -1.2538   -2.5473    0.0474 N   0  0  0  0  0  0  0  0  0  0  0  0
   -1.4339   -0.1075   -0.1061 C   0  0  0  0  0  0  0  0  0  0  0  0
   -0.6662   -1.2789   -0.0806 C   0  0  0  0  0  0  0  0  0  0  0  0
   -0.7787    1.1339   -0.1227 C   0  0  0  0  0  0  0  0  0  0  0  0
    0.6114    1.1819   -0.0631 C   0  0  0  0  0  0  0  0  0  0  0  0
   -2.9356   -0.1449   -0.1456 C   0  0  0  0  0  0  0  0  0  0  0  0
    0.7149   -1.1161    0.0467 C   0  0  0  0  0  0  0  0  0  0  0  0
    1.3409    2.4895   -0.1232 C   0  0  0  0  0  0  0  0  0  0  0  0
   -0.6474   -3.3079   -0.2457 H   0  0  0  0  0  0  0  0  0  0  0  0
   -2.1750   -2.6176   -0.3724 H   0  0  0  0  0  0  0  0  0  0  0  0
   -1.3505    2.0557   -0.1733 H   0  0  0  0  0  0  0  0  0  0  0  0
   -3.2758   -0.5909   -1.0858 H   0  0  0  0  0  0  0  0  0  0  0  0
   -3.3281   -0.7240    0.6965 H   0  0  0  0  0  0  0  0  0  0  0  0
   -3.3655    0.8601   -0.0782 H   0  0  0  0  0  0  0  0  0  0  0  0
    1.3640   -1.9793    0.1634 H   0  0  0  0  0  0  0  0  0  0  0  0
    2.0571    2.5584    0.7014 H   0  0  0  0  0  0  0  0  0  0  0  0
    1.8827    2.5646   -1.0712 H   0  0  0  0  0  0  0  0  0  0  0  0
    0.6565    3.3404   -0.0491 H   0  0  0  0  0  0  0  0  0  0  0  0
  1  6  2  0  0  0  0
  1  8  1  0  0  0  0
  2  4  1  0  0  0  0
  2 10  1  0  0  0  0
  2 11  1  0  0  0  0
  3  4  1  0  0  0  0
  3  5  2  0  0  0  0
  3  7  1  0  0  0  0
  4  8  2  0  0  0  0
  5  6  1  0  0  0  0
  5 12  1  0  0  0  0
  6  9  1  0  0  0  0
  7 13  1  0  0  0  0
  7 14  1  0  0  0  0
  7 15  1  0  0  0  0
  8 16  1  0  0  0  0
  9 17  1  0  0  0  0
  9 18  1  0  0  0  0
  9 19  1  0  0  0  0
M  END
>  <Mol_ID>
6396

>  <Formula>
C7H10N2

>  <MolWeight>
122.1677

>  <Cat>
E1087

>  <Name>
5-amino-2,4-dimethylpyridine?(5A-DMP)

>  <Synonyms>
N/A

>  <Target>
E3 Ligase

>  <Form>
free base

>  <CAS>
1193-71-1

>  <URL>
http://www.selleckchem.com/products/5-amino-2-4-dimethylpyridine-5a-dmp.html

$$$$
