5-BDBD
 OpenBabel08302521313D

 33 36  0  0  0  0  0  0  0  0999 V2000
    7.1817   -5.7867   -2.4418 Br  0  0  0  0  0  0  0  0  0  0  0  0
    3.4222   -3.2588    2.4034 O   0  0  0  0  0  0  0  0  0  0  0  0
   -0.9667   -4.9011   -0.3483 O   0  0  0  0  0  0  0  0  0  0  0  0
    0.0330   -3.7955    1.3642 N   0  0  0  0  0  0  0  0  0  0  0  0
    2.2827   -5.2419   -0.2385 N   0  0  0  0  0  0  0  0  0  0  0  0
    1.2213   -3.5338    2.0322 C   0  0  0  0  0  0  0  0  0  0  0  0
    2.4782   -3.5410    1.4505 C   0  0  0  0  0  0  0  0  0  0  0  0
    1.4901   -3.8717    3.3874 C   0  0  0  0  0  0  0  0  0  0  0  0
    2.8371   -3.5968    3.5891 C   0  0  0  0  0  0  0  0  0  0  0  0
    2.8940   -4.1990    0.2310 C   0  0  0  0  0  0  0  0  0  0  0  0
    4.1378   -3.7693   -0.4591 C   0  0  0  0  0  0  0  0  0  0  0  0
    0.7811   -4.5436    4.3998 C   0  0  0  0  0  0  0  0  0  0  0  0
    1.1309   -5.8166    0.4841 C   0  0  0  0  0  0  0  0  0  0  0  0
    3.5126   -3.8164    4.7843 C   0  0  0  0  0  0  0  0  0  0  0  0
   -0.0288   -4.8269    0.4526 C   0  0  0  0  0  0  0  0  0  0  0  0
    1.4734   -4.9133    5.5597 C   0  0  0  0  0  0  0  0  0  0  0  0
    2.8025   -4.5254    5.7606 C   0  0  0  0  0  0  0  0  0  0  0  0
    4.9315   -4.7698   -1.0172 C   0  0  0  0  0  0  0  0  0  0  0  0
    4.5033   -2.4211   -0.5740 C   0  0  0  0  0  0  0  0  0  0  0  0
    6.0779   -4.4194   -1.6919 C   0  0  0  0  0  0  0  0  0  0  0  0
    5.6676   -2.0950   -1.2707 C   0  0  0  0  0  0  0  0  0  0  0  0
    6.4607   -3.0921   -1.8327 C   0  0  0  0  0  0  0  0  0  0  0  0
   -0.5075   -3.0025    1.0481 H   0  0  0  0  0  0  0  0  0  0  0  0
   -0.2354   -4.8873    4.2294 H   0  0  0  0  0  0  0  0  0  0  0  0
    1.3890   -6.1045    1.5115 H   0  0  0  0  0  0  0  0  0  0  0  0
    0.8134   -6.7382   -0.0101 H   0  0  0  0  0  0  0  0  0  0  0  0
    4.5611   -3.5714    4.8979 H   0  0  0  0  0  0  0  0  0  0  0  0
    0.9783   -5.5415    6.2984 H   0  0  0  0  0  0  0  0  0  0  0  0
    3.3134   -4.8274    6.6723 H   0  0  0  0  0  0  0  0  0  0  0  0
    4.6484   -5.8152   -0.9229 H   0  0  0  0  0  0  0  0  0  0  0  0
    3.8901   -1.6356   -0.1512 H   0  0  0  0  0  0  0  0  0  0  0  0
    5.9533   -1.0491   -1.3799 H   0  0  0  0  0  0  0  0  0  0  0  0
    7.3667   -2.8152   -2.3704 H   0  0  0  0  0  0  0  0  0  0  0  0
  1 20  1  0  0  0  0
  2  7  1  0  0  0  0
  2  9  1  0  0  0  0
  3 15  2  0  0  0  0
  4  6  1  0  0  0  0
  4 15  1  0  0  0  0
  4 23  1  0  0  0  0
  5 10  2  0  0  0  0
  5 13  1  0  0  0  0
  6  7  2  0  0  0  0
  6  8  1  0  0  0  0
  7 10  1  0  0  0  0
  8  9  2  0  0  0  0
  8 12  1  0  0  0  0
  9 14  1  0  0  0  0
 10 11  1  0  0  0  0
 11 18  2  0  0  0  0
 11 19  1  0  0  0  0
 12 16  2  0  0  0  0
 12 24  1  0  0  0  0
 13 15  1  0  0  0  0
 13 25  1  0  0  0  0
 13 26  1  0  0  0  0
 14 17  2  0  0  0  0
 14 27  1  0  0  0  0
 16 17  1  0  0  0  0
 16 28  1  0  0  0  0
 17 29  1  0  0  0  0
 18 20  1  0  0  0  0
 18 30  1  0  0  0  0
 19 21  2  0  0  0  0
 19 31  1  0  0  0  0
 20 22  2  0  0  0  0
 21 22  1  0  0  0  0
 21 32  1  0  0  0  0
 22 33  1  0  0  0  0
M  END
>  <Mol_ID>
6030

>  <Formula>
C17H11BrN2O2

>  <MolWeight>
355.18544

>  <Cat>
S9498

>  <Name>
5-BDBD

>  <Synonyms>
N/A

>  <Target>
P2 Receptor

>  <Form>
Free Base

>  <CAS>
768404-03-1

>  <URL>
http://www.selleckchem.com/products/5-bdbd.html

$$$$
