5-Boc-amino-pentanoic acid
 OpenBabel08302521313D

 34 33  0  0  0  0  0  0  0  0999 V2000
    1.0504    0.1265   -0.2910 O   0  0  0  0  0  0  0  0  0  0  0  0
    2.9679   -1.1291   -0.1531 O   0  0  0  0  0  0  0  0  0  0  0  0
    1.1244    1.5706    6.6687 O   0  0  0  0  0  0  0  0  0  0  0  0
    3.0728    0.9769    5.7028 O   0  0  0  0  0  0  0  0  0  0  0  0
    3.0433    1.0401    0.3835 N   0  0  0  0  0  0  0  0  0  0  0  0
    0.2329   -1.0316   -0.6516 C   0  0  0  0  0  0  0  0  0  0  0  0
    1.6873    2.5173    1.8854 C   0  0  0  0  0  0  0  0  0  0  0  0
    2.3150    1.9396    3.1580 C   0  0  0  0  0  0  0  0  0  0  0  0
    2.5768    2.3825    0.6481 C   0  0  0  0  0  0  0  0  0  0  0  0
    0.2216   -2.0732    0.4804 C   0  0  0  0  0  0  0  0  0  0  0  0
   -1.1960   -0.4946   -0.8473 C   0  0  0  0  0  0  0  0  0  0  0  0
    0.6784   -1.6671   -1.9782 C   0  0  0  0  0  0  0  0  0  0  0  0
    1.3793    2.0926    4.3596 C   0  0  0  0  0  0  0  0  0  0  0  0
    2.3649   -0.0635   -0.0403 C   0  0  0  0  0  0  0  0  0  0  0  0
    1.9670    1.4847    5.6124 C   0  0  0  0  0  0  0  0  0  0  0  0
    0.2722    2.0004    6.4586 H   0  0  0  0  0  0  0  0  0  0  0  0
    4.0243    0.8407    0.5426 H   0  0  0  0  0  0  0  0  0  0  0  0
    1.4803    3.5838    2.0435 H   0  0  0  0  0  0  0  0  0  0  0  0
    0.7233    2.0317    1.6992 H   0  0  0  0  0  0  0  0  0  0  0  0
    2.5417    0.8766    3.0154 H   0  0  0  0  0  0  0  0  0  0  0  0
    3.2675    2.4416    3.3660 H   0  0  0  0  0  0  0  0  0  0  0  0
    3.4762    2.9955    0.7835 H   0  0  0  0  0  0  0  0  0  0  0  0
    2.0509    2.7534   -0.2373 H   0  0  0  0  0  0  0  0  0  0  0  0
    0.2177   -1.5926    1.4641 H   0  0  0  0  0  0  0  0  0  0  0  0
   -0.6460   -2.7390    0.4117 H   0  0  0  0  0  0  0  0  0  0  0  0
    1.1087   -2.7149    0.4406 H   0  0  0  0  0  0  0  0  0  0  0  0
   -1.2652    0.1010   -1.7654 H   0  0  0  0  0  0  0  0  0  0  0  0
   -1.9278   -1.3074   -0.9278 H   0  0  0  0  0  0  0  0  0  0  0  0
   -1.4926    0.1624   -0.0234 H   0  0  0  0  0  0  0  0  0  0  0  0
    0.7308   -0.9156   -2.7733 H   0  0  0  0  0  0  0  0  0  0  0  0
    1.6720   -2.1190   -1.9106 H   0  0  0  0  0  0  0  0  0  0  0  0
   -0.0139   -2.4578   -2.2896 H   0  0  0  0  0  0  0  0  0  0  0  0
    1.1918    3.1551    4.5521 H   0  0  0  0  0  0  0  0  0  0  0  0
    0.4297    1.5900    4.1503 H   0  0  0  0  0  0  0  0  0  0  0  0
  1  6  1  0  0  0  0
  1 14  1  0  0  0  0
  2 14  2  0  0  0  0
  3 15  1  0  0  0  0
  3 16  1  0  0  0  0
  4 15  2  0  0  0  0
  5  9  1  0  0  0  0
  5 14  1  0  0  0  0
  5 17  1  0  0  0  0
  6 10  1  0  0  0  0
  6 11  1  0  0  0  0
  6 12  1  0  0  0  0
  7  8  1  0  0  0  0
  7  9  1  0  0  0  0
  7 18  1  0  0  0  0
  7 19  1  0  0  0  0
  8 13  1  0  0  0  0
  8 20  1  0  0  0  0
  8 21  1  0  0  0  0
  9 22  1  0  0  0  0
  9 23  1  0  0  0  0
 10 24  1  0  0  0  0
 10 25  1  0  0  0  0
 10 26  1  0  0  0  0
 11 27  1  0  0  0  0
 11 28  1  0  0  0  0
 11 29  1  0  0  0  0
 12 30  1  0  0  0  0
 12 31  1  0  0  0  0
 12 32  1  0  0  0  0
 13 15  1  0  0  0  0
 13 33  1  0  0  0  0
 13 34  1  0  0  0  0
M  END
>  <Mol_ID>
5862

>  <Formula>
C10H19NO4

>  <MolWeight>
217.26216

>  <Cat>
S1803

>  <Name>
5-Boc-amino-pentanoic acid

>  <Synonyms>
Boc-5-aminovaleric acid, Boc-NH-C4-acid, Boc-5-Ava-OH

>  <Target>
PROTAC Linker

>  <Form>
Free Base

>  <CAS>
27219-07-4

>  <URL>
http://www.selleckchem.com/products/boc-nh-c4-acid.html

$$$$
