5-Bromouracil
 OpenBabel08302521363D

 12 12  0  0  0  0  0  0  0  0999 V2000
   -0.0196   -2.1460    0.0043 O   0  0  0  0  0  0  0  0  0  0  0  0
    2.0287    0.2277    0.0138 Br  0  0  0  0  0  0  0  0  0  0  0  0
   -3.8876    0.2266   -0.0220 O   0  0  0  0  0  0  0  0  0  0  0  0
   -0.5772   -1.0525   -0.0006 C   0  0  0  0  0  0  0  0  0  0  0  0
    0.1693    0.2414    0.0131 C   0  0  0  0  0  0  0  0  0  0  0  0
   -1.9456   -0.9560   -0.0176 N   0  0  0  0  0  0  0  0  0  0  0  0
   -0.5492    1.3716    0.0224 C   0  0  0  0  0  0  0  0  0  0  0  0
   -2.6626    0.2069   -0.0103 C   0  0  0  0  0  0  0  0  0  0  0  0
   -1.9180    1.3551    0.0118 N   0  0  0  0  0  0  0  0  0  0  0  0
   -2.4680   -1.8181   -0.0287 H   0  0  0  0  0  0  0  0  0  0  0  0
   -0.0855    2.3531    0.0361 H   0  0  0  0  0  0  0  0  0  0  0  0
   -2.4462    2.2215    0.0152 H   0  0  0  0  0  0  0  0  0  0  0  0
  1  4  2  0  0  0  0
  2  5  1  0  0  0  0
  3  8  2  0  0  0  0
  4  5  1  0  0  0  0
  4  6  1  0  0  0  0
  5  7  2  0  0  0  0
  6  8  1  0  0  0  0
  6 10  1  0  0  0  0
  7  9  1  0  0  0  0
  7 11  1  0  0  0  0
  8  9  1  0  0  0  0
  9 12  1  0  0  0  0
M  END
>  <Mol_ID>
7300

>  <Formula>
C4H3BrN2O2

>  <MolWeight>
190.98282

>  <Cat>
E4328

>  <Name>
5-Bromouracil

>  <Synonyms>
5-Bromouracil

>  <Target>
Others

>  <Form>
free base

>  <CAS>
51-20-7

>  <URL>
https://www.selleckchem.com/products/5-bromouracil.html

$$$$
