5-Chloro-2'-deoxyuridine
 OpenBabel08302521373D

 28 29  0  0  1  0  0  0  0  0999 V2000
    1.3768    0.1541    1.0566 O   0  0  0  0  0  0  0  0  0  0  0  0
    4.3183    4.9642   -1.3254 C   0  0  0  0  0  0  0  0  0  0  0  0
    4.6623    4.7856   -2.6975 O   0  0  0  0  0  0  0  0  0  0  0  0
    1.1123    5.0329    0.5528 O   0  0  0  0  0  0  0  0  0  0  0  0
    4.8123   -2.5090   -0.2419 O   0  0  0  0  0  0  0  0  0  0  0  0
    2.3876    2.3868   -0.2191 C   0  0  2  0  0  0  0  0  0  0  0  0
    2.7535    3.1250   -1.4005 O   0  0  0  0  0  0  0  0  0  0  0  0
    2.6978    3.2784    0.9751 C   0  0  0  0  0  0  0  0  0  0  0  0
    2.8735    4.5253   -1.0614 C   0  0  1  0  0  0  0  0  0  0  0  0
    2.4848    4.6644    0.4097 C   0  0  1  0  0  0  0  0  0  0  0  0
    3.0763    1.1021   -0.1922 N   0  0  0  0  0  0  0  0  0  0  0  0
    2.4503    0.0516    0.4706 C   0  0  0  0  0  0  0  0  0  0  0  0
    4.3104    0.9403   -0.7894 C   0  0  0  0  0  0  0  0  0  0  0  0
    3.1114   -1.1513    0.4331 N   0  0  0  0  0  0  0  0  0  0  0  0
    4.9380   -0.2371   -0.8239 C   0  0  0  0  0  0  0  0  0  0  0  0
    4.2977   -1.3956   -0.1969 C   0  0  0  0  0  0  0  0  0  0  0  0
    4.4472    6.0237   -1.0845 H   0  0  0  0  0  0  0  0  0  0  0  0
    5.0312    4.3800   -0.7343 H   0  0  0  0  0  0  0  0  0  0  0  0
    4.4934    3.8491   -2.9102 H   0  0  0  0  0  0  0  0  0  0  0  0
    0.5625    4.4891   -0.0397 H   0  0  0  0  0  0  0  0  0  0  0  0
    1.3062    2.2141   -0.2810 H   0  0  0  0  0  0  0  0  0  0  0  0
    3.7432    3.1584    1.2852 H   0  0  0  0  0  0  0  0  0  0  0  0
    2.0563    3.0471    1.8308 H   0  0  0  0  0  0  0  0  0  0  0  0
    2.1932    5.0691   -1.7250 H   0  0  0  0  0  0  0  0  0  0  0  0
    3.0690    5.4239    0.9378 H   0  0  0  0  0  0  0  0  0  0  0  0
    4.7600    1.8124   -1.2575 H   0  0  0  0  0  0  0  0  0  0  0  0
    2.6576   -1.9328    0.8792 H   0  0  0  0  0  0  0  0  0  0  0  0
    5.8969   -0.3843   -1.3027 H   0  0  0  0  0  0  0  0  0  0  0  0
  1 12  2  0  0  0  0
  2  3  1  0  0  0  0
  2 17  1  0  0  0  0
  2 18  1  0  0  0  0
  3 19  1  0  0  0  0
  4 20  1  0  0  0  0
  5 16  2  0  0  0  0
  6  7  1  0  0  0  0
  6  8  1  0  0  0  0
  6 11  1  0  0  0  0
  6 21  1  6  0  0  0
  7  9  1  0  0  0  0
  8 10  1  0  0  0  0
  8 22  1  0  0  0  0
  8 23  1  0  0  0  0
  9 10  1  0  0  0  0
  9 24  1  6  0  0  0
  9  2  1  0  0  0  0
 10  4  1  0  0  0  0
 10 25  1  1  0  0  0
 11 12  1  0  0  0  0
 11 13  1  0  0  0  0
 12 14  1  0  0  0  0
 13 15  2  0  0  0  0
 13 26  1  0  0  0  0
 14 16  1  0  0  0  0
 14 27  1  0  0  0  0
 15 16  1  0  0  0  0
 15 28  1  0  0  0  0
M  END
>  <Mol_ID>
7603

>  <Formula>
C9H11ClN2O5

>  <MolWeight>
262.64704

>  <Cat>
E2919

>  <Name>
5-Chloro-2'-deoxyuridine

>  <Synonyms>
5-Chlorodeoxyuridine; CldU

>  <Target>
Nucleoside Analog/Antimetabolite

>  <Form>
chloride

>  <CAS>
50-90-8

>  <URL>
https://www.selleckchem.com/products/5-chloro-2-deoxyuridine.html

$$$$
