5-Ethynyl-2'-deoxyuridine
 OpenBabel08302521313D

 30 31  0  0  0  0  0  0  0  0999 V2000
    1.4964    0.5054   -0.0088 O   0  0  0  0  0  0  0  0  0  0  0  0
   -1.6405    0.0802   -0.5882 O   0  0  0  0  0  0  0  0  0  0  0  0
    1.6603    2.6408    1.8199 O   0  0  0  0  0  0  0  0  0  0  0  0
    1.5224   -3.2274   -1.6726 O   0  0  0  0  0  0  0  0  0  0  0  0
    5.1815   -4.4523    0.6177 O   0  0  0  0  0  0  0  0  0  0  0  0
    2.3559   -1.7191   -0.1301 N   0  0  0  0  0  0  0  0  0  0  0  0
    3.4812   -3.6923   -0.6645 N   0  0  0  0  0  0  0  0  0  0  0  0
   -0.7894    0.0359    0.5576 C   0  0  1  0  0  0  0  0  0  0  0  0
    1.1961   -0.8645   -0.3236 C   0  0  1  0  0  0  0  0  0  0  0  0
    0.0089   -1.2471    0.5476 C   0  0  0  0  0  0  0  0  0  0  0  0
    0.2879    1.1229    0.5082 C   0  0  1  0  0  0  0  0  0  0  0  0
    0.6068    1.6831    1.8961 C   0  0  0  0  0  0  0  0  0  0  0  0
    3.3122   -1.4426    0.8323 C   0  0  0  0  0  0  0  0  0  0  0  0
    2.3969   -2.8884   -0.8788 C   0  0  0  0  0  0  0  0  0  0  0  0
    4.3142   -2.2852    1.1186 C   0  0  0  0  0  0  0  0  0  0  0  0
    4.3845   -3.5582    0.3519 C   0  0  0  0  0  0  0  0  0  0  0  0
    5.2464   -2.0180    2.1571 C   0  0  0  0  0  0  0  0  0  0  0  0
    6.0414   -1.8676    3.0485 C   0  0  0  0  0  0  0  0  0  0  0  0
   -1.1081    0.1661   -1.3983 H   0  0  0  0  0  0  0  0  0  0  0  0
    2.4074    2.1941    1.3795 H   0  0  0  0  0  0  0  0  0  0  0  0
    3.4997   -4.5655   -1.1675 H   0  0  0  0  0  0  0  0  0  0  0  0
   -1.4408    0.1158    1.4327 H   0  0  0  0  0  0  0  0  0  0  0  0
    0.9086   -0.8871   -1.3831 H   0  0  0  0  0  0  0  0  0  0  0  0
    0.3409   -1.4836    1.5658 H   0  0  0  0  0  0  0  0  0  0  0  0
   -0.5335   -2.1095    0.1490 H   0  0  0  0  0  0  0  0  0  0  0  0
    0.0265    1.9359   -0.1786 H   0  0  0  0  0  0  0  0  0  0  0  0
   -0.2697    2.1783    2.3247 H   0  0  0  0  0  0  0  0  0  0  0  0
    0.9360    0.8941    2.5795 H   0  0  0  0  0  0  0  0  0  0  0  0
    3.2064   -0.5061    1.3722 H   0  0  0  0  0  0  0  0  0  0  0  0
    6.7540   -1.7773    3.8340 H   0  0  0  0  0  0  0  0  0  0  0  0
  1  9  1  0  0  0  0
  1 11  1  0  0  0  0
  2 19  1  0  0  0  0
  3 12  1  0  0  0  0
  3 20  1  0  0  0  0
  4 14  2  0  0  0  0
  5 16  2  0  0  0  0
  6 13  1  0  0  0  0
  6 14  1  0  0  0  0
  7 14  1  0  0  0  0
  7 16  1  0  0  0  0
  7 21  1  0  0  0  0
  8  2  1  0  0  0  0
  8 10  1  0  0  0  0
  8 11  1  0  0  0  0
  8 22  1  1  0  0  0
  9 10  1  0  0  0  0
  9 23  1  6  0  0  0
  9  6  1  0  0  0  0
 10 24  1  0  0  0  0
 10 25  1  0  0  0  0
 11 26  1  6  0  0  0
 11 12  1  0  0  0  0
 12 27  1  0  0  0  0
 12 28  1  0  0  0  0
 13 15  2  0  0  0  0
 13 29  1  0  0  0  0
 15 16  1  0  0  0  0
 15 17  1  0  0  0  0
 17 18  3  0  0  0  0
 18 30  1  0  0  0  0
M  END
>  <Mol_ID>
5861

>  <Formula>
C11H12N2O5

>  <MolWeight>
252.22338

>  <Cat>
S1661

>  <Name>
5-Ethynyl-2'-deoxyuridine

>  <Synonyms>
EdU, 5-EdU, 2'-Deoxy-5-ethynyluridine

>  <Target>
PROTAC Linker

>  <Form>
Free Base

>  <CAS>
61135-33-9

>  <URL>
http://www.selleckchem.com/products/5-ethynyl-2--deoxyuridine.html

$$$$
