5-Ethynyluridine
 OpenBabel08302521373D

 31 32  0  0  1  0  0  0  0  0999 V2000
   -1.9014    0.9175   -0.0562 O   0  0  0  0  0  0  0  0  0  0  0  0
    0.5908    3.3997    2.1473 O   0  0  0  0  0  0  0  0  0  0  0  0
    1.9572   -0.8737   -1.7724 C   0  0  0  0  0  0  0  0  0  0  0  0
    3.3744   -0.8092   -1.6279 O   0  0  0  0  0  0  0  0  0  0  0  0
   -0.8094   -1.3493    0.7495 O   0  0  0  0  0  0  0  0  0  0  0  0
    2.8118    4.1872   -2.8023 C   0  0  0  0  0  0  0  0  0  0  0  0
    3.3750    4.3029   -3.8587 C   0  0  0  0  0  0  0  0  0  0  0  0
    3.0370    6.0052   -0.5506 O   0  0  0  0  0  0  0  0  0  0  0  0
    0.5170    1.2857    0.3379 C   0  0  2  0  0  0  0  0  0  0  0  0
    1.6727    0.4212    0.2433 O   0  0  0  0  0  0  0  0  0  0  0  0
   -0.5836    0.6657   -0.5383 C   0  0  1  0  0  0  0  0  0  0  0  0
    1.2877   -0.8171   -0.3973 C   0  0  1  0  0  0  0  0  0  0  0  0
   -0.2358   -0.8157   -0.4588 C   0  0  1  0  0  0  0  0  0  0  0  0
    0.9513    2.6365   -0.0142 N   0  0  0  0  0  0  0  0  0  0  0  0
    1.5077    2.8930   -1.2570 C   0  0  0  0  0  0  0  0  0  0  0  0
    0.9944    3.5842    1.0018 C   0  0  0  0  0  0  0  0  0  0  0  0
    2.1745    4.0179   -1.5429 C   0  0  0  0  0  0  0  0  0  0  0  0
    1.5714    4.7810    0.6680 N   0  0  0  0  0  0  0  0  0  0  0  0
    2.3036    5.0271   -0.4620 C   0  0  0  0  0  0  0  0  0  0  0  0
   -2.0994    0.2055    0.5889 H   0  0  0  0  0  0  0  0  0  0  0  0
    1.7110   -1.8055   -2.2891 H   0  0  0  0  0  0  0  0  0  0  0  0
    1.6611   -0.0383   -2.4106 H   0  0  0  0  0  0  0  0  0  0  0  0
    3.5646   -0.0651   -1.0238 H   0  0  0  0  0  0  0  0  0  0  0  0
   -0.1887   -1.2089    1.4897 H   0  0  0  0  0  0  0  0  0  0  0  0
    3.8935    4.4014   -4.7824 H   0  0  0  0  0  0  0  0  0  0  0  0
    0.1920    1.2592    1.3843 H   0  0  0  0  0  0  0  0  0  0  0  0
   -0.5292    1.0144   -1.5737 H   0  0  0  0  0  0  0  0  0  0  0  0
    1.6756   -1.6255    0.2318 H   0  0  0  0  0  0  0  0  0  0  0  0
   -0.6463   -1.3955   -1.2902 H   0  0  0  0  0  0  0  0  0  0  0  0
    1.4276    2.1120   -2.0023 H   0  0  0  0  0  0  0  0  0  0  0  0
    1.6860    5.4389    1.4246 H   0  0  0  0  0  0  0  0  0  0  0  0
  1 20  1  0  0  0  0
  2 16  2  0  0  0  0
  3  4  1  0  0  0  0
  3 21  1  0  0  0  0
  3 22  1  0  0  0  0
  4 23  1  0  0  0  0
  5 24  1  0  0  0  0
  6  7  3  0  0  0  0
  6 17  1  0  0  0  0
  7 25  1  0  0  0  0
  8 19  2  0  0  0  0
  9 10  1  0  0  0  0
  9 11  1  0  0  0  0
  9 26  1  1  0  0  0
  9 14  1  0  0  0  0
 10 12  1  0  0  0  0
 11  1  1  0  0  0  0
 11 13  1  0  0  0  0
 11 27  1  6  0  0  0
 12 13  1  0  0  0  0
 12 28  1  1  0  0  0
 12  3  1  0  0  0  0
 13  5  1  0  0  0  0
 13 29  1  6  0  0  0
 14 15  1  0  0  0  0
 14 16  1  0  0  0  0
 15 17  2  0  0  0  0
 15 30  1  0  0  0  0
 16 18  1  0  0  0  0
 17 19  1  0  0  0  0
 18 19  1  0  0  0  0
 18 31  1  0  0  0  0
M  END
>  <Mol_ID>
7497

>  <Formula>
C11H12N2O6

>  <MolWeight>
268.22278

>  <Cat>
E1255

>  <Name>
5-Ethynyluridine

>  <Target>
DNA/RNA Synthesis

>  <Form>
free base

>  <CAS>
69075-42-9

>  <URL>
https://www.selleckchem.com/products/5-ethynyluridine.html

$$$$
