5-Fluoroorotic acid
 OpenBabel08302521313D

 15 15  0  0  0  0  0  0  0  0999 V2000
    1.6300   -0.0289    0.0059 C   0  0  0  0  0  0  0  0  0  0  0  0
    1.1044   -1.2875    0.0079 N   0  0  0  0  0  0  0  0  0  0  0  0
   -0.2463   -1.5518    0.0081 C   0  0  0  0  0  0  0  0  0  0  0  0
   -1.1344   -0.5561    0.0060 C   0  0  0  0  0  0  0  0  0  0  0  0
   -0.6448    0.8405    0.0036 C   0  0  0  0  0  0  0  0  0  0  0  0
    0.7192    0.9904    0.0032 N   0  0  0  0  0  0  0  0  0  0  0  0
   -0.7039   -2.9597    0.0108 C   0  0  0  0  0  0  0  0  0  0  0  0
   -1.8455   -3.3755    0.0126 O   0  0  0  0  0  0  0  0  0  0  0  0
    0.3459   -3.8088    0.0115 O   0  0  0  0  0  0  0  0  0  0  0  0
   -1.4029    1.8038    0.0024 O   0  0  0  0  0  0  0  0  0  0  0  0
    2.8385    0.1729    0.0062 O   0  0  0  0  0  0  0  0  0  0  0  0
   -2.4689   -0.7283    0.0051 F   0  0  0  0  0  0  0  0  0  0  0  0
    1.7505   -2.0723    0.0092 H   0  0  0  0  0  0  0  0  0  0  0  0
    1.0817    1.9323    0.0016 H   0  0  0  0  0  0  0  0  0  0  0  0
   -0.0756   -4.6965    0.0136 H   0  0  0  0  0  0  0  0  0  0  0  0
  1  2  1  0  0  0  0
  1  6  1  0  0  0  0
  1 11  2  0  0  0  0
  2  3  1  0  0  0  0
  2 13  1  0  0  0  0
  3  4  2  0  0  0  0
  3  7  1  0  0  0  0
  4  5  1  0  0  0  0
  4 12  1  0  0  0  0
  5  6  1  0  0  0  0
  5 10  2  0  0  0  0
  6 14  1  0  0  0  0
  7  8  2  0  0  0  0
  7  9  1  0  0  0  0
  9 15  1  0  0  0  0
M  END
>  <Mol_ID>
5936

>  <Formula>
C5H3FN2O4

>  <MolWeight>
174.0867232

>  <Cat>
S9873

>  <Name>
5-Fluoroorotic acid

>  <Synonyms>
5-FOA, 5-Fluoroorotate, NSC 31712

>  <Target>
Others

>  <Form>
Free Base

>  <CAS>
703-95-7

>  <URL>
http://www.selleckchem.com/products/5-fluoroorotic-acid.html

$$$$
