5-HTP.cdx
 OpenBabel08302521263D

 28 29  0  0  0  0  0  0  0  0999 V2000
    1.8376   -0.1521    0.0294 C   0  0  0  0  0  0  0  0  0  0  0  0
    1.5543    1.2085    0.0286 C   0  0  0  0  0  0  0  0  0  0  0  0
    0.2302    1.6528   -0.0113 C   0  0  0  0  0  0  0  0  0  0  0  0
   -0.7814    0.6845   -0.0580 C   0  0  0  0  0  0  0  0  0  0  0  0
   -0.5230   -0.6875   -0.0550 C   0  0  0  0  0  0  0  0  0  0  0  0
    0.8222   -1.1119   -0.0032 C   0  0  0  0  0  0  0  0  0  0  0  0
   -2.1434    0.8398   -0.1187 N   0  0  0  0  0  0  0  0  0  0  0  0
   -2.7596   -0.3801   -0.1507 C   0  0  0  0  0  0  0  0  0  0  0  0
   -1.7900   -1.3638   -0.1118 C   0  0  0  0  0  0  0  0  0  0  0  0
    3.1281   -0.6003    0.0583 O   0  0  0  0  0  0  0  0  0  0  0  0
   -2.0105   -2.8482   -0.1107 C   0  0  0  0  0  0  0  0  0  0  0  0
   -3.2353   -3.3468   -0.8946 C   0  0  3  0  0  0  0  0  0  0  0  0
   -3.1524   -2.9791   -2.3891 C   0  0  0  0  0  0  0  0  0  0  0  0
   -2.5656   -3.9329   -3.1559 O   0  0  0  0  0  0  0  0  0  0  0  0
   -3.5918   -1.9492   -2.8759 O   0  0  0  0  0  0  0  0  0  0  0  0
   -3.3993   -4.8116   -0.7074 N   0  0  0  0  0  0  0  0  0  0  0  0
    2.3509    1.9462    0.0550 H   0  0  0  0  0  0  0  0  0  0  0  0
   -0.0018    2.7124   -0.0106 H   0  0  0  0  0  0  0  0  0  0  0  0
    1.0769   -2.1657    0.0007 H   0  0  0  0  0  0  0  0  0  0  0  0
   -2.6197    1.7311   -0.1475 H   0  0  0  0  0  0  0  0  0  0  0  0
   -3.8377   -0.4395   -0.2232 H   0  0  0  0  0  0  0  0  0  0  0  0
    3.7201    0.1701    0.0439 H   0  0  0  0  0  0  0  0  0  0  0  0
   -1.1097   -3.3462   -0.4909 H   0  0  0  0  0  0  0  0  0  0  0  0
   -2.1167   -3.1553    0.9398 H   0  0  0  0  0  0  0  0  0  0  0  0
   -4.1524   -2.8867   -0.5087 H   0  0  0  0  0  0  0  0  0  0  0  0
   -2.3080   -4.7021   -2.6205 H   0  0  0  0  0  0  0  0  0  0  0  0
   -4.1440   -5.1821   -1.2963 H   0  0  0  0  0  0  0  0  0  0  0  0
   -2.5430   -5.3478   -0.7938 H   0  0  0  0  0  0  0  0  0  0  0  0
  1  2  2  0  0  0  0
  1 10  1  0  0  0  0
  2  3  1  0  0  0  0
  2 17  1  0  0  0  0
  3  4  2  0  0  0  0
  3 18  1  0  0  0  0
  4  5  1  0  0  0  0
  4  7  1  0  0  0  0
  5  6  2  0  0  0  0
  6  1  1  0  0  0  0
  6 19  1  0  0  0  0
  7  8  1  0  0  0  0
  7 20  1  0  0  0  0
  8  9  2  0  0  0  0
  8 21  1  0  0  0  0
  9  5  1  0  0  0  0
  9 11  1  0  0  0  0
 10 22  1  0  0  0  0
 11 12  1  0  0  0  0
 11 23  1  0  0  0  0
 11 24  1  0  0  0  0
 12 13  1  0  0  0  0
 12 16  1  0  0  0  0
 12 25  1  0  0  0  0
 13 14  1  0  0  0  0
 13 15  2  0  0  0  0
 14 26  1  0  0  0  0
 16 27  1  0  0  0  0
 16 28  1  0  0  0  0
M  END
>  <Mol_ID>
493

>  <Formula>
C11H12N2O3

>  <MolWeight>
220.22458

>  <Cat>
S2374

>  <Name>
5-hydroxytryptophan (5-HTP)

>  <Synonyms>
NSC-92523

>  <Target>
Others

>  <Form>
free base

>  <CAS>
56-69-9

>  <URL>
http://selleckchem.com/products/5-hydroxytryptophan(5-HTP).html

$$$$
