5-Hydroxyflavone
 OpenBabel08302521373D

 28 30  0  0  0  0  0  0  0  0999 V2000
   -1.1057    2.3340    0.0262 O   0  0  0  0  0  0  0  0  0  0  0  0
    1.6164    2.1053    0.0057 O   0  0  0  0  0  0  0  0  0  0  0  0
   -0.1078   -1.1331    0.0289 C   0  0  0  0  0  0  0  0  0  0  0  0
    0.0832    0.2508    0.0214 C   0  0  0  0  0  0  0  0  0  0  0  0
   -1.3459   -1.7276    0.0496 O   0  0  0  0  0  0  0  0  0  0  0  0
    0.9876   -2.0009    0.0151 C   0  0  0  0  0  0  0  0  0  0  0  0
   -1.1205    1.1106    0.0212 C   0  0  0  0  0  0  0  0  0  0  0  0
    1.3884    0.7595    0.0076 C   0  0  0  0  0  0  0  0  0  0  0  0
   -2.4716   -0.9200    0.0402 C   0  0  0  0  0  0  0  0  0  0  0  0
    2.2833   -1.4875   -0.0045 C   0  0  0  0  0  0  0  0  0  0  0  0
   -2.4209    0.4188    0.0137 C   0  0  0  0  0  0  0  0  0  0  0  0
    2.4848   -0.1074   -0.0060 C   0  0  0  0  0  0  0  0  0  0  0  0
   -3.7564   -1.6568    0.0365 C   0  0  0  0  0  0  0  0  0  0  0  0
   -3.8421   -2.9263   -0.5576 C   0  0  0  0  0  0  0  0  0  0  0  0
   -4.9130   -1.1317    0.6376 C   0  0  0  0  0  0  0  0  0  0  0  0
   -5.0459   -3.6378   -0.5671 C   0  0  0  0  0  0  0  0  0  0  0  0
   -6.1180   -1.8400    0.6238 C   0  0  0  0  0  0  0  0  0  0  0  0
   -6.1840   -3.0923    0.0205 C   0  0  0  0  0  0  0  0  0  0  0  0
    2.5683    2.2892    0.0073 H   0  0  0  0  0  0  0  0  0  0  0  0
    0.8303   -3.0767    0.0187 H   0  0  0  0  0  0  0  0  0  0  0  0
    3.1359   -2.1625   -0.0185 H   0  0  0  0  0  0  0  0  0  0  0  0
   -3.2913    1.0605   -0.0196 H   0  0  0  0  0  0  0  0  0  0  0  0
    3.5014    0.2763   -0.0198 H   0  0  0  0  0  0  0  0  0  0  0  0
   -2.9704   -3.3750   -1.0295 H   0  0  0  0  0  0  0  0  0  0  0  0
   -4.8949   -0.1653    1.1362 H   0  0  0  0  0  0  0  0  0  0  0  0
   -5.0928   -4.6177   -1.0352 H   0  0  0  0  0  0  0  0  0  0  0  0
   -7.0026   -1.4120    1.0886 H   0  0  0  0  0  0  0  0  0  0  0  0
   -7.1205   -3.6437    0.0118 H   0  0  0  0  0  0  0  0  0  0  0  0
  1  7  2  0  0  0  0
  2  8  1  0  0  0  0
  2 19  1  0  0  0  0
  3  4  2  0  0  0  0
  3  5  1  0  0  0  0
  3  6  1  0  0  0  0
  4  7  1  0  0  0  0
  4  8  1  0  0  0  0
  5  9  1  0  0  0  0
  6 10  2  0  0  0  0
  6 20  1  0  0  0  0
  7 11  1  0  0  0  0
  8 12  2  0  0  0  0
  9 11  2  0  0  0  0
  9 13  1  0  0  0  0
 10 12  1  0  0  0  0
 10 21  1  0  0  0  0
 11 22  1  0  0  0  0
 12 23  1  0  0  0  0
 13 14  2  0  0  0  0
 13 15  1  0  0  0  0
 14 16  1  0  0  0  0
 14 24  1  0  0  0  0
 15 17  2  0  0  0  0
 15 25  1  0  0  0  0
 16 18  2  0  0  0  0
 16 26  1  0  0  0  0
 17 18  1  0  0  0  0
 17 27  1  0  0  0  0
 18 28  1  0  0  0  0
M  END
>  <Mol_ID>
7443

>  <Formula>
C15H10O3

>  <MolWeight>
238.2381

>  <Cat>
E4545

>  <Name>
5-Hydroxyflavone

>  <Synonyms>
5-Hydroxyflavone

>  <Target>
Others

>  <Form>
Free base

>  <CAS>
491-78-1

>  <URL>
https://www.selleckchem.com/products/5-hydroxyflavone.html

$$$$
