5-Hydroxy-1-tetralone
 OpenBabel08302521293D

 22 23  0  0  0  0  0  0  0  0999 V2000
   -1.2238    1.4587   -0.0469 C   0  0  0  0  0  0  0  0  0  0  0  0
   -2.4911    0.6975   -0.3416 C   0  0  0  0  0  0  0  0  0  0  0  0
   -2.4758   -0.6407    0.3727 C   0  0  0  0  0  0  0  0  0  0  0  0
   -1.2848   -1.4810   -0.0745 C   0  0  0  0  0  0  0  0  0  0  0  0
    0.0222   -0.7306   -0.0197 C   0  0  0  0  0  0  0  0  0  0  0  0
    1.2552   -1.3980   -0.0438 C   0  0  0  0  0  0  0  0  0  0  0  0
    2.4614   -0.6976    0.0040 C   0  0  0  0  0  0  0  0  0  0  0  0
    2.4633    0.6924    0.0689 C   0  0  0  0  0  0  0  0  0  0  0  0
    1.2542    1.3818    0.0713 C   0  0  0  0  0  0  0  0  0  0  0  0
    0.0437    0.6780    0.0130 C   0  0  0  0  0  0  0  0  0  0  0  0
   -1.2163    2.6805    0.0700 O   0  0  0  0  0  0  0  0  0  0  0  0
    1.3704   -2.7576   -0.1229 O   0  0  0  0  0  0  0  0  0  0  0  0
   -2.5796    0.5737   -1.4273 H   0  0  0  0  0  0  0  0  0  0  0  0
   -3.3447    1.2879    0.0078 H   0  0  0  0  0  0  0  0  0  0  0  0
   -2.4225   -0.4758    1.4565 H   0  0  0  0  0  0  0  0  0  0  0  0
   -3.4070   -1.1838    0.1748 H   0  0  0  0  0  0  0  0  0  0  0  0
   -1.2402   -2.3618    0.5774 H   0  0  0  0  0  0  0  0  0  0  0  0
   -1.4421   -1.8286   -1.1025 H   0  0  0  0  0  0  0  0  0  0  0  0
    3.4028   -1.2411   -0.0160 H   0  0  0  0  0  0  0  0  0  0  0  0
    3.4035    1.2367    0.1037 H   0  0  0  0  0  0  0  0  0  0  0  0
    1.2577    2.4700    0.1054 H   0  0  0  0  0  0  0  0  0  0  0  0
    0.5004   -3.1626   -0.2552 H   0  0  0  0  0  0  0  0  0  0  0  0
  1  2  1  0  0  0  0
  1 10  1  0  0  0  0
  1 11  2  0  0  0  0
  2  3  1  0  0  0  0
  2 13  1  0  0  0  0
  2 14  1  0  0  0  0
  3  4  1  0  0  0  0
  3 15  1  0  0  0  0
  3 16  1  0  0  0  0
  4  5  1  0  0  0  0
  4 17  1  0  0  0  0
  4 18  1  0  0  0  0
  5  6  1  0  0  0  0
  5 10  2  0  0  0  0
  6  7  2  0  0  0  0
  6 12  1  0  0  0  0
  7  8  1  0  0  0  0
  7 19  1  0  0  0  0
  8  9  2  0  0  0  0
  8 20  1  0  0  0  0
  9 10  1  0  0  0  0
  9 21  1  0  0  0  0
 12 22  1  0  0  0  0
M  END
>  <Mol_ID>
5481

>  <Formula>
C10H10O2

>  <MolWeight>
162.1852

>  <Cat>
S3316

>  <Name>
5-Hydroxy-1-tetralone

>  <Synonyms>
N/A

>  <Target>
Dyes

>  <Form>
Free Base

>  <CAS>
28315-93-7

>  <URL>
https://www.selleckchem.com/products/5-hydroxy-1-tetralone.html

$$$$
