5-Hydroxymethyluracil
 OpenBabel08302520393D

 16 16  0  0  0  0  0  0  0  0999 V2000
    1.1547   -1.2363   -0.0060 C   0  0  0  0  0  0  0  0  0  0  0  0
    1.2400    0.2460   -0.0201 C   0  0  0  0  0  0  0  0  0  0  0  0
   -0.0642   -1.7897    0.0071 C   0  0  0  0  0  0  0  0  0  0  0  0
    2.4364   -2.0020   -0.0283 C   0  0  0  0  0  0  0  0  0  0  0  0
    0.0520    0.9234   -0.0210 N   0  0  0  0  0  0  0  0  0  0  0  0
    2.3256    0.8201   -0.0208 O   0  0  0  0  0  0  0  0  0  0  0  0
   -1.1954   -1.0226    0.0128 N   0  0  0  0  0  0  0  0  0  0  0  0
    3.2222   -1.6899    1.1133 O   0  0  0  0  0  0  0  0  0  0  0  0
   -1.1851    0.3455    0.0061 C   0  0  0  0  0  0  0  0  0  0  0  0
   -2.2188    1.0038    0.0216 O   0  0  0  0  0  0  0  0  0  0  0  0
   -0.2151   -2.8655    0.0165 H   0  0  0  0  0  0  0  0  0  0  0  0
    2.2532   -3.0814   -0.0145 H   0  0  0  0  0  0  0  0  0  0  0  0
    3.0159   -1.7785   -0.9307 H   0  0  0  0  0  0  0  0  0  0  0  0
    0.0866    1.9304   -0.0175 H   0  0  0  0  0  0  0  0  0  0  0  0
   -2.1128   -1.4545    0.0332 H   0  0  0  0  0  0  0  0  0  0  0  0
    3.4782   -0.7500    1.0178 H   0  0  0  0  0  0  0  0  0  0  0  0
  1  2  1  0  0  0  0
  1  3  2  0  0  0  0
  1  4  1  0  0  0  0
  2  5  1  0  0  0  0
  2  6  2  0  0  0  0
  3  7  1  0  0  0  0
  3 11  1  0  0  0  0
  4  8  1  0  0  0  0
  4 12  1  0  0  0  0
  4 13  1  0  0  0  0
  5  9  1  0  0  0  0
  5 14  1  0  0  0  0
  7  9  1  0  0  0  0
  7 15  1  0  0  0  0
  8 16  1  0  0  0  0
  9 10  2  0  0  0  0
M  END
>  <Mol_ID>
3580

>  <Formula>
C5H6N2O3

>  <MolWeight>
142.11274

>  <Cat>
S6127

>  <Name>
5-Hydroxymethyluracil

>  <Synonyms>
N/A

>  <Target>
Others

>  <Form>
free base

>  <CAS>
4433-40-3

>  <URL>
http://www.selleck.cn/products/5-hydroxymethyluracil.html

$$$$
