5-Hydroxymethylcytosine
 OpenBabel08302521313D

 17 17  0  0  0  0  0  0  0  0999 V2000
    1.1798   -0.1338    0.3714 O   0  0  0  0  0  0  0  0  0  0  0  0
    1.6579   -4.1727   -4.4372 O   0  0  0  0  0  0  0  0  0  0  0  0
    1.5517   -2.2183   -3.3415 N   0  0  0  0  0  0  0  0  0  0  0  0
    1.4907   -0.0804   -2.3877 N   0  0  0  0  0  0  0  0  0  0  0  0
    1.0415   -4.2274   -2.2413 N   0  0  0  0  0  0  0  0  0  0  0  0
    0.9124   -2.0278   -1.1175 C   0  0  0  0  0  0  0  0  0  0  0  0
    1.3166   -1.4350   -2.2547 C   0  0  0  0  0  0  0  0  0  0  0  0
    0.5718   -1.4095    0.2015 C   0  0  0  0  0  0  0  0  0  0  0  0
    0.8122   -3.5017   -1.2012 C   0  0  0  0  0  0  0  0  0  0  0  0
    1.4240   -3.5835   -3.3867 C   0  0  0  0  0  0  0  0  0  0  0  0
    2.1431   -0.2706    0.2917 H   0  0  0  0  0  0  0  0  0  0  0  0
    1.8744   -1.7989   -4.1998 H   0  0  0  0  0  0  0  0  0  0  0  0
    1.0820    0.4489   -1.6128 H   0  0  0  0  0  0  0  0  0  0  0  0
    1.1717    0.2707   -3.2863 H   0  0  0  0  0  0  0  0  0  0  0  0
    0.8879   -2.0423    1.0366 H   0  0  0  0  0  0  0  0  0  0  0  0
   -0.5134   -1.2733    0.2731 H   0  0  0  0  0  0  0  0  0  0  0  0
    0.5160   -4.0128   -0.2699 H   0  0  0  0  0  0  0  0  0  0  0  0
  1  8  1  0  0  0  0
  1 11  1  0  0  0  0
  2 10  2  0  0  0  0
  3  7  1  0  0  0  0
  3 10  1  0  0  0  0
  3 12  1  0  0  0  0
  4  7  1  0  0  0  0
  4 13  1  0  0  0  0
  4 14  1  0  0  0  0
  5  9  2  0  0  0  0
  5 10  1  0  0  0  0
  6  7  2  0  0  0  0
  6  8  1  0  0  0  0
  6  9  1  0  0  0  0
  8 15  1  0  0  0  0
  8 16  1  0  0  0  0
  9 17  1  0  0  0  0
M  END
>  <Mol_ID>
5830

>  <Formula>
C5H7N3O2

>  <MolWeight>
141.12798

>  <Cat>
E0027

>  <Name>
5-Hydroxymethylcytosine

>  <Synonyms>
5hmC

>  <Target>
Others

>  <Form>
Free Base

>  <CAS>
1123-95-1

>  <URL>
http://www.selleckchem.com/products/5-hydroxymethylcytosine.html

$$$$
