5-Hydroxyindole
 OpenBabel08302521363D

 17 18  0  0  0  0  0  0  0  0999 V2000
    3.1236   -0.5852   -0.0042 O   0  0  0  0  0  0  0  0  0  0  0  0
   -0.8056    0.6568   -0.0037 C   0  0  0  0  0  0  0  0  0  0  0  0
   -0.5170   -0.7088   -0.0146 C   0  0  0  0  0  0  0  0  0  0  0  0
    0.1939    1.6391   -0.0001 C   0  0  0  0  0  0  0  0  0  0  0  0
   -2.1772    0.7789    0.0037 N   0  0  0  0  0  0  0  0  0  0  0  0
    0.8286   -1.1202   -0.0190 C   0  0  0  0  0  0  0  0  0  0  0  0
   -1.7596   -1.4004   -0.0162 C   0  0  0  0  0  0  0  0  0  0  0  0
    1.5261    1.2091    0.0004 C   0  0  0  0  0  0  0  0  0  0  0  0
   -2.7630   -0.4593    0.0000 C   0  0  0  0  0  0  0  0  0  0  0  0
    1.8291   -0.1486   -0.0080 C   0  0  0  0  0  0  0  0  0  0  0  0
    3.7106    0.1878    0.0158 H   0  0  0  0  0  0  0  0  0  0  0  0
   -0.0499    2.6961    0.0053 H   0  0  0  0  0  0  0  0  0  0  0  0
   -2.6744    1.6582    0.0156 H   0  0  0  0  0  0  0  0  0  0  0  0
    1.0879   -2.1738   -0.0263 H   0  0  0  0  0  0  0  0  0  0  0  0
   -1.8981   -2.4734   -0.0239 H   0  0  0  0  0  0  0  0  0  0  0  0
    2.3150    1.9554    0.0081 H   0  0  0  0  0  0  0  0  0  0  0  0
   -3.8397   -0.5647    0.0097 H   0  0  0  0  0  0  0  0  0  0  0  0
  1 10  1  0  0  0  0
  1 11  1  0  0  0  0
  2  3  1  0  0  0  0
  2  4  2  0  0  0  0
  2  5  1  0  0  0  0
  3  6  2  0  0  0  0
  3  7  1  0  0  0  0
  4  8  1  0  0  0  0
  4 12  1  0  0  0  0
  5  9  1  0  0  0  0
  5 13  1  0  0  0  0
  6 10  1  0  0  0  0
  6 14  1  0  0  0  0
  7  9  2  0  0  0  0
  7 15  1  0  0  0  0
  8 10  2  0  0  0  0
  8 16  1  0  0  0  0
  9 17  1  0  0  0  0
M  END
>  <Mol_ID>
7083

>  <Formula>
C8H7NO

>  <MolWeight>
133.14728

>  <Cat>
E4098

>  <Name>
5-Hydroxyindole

>  <Synonyms>
5-Hydroxyindole

>  <Target>
5-HT Receptor

>  <Form>
Free base

>  <CAS>
1953-54-4

>  <URL>
https://www.selleckchem.com/products/5-hydroxyindole.html

$$$$
