5-hydroxy-7,8-dimethoxyflavone
 OpenBabel08302521463D

 36 38  0  0  0  0  0  0  0  0999 V2000
    1.1667   -0.0391    0.1632 O   0  0  0  0  0  0  0  0  0  0  0  0
    0.4229    0.9947    0.8013 C   0  0  0  0  0  0  0  0  0  0  0  0
    6.6016    2.6859    0.0892 O   0  0  0  0  0  0  0  0  0  0  0  0
    6.7120   -0.0189    0.0528 O   0  0  0  0  0  0  0  0  0  0  0  0
    2.4757   -2.3129    0.1158 O   0  0  0  0  0  0  0  0  0  0  0  0
    3.1563   -3.5619    0.0570 C   0  0  0  0  0  0  0  0  0  0  0  0
    3.2683    1.2657    0.1407 C   0  0  0  0  0  0  0  0  0  0  0  0
    4.6715    1.2572    0.1146 C   0  0  0  0  0  0  0  0  0  0  0  0
    2.5411    0.0592    0.1634 C   0  0  0  0  0  0  0  0  0  0  0  0
    2.5611    2.4413    0.1056 O   0  0  0  0  0  0  0  0  0  0  0  0
    5.3845    2.5607    0.1042 C   0  0  0  0  0  0  0  0  0  0  0  0
    5.3464    0.0315    0.0866 C   0  0  0  0  0  0  0  0  0  0  0  0
    3.2392   -1.1687    0.1174 C   0  0  0  0  0  0  0  0  0  0  0  0
    3.2245    3.6402    0.1151 C   0  0  0  0  0  0  0  0  0  0  0  0
    4.5526    3.7748    0.1143 C   0  0  0  0  0  0  0  0  0  0  0  0
    4.6376   -1.1705    0.0820 C   0  0  0  0  0  0  0  0  0  0  0  0
    2.3324    4.8014    0.1099 C   0  0  0  0  0  0  0  0  0  0  0  0
    1.8527    5.3137   -1.1013 C   0  0  0  0  0  0  0  0  0  0  0  0
    1.9245    5.3862    1.3138 C   0  0  0  0  0  0  0  0  0  0  0  0
    0.9857    6.4078   -1.1084 C   0  0  0  0  0  0  0  0  0  0  0  0
    1.0558    6.4802    1.3050 C   0  0  0  0  0  0  0  0  0  0  0  0
    0.5913    6.9929    0.0940 C   0  0  0  0  0  0  0  0  0  0  0  0
    0.8171    1.2211    1.7982 H   0  0  0  0  0  0  0  0  0  0  0  0
    0.3642    1.8910    0.1771 H   0  0  0  0  0  0  0  0  0  0  0  0
   -0.6069    0.6448    0.9195 H   0  0  0  0  0  0  0  0  0  0  0  0
    7.0193   -0.9365    0.0279 H   0  0  0  0  0  0  0  0  0  0  0  0
    3.7416   -3.6518   -0.8646 H   0  0  0  0  0  0  0  0  0  0  0  0
    3.7880   -3.7084    0.9399 H   0  0  0  0  0  0  0  0  0  0  0  0
    2.4066   -4.3588    0.0511 H   0  0  0  0  0  0  0  0  0  0  0  0
    5.0627    4.7294    0.1176 H   0  0  0  0  0  0  0  0  0  0  0  0
    5.1920   -2.1013    0.0493 H   0  0  0  0  0  0  0  0  0  0  0  0
    2.1432    4.8572   -2.0452 H   0  0  0  0  0  0  0  0  0  0  0  0
    2.2667    4.9870    2.2666 H   0  0  0  0  0  0  0  0  0  0  0  0
    0.6182    6.8032   -2.0519 H   0  0  0  0  0  0  0  0  0  0  0  0
    0.7403    6.9327    2.2421 H   0  0  0  0  0  0  0  0  0  0  0  0
   -0.0807    7.8472    0.0873 H   0  0  0  0  0  0  0  0  0  0  0  0
  1  2  1  0  0  0  0
  1  9  1  0  0  0  0
  2 23  1  0  0  0  0
  2 24  1  0  0  0  0
  2 25  1  0  0  0  0
  3 11  2  0  0  0  0
  4 12  1  0  0  0  0
  4 26  1  0  0  0  0
  5  6  1  0  0  0  0
  5 13  1  0  0  0  0
  6 27  1  0  0  0  0
  6 28  1  0  0  0  0
  6 29  1  0  0  0  0
  7  8  1  0  0  0  0
  7  9  2  0  0  0  0
  7 10  1  0  0  0  0
  8 11  1  0  0  0  0
  8 12  2  0  0  0  0
  9 13  1  0  0  0  0
 10 14  1  0  0  0  0
 11 15  1  0  0  0  0
 12 16  1  0  0  0  0
 13 16  2  0  0  0  0
 14 15  2  0  0  0  0
 14 17  1  0  0  0  0
 15 30  1  0  0  0  0
 16 31  1  0  0  0  0
 17 18  2  0  0  0  0
 17 19  1  0  0  0  0
 18 20  1  0  0  0  0
 18 32  1  0  0  0  0
 19 21  2  0  0  0  0
 19 33  1  0  0  0  0
 20 22  2  0  0  0  0
 20 34  1  0  0  0  0
 21 22  1  0  0  0  0
 21 35  1  0  0  0  0
 22 36  1  0  0  0  0
M  END
>  <Mol_ID>
9739

>  <Formula>
C17H14O5

>  <MolWeight>
298.29006

>  <Cat>
E2210

>  <Name>
5-hydroxy-7,8-dimethoxyflavone

>  <Synonyms>
Moslosooflavone

>  <Target>
Others

>  <Form>
free base

>  <CAS>
3570-62-5

>  <URL>
https://www.selleckchem.com/products/moslosooflavone.html

$$$$
