5-Hydroxymethyl-2-furancarboxylic acid
 OpenBabel08302520393D

 16 16  0  0  0  0  0  0  0  0999 V2000
   -0.1288    1.1819   -0.0134 C   0  0  0  0  0  0  0  0  0  0  0  0
   -1.0176    0.1331   -0.0336 O   0  0  0  0  0  0  0  0  0  0  0  0
    1.1621    0.6937    0.0165 C   0  0  0  0  0  0  0  0  0  0  0  0
   -0.6334    2.5344   -0.0255 C   0  0  0  0  0  0  0  0  0  0  0  0
   -0.2802   -1.0177   -0.0075 C   0  0  0  0  0  0  0  0  0  0  0  0
    1.0652   -0.7170    0.0170 C   0  0  0  0  0  0  0  0  0  0  0  0
   -1.9927    2.5524   -0.0428 O   0  0  0  0  0  0  0  0  0  0  0  0
    0.0395    3.5539   -0.0185 O   0  0  0  0  0  0  0  0  0  0  0  0
   -1.0260   -2.2979   -0.0171 C   0  0  0  0  0  0  0  0  0  0  0  0
   -1.1934   -2.6883   -1.3726 O   0  0  0  0  0  0  0  0  0  0  0  0
    2.0609    1.2965    0.0341 H   0  0  0  0  0  0  0  0  0  0  0  0
    1.8758   -1.4336    0.0312 H   0  0  0  0  0  0  0  0  0  0  0  0
   -2.3350    1.6347   -0.0382 H   0  0  0  0  0  0  0  0  0  0  0  0
   -0.4674   -3.0816    0.5030 H   0  0  0  0  0  0  0  0  0  0  0  0
   -2.0099   -2.2013    0.4510 H   0  0  0  0  0  0  0  0  0  0  0  0
   -1.6662   -1.9646   -1.8180 H   0  0  0  0  0  0  0  0  0  0  0  0
  1  2  1  0  0  0  0
  1  3  2  0  0  0  0
  1  4  1  0  0  0  0
  2  5  1  0  0  0  0
  3  6  1  0  0  0  0
  3 11  1  0  0  0  0
  4  7  1  0  0  0  0
  4  8  2  0  0  0  0
  5  9  1  0  0  0  0
  5  6  2  0  0  0  0
  6 12  1  0  0  0  0
  7 13  1  0  0  0  0
  9 10  1  0  0  0  0
  9 14  1  0  0  0  0
  9 15  1  0  0  0  0
 10 16  1  0  0  0  0
M  END
>  <Mol_ID>
3553

>  <Formula>
C6H6O4

>  <MolWeight>
142.10944

>  <Cat>
S6081

>  <Name>
5-Hydroxymethyl-2-furancarboxylic acid

>  <Synonyms>
N/A

>  <Target>
Others

>  <Form>
free base

>  <CAS>
6338-41-6

>  <URL>
http://www.selleck.cn/products/5-hydroxymethyl-2-furancarboxylic-acid.html

$$$$
