5-Iodotubercidin.cdx
 OpenBabel08302520433D

 33 35  0  0  0  0  0  0  0  0999 V2000
    3.8083   -0.0937    4.2145 N   0  0  0  0  0  0  0  0  0  0  0  0
    2.5787    0.2805    3.8097 C   0  0  0  0  0  0  0  0  0  0  0  0
    2.2317    0.8719    2.6548 N   0  0  0  0  0  0  0  0  0  0  0  0
    3.2958    1.0361    1.8502 C   0  0  0  0  0  0  0  0  0  0  0  0
    4.6102    0.6683    2.1222 C   0  0  0  0  0  0  0  0  0  0  0  0
    4.8494    0.1139    3.3885 C   0  0  0  0  0  0  0  0  0  0  0  0
    3.2780    1.6951    0.6456 N   0  0  0  0  0  0  0  0  0  0  0  0
    4.5064    1.5638    0.0426 C   0  0  0  0  0  0  0  0  0  0  0  0
    5.3555    1.0133    0.9693 C   0  0  0  0  0  0  0  0  0  0  0  0
    6.1088   -0.2217    3.8558 N   0  0  0  0  0  0  0  0  0  0  0  0
    1.6894    4.9060    0.1816 C   0  0  2  0  0  0  0  0  0  0  0  0
    1.8627    3.7341    1.1394 C   0  0  3  0  0  0  0  0  0  0  0  0
    2.1840    2.5508    0.1949 C   0  0  1  0  0  0  0  0  0  0  0  0
    2.5291    3.1021   -1.1016 O   0  0  0  0  0  0  0  0  0  0  0  0
    2.5756    4.5409   -1.0033 C   0  0  2  0  0  0  0  0  0  0  0  0
    2.8581    4.1296    2.1019 O   0  0  0  0  0  0  0  0  0  0  0  0
    2.0149    6.1420    0.7960 O   0  0  0  0  0  0  0  0  0  0  0  0
    4.0361    4.9965   -0.8928 C   0  0  0  0  0  0  0  0  0  0  0  0
    4.7686    4.6294   -2.0697 O   0  0  0  0  0  0  0  0  0  0  0  0
    7.3464    0.7816    0.6604 I   0  0  0  0  0  0  0  0  0  0  0  0
    1.7682    0.0865    4.5101 H   0  0  0  0  0  0  0  0  0  0  0  0
    4.6893    1.9264   -0.9581 H   0  0  0  0  0  0  0  0  0  0  0  0
    6.8170   -0.4012    3.1628 H   0  0  0  0  0  0  0  0  0  0  0  0
    6.0649   -0.8414    4.6542 H   0  0  0  0  0  0  0  0  0  0  0  0
    0.6478    4.9494   -0.1535 H   0  0  0  0  0  0  0  0  0  0  0  0
    0.9441    3.5478    1.7027 H   0  0  0  0  0  0  0  0  0  0  0  0
    1.3080    1.9094    0.0438 H   0  0  0  0  0  0  0  0  0  0  0  0
    2.1599    4.9407   -1.9357 H   0  0  0  0  0  0  0  0  0  0  0  0
    3.7157    3.7199    1.8947 H   0  0  0  0  0  0  0  0  0  0  0  0
    2.3665    5.9266    1.6841 H   0  0  0  0  0  0  0  0  0  0  0  0
    4.1060    6.0783   -0.7915 H   0  0  0  0  0  0  0  0  0  0  0  0
    4.5491    4.5319   -0.0443 H   0  0  0  0  0  0  0  0  0  0  0  0
    4.6451    3.6723   -2.1938 H   0  0  0  0  0  0  0  0  0  0  0  0
  1  2  2  0  0  0  0
  1  6  1  0  0  0  0
  2  3  1  0  0  0  0
  2 21  1  0  0  0  0
  3  4  2  0  0  0  0
  4  5  1  0  0  0  0
  4  7  1  0  0  0  0
  5  6  2  0  0  0  0
  5  9  1  0  0  0  0
  6 10  1  0  0  0  0
  7  8  1  0  0  0  0
  8  9  2  0  0  0  0
  8 22  1  0  0  0  0
  9 20  1  0  0  0  0
 10 23  1  0  0  0  0
 10 24  1  0  0  0  0
 11 12  1  0  0  0  0
 11 25  1  6  0  0  0
 11 17  1  0  0  0  0
 12 16  1  0  0  0  0
 12 26  1  0  0  0  0
 13 12  1  0  0  0  0
 13 14  1  0  0  0  0
 13 27  1  6  0  0  0
 13  7  1  0  0  0  0
 14 15  1  0  0  0  0
 15 11  1  0  0  0  0
 15 28  1  6  0  0  0
 15 18  1  0  0  0  0
 16 29  1  0  0  0  0
 17 30  1  0  0  0  0
 18 19  1  0  0  0  0
 18 31  1  0  0  0  0
 18 32  1  0  0  0  0
 19 33  1  0  0  0  0
M  END
>  <Mol_ID>
4046

>  <Formula>
C11H13IN4O4

>  <MolWeight>
392.14979

>  <Cat>
S8314

>  <Name>
5-Iodotubercidin

>  <Synonyms>
NSC 113939, 5-ITu

>  <Target>
Adenosine Kinase

>  <Form>
free base

>  <CAS>
24386-93-4

>  <URL>
http://selleckchem.com/products/5-iodotubercidin.html

$$$$
