5-Methoxytryptamine
 OpenBabel08302520393D

 28 29  0  0  0  0  0  0  0  0999 V2000
   -0.8273    0.7933   -1.8304 C   0  0  0  0  0  0  0  0  0  0  0  0
    0.4764    0.1422   -1.3544 C   0  0  0  0  0  0  0  0  0  0  0  0
   -1.1651    1.9889   -1.0524 N   0  0  0  0  0  0  0  0  0  0  0  0
    1.7797   -2.3953   -3.6862 N   0  0  0  0  0  0  0  0  0  0  0  0
    1.6551   -1.0948   -3.2759 C   0  0  0  0  0  0  0  0  0  0  0  0
    0.8485   -1.0669   -2.1549 C   0  0  0  0  0  0  0  0  0  0  0  0
    0.4626   -2.4205   -1.8911 C   0  0  0  0  0  0  0  0  0  0  0  0
   -0.3375   -3.0399   -0.9091 C   0  0  0  0  0  0  0  0  0  0  0  0
   -0.4851   -4.4328   -0.8930 C   0  0  0  0  0  0  0  0  0  0  0  0
    0.1463   -5.2090   -1.8624 C   0  0  0  0  0  0  0  0  0  0  0  0
    0.9348   -4.6200   -2.8630 C   0  0  0  0  0  0  0  0  0  0  0  0
    1.0744   -3.2276   -2.8487 C   0  0  0  0  0  0  0  0  0  0  0  0
   -1.2703   -4.9001    0.1277 O   0  0  0  0  0  0  0  0  0  0  0  0
   -1.3961   -6.3095    0.2539 C   0  0  0  0  0  0  0  0  0  0  0  0
   -1.6566    0.0808   -1.7539 H   0  0  0  0  0  0  0  0  0  0  0  0
   -0.7481    1.0755   -2.8865 H   0  0  0  0  0  0  0  0  0  0  0  0
    1.2953    0.8718   -1.4069 H   0  0  0  0  0  0  0  0  0  0  0  0
    0.3843   -0.1386   -0.2973 H   0  0  0  0  0  0  0  0  0  0  0  0
   -1.1864    1.7543   -0.0605 H   0  0  0  0  0  0  0  0  0  0  0  0
   -0.4284    2.6848   -1.1619 H   0  0  0  0  0  0  0  0  0  0  0  0
    2.3220   -2.7064   -4.4794 H   0  0  0  0  0  0  0  0  0  0  0  0
    2.1588   -0.3001   -3.8101 H   0  0  0  0  0  0  0  0  0  0  0  0
   -0.8358   -2.4388   -0.1538 H   0  0  0  0  0  0  0  0  0  0  0  0
    0.0489   -6.2898   -1.8752 H   0  0  0  0  0  0  0  0  0  0  0  0
    1.4240   -5.2313   -3.6142 H   0  0  0  0  0  0  0  0  0  0  0  0
   -1.9365   -6.7321   -0.5996 H   0  0  0  0  0  0  0  0  0  0  0  0
   -0.4195   -6.7885    0.3815 H   0  0  0  0  0  0  0  0  0  0  0  0
   -1.9831   -6.5116    1.1550 H   0  0  0  0  0  0  0  0  0  0  0  0
  1  2  1  0  0  0  0
  1  3  1  0  0  0  0
  1 15  1  0  0  0  0
  1 16  1  0  0  0  0
  2  6  1  0  0  0  0
  2 17  1  0  0  0  0
  2 18  1  0  0  0  0
  3 19  1  0  0  0  0
  3 20  1  0  0  0  0
  4  5  1  0  0  0  0
  4 12  1  0  0  0  0
  4 21  1  0  0  0  0
  5  6  2  0  0  0  0
  5 22  1  0  0  0  0
  6  7  1  0  0  0  0
  7  8  1  0  0  0  0
  7 12  2  0  0  0  0
  8  9  2  0  0  0  0
  8 23  1  0  0  0  0
  9 10  1  0  0  0  0
  9 13  1  0  0  0  0
 10 11  2  0  0  0  0
 10 24  1  0  0  0  0
 11 12  1  0  0  0  0
 11 25  1  0  0  0  0
 13 14  1  0  0  0  0
 14 26  1  0  0  0  0
 14 27  1  0  0  0  0
 14 28  1  0  0  0  0
M  END
>  <Mol_ID>
3662

>  <Formula>
C11H14N2O

>  <MolWeight>
190.24166

>  <Cat>
S6324

>  <Name>
5-Methoxytryptamine

>  <Synonyms>
Mexamine, Methoxytryptamine

>  <Target>
5-HT Receptor

>  <Form>
free base

>  <CAS>
608-07-1

>  <URL>
http://www.selleck.cn/products/5-methoxytryptamine.html

$$$$
