5-Methylcytosine
 OpenBabel08302521383D

 16 16  0  0  0  0  0  0  0  0999 V2000
   -1.4691   -0.0934   -0.0010 C   0  0  0  0  0  0  0  0  0  0  0  0
   -0.7636   -1.2358   -0.0545 C   0  0  0  0  0  0  0  0  0  0  0  0
   -0.7800    1.0794    0.0652 N   0  0  0  0  0  0  0  0  0  0  0  0
   -2.8393   -0.0272   -0.0120 N   0  0  0  0  0  0  0  0  0  0  0  0
    0.7063   -1.0550   -0.0220 C   0  0  0  0  0  0  0  0  0  0  0  0
   -1.2618   -2.6396   -0.1352 C   0  0  0  0  0  0  0  0  0  0  0  0
    0.5853    1.2084    0.0786 C   0  0  0  0  0  0  0  0  0  0  0  0
    1.3382    0.0666    0.0325 N   0  0  0  0  0  0  0  0  0  0  0  0
    1.0783    2.3311    0.1295 O   0  0  0  0  0  0  0  0  0  0  0  0
   -1.2782    1.9522    0.1425 H   0  0  0  0  0  0  0  0  0  0  0  0
   -3.3015   -0.8485   -0.3888 H   0  0  0  0  0  0  0  0  0  0  0  0
   -3.1928    0.8279   -0.4304 H   0  0  0  0  0  0  0  0  0  0  0  0
    1.2987   -1.9847   -0.0491 H   0  0  0  0  0  0  0  0  0  0  0  0
   -0.8473   -3.1378   -1.0181 H   0  0  0  0  0  0  0  0  0  0  0  0
   -0.9550   -3.2029    0.7522 H   0  0  0  0  0  0  0  0  0  0  0  0
   -2.3505   -2.7034   -0.2062 H   0  0  0  0  0  0  0  0  0  0  0  0
  1  2  2  0  0  0  0
  1  3  1  0  0  0  0
  1  4  1  0  0  0  0
  2  5  1  0  0  0  0
  2  6  1  0  0  0  0
  3  7  1  0  0  0  0
  3 10  1  0  0  0  0
  4 11  1  0  0  0  0
  4 12  1  0  0  0  0
  5  8  2  0  0  0  0
  5 13  1  0  0  0  0
  6 14  1  0  0  0  0
  6 15  1  0  0  0  0
  6 16  1  0  0  0  0
  7  9  2  0  0  0  0
  7  8  1  0  0  0  0
M  END
>  <Mol_ID>
7889

>  <Formula>
C5H7N3O

>  <MolWeight>
125.12858

>  <Cat>
S6021

>  <Name>
5-Methylcytosine

>  <Synonyms>
N/A

>  <Target>
Others

>  <Form>
free base

>  <CAS>
554-01-8

>  <URL>
http://www.selleck.cn/products/5-methylcytosine.html

$$$$
