5-Methyl-2-furanmethanol
 OpenBabel08302521363D

 16 16  0  0  0  0  0  0  0  0999 V2000
    2.1591   -0.0130    0.0038 C   0  0  0  0  0  0  0  0  0  0  0  0
    2.5259    0.6654    1.1987 O   0  0  0  0  0  0  0  0  0  0  0  0
   -2.3431    1.7304    0.0180 C   0  0  0  0  0  0  0  0  0  0  0  0
    0.6862   -0.1637   -0.0017 C   0  0  0  0  0  0  0  0  0  0  0  0
   -0.0444    0.9905    0.0144 O   0  0  0  0  0  0  0  0  0  0  0  0
   -0.1558   -1.2550   -0.0187 C   0  0  0  0  0  0  0  0  0  0  0  0
   -1.3590    0.6304    0.0037 C   0  0  0  0  0  0  0  0  0  0  0  0
   -1.4748   -0.7426   -0.0177 C   0  0  0  0  0  0  0  0  0  0  0  0
    2.6613   -0.9841   -0.0103 H   0  0  0  0  0  0  0  0  0  0  0  0
    2.4995    0.5731   -0.8549 H   0  0  0  0  0  0  0  0  0  0  0  0
    1.9174    1.4247    1.2671 H   0  0  0  0  0  0  0  0  0  0  0  0
   -2.2107    2.3524    0.9083 H   0  0  0  0  0  0  0  0  0  0  0  0
   -2.2257    2.3621   -0.8678 H   0  0  0  0  0  0  0  0  0  0  0  0
   -3.3659    1.3405    0.0246 H   0  0  0  0  0  0  0  0  0  0  0  0
    0.1476   -2.2923   -0.0279 H   0  0  0  0  0  0  0  0  0  0  0  0
   -2.3985   -1.3044   -0.0282 H   0  0  0  0  0  0  0  0  0  0  0  0
  1  2  1  0  0  0  0
  1  4  1  0  0  0  0
  1  9  1  0  0  0  0
  1 10  1  0  0  0  0
  2 11  1  0  0  0  0
  3  7  1  0  0  0  0
  3 12  1  0  0  0  0
  3 13  1  0  0  0  0
  3 14  1  0  0  0  0
  4  5  1  0  0  0  0
  4  6  2  0  0  0  0
  5  7  1  0  0  0  0
  6  8  1  0  0  0  0
  6 15  1  0  0  0  0
  7  8  2  0  0  0  0
  8 16  1  0  0  0  0
M  END
>  <Mol_ID>
7244

>  <Formula>
C6H8O2

>  <MolWeight>
112.12652

>  <Cat>
E4253

>  <Name>
5-Methyl-2-furanmethanol

>  <Synonyms>
5-Methylfurfuryl alcohol

>  <Target>
Others

>  <Form>
Free base

>  <CAS>
3857-25-8

>  <URL>
https://www.selleckchem.com/products/5-methyl-2-furanmethanol.html

$$$$
