5-Methoxyindole-3-acetic acid
 OpenBabel08302521363D

 26 27  0  0  0  0  0  0  0  0999 V2000
    0.9437   -0.0930    0.0560 C   0  0  0  0  0  0  0  0  0  0  0  0
    1.5419   -0.7438   -1.1753 C   0  0  0  0  0  0  0  0  0  0  0  0
    1.5994   -0.0001   -2.3013 O   0  0  0  0  0  0  0  0  0  0  0  0
    1.9520   -1.8995   -1.1636 O   0  0  0  0  0  0  0  0  0  0  0  0
    4.4101    4.1530    0.9203 O   0  0  0  0  0  0  0  0  0  0  0  0
    4.9535    5.4621    1.0399 C   0  0  0  0  0  0  0  0  0  0  0  0
    1.2742    2.5045    0.0909 C   0  0  0  0  0  0  0  0  0  0  0  0
    0.4507    3.6019   -0.1572 C   0  0  0  0  0  0  0  0  0  0  0  0
    0.4893    1.3240   -0.1114 C   0  0  0  0  0  0  0  0  0  0  0  0
    2.6146    2.7439    0.4597 C   0  0  0  0  0  0  0  0  0  0  0  0
   -0.7865    3.1122   -0.5053 N   0  0  0  0  0  0  0  0  0  0  0  0
    0.8961    4.9211   -0.0391 C   0  0  0  0  0  0  0  0  0  0  0  0
   -0.7702    1.7430   -0.4984 C   0  0  0  0  0  0  0  0  0  0  0  0
    3.0895    4.0583    0.5702 C   0  0  0  0  0  0  0  0  0  0  0  0
    2.2322    5.1306    0.3277 C   0  0  0  0  0  0  0  0  0  0  0  0
    1.6977   -0.1399    0.8515 H   0  0  0  0  0  0  0  0  0  0  0  0
    0.0900   -0.7071    0.3656 H   0  0  0  0  0  0  0  0  0  0  0  0
    1.2605    0.9109   -2.2016 H   0  0  0  0  0  0  0  0  0  0  0  0
    4.8878    6.0077    0.0927 H   0  0  0  0  0  0  0  0  0  0  0  0
    4.4675    6.0152    1.8502 H   0  0  0  0  0  0  0  0  0  0  0  0
    6.0136    5.3632    1.2922 H   0  0  0  0  0  0  0  0  0  0  0  0
    3.2885    1.9154    0.6577 H   0  0  0  0  0  0  0  0  0  0  0  0
   -1.5868    3.6872   -0.7336 H   0  0  0  0  0  0  0  0  0  0  0  0
    0.2361    5.7630   -0.2235 H   0  0  0  0  0  0  0  0  0  0  0  0
   -1.6617    1.1843   -0.7550 H   0  0  0  0  0  0  0  0  0  0  0  0
    2.5714    6.1578    0.4143 H   0  0  0  0  0  0  0  0  0  0  0  0
  1  2  1  0  0  0  0
  1  9  1  0  0  0  0
  1 16  1  0  0  0  0
  1 17  1  0  0  0  0
  2  3  1  0  0  0  0
  2  4  2  0  0  0  0
  3 18  1  0  0  0  0
  5  6  1  0  0  0  0
  5 14  1  0  0  0  0
  6 19  1  0  0  0  0
  6 20  1  0  0  0  0
  6 21  1  0  0  0  0
  7  8  2  0  0  0  0
  7  9  1  0  0  0  0
  7 10  1  0  0  0  0
  8 11  1  0  0  0  0
  8 12  1  0  0  0  0
  9 13  2  0  0  0  0
 10 14  2  0  0  0  0
 10 22  1  0  0  0  0
 11 13  1  0  0  0  0
 11 23  1  0  0  0  0
 12 15  2  0  0  0  0
 12 24  1  0  0  0  0
 13 25  1  0  0  0  0
 14 15  1  0  0  0  0
 15 26  1  0  0  0  0
M  END
>  <Mol_ID>
7158

>  <Formula>
C11H11NO3

>  <MolWeight>
205.20994

>  <Cat>
E4149

>  <Name>
5-Methoxyindole-3-acetic acid

>  <Synonyms>
5-Methoxyindole-3-acetic acid

>  <Target>
Endogenous Metabolite

>  <Form>
free base

>  <CAS>
3471-31-6

>  <URL>
https://www.selleckchem.com/products/5-methoxyindole-3-acetic-acid.html

$$$$
