5-Methyl-2-thiophenecarboxaldehyde
 OpenBabel08302521363D

 14 14  0  0  0  0  0  0  0  0999 V2000
    2.2625   -0.1054    0.0055 C   0  0  0  0  0  0  0  0  0  0  0  0
    3.0748   -1.0282   -0.0033 O   0  0  0  0  0  0  0  0  0  0  0  0
   -2.9463    0.7803    0.0365 C   0  0  0  0  0  0  0  0  0  0  0  0
    0.8279   -0.2739    0.0063 C   0  0  0  0  0  0  0  0  0  0  0  0
   -0.1894    1.0971    0.0212 S   0  0  0  0  0  0  0  0  0  0  0  0
    0.1047   -1.4482   -0.0030 C   0  0  0  0  0  0  0  0  0  0  0  0
   -1.6041    0.1326    0.0204 C   0  0  0  0  0  0  0  0  0  0  0  0
   -1.3006   -1.2134    0.0044 C   0  0  0  0  0  0  0  0  0  0  0  0
    2.6289    0.9363    0.0137 H   0  0  0  0  0  0  0  0  0  0  0  0
   -3.0672    1.4013    0.9303 H   0  0  0  0  0  0  0  0  0  0  0  0
   -3.0851    1.4095   -0.8488 H   0  0  0  0  0  0  0  0  0  0  0  0
   -3.7425    0.0285    0.0414 H   0  0  0  0  0  0  0  0  0  0  0  0
    0.5668   -2.4297   -0.0136 H   0  0  0  0  0  0  0  0  0  0  0  0
   -2.0503   -1.9962    0.0004 H   0  0  0  0  0  0  0  0  0  0  0  0
  1  2  2  0  0  0  0
  1  4  1  0  0  0  0
  1  9  1  0  0  0  0
  3  7  1  0  0  0  0
  3 10  1  0  0  0  0
  3 11  1  0  0  0  0
  3 12  1  0  0  0  0
  4  5  1  0  0  0  0
  4  6  2  0  0  0  0
  5  7  1  0  0  0  0
  6  8  1  0  0  0  0
  6 13  1  0  0  0  0
  7  8  2  0  0  0  0
  8 14  1  0  0  0  0
M  END
>  <Mol_ID>
7056

>  <Formula>
C6H6OS

>  <MolWeight>
126.17624

>  <Cat>
E4068

>  <Name>
5-Methyl-2-thiophenecarboxaldehyde

>  <Synonyms>
5-Methyl-2-thiophenecarboxaldehyde

>  <Target>
Others

>  <Form>
Free base

>  <CAS>
13679-70-4

>  <URL>
https://www.selleckchem.com/products/5-methyl-2-thiophenecarboxaldehyde.html

$$$$
