5-Methyl-2'-deoxycytidine
 OpenBabel08302520143D

 32 33  0  0  0  0  0  0  0  0999 V2000
    1.2143   -0.8718   -0.2668 C   0  0  2  0  0  0  0  0  0  0  0  0
    2.4487   -1.4556    0.2571 N   0  0  0  0  0  0  0  0  0  0  0  0
    1.2969    0.5724   -0.2944 O   0  0  0  0  0  0  0  0  0  0  0  0
   -0.0394   -1.2338    0.5293 C   0  0  0  0  0  0  0  0  0  0  0  0
    2.5563   -2.8486    0.2464 C   0  0  0  0  0  0  0  0  0  0  0  0
    3.5125   -0.6720    0.6418 C   0  0  0  0  0  0  0  0  0  0  0  0
    0.1508    1.1339    0.3858 C   0  0  1  0  0  0  0  0  0  0  0  0
   -0.8808    0.0177    0.4567 C   0  0  1  0  0  0  0  0  0  0  0  0
    3.7208   -3.4208    0.6984 N   0  0  0  0  0  0  0  0  0  0  0  0
    1.6284   -3.5516   -0.1500 O   0  0  0  0  0  0  0  0  0  0  0  0
    4.6691   -1.1930    1.0646 C   0  0  0  0  0  0  0  0  0  0  0  0
    0.5812    1.6215    1.7737 C   0  0  0  0  0  0  0  0  0  0  0  0
   -1.6851   -0.0122   -0.7231 O   0  0  0  0  0  0  0  0  0  0  0  0
    4.7180   -2.6759    1.0757 C   0  0  0  0  0  0  0  0  0  0  0  0
    5.8237   -0.3383    1.4662 C   0  0  0  0  0  0  0  0  0  0  0  0
    1.5668    2.6471    1.6623 O   0  0  0  0  0  0  0  0  0  0  0  0
    5.8293   -3.3573    1.4901 N   0  0  0  0  0  0  0  0  0  0  0  0
    1.1052   -1.2009   -1.3085 H   0  0  0  0  0  0  0  0  0  0  0  0
    0.2179   -1.4562    1.5715 H   0  0  0  0  0  0  0  0  0  0  0  0
   -0.5437   -2.1099    0.1088 H   0  0  0  0  0  0  0  0  0  0  0  0
    3.3967    0.4026    0.5768 H   0  0  0  0  0  0  0  0  0  0  0  0
   -0.1877    1.9809   -0.2185 H   0  0  0  0  0  0  0  0  0  0  0  0
   -1.5628    0.1144    1.3067 H   0  0  0  0  0  0  0  0  0  0  0  0
   -0.2732    2.0394    2.3157 H   0  0  0  0  0  0  0  0  0  0  0  0
    1.0183    0.8166    2.3719 H   0  0  0  0  0  0  0  0  0  0  0  0
   -1.1203    0.1522   -1.4995 H   0  0  0  0  0  0  0  0  0  0  0  0
    6.1877    0.2358    0.6079 H   0  0  0  0  0  0  0  0  0  0  0  0
    5.5206    0.3660    2.2486 H   0  0  0  0  0  0  0  0  0  0  0  0
    6.6691   -0.9088    1.8577 H   0  0  0  0  0  0  0  0  0  0  0  0
    2.2550    2.3059    1.0635 H   0  0  0  0  0  0  0  0  0  0  0  0
    6.3738   -2.9542    2.2409 H   0  0  0  0  0  0  0  0  0  0  0  0
    5.6353   -4.3443    1.6321 H   0  0  0  0  0  0  0  0  0  0  0  0
  1  3  1  0  0  0  0
  1  4  1  0  0  0  0
  1 18  1  6  0  0  0
  1  2  1  0  0  0  0
  2  5  1  0  0  0  0
  2  6  1  0  0  0  0
  3  7  1  0  0  0  0
  4  8  1  0  0  0  0
  4 19  1  0  0  0  0
  4 20  1  0  0  0  0
  5  9  1  0  0  0  0
  5 10  2  0  0  0  0
  6 11  2  0  0  0  0
  6 21  1  0  0  0  0
  7  8  1  0  0  0  0
  7 22  1  6  0  0  0
  7 12  1  0  0  0  0
  8 13  1  0  0  0  0
  8 23  1  1  0  0  0
  9 14  2  0  0  0  0
 11 15  1  0  0  0  0
 11 14  1  0  0  0  0
 12 16  1  0  0  0  0
 12 24  1  0  0  0  0
 12 25  1  0  0  0  0
 13 26  1  0  0  0  0
 14 17  1  0  0  0  0
 15 27  1  0  0  0  0
 15 28  1  0  0  0  0
 15 29  1  0  0  0  0
 16 30  1  0  0  0  0
 17 31  1  0  0  0  0
 17 32  1  0  0  0  0
M  END
>  <Mol_ID>
3174

>  <Formula>
C10H15N3O4

>  <MolWeight>
241.2438

>  <Cat>
S5907

>  <Name>
5-Methyl-2'-deoxycytidine

>  <Synonyms>
5-Methyldeoxycytidine, 5MedCyd

>  <Target>
Others

>  <Form>
Free Base

>  <CAS>
838-07-3

>  <URL>
http://www.selleckchem.com/products/5-methyl-2-deoxycytidine.html

$$$$
