5-Methylcytidine
 OpenBabel08302520393D

 33 34  0  0  0  0  0  0  0  0999 V2000
    0.4500    1.3001    0.3040 C   0  0  1  0  0  0  0  0  0  0  0  0
    0.7417    2.6428   -0.1834 N   0  0  0  0  0  0  0  0  0  0  0  0
   -0.6184    0.5954   -0.5538 C   0  0  1  0  0  0  0  0  0  0  0  0
    1.6368    0.4690    0.2575 O   0  0  0  0  0  0  0  0  0  0  0  0
   -0.0571    3.6801    0.3031 C   0  0  0  0  0  0  0  0  0  0  0  0
    1.6295    2.8482   -1.2134 C   0  0  0  0  0  0  0  0  0  0  0  0
   -0.2277   -0.8640   -0.4060 C   0  0  1  0  0  0  0  0  0  0  0  0
   -1.9596    0.8270   -0.1465 O   0  0  0  0  0  0  0  0  0  0  0  0
    1.2941   -0.8004   -0.3583 C   0  0  1  0  0  0  0  0  0  0  0  0
    0.0365    4.9085   -0.3111 N   0  0  0  0  0  0  0  0  0  0  0  0
   -0.8277    3.5074    1.2429 O   0  0  0  0  0  0  0  0  0  0  0  0
    1.7573    4.0301   -1.8199 C   0  0  0  0  0  0  0  0  0  0  0  0
   -0.7745   -1.3664    0.8254 O   0  0  0  0  0  0  0  0  0  0  0  0
    1.9446   -0.8469   -1.7444 C   0  0  0  0  0  0  0  0  0  0  0  0
    0.8545    5.0896   -1.3034 C   0  0  0  0  0  0  0  0  0  0  0  0
    2.7114    4.2461   -2.9459 C   0  0  0  0  0  0  0  0  0  0  0  0
    3.3614   -0.7297   -1.6203 O   0  0  0  0  0  0  0  0  0  0  0  0
    0.8166    6.3366   -1.8682 N   0  0  0  0  0  0  0  0  0  0  0  0
    0.1349    1.3483    1.3534 H   0  0  0  0  0  0  0  0  0  0  0  0
   -0.5298    0.9022   -1.6025 H   0  0  0  0  0  0  0  0  0  0  0  0
    2.2361    2.0074   -1.5266 H   0  0  0  0  0  0  0  0  0  0  0  0
   -0.6201   -1.4911   -1.2123 H   0  0  0  0  0  0  0  0  0  0  0  0
   -2.1277    0.2428    0.6197 H   0  0  0  0  0  0  0  0  0  0  0  0
    1.7225   -1.5830    0.2771 H   0  0  0  0  0  0  0  0  0  0  0  0
   -0.1592   -1.1687    1.5553 H   0  0  0  0  0  0  0  0  0  0  0  0
    1.7236   -1.7897   -2.2523 H   0  0  0  0  0  0  0  0  0  0  0  0
    1.6084   -0.0249   -2.3821 H   0  0  0  0  0  0  0  0  0  0  0  0
    3.7429    4.2106   -2.5811 H   0  0  0  0  0  0  0  0  0  0  0  0
    2.5879    3.4644   -3.7046 H   0  0  0  0  0  0  0  0  0  0  0  0
    2.5708    5.2039   -3.4506 H   0  0  0  0  0  0  0  0  0  0  0  0
    3.5326   -0.0570   -0.9328 H   0  0  0  0  0  0  0  0  0  0  0  0
    0.9301    6.3854   -2.8722 H   0  0  0  0  0  0  0  0  0  0  0  0
   -0.0006    6.8528   -1.5528 H   0  0  0  0  0  0  0  0  0  0  0  0
  1  3  1  0  0  0  0
  1  4  1  0  0  0  0
  1 19  1  1  0  0  0
  1  2  1  0  0  0  0
  2  5  1  0  0  0  0
  2  6  1  0  0  0  0
  3  7  1  0  0  0  0
  3  8  1  0  0  0  0
  3 20  1  6  0  0  0
  4  9  1  0  0  0  0
  5 10  1  0  0  0  0
  5 11  2  0  0  0  0
  6 12  2  0  0  0  0
  6 21  1  0  0  0  0
  7 13  1  0  0  0  0
  7  9  1  0  0  0  0
  7 22  1  6  0  0  0
  8 23  1  0  0  0  0
  9 24  1  1  0  0  0
  9 14  1  0  0  0  0
 10 15  2  0  0  0  0
 12 16  1  0  0  0  0
 12 15  1  0  0  0  0
 13 25  1  0  0  0  0
 14 17  1  0  0  0  0
 14 26  1  0  0  0  0
 14 27  1  0  0  0  0
 15 18  1  0  0  0  0
 16 28  1  0  0  0  0
 16 29  1  0  0  0  0
 16 30  1  0  0  0  0
 17 31  1  0  0  0  0
 18 32  1  0  0  0  0
 18 33  1  0  0  0  0
M  END
>  <Mol_ID>
3584

>  <Formula>
C10H15N3O5

>  <MolWeight>
257.2432

>  <Cat>
S6138

>  <Name>
5-Methylcytidine

>  <Synonyms>
N/A

>  <Target>
Nucleoside Analog/Antimetabolite

>  <Form>
free base

>  <CAS>
2140-61-6

>  <URL>
http://www.selleck.cn/products/5-methylcytidine.html

$$$$
