5-Methyluridine
 OpenBabel08302520393D

 32 33  0  0  0  0  0  0  0  0999 V2000
    0.4846    1.2490    0.4169 C   0  0  1  0  0  0  0  0  0  0  0  0
    0.8151    2.6592    0.2175 N   0  0  0  0  0  0  0  0  0  0  0  0
   -0.5507    0.6595   -0.5567 C   0  0  1  0  0  0  0  0  0  0  0  0
    1.6726    0.4246    0.2969 O   0  0  0  0  0  0  0  0  0  0  0  0
   -0.0349    3.5936    0.8016 C   0  0  0  0  0  0  0  0  0  0  0  0
    1.9996    3.0467   -0.3817 C   0  0  0  0  0  0  0  0  0  0  0  0
   -0.1963   -0.8204   -0.4851 C   0  0  1  0  0  0  0  0  0  0  0  0
   -1.9116    0.8681   -0.1950 O   0  0  0  0  0  0  0  0  0  0  0  0
    1.3237   -0.7953   -0.4062 C   0  0  1  0  0  0  0  0  0  0  0  0
    0.3485    4.9034    0.6747 N   0  0  0  0  0  0  0  0  0  0  0  0
   -1.0371    3.3077    1.4517 O   0  0  0  0  0  0  0  0  0  0  0  0
    2.4494    4.3075   -0.3370 C   0  0  0  0  0  0  0  0  0  0  0  0
   -0.7706   -1.3730    0.7158 O   0  0  0  0  0  0  0  0  0  0  0  0
    1.9888   -0.7722   -1.7853 C   0  0  0  0  0  0  0  0  0  0  0  0
    1.5966    5.3225    0.3225 C   0  0  0  0  0  0  0  0  0  0  0  0
    3.7850    4.7449   -0.8393 C   0  0  0  0  0  0  0  0  0  0  0  0
    3.4062   -0.7092   -1.6427 O   0  0  0  0  0  0  0  0  0  0  0  0
    1.9949    6.4603    0.5476 O   0  0  0  0  0  0  0  0  0  0  0  0
    0.1292    1.1371    1.4490 H   0  0  0  0  0  0  0  0  0  0  0  0
   -0.3973    1.0485   -1.5692 H   0  0  0  0  0  0  0  0  0  0  0  0
    2.6040    2.2683   -0.8362 H   0  0  0  0  0  0  0  0  0  0  0  0
   -0.5922   -1.4004   -1.3232 H   0  0  0  0  0  0  0  0  0  0  0  0
   -2.1242    0.2134    0.5009 H   0  0  0  0  0  0  0  0  0  0  0  0
    1.7266   -1.6222    0.1884 H   0  0  0  0  0  0  0  0  0  0  0  0
   -0.2224    5.5718    1.1696 H   0  0  0  0  0  0  0  0  0  0  0  0
   -0.1534   -1.2411    1.4600 H   0  0  0  0  0  0  0  0  0  0  0  0
    1.7455   -1.6784   -2.3483 H   0  0  0  0  0  0  0  0  0  0  0  0
    1.6842    0.0992   -2.3719 H   0  0  0  0  0  0  0  0  0  0  0  0
    3.6901    5.5953   -1.5211 H   0  0  0  0  0  0  0  0  0  0  0  0
    4.4216    5.0424    0.0015 H   0  0  0  0  0  0  0  0  0  0  0  0
    4.3004    3.9413   -1.3755 H   0  0  0  0  0  0  0  0  0  0  0  0
    3.5921   -0.0286   -0.9691 H   0  0  0  0  0  0  0  0  0  0  0  0
  1  3  1  0  0  0  0
  1  4  1  0  0  0  0
  1 19  1  1  0  0  0
  1  2  1  0  0  0  0
  2  5  1  0  0  0  0
  2  6  1  0  0  0  0
  3  7  1  0  0  0  0
  3  8  1  0  0  0  0
  3 20  1  6  0  0  0
  4  9  1  0  0  0  0
  5 10  1  0  0  0  0
  5 11  2  0  0  0  0
  6 12  2  0  0  0  0
  6 21  1  0  0  0  0
  7 13  1  0  0  0  0
  7  9  1  0  0  0  0
  7 22  1  6  0  0  0
  8 23  1  0  0  0  0
  9 24  1  1  0  0  0
  9 14  1  0  0  0  0
 10 15  1  0  0  0  0
 10 25  1  0  0  0  0
 12 16  1  0  0  0  0
 12 15  1  0  0  0  0
 13 26  1  0  0  0  0
 14 17  1  0  0  0  0
 14 27  1  0  0  0  0
 14 28  1  0  0  0  0
 15 18  2  0  0  0  0
 16 29  1  0  0  0  0
 16 30  1  0  0  0  0
 16 31  1  0  0  0  0
 17 32  1  0  0  0  0
M  END
>  <Mol_ID>
3595

>  <Formula>
C10H14N2O6

>  <MolWeight>
258.22796

>  <Cat>
S6156

>  <Name>
5-Methyluridine

>  <Synonyms>
Ribothymidine, Ribosylthymine, Thymine riboside

>  <Target>
Others

>  <Form>
free base

>  <CAS>
1463-10-1

>  <URL>
http://www.selleck.cn/products/5-methyluridine.html

$$$$
