5-(N-Ethyl-N-isopropyl)-Amiloride (EIPA)
 OpenBabel08302521323D

 38 38  0  0  0  0  0  0  0  0999 V2000
   -0.3345    1.1946   -0.0187 N   0  0  0  0  0  0  0  0  0  0  0  0
    1.0054    1.4017    0.0002 C   0  0  0  0  0  0  0  0  0  0  0  0
    1.8982    0.3247   -0.0072 C   0  0  0  0  0  0  0  0  0  0  0  0
    1.4733   -0.9691   -0.0270 N   0  0  0  0  0  0  0  0  0  0  0  0
    0.1207   -1.1189   -0.0425 C   0  0  0  0  0  0  0  0  0  0  0  0
   -0.8091   -0.0760   -0.0476 C   0  0  0  0  0  0  0  0  0  0  0  0
   -2.1806   -0.2739   -0.1205 N   0  0  0  0  0  0  0  0  0  0  0  0
   -2.9905    0.8308   -0.6612 C   0  0  0  0  0  0  0  0  0  0  0  0
   -3.8053    0.3501   -1.8593 C   0  0  0  0  0  0  0  0  0  0  0  0
   -2.9083   -1.3573    0.5720 C   0  0  0  0  0  0  0  0  0  0  0  0
   -3.0155   -2.6034   -0.3063 C   0  0  0  0  0  0  0  0  0  0  0  0
   -2.3796   -1.6720    1.9717 C   0  0  0  0  0  0  0  0  0  0  0  0
    1.3661    2.7429    0.0900 N   0  0  0  0  0  0  0  0  0  0  0  0
    3.3863    0.5034   -0.0579 C   0  0  0  0  0  0  0  0  0  0  0  0
    4.1007   -0.6928   -0.0445 N   0  0  0  0  0  0  0  0  0  0  0  0
    3.9179    1.6050   -0.1758 O   0  0  0  0  0  0  0  0  0  0  0  0
    5.4506   -0.8641   -0.0275 C   0  0  0  0  0  0  0  0  0  0  0  0
    6.2785    0.1914    0.0606 N   0  0  0  0  0  0  0  0  0  0  0  0
    5.8667   -2.0763   -0.0995 N   0  0  0  0  0  0  0  0  0  0  0  0
   -0.1926   -2.1531   -0.0854 H   0  0  0  0  0  0  0  0  0  0  0  0
   -3.6612    1.2227    0.1132 H   0  0  0  0  0  0  0  0  0  0  0  0
   -2.3884    1.6780   -1.0084 H   0  0  0  0  0  0  0  0  0  0  0  0
   -4.5726   -0.3697   -1.5579 H   0  0  0  0  0  0  0  0  0  0  0  0
   -4.3160    1.1890   -2.3411 H   0  0  0  0  0  0  0  0  0  0  0  0
   -3.1610   -0.1327   -2.6024 H   0  0  0  0  0  0  0  0  0  0  0  0
   -3.9403   -1.0148    0.7339 H   0  0  0  0  0  0  0  0  0  0  0  0
   -2.0448   -3.0475   -0.5325 H   0  0  0  0  0  0  0  0  0  0  0  0
   -3.6259   -3.3681    0.1847 H   0  0  0  0  0  0  0  0  0  0  0  0
   -3.4913   -2.3716   -1.2640 H   0  0  0  0  0  0  0  0  0  0  0  0
   -2.3902   -0.7769    2.6028 H   0  0  0  0  0  0  0  0  0  0  0  0
   -3.0116   -2.4264    2.4542 H   0  0  0  0  0  0  0  0  0  0  0  0
   -1.3616   -2.0688    1.9676 H   0  0  0  0  0  0  0  0  0  0  0  0
    0.5266    3.3090    0.0181 H   0  0  0  0  0  0  0  0  0  0  0  0
    2.0902    2.9944   -0.5783 H   0  0  0  0  0  0  0  0  0  0  0  0
    3.5600   -1.5516   -0.0456 H   0  0  0  0  0  0  0  0  0  0  0  0
    7.2041    0.1088   -0.3315 H   0  0  0  0  0  0  0  0  0  0  0  0
    5.8288    1.0922   -0.1285 H   0  0  0  0  0  0  0  0  0  0  0  0
    6.8884   -2.0728   -0.0487 H   0  0  0  0  0  0  0  0  0  0  0  0
  1  2  2  0  0  0  0
  2  3  1  0  0  0  0
  2 13  1  0  0  0  0
  3  4  2  0  0  0  0
  3 14  1  0  0  0  0
  4  5  1  0  0  0  0
  5  6  2  0  0  0  0
  5 20  1  0  0  0  0
  6  1  1  0  0  0  0
  6  7  1  0  0  0  0
  7  8  1  0  0  0  0
  7 10  1  0  0  0  0
  8  9  1  0  0  0  0
  8 21  1  0  0  0  0
  8 22  1  0  0  0  0
  9 23  1  0  0  0  0
  9 24  1  0  0  0  0
  9 25  1  0  0  0  0
 10 11  1  0  0  0  0
 10 12  1  0  0  0  0
 10 26  1  0  0  0  0
 11 27  1  0  0  0  0
 11 28  1  0  0  0  0
 11 29  1  0  0  0  0
 12 30  1  0  0  0  0
 12 31  1  0  0  0  0
 12 32  1  0  0  0  0
 13 33  1  0  0  0  0
 13 34  1  0  0  0  0
 14 15  1  0  0  0  0
 14 16  2  0  0  0  0
 15 17  1  0  0  0  0
 15 35  1  0  0  0  0
 17 18  1  0  0  0  0
 17 19  2  0  0  0  0
 18 36  1  0  0  0  0
 18 37  1  0  0  0  0
 19 38  1  0  0  0  0
M  END
>  <Mol_ID>
6100

>  <Formula>
C11H18ClN7O

>  <MolWeight>
299.75992

>  <Cat>
S9849

>  <Name>
5-(N-Ethyl-N-isopropyl)-Amiloride (EIPA)

>  <Target>
Sodium Channel

>  <Form>
free base

>  <CAS>
1154-25-2

>  <URL>
http://www.selleckchem.com/products/5-n-ethyl-n-isopropyl-amiloride-eipa.html

$$$$
