5-Phenylvaleric Acid
 OpenBabel08302520393D

 27 27  0  0  0  0  0  0  0  0999 V2000
    1.3027   -0.2597    0.0974 C   0  0  0  0  0  0  0  0  0  0  0  0
    2.7951   -0.4826    0.1518 C   0  0  0  0  0  0  0  0  0  0  0  0
    0.4646   -1.2054   -0.5092 C   0  0  0  0  0  0  0  0  0  0  0  0
    0.7325    0.8968    0.6460 C   0  0  0  0  0  0  0  0  0  0  0  0
    3.5165    0.0902   -1.0735 C   0  0  0  0  0  0  0  0  0  0  0  0
   -0.9160   -1.0012   -0.5593 C   0  0  0  0  0  0  0  0  0  0  0  0
   -0.6489    1.0997    0.5944 C   0  0  0  0  0  0  0  0  0  0  0  0
    5.0259   -0.1562   -0.9936 C   0  0  0  0  0  0  0  0  0  0  0  0
   -1.4726    0.1509   -0.0083 C   0  0  0  0  0  0  0  0  0  0  0  0
    5.7626    0.3943   -2.2160 C   0  0  0  0  0  0  0  0  0  0  0  0
    7.2533    0.1458   -2.1305 C   0  0  0  0  0  0  0  0  0  0  0  0
    7.9194    0.6396   -3.2006 O   0  0  0  0  0  0  0  0  0  0  0  0
    7.8239   -0.4299   -1.2196 O   0  0  0  0  0  0  0  0  0  0  0  0
    3.1950   -0.0322    1.0693 H   0  0  0  0  0  0  0  0  0  0  0  0
    2.9948   -1.5586    0.2351 H   0  0  0  0  0  0  0  0  0  0  0  0
    0.8821   -2.1124   -0.9404 H   0  0  0  0  0  0  0  0  0  0  0  0
    1.3596    1.6449    1.1253 H   0  0  0  0  0  0  0  0  0  0  0  0
    3.1184   -0.3680   -1.9874 H   0  0  0  0  0  0  0  0  0  0  0  0
    3.3243    1.1677   -1.1494 H   0  0  0  0  0  0  0  0  0  0  0  0
   -1.5578   -1.7442   -1.0257 H   0  0  0  0  0  0  0  0  0  0  0  0
   -1.0829    1.9969    1.0280 H   0  0  0  0  0  0  0  0  0  0  0  0
    5.4269    0.3098   -0.0846 H   0  0  0  0  0  0  0  0  0  0  0  0
    5.2186   -1.2329   -0.9056 H   0  0  0  0  0  0  0  0  0  0  0  0
   -2.5474    0.3081   -0.0461 H   0  0  0  0  0  0  0  0  0  0  0  0
    5.3877   -0.0899   -3.1246 H   0  0  0  0  0  0  0  0  0  0  0  0
    5.6000    1.4753   -2.2911 H   0  0  0  0  0  0  0  0  0  0  0  0
    7.3459    1.0767   -3.8579 H   0  0  0  0  0  0  0  0  0  0  0  0
  1  2  1  0  0  0  0
  1  3  2  0  0  0  0
  1  4  1  0  0  0  0
  2  5  1  0  0  0  0
  2 14  1  0  0  0  0
  2 15  1  0  0  0  0
  3  6  1  0  0  0  0
  3 16  1  0  0  0  0
  4  7  2  0  0  0  0
  4 17  1  0  0  0  0
  5  8  1  0  0  0  0
  5 18  1  0  0  0  0
  5 19  1  0  0  0  0
  6  9  2  0  0  0  0
  6 20  1  0  0  0  0
  7  9  1  0  0  0  0
  7 21  1  0  0  0  0
  8 10  1  0  0  0  0
  8 22  1  0  0  0  0
  8 23  1  0  0  0  0
  9 24  1  0  0  0  0
 10 11  1  0  0  0  0
 10 25  1  0  0  0  0
 10 26  1  0  0  0  0
 11 12  1  0  0  0  0
 11 13  2  0  0  0  0
 12 27  1  0  0  0  0
M  END
>  <Mol_ID>
3561

>  <Formula>
C11H14O2

>  <MolWeight>
178.22766

>  <Cat>
S6096

>  <Name>
5-Phenylvaleric Acid

>  <Synonyms>
Benzenepentanoic acid, Phenylpentanoic acid, Phenylvaleric Acid

>  <Target>
Others

>  <Form>
free base

>  <CAS>
2270-20-4

>  <URL>
http://www.selleck.cn/products/5-phenylvaleric-acid.html

$$$$
