5a-Pregnane-3,20-dione
 OpenBabel08302521453D

 55 58  0  0  0  0  0  0  0  0999 V2000
   -0.1496    0.4822    0.3148 C   0  0  1  0  0  0  0  0  0  0  0  0
   -1.0147   -0.7148   -0.1938 C   0  0  2  0  0  0  0  0  0  0  0  0
    1.3248    0.4131   -0.2367 C   0  0  2  0  0  0  0  0  0  0  0  0
   -0.8467    1.8544    0.0983 C   0  0  0  0  0  0  0  0  0  0  0  0
   -2.4297   -0.5822    0.3858 C   0  0  1  0  0  0  0  0  0  0  0  0
   -0.3670   -2.0596    0.1587 C   0  0  0  0  0  0  0  0  0  0  0  0
    1.9205   -0.9759    0.1633 C   0  0  1  0  0  0  0  0  0  0  0  0
    2.2048    1.4984    0.4452 C   0  0  0  0  0  0  0  0  0  0  0  0
    1.3549    0.6332   -1.7707 C   0  0  0  0  0  0  0  0  0  0  0  0
   -2.3174    1.8884    0.5507 C   0  0  0  0  0  0  0  0  0  0  0  0
   -3.1265    0.7306   -0.0504 C   0  0  2  0  0  0  0  0  0  0  0  0
   -3.4613   -1.6547    0.0565 C   0  0  0  0  0  0  0  0  0  0  0  0
    1.0735   -2.1507   -0.3420 C   0  0  0  0  0  0  0  0  0  0  0  0
    3.3829   -1.1374   -0.2592 C   0  0  0  0  0  0  0  0  0  0  0  0
    3.6896    1.4019    0.1068 C   0  0  0  0  0  0  0  0  0  0  0  0
   -4.5234    0.5194    0.5976 C   0  0  2  0  0  0  0  0  0  0  0  0
   -3.2063    0.8704   -1.5956 C   0  0  0  0  0  0  0  0  0  0  0  0
   -4.8108   -0.9817    0.3634 C   0  0  0  0  0  0  0  0  0  0  0  0
    4.2224   -0.0012    0.2781 C   0  0  0  0  0  0  0  0  0  0  0  0
   -5.6688    1.4267    0.1389 C   0  0  0  0  0  0  0  0  0  0  0  0
    5.3614   -0.1988    0.7089 O   0  0  0  0  0  0  0  0  0  0  0  0
   -7.0335    1.2017    0.7471 C   0  0  0  0  0  0  0  0  0  0  0  0
   -5.4964    2.3997   -0.5965 O   0  0  0  0  0  0  0  0  0  0  0  0
   -0.0784    0.3646    1.4082 H   0  0  0  0  0  0  0  0  0  0  0  0
   -1.0752   -0.6847   -1.2856 H   0  0  0  0  0  0  0  0  0  0  0  0
   -0.3123    2.6310    0.6576 H   0  0  0  0  0  0  0  0  0  0  0  0
   -0.7989    2.1502   -0.9533 H   0  0  0  0  0  0  0  0  0  0  0  0
   -2.3289   -0.5800    1.4840 H   0  0  0  0  0  0  0  0  0  0  0  0
   -0.9431   -2.8802   -0.2851 H   0  0  0  0  0  0  0  0  0  0  0  0
   -0.3845   -2.2114    1.2454 H   0  0  0  0  0  0  0  0  0  0  0  0
    1.9071   -1.0287    1.2633 H   0  0  0  0  0  0  0  0  0  0  0  0
    2.0933    1.4154    1.5349 H   0  0  0  0  0  0  0  0  0  0  0  0
    1.8615    2.5033    0.1731 H   0  0  0  0  0  0  0  0  0  0  0  0
    0.7498   -0.0990   -2.3111 H   0  0  0  0  0  0  0  0  0  0  0  0
    0.9849    1.6270   -2.0402 H   0  0  0  0  0  0  0  0  0  0  0  0
    2.3656    0.5645   -2.1829 H   0  0  0  0  0  0  0  0  0  0  0  0
   -2.3416    1.8341    1.6472 H   0  0  0  0  0  0  0  0  0  0  0  0
   -2.7627    2.8531    0.2808 H   0  0  0  0  0  0  0  0  0  0  0  0
   -3.4122   -1.9529   -0.9957 H   0  0  0  0  0  0  0  0  0  0  0  0
   -3.3210   -2.5565    0.6618 H   0  0  0  0  0  0  0  0  0  0  0  0
    1.0837   -2.1907   -1.4372 H   0  0  0  0  0  0  0  0  0  0  0  0
    1.5068   -3.0972    0.0042 H   0  0  0  0  0  0  0  0  0  0  0  0
    3.5013   -1.1759   -1.3476 H   0  0  0  0  0  0  0  0  0  0  0  0
    3.7823   -2.0755    0.1478 H   0  0  0  0  0  0  0  0  0  0  0  0
    4.2514    2.0706    0.7686 H   0  0  0  0  0  0  0  0  0  0  0  0
    3.8833    1.7190   -0.9232 H   0  0  0  0  0  0  0  0  0  0  0  0
   -4.4362    0.6871    1.6817 H   0  0  0  0  0  0  0  0  0  0  0  0
   -3.7972    0.0752   -2.0545 H   0  0  0  0  0  0  0  0  0  0  0  0
   -3.6457    1.8262   -1.8952 H   0  0  0  0  0  0  0  0  0  0  0  0
   -2.2230    0.8506   -2.0740 H   0  0  0  0  0  0  0  0  0  0  0  0
   -5.5150   -1.1493   -0.4587 H   0  0  0  0  0  0  0  0  0  0  0  0
   -5.2551   -1.4211    1.2646 H   0  0  0  0  0  0  0  0  0  0  0  0
   -7.1659    1.8894    1.5856 H   0  0  0  0  0  0  0  0  0  0  0  0
   -7.7996    1.3941   -0.0108 H   0  0  0  0  0  0  0  0  0  0  0  0
   -7.1549    0.1768    1.0994 H   0  0  0  0  0  0  0  0  0  0  0  0
  1  2  1  0  0  0  0
  1  3  1  0  0  0  0
  1  4  1  0  0  0  0
  1 24  1  1  0  0  0
  2  5  1  0  0  0  0
  2  6  1  0  0  0  0
  2 25  1  6  0  0  0
  3  7  1  0  0  0  0
  3  8  1  0  0  0  0
  3  9  1  6  0  0  0
  4 10  1  0  0  0  0
  4 26  1  0  0  0  0
  4 27  1  0  0  0  0
  5 11  1  0  0  0  0
  5 12  1  0  0  0  0
  5 28  1  1  0  0  0
  6 13  1  0  0  0  0
  6 29  1  0  0  0  0
  6 30  1  0  0  0  0
  7 14  1  0  0  0  0
  7 13  1  0  0  0  0
  7 31  1  1  0  0  0
  8 15  1  0  0  0  0
  8 32  1  0  0  0  0
  8 33  1  0  0  0  0
  9 34  1  0  0  0  0
  9 35  1  0  0  0  0
  9 36  1  0  0  0  0
 10 11  1  0  0  0  0
 10 37  1  0  0  0  0
 10 38  1  0  0  0  0
 11 16  1  0  0  0  0
 11 17  1  6  0  0  0
 12 18  1  0  0  0  0
 12 39  1  0  0  0  0
 12 40  1  0  0  0  0
 13 41  1  0  0  0  0
 13 42  1  0  0  0  0
 14 19  1  0  0  0  0
 14 43  1  0  0  0  0
 14 44  1  0  0  0  0
 15 19  1  0  0  0  0
 15 45  1  0  0  0  0
 15 46  1  0  0  0  0
 16 18  1  0  0  0  0
 16 47  1  1  0  0  0
 16 20  1  0  0  0  0
 17 48  1  0  0  0  0
 17 49  1  0  0  0  0
 17 50  1  0  0  0  0
 18 51  1  0  0  0  0
 18 52  1  0  0  0  0
 19 21  2  0  0  0  0
 20 22  1  0  0  0  0
 20 23  2  0  0  0  0
 22 53  1  0  0  0  0
 22 54  1  0  0  0  0
 22 55  1  0  0  0  0
M  END
>  <Mol_ID>
9356

>  <Formula>
C21H32O2

>  <MolWeight>
316.47758

>  <Cat>
S3206

>  <Name>
5a-Pregnane-3,20-dione

>  <Synonyms>
5alphaP, 5-a-dihydroprogesterone, 3,20-allopregnanedione, 5-Alpha-Dihydro Progesterone

>  <Target>
Actin,Microtubule Associated

>  <Form>
free base

>  <CAS>
566-65-4

>  <URL>
http://www.selleckchem.com/products/5a-pregnane-320-dione.html

$$$$
