(5R,6E)-5-Hydroxy-1,7-diphenyl-6-hepten-3-one
 OpenBabel08302521553D

 41 42  0  0  1  0  0  0  0  0999 V2000
    4.0571    6.3313    3.4070 C   0  0  0  0  0  0  0  0  0  0  0  0
    2.5989    6.6724    3.6925 C   0  0  0  0  0  0  0  0  0  0  0  0
    1.7283    6.4722    2.4643 C   0  0  0  0  0  0  0  0  0  0  0  0
    1.6042    5.0721    1.8842 C   0  0  0  0  0  0  0  0  0  0  0  0
    1.1255    7.4186    1.9495 O   0  0  0  0  0  0  0  0  0  0  0  0
    0.1727    4.5422    1.9238 C   0  0  2  0  0  0  0  0  0  0  0  0
   -0.2982    4.3758    3.3364 C   0  0  0  0  0  0  0  0  0  0  0  0
    0.0993    3.2573    1.3070 O   0  0  0  0  0  0  0  0  0  0  0  0
   -1.3367    5.0469    3.8590 C   0  0  0  0  0  0  0  0  0  0  0  0
    4.9747    6.5204    4.5903 C   0  0  0  0  0  0  0  0  0  0  0  0
    5.2104    5.4739    5.4938 C   0  0  0  0  0  0  0  0  0  0  0  0
    5.6466    7.7362    4.7749 C   0  0  0  0  0  0  0  0  0  0  0  0
    6.1389    5.6256    6.5272 C   0  0  0  0  0  0  0  0  0  0  0  0
    6.5905    7.8775    5.7946 C   0  0  0  0  0  0  0  0  0  0  0  0
    6.8445    6.8190    6.6640 C   0  0  0  0  0  0  0  0  0  0  0  0
   -1.7076    4.9954    5.2794 C   0  0  0  0  0  0  0  0  0  0  0  0
   -0.7440    4.8305    6.2851 C   0  0  0  0  0  0  0  0  0  0  0  0
   -3.0390    5.2139    5.6523 C   0  0  0  0  0  0  0  0  0  0  0  0
   -1.1048    4.8628    7.6322 C   0  0  0  0  0  0  0  0  0  0  0  0
   -3.4003    5.2479    7.0019 C   0  0  0  0  0  0  0  0  0  0  0  0
   -2.4330    5.0728    7.9900 C   0  0  0  0  0  0  0  0  0  0  0  0
    4.4201    6.9396    2.5680 H   0  0  0  0  0  0  0  0  0  0  0  0
    4.1557    5.2943    3.0629 H   0  0  0  0  0  0  0  0  0  0  0  0
    2.1937    6.0728    4.5164 H   0  0  0  0  0  0  0  0  0  0  0  0
    2.5168    7.7233    3.9962 H   0  0  0  0  0  0  0  0  0  0  0  0
    1.9706    5.1028    0.8514 H   0  0  0  0  0  0  0  0  0  0  0  0
    2.2738    4.3822    2.4158 H   0  0  0  0  0  0  0  0  0  0  0  0
   -0.4968    5.2030    1.3617 H   0  0  0  0  0  0  0  0  0  0  0  0
    0.2783    3.6934    3.9547 H   0  0  0  0  0  0  0  0  0  0  0  0
    0.9633    2.8199    1.3718 H   0  0  0  0  0  0  0  0  0  0  0  0
   -1.9401    5.6992    3.2294 H   0  0  0  0  0  0  0  0  0  0  0  0
    4.6915    4.5240    5.3885 H   0  0  0  0  0  0  0  0  0  0  0  0
    5.4569    8.5763    4.1107 H   0  0  0  0  0  0  0  0  0  0  0  0
    6.3242    4.8070    7.2187 H   0  0  0  0  0  0  0  0  0  0  0  0
    7.1360    8.8115    5.9030 H   0  0  0  0  0  0  0  0  0  0  0  0
    7.5912    6.9256    7.4467 H   0  0  0  0  0  0  0  0  0  0  0  0
    0.3045    4.6959    6.0354 H   0  0  0  0  0  0  0  0  0  0  0  0
   -3.8074    5.3614    4.8960 H   0  0  0  0  0  0  0  0  0  0  0  0
   -0.3437    4.7383    8.3981 H   0  0  0  0  0  0  0  0  0  0  0  0
   -4.4366    5.4185    7.2819 H   0  0  0  0  0  0  0  0  0  0  0  0
   -2.7127    5.1093    9.0391 H   0  0  0  0  0  0  0  0  0  0  0  0
  1  2  1  0  0  0  0
  1 10  1  0  0  0  0
  1 22  1  0  0  0  0
  1 23  1  0  0  0  0
  2  3  1  0  0  0  0
  2 24  1  0  0  0  0
  2 25  1  0  0  0  0
  3  4  1  0  0  0  0
  3  5  2  0  0  0  0
  4 26  1  0  0  0  0
  4 27  1  0  0  0  0
  6  8  1  0  0  0  0
  6 28  1  6  0  0  0
  6  7  1  0  0  0  0
  6  4  1  0  0  0  0
  7  9  2  0  0  0  0
  7 29  1  0  0  0  0
  8 30  1  0  0  0  0
  9 16  1  0  0  0  0
  9 31  1  0  0  0  0
 10 11  2  0  0  0  0
 10 12  1  0  0  0  0
 11 13  1  0  0  0  0
 11 32  1  0  0  0  0
 12 14  2  0  0  0  0
 12 33  1  0  0  0  0
 13 15  2  0  0  0  0
 13 34  1  0  0  0  0
 14 15  1  0  0  0  0
 14 35  1  0  0  0  0
 15 36  1  0  0  0  0
 16 17  2  0  0  0  0
 16 18  1  0  0  0  0
 17 19  1  0  0  0  0
 17 37  1  0  0  0  0
 18 20  2  0  0  0  0
 18 38  1  0  0  0  0
 19 21  2  0  0  0  0
 19 39  1  0  0  0  0
 20 21  1  0  0  0  0
 20 40  1  0  0  0  0
 21 41  1  0  0  0  0
M  END
>  <Mol_ID>
10020

>  <Formula>
C19H20O2

>  <MolWeight>
280.3609

>  <Cat>
E5523

>  <Name>
(5R,6E)-5-Hydroxy-1,7-diphenyl-6-hepten-3-one

>  <Synonyms>
NA

>  <Target>
antioxidant

>  <Form>
Free Base

>  <CAS>
87095-74-7

>  <URL>
https://www.selleckchem.com/products/5r-6e-5-hydroxy-1-7-diphenyl-6-hepten-3-one.html

$$$$
