6,7,8-TRIMETHOXYCOUMARIN
 OpenBabel08302521463D

 29 30  0  0  0  0  0  0  0  0999 V2000
    0.8885   -0.0560    0.1442 O   0  0  0  0  0  0  0  0  0  0  0  0
    0.1230   -1.2494    0.1278 C   0  0  0  0  0  0  0  0  0  0  0  0
    2.2904    2.4073    0.1544 O   0  0  0  0  0  0  0  0  0  0  0  0
    0.8786    2.5306    0.1812 C   0  0  0  0  0  0  0  0  0  0  0  0
    2.5721   -4.8042    0.1399 O   0  0  0  0  0  0  0  0  0  0  0  0
    5.1550    2.3288    0.1156 O   0  0  0  0  0  0  0  0  0  0  0  0
    4.5988    3.6325    0.1896 C   0  0  0  0  0  0  0  0  0  0  0  0
    3.0464   -1.2448    0.0765 C   0  0  0  0  0  0  0  0  0  0  0  0
    2.2567   -0.0776    0.1135 C   0  0  0  0  0  0  0  0  0  0  0  0
    4.4403   -1.1958    0.0261 C   0  0  0  0  0  0  0  0  0  0  0  0
    2.4304   -2.5199    0.1022 O   0  0  0  0  0  0  0  0  0  0  0  0
    2.9115    1.1843    0.1216 C   0  0  0  0  0  0  0  0  0  0  0  0
    5.0704    0.0429    0.0386 C   0  0  0  0  0  0  0  0  0  0  0  0
    5.2128   -2.4296   -0.0441 C   0  0  0  0  0  0  0  0  0  0  0  0
    3.1307   -3.7157    0.0827 C   0  0  0  0  0  0  0  0  0  0  0  0
    4.3276    1.2312    0.0942 C   0  0  0  0  0  0  0  0  0  0  0  0
    4.5919   -3.6107   -0.0186 C   0  0  0  0  0  0  0  0  0  0  0  0
    0.3032   -1.8296   -0.7822 H   0  0  0  0  0  0  0  0  0  0  0  0
    0.2875   -1.8345    1.0375 H   0  0  0  0  0  0  0  0  0  0  0  0
   -0.9328   -0.9603    0.1175 H   0  0  0  0  0  0  0  0  0  0  0  0
    0.4247    2.1256   -0.7283 H   0  0  0  0  0  0  0  0  0  0  0  0
    0.4570    2.0959    1.0926 H   0  0  0  0  0  0  0  0  0  0  0  0
    0.6443    3.5997    0.2036 H   0  0  0  0  0  0  0  0  0  0  0  0
    4.0197    3.8662   -0.7093 H   0  0  0  0  0  0  0  0  0  0  0  0
    4.0183    3.7708    1.1072 H   0  0  0  0  0  0  0  0  0  0  0  0
    5.4294    4.3443    0.2293 H   0  0  0  0  0  0  0  0  0  0  0  0
    6.1569    0.1079    0.0104 H   0  0  0  0  0  0  0  0  0  0  0  0
    6.2935   -2.3720   -0.1243 H   0  0  0  0  0  0  0  0  0  0  0  0
    5.1316   -4.5487   -0.0709 H   0  0  0  0  0  0  0  0  0  0  0  0
  1  2  1  0  0  0  0
  1  9  1  0  0  0  0
  2 18  1  0  0  0  0
  2 19  1  0  0  0  0
  2 20  1  0  0  0  0
  3  4  1  0  0  0  0
  3 12  1  0  0  0  0
  4 21  1  0  0  0  0
  4 22  1  0  0  0  0
  4 23  1  0  0  0  0
  5 15  2  0  0  0  0
  6  7  1  0  0  0  0
  6 16  1  0  0  0  0
  7 24  1  0  0  0  0
  7 25  1  0  0  0  0
  7 26  1  0  0  0  0
  8  9  2  0  0  0  0
  8 10  1  0  0  0  0
  8 11  1  0  0  0  0
  9 12  1  0  0  0  0
 10 13  2  0  0  0  0
 10 14  1  0  0  0  0
 11 15  1  0  0  0  0
 12 16  2  0  0  0  0
 13 16  1  0  0  0  0
 13 27  1  0  0  0  0
 14 17  2  0  0  0  0
 14 28  1  0  0  0  0
 15 17  1  0  0  0  0
 17 29  1  0  0  0  0
M  END
>  <Mol_ID>
9673

>  <Formula>
C12H12O5

>  <MolWeight>
236.22068

>  <Cat>
E0660

>  <Name>
6,7,8-TRIMETHOXYCOUMARIN

>  <Synonyms>
Dimethylfraxetin ; Fraxetin dimethyl ether

>  <Target>
Carbonic Anhydrase

>  <Form>
free base

>  <CAS>
6035-49-0

>  <URL>
https://www.selleckchem.com/products/6-7-8-trimethoxycoumarin;dimethylfraxetin.html

$$$$
