6-Acetamidohexanoic acid
 OpenBabel08302520323D

 27 26  0  0  0  0  0  0  0  0999 V2000
    1.4001   -2.0065   -1.2565 C   0  0  0  0  0  0  0  0  0  0  0  0
    0.3375   -1.0739   -0.7284 C   0  0  0  0  0  0  0  0  0  0  0  0
    1.3779   -2.1539   -2.5989 O   0  0  0  0  0  0  0  0  0  0  0  0
    2.2132   -2.5836   -0.5480 O   0  0  0  0  0  0  0  0  0  0  0  0
   -0.5563   -1.7926    0.2789 C   0  0  0  0  0  0  0  0  0  0  0  0
   -1.6475   -0.8949    0.8721 C   0  0  0  0  0  0  0  0  0  0  0  0
   -2.6116   -0.2747   -0.1430 C   0  0  0  0  0  0  0  0  0  0  0  0
   -3.3793   -1.3141   -0.9569 C   0  0  0  0  0  0  0  0  0  0  0  0
   -4.2643   -0.6859   -1.9155 N   0  0  0  0  0  0  0  0  0  0  0  0
   -3.8298   -0.3229   -3.1692 C   0  0  0  0  0  0  0  0  0  0  0  0
   -4.8839    0.3358   -4.0214 C   0  0  0  0  0  0  0  0  0  0  0  0
   -2.6881   -0.5214   -3.5753 O   0  0  0  0  0  0  0  0  0  0  0  0
    0.8415   -0.2163   -0.2694 H   0  0  0  0  0  0  0  0  0  0  0  0
   -0.2579   -0.6873   -1.5608 H   0  0  0  0  0  0  0  0  0  0  0  0
    0.6679   -1.6580   -3.0529 H   0  0  0  0  0  0  0  0  0  0  0  0
   -1.0050   -2.6776   -0.1864 H   0  0  0  0  0  0  0  0  0  0  0  0
    0.0591   -2.1745    1.1035 H   0  0  0  0  0  0  0  0  0  0  0  0
   -2.2243   -1.4817    1.5976 H   0  0  0  0  0  0  0  0  0  0  0  0
   -1.1711   -0.0853    1.4389 H   0  0  0  0  0  0  0  0  0  0  0  0
   -3.3296    0.3550    0.3984 H   0  0  0  0  0  0  0  0  0  0  0  0
   -2.0699    0.4066   -0.8097 H   0  0  0  0  0  0  0  0  0  0  0  0
   -2.6951   -1.9703   -1.5038 H   0  0  0  0  0  0  0  0  0  0  0  0
   -3.9977   -1.9354   -0.3012 H   0  0  0  0  0  0  0  0  0  0  0  0
   -5.1941   -0.4255   -1.6123 H   0  0  0  0  0  0  0  0  0  0  0  0
   -4.4935    1.2807   -4.4060 H   0  0  0  0  0  0  0  0  0  0  0  0
   -5.1400   -0.3260   -4.8519 H   0  0  0  0  0  0  0  0  0  0  0  0
   -5.7936    0.5483   -3.4499 H   0  0  0  0  0  0  0  0  0  0  0  0
  1  2  1  0  0  0  0
  1  3  1  0  0  0  0
  1  4  2  0  0  0  0
  2  5  1  0  0  0  0
  2 13  1  0  0  0  0
  2 14  1  0  0  0  0
  3 15  1  0  0  0  0
  5  6  1  0  0  0  0
  5 16  1  0  0  0  0
  5 17  1  0  0  0  0
  6  7  1  0  0  0  0
  6 18  1  0  0  0  0
  6 19  1  0  0  0  0
  7  8  1  0  0  0  0
  7 20  1  0  0  0  0
  7 21  1  0  0  0  0
  8  9  1  0  0  0  0
  8 22  1  0  0  0  0
  8 23  1  0  0  0  0
  9 10  1  0  0  0  0
  9 24  1  0  0  0  0
 10 11  1  0  0  0  0
 10 12  2  0  0  0  0
 11 25  1  0  0  0  0
 11 26  1  0  0  0  0
 11 27  1  0  0  0  0
M  END
>  <Mol_ID>
3333

>  <Formula>
C8H15NO3

>  <MolWeight>
173.2096

>  <Cat>
S4534

>  <Name>
6-Acetamidohexanoic acid

>  <Synonyms>
6-Acetamidocaproic acid

>  <Target>
Others

>  <Form>
Free Base

>  <CAS>
57-08-9

>  <URL>
http://www.selleckchem.com/products/6-acetamidohexanoic-acid.html

$$$$
