6-Aminonicotinic acid
 OpenBabel08302521363D

 16 16  0  0  0  0  0  0  0  0999 V2000
    1.1028    0.0162    0.0249 C   0  0  0  0  0  0  0  0  0  0  0  0
    0.5075    1.0783    0.6051 O   0  0  0  0  0  0  0  0  0  0  0  0
    0.4766   -0.9104   -0.4584 O   0  0  0  0  0  0  0  0  0  0  0  0
    6.7196    0.1382    0.0447 N   0  0  0  0  0  0  0  0  0  0  0  0
    2.5798    0.0406    0.0469 C   0  0  0  0  0  0  0  0  0  0  0  0
    3.2822   -1.1631    0.0542 C   0  0  0  0  0  0  0  0  0  0  0  0
    3.3181    1.2133   -0.0006 C   0  0  0  0  0  0  0  0  0  0  0  0
    4.6763   -1.1421    0.0456 C   0  0  0  0  0  0  0  0  0  0  0  0
    4.6747    1.2555   -0.0000 N   0  0  0  0  0  0  0  0  0  0  0  0
    5.3308    0.0810    0.0148 C   0  0  0  0  0  0  0  0  0  0  0  0
    1.0732    1.6654    1.1386 H   0  0  0  0  0  0  0  0  0  0  0  0
    6.9908    1.1144   -0.0452 H   0  0  0  0  0  0  0  0  0  0  0  0
    7.1420   -0.4404   -0.6720 H   0  0  0  0  0  0  0  0  0  0  0  0
    2.7522   -2.1127    0.0686 H   0  0  0  0  0  0  0  0  0  0  0  0
    2.8484    2.1906   -0.0615 H   0  0  0  0  0  0  0  0  0  0  0  0
    5.2383   -2.0697    0.0677 H   0  0  0  0  0  0  0  0  0  0  0  0
  1  2  1  0  0  0  0
  1  3  2  0  0  0  0
  1  5  1  0  0  0  0
  2 11  1  0  0  0  0
  4 10  1  0  0  0  0
  4 12  1  0  0  0  0
  4 13  1  0  0  0  0
  5  6  2  0  0  0  0
  5  7  1  0  0  0  0
  6  8  1  0  0  0  0
  6 14  1  0  0  0  0
  7  9  2  0  0  0  0
  7 15  1  0  0  0  0
  8 10  2  0  0  0  0
  8 16  1  0  0  0  0
  9 10  1  0  0  0  0
M  END
>  <Mol_ID>
7303

>  <Formula>
C6H6N2O2

>  <MolWeight>
138.12404

>  <Cat>
E4331

>  <Name>
6-Aminonicotinic acid

>  <Synonyms>
6-Aminonicotinic acid

>  <Target>
Others

>  <Form>
free base

>  <CAS>
3167-49-5

>  <URL>
https://www.selleckchem.com/products/6-aminonicotinic-acid.html

$$$$
