6-Aminonicotinamide
 OpenBabel08302521303D

 17 17  0  0  0  0  0  0  0  0999 V2000
   -1.0465    1.1368   -0.0439 C   0  0  0  0  0  0  0  0  0  0  0  0
   -1.8594    0.0091   -0.0590 C   0  0  0  0  0  0  0  0  0  0  0  0
   -1.2276   -1.2320    0.0079 C   0  0  0  0  0  0  0  0  0  0  0  0
    0.1659   -1.2864    0.0875 C   0  0  0  0  0  0  0  0  0  0  0  0
    0.8920   -0.1034    0.0918 C   0  0  0  0  0  0  0  0  0  0  0  0
    0.3102    1.1032    0.0306 N   0  0  0  0  0  0  0  0  0  0  0  0
   -3.3271    0.2024   -0.1359 C   0  0  0  0  0  0  0  0  0  0  0  0
   -3.8195    1.3234   -0.1787 O   0  0  0  0  0  0  0  0  0  0  0  0
   -4.1347   -0.9005   -0.1596 N   0  0  0  0  0  0  0  0  0  0  0  0
    2.2776   -0.1238    0.2071 N   0  0  0  0  0  0  0  0  0  0  0  0
   -1.4706    2.1379   -0.0895 H   0  0  0  0  0  0  0  0  0  0  0  0
   -1.7807   -2.1630    0.0110 H   0  0  0  0  0  0  0  0  0  0  0  0
    0.6748   -2.2417    0.1622 H   0  0  0  0  0  0  0  0  0  0  0  0
   -3.8231   -1.8574   -0.1272 H   0  0  0  0  0  0  0  0  0  0  0  0
   -5.1321   -0.7313   -0.2057 H   0  0  0  0  0  0  0  0  0  0  0  0
    2.5923    0.8425    0.1480 H   0  0  0  0  0  0  0  0  0  0  0  0
    2.7084   -0.7026   -0.5037 H   0  0  0  0  0  0  0  0  0  0  0  0
  1  2  2  0  0  0  0
  1  6  1  0  0  0  0
  1 11  1  0  0  0  0
  2  3  1  0  0  0  0
  2  7  1  0  0  0  0
  3  4  2  0  0  0  0
  3 12  1  0  0  0  0
  4  5  1  0  0  0  0
  4 13  1  0  0  0  0
  5  6  2  0  0  0  0
  5 10  1  0  0  0  0
  7  8  2  0  0  0  0
  7  9  1  0  0  0  0
  9 14  1  0  0  0  0
  9 15  1  0  0  0  0
 10 16  1  0  0  0  0
 10 17  1  0  0  0  0
M  END
>  <Mol_ID>
5606

>  <Formula>
C6H7N3O

>  <MolWeight>
137.13928

>  <Cat>
S9783

>  <Name>
6-Aminonicotinamide

>  <Synonyms>
6AN

>  <Target>
Dehydrogenase

>  <Form>
Free Base

>  <CAS>
329-89-5

>  <URL>
http://www.selleckchem.com/products/6-aminonicotinamide.html

$$$$
