6-Bromo-2-hydroxy-3-methoxybenzaldehyde
 OpenBabel08302520403D

 19 19  0  0  0  0  0  0  0  0999 V2000
   -0.8310    0.8691    0.0200 C   0  0  0  0  0  0  0  0  0  0  0  0
   -2.2337    0.6390    0.0263 C   0  0  0  0  0  0  0  0  0  0  0  0
    0.0548   -0.2192    0.0018 C   0  0  0  0  0  0  0  0  0  0  0  0
   -0.3759    2.2914    0.0228 C   0  0  0  0  0  0  0  0  0  0  0  0
   -2.7422   -0.6686    0.0107 C   0  0  0  0  0  0  0  0  0  0  0  0
   -3.0127    1.7657    0.0617 O   0  0  0  0  0  0  0  0  0  0  0  0
   -0.4536   -1.5187   -0.0091 C   0  0  0  0  0  0  0  0  0  0  0  0
    1.9509   -0.0903   -0.0086 Br  0  0  0  0  0  0  0  0  0  0  0  0
    0.7903    2.6549    0.0154 O   0  0  0  0  0  0  0  0  0  0  0  0
   -1.8303   -1.7340   -0.0052 C   0  0  0  0  0  0  0  0  0  0  0  0
   -4.0236   -1.1355    0.0160 O   0  0  0  0  0  0  0  0  0  0  0  0
   -5.1440   -0.2761    0.0368 C   0  0  0  0  0  0  0  0  0  0  0  0
   -1.1654    3.0597    0.0275 H   0  0  0  0  0  0  0  0  0  0  0  0
   -3.9365    1.5740   -0.1271 H   0  0  0  0  0  0  0  0  0  0  0  0
    0.2135   -2.3785   -0.0204 H   0  0  0  0  0  0  0  0  0  0  0  0
   -2.2011   -2.7586   -0.0113 H   0  0  0  0  0  0  0  0  0  0  0  0
   -5.1317    0.3703    0.9193 H   0  0  0  0  0  0  0  0  0  0  0  0
   -5.2116    0.2921   -0.8964 H   0  0  0  0  0  0  0  0  0  0  0  0
   -6.0442   -0.8944    0.1005 H   0  0  0  0  0  0  0  0  0  0  0  0
  1  2  2  0  0  0  0
  1  3  1  0  0  0  0
  1  4  1  0  0  0  0
  2  5  1  0  0  0  0
  2  6  1  0  0  0  0
  3  7  2  0  0  0  0
  3  8  1  0  0  0  0
  4  9  2  0  0  0  0
  4 13  1  0  0  0  0
  5 10  2  0  0  0  0
  5 11  1  0  0  0  0
  6 14  1  0  0  0  0
  7 10  1  0  0  0  0
  7 15  1  0  0  0  0
 10 16  1  0  0  0  0
 11 12  1  0  0  0  0
 12 17  1  0  0  0  0
 12 18  1  0  0  0  0
 12 19  1  0  0  0  0
M  END
>  <Mol_ID>
3798

>  <Formula>
C8H7BrO3

>  <MolWeight>
231.04338

>  <Cat>
S6495

>  <Name>
6-Bromo-2-hydroxy-3-methoxybenzaldehyde

>  <Synonyms>
N/A

>  <Target>
IRE1

>  <Form>
free base

>  <CAS>
20035-41-0

>  <URL>
http://www.selleck.cn/products/6-bromo-2-hydroxy-3-methoxybenzaldehyde.html

$$$$
