6-Demethoxylnobiletin
 OpenBabel08302521583D

 47 49  0  0  0  0  0  0  0  0999 V2000
    0.9328    0.1932    0.0850 O   0  0  0  0  0  0  0  0  0  0  0  0
   -0.0739   -0.7943    0.1212 C   0  0  0  0  0  0  0  0  0  0  0  0
    1.1905   -2.9797    0.3288 O   0  0  0  0  0  0  0  0  0  0  0  0
    6.4717    0.1127    0.0838 O   0  0  0  0  0  0  0  0  0  0  0  0
    7.3404   -1.0095    0.1222 C   0  0  0  0  0  0  0  0  0  0  0  0
    5.1177    2.3077    0.0174 O   0  0  0  0  0  0  0  0  0  0  0  0
    4.4161    3.5438   -0.0259 C   0  0  0  0  0  0  0  0  0  0  0  0
    7.0328   -6.5061   -2.9682 O   0  0  0  0  0  0  0  0  0  0  0  0
    6.5101   -5.7429   -4.0472 C   0  0  0  0  0  0  0  0  0  0  0  0
    8.0263   -8.0072   -0.6650 O   0  0  0  0  0  0  0  0  0  0  0  0
    8.4382   -8.4739   -1.9407 C   0  0  0  0  0  0  0  0  0  0  0  0
    2.9759   -1.3243    0.1645 C   0  0  0  0  0  0  0  0  0  0  0  0
    4.3979   -1.2749    0.1520 C   0  0  0  0  0  0  0  0  0  0  0  0
    2.2651   -0.1099    0.1093 C   0  0  0  0  0  0  0  0  0  0  0  0
    2.3797   -2.6965    0.2363 C   0  0  0  0  0  0  0  0  0  0  0  0
    5.1061   -0.0537    0.1011 C   0  0  0  0  0  0  0  0  0  0  0  0
    5.1677   -2.4142    0.1827 O   0  0  0  0  0  0  0  0  0  0  0  0
    2.9898    1.1014    0.0592 C   0  0  0  0  0  0  0  0  0  0  0  0
    3.2718   -3.8495    0.1674 C   0  0  0  0  0  0  0  0  0  0  0  0
    4.3829    1.1480    0.0586 C   0  0  0  0  0  0  0  0  0  0  0  0
    4.5761   -3.6417    0.1221 C   0  0  0  0  0  0  0  0  0  0  0  0
    5.4954   -4.7542   -0.0917 C   0  0  0  0  0  0  0  0  0  0  0  0
    5.8274   -5.0964   -1.4087 C   0  0  0  0  0  0  0  0  0  0  0  0
    6.0220   -5.4811    0.9702 C   0  0  0  0  0  0  0  0  0  0  0  0
    6.6796   -6.1689   -1.6900 C   0  0  0  0  0  0  0  0  0  0  0  0
    6.8702   -6.5549    0.7040 C   0  0  0  0  0  0  0  0  0  0  0  0
    7.1988   -6.9144   -0.6152 C   0  0  0  0  0  0  0  0  0  0  0  0
   -0.0104   -1.4448   -0.7558 H   0  0  0  0  0  0  0  0  0  0  0  0
   -0.0630   -1.3158    1.0821 H   0  0  0  0  0  0  0  0  0  0  0  0
   -1.0447   -0.2944    0.0615 H   0  0  0  0  0  0  0  0  0  0  0  0
    7.2270   -1.5675    1.0575 H   0  0  0  0  0  0  0  0  0  0  0  0
    7.2066   -1.6461   -0.7590 H   0  0  0  0  0  0  0  0  0  0  0  0
    8.3697   -0.6405    0.0947 H   0  0  0  0  0  0  0  0  0  0  0  0
    3.8333    3.6336   -0.9486 H   0  0  0  0  0  0  0  0  0  0  0  0
    3.7824    3.6736    0.8577 H   0  0  0  0  0  0  0  0  0  0  0  0
    5.1561    4.3504   -0.0218 H   0  0  0  0  0  0  0  0  0  0  0  0
    5.4209   -5.8383   -4.1057 H   0  0  0  0  0  0  0  0  0  0  0  0
    6.8158   -4.6945   -3.9734 H   0  0  0  0  0  0  0  0  0  0  0  0
    6.9301   -6.1446   -4.9739 H   0  0  0  0  0  0  0  0  0  0  0  0
    7.5826   -8.6928   -2.5873 H   0  0  0  0  0  0  0  0  0  0  0  0
    9.1371   -7.7693   -2.4032 H   0  0  0  0  0  0  0  0  0  0  0  0
    8.9711   -9.4171   -1.7964 H   0  0  0  0  0  0  0  0  0  0  0  0
    2.4102    2.0214    0.0208 H   0  0  0  0  0  0  0  0  0  0  0  0
    2.8130   -4.8320    0.1224 H   0  0  0  0  0  0  0  0  0  0  0  0
    5.4063   -4.4980   -2.2101 H   0  0  0  0  0  0  0  0  0  0  0  0
    5.7795   -5.2248    1.9988 H   0  0  0  0  0  0  0  0  0  0  0  0
    7.2828   -7.1270    1.5332 H   0  0  0  0  0  0  0  0  0  0  0  0
  1  2  1  0  0  0  0
  1 14  1  0  0  0  0
  2 28  1  0  0  0  0
  2 29  1  0  0  0  0
  2 30  1  0  0  0  0
  3 15  2  0  0  0  0
  4  5  1  0  0  0  0
  4 16  1  0  0  0  0
  5 31  1  0  0  0  0
  5 32  1  0  0  0  0
  5 33  1  0  0  0  0
  6  7  1  0  0  0  0
  6 20  1  0  0  0  0
  7 34  1  0  0  0  0
  7 35  1  0  0  0  0
  7 36  1  0  0  0  0
  8  9  1  0  0  0  0
  8 25  1  0  0  0  0
  9 37  1  0  0  0  0
  9 38  1  0  0  0  0
  9 39  1  0  0  0  0
 10 11  1  0  0  0  0
 10 27  1  0  0  0  0
 11 40  1  0  0  0  0
 11 41  1  0  0  0  0
 11 42  1  0  0  0  0
 12 13  1  0  0  0  0
 12 14  2  0  0  0  0
 12 15  1  0  0  0  0
 13 16  2  0  0  0  0
 13 17  1  0  0  0  0
 14 18  1  0  0  0  0
 15 19  1  0  0  0  0
 16 20  1  0  0  0  0
 17 21  1  0  0  0  0
 18 20  2  0  0  0  0
 18 43  1  0  0  0  0
 19 21  2  0  0  0  0
 19 44  1  0  0  0  0
 21 22  1  0  0  0  0
 22 23  2  0  0  0  0
 22 24  1  0  0  0  0
 23 25  1  0  0  0  0
 23 45  1  0  0  0  0
 24 26  2  0  0  0  0
 24 46  1  0  0  0  0
 25 27  2  0  0  0  0
 26 27  1  0  0  0  0
 26 47  1  0  0  0  0
M  END
>  <Mol_ID>
10099

>  <Formula>
C20H20O7

>  <MolWeight>
372.3686

>  <Cat>
S0930

>  <Name>
6-Demethoxylnobiletin

>  <Synonyms>
Isosinensetin

>  <Target>
P-gp

>  <Form>
free base

>  <CAS>
17290-70-9

>  <URL>
https://www.selleckchem.com/products/isosinensetin.html

$$$$
