6-Demethoxytangeretin
 OpenBabel08302521503D

 43 45  0  0  0  0  0  0  0  0999 V2000
    1.0133   -0.1192    0.0525 O   0  0  0  0  0  0  0  0  0  0  0  0
    0.1481    1.0062    0.0767 C   0  0  0  0  0  0  0  0  0  0  0  0
    6.5517   -0.2135    0.0685 O   0  0  0  0  0  0  0  0  0  0  0  0
    7.5562    0.7764    0.0916 C   0  0  0  0  0  0  0  0  0  0  0  0
    6.3045    2.9697    0.2609 O   0  0  0  0  0  0  0  0  0  0  0  0
    2.3604   -2.3178    0.0064 O   0  0  0  0  0  0  0  0  0  0  0  0
    3.0577   -3.5565   -0.0213 C   0  0  0  0  0  0  0  0  0  0  0  0
   -0.5285    8.0108   -0.6938 O   0  0  0  0  0  0  0  0  0  0  0  0
   -0.8625    8.4244   -2.0145 C   0  0  0  0  0  0  0  0  0  0  0  0
    3.0922    1.2652    0.1084 C   0  0  0  0  0  0  0  0  0  0  0  0
    4.5152    1.3125    0.1228 C   0  0  0  0  0  0  0  0  0  0  0  0
    2.3796    0.0444    0.0704 C   0  0  0  0  0  0  0  0  0  0  0  0
    2.3269    2.4072    0.1213 O   0  0  0  0  0  0  0  0  0  0  0  0
    5.2198    0.0940    0.0855 C   0  0  0  0  0  0  0  0  0  0  0  0
    5.1162    2.6854    0.1730 C   0  0  0  0  0  0  0  0  0  0  0  0
    3.0984   -1.1595    0.0412 C   0  0  0  0  0  0  0  0  0  0  0  0
    2.9218    3.6326    0.0450 C   0  0  0  0  0  0  0  0  0  0  0  0
    4.4914   -1.1167    0.0464 C   0  0  0  0  0  0  0  0  0  0  0  0
    4.2258    3.8415    0.0905 C   0  0  0  0  0  0  0  0  0  0  0  0
    2.0015    4.7476   -0.1481 C   0  0  0  0  0  0  0  0  0  0  0  0
    1.6663    5.1286   -1.4515 C   0  0  0  0  0  0  0  0  0  0  0  0
    1.4764    5.4553    0.9354 C   0  0  0  0  0  0  0  0  0  0  0  0
    0.8168    6.2097   -1.6743 C   0  0  0  0  0  0  0  0  0  0  0  0
    0.6219    6.5367    0.7072 C   0  0  0  0  0  0  0  0  0  0  0  0
    0.2964    6.9241   -0.5960 C   0  0  0  0  0  0  0  0  0  0  0  0
    0.2629    1.5745    1.0057 H   0  0  0  0  0  0  0  0  0  0  0  0
    0.2855    1.6316   -0.8116 H   0  0  0  0  0  0  0  0  0  0  0  0
   -0.8831    0.6415    0.0522 H   0  0  0  0  0  0  0  0  0  0  0  0
    7.4947    1.4094   -0.7983 H   0  0  0  0  0  0  0  0  0  0  0  0
    7.5373    1.3151    1.0427 H   0  0  0  0  0  0  0  0  0  0  0  0
    8.5291    0.2797    0.0462 H   0  0  0  0  0  0  0  0  0  0  0  0
    3.6559   -3.6520   -0.9336 H   0  0  0  0  0  0  0  0  0  0  0  0
    3.6757   -3.6846    0.8736 H   0  0  0  0  0  0  0  0  0  0  0  0
    2.3150   -4.3605   -0.0271 H   0  0  0  0  0  0  0  0  0  0  0  0
    0.0358    8.6482   -2.6014 H   0  0  0  0  0  0  0  0  0  0  0  0
   -1.4793    7.6686   -2.5126 H   0  0  0  0  0  0  0  0  0  0  0  0
   -1.4476    9.3445   -1.9436 H   0  0  0  0  0  0  0  0  0  0  0  0
    5.0682   -2.0386    0.0172 H   0  0  0  0  0  0  0  0  0  0  0  0
    4.6833    4.8226    0.0499 H   0  0  0  0  0  0  0  0  0  0  0  0
    2.0615    4.5834   -2.3066 H   0  0  0  0  0  0  0  0  0  0  0  0
    1.7266    5.1764    1.9564 H   0  0  0  0  0  0  0  0  0  0  0  0
    0.5837    6.4646   -2.7023 H   0  0  0  0  0  0  0  0  0  0  0  0
    0.2117    7.0870    1.5505 H   0  0  0  0  0  0  0  0  0  0  0  0
  1  2  1  0  0  0  0
  1 12  1  0  0  0  0
  2 26  1  0  0  0  0
  2 27  1  0  0  0  0
  2 28  1  0  0  0  0
  3  4  1  0  0  0  0
  3 14  1  0  0  0  0
  4 29  1  0  0  0  0
  4 30  1  0  0  0  0
  4 31  1  0  0  0  0
  5 15  2  0  0  0  0
  6  7  1  0  0  0  0
  6 16  1  0  0  0  0
  7 32  1  0  0  0  0
  7 33  1  0  0  0  0
  7 34  1  0  0  0  0
  8  9  1  0  0  0  0
  8 25  1  0  0  0  0
  9 35  1  0  0  0  0
  9 36  1  0  0  0  0
  9 37  1  0  0  0  0
 10 11  1  0  0  0  0
 10 12  2  0  0  0  0
 10 13  1  0  0  0  0
 11 14  2  0  0  0  0
 11 15  1  0  0  0  0
 12 16  1  0  0  0  0
 13 17  1  0  0  0  0
 14 18  1  0  0  0  0
 15 19  1  0  0  0  0
 16 18  2  0  0  0  0
 17 19  2  0  0  0  0
 17 20  1  0  0  0  0
 18 38  1  0  0  0  0
 19 39  1  0  0  0  0
 20 21  2  0  0  0  0
 20 22  1  0  0  0  0
 21 23  1  0  0  0  0
 21 40  1  0  0  0  0
 22 24  2  0  0  0  0
 22 41  1  0  0  0  0
 23 25  2  0  0  0  0
 23 42  1  0  0  0  0
 24 25  1  0  0  0  0
 24 43  1  0  0  0  0
M  END
>  <Mol_ID>
9860

>  <Formula>
C19H18O6

>  <MolWeight>
342.34262

>  <Cat>
E2575

>  <Name>
6-Demethoxytangeretin

>  <Synonyms>
N/A

>  <Target>
TNF-alpha, Interleukins, ALK, p38 MAPK, MMP

>  <Form>
free base

>  <CAS>
6601-66-7

>  <URL>
https://www.selleckchem.com/products/6-demethoxytangeretin.html

$$$$
