6-(Dimethylamino)purine
 OpenBabel08302520393D

 21 22  0  0  0  0  0  0  0  0999 V2000
   -0.2867   -0.7425   -0.0279 C   0  0  0  0  0  0  0  0  0  0  0  0
   -0.2552    0.6487   -0.0234 C   0  0  0  0  0  0  0  0  0  0  0  0
    0.8975   -1.4844   -0.0126 C   0  0  0  0  0  0  0  0  0  0  0  0
   -1.6290   -1.0192   -0.0476 N   0  0  0  0  0  0  0  0  0  0  0  0
   -1.5132    1.1906   -0.0291 N   0  0  0  0  0  0  0  0  0  0  0  0
    0.8707    1.3775   -0.0124 N   0  0  0  0  0  0  0  0  0  0  0  0
    2.0310   -0.7251   -0.0052 N   0  0  0  0  0  0  0  0  0  0  0  0
    1.0467   -2.8581    0.0019 N   0  0  0  0  0  0  0  0  0  0  0  0
   -2.3207    0.1593   -0.0408 C   0  0  0  0  0  0  0  0  0  0  0  0
    1.9628    0.6190   -0.0061 C   0  0  0  0  0  0  0  0  0  0  0  0
    0.0102   -3.8650   -0.0077 C   0  0  0  0  0  0  0  0  0  0  0  0
    2.4220   -3.3530    0.0009 C   0  0  0  0  0  0  0  0  0  0  0  0
   -2.0620   -1.9268   -0.0667 H   0  0  0  0  0  0  0  0  0  0  0  0
   -3.4019    0.2003   -0.0464 H   0  0  0  0  0  0  0  0  0  0  0  0
    2.9127    1.1433   -0.0004 H   0  0  0  0  0  0  0  0  0  0  0  0
    0.0648   -4.4507   -0.9319 H   0  0  0  0  0  0  0  0  0  0  0  0
    0.1508   -4.5515    0.8349 H   0  0  0  0  0  0  0  0  0  0  0  0
   -1.0020   -3.4825    0.0764 H   0  0  0  0  0  0  0  0  0  0  0  0
    2.9663   -3.0137   -0.8887 H   0  0  0  0  0  0  0  0  0  0  0  0
    2.9565   -3.0300    0.9013 H   0  0  0  0  0  0  0  0  0  0  0  0
    2.4491   -4.4490   -0.0101 H   0  0  0  0  0  0  0  0  0  0  0  0
  1  2  1  0  0  0  0
  1  3  2  0  0  0  0
  1  4  1  0  0  0  0
  2  5  1  0  0  0  0
  2  6  2  0  0  0  0
  3  7  1  0  0  0  0
  3  8  1  0  0  0  0
  4  9  1  0  0  0  0
  4 13  1  0  0  0  0
  5  9  2  0  0  0  0
  6 10  1  0  0  0  0
  7 10  2  0  0  0  0
  8 11  1  0  0  0  0
  8 12  1  0  0  0  0
  9 14  1  0  0  0  0
 10 15  1  0  0  0  0
 11 16  1  0  0  0  0
 11 17  1  0  0  0  0
 11 18  1  0  0  0  0
 12 19  1  0  0  0  0
 12 20  1  0  0  0  0
 12 21  1  0  0  0  0
M  END
>  <Mol_ID>
3555

>  <Formula>
C7H9N5

>  <MolWeight>
163.17986

>  <Cat>
S6088

>  <Name>
6-(Dimethylamino)purine

>  <Synonyms>
N,N-Dimethyladenine

>  <Target>
Serine/threonin kinase

>  <Form>
free base

>  <CAS>
938-55-6

>  <URL>
http://www.selleck.cn/products/6-dimethylamino-purine.html

$$$$
