6-Hydroxynicotinic acid
 OpenBabel08302520393D

 15 15  0  0  0  0  0  0  0  0999 V2000
   -1.4057   -0.1389   -0.0542 C   0  0  0  0  0  0  0  0  0  0  0  0
   -2.8827   -0.1432   -0.0629 C   0  0  0  0  0  0  0  0  0  0  0  0
   -0.6266   -1.2992   -0.0382 C   0  0  0  0  0  0  0  0  0  0  0  0
   -0.7523    1.0851   -0.0127 C   0  0  0  0  0  0  0  0  0  0  0  0
   -3.4279   -1.1987   -0.7022 O   0  0  0  0  0  0  0  0  0  0  0  0
   -3.5449    0.7474    0.4379 O   0  0  0  0  0  0  0  0  0  0  0  0
    0.7650   -1.1852   -0.0153 C   0  0  0  0  0  0  0  0  0  0  0  0
    0.5963    1.2173    0.0021 N   0  0  0  0  0  0  0  0  0  0  0  0
    1.3185    0.0854   -0.0018 C   0  0  0  0  0  0  0  0  0  0  0  0
    2.6676    0.2700    0.0109 O   0  0  0  0  0  0  0  0  0  0  0  0
   -1.0777   -2.2858   -0.0062 H   0  0  0  0  0  0  0  0  0  0  0  0
   -1.3035    2.0230    0.0071 H   0  0  0  0  0  0  0  0  0  0  0  0
   -2.8147   -1.7439   -1.2268 H   0  0  0  0  0  0  0  0  0  0  0  0
    1.3860   -2.0735    0.0066 H   0  0  0  0  0  0  0  0  0  0  0  0
    3.0988   -0.5933   -0.0530 H   0  0  0  0  0  0  0  0  0  0  0  0
  1  2  1  0  0  0  0
  1  3  2  0  0  0  0
  1  4  1  0  0  0  0
  2  5  1  0  0  0  0
  2  6  2  0  0  0  0
  3  7  1  0  0  0  0
  3 11  1  0  0  0  0
  4  8  2  0  0  0  0
  4 12  1  0  0  0  0
  5 13  1  0  0  0  0
  7  9  2  0  0  0  0
  7 14  1  0  0  0  0
  8  9  1  0  0  0  0
  9 10  1  0  0  0  0
 10 15  1  0  0  0  0
M  END
>  <Mol_ID>
3636

>  <Formula>
C6H5NO3

>  <MolWeight>
139.1088

>  <Cat>
S6285

>  <Name>
6-Hydroxynicotinic acid

>  <Synonyms>
N/A

>  <Target>
Others

>  <Form>
free base

>  <CAS>
5006-66-6

>  <URL>
http://www.selleck.cn/products/6-hydroxynicotinic-acid.html

$$$$
