6-Hydroxyluteolin 7-glucoside
 OpenBabel08302522062D

 85 88  0  0  1  0  0  0  0  0999 V2000
    9.0206    3.4261    0.0000 C   0  0  0  0  0  0  0  0  0  0  0  0
    4.6674    3.1122    0.0000 C   0  0  0  0  0  0  0  0  0  0  0  0
   10.9670    4.8497    0.0000 C   0  0  1  0  0  0  0  0  0  0  0  0
   11.6670    3.6373    0.0000 C   0  0  2  0  0  0  0  0  0  0  0  0
   11.6670    6.0621    0.0000 C   0  0  0  0  0  0  0  0  0  0  0  0
   13.0670    3.6373    0.0000 C   0  0  1  0  0  0  0  0  0  0  0  0
   10.9670    2.4248    0.0000 O   0  0  0  0  0  0  0  0  0  0  0  0
   13.7670    2.4248    0.0000 C   0  0  2  0  0  0  0  0  0  0  0  0
   13.7670    4.8497    0.0000 O   0  0  0  0  0  0  0  0  0  0  0  0
   15.1670    2.4248    0.0000 C   0  0  0  0  0  0  0  0  0  0  0  0
   13.0670    1.2124    0.0000 C   0  0  0  0  0  0  0  0  0  0  0  0
   15.8670    1.2124    0.0000 C   0  0  0  0  0  0  0  0  0  0  0  0
   15.8670    3.6373    0.0000 C   0  0  0  0  0  0  0  0  0  0  0  0
   13.7670    0.0000    0.0000 C   0  0  0  0  0  0  0  0  0  0  0  0
    1.8793    7.3983    0.0000 O   0  0  0  0  0  0  0  0  0  0  0  0
    2.0525    1.2075    0.0000 O   0  0  0  0  0  0  0  0  0  0  0  0
    0.0000    3.1121    0.0000 O   0  0  0  0  0  0  0  0  0  0  0  0
    6.0977    5.7710    0.0000 C   0  0  1  0  0  0  0  0  0  0  0  0
    7.4977    5.7710    0.0000 C   0  0  1  0  0  0  0  0  0  0  0  0
    5.3977    4.5587    0.0000 C   0  0  1  0  0  0  0  0  0  0  0  0
    5.5862    7.0743    0.0000 C   0  0  0  0  0  0  0  0  0  0  0  0
    8.1977    4.5587    0.0000 C   0  0  2  0  0  0  0  0  0  0  0  0
    8.4344    6.8114    0.0000 C   0  0  0  0  0  0  0  0  0  0  0  0
    4.0133    4.3500    0.0000 C   0  0  1  0  0  0  0  0  0  0  0  0
    6.0977    3.3462    0.0000 C   0  0  0  0  0  0  0  0  0  0  0  0
    4.2484    7.4869    0.0000 O   0  0  0  0  0  0  0  0  0  0  0  0
    9.5670    4.8497    0.0000 C   0  0  2  0  0  0  0  0  0  0  0  0
    7.4977    3.3462    0.0000 C   0  0  0  0  0  0  0  0  0  0  0  0
    9.7135    6.2420    0.0000 C   0  0  0  0  0  0  0  0  0  0  0  0
    2.9871    5.3022    0.0000 C   0  0  1  0  0  0  0  0  0  0  0  0
    3.7017    2.9851    0.0000 C   0  0  0  0  0  0  0  0  0  0  0  0
    3.0916    6.6983    0.0000 C   0  0  0  0  0  0  0  0  0  0  0  0
    1.6492    4.8895    0.0000 C   0  0  0  0  0  0  0  0  0  0  0  0
    2.3641    2.5723    0.0000 C   0  0  2  0  0  0  0  0  0  0  0  0
    1.3377    3.5246    0.0000 C   0  0  1  0  0  0  0  0  0  0  0  0
    8.5854    2.4486    0.0000 H   0  0  0  0  0  0  0  0  0  0  0  0
   10.0847    3.5380    0.0000 H   0  0  0  0  0  0  0  0  0  0  0  0
    9.6495    2.5605    0.0000 H   0  0  0  0  0  0  0  0  0  0  0  0
    4.0981    2.2062    0.0000 H   0  0  0  0  0  0  0  0  0  0  0  0
    5.7366    3.0721    0.0000 H   0  0  0  0  0  0  0  0  0  0  0  0
    5.1673    2.1662    0.0000 H   0  0  0  0  0  0  0  0  0  0  0  0
   12.0370    4.8497    0.0000 H   0  0  0  0  0  0  0  0  0  0  0  0
   10.5970    3.6373    0.0000 H   0  0  0  0  0  0  0  0  0  0  0  0
   12.7370    6.0621    0.0000 H   0  0  0  0  0  0  0  0  0  0  0  0
   11.1320    6.9888    0.0000 H   0  0  0  0  0  0  0  0  0  0  0  0
   12.2020    6.9887    0.0000 H   0  0  0  0  0  0  0  0  0  0  0  0
   12.5320    4.5640    0.0000 H   0  0  0  0  0  0  0  0  0  0  0  0
    9.9970    2.4248    0.0000 H   0  0  0  0  0  0  0  0  0  0  0  0
   12.6970    2.4248    0.0000 H   0  0  0  0  0  0  0  0  0  0  0  0
   14.7370    4.8497    0.0000 H   0  0  0  0  0  0  0  0  0  0  0  0
   16.2370    2.4248    0.0000 H   0  0  0  0  0  0  0  0  0  0  0  0
   11.9970    1.2124    0.0000 H   0  0  0  0  0  0  0  0  0  0  0  0
   12.5320    0.2857    0.0000 H   0  0  0  0  0  0  0  0  0  0  0  0
   15.3320    0.2857    0.0000 H   0  0  0  0  0  0  0  0  0  0  0  0
   16.9370    1.2124    0.0000 H   0  0  0  0  0  0  0  0  0  0  0  0
   16.4020    0.2858    0.0000 H   0  0  0  0  0  0  0  0  0  0  0  0
   16.9370    3.6373    0.0000 H   0  0  0  0  0  0  0  0  0  0  0  0
   15.3320    4.5639    0.0000 H   0  0  0  0  0  0  0  0  0  0  0  0
   16.4020    4.5640    0.0000 H   0  0  0  0  0  0  0  0  0  0  0  0
   13.2320   -0.9267    0.0000 H   0  0  0  0  0  0  0  0  0  0  0  0
   14.8370    0.0000    0.0000 H   0  0  0  0  0  0  0  0  0  0  0  0
   14.3020   -0.9266    0.0000 H   0  0  0  0  0  0  0  0  0  0  0  0
    1.1256    0.9216    0.0000 H   0  0  0  0  0  0  0  0  0  0  0  0
   -0.7110    3.7719    0.0000 H   0  0  0  0  0  0  0  0  0  0  0  0
    6.7005    6.6551    0.0000 H   0  0  0  0  0  0  0  0  0  0  0  0
    7.0625    6.7485    0.0000 H   0  0  0  0  0  0  0  0  0  0  0  0
    6.4677    4.5587    0.0000 H   0  0  0  0  0  0  0  0  0  0  0  0
    6.3140    7.8587    0.0000 H   0  0  0  0  0  0  0  0  0  0  0  0
    5.3092    8.1078    0.0000 H   0  0  0  0  0  0  0  0  0  0  0  0
    8.2119    7.8580    0.0000 H   0  0  0  0  0  0  0  0  0  0  0  0
    9.2659    7.4848    0.0000 H   0  0  0  0  0  0  0  0  0  0  0  0
    5.5627    2.4196    0.0000 H   0  0  0  0  0  0  0  0  0  0  0  0
    6.6327    2.4195    0.0000 H   0  0  0  0  0  0  0  0  0  0  0  0
    8.7719    5.5657    0.0000 H   0  0  0  0  0  0  0  0  0  0  0  0
    8.0327    2.4196    0.0000 H   0  0  0  0  0  0  0  0  0  0  0  0
    6.9627    2.4195    0.0000 H   0  0  0  0  0  0  0  0  0  0  0  0
   10.6402    6.7770    0.0000 H   0  0  0  0  0  0  0  0  0  0  0  0
   10.6108    5.6592    0.0000 H   0  0  0  0  0  0  0  0  0  0  0  0
    2.7490    4.2590    0.0000 H   0  0  0  0  0  0  0  0  0  0  0  0
    4.4861    2.2574    0.0000 H   0  0  0  0  0  0  0  0  0  0  0  0
    3.4637    1.9419    0.0000 H   0  0  0  0  0  0  0  0  0  0  0  0
    0.8648    5.6173    0.0000 H   0  0  0  0  0  0  0  0  0  0  0  0
    0.6267    4.5741    0.0000 H   0  0  0  0  0  0  0  0  0  0  0  0
    3.1485    1.8445    0.0000 H   0  0  0  0  0  0  0  0  0  0  0  0
    0.5534    4.2524    0.0000 H   0  0  0  0  0  0  0  0  0  0  0  0
  1 36  1  0  0  0  0
  1 37  1  0  0  0  0
  1 38  1  0  0  0  0
  2 39  1  0  0  0  0
  2 40  1  0  0  0  0
  2 41  1  0  0  0  0
  3  4  1  0  0  0  0
  3  5  1  0  0  0  0
  3 42  1  1  0  0  0
  4  6  1  0  0  0  0
  4  7  1  0  0  0  0
  4 43  1  1  0  0  0
  5 44  1  0  0  0  0
  5 45  1  0  0  0  0
  5 46  1  0  0  0  0
  6  8  1  0  0  0  0
  6  9  1  0  0  0  0
  6 47  1  1  0  0  0
  7 48  1  0  0  0  0
  8 10  1  0  0  0  0
  8 11  1  0  0  0  0
  8 49  1  1  0  0  0
  9 50  1  0  0  0  0
 10 12  1  0  0  0  0
 10 13  1  0  0  0  0
 10 51  1  0  0  0  0
 11 14  1  0  0  0  0
 11 52  1  0  0  0  0
 11 53  1  0  0  0  0
 12 54  1  0  0  0  0
 12 55  1  0  0  0  0
 12 56  1  0  0  0  0
 13 57  1  0  0  0  0
 13 58  1  0  0  0  0
 13 59  1  0  0  0  0
 14 60  1  0  0  0  0
 14 61  1  0  0  0  0
 14 62  1  0  0  0  0
 15 32  2  0  0  0  0
 16 63  1  0  0  0  0
 17 64  1  0  0  0  0
 18 19  1  0  0  0  0
 18 20  1  0  0  0  0
 18 21  1  0  0  0  0
 18 65  1  6  0  0  0
 19 22  1  0  0  0  0
 19 23  1  0  0  0  0
 19 66  1  1  0  0  0
 20 24  1  0  0  0  0
 20 25  1  0  0  0  0
 20 67  1  1  0  0  0
 21 26  1  0  0  0  0
 21 68  1  0  0  0  0
 21 69  1  0  0  0  0
 22  1  1  6  0  0  0
 22 27  1  0  0  0  0
 22 28  1  0  0  0  0
 23 29  1  0  0  0  0
 23 70  1  0  0  0  0
 23 71  1  0  0  0  0
 24  2  1  6  0  0  0
 24 30  1  0  0  0  0
 24 31  1  0  0  0  0
 25 28  1  0  0  0  0
 25 72  1  0  0  0  0
 25 73  1  0  0  0  0
 26 32  1  0  0  0  0
 27  3  1  0  0  0  0
 27 29  1  0  0  0  0
 27 74  1  1  0  0  0
 28 75  1  0  0  0  0
 28 76  1  0  0  0  0
 29 77  1  0  0  0  0
 29 78  1  0  0  0  0
 30 32  1  0  0  0  0
 30 33  1  0  0  0  0
 30 79  1  1  0  0  0
 31 34  1  0  0  0  0
 31 80  1  0  0  0  0
 31 81  1  0  0  0  0
 33 35  1  0  0  0  0
 33 82  1  0  0  0  0
 33 83  1  0  0  0  0
 34 16  1  0  0  0  0
 34 35  1  0  0  0  0
 34 84  1  6  0  0  0
 35 17  1  0  0  0  0
 35 85  1  6  0  0  0
M  END
>  <Mol_ID>
10051

>  <Formula>
C29H50O6

>  <MolWeight>
494.7037

>  <Cat>
E5608

>  <Name>
6-Hydroxyluteolin 7-glucoside

>  <Synonyms>
N/A

>  <Target>
Immunology & Inflammation related

>  <Form>
free base

>  <CAS>
54300-65-1

>  <URL>
https://www.selleckchem.com/products/6-hydroxyluteolin-7-glucoside.html

$$$$
