6-Maleimidohexanoic acid N-hydroxysuccinimide est
 OpenBabel08302521383D

 38 39  0  0  0  0  0  0  0  0999 V2000
    2.4140   -1.0132   -1.3946 O   0  0  0  0  0  0  0  0  0  0  0  0
    2.2740   -2.0675   -0.5348 C   0  0  0  0  0  0  0  0  0  0  0  0
    0.8061   -2.3001   -0.2937 C   0  0  0  0  0  0  0  0  0  0  0  0
    3.1843   -2.8072   -0.1866 O   0  0  0  0  0  0  0  0  0  0  0  0
    0.5429   -3.0613    0.9953 C   0  0  0  0  0  0  0  0  0  0  0  0
   -0.9296   -3.4484    1.1491 C   0  0  0  0  0  0  0  0  0  0  0  0
   -1.4886   -4.3702    0.0576 C   0  0  0  0  0  0  0  0  0  0  0  0
   -0.7712   -5.7226   -0.0382 C   0  0  0  0  0  0  0  0  0  0  0  0
    1.8345   -2.8877   -3.4018 O   0  0  0  0  0  0  0  0  0  0  0  0
    5.0294    0.0892   -1.9749 O   0  0  0  0  0  0  0  0  0  0  0  0
    0.4838   -6.9443   -2.4352 O   0  0  0  0  0  0  0  0  0  0  0  0
   -3.4565   -6.9715   -0.1386 O   0  0  0  0  0  0  0  0  0  0  0  0
    3.2719   -1.3523   -2.4330 N   0  0  0  0  0  0  0  0  0  0  0  0
    2.8761   -2.2496   -3.3721 C   0  0  0  0  0  0  0  0  0  0  0  0
    4.4779   -0.7755   -2.6327 C   0  0  0  0  0  0  0  0  0  0  0  0
    3.9356   -2.2929   -4.4249 C   0  0  0  0  0  0  0  0  0  0  0  0
    5.0562   -1.4176   -3.8697 C   0  0  0  0  0  0  0  0  0  0  0  0
   -1.3564   -6.5757   -1.0553 N   0  0  0  0  0  0  0  0  0  0  0  0
   -0.6838   -7.0821   -2.1202 C   0  0  0  0  0  0  0  0  0  0  0  0
   -2.6055   -7.1022   -0.9982 C   0  0  0  0  0  0  0  0  0  0  0  0
   -1.6320   -7.9137   -2.8704 C   0  0  0  0  0  0  0  0  0  0  0  0
   -2.7831   -7.9253   -2.1973 C   0  0  0  0  0  0  0  0  0  0  0  0
    0.2794   -1.3399   -0.2749 H   0  0  0  0  0  0  0  0  0  0  0  0
    0.4495   -2.8668   -1.1594 H   0  0  0  0  0  0  0  0  0  0  0  0
    1.1750   -3.9541    1.0558 H   0  0  0  0  0  0  0  0  0  0  0  0
    0.8355   -2.4286    1.8426 H   0  0  0  0  0  0  0  0  0  0  0  0
   -1.0626   -3.9303    2.1248 H   0  0  0  0  0  0  0  0  0  0  0  0
   -1.5345   -2.5330    1.1696 H   0  0  0  0  0  0  0  0  0  0  0  0
   -2.5517   -4.5313    0.2742 H   0  0  0  0  0  0  0  0  0  0  0  0
   -1.4654   -3.8717   -0.9184 H   0  0  0  0  0  0  0  0  0  0  0  0
    0.2874   -5.5834   -0.2616 H   0  0  0  0  0  0  0  0  0  0  0  0
   -0.8541   -6.2479    0.9244 H   0  0  0  0  0  0  0  0  0  0  0  0
    4.2639   -3.3207   -4.5986 H   0  0  0  0  0  0  0  0  0  0  0  0
    3.5218   -1.8727   -5.3472 H   0  0  0  0  0  0  0  0  0  0  0  0
    5.9234   -2.0231   -3.5922 H   0  0  0  0  0  0  0  0  0  0  0  0
    5.3513   -0.6538   -4.5933 H   0  0  0  0  0  0  0  0  0  0  0  0
   -1.3854   -8.4129   -3.7909 H   0  0  0  0  0  0  0  0  0  0  0  0
   -3.6993   -8.4341   -2.4369 H   0  0  0  0  0  0  0  0  0  0  0  0
  1  2  1  0  0  0  0
  1 13  1  0  0  0  0
  2  3  1  0  0  0  0
  2  4  2  0  0  0  0
  3  5  1  0  0  0  0
  3 23  1  0  0  0  0
  3 24  1  0  0  0  0
  5  6  1  0  0  0  0
  5 25  1  0  0  0  0
  5 26  1  0  0  0  0
  6  7  1  0  0  0  0
  6 27  1  0  0  0  0
  6 28  1  0  0  0  0
  7  8  1  0  0  0  0
  7 29  1  0  0  0  0
  7 30  1  0  0  0  0
  8 18  1  0  0  0  0
  8 31  1  0  0  0  0
  8 32  1  0  0  0  0
  9 14  2  0  0  0  0
 10 15  2  0  0  0  0
 11 19  2  0  0  0  0
 12 20  2  0  0  0  0
 13 14  1  0  0  0  0
 13 15  1  0  0  0  0
 14 16  1  0  0  0  0
 15 17  1  0  0  0  0
 16 17  1  0  0  0  0
 16 33  1  0  0  0  0
 16 34  1  0  0  0  0
 17 35  1  0  0  0  0
 17 36  1  0  0  0  0
 18 19  1  0  0  0  0
 18 20  1  0  0  0  0
 19 21  1  0  0  0  0
 20 22  1  0  0  0  0
 21 22  2  0  0  0  0
 21 37  1  0  0  0  0
 22 38  1  0  0  0  0
M  END
>  <Mol_ID>
7670

>  <Formula>
C14H16N2O6

>  <MolWeight>
308.28664

>  <Cat>
S0577

>  <Name>
6-Maleimidohexanoic acid N-hydroxysuccinimide est

>  <Synonyms>
EMCS

>  <Target>
Others

>  <Form>
free base

>  <CAS>
55750-63-5

>  <URL>
https://www.selleckchem.com/products/6-maleimidohexanoic-acid-n-hydroxysuccinimide-ester.html

$$$$
