6-Methyluracil
 OpenBabel08302521363D

 15 15  0  0  0  0  0  0  0  0999 V2000
    1.0545   -0.0272    0.0724 C   0  0  0  0  0  0  0  0  0  0  0  0
   -0.1011   -2.7967    3.8709 O   0  0  0  0  0  0  0  0  0  0  0  0
   -0.5300    1.7229    4.1613 O   0  0  0  0  0  0  0  0  0  0  0  0
    0.4713   -1.5159    1.9812 C   0  0  0  0  0  0  0  0  0  0  0  0
    0.5831   -0.2836    1.4705 C   0  0  0  0  0  0  0  0  0  0  0  0
   -0.0048   -1.6823    3.3685 C   0  0  0  0  0  0  0  0  0  0  0  0
    0.2379    0.8040    2.2333 N   0  0  0  0  0  0  0  0  0  0  0  0
   -0.3236   -0.5359    4.0344 N   0  0  0  0  0  0  0  0  0  0  0  0
   -0.2243    0.7234    3.5190 C   0  0  0  0  0  0  0  0  0  0  0  0
    0.6207    0.8933   -0.3329 H   0  0  0  0  0  0  0  0  0  0  0  0
    0.7674   -0.8434   -0.5994 H   0  0  0  0  0  0  0  0  0  0  0  0
    2.1445    0.0709    0.0531 H   0  0  0  0  0  0  0  0  0  0  0  0
    0.7240   -2.4163    1.4363 H   0  0  0  0  0  0  0  0  0  0  0  0
    0.3046    1.7428    1.8565 H   0  0  0  0  0  0  0  0  0  0  0  0
   -0.6549   -0.6222    4.9825 H   0  0  0  0  0  0  0  0  0  0  0  0
  1  5  1  0  0  0  0
  1 10  1  0  0  0  0
  1 11  1  0  0  0  0
  1 12  1  0  0  0  0
  2  6  2  0  0  0  0
  3  9  2  0  0  0  0
  4  5  2  0  0  0  0
  4  6  1  0  0  0  0
  4 13  1  0  0  0  0
  5  7  1  0  0  0  0
  6  8  1  0  0  0  0
  7  9  1  0  0  0  0
  7 14  1  0  0  0  0
  8  9  1  0  0  0  0
  8 15  1  0  0  0  0
M  END
>  <Mol_ID>
7255

>  <Formula>
C5H6N2O2

>  <MolWeight>
126.11334

>  <Cat>
E4269

>  <Name>
6-Methyluracil

>  <Synonyms>
Pseudothymine

>  <Target>
Others

>  <Form>
Free base

>  <CAS>
626-48-2

>  <URL>
https://www.selleckchem.com/products/6-methyluracil.html

$$$$
