6-Methoxydihydrosanguinarine
 OpenBabel08302521243D

 44 49  0  0  0  0  0  0  0  0999 V2000
   -5.0034   -1.1675   -0.1382 C   0  0  0  0  0  0  0  0  0  0  0  0
   -5.4531    0.1203   -0.0423 C   0  0  0  0  0  0  0  0  0  0  0  0
   -4.5763    1.1684    0.1070 C   0  0  0  0  0  0  0  0  0  0  0  0
   -3.1894    0.8829    0.1366 C   0  0  0  0  0  0  0  0  0  0  0  0
   -2.7128   -0.4477    0.0765 C   0  0  0  0  0  0  0  0  0  0  0  0
   -3.6639   -1.4798   -0.0664 C   0  0  0  0  0  0  0  0  0  0  0  0
   -6.0068   -2.0630   -0.3374 O   0  0  0  0  0  0  0  0  0  0  0  0
   -7.1292   -1.1696   -0.4711 C   0  0  0  0  0  0  0  0  0  0  0  0
   -6.8048    0.2023   -0.1556 O   0  0  0  0  0  0  0  0  0  0  0  0
   -2.2045    2.0305    0.1073 C   0  0  3  0  0  0  0  0  0  0  0  0
   -0.8142    1.6869    0.3852 N   0  0  0  0  0  0  0  0  0  0  0  0
   -0.3241    0.3899    0.1653 C   0  0  0  0  0  0  0  0  0  0  0  0
   -1.2515   -0.6955    0.1055 C   0  0  0  0  0  0  0  0  0  0  0  0
    1.0810    0.0905    0.0338 C   0  0  0  0  0  0  0  0  0  0  0  0
    1.5293   -1.2633    0.1445 C   0  0  0  0  0  0  0  0  0  0  0  0
    0.5991   -2.2949    0.1649 C   0  0  0  0  0  0  0  0  0  0  0  0
   -0.7537   -2.0140    0.0913 C   0  0  0  0  0  0  0  0  0  0  0  0
    2.0946    1.0440   -0.2421 C   0  0  0  0  0  0  0  0  0  0  0  0
    3.4200    0.6954   -0.1504 C   0  0  0  0  0  0  0  0  0  0  0  0
    3.8124   -0.5871    0.1153 C   0  0  0  0  0  0  0  0  0  0  0  0
    2.8862   -1.5994    0.2140 C   0  0  0  0  0  0  0  0  0  0  0  0
    4.4819    1.5413   -0.2738 O   0  0  0  0  0  0  0  0  0  0  0  0
    5.5359    0.6851    0.2101 C   0  0  0  0  0  0  0  0  0  0  0  0
    5.1561   -0.7084    0.2326 O   0  0  0  0  0  0  0  0  0  0  0  0
   -0.0265    2.7442    1.0145 C   0  0  0  0  0  0  0  0  0  0  0  0
   -2.2871    2.7744   -1.1153 O   0  0  0  0  0  0  0  0  0  0  0  0
   -2.0094    2.0033   -2.2790 C   0  0  0  0  0  0  0  0  0  0  0  0
   -4.9418    2.1897    0.1478 H   0  0  0  0  0  0  0  0  0  0  0  0
   -3.3933   -2.5226   -0.1616 H   0  0  0  0  0  0  0  0  0  0  0  0
   -7.4852   -1.2136   -1.5081 H   0  0  0  0  0  0  0  0  0  0  0  0
   -7.9309   -1.5136    0.1908 H   0  0  0  0  0  0  0  0  0  0  0  0
   -2.5473    2.7169    0.8936 H   0  0  0  0  0  0  0  0  0  0  0  0
    0.9161   -3.3344    0.1969 H   0  0  0  0  0  0  0  0  0  0  0  0
   -1.4176   -2.8726    0.0520 H   0  0  0  0  0  0  0  0  0  0  0  0
    1.8591    2.0502   -0.5573 H   0  0  0  0  0  0  0  0  0  0  0  0
    3.2226   -2.6206    0.3576 H   0  0  0  0  0  0  0  0  0  0  0  0
    5.7843    0.9951    1.2338 H   0  0  0  0  0  0  0  0  0  0  0  0
    6.4209    0.8058   -0.4207 H   0  0  0  0  0  0  0  0  0  0  0  0
    0.5957    2.3638    1.8327 H   0  0  0  0  0  0  0  0  0  0  0  0
    0.5893    3.2709    0.2816 H   0  0  0  0  0  0  0  0  0  0  0  0
   -0.6616    3.5250    1.4497 H   0  0  0  0  0  0  0  0  0  0  0  0
   -0.9936    1.5997   -2.2643 H   0  0  0  0  0  0  0  0  0  0  0  0
   -2.7353    1.1933   -2.3993 H   0  0  0  0  0  0  0  0  0  0  0  0
   -2.0983    2.6565   -3.1485 H   0  0  0  0  0  0  0  0  0  0  0  0
  1  2  1  0  0  0  0
  1  7  1  0  0  0  0
  2  3  2  0  0  0  0
  3  4  1  0  0  0  0
  3 28  1  0  0  0  0
  4  5  2  0  0  0  0
  4 10  1  0  0  0  0
  5  6  1  0  0  0  0
  6  1  2  0  0  0  0
  6 29  1  0  0  0  0
  7  8  1  0  0  0  0
  8  9  1  0  0  0  0
  8 30  1  0  0  0  0
  8 31  1  0  0  0  0
  9  2  1  0  0  0  0
 10 11  1  0  0  0  0
 10 26  1  0  0  0  0
 10 32  1  0  0  0  0
 11 12  1  0  0  0  0
 11 25  1  0  0  0  0
 12 13  2  0  0  0  0
 12 14  1  0  0  0  0
 13  5  1  0  0  0  0
 14 15  2  0  0  0  0
 14 18  1  0  0  0  0
 15 16  1  0  0  0  0
 16 17  2  0  0  0  0
 16 33  1  0  0  0  0
 17 13  1  0  0  0  0
 17 34  1  0  0  0  0
 18 19  2  0  0  0  0
 18 35  1  0  0  0  0
 19 20  1  0  0  0  0
 19 22  1  0  0  0  0
 20 21  2  0  0  0  0
 21 15  1  0  0  0  0
 21 36  1  0  0  0  0
 22 23  1  0  0  0  0
 23 24  1  0  0  0  0
 23 37  1  0  0  0  0
 23 38  1  0  0  0  0
 24 20  1  0  0  0  0
 25 39  1  0  0  0  0
 25 40  1  0  0  0  0
 25 41  1  0  0  0  0
 26 27  1  0  0  0  0
 27 42  1  0  0  0  0
 27 43  1  0  0  0  0
 27 44  1  0  0  0  0
M  END
>  <Mol_ID>
5091

>  <Formula>
C21H17NO5

>  <MolWeight>
363.36338

>  <Cat>
S0906

>  <Name>
6-Methoxydihydrosanguinarine

>  <Synonyms>
6-Methoxy Dihydrosanguinarine

>  <Target>
Bacterial

>  <Form>
free base

>  <CAS>
72401-54-8

>  <URL>
https://www.selleckchem.com/products/6-methoxydihydroavicine.html

$$$$
