6-Methylnicotinamide
 OpenBabel08302521363D

 18 18  0  0  0  0  0  0  0  0999 V2000
    0.9483   -0.0580   -0.0272 C   0  0  0  0  0  0  0  0  0  0  0  0
    0.2546    1.1204   -0.0236 N   0  0  0  0  0  0  0  0  0  0  0  0
    0.3401   -1.1223   -0.0281 O   0  0  0  0  0  0  0  0  0  0  0  0
    6.6918    0.0814   -0.0705 C   0  0  0  0  0  0  0  0  0  0  0  0
    2.4313   -0.0239   -0.0318 C   0  0  0  0  0  0  0  0  0  0  0  0
    3.1396   -1.2279   -0.0370 C   0  0  0  0  0  0  0  0  0  0  0  0
    3.1747    1.1463   -0.0343 C   0  0  0  0  0  0  0  0  0  0  0  0
    4.5349   -1.2155   -0.0468 C   0  0  0  0  0  0  0  0  0  0  0  0
    4.5318    1.1895   -0.0443 N   0  0  0  0  0  0  0  0  0  0  0  0
    5.1951    0.0087   -0.0518 C   0  0  0  0  0  0  0  0  0  0  0  0
   -0.7556    1.0474   -0.0240 H   0  0  0  0  0  0  0  0  0  0  0  0
    0.6515    2.0464   -0.0255 H   0  0  0  0  0  0  0  0  0  0  0  0
    7.0252    0.6118   -0.9680 H   0  0  0  0  0  0  0  0  0  0  0  0
    7.0485    0.6199    0.8129 H   0  0  0  0  0  0  0  0  0  0  0  0
    7.1479   -0.9135   -0.0721 H   0  0  0  0  0  0  0  0  0  0  0  0
    2.6090   -2.1780   -0.0348 H   0  0  0  0  0  0  0  0  0  0  0  0
    2.7175    2.1284   -0.0294 H   0  0  0  0  0  0  0  0  0  0  0  0
    5.0863   -2.1503   -0.0520 H   0  0  0  0  0  0  0  0  0  0  0  0
  1  2  1  0  0  0  0
  1  3  2  0  0  0  0
  1  5  1  0  0  0  0
  2 11  1  0  0  0  0
  2 12  1  0  0  0  0
  4 10  1  0  0  0  0
  4 13  1  0  0  0  0
  4 14  1  0  0  0  0
  4 15  1  0  0  0  0
  5  6  2  0  0  0  0
  5  7  1  0  0  0  0
  6  8  1  0  0  0  0
  6 16  1  0  0  0  0
  7  9  2  0  0  0  0
  7 17  1  0  0  0  0
  8 10  2  0  0  0  0
  8 18  1  0  0  0  0
  9 10  1  0  0  0  0
M  END
>  <Mol_ID>
7200

>  <Formula>
C7H8N2O

>  <MolWeight>
136.15122

>  <Cat>
E4200

>  <Name>
6-Methylnicotinamide

>  <Synonyms>
6-Methylpyridine-3-carboxamide

>  <Target>
Others

>  <Form>
Free base

>  <CAS>
6960-22-1

>  <URL>
https://www.selleckchem.com/products/6-methylnicotinamide.html

$$$$
