6-Methoxyflavone
 OpenBabel08302521363D

 31 33  0  0  0  0  0  0  0  0999 V2000
   -1.8070    1.9793    0.0907 O   0  0  0  0  0  0  0  0  0  0  0  0
    3.3771    2.0902   -0.0349 O   0  0  0  0  0  0  0  0  0  0  0  0
    3.0248    3.4694   -0.0572 C   0  0  0  0  0  0  0  0  0  0  0  0
    0.0365    0.5025    0.0448 C   0  0  0  0  0  0  0  0  0  0  0  0
    0.4185   -0.8333    0.0435 C   0  0  0  0  0  0  0  0  0  0  0  0
    0.9878    1.5239    0.0208 C   0  0  0  0  0  0  0  0  0  0  0  0
   -1.3961    0.8271    0.0527 C   0  0  0  0  0  0  0  0  0  0  0  0
   -0.4852   -1.8646    0.0373 O   0  0  0  0  0  0  0  0  0  0  0  0
    1.7693   -1.1662    0.0341 C   0  0  0  0  0  0  0  0  0  0  0  0
    2.3429    1.1961   -0.0002 C   0  0  0  0  0  0  0  0  0  0  0  0
   -2.3233   -0.3069   -0.0077 C   0  0  0  0  0  0  0  0  0  0  0  0
   -1.8375   -1.5560   -0.0235 C   0  0  0  0  0  0  0  0  0  0  0  0
    2.7263   -0.1476    0.0108 C   0  0  0  0  0  0  0  0  0  0  0  0
   -2.7216   -2.7326   -0.1370 C   0  0  0  0  0  0  0  0  0  0  0  0
   -2.2624   -3.9005   -0.7653 C   0  0  0  0  0  0  0  0  0  0  0  0
   -4.0237   -2.7266    0.3874 C   0  0  0  0  0  0  0  0  0  0  0  0
   -3.0795   -5.0277   -0.8662 C   0  0  0  0  0  0  0  0  0  0  0  0
   -4.8402   -3.8532    0.2857 C   0  0  0  0  0  0  0  0  0  0  0  0
   -4.3666   -5.0046   -0.3372 C   0  0  0  0  0  0  0  0  0  0  0  0
    2.4547    3.7156   -0.9595 H   0  0  0  0  0  0  0  0  0  0  0  0
    2.4745    3.7498    0.8471 H   0  0  0  0  0  0  0  0  0  0  0  0
    3.9504    4.0518   -0.0782 H   0  0  0  0  0  0  0  0  0  0  0  0
    0.6438    2.5525    0.0097 H   0  0  0  0  0  0  0  0  0  0  0  0
    2.0801   -2.2078    0.0374 H   0  0  0  0  0  0  0  0  0  0  0  0
   -3.3740   -0.0578   -0.0618 H   0  0  0  0  0  0  0  0  0  0  0  0
    3.7837   -0.4066   -0.0043 H   0  0  0  0  0  0  0  0  0  0  0  0
   -1.2607   -3.9432   -1.1904 H   0  0  0  0  0  0  0  0  0  0  0  0
   -4.4199   -1.8496    0.8935 H   0  0  0  0  0  0  0  0  0  0  0  0
   -2.7082   -5.9245   -1.3554 H   0  0  0  0  0  0  0  0  0  0  0  0
   -5.8441   -3.8300    0.7014 H   0  0  0  0  0  0  0  0  0  0  0  0
   -5.0010   -5.8828   -0.4064 H   0  0  0  0  0  0  0  0  0  0  0  0
  1  7  2  0  0  0  0
  2  3  1  0  0  0  0
  2 10  1  0  0  0  0
  3 20  1  0  0  0  0
  3 21  1  0  0  0  0
  3 22  1  0  0  0  0
  4  5  1  0  0  0  0
  4  6  2  0  0  0  0
  4  7  1  0  0  0  0
  5  8  1  0  0  0  0
  5  9  2  0  0  0  0
  6 10  1  0  0  0  0
  6 23  1  0  0  0  0
  7 11  1  0  0  0  0
  8 12  1  0  0  0  0
  9 13  1  0  0  0  0
  9 24  1  0  0  0  0
 10 13  2  0  0  0  0
 11 12  2  0  0  0  0
 11 25  1  0  0  0  0
 12 14  1  0  0  0  0
 13 26  1  0  0  0  0
 14 15  2  0  0  0  0
 14 16  1  0  0  0  0
 15 17  1  0  0  0  0
 15 27  1  0  0  0  0
 16 18  2  0  0  0  0
 16 28  1  0  0  0  0
 17 19  2  0  0  0  0
 17 29  1  0  0  0  0
 18 19  1  0  0  0  0
 18 30  1  0  0  0  0
 19 31  1  0  0  0  0
M  END
>  <Mol_ID>
7287

>  <Formula>
C16H12O3

>  <MolWeight>
252.26468

>  <Cat>
E4315

>  <Name>
6-Methoxyflavone

>  <Synonyms>
6-Methoxyflavone

>  <Target>
Others

>  <Form>
free base

>  <CAS>
26964-24-9

>  <URL>
https://www.selleckchem.com/products/6-methoxyflavone.html

$$$$
