6-OAU
 OpenBabel08302521273D

 38 38  0  0  0  0  0  0  0  0999 V2000
   -3.1727   -2.2015    4.4183 O   0  0  0  0  0  0  0  0  0  0  0  0
   -5.6366    0.3015    1.5379 O   0  0  0  0  0  0  0  0  0  0  0  0
   -2.4882   -2.7831   -0.1376 N   0  0  0  0  0  0  0  0  0  0  0  0
   -2.8618   -2.4330    2.1892 N   0  0  0  0  0  0  0  0  0  0  0  0
   -4.4095   -0.9285    3.0030 N   0  0  0  0  0  0  0  0  0  0  0  0
   -0.5475   -6.7208    0.0080 C   0  0  0  0  0  0  0  0  0  0  0  0
   -0.4040   -5.7823   -1.1984 C   0  0  0  0  0  0  0  0  0  0  0  0
   -1.9012   -7.4409    0.0433 C   0  0  0  0  0  0  0  0  0  0  0  0
   -1.4560   -4.6725   -1.2600 C   0  0  0  0  0  0  0  0  0  0  0  0
   -2.0286   -8.3556    1.2624 C   0  0  0  0  0  0  0  0  0  0  0  0
   -1.4281   -3.7637   -0.0334 C   0  0  0  0  0  0  0  0  0  0  0  0
   -3.3838   -9.0671    1.2975 C   0  0  0  0  0  0  0  0  0  0  0  0
   -3.5042   -9.9747    2.5128 C   0  0  0  0  0  0  0  0  0  0  0  0
   -3.1375   -2.1365    0.8861 C   0  0  0  0  0  0  0  0  0  0  0  0
   -4.0727   -1.2080    0.6377 C   0  0  0  0  0  0  0  0  0  0  0  0
   -3.4656   -1.8706    3.2728 C   0  0  0  0  0  0  0  0  0  0  0  0
   -4.7719   -0.5441    1.7537 C   0  0  0  0  0  0  0  0  0  0  0  0
   -2.7670   -2.5221   -1.0792 H   0  0  0  0  0  0  0  0  0  0  0  0
   -2.1703   -3.1329    2.4066 H   0  0  0  0  0  0  0  0  0  0  0  0
   -4.8733   -0.4972    3.7880 H   0  0  0  0  0  0  0  0  0  0  0  0
    0.2634   -7.4583   -0.0241 H   0  0  0  0  0  0  0  0  0  0  0  0
   -0.4011   -6.1587    0.9373 H   0  0  0  0  0  0  0  0  0  0  0  0
   -0.4603   -6.3707   -2.1225 H   0  0  0  0  0  0  0  0  0  0  0  0
    0.5951   -5.3285   -1.1811 H   0  0  0  0  0  0  0  0  0  0  0  0
   -2.7166   -6.7104    0.0747 H   0  0  0  0  0  0  0  0  0  0  0  0
   -2.0256   -8.0250   -0.8763 H   0  0  0  0  0  0  0  0  0  0  0  0
   -2.4558   -5.1094   -1.3678 H   0  0  0  0  0  0  0  0  0  0  0  0
   -1.2984   -4.0753   -2.1666 H   0  0  0  0  0  0  0  0  0  0  0  0
   -1.2226   -9.0979    1.2483 H   0  0  0  0  0  0  0  0  0  0  0  0
   -1.9089   -7.7614    2.1767 H   0  0  0  0  0  0  0  0  0  0  0  0
   -0.4579   -3.2612    0.0536 H   0  0  0  0  0  0  0  0  0  0  0  0
   -1.5734   -4.3654    0.8674 H   0  0  0  0  0  0  0  0  0  0  0  0
   -4.1935   -8.3280    1.3230 H   0  0  0  0  0  0  0  0  0  0  0  0
   -3.5196   -9.6630    0.3874 H   0  0  0  0  0  0  0  0  0  0  0  0
   -3.4062   -9.4013    3.4402 H   0  0  0  0  0  0  0  0  0  0  0  0
   -4.4799  -10.4710    2.5234 H   0  0  0  0  0  0  0  0  0  0  0  0
   -2.7307  -10.7494    2.5050 H   0  0  0  0  0  0  0  0  0  0  0  0
   -4.3611   -0.9048   -0.3608 H   0  0  0  0  0  0  0  0  0  0  0  0
  1 16  2  0  0  0  0
  2 17  2  0  0  0  0
  3 11  1  0  0  0  0
  3 14  1  0  0  0  0
  3 18  1  0  0  0  0
  4 14  1  0  0  0  0
  4 16  1  0  0  0  0
  4 19  1  0  0  0  0
  5 16  1  0  0  0  0
  5 17  1  0  0  0  0
  5 20  1  0  0  0  0
  6  7  1  0  0  0  0
  6  8  1  0  0  0  0
  6 21  1  0  0  0  0
  6 22  1  0  0  0  0
  7  9  1  0  0  0  0
  7 23  1  0  0  0  0
  7 24  1  0  0  0  0
  8 10  1  0  0  0  0
  8 25  1  0  0  0  0
  8 26  1  0  0  0  0
  9 11  1  0  0  0  0
  9 27  1  0  0  0  0
  9 28  1  0  0  0  0
 10 12  1  0  0  0  0
 10 29  1  0  0  0  0
 10 30  1  0  0  0  0
 11 31  1  0  0  0  0
 11 32  1  0  0  0  0
 12 13  1  0  0  0  0
 12 33  1  0  0  0  0
 12 34  1  0  0  0  0
 13 35  1  0  0  0  0
 13 36  1  0  0  0  0
 13 37  1  0  0  0  0
 14 15  2  0  0  0  0
 15 17  1  0  0  0  0
 15 38  1  0  0  0  0
M  END
>  <Mol_ID>
5358

>  <Formula>
C12H21N3O2

>  <MolWeight>
239.31404

>  <Cat>
S0208

>  <Name>
6-OAU

>  <Synonyms>
GTPL5846, 6-n-octylaminouracil

>  <Target>
GPR

>  <Form>
Free Base

>  <CAS>
83797-69-7

>  <URL>
https://www.selleckchem.com/products/gtpl5846.html

$$$$
