6-Thio-dG.cdx
 OpenBabel08302519593D

 32 34  0  0  0  0  0  0  0  0999 V2000
   -2.1536   -0.7759   -0.2473 N   0  0  0  0  0  0  0  0  0  0  0  0
   -2.1076    0.5232   -0.1837 C   0  0  0  0  0  0  0  0  0  0  0  0
   -0.9735    1.2789   -0.0572 N   0  0  0  0  0  0  0  0  0  0  0  0
    0.1971    0.6320   -0.0179 C   0  0  0  0  0  0  0  0  0  0  0  0
    0.2788   -0.7366   -0.0628 C   0  0  0  0  0  0  0  0  0  0  0  0
   -0.9653   -1.5052   -0.1467 C   0  0  0  0  0  0  0  0  0  0  0  0
   -0.8572   -3.1743   -0.1172 S   0  0  0  0  0  0  0  0  0  0  0  0
   -3.2319    1.2702   -0.2981 N   0  0  0  0  0  0  0  0  0  0  0  0
    1.4637    1.1153    0.0485 N   0  0  0  0  0  0  0  0  0  0  0  0
    2.2822    0.0098    0.0576 C   0  0  0  0  0  0  0  0  0  0  0  0
    1.6017   -1.1189   -0.0139 N   0  0  0  0  0  0  0  0  0  0  0  0
    1.9160    2.4892    0.0564 C   0  0  1  0  0  0  0  0  0  0  0  0
    1.5439    3.3091   -1.1695 C   0  0  0  0  0  0  0  0  0  0  0  0
    1.4823    4.7101   -0.6080 C   0  0  1  0  0  0  0  0  0  0  0  0
    1.0251    4.5194    0.8384 C   0  0  2  0  0  0  0  0  0  0  0  0
    1.3764    3.1668    1.2070 O   0  0  0  0  0  0  0  0  0  0  0  0
   -0.4797    4.7275    1.0506 C   0  0  0  0  0  0  0  0  0  0  0  0
   -1.2685    3.9204    0.1744 O   0  0  0  0  0  0  0  0  0  0  0  0
    2.7894    5.2874   -0.6617 O   0  0  0  0  0  0  0  0  0  0  0  0
   -1.0715    2.2859    0.0710 H   0  0  0  0  0  0  0  0  0  0  0  0
   -3.2549    2.1036    0.2770 H   0  0  0  0  0  0  0  0  0  0  0  0
   -4.0691    0.7006   -0.1944 H   0  0  0  0  0  0  0  0  0  0  0  0
    3.3617    0.0826    0.1141 H   0  0  0  0  0  0  0  0  0  0  0  0
    3.0061    2.4798    0.1818 H   0  0  0  0  0  0  0  0  0  0  0  0
    0.5652    3.0236   -1.5672 H   0  0  0  0  0  0  0  0  0  0  0  0
    2.2785    3.1857   -1.9717 H   0  0  0  0  0  0  0  0  0  0  0  0
    0.8257    5.3671   -1.1843 H   0  0  0  0  0  0  0  0  0  0  0  0
    1.5660    5.1872    1.5184 H   0  0  0  0  0  0  0  0  0  0  0  0
   -0.7538    4.4393    2.0708 H   0  0  0  0  0  0  0  0  0  0  0  0
   -0.7568    5.7762    0.9018 H   0  0  0  0  0  0  0  0  0  0  0  0
   -1.4435    4.4559   -0.6229 H   0  0  0  0  0  0  0  0  0  0  0  0
    3.3408    4.9232    0.0549 H   0  0  0  0  0  0  0  0  0  0  0  0
  1  2  2  0  0  0  0
  2  3  1  0  0  0  0
  2  8  1  0  0  0  0
  3  4  1  0  0  0  0
  3 20  1  0  0  0  0
  4  5  2  0  0  0  0
  4  9  1  0  0  0  0
  5  6  1  0  0  0  0
  6  1  1  0  0  0  0
  6  7  2  0  0  0  0
  8 21  1  0  0  0  0
  8 22  1  0  0  0  0
  9 10  1  0  0  0  0
 10 11  2  0  0  0  0
 10 23  1  0  0  0  0
 11  5  1  0  0  0  0
 12  9  1  0  0  0  0
 12 13  1  0  0  0  0
 12 24  1  1  0  0  0
 13 14  1  0  0  0  0
 13 25  1  0  0  0  0
 13 26  1  0  0  0  0
 14 15  1  0  0  0  0
 14 19  1  0  0  0  0
 14 27  1  6  0  0  0
 15 16  1  0  0  0  0
 15 28  1  1  0  0  0
 15 17  1  0  0  0  0
 16 12  1  0  0  0  0
 17 18  1  0  0  0  0
 17 29  1  0  0  0  0
 17 30  1  0  0  0  0
 18 31  1  0  0  0  0
 19 32  1  0  0  0  0
M  END
>  <Mol_ID>
2625

>  <Formula>
C10H13N5O3S

>  <MolWeight>
283.30692

>  <Cat>
S7757

>  <Name>
6-Thio-dG

>  <Synonyms>
¦Â-TGdR

>  <Target>
DNA/RNA Synthesis

>  <Form>
free base

>  <CAS>
789-61-7

>  <URL>
http://selleckchem.com/products/6-thio-dg.html

$$$$
