7,8-Dimethoxy-4H-chromen-4-one
 OpenBabel08302521333D

 25 26  0  0  0  0  0  0  0  0999 V2000
    0.9664   -0.0545   -0.0355 O   0  0  0  0  0  0  0  0  0  0  0  0
    0.1225    1.0850   -0.0424 C   0  0  0  0  0  0  0  0  0  0  0  0
    6.4120    2.6213    0.0345 O   0  0  0  0  0  0  0  0  0  0  0  0
    2.3040   -2.2698   -0.0244 O   0  0  0  0  0  0  0  0  0  0  0  0
    2.9965   -3.5115   -0.0171 C   0  0  0  0  0  0  0  0  0  0  0  0
    3.0430    1.3196   -0.0246 C   0  0  0  0  0  0  0  0  0  0  0  0
    4.4433    1.3016   -0.0035 C   0  0  0  0  0  0  0  0  0  0  0  0
    2.3333    0.1038   -0.0266 C   0  0  0  0  0  0  0  0  0  0  0  0
    2.3587    2.5132   -0.0463 O   0  0  0  0  0  0  0  0  0  0  0  0
    5.1494    0.0984    0.0078 C   0  0  0  0  0  0  0  0  0  0  0  0
    5.1885    2.5741    0.0074 C   0  0  0  0  0  0  0  0  0  0  0  0
    3.0559   -1.1179   -0.0168 C   0  0  0  0  0  0  0  0  0  0  0  0
    3.0623    3.6889   -0.0423 C   0  0  0  0  0  0  0  0  0  0  0  0
    4.4564   -1.1085   -0.0012 C   0  0  0  0  0  0  0  0  0  0  0  0
    4.3898    3.8056   -0.0165 C   0  0  0  0  0  0  0  0  0  0  0  0
    0.2675    1.6955    0.8544 H   0  0  0  0  0  0  0  0  0  0  0  0
    0.2497    1.6656   -0.9612 H   0  0  0  0  0  0  0  0  0  0  0  0
   -0.9149    0.7339   -0.0243 H   0  0  0  0  0  0  0  0  0  0  0  0
    3.6179   -3.6234   -0.9118 H   0  0  0  0  0  0  0  0  0  0  0  0
    3.5917   -3.6264    0.8950 H   0  0  0  0  0  0  0  0  0  0  0  0
    2.2519   -4.3136   -0.0294 H   0  0  0  0  0  0  0  0  0  0  0  0
    6.2378    0.0978    0.0221 H   0  0  0  0  0  0  0  0  0  0  0  0
    2.3893    4.5354   -0.0625 H   0  0  0  0  0  0  0  0  0  0  0  0
    5.0382   -2.0243    0.0054 H   0  0  0  0  0  0  0  0  0  0  0  0
    4.9084    4.7540   -0.0131 H   0  0  0  0  0  0  0  0  0  0  0  0
  1  2  1  0  0  0  0
  1  8  1  0  0  0  0
  2 16  1  0  0  0  0
  2 17  1  0  0  0  0
  2 18  1  0  0  0  0
  3 11  2  0  0  0  0
  4  5  1  0  0  0  0
  4 12  1  0  0  0  0
  5 19  1  0  0  0  0
  5 20  1  0  0  0  0
  5 21  1  0  0  0  0
  6  7  1  0  0  0  0
  6  8  2  0  0  0  0
  6  9  1  0  0  0  0
  7 10  2  0  0  0  0
  7 11  1  0  0  0  0
  8 12  1  0  0  0  0
  9 13  1  0  0  0  0
 10 14  1  0  0  0  0
 10 22  1  0  0  0  0
 11 15  1  0  0  0  0
 12 14  2  0  0  0  0
 13 15  2  0  0  0  0
 13 23  1  0  0  0  0
 14 24  1  0  0  0  0
 15 25  1  0  0  0  0
M  END
>  <Mol_ID>
6367

>  <Formula>
C11H10O4

>  <MolWeight>
206.1947

>  <Cat>
E0834

>  <Name>
7,8-Dimethoxy-4H-chromen-4-one

>  <Target>
Others

>  <Form>
free base

>  <CAS>
59887-97-7

>  <URL>
http://www.selleckchem.com/products/7-8-dimethoxy-4h-chromen-4-one.html

$$$$
