7-Aminocephalosporanic acid.cdx
 OpenBabel08302521403D

 30 31  0  0  0  0  0  0  0  0999 V2000
    0.5307    0.6480   -0.2911 N   0  0  0  0  0  0  0  0  0  0  0  0
    0.6110   -0.7964   -0.4903 C   0  0  2  0  0  0  0  0  0  0  0  0
   -0.6145   -1.6551    0.5315 S   0  0  0  0  0  0  0  0  0  0  0  0
   -1.9999   -0.7473   -0.1813 C   0  0  0  0  0  0  0  0  0  0  0  0
   -1.8299    0.7483   -0.0424 C   0  0  0  0  0  0  0  0  0  0  0  0
   -0.6254    1.3781   -0.1350 C   0  0  0  0  0  0  0  0  0  0  0  0
    1.7923    0.8021    0.1757 C   0  0  0  0  0  0  0  0  0  0  0  0
    2.0756   -0.7279    0.0609 C   0  0  1  0  0  0  0  0  0  0  0  0
   -0.5930    2.8925   -0.1205 C   0  0  0  0  0  0  0  0  0  0  0  0
    0.5555    3.4911    0.2405 O   0  0  0  0  0  0  0  0  0  0  0  0
   -1.5415    3.5749   -0.4883 O   0  0  0  0  0  0  0  0  0  0  0  0
   -3.1436    1.4428    0.2810 C   0  0  0  0  0  0  0  0  0  0  0  0
   -3.0531    2.1516    1.5279 O   0  0  0  0  0  0  0  0  0  0  0  0
   -3.3133    1.4354    2.6512 C   0  0  0  0  0  0  0  0  0  0  0  0
   -3.3131    2.3232    3.8603 C   0  0  0  0  0  0  0  0  0  0  0  0
   -3.5602    0.2360    2.6845 O   0  0  0  0  0  0  0  0  0  0  0  0
    2.3419    1.7697    0.6536 O   0  0  0  0  0  0  0  0  0  0  0  0
    2.2463   -1.4063    1.3679 N   0  0  0  0  0  0  0  0  0  0  0  0
    0.5689   -1.0583   -1.5548 H   0  0  0  0  0  0  0  0  0  0  0  0
   -2.8957   -1.1082    0.3315 H   0  0  0  0  0  0  0  0  0  0  0  0
   -2.1133   -1.0020   -1.2420 H   0  0  0  0  0  0  0  0  0  0  0  0
    2.8576   -0.9707   -0.6643 H   0  0  0  0  0  0  0  0  0  0  0  0
    1.3040    2.9191    0.5187 H   0  0  0  0  0  0  0  0  0  0  0  0
   -3.4201    2.1494   -0.5079 H   0  0  0  0  0  0  0  0  0  0  0  0
   -3.9860    0.7405    0.3214 H   0  0  0  0  0  0  0  0  0  0  0  0
   -4.3386    2.5876    4.1128 H   0  0  0  0  0  0  0  0  0  0  0  0
   -2.8408    1.7992    4.6942 H   0  0  0  0  0  0  0  0  0  0  0  0
   -2.7390    3.2353    3.6714 H   0  0  0  0  0  0  0  0  0  0  0  0
    1.3557   -1.6169    1.8310 H   0  0  0  0  0  0  0  0  0  0  0  0
    2.7855   -0.8628    2.0444 H   0  0  0  0  0  0  0  0  0  0  0  0
  1  2  1  0  0  0  0
  1  7  1  0  0  0  0
  2  3  1  0  0  0  0
  2 19  1  6  0  0  0
  3  4  1  0  0  0  0
  4  5  1  0  0  0  0
  4 20  1  0  0  0  0
  4 21  1  0  0  0  0
  5  6  2  0  0  0  0
  5 12  1  0  0  0  0
  6  1  1  0  0  0  0
  6  9  1  0  0  0  0
  7  8  1  0  0  0  0
  7 17  2  0  0  0  0
  8  2  1  0  0  0  0
  8 22  1  6  0  0  0
  8 18  1  0  0  0  0
  9 10  1  0  0  0  0
  9 11  2  0  0  0  0
 10 23  1  0  0  0  0
 12 13  1  0  0  0  0
 12 24  1  0  0  0  0
 12 25  1  0  0  0  0
 13 14  1  0  0  0  0
 14 15  1  0  0  0  0
 14 16  2  0  0  0  0
 15 26  1  0  0  0  0
 15 27  1  0  0  0  0
 15 28  1  0  0  0  0
 18 29  1  0  0  0  0
 18 30  1  0  0  0  0
M  END
>  <Mol_ID>
8236

>  <Formula>
C10H12N2O5S

>  <MolWeight>
272.27768

>  <Cat>
S2530

>  <Name>
7-Aminocephalosporanic acid

>  <Synonyms>
N/A

>  <Target>
Antibiotics

>  <Form>
Free Base

>  <CAS>
957-68-6

>  <URL>
http://selleckchem.com/products/7-Aminocephalosporanic-acid.html

$$$$
