7-Ethoxycoumarin
 OpenBabel08302521373D

 24 25  0  0  0  0  0  0  0  0999 V2000
    0.9385   -0.0204   -0.0019 O   0  0  0  0  0  0  0  0  0  0  0  0
    0.2880   -1.1179   -0.6483 C   0  0  0  0  0  0  0  0  0  0  0  0
   -1.1967   -0.8161   -0.7332 C   0  0  0  0  0  0  0  0  0  0  0  0
    7.1581   -3.5016    0.0174 O   0  0  0  0  0  0  0  0  0  0  0  0
    4.4363   -1.1975    0.0523 C   0  0  0  0  0  0  0  0  0  0  0  0
    5.1136    0.0189    0.0293 C   0  0  0  0  0  0  0  0  0  0  0  0
    3.0441   -1.2676    0.0535 C   0  0  0  0  0  0  0  0  0  0  0  0
    5.1386   -2.4206    0.0663 O   0  0  0  0  0  0  0  0  0  0  0  0
    4.3715    1.1999    0.0319 C   0  0  0  0  0  0  0  0  0  0  0  0
    6.5664    0.0136   -0.0095 C   0  0  0  0  0  0  0  0  0  0  0  0
    2.3058   -0.0868    0.0182 C   0  0  0  0  0  0  0  0  0  0  0  0
    6.5245   -2.4510    0.0228 C   0  0  0  0  0  0  0  0  0  0  0  0
    2.9718    1.1434    0.0345 C   0  0  0  0  0  0  0  0  0  0  0  0
    7.2200   -1.1532   -0.0202 C   0  0  0  0  0  0  0  0  0  0  0  0
    0.6895   -1.2507   -1.6606 H   0  0  0  0  0  0  0  0  0  0  0  0
    0.4195   -2.0387   -0.0702 H   0  0  0  0  0  0  0  0  0  0  0  0
   -1.3753    0.1114   -1.2865 H   0  0  0  0  0  0  0  0  0  0  0  0
   -1.7291   -1.6329   -1.2298 H   0  0  0  0  0  0  0  0  0  0  0  0
   -1.6179   -0.6794    0.2682 H   0  0  0  0  0  0  0  0  0  0  0  0
    2.5723   -2.2426    0.0914 H   0  0  0  0  0  0  0  0  0  0  0  0
    4.8629    2.1696    0.0253 H   0  0  0  0  0  0  0  0  0  0  0  0
    7.0999    0.9566   -0.0438 H   0  0  0  0  0  0  0  0  0  0  0  0
    2.3956    2.0664    0.0302 H   0  0  0  0  0  0  0  0  0  0  0  0
    8.3012   -1.2017   -0.0614 H   0  0  0  0  0  0  0  0  0  0  0  0
  1  2  1  0  0  0  0
  1 11  1  0  0  0  0
  2  3  1  0  0  0  0
  2 15  1  0  0  0  0
  2 16  1  0  0  0  0
  3 17  1  0  0  0  0
  3 18  1  0  0  0  0
  3 19  1  0  0  0  0
  4 12  2  0  0  0  0
  5  6  1  0  0  0  0
  5  7  2  0  0  0  0
  5  8  1  0  0  0  0
  6  9  2  0  0  0  0
  6 10  1  0  0  0  0
  7 11  1  0  0  0  0
  7 20  1  0  0  0  0
  8 12  1  0  0  0  0
  9 13  1  0  0  0  0
  9 21  1  0  0  0  0
 10 14  2  0  0  0  0
 10 22  1  0  0  0  0
 11 13  2  0  0  0  0
 12 14  1  0  0  0  0
 13 23  1  0  0  0  0
 14 24  1  0  0  0  0
M  END
>  <Mol_ID>
7410

>  <Formula>
C11H10O3

>  <MolWeight>
190.1953

>  <Cat>
E4507

>  <Name>
7-Ethoxycoumarin

>  <Synonyms>
7-Ethoxycoumarin

>  <Target>
Others

>  <Form>
Free base

>  <CAS>
31005-02-4

>  <URL>
https://www.selleckchem.com/products/7-ethoxycoumarin.html

$$$$
