7-Hydroxyflavanone
 OpenBabel08302521473D

 30 32  0  0  0  0  0  0  0  0999 V2000
    1.0822   -0.0570    0.7179 O   0  0  0  0  0  0  0  0  0  0  0  0
    5.2788   -4.5897   -0.7832 O   0  0  0  0  0  0  0  0  0  0  0  0
    4.3108   -1.1030   -0.4581 C   0  0  0  0  0  0  0  0  0  0  0  0
    2.9904   -1.2341   -0.0213 C   0  0  0  0  0  0  0  0  0  0  0  0
    4.9139    0.1089   -0.6936 O   0  0  0  0  0  0  0  0  0  0  0  0
    5.0783   -2.2418   -0.6897 C   0  0  0  0  0  0  0  0  0  0  0  0
    2.2505   -0.0118    0.3482 C   0  0  0  0  0  0  0  0  0  0  0  0
    2.4028   -2.4959    0.1049 C   0  0  0  0  0  0  0  0  0  0  0  0
    3.9819    1.2005   -0.8904 C   0  0  3  0  0  0  0  0  0  0  0  0
    4.4977   -3.4963   -0.5413 C   0  0  0  0  0  0  0  0  0  0  0  0
    3.0489    1.2627    0.3182 C   0  0  0  0  0  0  0  0  0  0  0  0
    3.1603   -3.6371   -0.1617 C   0  0  0  0  0  0  0  0  0  0  0  0
    3.3025    1.1441   -2.2625 C   0  0  0  0  0  0  0  0  0  0  0  0
    2.0259    1.6914   -2.4795 C   0  0  0  0  0  0  0  0  0  0  0  0
    3.9460    0.5298   -3.3507 C   0  0  0  0  0  0  0  0  0  0  0  0
    1.3825    1.5524   -3.7105 C   0  0  0  0  0  0  0  0  0  0  0  0
    3.3018    0.3917   -4.5824 C   0  0  0  0  0  0  0  0  0  0  0  0
    2.0142    0.8892   -4.7569 C   0  0  0  0  0  0  0  0  0  0  0  0
    4.7504   -5.3929   -0.6421 H   0  0  0  0  0  0  0  0  0  0  0  0
    6.1149   -2.1546   -0.9998 H   0  0  0  0  0  0  0  0  0  0  0  0
    1.3652   -2.5893    0.4159 H   0  0  0  0  0  0  0  0  0  0  0  0
    4.5921    2.1130   -0.8893 H   0  0  0  0  0  0  0  0  0  0  0  0
    3.6181    1.3148    1.2538 H   0  0  0  0  0  0  0  0  0  0  0  0
    2.3758    2.1233    0.2813 H   0  0  0  0  0  0  0  0  0  0  0  0
    2.7011   -4.6153   -0.0647 H   0  0  0  0  0  0  0  0  0  0  0  0
    1.4891    2.2130   -1.6908 H   0  0  0  0  0  0  0  0  0  0  0  0
    4.9490    0.1217   -3.2393 H   0  0  0  0  0  0  0  0  0  0  0  0
    0.3799    1.9517   -3.8439 H   0  0  0  0  0  0  0  0  0  0  0  0
    3.8021   -0.1190   -5.4009 H   0  0  0  0  0  0  0  0  0  0  0  0
    1.5025    0.7615   -5.7067 H   0  0  0  0  0  0  0  0  0  0  0  0
  1  7  2  0  0  0  0
  2 10  1  0  0  0  0
  2 19  1  0  0  0  0
  3  4  2  0  0  0  0
  3  5  1  0  0  0  0
  3  6  1  0  0  0  0
  4  7  1  0  0  0  0
  4  8  1  0  0  0  0
  5  9  1  0  0  0  0
  6 10  2  0  0  0  0
  6 20  1  0  0  0  0
  7 11  1  0  0  0  0
  8 12  2  0  0  0  0
  8 21  1  0  0  0  0
  9 11  1  0  0  0  0
  9 13  1  0  0  0  0
  9 22  1  0  0  0  0
 10 12  1  0  0  0  0
 11 23  1  0  0  0  0
 11 24  1  0  0  0  0
 12 25  1  0  0  0  0
 13 14  2  0  0  0  0
 13 15  1  0  0  0  0
 14 16  1  0  0  0  0
 14 26  1  0  0  0  0
 15 17  2  0  0  0  0
 15 27  1  0  0  0  0
 16 18  2  0  0  0  0
 16 28  1  0  0  0  0
 17 18  1  0  0  0  0
 17 29  1  0  0  0  0
 18 30  1  0  0  0  0
M  END
>  <Mol_ID>
9767

>  <Formula>
C15H12O3

>  <MolWeight>
240.25398

>  <Cat>
E2264

>  <Name>
7-Hydroxyflavanone

>  <Synonyms>
NA

>  <Target>
Aromatase

>  <Form>
free base

>  <CAS>
6515-36-2

>  <URL>
https://www.selleckchem.com/products/7-hydroxyflavanone.html

$$$$
