7¦Â-Hydroxylathyrol
 OpenBabel08302519513D

 55 57  0  0  0  0  0  0  0  0999 V2000
   -6.2631    0.4651    1.0378 C   0  0  3  0  0  0  0  0  0  0  0  0
   -4.7280    0.8236    1.3885 C   0  0  3  0  0  0  0  0  0  0  0  0
   -3.1880    0.6574    0.9932 C   0  0  0  0  0  0  0  0  0  0  0  0
   -2.3020   -0.5267    0.8362 C   0  0  0  0  0  0  0  0  0  0  0  0
   -7.0966   -0.5756   -1.2628 C   0  0  0  0  0  0  0  0  0  0  0  0
   -7.0009   -0.6441    0.2486 C   0  0  3  0  0  0  0  0  0  0  0  0
   -6.9253    0.4824    2.4576 C   0  0  3  0  0  0  0  0  0  0  0  0
   -6.2061    1.6444    3.1086 C   0  0  3  0  0  0  0  0  0  0  0  0
   -4.7835    1.1431    2.9321 C   0  0  0  0  0  0  0  0  0  0  0  0
   -1.8816   -1.0470   -0.3367 C   0  0  0  0  0  0  0  0  0  0  0  0
   -2.4185   -1.3015   -1.6726 C   0  0  3  0  0  0  0  0  0  0  0  0
   -3.7091   -1.6669   -2.3358 C   0  0  3  0  0  0  0  0  0  0  0  0
   -4.8634   -0.7796   -2.1162 C   0  0  0  0  0  0  0  0  0  0  0  0
   -6.2239   -1.4545   -2.0998 C   0  0  3  0  0  0  0  0  0  0  0  0
   -8.3282    0.6842    2.4464 O   0  0  0  0  0  0  0  0  0  0  0  0
   -6.7004    2.0872    4.4664 C   0  0  0  0  0  0  0  0  0  0  0  0
   -4.7419    2.2359    0.7956 O   0  0  0  0  0  0  0  0  0  0  0  0
   -3.0802   -2.7147   -1.4625 C   0  0  0  0  0  0  0  0  0  0  0  0
   -6.7084   -1.9622    0.7228 O   0  0  0  0  0  0  0  0  0  0  0  0
   -2.4901    1.6979    1.1108 O   0  0  0  0  0  0  0  0  0  0  0  0
   -1.4023   -0.8391    2.0155 C   0  0  0  0  0  0  0  0  0  0  0  0
   -7.9569    0.2719   -1.8782 C   0  0  0  0  0  0  0  0  0  0  0  0
   -2.3156   -3.8548   -2.0609 C   0  0  0  0  0  0  0  0  0  0  0  0
   -3.6793   -3.0608   -0.1107 C   0  0  0  0  0  0  0  0  0  0  0  0
   -6.2298   -2.7755   -1.5676 O   0  0  0  0  0  0  0  0  0  0  0  0
   -6.6652    1.3591    0.5311 H   0  0  0  0  0  0  0  0  0  0  0  0
   -8.0561   -0.5305    0.5274 H   0  0  0  0  0  0  0  0  0  0  0  0
   -6.7326   -0.4595    2.9755 H   0  0  0  0  0  0  0  0  0  0  0  0
   -6.3527    2.5401    2.4868 H   0  0  0  0  0  0  0  0  0  0  0  0
   -4.5803    0.2288    3.5186 H   0  0  0  0  0  0  0  0  0  0  0  0
   -4.0576    1.9026    3.2451 H   0  0  0  0  0  0  0  0  0  0  0  0
   -0.9296   -1.5911   -0.2710 H   0  0  0  0  0  0  0  0  0  0  0  0
   -1.6543   -1.1312   -2.4331 H   0  0  0  0  0  0  0  0  0  0  0  0
   -3.6826   -1.9051   -3.4008 H   0  0  0  0  0  0  0  0  0  0  0  0
   -4.8965   -0.0577   -2.9491 H   0  0  0  0  0  0  0  0  0  0  0  0
   -4.7003   -0.1497   -1.2352 H   0  0  0  0  0  0  0  0  0  0  0  0
   -6.6072   -1.5663   -3.1181 H   0  0  0  0  0  0  0  0  0  0  0  0
   -8.6598    0.4224    3.3252 H   0  0  0  0  0  0  0  0  0  0  0  0
   -6.0660    2.8901    4.8541 H   0  0  0  0  0  0  0  0  0  0  0  0
   -7.7075    2.5195    4.3505 H   0  0  0  0  0  0  0  0  0  0  0  0
   -6.7627    1.2807    5.1936 H   0  0  0  0  0  0  0  0  0  0  0  0
   -3.9135    2.6654    1.1079 H   0  0  0  0  0  0  0  0  0  0  0  0
   -7.5026   -2.4837    0.4748 H   0  0  0  0  0  0  0  0  0  0  0  0
   -0.7239   -0.0099    2.2424 H   0  0  0  0  0  0  0  0  0  0  0  0
   -1.9882   -1.0973    2.9013 H   0  0  0  0  0  0  0  0  0  0  0  0
   -0.7644   -1.7145    1.8187 H   0  0  0  0  0  0  0  0  0  0  0  0
   -8.0141    0.3383   -2.9627 H   0  0  0  0  0  0  0  0  0  0  0  0
   -8.5875    0.9614   -1.3204 H   0  0  0  0  0  0  0  0  0  0  0  0
   -1.2656   -3.7868   -1.7623 H   0  0  0  0  0  0  0  0  0  0  0  0
   -2.7040   -4.8122   -1.7005 H   0  0  0  0  0  0  0  0  0  0  0  0
   -2.3685   -3.8530   -3.1549 H   0  0  0  0  0  0  0  0  0  0  0  0
   -2.8883   -3.3382    0.6029 H   0  0  0  0  0  0  0  0  0  0  0  0
   -4.2442   -2.2351    0.3452 H   0  0  0  0  0  0  0  0  0  0  0  0
   -4.3431   -3.9286   -0.1732 H   0  0  0  0  0  0  0  0  0  0  0  0
   -5.9885   -2.7152   -0.6315 H   0  0  0  0  0  0  0  0  0  0  0  0
  1  2  1  0  0  0  0
  1  6  1  0  0  0  0
  1  7  1  0  0  0  0
  1 26  1  0  0  0  0
  2  3  1  0  0  0  0
  2 17  1  0  0  0  0
  3  4  1  0  0  0  0
  3 20  2  0  0  0  0
  4 10  2  0  0  0  0
  4 21  1  0  0  0  0
  5  6  1  0  0  0  0
  5 22  2  0  0  0  0
  6 19  1  0  0  0  0
  6 27  1  0  0  0  0
  7  8  1  0  0  0  0
  7 15  1  0  0  0  0
  7 28  1  0  0  0  0
  8  9  1  0  0  0  0
  8 16  1  0  0  0  0
  8 29  1  0  0  0  0
  9  2  1  0  0  0  0
  9 30  1  0  0  0  0
  9 31  1  0  0  0  0
 10 11  1  0  0  0  0
 10 32  1  0  0  0  0
 11 12  1  0  0  0  0
 11 18  1  0  0  0  0
 11 33  1  0  0  0  0
 12 13  1  0  0  0  0
 12 18  1  0  0  0  0
 12 34  1  0  0  0  0
 13 14  1  0  0  0  0
 13 35  1  0  0  0  0
 13 36  1  0  0  0  0
 14  5  1  0  0  0  0
 14 25  1  0  0  0  0
 14 37  1  0  0  0  0
 15 38  1  0  0  0  0
 16 39  1  0  0  0  0
 16 40  1  0  0  0  0
 16 41  1  0  0  0  0
 17 42  1  0  0  0  0
 18 23  1  0  0  0  0
 18 24  1  0  0  0  0
 19 43  1  0  0  0  0
 21 44  1  0  0  0  0
 21 45  1  0  0  0  0
 21 46  1  0  0  0  0
 22 47  1  0  0  0  0
 22 48  1  0  0  0  0
 23 49  1  0  0  0  0
 23 50  1  0  0  0  0
 23 51  1  0  0  0  0
 24 52  1  0  0  0  0
 24 53  1  0  0  0  0
 24 54  1  0  0  0  0
 25 55  1  0  0  0  0
M  END
>  <Mol_ID>
1864

>  <Formula>
C20H30O5

>  <MolWeight>
350.4492

>  <Cat>
S3920

>  <Name>
7¦Â-Hydroxylathyrol

>  <Synonyms>
7beta-Hydroxylathyrol, 7-Hydroxylathyrol

>  <Target>
Others

>  <Form>
free base

>  <CAS>
34208-98-5

>  <URL>
http://selleckchem.com/products/7-beta-hydroxylathyrol.html

$$$$
