7-Methoxy-1-tetralone
 OpenBabel08302521363D

 25 26  0  0  0  0  0  0  0  0999 V2000
    1.7405    1.9738   -0.0486 O   0  0  0  0  0  0  0  0  0  0  0  0
   -3.3968    2.0401    0.0628 O   0  0  0  0  0  0  0  0  0  0  0  0
   -3.0457    3.4194    0.0808 C   0  0  0  0  0  0  0  0  0  0  0  0
   -0.0503    0.4327   -0.0294 C   0  0  0  0  0  0  0  0  0  0  0  0
   -0.4372   -0.9167   -0.0228 C   0  0  0  0  0  0  0  0  0  0  0  0
   -1.0080    1.4567    0.0154 C   0  0  0  0  0  0  0  0  0  0  0  0
    1.3881    0.7993   -0.1149 C   0  0  0  0  0  0  0  0  0  0  0  0
   -1.8033   -1.2216   -0.0135 C   0  0  0  0  0  0  0  0  0  0  0  0
    0.5736   -2.0321   -0.0749 C   0  0  0  0  0  0  0  0  0  0  0  0
   -2.3651    1.1426    0.0353 C   0  0  0  0  0  0  0  0  0  0  0  0
    2.3740   -0.3155   -0.3690 C   0  0  0  0  0  0  0  0  0  0  0  0
   -2.7550   -0.1986    0.0148 C   0  0  0  0  0  0  0  0  0  0  0  0
    1.9585   -1.5748    0.3721 C   0  0  0  0  0  0  0  0  0  0  0  0
   -2.4819    3.6702    0.9854 H   0  0  0  0  0  0  0  0  0  0  0  0
   -2.4915    3.6980   -0.8217 H   0  0  0  0  0  0  0  0  0  0  0  0
   -3.9726    4.0006    0.0936 H   0  0  0  0  0  0  0  0  0  0  0  0
   -0.6649    2.4869    0.0199 H   0  0  0  0  0  0  0  0  0  0  0  0
   -2.1393   -2.2567   -0.0321 H   0  0  0  0  0  0  0  0  0  0  0  0
    0.6205   -2.4136   -1.1018 H   0  0  0  0  0  0  0  0  0  0  0  0
    0.2523   -2.8558    0.5740 H   0  0  0  0  0  0  0  0  0  0  0  0
    2.4300   -0.4871   -1.4497 H   0  0  0  0  0  0  0  0  0  0  0  0
    3.3613    0.0042   -0.0193 H   0  0  0  0  0  0  0  0  0  0  0  0
   -3.8137   -0.4493    0.0178 H   0  0  0  0  0  0  0  0  0  0  0  0
    2.6876   -2.3734    0.1955 H   0  0  0  0  0  0  0  0  0  0  0  0
    1.9499   -1.3770    1.4520 H   0  0  0  0  0  0  0  0  0  0  0  0
  1  7  2  0  0  0  0
  2  3  1  0  0  0  0
  2 10  1  0  0  0  0
  3 14  1  0  0  0  0
  3 15  1  0  0  0  0
  3 16  1  0  0  0  0
  4  5  1  0  0  0  0
  4  6  2  0  0  0  0
  4  7  1  0  0  0  0
  5  8  2  0  0  0  0
  5  9  1  0  0  0  0
  6 10  1  0  0  0  0
  6 17  1  0  0  0  0
  7 11  1  0  0  0  0
  8 12  1  0  0  0  0
  8 18  1  0  0  0  0
  9 13  1  0  0  0  0
  9 19  1  0  0  0  0
  9 20  1  0  0  0  0
 10 12  2  0  0  0  0
 11 13  1  0  0  0  0
 11 21  1  0  0  0  0
 11 22  1  0  0  0  0
 12 23  1  0  0  0  0
 13 24  1  0  0  0  0
 13 25  1  0  0  0  0
M  END
>  <Mol_ID>
7320

>  <Formula>
C11H12O2

>  <MolWeight>
176.21178

>  <Cat>
E4358

>  <Name>
7-Methoxy-1-tetralone

>  <Synonyms>
7-Methoxy-1-tetralone

>  <Target>
Others

>  <Form>
free base

>  <CAS>
6836-19-7

>  <URL>
https://www.selleckchem.com/products/7-methoxy-1-tetralone.html

$$$$
