7-Methylcoumarin
 OpenBabel08302521323D

 20 21  0  0  0  0  0  0  0  0999 V2000
   -1.1205   -1.0795    0.0092 O   0  0  0  0  0  0  0  0  0  0  0  0
   -3.4101   -1.0095   -0.0105 O   0  0  0  0  0  0  0  0  0  0  0  0
    0.1142    1.0242    0.0025 C   0  0  0  0  0  0  0  0  0  0  0  0
    0.0947   -0.3681    0.0076 C   0  0  0  0  0  0  0  0  0  0  0  0
    2.5054   -0.4641    0.0024 C   0  0  0  0  0  0  0  0  0  0  0  0
    1.2687   -1.1177    0.0097 C   0  0  0  0  0  0  0  0  0  0  0  0
    1.3467    1.6788   -0.0058 C   0  0  0  0  0  0  0  0  0  0  0  0
    2.5359    0.9377   -0.0079 C   0  0  0  0  0  0  0  0  0  0  0  0
   -1.1487    1.7442    0.0053 C   0  0  0  0  0  0  0  0  0  0  0  0
    3.7691   -1.2722    0.0161 C   0  0  0  0  0  0  0  0  0  0  0  0
   -2.2961    1.0579    0.0015 C   0  0  0  0  0  0  0  0  0  0  0  0
   -2.3375   -0.4152   -0.0015 C   0  0  0  0  0  0  0  0  0  0  0  0
    1.2151   -2.2032    0.0171 H   0  0  0  0  0  0  0  0  0  0  0  0
    1.3998    2.7648   -0.0107 H   0  0  0  0  0  0  0  0  0  0  0  0
    3.4877    1.4655   -0.0170 H   0  0  0  0  0  0  0  0  0  0  0  0
   -1.1425    2.8285    0.0107 H   0  0  0  0  0  0  0  0  0  0  0  0
    3.8198   -1.8711    0.9313 H   0  0  0  0  0  0  0  0  0  0  0  0
    3.7992   -1.9396   -0.8513 H   0  0  0  0  0  0  0  0  0  0  0  0
    4.6575   -0.6337   -0.0195 H   0  0  0  0  0  0  0  0  0  0  0  0
   -3.2588    1.5532    0.0005 H   0  0  0  0  0  0  0  0  0  0  0  0
  1  4  1  0  0  0  0
  1 12  1  0  0  0  0
  2 12  2  0  0  0  0
  3  4  2  0  0  0  0
  3  7  1  0  0  0  0
  3  9  1  0  0  0  0
  4  6  1  0  0  0  0
  5  6  2  0  0  0  0
  5  8  1  0  0  0  0
  5 10  1  0  0  0  0
  6 13  1  0  0  0  0
  7  8  2  0  0  0  0
  7 14  1  0  0  0  0
  8 15  1  0  0  0  0
  9 11  2  0  0  0  0
  9 16  1  0  0  0  0
 10 17  1  0  0  0  0
 10 18  1  0  0  0  0
 10 19  1  0  0  0  0
 11 12  1  0  0  0  0
 11 20  1  0  0  0  0
M  END
>  <Mol_ID>
6321

>  <Formula>
C10H8O2

>  <MolWeight>
160.16932

>  <Cat>
E0656

>  <Name>
7-Methylcoumarin

>  <Target>
Antibiotics

>  <Form>
free base

>  <CAS>
2445-83-2

>  <URL>
http://www.selleckchem.com/products/7-methylcoumarin.html

$$$$
