7-Methoxyisoflavone
 OpenBabel08302521283D

 31 33  0  0  0  0  0  0  0  0999 V2000
   -0.4613   -1.8513    0.0148 O   0  0  0  0  0  0  0  0  0  0  0  0
    4.0609   -0.5827   -0.0195 O   0  0  0  0  0  0  0  0  0  0  0  0
   -1.7663    2.0140    0.0181 O   0  0  0  0  0  0  0  0  0  0  0  0
    0.0485    0.5203    0.0088 C   0  0  0  0  0  0  0  0  0  0  0  0
   -2.3273   -0.3014    0.0208 C   0  0  0  0  0  0  0  0  0  0  0  0
    0.4391   -0.8151    0.0080 C   0  0  0  0  0  0  0  0  0  0  0  0
   -1.3876    0.8504    0.0167 C   0  0  0  0  0  0  0  0  0  0  0  0
   -3.7817   -0.1085    0.0158 C   0  0  0  0  0  0  0  0  0  0  0  0
    1.0112    1.5333   -0.0008 C   0  0  0  0  0  0  0  0  0  0  0  0
    1.7963   -1.1423   -0.0016 C   0  0  0  0  0  0  0  0  0  0  0  0
   -1.8002   -1.5345    0.0175 C   0  0  0  0  0  0  0  0  0  0  0  0
    2.7684   -0.1351   -0.0108 C   0  0  0  0  0  0  0  0  0  0  0  0
    2.3703    1.2042   -0.0110 C   0  0  0  0  0  0  0  0  0  0  0  0
   -4.4958   -0.0482    1.2192 C   0  0  0  0  0  0  0  0  0  0  0  0
   -4.4706    0.0237   -1.1966 C   0  0  0  0  0  0  0  0  0  0  0  0
   -5.8767    0.1639    1.2093 C   0  0  0  0  0  0  0  0  0  0  0  0
   -5.8508    0.2365   -1.2037 C   0  0  0  0  0  0  0  0  0  0  0  0
   -6.5521    0.3123   -0.0015 C   0  0  0  0  0  0  0  0  0  0  0  0
    5.0836    0.4069   -0.0271 C   0  0  0  0  0  0  0  0  0  0  0  0
    0.7073    2.5786   -0.0014 H   0  0  0  0  0  0  0  0  0  0  0  0
    2.1024   -2.1857   -0.0024 H   0  0  0  0  0  0  0  0  0  0  0  0
   -2.3920   -2.4418    0.0143 H   0  0  0  0  0  0  0  0  0  0  0  0
    3.0893    2.0172   -0.0194 H   0  0  0  0  0  0  0  0  0  0  0  0
   -3.9812   -0.1493    2.1726 H   0  0  0  0  0  0  0  0  0  0  0  0
   -3.9359   -0.0217   -2.1421 H   0  0  0  0  0  0  0  0  0  0  0  0
   -6.4240    0.2246    2.1465 H   0  0  0  0  0  0  0  0  0  0  0  0
   -6.3770    0.3548   -2.1478 H   0  0  0  0  0  0  0  0  0  0  0  0
   -7.6238    0.4936   -0.0076 H   0  0  0  0  0  0  0  0  0  0  0  0
    5.0317    1.0197   -0.9333 H   0  0  0  0  0  0  0  0  0  0  0  0
    5.0377    1.0283    0.8736 H   0  0  0  0  0  0  0  0  0  0  0  0
    6.0501   -0.1067   -0.0276 H   0  0  0  0  0  0  0  0  0  0  0  0
  1  6  1  0  0  0  0
  1 11  1  0  0  0  0
  2 12  1  0  0  0  0
  2 19  1  0  0  0  0
  3  7  2  0  0  0  0
  4  6  2  0  0  0  0
  4  7  1  0  0  0  0
  4  9  1  0  0  0  0
  5  7  1  0  0  0  0
  5  8  1  0  0  0  0
  5 11  2  0  0  0  0
  6 10  1  0  0  0  0
  8 14  2  0  0  0  0
  8 15  1  0  0  0  0
  9 13  2  0  0  0  0
  9 20  1  0  0  0  0
 10 12  2  0  0  0  0
 10 21  1  0  0  0  0
 11 22  1  0  0  0  0
 12 13  1  0  0  0  0
 13 23  1  0  0  0  0
 14 16  1  0  0  0  0
 14 24  1  0  0  0  0
 15 17  2  0  0  0  0
 15 25  1  0  0  0  0
 16 18  2  0  0  0  0
 16 26  1  0  0  0  0
 17 18  1  0  0  0  0
 17 27  1  0  0  0  0
 18 28  1  0  0  0  0
 19 29  1  0  0  0  0
 19 30  1  0  0  0  0
 19 31  1  0  0  0  0
M  END
>  <Mol_ID>
5420

>  <Formula>
C16H12O3

>  <MolWeight>
252.26468

>  <Cat>
S1323

>  <Name>
7-Methoxyisoflavone

>  <Synonyms>
MIF

>  <Target>
AMPK

>  <Form>
Free Base

>  <CAS>
1621-56-3

>  <URL>
https://www.selleckchem.com/products/7-methoxyisoflavone.html

$$$$
