7-Methoxyflavone
 OpenBabel08302521363D

 31 33  0  0  0  0  0  0  0  0999 V2000
   -1.7904    1.9990    0.0718 O   0  0  0  0  0  0  0  0  0  0  0  0
    4.0574   -0.5914   -0.0083 O   0  0  0  0  0  0  0  0  0  0  0  0
    5.0844    0.3933   -0.0310 C   0  0  0  0  0  0  0  0  0  0  0  0
    0.0543    0.5239    0.0273 C   0  0  0  0  0  0  0  0  0  0  0  0
    0.4369   -0.8121    0.0207 C   0  0  0  0  0  0  0  0  0  0  0  0
   -1.3771    0.8479    0.0285 C   0  0  0  0  0  0  0  0  0  0  0  0
    1.0155    1.5366    0.0215 C   0  0  0  0  0  0  0  0  0  0  0  0
   -0.4663   -1.8450    0.0128 O   0  0  0  0  0  0  0  0  0  0  0  0
    1.7928   -1.1427    0.0143 C   0  0  0  0  0  0  0  0  0  0  0  0
   -2.3060   -0.2905   -0.0375 C   0  0  0  0  0  0  0  0  0  0  0  0
    2.3732    1.2034    0.0061 C   0  0  0  0  0  0  0  0  0  0  0  0
   -1.8221   -1.5427   -0.0389 C   0  0  0  0  0  0  0  0  0  0  0  0
    2.7668   -0.1376    0.0044 C   0  0  0  0  0  0  0  0  0  0  0  0
   -2.7082   -2.7269   -0.1332 C   0  0  0  0  0  0  0  0  0  0  0  0
   -2.2540   -3.8963   -0.7651 C   0  0  0  0  0  0  0  0  0  0  0  0
   -4.0055   -2.7318    0.4061 C   0  0  0  0  0  0  0  0  0  0  0  0
   -3.0728   -5.0248   -0.8696 C   0  0  0  0  0  0  0  0  0  0  0  0
   -4.8268   -3.8584    0.2973 C   0  0  0  0  0  0  0  0  0  0  0  0
   -4.3603   -5.0038   -0.3412 C   0  0  0  0  0  0  0  0  0  0  0  0
    5.0289    0.9994   -0.9414 H   0  0  0  0  0  0  0  0  0  0  0  0
    5.0489    1.0215    0.8653 H   0  0  0  0  0  0  0  0  0  0  0  0
    6.0473   -0.1263   -0.0349 H   0  0  0  0  0  0  0  0  0  0  0  0
    0.7116    2.5811    0.0221 H   0  0  0  0  0  0  0  0  0  0  0  0
    2.0963   -2.1870    0.0131 H   0  0  0  0  0  0  0  0  0  0  0  0
   -3.3571   -0.0416   -0.0982 H   0  0  0  0  0  0  0  0  0  0  0  0
    3.0947    2.0142   -0.0057 H   0  0  0  0  0  0  0  0  0  0  0  0
   -1.2546   -3.9399   -1.1937 H   0  0  0  0  0  0  0  0  0  0  0  0
   -4.3983   -1.8627    0.9284 H   0  0  0  0  0  0  0  0  0  0  0  0
   -2.7028   -5.9186   -1.3652 H   0  0  0  0  0  0  0  0  0  0  0  0
   -5.8301   -3.8399    0.7156 H   0  0  0  0  0  0  0  0  0  0  0  0
   -4.9981   -5.8800   -0.4236 H   0  0  0  0  0  0  0  0  0  0  0  0
  1  6  2  0  0  0  0
  2  3  1  0  0  0  0
  2 13  1  0  0  0  0
  3 20  1  0  0  0  0
  3 21  1  0  0  0  0
  3 22  1  0  0  0  0
  4  5  2  0  0  0  0
  4  6  1  0  0  0  0
  4  7  1  0  0  0  0
  5  8  1  0  0  0  0
  5  9  1  0  0  0  0
  6 10  1  0  0  0  0
  7 11  2  0  0  0  0
  7 23  1  0  0  0  0
  8 12  1  0  0  0  0
  9 13  2  0  0  0  0
  9 24  1  0  0  0  0
 10 12  2  0  0  0  0
 10 25  1  0  0  0  0
 11 13  1  0  0  0  0
 11 26  1  0  0  0  0
 12 14  1  0  0  0  0
 14 15  2  0  0  0  0
 14 16  1  0  0  0  0
 15 17  1  0  0  0  0
 15 27  1  0  0  0  0
 16 18  2  0  0  0  0
 16 28  1  0  0  0  0
 17 19  2  0  0  0  0
 17 29  1  0  0  0  0
 18 19  1  0  0  0  0
 18 30  1  0  0  0  0
 19 31  1  0  0  0  0
M  END
>  <Mol_ID>
7096

>  <Formula>
C16H12O3

>  <MolWeight>
252.26468

>  <Cat>
E4119

>  <Name>
7-Methoxyflavone

>  <Synonyms>
7-Methoxyflavone

>  <Target>
Others

>  <Form>
free base

>  <CAS>
22395-22-8

>  <URL>
https://www.selleckchem.com/products/7-methoxyflavone.html

$$$$
