7-Prenyloxycoumarin
 OpenBabel08302521503D

 31 32  0  0  0  0  0  0  0  0999 V2000
    1.0549    0.1555   -0.1312 O   0  0  0  0  0  0  0  0  0  0  0  0
    0.3069   -0.9721    0.3309 C   0  0  0  0  0  0  0  0  0  0  0  0
   -1.1411   -0.7006    0.0335 C   0  0  0  0  0  0  0  0  0  0  0  0
   -1.9947   -1.4993   -0.6398 C   0  0  0  0  0  0  0  0  0  0  0  0
   -3.4162   -1.0784   -0.8947 C   0  0  0  0  0  0  0  0  0  0  0  0
   -1.6136   -2.8436   -1.1967 C   0  0  0  0  0  0  0  0  0  0  0  0
    7.2524   -3.3768   -0.1508 O   0  0  0  0  0  0  0  0  0  0  0  0
    4.5466   -1.0566   -0.0744 C   0  0  0  0  0  0  0  0  0  0  0  0
    5.2324    0.1556   -0.0662 C   0  0  0  0  0  0  0  0  0  0  0  0
    3.1525   -1.1194   -0.0759 C   0  0  0  0  0  0  0  0  0  0  0  0
    5.2410   -2.2830   -0.0987 O   0  0  0  0  0  0  0  0  0  0  0  0
    4.4973    1.3391   -0.0531 C   0  0  0  0  0  0  0  0  0  0  0  0
    6.6865    0.1403   -0.0916 C   0  0  0  0  0  0  0  0  0  0  0  0
    2.4183    0.0635   -0.0723 C   0  0  0  0  0  0  0  0  0  0  0  0
    6.6275   -2.3232   -0.1273 C   0  0  0  0  0  0  0  0  0  0  0  0
    3.0967    1.2891   -0.0662 C   0  0  0  0  0  0  0  0  0  0  0  0
    7.3333   -1.0304   -0.1246 C   0  0  0  0  0  0  0  0  0  0  0  0
    0.6259   -1.8934   -0.1610 H   0  0  0  0  0  0  0  0  0  0  0  0
    0.4398   -1.0709    1.4144 H   0  0  0  0  0  0  0  0  0  0  0  0
   -1.5005    0.2568    0.4072 H   0  0  0  0  0  0  0  0  0  0  0  0
   -3.5797   -0.9479   -1.9698 H   0  0  0  0  0  0  0  0  0  0  0  0
   -4.1124   -1.8391   -0.5267 H   0  0  0  0  0  0  0  0  0  0  0  0
   -3.6648   -0.1333   -0.4014 H   0  0  0  0  0  0  0  0  0  0  0  0
   -0.7154   -2.7764   -1.8184 H   0  0  0  0  0  0  0  0  0  0  0  0
   -1.4403   -3.5584   -0.3855 H   0  0  0  0  0  0  0  0  0  0  0  0
   -2.4096   -3.2509   -1.8297 H   0  0  0  0  0  0  0  0  0  0  0  0
    2.6872   -2.0974   -0.1110 H   0  0  0  0  0  0  0  0  0  0  0  0
    4.9930    2.3062   -0.0447 H   0  0  0  0  0  0  0  0  0  0  0  0
    7.2270    1.0810   -0.0940 H   0  0  0  0  0  0  0  0  0  0  0  0
    2.5269    2.2158   -0.0722 H   0  0  0  0  0  0  0  0  0  0  0  0
    8.4134   -1.0856   -0.1548 H   0  0  0  0  0  0  0  0  0  0  0  0
  1  2  1  0  0  0  0
  1 14  1  0  0  0  0
  2  3  1  0  0  0  0
  2 18  1  0  0  0  0
  2 19  1  0  0  0  0
  3  4  2  0  0  0  0
  3 20  1  0  0  0  0
  4  5  1  0  0  0  0
  4  6  1  0  0  0  0
  5 21  1  0  0  0  0
  5 22  1  0  0  0  0
  5 23  1  0  0  0  0
  6 24  1  0  0  0  0
  6 25  1  0  0  0  0
  6 26  1  0  0  0  0
  7 15  2  0  0  0  0
  8  9  1  0  0  0  0
  8 10  2  0  0  0  0
  8 11  1  0  0  0  0
  9 12  2  0  0  0  0
  9 13  1  0  0  0  0
 10 14  1  0  0  0  0
 10 27  1  0  0  0  0
 11 15  1  0  0  0  0
 12 16  1  0  0  0  0
 12 28  1  0  0  0  0
 13 17  2  0  0  0  0
 13 29  1  0  0  0  0
 14 16  2  0  0  0  0
 15 17  1  0  0  0  0
 16 30  1  0  0  0  0
 17 31  1  0  0  0  0
M  END
>  <Mol_ID>
9941

>  <Formula>
C14H14O3

>  <MolWeight>
230.25916

>  <Cat>
E5175

>  <Name>
7-Prenyloxycoumarin

>  <Synonyms>
7-O-Prenylumbelliferone

>  <Target>
Fungal

>  <Form>
free base

>  <CAS>
10387-50-5

>  <URL>
https://www.selleckchem.com/products/7-prenyloxycoumarin.html

$$$$
