726169-73-9.cdx
 OpenBabel08302521353D

 50 53  0  0  0  0  0  0  0  0999 V2000
    0.9681    0.0706   -0.0690 C   0  0  0  0  0  0  0  0  0  0  0  0
    0.1901   -0.7271    0.9238 C   0  0  0  0  0  0  0  0  0  0  0  0
    0.6197   -0.9521    2.2354 C   0  0  0  0  0  0  0  0  0  0  0  0
   -0.1347   -1.7710    3.0860 C   0  0  0  0  0  0  0  0  0  0  0  0
   -1.3117   -2.3923    2.6357 C   0  0  0  0  0  0  0  0  0  0  0  0
   -1.7450   -2.1493    1.3273 C   0  0  0  0  0  0  0  0  0  0  0  0
   -0.9964   -1.3304    0.4787 C   0  0  0  0  0  0  0  0  0  0  0  0
    0.8672   -0.2594   -1.2479 O   0  0  0  0  0  0  0  0  0  0  0  0
    1.7480    1.1005    0.4230 N   0  0  0  0  0  0  0  0  0  0  0  0
   -2.0791   -3.3309    3.5425 C   0  0  0  0  0  0  0  0  0  0  0  0
   -3.0400   -2.5884    4.3318 N   0  0  0  0  0  0  0  0  0  0  0  0
   -3.7512   -3.3757    5.2293 C   0  0  0  0  0  0  0  0  0  0  0  0
   -5.0131   -3.0038    5.4871 N   0  0  0  0  0  0  0  0  0  0  0  0
   -5.7239   -3.7379    6.3786 C   0  0  0  0  0  0  0  0  0  0  0  0
   -5.1684   -4.8269    7.0221 C   0  0  0  0  0  0  0  0  0  0  0  0
   -3.8781   -5.1386    6.6819 C   0  0  0  0  0  0  0  0  0  0  0  0
   -3.1613   -4.4385    5.7912 N   0  0  0  0  0  0  0  0  0  0  0  0
   -7.5116   -1.9823    6.5023 C   0  0  0  0  0  0  0  0  0  0  0  0
   -7.1183   -3.3167    6.6102 C   0  0  0  0  0  0  0  0  0  0  0  0
   -8.1396   -4.2233    6.9459 C   0  0  0  0  0  0  0  0  0  0  0  0
   -9.4469   -3.7841    7.1556 C   0  0  0  0  0  0  0  0  0  0  0  0
   -9.7125   -2.4338    7.0245 C   0  0  0  0  0  0  0  0  0  0  0  0
   -8.7745   -1.5210    6.7055 N   0  0  0  0  0  0  0  0  0  0  0  0
    2.5795    1.9965   -0.3103 C   0  0  0  0  0  0  0  0  0  0  0  0
    2.4902    2.2760   -1.6937 C   0  0  0  0  0  0  0  0  0  0  0  0
    3.3932    3.1932   -2.2633 C   0  0  0  0  0  0  0  0  0  0  0  0
    4.4020    3.7890   -1.5091 C   0  0  0  0  0  0  0  0  0  0  0  0
    4.4900    3.5180   -0.1513 C   0  0  0  0  0  0  0  0  0  0  0  0
    3.5787    2.6417    0.4444 C   0  0  0  0  0  0  0  0  0  0  0  0
    1.3756    1.9244   -2.4849 N   0  0  0  0  0  0  0  0  0  0  0  0
    1.5543   -0.5447    2.6075 H   0  0  0  0  0  0  0  0  0  0  0  0
    0.2135   -1.9494    4.1025 H   0  0  0  0  0  0  0  0  0  0  0  0
   -2.6527   -2.6142    0.9486 H   0  0  0  0  0  0  0  0  0  0  0  0
   -1.3340   -1.1760   -0.5452 H   0  0  0  0  0  0  0  0  0  0  0  0
    1.8069    1.1942    1.4265 H   0  0  0  0  0  0  0  0  0  0  0  0
   -2.5814   -4.0937    2.9305 H   0  0  0  0  0  0  0  0  0  0  0  0
   -1.3539   -3.8573    4.1745 H   0  0  0  0  0  0  0  0  0  0  0  0
   -3.7153   -2.0508    3.8025 H   0  0  0  0  0  0  0  0  0  0  0  0
   -5.6996   -5.4096    7.7616 H   0  0  0  0  0  0  0  0  0  0  0  0
   -3.3658   -5.9846    7.1297 H   0  0  0  0  0  0  0  0  0  0  0  0
   -6.7919   -1.2067    6.2473 H   0  0  0  0  0  0  0  0  0  0  0  0
   -7.9364   -5.2874    7.0298 H   0  0  0  0  0  0  0  0  0  0  0  0
  -10.2397   -4.4805    7.4073 H   0  0  0  0  0  0  0  0  0  0  0  0
  -10.7142   -2.0423    7.1728 H   0  0  0  0  0  0  0  0  0  0  0  0
    3.2962    3.4625   -3.3126 H   0  0  0  0  0  0  0  0  0  0  0  0
    5.0938    4.4821   -1.9803 H   0  0  0  0  0  0  0  0  0  0  0  0
    5.2621    3.9946    0.4473 H   0  0  0  0  0  0  0  0  0  0  0  0
    3.6762    2.4540    1.5107 H   0  0  0  0  0  0  0  0  0  0  0  0
    1.6040    1.8282   -3.4672 H   0  0  0  0  0  0  0  0  0  0  0  0
    0.9581    1.0501   -2.1484 H   0  0  0  0  0  0  0  0  0  0  0  0
  1  2  1  0  0  0  0
  1  8  2  0  0  0  0
  1  9  1  0  0  0  0
  2  3  2  0  0  0  0
  2  7  1  0  0  0  0
  3  4  1  0  0  0  0
  3 31  1  0  0  0  0
  4  5  2  0  0  0  0
  4 32  1  0  0  0  0
  5  6  1  0  0  0  0
  5 10  1  0  0  0  0
  6  7  2  0  0  0  0
  6 33  1  0  0  0  0
  7 34  1  0  0  0  0
  9 24  1  0  0  0  0
  9 35  1  0  0  0  0
 10 11  1  0  0  0  0
 10 36  1  0  0  0  0
 10 37  1  0  0  0  0
 11 12  1  0  0  0  0
 11 38  1  0  0  0  0
 12 13  2  0  0  0  0
 12 17  1  0  0  0  0
 13 14  1  0  0  0  0
 14 15  2  0  0  0  0
 14 19  1  0  0  0  0
 15 16  1  0  0  0  0
 15 39  1  0  0  0  0
 16 17  2  0  0  0  0
 16 40  1  0  0  0  0
 18 19  2  0  0  0  0
 18 23  1  0  0  0  0
 18 41  1  0  0  0  0
 19 20  1  0  0  0  0
 20 21  2  0  0  0  0
 20 42  1  0  0  0  0
 21 22  1  0  0  0  0
 21 43  1  0  0  0  0
 22 23  2  0  0  0  0
 22 44  1  0  0  0  0
 24 25  2  0  0  0  0
 24 29  1  0  0  0  0
 25 26  1  0  0  0  0
 25 30  1  0  0  0  0
 26 27  2  0  0  0  0
 26 45  1  0  0  0  0
 27 28  1  0  0  0  0
 27 46  1  0  0  0  0
 28 29  2  0  0  0  0
 28 47  1  0  0  0  0
 29 48  1  0  0  0  0
 30 49  1  0  0  0  0
 30 50  1  0  0  0  0
M  END
>  <Mol_ID>
74

>  <Formula>
C23H20N6O

>  <MolWeight>
396.4445

>  <Cat>
S1122

>  <Name>
Mocetinostat (MGCD0103)

>  <Synonyms>
MG0103

>  <Target>
Apoptosis related,Autophagy,HDAC

>  <Form>
free base

>  <CAS>
726169-73-9

>  <URL>
http://selleckchem.com/products/MGCD0103(Mocetinostat).html

$$$$
