7ACC2
 OpenBabel08302521233D

 38 40  0  0  0  0  0  0  0  0999 V2000
   -2.1262    0.1585    0.0822 C   0  0  0  0  0  0  0  0  0  0  0  0
   -1.8471   -1.2913   -0.0178 C   0  0  0  0  0  0  0  0  0  0  0  0
   -0.5882   -1.7649    0.0269 C   0  0  0  0  0  0  0  0  0  0  0  0
    0.5393   -0.8552    0.1263 C   0  0  0  0  0  0  0  0  0  0  0  0
    1.8585   -1.2902    0.1652 C   0  0  0  0  0  0  0  0  0  0  0  0
    2.9057   -0.3539    0.1998 C   0  0  0  0  0  0  0  0  0  0  0  0
    2.6786    1.0361    0.1760 C   0  0  0  0  0  0  0  0  0  0  0  0
    1.3362    1.4407    0.1923 C   0  0  0  0  0  0  0  0  0  0  0  0
    0.2987    0.5069    0.1565 C   0  0  0  0  0  0  0  0  0  0  0  0
   -1.0171    1.0027    0.1427 O   0  0  0  0  0  0  0  0  0  0  0  0
   -2.9069   -2.3030   -0.1665 C   0  0  0  0  0  0  0  0  0  0  0  0
   -2.7992   -3.4869    0.1148 O   0  0  0  0  0  0  0  0  0  0  0  0
   -4.0304   -1.8366   -0.7237 O   0  0  0  0  0  0  0  0  0  0  0  0
   -3.2561    0.6285    0.1418 O   0  0  0  0  0  0  0  0  0  0  0  0
    3.7178    1.9532    0.1284 N   0  0  0  0  0  0  0  0  0  0  0  0
    3.5576    3.2685   -0.4904 C   0  0  0  0  0  0  0  0  0  0  0  0
    5.0629    1.6340    0.6248 C   0  0  0  0  0  0  0  0  0  0  0  0
    6.0426    1.1137   -0.4122 C   0  0  0  0  0  0  0  0  0  0  0  0
    5.6826    0.7648   -1.7219 C   0  0  0  0  0  0  0  0  0  0  0  0
    6.6395    0.3029   -2.6296 C   0  0  0  0  0  0  0  0  0  0  0  0
    7.9709    0.1778   -2.2408 C   0  0  0  0  0  0  0  0  0  0  0  0
    8.3454    0.5011   -0.9398 C   0  0  0  0  0  0  0  0  0  0  0  0
    7.3885    0.9609   -0.0325 C   0  0  0  0  0  0  0  0  0  0  0  0
   -0.3745   -2.8286   -0.0397 H   0  0  0  0  0  0  0  0  0  0  0  0
    2.1002   -2.3502    0.1480 H   0  0  0  0  0  0  0  0  0  0  0  0
    3.9198   -0.7472    0.1967 H   0  0  0  0  0  0  0  0  0  0  0  0
    1.0674    2.4904    0.2527 H   0  0  0  0  0  0  0  0  0  0  0  0
   -4.6424   -2.6001   -0.7494 H   0  0  0  0  0  0  0  0  0  0  0  0
    3.8470    4.0560    0.2138 H   0  0  0  0  0  0  0  0  0  0  0  0
    4.2004    3.3491   -1.3730 H   0  0  0  0  0  0  0  0  0  0  0  0
    2.5426    3.4884   -0.8318 H   0  0  0  0  0  0  0  0  0  0  0  0
    5.4942    2.5546    1.0429 H   0  0  0  0  0  0  0  0  0  0  0  0
    5.0101    0.9277    1.4632 H   0  0  0  0  0  0  0  0  0  0  0  0
    4.6501    0.8511   -2.0525 H   0  0  0  0  0  0  0  0  0  0  0  0
    6.3427    0.0437   -3.6426 H   0  0  0  0  0  0  0  0  0  0  0  0
    8.7152   -0.1722   -2.9511 H   0  0  0  0  0  0  0  0  0  0  0  0
    9.3825    0.3986   -0.6312 H   0  0  0  0  0  0  0  0  0  0  0  0
    7.7016    1.2066    0.9806 H   0  0  0  0  0  0  0  0  0  0  0  0
  1  2  1  0  0  0  0
  1 10  1  0  0  0  0
  1 14  2  0  0  0  0
  2  3  2  0  0  0  0
  2 11  1  0  0  0  0
  3  4  1  0  0  0  0
  3 24  1  0  0  0  0
  4  5  1  0  0  0  0
  4  9  2  0  0  0  0
  5  6  2  0  0  0  0
  5 25  1  0  0  0  0
  6  7  1  0  0  0  0
  6 26  1  0  0  0  0
  7  8  2  0  0  0  0
  7 15  1  0  0  0  0
  8  9  1  0  0  0  0
  8 27  1  0  0  0  0
  9 10  1  0  0  0  0
 11 12  2  0  0  0  0
 11 13  1  0  0  0  0
 13 28  1  0  0  0  0
 15 16  1  0  0  0  0
 15 17  1  0  0  0  0
 16 29  1  0  0  0  0
 16 30  1  0  0  0  0
 16 31  1  0  0  0  0
 17 18  1  0  0  0  0
 17 32  1  0  0  0  0
 17 33  1  0  0  0  0
 18 19  2  0  0  0  0
 18 23  1  0  0  0  0
 19 20  1  0  0  0  0
 19 34  1  0  0  0  0
 20 21  2  0  0  0  0
 20 35  1  0  0  0  0
 21 22  1  0  0  0  0
 21 36  1  0  0  0  0
 22 23  2  0  0  0  0
 22 37  1  0  0  0  0
 23 38  1  0  0  0  0
M  END
>  <Mol_ID>
4779

>  <Formula>
C18H15NO4

>  <MolWeight>
309.316

>  <Cat>
S6732

>  <Name>
7ACC2

>  <Synonyms>
N/A

>  <Target>
MCT

>  <Form>
Free Base

>  <CAS>
1472624-85-3

>  <URL>
http://www.selleck.cn/products/7acc2.html

$$$$
