7BIO
 OpenBabel08302521323D

 32 35  0  0  0  0  0  0  0  0999 V2000
   -0.4808    5.8433    0.0103 O   0  0  0  0  0  0  0  0  0  0  0  0
    4.8741    5.6790    0.0072 N   0  0  0  0  0  0  0  0  0  0  0  0
    6.0961    5.0087    0.0041 O   0  0  0  0  0  0  0  0  0  0  0  0
   -0.0718   11.3388    0.0050 Br  0  0  0  0  0  0  0  0  0  0  0  0
    1.8691    6.5758    0.0093 C   0  0  0  0  0  0  0  0  0  0  0  0
    2.4131    7.9487    0.0066 C   0  0  0  0  0  0  0  0  0  0  0  0
    0.3592    6.7262    0.0097 C   0  0  0  0  0  0  0  0  0  0  0  0
    1.3063    8.8140    0.0067 C   0  0  0  0  0  0  0  0  0  0  0  0
    3.6822    8.5001    0.0042 C   0  0  0  0  0  0  0  0  0  0  0  0
    0.1183    8.0854    0.0085 N   0  0  0  0  0  0  0  0  0  0  0  0
    1.4323   10.1968    0.0046 C   0  0  0  0  0  0  0  0  0  0  0  0
    3.8310    9.8954    0.0018 C   0  0  0  0  0  0  0  0  0  0  0  0
    2.7137   10.7414    0.0019 C   0  0  0  0  0  0  0  0  0  0  0  0
    2.3740    5.3259    0.0101 C   0  0  0  0  0  0  0  0  0  0  0  0
    3.8488    4.8904    0.0082 C   0  0  0  0  0  0  0  0  0  0  0  0
    1.6392    4.1491    0.0109 N   0  0  0  0  0  0  0  0  0  0  0  0
    3.8118    3.3980    0.0066 C   0  0  0  0  0  0  0  0  0  0  0  0
    2.4602    3.0360    0.0075 C   0  0  0  0  0  0  0  0  0  0  0  0
    4.8130    2.4384    0.0051 C   0  0  0  0  0  0  0  0  0  0  0  0
    2.0833    1.7057    0.0075 C   0  0  0  0  0  0  0  0  0  0  0  0
    4.4388    1.0915    0.0041 C   0  0  0  0  0  0  0  0  0  0  0  0
    3.0831    0.7283    0.0053 C   0  0  0  0  0  0  0  0  0  0  0  0
    6.7411    5.7393    0.0029 H   0  0  0  0  0  0  0  0  0  0  0  0
    4.5764    7.8949    0.0043 H   0  0  0  0  0  0  0  0  0  0  0  0
   -0.8077    8.4861    0.0085 H   0  0  0  0  0  0  0  0  0  0  0  0
    4.8313   10.3245   -0.0006 H   0  0  0  0  0  0  0  0  0  0  0  0
    2.8620   11.8187   -0.0003 H   0  0  0  0  0  0  0  0  0  0  0  0
    0.6251    4.1555    0.0077 H   0  0  0  0  0  0  0  0  0  0  0  0
    5.8632    2.7014    0.0048 H   0  0  0  0  0  0  0  0  0  0  0  0
    1.0370    1.4198    0.0090 H   0  0  0  0  0  0  0  0  0  0  0  0
    5.2052    0.3189    0.0026 H   0  0  0  0  0  0  0  0  0  0  0  0
    2.8113   -0.3254    0.0047 H   0  0  0  0  0  0  0  0  0  0  0  0
  1  7  2  0  0  0  0
  2  3  1  0  0  0  0
  2 15  2  0  0  0  0
  3 23  1  0  0  0  0
  4 11  1  0  0  0  0
  5  6  1  0  0  0  0
  5  7  1  0  0  0  0
  5 14  2  0  0  0  0
  6  8  2  0  0  0  0
  6  9  1  0  0  0  0
  7 10  1  0  0  0  0
  8 10  1  0  0  0  0
  8 11  1  0  0  0  0
  9 12  2  0  0  0  0
  9 24  1  0  0  0  0
 10 25  1  0  0  0  0
 11 13  2  0  0  0  0
 12 13  1  0  0  0  0
 12 26  1  0  0  0  0
 13 27  1  0  0  0  0
 14 15  1  0  0  0  0
 14 16  1  0  0  0  0
 15 17  1  0  0  0  0
 16 18  1  0  0  0  0
 16 28  1  0  0  0  0
 17 18  2  0  0  0  0
 17 19  1  0  0  0  0
 18 20  1  0  0  0  0
 19 21  2  0  0  0  0
 19 29  1  0  0  0  0
 20 22  2  0  0  0  0
 20 30  1  0  0  0  0
 21 22  1  0  0  0  0
 21 31  1  0  0  0  0
 22 32  1  0  0  0  0
M  END
>  <Mol_ID>
6285

>  <Formula>
C16H10BrN3O2

>  <MolWeight>
356.1735

>  <Cat>
E0474

>  <Name>
7BIO

>  <Synonyms>
7-bromoindirubin-3-oxime

>  <Target>
CDK,GSK-3

>  <Form>
free base

>  <CAS>
916440-85-2

>  <URL>
http://www.selleckchem.com/products/7bio.html

$$$$
