8-?Prenylnaringenin
 OpenBabel08302521463D

 45 47  0  0  1  0  0  0  0  0999 V2000
    2.3083    1.6895   -0.0337 O   0  0  0  0  0  0  0  0  0  0  0  0
   -0.1004    2.6717   -0.1417 O   0  0  0  0  0  0  0  0  0  0  0  0
   -1.9200   -2.7284    0.0729 C   0  0  0  0  0  0  0  0  0  0  0  0
   -2.0700   -3.3158   -1.3110 C   0  0  0  0  0  0  0  0  0  0  0  0
   -1.4483   -4.4155   -1.7808 C   0  0  0  0  0  0  0  0  0  0  0  0
   -1.6944   -4.9238   -3.1753 C   0  0  0  0  0  0  0  0  0  0  0  0
   -0.4738   -5.2207   -0.9665 C   0  0  0  0  0  0  0  0  0  0  0  0
   -3.6820   -0.3273   -0.0780 O   0  0  0  0  0  0  0  0  0  0  0  0
    5.2120   -6.5262    0.7516 O   0  0  0  0  0  0  0  0  0  0  0  0
    0.4177    0.2993    0.0051 C   0  0  0  0  0  0  0  0  0  0  0  0
   -0.0496   -1.0205    0.0689 C   0  0  0  0  0  0  0  0  0  0  0  0
    1.8702    0.5473    0.0850 C   0  0  0  0  0  0  0  0  0  0  0  0
   -0.4860    1.3597   -0.0874 C   0  0  0  0  0  0  0  0  0  0  0  0
   -1.4358   -1.2952    0.0480 C   0  0  0  0  0  0  0  0  0  0  0  0
    0.8041   -2.0896    0.2105 O   0  0  0  0  0  0  0  0  0  0  0  0
    2.7439   -0.6289    0.3984 C   0  0  0  0  0  0  0  0  0  0  0  0
   -1.8509    1.1080   -0.1086 C   0  0  0  0  0  0  0  0  0  0  0  0
   -2.3204   -0.2049   -0.0455 C   0  0  0  0  0  0  0  0  0  0  0  0
    2.1357   -1.8517   -0.2707 C   0  0  1  0  0  0  0  0  0  0  0  0
    2.9614   -3.0995    0.0009 C   0  0  0  0  0  0  0  0  0  0  0  0
    3.5765   -3.7866   -1.0593 C   0  0  0  0  0  0  0  0  0  0  0  0
    3.1296   -3.5952    1.3052 C   0  0  0  0  0  0  0  0  0  0  0  0
    4.3371   -4.9366   -0.8230 C   0  0  0  0  0  0  0  0  0  0  0  0
    3.8929   -4.7410    1.5420 C   0  0  0  0  0  0  0  0  0  0  0  0
    4.4870   -5.4048    0.4773 C   0  0  0  0  0  0  0  0  0  0  0  0
    0.8827    2.7056   -0.1250 H   0  0  0  0  0  0  0  0  0  0  0  0
   -1.2583   -3.3318    0.7045 H   0  0  0  0  0  0  0  0  0  0  0  0
   -2.8884   -2.7946    0.5830 H   0  0  0  0  0  0  0  0  0  0  0  0
   -2.7628   -2.7887   -1.9657 H   0  0  0  0  0  0  0  0  0  0  0  0
   -0.7615   -4.9220   -3.7487 H   0  0  0  0  0  0  0  0  0  0  0  0
   -2.0789   -5.9489   -3.1408 H   0  0  0  0  0  0  0  0  0  0  0  0
   -2.4222   -4.3138   -3.7202 H   0  0  0  0  0  0  0  0  0  0  0  0
    0.3344   -4.5902   -0.5886 H   0  0  0  0  0  0  0  0  0  0  0  0
   -0.9813   -5.6999   -0.1236 H   0  0  0  0  0  0  0  0  0  0  0  0
   -0.0077   -6.0093   -1.5662 H   0  0  0  0  0  0  0  0  0  0  0  0
   -3.9505   -1.2537    0.0054 H   0  0  0  0  0  0  0  0  0  0  0  0
    5.5372   -6.8997   -0.0837 H   0  0  0  0  0  0  0  0  0  0  0  0
    2.7871   -0.7212    1.4893 H   0  0  0  0  0  0  0  0  0  0  0  0
    3.7528   -0.4403    0.0158 H   0  0  0  0  0  0  0  0  0  0  0  0
   -2.5538    1.9354   -0.1682 H   0  0  0  0  0  0  0  0  0  0  0  0
    2.0749   -1.6984   -1.3579 H   0  0  0  0  0  0  0  0  0  0  0  0
    3.4662   -3.4338   -2.0831 H   0  0  0  0  0  0  0  0  0  0  0  0
    2.6610   -3.0957    2.1501 H   0  0  0  0  0  0  0  0  0  0  0  0
    4.7986   -5.4491   -1.6613 H   0  0  0  0  0  0  0  0  0  0  0  0
    4.0182   -5.1172    2.5539 H   0  0  0  0  0  0  0  0  0  0  0  0
  1 12  2  0  0  0  0
  2 13  1  0  0  0  0
  2 26  1  0  0  0  0
  3  4  1  0  0  0  0
  3 14  1  0  0  0  0
  3 27  1  0  0  0  0
  3 28  1  0  0  0  0
  4  5  2  0  0  0  0
  4 29  1  0  0  0  0
  5  6  1  0  0  0  0
  5  7  1  0  0  0  0
  6 30  1  0  0  0  0
  6 31  1  0  0  0  0
  6 32  1  0  0  0  0
  7 33  1  0  0  0  0
  7 34  1  0  0  0  0
  7 35  1  0  0  0  0
  8 18  1  0  0  0  0
  8 36  1  0  0  0  0
  9 25  1  0  0  0  0
  9 37  1  0  0  0  0
 10 11  2  0  0  0  0
 10 12  1  0  0  0  0
 10 13  1  0  0  0  0
 11 14  1  0  0  0  0
 11 15  1  0  0  0  0
 12 16  1  0  0  0  0
 13 17  2  0  0  0  0
 14 18  2  0  0  0  0
 15 19  1  0  0  0  0
 16 19  1  0  0  0  0
 16 38  1  0  0  0  0
 16 39  1  0  0  0  0
 17 18  1  0  0  0  0
 17 40  1  0  0  0  0
 19 20  1  0  0  0  0
 19 41  1  6  0  0  0
 20 21  2  0  0  0  0
 20 22  1  0  0  0  0
 21 23  1  0  0  0  0
 21 42  1  0  0  0  0
 22 24  2  0  0  0  0
 22 43  1  0  0  0  0
 23 25  2  0  0  0  0
 23 44  1  0  0  0  0
 24 25  1  0  0  0  0
 24 45  1  0  0  0  0
M  END
>  <Mol_ID>
9734

>  <Formula>
C20H20O5

>  <MolWeight>
340.3698

>  <Cat>
E0959

>  <Name>
8-?Prenylnaringenin

>  <Synonyms>
NA

>  <Target>
SERM

>  <Form>
Free Base

>  <CAS>
53846-50-7

>  <URL>
https://www.selleckchem.com/products/saikosaponin-b1.html

$$$$
