8-Aminooctanoic acid
 OpenBabel08302521383D

 28 27  0  0  0  0  0  0  0  0999 V2000
    1.0642    0.0468    0.0052 C   0  0  0  0  0  0  0  0  0  0  0  0
    0.5607    1.3844   -0.5442 C   0  0  0  0  0  0  0  0  0  0  0  0
    0.6079   -0.2244    1.4460 C   0  0  0  0  0  0  0  0  0  0  0  0
    1.0772    1.7240   -1.9468 C   0  0  0  0  0  0  0  0  0  0  0  0
   -0.9099   -0.3429    1.5961 C   0  0  0  0  0  0  0  0  0  0  0  0
    0.7214    0.7345   -3.0615 C   0  0  0  0  0  0  0  0  0  0  0  0
   -1.3173   -0.6789    3.0135 C   0  0  0  0  0  0  0  0  0  0  0  0
   -0.7822    0.5576   -3.2772 C   0  0  0  0  0  0  0  0  0  0  0  0
   -2.6598   -0.7750    3.1501 O   0  0  0  0  0  0  0  0  0  0  0  0
   -0.5533   -0.8439    3.9516 O   0  0  0  0  0  0  0  0  0  0  0  0
   -1.0229   -0.3554   -4.3896 N   0  0  0  0  0  0  0  0  0  0  0  0
    2.1611    0.0426   -0.0123 H   0  0  0  0  0  0  0  0  0  0  0  0
    0.7328   -0.7789   -0.6347 H   0  0  0  0  0  0  0  0  0  0  0  0
   -0.5328    1.4075   -0.5522 H   0  0  0  0  0  0  0  0  0  0  0  0
    0.8822    2.1840    0.1352 H   0  0  0  0  0  0  0  0  0  0  0  0
    1.0760   -1.1577    1.7858 H   0  0  0  0  0  0  0  0  0  0  0  0
    0.9849    0.5654    2.1071 H   0  0  0  0  0  0  0  0  0  0  0  0
    0.6903    2.7138   -2.2208 H   0  0  0  0  0  0  0  0  0  0  0  0
    2.1700    1.8225   -1.9092 H   0  0  0  0  0  0  0  0  0  0  0  0
   -1.3918    0.6047    1.3358 H   0  0  0  0  0  0  0  0  0  0  0  0
   -1.2852   -1.1324    0.9359 H   0  0  0  0  0  0  0  0  0  0  0  0
    1.1715    1.1085   -3.9922 H   0  0  0  0  0  0  0  0  0  0  0  0
    1.1907   -0.2358   -2.8630 H   0  0  0  0  0  0  0  0  0  0  0  0
   -1.2557    0.1446   -2.3818 H   0  0  0  0  0  0  0  0  0  0  0  0
   -1.2518    1.5234   -3.4929 H   0  0  0  0  0  0  0  0  0  0  0  0
   -3.1530   -0.6186    2.3222 H   0  0  0  0  0  0  0  0  0  0  0  0
   -2.0218   -0.3981   -4.5895 H   0  0  0  0  0  0  0  0  0  0  0  0
   -0.5801    0.0050   -5.2348 H   0  0  0  0  0  0  0  0  0  0  0  0
  1  2  1  0  0  0  0
  1  3  1  0  0  0  0
  1 12  1  0  0  0  0
  1 13  1  0  0  0  0
  2  4  1  0  0  0  0
  2 14  1  0  0  0  0
  2 15  1  0  0  0  0
  3  5  1  0  0  0  0
  3 16  1  0  0  0  0
  3 17  1  0  0  0  0
  4  6  1  0  0  0  0
  4 18  1  0  0  0  0
  4 19  1  0  0  0  0
  5  7  1  0  0  0  0
  5 20  1  0  0  0  0
  5 21  1  0  0  0  0
  6  8  1  0  0  0  0
  6 22  1  0  0  0  0
  6 23  1  0  0  0  0
  7  9  1  0  0  0  0
  7 10  2  0  0  0  0
  8 11  1  0  0  0  0
  8 24  1  0  0  0  0
  8 25  1  0  0  0  0
  9 26  1  0  0  0  0
 11 27  1  0  0  0  0
 11 28  1  0  0  0  0
M  END
>  <Mol_ID>
7897

>  <Formula>
C8H17NO2

>  <MolWeight>
159.22608

>  <Cat>
S6082

>  <Name>
8-Aminooctanoic acid

>  <Synonyms>
N/A

>  <Target>
Others

>  <Form>
free base

>  <CAS>
1002-57-9

>  <URL>
http://www.selleck.cn/products/8-aminooctanoic-acid.html

$$$$
