8-Bromoguanosine
 OpenBabel08302521363D

 33 35  0  0  1  0  0  0  0  0999 V2000
    3.6075   -0.8799    3.0852 Br  0  0  0  0  0  0  0  0  0  0  0  0
    3.0242   -2.9302   -2.3731 O   0  0  0  0  0  0  0  0  0  0  0  0
    5.1546    3.2120   -0.6780 O   0  0  0  0  0  0  0  0  0  0  0  0
    4.2320    0.5004   -4.2813 N   0  0  0  0  0  0  0  0  0  0  0  0
    5.5704   -4.8572    0.8996 C   0  0  0  0  0  0  0  0  0  0  0  0
    5.9077   -4.7839    2.2811 O   0  0  0  0  0  0  0  0  0  0  0  0
    2.2688   -5.0003   -0.9320 O   0  0  0  0  0  0  0  0  0  0  0  0
    3.8481   -1.0856    0.1617 N   0  0  0  0  0  0  0  0  0  0  0  0
    4.1302   -0.2157   -0.8524 C   0  0  0  0  0  0  0  0  0  0  0  0
    3.9882   -0.3456    1.3243 C   0  0  0  0  0  0  0  0  0  0  0  0
    4.4802    0.9783   -0.2847 C   0  0  0  0  0  0  0  0  0  0  0  0
    4.0735   -0.3749   -2.1847 N   0  0  0  0  0  0  0  0  0  0  0  0
    4.4021    0.8851    1.0809 N   0  0  0  0  0  0  0  0  0  0  0  0
    4.8114    2.1273   -1.1399 C   0  0  0  0  0  0  0  0  0  0  0  0
    4.3519    0.7290   -2.9503 C   0  0  0  0  0  0  0  0  0  0  0  0
    4.7046    1.9000   -2.5147 N   0  0  0  0  0  0  0  0  0  0  0  0
    3.3430   -2.4433    0.0365 C   0  0  2  0  0  0  0  0  0  0  0  0
    3.7844   -3.2468    1.1526 O   0  0  0  0  0  0  0  0  0  0  0  0
    3.8086   -3.2086   -1.2096 C   0  0  1  0  0  0  0  0  0  0  0  0
    4.0750   -4.5911    0.7010 C   0  0  1  0  0  0  0  0  0  0  0  0
    3.6542   -4.6519   -0.7632 C   0  0  1  0  0  0  0  0  0  0  0  0
    2.3035   -3.6019   -2.3722 H   0  0  0  0  0  0  0  0  0  0  0  0
    4.6214   -0.3749   -4.6053 H   0  0  0  0  0  0  0  0  0  0  0  0
    4.5928    1.2843   -4.8208 H   0  0  0  0  0  0  0  0  0  0  0  0
    5.8305   -5.8599    0.5472 H   0  0  0  0  0  0  0  0  0  0  0  0
    6.1895   -4.1258    0.3716 H   0  0  0  0  0  0  0  0  0  0  0  0
    5.7371   -3.8677    2.5713 H   0  0  0  0  0  0  0  0  0  0  0  0
    1.8078   -4.9381   -0.0743 H   0  0  0  0  0  0  0  0  0  0  0  0
    3.6350   -1.1754   -2.6425 H   0  0  0  0  0  0  0  0  0  0  0  0
    2.2497   -2.3636    0.0745 H   0  0  0  0  0  0  0  0  0  0  0  0
    4.8598   -2.9963   -1.4366 H   0  0  0  0  0  0  0  0  0  0  0  0
    3.4889   -5.2702    1.3300 H   0  0  0  0  0  0  0  0  0  0  0  0
    4.2382   -5.3509   -1.3686 H   0  0  0  0  0  0  0  0  0  0  0  0
  1 10  1  0  0  0  0
  2 22  1  0  0  0  0
  3 14  2  0  0  0  0
  4 15  1  0  0  0  0
  4 23  1  0  0  0  0
  4 24  1  0  0  0  0
  5  6  1  0  0  0  0
  5 25  1  0  0  0  0
  5 26  1  0  0  0  0
  6 27  1  0  0  0  0
  7 28  1  0  0  0  0
  8  9  1  0  0  0  0
  8 10  1  0  0  0  0
  9 11  2  0  0  0  0
  9 12  1  0  0  0  0
 10 13  2  0  0  0  0
 11 13  1  0  0  0  0
 11 14  1  0  0  0  0
 12 15  1  0  0  0  0
 12 29  1  0  0  0  0
 14 16  1  0  0  0  0
 15 16  2  0  0  0  0
 17  8  1  0  0  0  0
 17 18  1  0  0  0  0
 17 19  1  0  0  0  0
 17 30  1  1  0  0  0
 18 20  1  0  0  0  0
 19  2  1  0  0  0  0
 19 21  1  0  0  0  0
 19 31  1  6  0  0  0
 20 21  1  0  0  0  0
 20 32  1  1  0  0  0
 20  5  1  0  0  0  0
 21  7  1  0  0  0  0
 21 33  1  6  0  0  0
M  END
>  <Mol_ID>
7307

>  <Formula>
C10H12BrN5O5

>  <MolWeight>
362.13678

>  <Cat>
E4337

>  <Name>
8-Bromoguanosine

>  <Synonyms>
8-Bromoguanosine

>  <Target>
Others

>  <Form>
free base

>  <CAS>
4016-63-1

>  <URL>
https://www.selleckchem.com/products/8-bromoguanosine.html

$$$$
