8-Cyclopentyl-1,3-dimethylxanthine
 OpenBabel08302521353D

 34 36  0  0  0  0  0  0  0  0999 V2000
    0.2874   -2.6752   -0.0084 O   0  0  0  0  0  0  0  0  0  0  0  0
    0.1378    2.8614    0.0041 C   0  0  0  0  0  0  0  0  0  0  0  0
    2.7007   -1.3337    0.0626 C   0  0  0  0  0  0  0  0  0  0  0  0
    2.4966    1.3963    0.0150 O   0  0  0  0  0  0  0  0  0  0  0  0
   -0.9230   -0.6903   -0.0067 C   0  0  0  0  0  0  0  0  0  0  0  0
   -0.9505    0.6682   -0.0047 C   0  0  0  0  0  0  0  0  0  0  0  0
   -2.2308   -1.0793   -0.0026 N   0  0  0  0  0  0  0  0  0  0  0  0
    0.2775   -1.4485   -0.0028 C   0  0  0  0  0  0  0  0  0  0  0  0
   -2.2235    1.1452    0.0062 N   0  0  0  0  0  0  0  0  0  0  0  0
    0.2025    1.4123   -0.0045 N   0  0  0  0  0  0  0  0  0  0  0  0
   -2.9961    0.0712    0.0149 C   0  0  0  0  0  0  0  0  0  0  0  0
    1.4253   -0.6454    0.0166 N   0  0  0  0  0  0  0  0  0  0  0  0
    1.4389    0.7636    0.0084 C   0  0  0  0  0  0  0  0  0  0  0  0
   -4.4891    0.0466    0.0451 C   0  0  0  0  0  0  0  0  0  0  0  0
   -5.1191    0.7562   -1.1532 C   0  0  0  0  0  0  0  0  0  0  0  0
   -5.0710    0.8193    1.2276 C   0  0  0  0  0  0  0  0  0  0  0  0
   -6.5269    1.1356   -0.6959 C   0  0  0  0  0  0  0  0  0  0  0  0
   -6.5227    1.0526    0.8297 C   0  0  0  0  0  0  0  0  0  0  0  0
   -0.4179    3.2012   -0.8750 H   0  0  0  0  0  0  0  0  0  0  0  0
   -0.3726    3.1886    0.9150 H   0  0  0  0  0  0  0  0  0  0  0  0
    1.1326    3.3125   -0.0175 H   0  0  0  0  0  0  0  0  0  0  0  0
    2.7429   -1.9359    0.9764 H   0  0  0  0  0  0  0  0  0  0  0  0
    2.7813   -2.0030   -0.7996 H   0  0  0  0  0  0  0  0  0  0  0  0
    3.5523   -0.6488    0.0571 H   0  0  0  0  0  0  0  0  0  0  0  0
   -2.5717   -2.0324   -0.0023 H   0  0  0  0  0  0  0  0  0  0  0  0
   -4.8515   -0.9896    0.0801 H   0  0  0  0  0  0  0  0  0  0  0  0
   -4.5663    1.6670   -1.4172 H   0  0  0  0  0  0  0  0  0  0  0  0
   -5.1384    0.1206   -2.0448 H   0  0  0  0  0  0  0  0  0  0  0  0
   -4.9880    0.2670    2.1695 H   0  0  0  0  0  0  0  0  0  0  0  0
   -4.5674    1.7847    1.3651 H   0  0  0  0  0  0  0  0  0  0  0  0
   -6.7886    2.1419   -1.0406 H   0  0  0  0  0  0  0  0  0  0  0  0
   -7.2714    0.4461   -1.1092 H   0  0  0  0  0  0  0  0  0  0  0  0
   -6.9303    1.9580    1.2910 H   0  0  0  0  0  0  0  0  0  0  0  0
   -7.1439    0.2099    1.1551 H   0  0  0  0  0  0  0  0  0  0  0  0
  1  8  2  0  0  0  0
  2 10  1  0  0  0  0
  2 19  1  0  0  0  0
  2 20  1  0  0  0  0
  2 21  1  0  0  0  0
  3 12  1  0  0  0  0
  3 22  1  0  0  0  0
  3 23  1  0  0  0  0
  3 24  1  0  0  0  0
  4 13  2  0  0  0  0
  5  6  2  0  0  0  0
  5  7  1  0  0  0  0
  5  8  1  0  0  0  0
  6  9  1  0  0  0  0
  6 10  1  0  0  0  0
  7 11  1  0  0  0  0
  7 25  1  0  0  0  0
  8 12  1  0  0  0  0
  9 11  2  0  0  0  0
 10 13  1  0  0  0  0
 11 14  1  0  0  0  0
 12 13  1  0  0  0  0
 14 15  1  0  0  0  0
 14 16  1  0  0  0  0
 14 26  1  0  0  0  0
 15 17  1  0  0  0  0
 15 27  1  0  0  0  0
 15 28  1  0  0  0  0
 16 18  1  0  0  0  0
 16 29  1  0  0  0  0
 16 30  1  0  0  0  0
 17 18  1  0  0  0  0
 17 31  1  0  0  0  0
 17 32  1  0  0  0  0
 18 33  1  0  0  0  0
 18 34  1  0  0  0  0
M  END
>  <Mol_ID>
6992

>  <Formula>
C12H16N4O2

>  <MolWeight>
248.28104

>  <Cat>
E4031

>  <Name>
8-Cyclopentyl-1,3-dimethylxanthine

>  <Target>
Adenosine Receptor

>  <Form>
free base

>  <CAS>
35873-49-5

>  <URL>
https://www.selleckchem.com/products/8-cyclopentyl-1-3-dimethylxanthine.html

$$$$
