8-Epideoxyloganic acid
 OpenBabel08302521473D

 49 51  0  0  1  0  0  0  0  0999 V2000
    1.1423   -0.1460   -0.2161 O   0  0  0  0  0  0  0  0  0  0  0  0
    1.6830    3.3046   -0.7487 C   0  0  0  0  0  0  0  0  0  0  0  0
    2.4998   -0.4813   -5.4706 C   0  0  0  0  0  0  0  0  0  0  0  0
    2.6909    0.5102   -6.3461 O   0  0  0  0  0  0  0  0  0  0  0  0
    2.8016   -1.6441   -5.7639 O   0  0  0  0  0  0  0  0  0  0  0  0
    0.7507   -3.3384    1.7314 O   0  0  0  0  0  0  0  0  0  0  0  0
   -1.1183    1.1241    1.3116 C   0  0  0  0  0  0  0  0  0  0  0  0
   -1.7561    2.0003    2.2221 O   0  0  0  0  0  0  0  0  0  0  0  0
    1.3062   -0.0705    3.2762 O   0  0  0  0  0  0  0  0  0  0  0  0
   -1.3204   -0.3075    4.0760 O   0  0  0  0  0  0  0  0  0  0  0  0
    0.8826    1.3282   -2.3834 C   0  0  3  0  0  0  0  0  0  0  0  0
    1.9870    1.2159   -3.4587 C   0  0  3  0  0  0  0  0  0  0  0  0
    0.5862    0.0603   -1.5399 C   0  0  3  0  0  0  0  0  0  0  0  0
    0.8789    2.8123   -1.9361 C   0  0  3  0  0  0  0  0  0  0  0  0
    1.8911   -0.1035   -4.1659 C   0  0  0  0  0  0  0  0  0  0  0  0
    1.6913    2.4953   -4.2589 C   0  0  0  0  0  0  0  0  0  0  0  0
    0.7032   -1.1342   -2.3299 O   0  0  0  0  0  0  0  0  0  0  0  0
    1.3469    3.5599   -3.2135 C   0  0  0  0  0  0  0  0  0  0  0  0
    1.2968   -1.1380   -3.5505 C   0  0  0  0  0  0  0  0  0  0  0  0
    0.5062   -1.3347    0.3545 C   0  0  3  0  0  0  0  0  0  0  0  0
   -0.9176   -1.1893    0.4915 O   0  0  0  0  0  0  0  0  0  0  0  0
    1.1170   -1.9414    1.6543 C   0  0  3  0  0  0  0  0  0  0  0  0
   -1.3639   -0.3746    1.5881 C   0  0  3  0  0  0  0  0  0  0  0  0
    0.6201   -1.2760    2.9509 C   0  0  3  0  0  0  0  0  0  0  0  0
   -0.8924   -1.0061    2.9127 C   0  0  3  0  0  0  0  0  0  0  0  0
    1.5791    4.3880   -0.6705 H   0  0  0  0  0  0  0  0  0  0  0  0
    1.3411    2.8764    0.1904 H   0  0  0  0  0  0  0  0  0  0  0  0
    2.7637    3.0977   -0.8608 H   0  0  0  0  0  0  0  0  0  0  0  0
    2.1974    1.3294   -6.1879 H   0  0  0  0  0  0  0  0  0  0  0  0
   -0.2074   -3.4187    1.5842 H   0  0  0  0  0  0  0  0  0  0  0  0
   -0.0541    1.3698    1.2820 H   0  0  0  0  0  0  0  0  0  0  0  0
   -1.5233    1.3494    0.3164 H   0  0  0  0  0  0  0  0  0  0  0  0
   -1.7760    2.8810    1.8170 H   0  0  0  0  0  0  0  0  0  0  0  0
    1.7888    0.2452    2.4940 H   0  0  0  0  0  0  0  0  0  0  0  0
   -0.5254    0.1186    4.4564 H   0  0  0  0  0  0  0  0  0  0  0  0
   -0.0375    1.3119   -3.0098 H   0  0  0  0  0  0  0  0  0  0  0  0
    2.9830    1.2984   -2.9988 H   0  0  0  0  0  0  0  0  0  0  0  0
   -0.4878    0.1565   -1.3621 H   0  0  0  0  0  0  0  0  0  0  0  0
   -0.1627    3.1005   -1.7336 H   0  0  0  0  0  0  0  0  0  0  0  0
    2.5409    2.8225   -4.8673 H   0  0  0  0  0  0  0  0  0  0  0  0
    0.8290    2.3539   -4.9227 H   0  0  0  0  0  0  0  0  0  0  0  0
    2.2276    4.1862   -3.0263 H   0  0  0  0  0  0  0  0  0  0  0  0
    0.5581    4.2239   -3.5908 H   0  0  0  0  0  0  0  0  0  0  0  0
    1.2331   -2.1392   -3.9675 H   0  0  0  0  0  0  0  0  0  0  0  0
    0.6360   -2.1485   -0.3709 H   0  0  0  0  0  0  0  0  0  0  0  0
    2.2118   -1.9033    1.6077 H   0  0  0  0  0  0  0  0  0  0  0  0
   -2.4590   -0.4704    1.6006 H   0  0  0  0  0  0  0  0  0  0  0  0
    0.8056   -1.9531    3.7925 H   0  0  0  0  0  0  0  0  0  0  0  0
   -1.3836   -1.9851    2.9602 H   0  0  0  0  0  0  0  0  0  0  0  0
  2 26  1  0  0  0  0
  2 27  1  0  0  0  0
  2 28  1  0  0  0  0
  3  4  1  0  0  0  0
  3  5  2  0  0  0  0
  3 15  1  0  0  0  0
  4 29  1  0  0  0  0
  6 30  1  0  0  0  0
  7  8  1  0  0  0  0
  7 31  1  0  0  0  0
  7 32  1  0  0  0  0
  8 33  1  0  0  0  0
  9 34  1  0  0  0  0
 10 35  1  0  0  0  0
 11 12  1  0  0  0  0
 11 13  1  0  0  0  0
 11 14  1  0  0  0  0
 11 36  1  0  0  0  0
 12 15  1  0  0  0  0
 12 16  1  0  0  0  0
 12 37  1  0  0  0  0
 13  1  1  0  0  0  0
 13 17  1  0  0  0  0
 13 38  1  0  0  0  0
 14  2  1  0  0  0  0
 14 18  1  0  0  0  0
 14 39  1  0  0  0  0
 15 19  2  0  0  0  0
 16 18  1  0  0  0  0
 16 40  1  0  0  0  0
 16 41  1  0  0  0  0
 17 19  1  0  0  0  0
 18 42  1  0  0  0  0
 18 43  1  0  0  0  0
 19 44  1  0  0  0  0
 20  1  1  0  0  0  0
 20 21  1  0  0  0  0
 20 22  1  0  0  0  0
 20 45  1  0  0  0  0
 21 23  1  0  0  0  0
 22  6  1  0  0  0  0
 22 24  1  0  0  0  0
 22 46  1  0  0  0  0
 23  7  1  0  0  0  0
 23 25  1  0  0  0  0
 23 47  1  0  0  0  0
 24  9  1  0  0  0  0
 24 25  1  0  0  0  0
 24 48  1  0  0  0  0
 25 10  1  0  0  0  0
 25 49  1  0  0  0  0
M  END
>  <Mol_ID>
9772

>  <Formula>
C16H24O9

>  <MolWeight>
360.35636

>  <Cat>
E2283

>  <Name>
8-Epideoxyloganic acid

>  <Synonyms>
NA

>  <Target>
Inflammation

>  <Form>
Free Base

>  <CAS>
88668-99-9

>  <URL>
https://www.selleckchem.com/products/8-epideoxyloganic-acid.html

$$$$
