8-Hydroxyquinoline
 OpenBabel08302520323D

 18 19  0  0  0  0  0  0  0  0999 V2000
    0.4089   -0.9431    0.0052 C   0  0  0  0  0  0  0  0  0  0  0  0
    0.0498    0.4236    0.0070 C   0  0  0  0  0  0  0  0  0  0  0  0
   -0.5789   -1.9446    0.0036 C   0  0  0  0  0  0  0  0  0  0  0  0
    1.7711   -1.2749    0.0055 C   0  0  0  0  0  0  0  0  0  0  0  0
   -1.3212    0.7235    0.0088 C   0  0  0  0  0  0  0  0  0  0  0  0
    0.9937    1.3949    0.0071 N   0  0  0  0  0  0  0  0  0  0  0  0
   -1.9305   -1.6084    0.0059 C   0  0  0  0  0  0  0  0  0  0  0  0
    2.7308   -0.2716    0.0067 C   0  0  0  0  0  0  0  0  0  0  0  0
   -2.3059   -0.2703    0.0091 C   0  0  0  0  0  0  0  0  0  0  0  0
   -1.7144    2.0428    0.0107 O   0  0  0  0  0  0  0  0  0  0  0  0
    2.2947    1.0372    0.0069 C   0  0  0  0  0  0  0  0  0  0  0  0
   -0.2971   -2.9955    0.0009 H   0  0  0  0  0  0  0  0  0  0  0  0
    2.0896   -2.3142    0.0053 H   0  0  0  0  0  0  0  0  0  0  0  0
   -2.6868   -2.3892    0.0054 H   0  0  0  0  0  0  0  0  0  0  0  0
    3.7891   -0.5044    0.0076 H   0  0  0  0  0  0  0  0  0  0  0  0
   -3.3609   -0.0148    0.0122 H   0  0  0  0  0  0  0  0  0  0  0  0
   -2.6818    2.0912    0.0058 H   0  0  0  0  0  0  0  0  0  0  0  0
    2.9982    1.8646    0.0069 H   0  0  0  0  0  0  0  0  0  0  0  0
  1  2  1  0  0  0  0
  1  3  2  0  0  0  0
  1  4  1  0  0  0  0
  2  5  2  0  0  0  0
  2  6  1  0  0  0  0
  3  7  1  0  0  0  0
  3 12  1  0  0  0  0
  4  8  2  0  0  0  0
  4 13  1  0  0  0  0
  5  9  1  0  0  0  0
  5 10  1  0  0  0  0
  6 11  2  0  0  0  0
  7  9  2  0  0  0  0
  7 14  1  0  0  0  0
  8 11  1  0  0  0  0
  8 15  1  0  0  0  0
  9 16  1  0  0  0  0
 10 17  1  0  0  0  0
 11 18  1  0  0  0  0
M  END
>  <Mol_ID>
3334

>  <Formula>
C9H7NO

>  <MolWeight>
145.15798

>  <Cat>
S4547

>  <Name>
8-Hydroxyquinoline

>  <Synonyms>
8-Oxychinolin, 8-Quinolinol, Oxine

>  <Target>
Bacterial

>  <Form>
Free Base

>  <CAS>
148-24-3

>  <URL>
http://www.selleckchem.com/products/8-hydroxyquinoline.html

$$$$
