8-OH-DPAT (8-Hydroxy-DPAT).cdx
 OpenBabel08302520423D

 43 44  0  0  0  0  0  0  0  0999 V2000
    2.4273   -0.6035   -1.0329 C   0  0  0  0  0  0  0  0  0  0  0  0
    2.4458    0.7839   -0.9403 C   0  0  0  0  0  0  0  0  0  0  0  0
    1.2460    1.4862   -0.8259 C   0  0  0  0  0  0  0  0  0  0  0  0
    0.0220    0.8065   -0.7748 C   0  0  0  0  0  0  0  0  0  0  0  0
    0.0043   -0.6050   -0.8039 C   0  0  0  0  0  0  0  0  0  0  0  0
    1.2130   -1.2878   -0.9625 C   0  0  0  0  0  0  0  0  0  0  0  0
   -1.2394    1.6285   -0.6725 C   0  0  0  0  0  0  0  0  0  0  0  0
   -2.5261    0.8120   -0.5779 C   0  0  0  0  0  0  0  0  0  0  0  0
   -2.3682   -0.5513    0.1266 C   0  0  3  0  0  0  0  0  0  0  0  0
   -1.3268   -1.3227   -0.7280 C   0  0  0  0  0  0  0  0  0  0  0  0
    1.3026   -2.6482   -1.0512 O   0  0  0  0  0  0  0  0  0  0  0  0
   -2.1551   -0.6141    1.5845 N   0  0  0  0  0  0  0  0  0  0  0  0
   -1.7500   -1.8709    2.2176 C   0  0  0  0  0  0  0  0  0  0  0  0
   -1.9751    0.5791    2.4025 C   0  0  0  0  0  0  0  0  0  0  0  0
   -3.2481    1.4023    2.6393 C   0  0  0  0  0  0  0  0  0  0  0  0
   -2.8717   -2.9005    2.4313 C   0  0  0  0  0  0  0  0  0  0  0  0
   -3.3646   -3.6259    1.1917 C   0  0  0  0  0  0  0  0  0  0  0  0
   -4.4214    0.5740    3.1419 C   0  0  0  0  0  0  0  0  0  0  0  0
    3.3522   -1.1578   -1.1432 H   0  0  0  0  0  0  0  0  0  0  0  0
    3.3928    1.3135   -0.9640 H   0  0  0  0  0  0  0  0  0  0  0  0
    1.2777    2.5734   -0.7759 H   0  0  0  0  0  0  0  0  0  0  0  0
   -1.3080    2.2770   -1.5551 H   0  0  0  0  0  0  0  0  0  0  0  0
   -1.1624    2.2967    0.1909 H   0  0  0  0  0  0  0  0  0  0  0  0
   -2.8619    0.6103   -1.6066 H   0  0  0  0  0  0  0  0  0  0  0  0
   -3.3383    1.4091   -0.1612 H   0  0  0  0  0  0  0  0  0  0  0  0
   -3.3332   -1.0440   -0.0328 H   0  0  0  0  0  0  0  0  0  0  0  0
   -1.2219   -2.3454   -0.3637 H   0  0  0  0  0  0  0  0  0  0  0  0
   -1.7051   -1.4252   -1.7547 H   0  0  0  0  0  0  0  0  0  0  0  0
    0.6073   -3.0328   -0.4944 H   0  0  0  0  0  0  0  0  0  0  0  0
   -0.8970   -2.3297    1.7077 H   0  0  0  0  0  0  0  0  0  0  0  0
   -1.3566   -1.6714    3.2240 H   0  0  0  0  0  0  0  0  0  0  0  0
   -1.6074    0.3141    3.4030 H   0  0  0  0  0  0  0  0  0  0  0  0
   -1.1787    1.2121    2.0056 H   0  0  0  0  0  0  0  0  0  0  0  0
   -3.0256    2.1788    3.3813 H   0  0  0  0  0  0  0  0  0  0  0  0
   -3.5502    1.9405    1.7404 H   0  0  0  0  0  0  0  0  0  0  0  0
   -2.4912   -3.6624    3.1250 H   0  0  0  0  0  0  0  0  0  0  0  0
   -3.7200   -2.4304    2.9398 H   0  0  0  0  0  0  0  0  0  0  0  0
   -2.5384   -4.1055    0.6573 H   0  0  0  0  0  0  0  0  0  0  0  0
   -4.0723   -4.4114    1.4802 H   0  0  0  0  0  0  0  0  0  0  0  0
   -3.8934   -2.9638    0.5050 H   0  0  0  0  0  0  0  0  0  0  0  0
   -4.2016    0.1471    4.1248 H   0  0  0  0  0  0  0  0  0  0  0  0
   -5.3134    1.2033    3.2347 H   0  0  0  0  0  0  0  0  0  0  0  0
   -4.6678   -0.2393    2.4537 H   0  0  0  0  0  0  0  0  0  0  0  0
  1  2  2  0  0  0  0
  1 19  1  0  0  0  0
  2  3  1  0  0  0  0
  2 20  1  0  0  0  0
  3  4  2  0  0  0  0
  3 21  1  0  0  0  0
  4  5  1  0  0  0  0
  4  7  1  0  0  0  0
  5  6  2  0  0  0  0
  6  1  1  0  0  0  0
  6 11  1  0  0  0  0
  7  8  1  0  0  0  0
  7 22  1  0  0  0  0
  7 23  1  0  0  0  0
  8  9  1  0  0  0  0
  8 24  1  0  0  0  0
  8 25  1  0  0  0  0
  9 10  1  0  0  0  0
  9 12  1  0  0  0  0
  9 26  1  0  0  0  0
 10  5  1  0  0  0  0
 10 27  1  0  0  0  0
 10 28  1  0  0  0  0
 11 29  1  0  0  0  0
 12 13  1  0  0  0  0
 12 14  1  0  0  0  0
 13 16  1  0  0  0  0
 13 30  1  0  0  0  0
 13 31  1  0  0  0  0
 14 15  1  0  0  0  0
 14 32  1  0  0  0  0
 14 33  1  0  0  0  0
 15 18  1  0  0  0  0
 15 34  1  0  0  0  0
 15 35  1  0  0  0  0
 16 17  1  0  0  0  0
 16 36  1  0  0  0  0
 16 37  1  0  0  0  0
 17 38  1  0  0  0  0
 17 39  1  0  0  0  0
 17 40  1  0  0  0  0
 18 41  1  0  0  0  0
 18 42  1  0  0  0  0
 18 43  1  0  0  0  0
M  END
>  <Mol_ID>
4014

>  <Formula>
C16H25NO

>  <MolWeight>
247.3758

>  <Cat>
S8447

>  <Name>
8-OH-DPAT (8-Hydroxy-DPAT)

>  <Synonyms>
N/A

>  <Target>
5-HT Receptor

>  <Form>
free base

>  <CAS>
78950-78-4

>  <URL>
http://selleckchem.com/products/8-oh-dpat-8-hydroxy-dpat.html

$$$$
