9-amino-CPT (9-Aminocamptothecin)
 OpenBabel08302521353D

 44 48  0  0  0  0  0  0  0  0999 V2000
   -2.7547    1.1492    0.2394 N   0  0  0  0  0  0  0  0  0  0  0  0
   -4.9625    0.6562   -0.3983 C   0  0  0  0  0  0  0  0  0  0  0  0
   -2.5239   -0.1811    0.5936 C   0  0  0  0  0  0  0  0  0  0  0  0
   -5.0592   -0.2655    0.5650 C   0  0  0  0  0  0  0  0  0  0  0  0
   -3.9206    1.6448   -0.2818 C   0  0  0  0  0  0  0  0  0  0  0  0
   -0.9555   -0.2737    0.5424 C   0  0  0  0  0  0  0  0  0  0  0  0
   -3.6701   -0.9235    0.8389 C   0  0  0  0  0  0  0  0  0  0  0  0
   -0.5212    1.0315    0.3249 C   0  0  0  0  0  0  0  0  0  0  0  0
   -0.0306   -1.2665    0.5062 N   0  0  0  0  0  0  0  0  0  0  0  0
   -6.5448   -0.7121    0.6137 C   0  0  1  0  0  0  0  0  0  0  0  0
   -1.6213    1.9927    0.1968 C   0  0  0  0  0  0  0  0  0  0  0  0
   -6.7410   -1.4871   -0.7089 C   0  0  0  0  0  0  0  0  0  0  0  0
    1.7842    0.4484    0.1864 C   0  0  0  0  0  0  0  0  0  0  0  0
    0.7975    1.4078    0.1581 C   0  0  0  0  0  0  0  0  0  0  0  0
   -5.6134    0.4687   -1.7119 C   0  0  0  0  0  0  0  0  0  0  0  0
    1.3390   -0.9050    0.3223 C   0  0  0  0  0  0  0  0  0  0  0  0
   -6.2631   -0.8421   -1.8207 O   0  0  0  0  0  0  0  0  0  0  0  0
   -4.1029    2.7947   -0.6680 O   0  0  0  0  0  0  0  0  0  0  0  0
    3.1535    0.8544    0.0644 C   0  0  0  0  0  0  0  0  0  0  0  0
   -7.3917   -2.5247   -0.7849 O   0  0  0  0  0  0  0  0  0  0  0  0
   -6.8342   -1.4098    1.8099 O   0  0  0  0  0  0  0  0  0  0  0  0
    3.5392    2.1990   -0.1672 N   0  0  0  0  0  0  0  0  0  0  0  0
   -7.7305    0.4018    0.4378 C   0  0  0  0  0  0  0  0  0  0  0  0
    2.4016   -1.8253    0.2291 C   0  0  0  0  0  0  0  0  0  0  0  0
    3.7605   -1.4566    0.0467 C   0  0  0  0  0  0  0  0  0  0  0  0
    4.1308   -0.1211   -0.0459 C   0  0  0  0  0  0  0  0  0  0  0  0
   -7.7126    1.7645    1.1320 C   0  0  0  0  0  0  0  0  0  0  0  0
   -3.6431   -1.9720    1.0823 H   0  0  0  0  0  0  0  0  0  0  0  0
   -1.5817    2.5202   -0.7589 H   0  0  0  0  0  0  0  0  0  0  0  0
   -1.6451    2.6934    1.0355 H   0  0  0  0  0  0  0  0  0  0  0  0
    1.0116    2.4530   -0.0342 H   0  0  0  0  0  0  0  0  0  0  0  0
   -6.3175    1.2576   -1.9463 H   0  0  0  0  0  0  0  0  0  0  0  0
   -4.8285    0.4609   -2.4781 H   0  0  0  0  0  0  0  0  0  0  0  0
   -7.7413   -1.7628    1.7065 H   0  0  0  0  0  0  0  0  0  0  0  0
    4.5196    2.3872    0.0253 H   0  0  0  0  0  0  0  0  0  0  0  0
    2.9503    2.8939    0.2781 H   0  0  0  0  0  0  0  0  0  0  0  0
   -7.8691    0.6414   -0.6249 H   0  0  0  0  0  0  0  0  0  0  0  0
   -8.6911   -0.0669    0.6982 H   0  0  0  0  0  0  0  0  0  0  0  0
    2.1789   -2.8888    0.2764 H   0  0  0  0  0  0  0  0  0  0  0  0
    4.5367   -2.2161   -0.0311 H   0  0  0  0  0  0  0  0  0  0  0  0
    5.1738    0.1539   -0.1986 H   0  0  0  0  0  0  0  0  0  0  0  0
   -8.2549    1.7416    2.0819 H   0  0  0  0  0  0  0  0  0  0  0  0
   -6.7174    2.1820    1.2827 H   0  0  0  0  0  0  0  0  0  0  0  0
   -8.2617    2.4855    0.5015 H   0  0  0  0  0  0  0  0  0  0  0  0
  2  5  1  0  0  0  0
  3  1  1  0  0  0  0
  4  2  2  0  0  0  0
  5  1  1  0  0  0  0
  6  3  1  0  0  0  0
  6  8  2  0  0  0  0
  7  3  2  0  0  0  0
  7  4  1  0  0  0  0
  7 28  1  0  0  0  0
  8 11  1  0  0  0  0
  9  6  1  0  0  0  0
 10  4  1  0  0  0  0
 10 21  1  1  0  0  0
 10 23  1  0  0  0  0
 11  1  1  0  0  0  0
 11 29  1  0  0  0  0
 11 30  1  0  0  0  0
 12 10  1  0  0  0  0
 12 17  1  0  0  0  0
 13 14  2  0  0  0  0
 14  8  1  0  0  0  0
 14 31  1  0  0  0  0
 15  2  1  0  0  0  0
 15 32  1  0  0  0  0
 15 33  1  0  0  0  0
 16  9  2  0  0  0  0
 16 13  1  0  0  0  0
 17 15  1  0  0  0  0
 18  5  2  0  0  0  0
 19 13  1  0  0  0  0
 20 12  2  0  0  0  0
 21 34  1  0  0  0  0
 22 19  1  0  0  0  0
 22 35  1  0  0  0  0
 22 36  1  0  0  0  0
 23 37  1  0  0  0  0
 23 38  1  0  0  0  0
 24 16  1  0  0  0  0
 24 39  1  0  0  0  0
 25 24  2  0  0  0  0
 25 26  1  0  0  0  0
 25 40  1  0  0  0  0
 26 19  2  0  0  0  0
 26 41  1  0  0  0  0
 27 23  1  0  0  0  0
 27 42  1  0  0  0  0
 27 43  1  0  0  0  0
 27 44  1  0  0  0  0
M  END
>  <Mol_ID>
6659

>  <Formula>
C20H17N3O4

>  <MolWeight>
363.36668

>  <Cat>
S2653

>  <Name>
9-amino-CPT (9-Aminocamptothecin)

>  <Synonyms>
9-AC, Aminocamptothecin, 9-amino-20(S)-camptothecin

>  <Target>
Topoisomerase

>  <Form>
Free base

>  <CAS>
91421-43-1

>  <URL>
http://www.selleckchem.com/products/9-amino-cpt.html

$$$$
