9-Methoxycamptothecin
 OpenBabel08302521463D

 46 50  0  0  1  0  0  0  0  0999 V2000
    2.8716    1.3413   -0.7401 C   0  0  0  0  0  0  0  0  0  0  0  0
    2.2812   -0.0294   -1.0826 C   0  0  0  0  0  0  0  0  0  0  0  0
    1.2508    2.0115    0.9336 O   0  0  0  0  0  0  0  0  0  0  0  0
    5.1184    3.3070   -1.7454 O   0  0  0  0  0  0  0  0  0  0  0  0
    2.8478    0.1059    2.3226 O   0  0  0  0  0  0  0  0  0  0  0  0
    0.7041    9.7283   -4.1976 O   0  0  0  0  0  0  0  0  0  0  0  0
   -0.4534    8.8890   -4.2046 C   0  0  0  0  0  0  0  0  0  0  0  0
    3.3122    3.2889    1.0274 C   0  0  0  0  0  0  0  0  0  0  0  0
    4.5913    3.3260    0.6021 C   0  0  0  0  0  0  0  0  0  0  0  0
    2.6467    1.9184    0.7209 C   0  0  2  0  0  0  0  0  0  0  0  0
    2.6753    4.6229    1.1110 C   0  0  0  0  0  0  0  0  0  0  0  0
    4.5141    3.8516   -0.8309 C   0  0  0  0  0  0  0  0  0  0  0  0
    5.4734    2.1699    0.9454 C   0  0  0  0  0  0  0  0  0  0  0  0
    3.4171    0.9630    1.6475 C   0  0  0  0  0  0  0  0  0  0  0  0
    2.9310    5.4493    0.0772 C   0  0  0  0  0  0  0  0  0  0  0  0
    3.5579    4.8482   -0.9857 N   0  0  0  0  0  0  0  0  0  0  0  0
    4.7773    1.0555    1.5945 O   0  0  0  0  0  0  0  0  0  0  0  0
    2.4193    6.7368   -0.4602 C   0  0  0  0  0  0  0  0  0  0  0  0
    2.7621    5.1392   -2.1768 C   0  0  0  0  0  0  0  0  0  0  0  0
    2.2058    6.4857   -1.7976 C   0  0  0  0  0  0  0  0  0  0  0  0
    2.5950    7.9957    0.0126 N   0  0  0  0  0  0  0  0  0  0  0  0
    1.7515    7.4699   -2.6272 C   0  0  0  0  0  0  0  0  0  0  0  0
    2.3242    9.0109   -0.8743 C   0  0  0  0  0  0  0  0  0  0  0  0
    1.7485    8.7833   -2.1570 C   0  0  0  0  0  0  0  0  0  0  0  0
    2.6911   10.3348   -0.6034 C   0  0  0  0  0  0  0  0  0  0  0  0
    1.3364    9.8568   -2.9826 C   0  0  0  0  0  0  0  0  0  0  0  0
    2.4040   11.3965   -1.4781 C   0  0  0  0  0  0  0  0  0  0  0  0
    1.6856   11.1644   -2.6452 C   0  0  0  0  0  0  0  0  0  0  0  0
    2.4867    2.0477   -1.4832 H   0  0  0  0  0  0  0  0  0  0  0  0
    3.9408    1.2204   -0.9482 H   0  0  0  0  0  0  0  0  0  0  0  0
    1.1907   -0.0145   -1.0810 H   0  0  0  0  0  0  0  0  0  0  0  0
    2.6015   -0.3138   -2.0945 H   0  0  0  0  0  0  0  0  0  0  0  0
    2.6389   -0.8104   -0.4063 H   0  0  0  0  0  0  0  0  0  0  0  0
    0.9356    1.0964    1.0607 H   0  0  0  0  0  0  0  0  0  0  0  0
   -0.1964    7.9116   -4.6262 H   0  0  0  0  0  0  0  0  0  0  0  0
   -0.9135    8.7677   -3.2162 H   0  0  0  0  0  0  0  0  0  0  0  0
   -1.1935    9.3313   -4.8738 H   0  0  0  0  0  0  0  0  0  0  0  0
    2.0451    4.8845    1.9512 H   0  0  0  0  0  0  0  0  0  0  0  0
    6.1784    2.5257    1.7062 H   0  0  0  0  0  0  0  0  0  0  0  0
    6.0609    1.7790    0.1124 H   0  0  0  0  0  0  0  0  0  0  0  0
    3.3532    5.1175   -3.0841 H   0  0  0  0  0  0  0  0  0  0  0  0
    1.9321    4.4086   -2.2157 H   0  0  0  0  0  0  0  0  0  0  0  0
    1.5416    7.2300   -3.6593 H   0  0  0  0  0  0  0  0  0  0  0  0
    3.2742   10.5507    0.2925 H   0  0  0  0  0  0  0  0  0  0  0  0
    2.7491   12.4059   -1.2569 H   0  0  0  0  0  0  0  0  0  0  0  0
    1.4287   11.9833   -3.3093 H   0  0  0  0  0  0  0  0  0  0  0  0
  1  2  1  0  0  0  0
  1 29  1  0  0  0  0
  1 30  1  0  0  0  0
  2 31  1  0  0  0  0
  2 32  1  0  0  0  0
  2 33  1  0  0  0  0
  3 34  1  0  0  0  0
  4 12  2  0  0  0  0
  5 14  2  0  0  0  0
  6  7  1  0  0  0  0
  6 26  1  0  0  0  0
  7 35  1  0  0  0  0
  7 36  1  0  0  0  0
  7 37  1  0  0  0  0
  8  9  2  0  0  0  0
  8 10  1  0  0  0  0
  8 11  1  0  0  0  0
  9 12  1  0  0  0  0
  9 13  1  0  0  0  0
 10 14  1  0  0  0  0
 10  3  1  1  0  0  0
 10  1  1  0  0  0  0
 11 15  2  0  0  0  0
 11 38  1  0  0  0  0
 12 16  1  0  0  0  0
 13 17  1  0  0  0  0
 13 39  1  0  0  0  0
 13 40  1  0  0  0  0
 14 17  1  0  0  0  0
 15 16  1  0  0  0  0
 15 18  1  0  0  0  0
 16 19  1  0  0  0  0
 18 20  2  0  0  0  0
 18 21  1  0  0  0  0
 19 20  1  0  0  0  0
 19 41  1  0  0  0  0
 19 42  1  0  0  0  0
 20 22  1  0  0  0  0
 21 23  2  0  0  0  0
 22 24  2  0  0  0  0
 22 43  1  0  0  0  0
 23 24  1  0  0  0  0
 23 25  1  0  0  0  0
 24 26  1  0  0  0  0
 25 27  2  0  0  0  0
 25 44  1  0  0  0  0
 26 28  2  0  0  0  0
 27 28  1  0  0  0  0
 27 45  1  0  0  0  0
 28 46  1  0  0  0  0
M  END
>  <Mol_ID>
9624

>  <Formula>
C21H18N2O5

>  <MolWeight>
378.37802

>  <Cat>
E0561

>  <Name>
9-Methoxycamptothecin

>  <Synonyms>
N/A

>  <Target>
Topoisomerase

>  <Form>
free base

>  <CAS>
39026-92-1

>  <URL>
https://www.selleckchem.com/products/9-methoxycamptothecin.html

$$$$
