9-Phenanthrol
 OpenBabel08302521313D

 25 27  0  0  0  0  0  0  0  0999 V2000
   -1.6645    2.7601    0.0107 O   0  0  0  0  0  0  0  0  0  0  0  0
   -0.5058   -0.7412   -0.0097 C   0  0  0  0  0  0  0  0  0  0  0  0
    0.9191   -0.5324   -0.0095 C   0  0  0  0  0  0  0  0  0  0  0  0
   -1.3761    0.3808    0.0114 C   0  0  0  0  0  0  0  0  0  0  0  0
    1.4299    0.7915   -0.0095 C   0  0  0  0  0  0  0  0  0  0  0  0
   -0.8255    1.6725    0.0070 C   0  0  0  0  0  0  0  0  0  0  0  0
    0.5505    1.8789   -0.0069 C   0  0  0  0  0  0  0  0  0  0  0  0
   -1.1121   -2.0240   -0.0321 C   0  0  0  0  0  0  0  0  0  0  0  0
    1.8750   -1.5807   -0.0041 C   0  0  0  0  0  0  0  0  0  0  0  0
   -2.7738    0.1811    0.0333 C   0  0  0  0  0  0  0  0  0  0  0  0
    2.8169    1.0211   -0.0101 C   0  0  0  0  0  0  0  0  0  0  0  0
   -2.4980   -2.1998   -0.0217 C   0  0  0  0  0  0  0  0  0  0  0  0
    3.2509   -1.3397   -0.0009 C   0  0  0  0  0  0  0  0  0  0  0  0
   -3.3304   -1.0952    0.0178 C   0  0  0  0  0  0  0  0  0  0  0  0
    3.7226   -0.0367   -0.0052 C   0  0  0  0  0  0  0  0  0  0  0  0
   -1.1333    3.5708   -0.0353 H   0  0  0  0  0  0  0  0  0  0  0  0
    0.9478    2.8899   -0.0104 H   0  0  0  0  0  0  0  0  0  0  0  0
   -0.5074   -2.9256   -0.0631 H   0  0  0  0  0  0  0  0  0  0  0  0
    1.5615   -2.6204    0.0042 H   0  0  0  0  0  0  0  0  0  0  0  0
   -3.4433    1.0395    0.0624 H   0  0  0  0  0  0  0  0  0  0  0  0
    3.2085    2.0367   -0.0110 H   0  0  0  0  0  0  0  0  0  0  0  0
   -2.9179   -3.2018   -0.0436 H   0  0  0  0  0  0  0  0  0  0  0  0
    3.9475   -2.1740    0.0066 H   0  0  0  0  0  0  0  0  0  0  0  0
   -4.4096   -1.2194    0.0329 H   0  0  0  0  0  0  0  0  0  0  0  0
    4.7918    0.1577   -0.0024 H   0  0  0  0  0  0  0  0  0  0  0  0
  1  6  1  0  0  0  0
  1 16  1  0  0  0  0
  2  3  2  0  0  0  0
  2  4  1  0  0  0  0
  2  8  1  0  0  0  0
  3  5  1  0  0  0  0
  3  9  1  0  0  0  0
  4  6  2  0  0  0  0
  4 10  1  0  0  0  0
  5  7  2  0  0  0  0
  5 11  1  0  0  0  0
  6  7  1  0  0  0  0
  7 17  1  0  0  0  0
  8 12  2  0  0  0  0
  8 18  1  0  0  0  0
  9 13  2  0  0  0  0
  9 19  1  0  0  0  0
 10 14  2  0  0  0  0
 10 20  1  0  0  0  0
 11 15  2  0  0  0  0
 11 21  1  0  0  0  0
 12 14  1  0  0  0  0
 12 22  1  0  0  0  0
 13 15  1  0  0  0  0
 13 23  1  0  0  0  0
 14 24  1  0  0  0  0
 15 25  1  0  0  0  0
M  END
>  <Mol_ID>
5831

>  <Formula>
C14H10O

>  <MolWeight>
194.2286

>  <Cat>
E0028

>  <Name>
9-Phenanthrol

>  <Synonyms>
9-Hydroxyphenanthrene, Phenanthren-9-ol, 9-Phenanthrenol

>  <Target>
TRP Channel

>  <Form>
Free Base

>  <CAS>
484-17-3

>  <URL>
http://www.selleckchem.com/products/9-phenanthrol.html

$$$$
