937174-76-0.cdx
 OpenBabel08302521423D

 58 61  0  0  0  0  0  0  0  0999 V2000
    0.3185   -0.7413    0.0580 C   0  0  0  0  0  0  0  0  0  0  0  0
    0.2641    0.6610    0.1590 C   0  0  0  0  0  0  0  0  0  0  0  0
   -0.9571    1.3736    0.2456 C   0  0  0  0  0  0  0  0  0  0  0  0
   -2.0759    0.5332    0.2015 C   0  0  0  0  0  0  0  0  0  0  0  0
   -2.0778   -0.8299    0.1093 N   0  0  0  0  0  0  0  0  0  0  0  0
   -0.8861   -1.4791    0.0407 C   0  0  0  0  0  0  0  0  0  0  0  0
    1.6342   -1.1602   -0.0060 N   0  0  0  0  0  0  0  0  0  0  0  0
    2.3884   -0.0636    0.0587 C   0  0  0  0  0  0  0  0  0  0  0  0
    1.5865    1.0683    0.1084 N   0  0  0  0  0  0  0  0  0  0  0  0
   -0.9469   -2.9239   -0.0022 C   0  0  0  0  0  0  0  0  0  0  0  0
   -0.9640   -4.2276   -0.0041 C   0  0  0  0  0  0  0  0  0  0  0  0
   -0.9839   -5.7475   -0.0064 C   0  0  0  0  0  0  0  0  0  0  0  0
   -0.6096   -6.2692    1.3797 C   0  0  0  0  0  0  0  0  0  0  0  0
   -2.2947   -6.1977   -0.3288 O   0  0  0  0  0  0  0  0  0  0  0  0
   -0.0186   -6.2738   -1.0640 C   0  0  0  0  0  0  0  0  0  0  0  0
   -0.9437    2.7442    0.3667 O   0  0  0  0  0  0  0  0  0  0  0  0
   -2.2046    3.4163    0.4512 C   0  0  0  0  0  0  0  0  0  0  0  0
   -2.0910    4.9537    0.5659 C   0  0  2  0  0  0  0  0  0  0  0  0
   -1.3503    5.5259   -0.6523 C   0  0  0  0  0  0  0  0  0  0  0  0
   -1.6070    6.9635   -0.7528 N   0  0  0  0  0  0  0  0  0  0  0  0
   -1.0789    7.6764    0.4083 C   0  0  0  0  0  0  0  0  0  0  0  0
   -1.6258    7.1180    1.7278 C   0  0  0  0  0  0  0  0  0  0  0  0
   -1.4681    5.5839    1.8271 C   0  0  0  0  0  0  0  0  0  0  0  0
    2.0498    2.4288   -0.1068 C   0  0  0  0  0  0  0  0  0  0  0  0
    2.5356    3.1721    1.1296 C   0  0  0  0  0  0  0  0  0  0  0  0
    3.8795   -0.1066    0.0745 C   0  0  0  0  0  0  0  0  0  0  0  0
    4.7243   -1.2379   -0.0236 C   0  0  0  0  0  0  0  0  0  0  0  0
    5.9903   -0.8461    0.1223 N   0  0  0  0  0  0  0  0  0  0  0  0
    5.9437    0.5267    0.2551 O   0  0  0  0  0  0  0  0  0  0  0  0
    4.6429    0.9917    0.2147 N   0  0  0  0  0  0  0  0  0  0  0  0
    4.3466   -2.5086   -0.2375 N   0  0  0  0  0  0  0  0  0  0  0  0
   -3.0856    0.9330    0.2408 H   0  0  0  0  0  0  0  0  0  0  0  0
   -1.3188   -5.9156    2.1376 H   0  0  0  0  0  0  0  0  0  0  0  0
   -0.6433   -7.3643    1.4075 H   0  0  0  0  0  0  0  0  0  0  0  0
    0.3932   -5.9441    1.6781 H   0  0  0  0  0  0  0  0  0  0  0  0
   -2.9053   -5.7461    0.2798 H   0  0  0  0  0  0  0  0  0  0  0  0
   -0.3016   -5.9233   -2.0635 H   0  0  0  0  0  0  0  0  0  0  0  0
    1.0099   -5.9483   -0.8700 H   0  0  0  0  0  0  0  0  0  0  0  0
   -0.0354   -7.3688   -1.0997 H   0  0  0  0  0  0  0  0  0  0  0  0
   -2.7636    3.2476   -0.4809 H   0  0  0  0  0  0  0  0  0  0  0  0
   -2.7961    3.0202    1.2819 H   0  0  0  0  0  0  0  0  0  0  0  0
   -3.1299    5.3122    0.5412 H   0  0  0  0  0  0  0  0  0  0  0  0
   -0.2714    5.3368   -0.5849 H   0  0  0  0  0  0  0  0  0  0  0  0
   -1.7043    5.0426   -1.5703 H   0  0  0  0  0  0  0  0  0  0  0  0
   -1.1868    7.3282   -1.6059 H   0  0  0  0  0  0  0  0  0  0  0  0
   -1.3570    8.7338    0.3186 H   0  0  0  0  0  0  0  0  0  0  0  0
    0.0159    7.6326    0.4049 H   0  0  0  0  0  0  0  0  0  0  0  0
   -2.6924    7.3716    1.8035 H   0  0  0  0  0  0  0  0  0  0  0  0
   -1.1287    7.6141    2.5695 H   0  0  0  0  0  0  0  0  0  0  0  0
   -1.9697    5.2302    2.7339 H   0  0  0  0  0  0  0  0  0  0  0  0
   -0.4042    5.3323    1.9190 H   0  0  0  0  0  0  0  0  0  0  0  0
    2.8270    2.4029   -0.8757 H   0  0  0  0  0  0  0  0  0  0  0  0
    1.2285    2.9927   -0.5656 H   0  0  0  0  0  0  0  0  0  0  0  0
    3.5880    2.9564    1.3304 H   0  0  0  0  0  0  0  0  0  0  0  0
    2.4754    4.2553    0.9669 H   0  0  0  0  0  0  0  0  0  0  0  0
    1.9544    2.9204    2.0186 H   0  0  0  0  0  0  0  0  0  0  0  0
    5.0013   -3.2618   -0.1020 H   0  0  0  0  0  0  0  0  0  0  0  0
    3.3616   -2.7707   -0.3419 H   0  0  0  0  0  0  0  0  0  0  0  0
  1  2  2  0  0  0  0
  1  7  1  0  0  0  0
  2  3  1  0  0  0  0
  3  4  2  0  0  0  0
  3 16  1  0  0  0  0
  4  5  1  0  0  0  0
  4 32  1  0  0  0  0
  5  6  2  0  0  0  0
  6  1  1  0  0  0  0
  6 10  1  0  0  0  0
  7  8  2  0  0  0  0
  8  9  1  0  0  0  0
  8 26  1  0  0  0  0
  9  2  1  0  0  0  0
  9 24  1  0  0  0  0
 10 11  3  0  0  0  0
 11 12  1  0  0  0  0
 12 13  1  0  0  0  0
 12 14  1  0  0  0  0
 12 15  1  0  0  0  0
 13 33  1  0  0  0  0
 13 34  1  0  0  0  0
 13 35  1  0  0  0  0
 14 36  1  0  0  0  0
 15 37  1  0  0  0  0
 15 38  1  0  0  0  0
 15 39  1  0  0  0  0
 16 17  1  0  0  0  0
 17 40  1  0  0  0  0
 17 41  1  0  0  0  0
 18 19  1  0  0  0  0
 18 17  1  0  0  0  0
 18 42  1  6  0  0  0
 19 20  1  0  0  0  0
 19 43  1  0  0  0  0
 19 44  1  0  0  0  0
 20 21  1  0  0  0  0
 20 45  1  0  0  0  0
 21 22  1  0  0  0  0
 21 46  1  0  0  0  0
 21 47  1  0  0  0  0
 22 23  1  0  0  0  0
 22 48  1  0  0  0  0
 22 49  1  0  0  0  0
 23 18  1  0  0  0  0
 23 50  1  0  0  0  0
 23 51  1  0  0  0  0
 24 25  1  0  0  0  0
 24 52  1  0  0  0  0
 24 53  1  0  0  0  0
 25 54  1  0  0  0  0
 25 55  1  0  0  0  0
 25 56  1  0  0  0  0
 26 27  1  0  0  0  0
 27 28  2  0  0  0  0
 27 31  1  0  0  0  0
 28 29  1  0  0  0  0
 29 30  1  0  0  0  0
 30 26  2  0  0  0  0
 31 57  1  0  0  0  0
 31 58  1  0  0  0  0
M  END
>  <Mol_ID>
852

>  <Formula>
C21H27N7O3

>  <MolWeight>
425.48418

>  <Cat>
S1113

>  <Name>
GSK690693

>  <Synonyms>
N/A

>  <Target>
Akt,AMPK,Autophagy,DAPK,PKA,PKC,STING,ULK

>  <Form>
free base

>  <CAS>
937174-76-0

>  <URL>
http://selleckchem.com/products/GSK690693.html

$$$$
