A-366.cdx
 OpenBabel08302520003D

 51 54  0  0  0  0  0  0  0  0999 V2000
    2.4895   -0.9113    0.0171 C   0  0  0  0  0  0  0  0  0  0  0  0
    2.4790    0.4484    0.4113 C   0  0  0  0  0  0  0  0  0  0  0  0
    1.2743    1.0568    0.7811 C   0  0  0  0  0  0  0  0  0  0  0  0
    0.0983    0.3785    0.5099 C   0  0  0  0  0  0  0  0  0  0  0  0
    0.1064   -0.8510   -0.1601 C   0  0  0  0  0  0  0  0  0  0  0  0
    1.2895   -1.5673   -0.2696 C   0  0  0  0  0  0  0  0  0  0  0  0
    3.6044   -1.6636   -0.2654 O   0  0  0  0  0  0  0  0  0  0  0  0
    4.7990   -1.2952    0.4175 C   0  0  0  0  0  0  0  0  0  0  0  0
    3.6513    1.1214    0.1892 O   0  0  0  0  0  0  0  0  0  0  0  0
    3.9024    2.3896    0.7752 C   0  0  0  0  0  0  0  0  0  0  0  0
    5.2126    2.9320    0.1751 C   0  0  0  0  0  0  0  0  0  0  0  0
    5.0989    3.2852   -1.3228 C   0  0  0  0  0  0  0  0  0  0  0  0
    6.2650    4.0322   -1.8448 N   0  0  0  0  0  0  0  0  0  0  0  0
    6.0747    4.4014   -3.2599 C   0  0  0  0  0  0  0  0  0  0  0  0
    6.5316    3.1992   -4.0654 C   0  0  0  0  0  0  0  0  0  0  0  0
    7.6317    2.5867   -3.2172 C   0  0  0  0  0  0  0  0  0  0  0  0
    7.5242    3.2717   -1.8583 C   0  0  0  0  0  0  0  0  0  0  0  0
   -1.2162    0.9041    0.6228 N   0  0  0  0  0  0  0  0  0  0  0  0
   -1.9941    0.1527   -0.1059 C   0  0  0  0  0  0  0  0  0  0  0  0
   -1.2393   -0.9719   -0.9344 C   0  0  0  0  0  0  0  0  0  0  0  0
   -1.0711   -0.6108   -2.4517 C   0  0  0  0  0  0  0  0  0  0  0  0
   -2.2060   -1.5878   -2.7508 C   0  0  0  0  0  0  0  0  0  0  0  0
   -1.9073   -2.2759   -1.3950 C   0  0  0  0  0  0  0  0  0  0  0  0
   -3.3471    0.2609   -0.2131 N   0  0  0  0  0  0  0  0  0  0  0  0
    1.2102    2.0794    1.1318 H   0  0  0  0  0  0  0  0  0  0  0  0
    1.3035   -2.5592   -0.7088 H   0  0  0  0  0  0  0  0  0  0  0  0
    5.3115   -0.4850   -0.1099 H   0  0  0  0  0  0  0  0  0  0  0  0
    4.6160   -1.0375    1.4669 H   0  0  0  0  0  0  0  0  0  0  0  0
    5.4728   -2.1561    0.3999 H   0  0  0  0  0  0  0  0  0  0  0  0
    3.0883    3.0998    0.6055 H   0  0  0  0  0  0  0  0  0  0  0  0
    4.0398    2.2359    1.8503 H   0  0  0  0  0  0  0  0  0  0  0  0
    5.5153    3.8179    0.7429 H   0  0  0  0  0  0  0  0  0  0  0  0
    5.9883    2.1680    0.3024 H   0  0  0  0  0  0  0  0  0  0  0  0
    4.9076    2.3790   -1.9085 H   0  0  0  0  0  0  0  0  0  0  0  0
    4.2198    3.9335   -1.4372 H   0  0  0  0  0  0  0  0  0  0  0  0
    6.7249    5.2623   -3.4883 H   0  0  0  0  0  0  0  0  0  0  0  0
    5.0515    4.7121   -3.5033 H   0  0  0  0  0  0  0  0  0  0  0  0
    5.7109    2.4825   -4.1835 H   0  0  0  0  0  0  0  0  0  0  0  0
    6.8867    3.4786   -5.0667 H   0  0  0  0  0  0  0  0  0  0  0  0
    7.4964    1.5021   -3.1359 H   0  0  0  0  0  0  0  0  0  0  0  0
    8.6169    2.7691   -3.6639 H   0  0  0  0  0  0  0  0  0  0  0  0
    7.6470    2.5675   -1.0328 H   0  0  0  0  0  0  0  0  0  0  0  0
    8.3508    3.9898   -1.7656 H   0  0  0  0  0  0  0  0  0  0  0  0
   -0.1036   -0.9015   -2.8799 H   0  0  0  0  0  0  0  0  0  0  0  0
   -1.2550    0.4387   -2.7012 H   0  0  0  0  0  0  0  0  0  0  0  0
   -2.0593   -2.1925   -3.6489 H   0  0  0  0  0  0  0  0  0  0  0  0
   -3.1832   -1.0965   -2.8088 H   0  0  0  0  0  0  0  0  0  0  0  0
   -1.2298   -3.1327   -1.4890 H   0  0  0  0  0  0  0  0  0  0  0  0
   -2.7993   -2.5985   -0.8496 H   0  0  0  0  0  0  0  0  0  0  0  0
   -3.8624   -0.5805   -0.4387 H   0  0  0  0  0  0  0  0  0  0  0  0
   -3.7701    0.8250    0.5188 H   0  0  0  0  0  0  0  0  0  0  0  0
  1  2  2  0  0  0  0
  1  7  1  0  0  0  0
  2  3  1  0  0  0  0
  2  9  1  0  0  0  0
  3  4  2  0  0  0  0
  3 25  1  0  0  0  0
  4  5  1  0  0  0  0
  4 18  1  0  0  0  0
  5  6  2  0  0  0  0
  6  1  1  0  0  0  0
  6 26  1  0  0  0  0
  7  8  1  0  0  0  0
  8 27  1  0  0  0  0
  8 28  1  0  0  0  0
  8 29  1  0  0  0  0
  9 10  1  0  0  0  0
 10 11  1  0  0  0  0
 10 30  1  0  0  0  0
 10 31  1  0  0  0  0
 11 12  1  0  0  0  0
 11 32  1  0  0  0  0
 11 33  1  0  0  0  0
 12 13  1  0  0  0  0
 12 34  1  0  0  0  0
 12 35  1  0  0  0  0
 13 14  1  0  0  0  0
 14 15  1  0  0  0  0
 14 36  1  0  0  0  0
 14 37  1  0  0  0  0
 15 16  1  0  0  0  0
 15 38  1  0  0  0  0
 15 39  1  0  0  0  0
 16 17  1  0  0  0  0
 16 40  1  0  0  0  0
 16 41  1  0  0  0  0
 17 13  1  0  0  0  0
 17 42  1  0  0  0  0
 17 43  1  0  0  0  0
 18 19  2  0  0  0  0
 19 20  1  0  0  0  0
 19 24  1  0  0  0  0
 20  5  1  0  0  0  0
 20 21  1  0  0  0  0
 21 22  1  0  0  0  0
 21 44  1  0  0  0  0
 21 45  1  0  0  0  0
 22 23  1  0  0  0  0
 22 46  1  0  0  0  0
 22 47  1  0  0  0  0
 23 20  1  0  0  0  0
 23 48  1  0  0  0  0
 23 49  1  0  0  0  0
 24 50  1  0  0  0  0
 24 51  1  0  0  0  0
M  END
>  <Mol_ID>
2675

>  <Formula>
C19H27N3O2

>  <MolWeight>
329.43658

>  <Cat>
S7572

>  <Name>
A-366

>  <Synonyms>
N/A

>  <Target>
G9a/GLP,Histone Methyltransferase

>  <Form>
free base

>  <CAS>
1527503-11-2

>  <URL>
http://selleckchem.com/products/a-366.html

$$$$
