A-438079 HCl.cdx
 OpenBabel08302519593D

 29 31  0  0  0  0  0  0  0  0999 V2000
   -0.5261   -0.9903    0.2855 N   0  0  0  0  0  0  0  0  0  0  0  0
    0.7487   -0.6449    0.2434 N   0  0  0  0  0  0  0  0  0  0  0  0
    0.8835    0.7126    0.1366 N   0  0  0  0  0  0  0  0  0  0  0  0
   -0.3359    1.2284    0.1375 C   0  0  0  0  0  0  0  0  0  0  0  0
   -1.2124    0.1672    0.2055 N   0  0  0  0  0  0  0  0  0  0  0  0
   -0.6438    2.6535    0.0137 C   0  0  0  0  0  0  0  0  0  0  0  0
    0.1660    3.4558   -0.8065 C   0  0  0  0  0  0  0  0  0  0  0  0
   -0.0840    4.8233   -0.9480 C   0  0  0  0  0  0  0  0  0  0  0  0
   -1.1486    5.4112   -0.2708 C   0  0  0  0  0  0  0  0  0  0  0  0
   -1.9436    4.6379    0.5682 C   0  0  0  0  0  0  0  0  0  0  0  0
   -1.6786    3.2730    0.7244 C   0  0  0  0  0  0  0  0  0  0  0  0
   -2.6500    0.1132    0.0134 C   0  0  0  0  0  0  0  0  0  0  0  0
   -3.4514    0.4147    1.2516 C   0  0  0  0  0  0  0  0  0  0  0  0
   -4.7092    1.0238    1.1326 C   0  0  0  0  0  0  0  0  0  0  0  0
   -5.4367    1.3527    2.2726 C   0  0  0  0  0  0  0  0  0  0  0  0
   -4.8920    1.0454    3.5055 C   0  0  0  0  0  0  0  0  0  0  0  0
   -3.7063    0.4212    3.6615 N   0  0  0  0  0  0  0  0  0  0  0  0
   -3.0215    0.1022    2.5394 C   0  0  0  0  0  0  0  0  0  0  0  0
    1.0129    3.0177   -1.3333 H   0  0  0  0  0  0  0  0  0  0  0  0
    0.5608    5.4304   -1.5797 H   0  0  0  0  0  0  0  0  0  0  0  0
   -1.3444    6.4750   -0.3793 H   0  0  0  0  0  0  0  0  0  0  0  0
   -2.7554    5.0978    1.1259 H   0  0  0  0  0  0  0  0  0  0  0  0
   -2.2747    2.7297    1.4477 H   0  0  0  0  0  0  0  0  0  0  0  0
   -2.8850    0.8239   -0.7863 H   0  0  0  0  0  0  0  0  0  0  0  0
   -2.9075   -0.8900   -0.3478 H   0  0  0  0  0  0  0  0  0  0  0  0
   -5.1221    1.2625    0.1547 H   0  0  0  0  0  0  0  0  0  0  0  0
   -6.4017    1.8422    2.2011 H   0  0  0  0  0  0  0  0  0  0  0  0
   -5.4092    1.2976    4.4272 H   0  0  0  0  0  0  0  0  0  0  0  0
   -2.0789   -0.4074    2.7287 H   0  0  0  0  0  0  0  0  0  0  0  0
  1  2  2  0  0  0  0
  2  3  1  0  0  0  0
  3  4  2  0  0  0  0
  4  5  1  0  0  0  0
  4  6  1  0  0  0  0
  5  1  1  0  0  0  0
  5 12  1  0  0  0  0
  6  7  2  0  0  0  0
  7  8  1  0  0  0  0
  7 19  1  0  0  0  0
  8  9  2  0  0  0  0
  8 20  1  0  0  0  0
  9 10  1  0  0  0  0
  9 21  1  0  0  0  0
 10 11  2  0  0  0  0
 10 22  1  0  0  0  0
 11  6  1  0  0  0  0
 11 23  1  0  0  0  0
 12 13  1  0  0  0  0
 12 24  1  0  0  0  0
 12 25  1  0  0  0  0
 13 14  2  0  0  0  0
 14 15  1  0  0  0  0
 14 26  1  0  0  0  0
 15 16  2  0  0  0  0
 15 27  1  0  0  0  0
 16 17  1  0  0  0  0
 16 28  1  0  0  0  0
 17 18  2  0  0  0  0
 18 13  1  0  0  0  0
 18 29  1  0  0  0  0
M  END
>  <Mol_ID>
2590

>  <Formula>
C13H10Cl3N5

>  <MolWeight>
342.611

>  <Cat>
S7705

>  <Name>
A-438079 HCl

>  <Synonyms>
N/A

>  <Target>
P2 Receptor

>  <Form>
Hydrochloride

>  <CAS>
899431-18-6

>  <URL>
http://selleckchem.com/products/a-438079-hcl.html

$$$$
