A-443654
 OpenBabel08302521353D

 53 57  0  0  0  0  0  0  0  0999 V2000
    0.1478    3.2851    0.2012 C   0  0  0  0  0  0  0  0  0  0  0  0
    0.0788    2.1333   -0.8220 C   0  0  1  0  0  0  0  0  0  0  0  0
    1.4839    1.5789   -1.1545 C   0  0  0  0  0  0  0  0  0  0  0  0
   -0.9013    1.1089   -0.4158 N   0  0  0  0  0  0  0  0  0  0  0  0
    1.4864    0.8807   -2.4012 O   0  0  0  0  0  0  0  0  0  0  0  0
    0.1038   -3.2113    3.8969 C   0  0  0  0  0  0  0  0  0  0  0  0
    2.0675    3.0944    2.0061 C   0  0  0  0  0  0  0  0  0  0  0  0
    0.7051    2.9712    1.5639 C   0  0  0  0  0  0  0  0  0  0  0  0
    2.0601    2.9913    3.3986 C   0  0  0  0  0  0  0  0  0  0  0  0
    3.3017    3.3507    1.3705 C   0  0  0  0  0  0  0  0  0  0  0  0
   -0.0406    2.6340    2.6793 C   0  0  0  0  0  0  0  0  0  0  0  0
    0.7787    2.6682    3.7746 N   0  0  0  0  0  0  0  0  0  0  0  0
    3.1966    3.2187    4.1855 C   0  0  0  0  0  0  0  0  0  0  0  0
    4.4587    3.5289    2.1395 C   0  0  0  0  0  0  0  0  0  0  0  0
    4.3977    3.4951    3.5287 C   0  0  0  0  0  0  0  0  0  0  0  0
    1.6684   -0.4648   -2.4617 C   0  0  0  0  0  0  0  0  0  0  0  0
    1.6221   -1.3813   -1.4139 C   0  0  0  0  0  0  0  0  0  0  0  0
    1.8630   -0.9712   -3.7401 C   0  0  0  0  0  0  0  0  0  0  0  0
    1.6832   -2.7736   -1.6571 C   0  0  0  0  0  0  0  0  0  0  0  0
    1.9639   -2.2828   -4.0374 N   0  0  0  0  0  0  0  0  0  0  0  0
    1.8448   -3.1402   -2.9985 C   0  0  0  0  0  0  0  0  0  0  0  0
    1.5631   -3.7831   -0.5673 C   0  0  0  0  0  0  0  0  0  0  0  0
    0.9699   -3.4559    0.6698 C   0  0  0  0  0  0  0  0  0  0  0  0
    2.0367   -5.1066   -0.7209 C   0  0  0  0  0  0  0  0  0  0  0  0
    0.9272   -4.3906    1.7235 C   0  0  0  0  0  0  0  0  0  0  0  0
    1.9356   -6.0818    0.2854 C   0  0  0  0  0  0  0  0  0  0  0  0
    1.3859   -5.6788    1.4987 C   0  0  0  0  0  0  0  0  0  0  0  0
    0.5398   -4.3764    3.0879 C   0  0  0  0  0  0  0  0  0  0  0  0
    1.1910   -6.3444    2.6802 N   0  0  0  0  0  0  0  0  0  0  0  0
    0.6885   -5.5809    3.6720 N   0  0  0  0  0  0  0  0  0  0  0  0
   -0.8641    3.6945    0.3367 H   0  0  0  0  0  0  0  0  0  0  0  0
    0.7312    4.1097   -0.2293 H   0  0  0  0  0  0  0  0  0  0  0  0
   -0.3250    2.5585   -1.7507 H   0  0  0  0  0  0  0  0  0  0  0  0
    2.1435    2.4360   -1.3314 H   0  0  0  0  0  0  0  0  0  0  0  0
    1.9259    1.0151   -0.3290 H   0  0  0  0  0  0  0  0  0  0  0  0
   -0.6905    0.2253   -0.8762 H   0  0  0  0  0  0  0  0  0  0  0  0
   -0.8543    0.9548    0.5895 H   0  0  0  0  0  0  0  0  0  0  0  0
    0.9331   -2.5028    3.9995 H   0  0  0  0  0  0  0  0  0  0  0  0
   -0.7321   -2.6969    3.4184 H   0  0  0  0  0  0  0  0  0  0  0  0
   -0.2062   -3.5119    4.9026 H   0  0  0  0  0  0  0  0  0  0  0  0
    3.3721    3.4168    0.2905 H   0  0  0  0  0  0  0  0  0  0  0  0
   -1.1001    2.4459    2.7958 H   0  0  0  0  0  0  0  0  0  0  0  0
    0.4831    2.5251    4.7304 H   0  0  0  0  0  0  0  0  0  0  0  0
    3.1504    3.1967    5.2695 H   0  0  0  0  0  0  0  0  0  0  0  0
    5.4088    3.7174    1.6452 H   0  0  0  0  0  0  0  0  0  0  0  0
    5.2961    3.6860    4.1115 H   0  0  0  0  0  0  0  0  0  0  0  0
    1.5261   -1.0263   -0.3947 H   0  0  0  0  0  0  0  0  0  0  0  0
    1.9360   -0.3016   -4.5926 H   0  0  0  0  0  0  0  0  0  0  0  0
    1.8708   -4.1809   -3.3076 H   0  0  0  0  0  0  0  0  0  0  0  0
    0.5398   -2.4762    0.8496 H   0  0  0  0  0  0  0  0  0  0  0  0
    2.5211   -5.4187   -1.6432 H   0  0  0  0  0  0  0  0  0  0  0  0
    2.3063   -7.0880    0.1275 H   0  0  0  0  0  0  0  0  0  0  0  0
    1.4013   -7.3147    2.8848 H   0  0  0  0  0  0  0  0  0  0  0  0
  1  2  1  0  0  0  0
  1  8  1  0  0  0  0
  1 31  1  0  0  0  0
  1 32  1  0  0  0  0
  2  3  1  0  0  0  0
  2  4  1  0  0  0  0
  2 33  1  6  0  0  0
  3  5  1  0  0  0  0
  3 34  1  0  0  0  0
  3 35  1  0  0  0  0
  4 36  1  0  0  0  0
  4 37  1  0  0  0  0
  5 16  1  0  0  0  0
  6 28  1  0  0  0  0
  6 38  1  0  0  0  0
  6 39  1  0  0  0  0
  6 40  1  0  0  0  0
  7  8  1  0  0  0  0
  7  9  1  0  0  0  0
  7 10  2  0  0  0  0
  8 11  2  0  0  0  0
  9 12  1  0  0  0  0
  9 13  2  0  0  0  0
 10 14  1  0  0  0  0
 10 41  1  0  0  0  0
 11 12  1  0  0  0  0
 11 42  1  0  0  0  0
 12 43  1  0  0  0  0
 13 15  1  0  0  0  0
 13 44  1  0  0  0  0
 14 15  2  0  0  0  0
 14 45  1  0  0  0  0
 15 46  1  0  0  0  0
 16 17  2  0  0  0  0
 16 18  1  0  0  0  0
 17 19  1  0  0  0  0
 17 47  1  0  0  0  0
 18 20  2  0  0  0  0
 18 48  1  0  0  0  0
 19 21  2  0  0  0  0
 19 22  1  0  0  0  0
 20 21  1  0  0  0  0
 21 49  1  0  0  0  0
 22 23  2  0  0  0  0
 22 24  1  0  0  0  0
 23 25  1  0  0  0  0
 23 50  1  0  0  0  0
 24 26  2  0  0  0  0
 24 51  1  0  0  0  0
 25 27  2  0  0  0  0
 25 28  1  0  0  0  0
 26 27  1  0  0  0  0
 26 52  1  0  0  0  0
 27 29  1  0  0  0  0
 28 30  2  0  0  0  0
 29 30  1  0  0  0  0
 29 53  1  0  0  0  0
M  END
>  <Mol_ID>
6905

>  <Formula>
C24H23N5O

>  <MolWeight>
397.47232

>  <Cat>
E1125

>  <Name>
A-443654

>  <Target>
Akt

>  <Form>
Free base

>  <CAS>
552325-16-3

>  <URL>
https://www.selleckchem.com/products/a-443654.html

$$$$
