A-674563.cdx
 OpenBabel08302521423D

 49 52  0  0  0  0  0  0  0  0999 V2000
    2.3276    0.7646    3.1748 C   0  0  0  0  0  0  0  0  0  0  0  0
    3.4834    0.6111    3.9292 C   0  0  0  0  0  0  0  0  0  0  0  0
    4.1413    1.7460    4.4355 C   0  0  0  0  0  0  0  0  0  0  0  0
    3.6196    3.0168    4.1848 C   0  0  0  0  0  0  0  0  0  0  0  0
    2.4320    3.1742    3.4464 C   0  0  0  0  0  0  0  0  0  0  0  0
    1.8061    2.0348    2.9370 C   0  0  0  0  0  0  0  0  0  0  0  0
    1.8112    4.5370    3.2462 C   0  0  0  0  0  0  0  0  0  0  0  0
    2.4203    5.3816    2.1085 C   0  0  1  0  0  0  0  0  0  0  0  0
    2.2642    4.7925    0.6862 C   0  0  0  0  0  0  0  0  0  0  0  0
    0.9000    4.6198    0.2785 O   0  0  0  0  0  0  0  0  0  0  0  0
    0.7234    4.1331   -0.9982 C   0  0  0  0  0  0  0  0  0  0  0  0
   -0.5823    3.7961   -1.3908 C   0  0  0  0  0  0  0  0  0  0  0  0
   -0.8585    3.2348   -2.6532 C   0  0  0  0  0  0  0  0  0  0  0  0
    0.2387    3.1080   -3.5127 C   0  0  0  0  0  0  0  0  0  0  0  0
    1.5118    3.4416   -3.1846 N   0  0  0  0  0  0  0  0  0  0  0  0
    1.7195    3.9296   -1.9479 C   0  0  0  0  0  0  0  0  0  0  0  0
   -2.2045    2.6866   -2.9843 C   0  0  0  0  0  0  0  0  0  0  0  0
   -2.4080    1.6693   -3.9467 C   0  0  0  0  0  0  0  0  0  0  0  0
   -3.6400    0.9834   -3.9609 C   0  0  0  0  0  0  0  0  0  0  0  0
   -4.5519    1.2219   -2.9155 C   0  0  0  0  0  0  0  0  0  0  0  0
   -4.4995    2.3546   -2.1490 C   0  0  0  0  0  0  0  0  0  0  0  0
   -3.3396    3.1321   -2.2719 C   0  0  0  0  0  0  0  0  0  0  0  0
   -4.6252    0.6083   -4.9319 C   0  0  0  0  0  0  0  0  0  0  0  0
   -5.4721   -0.2639   -4.3493 N   0  0  0  0  0  0  0  0  0  0  0  0
   -5.4086    0.1538   -3.0606 N   0  0  0  0  0  0  0  0  0  0  0  0
   -5.2675    1.6323   -5.8431 C   0  0  0  0  0  0  0  0  0  0  0  0
    1.8503    6.7463    2.1829 N   0  0  0  0  0  0  0  0  0  0  0  0
    1.8171   -0.1129    2.7892 H   0  0  0  0  0  0  0  0  0  0  0  0
    3.8839   -0.3788    4.1299 H   0  0  0  0  0  0  0  0  0  0  0  0
    5.0448    1.6274    5.0184 H   0  0  0  0  0  0  0  0  0  0  0  0
    4.1247    3.8809    4.6048 H   0  0  0  0  0  0  0  0  0  0  0  0
    0.8836    2.1281    2.3598 H   0  0  0  0  0  0  0  0  0  0  0  0
    0.7256    4.4318    3.1104 H   0  0  0  0  0  0  0  0  0  0  0  0
    1.9279    5.0831    4.1982 H   0  0  0  0  0  0  0  0  0  0  0  0
    3.4910    5.4802    2.2989 H   0  0  0  0  0  0  0  0  0  0  0  0
    2.7626    5.4848   -0.0028 H   0  0  0  0  0  0  0  0  0  0  0  0
    2.7838    3.8222    0.6446 H   0  0  0  0  0  0  0  0  0  0  0  0
   -1.3683    3.9236   -0.6492 H   0  0  0  0  0  0  0  0  0  0  0  0
    0.1427    2.6945   -4.5054 H   0  0  0  0  0  0  0  0  0  0  0  0
    2.7590    4.1405   -1.7487 H   0  0  0  0  0  0  0  0  0  0  0  0
   -1.6241    1.3212   -4.6023 H   0  0  0  0  0  0  0  0  0  0  0  0
   -5.3489    2.6776   -1.5579 H   0  0  0  0  0  0  0  0  0  0  0  0
   -3.3192    4.0888   -1.7594 H   0  0  0  0  0  0  0  0  0  0  0  0
   -6.0671   -0.2306   -2.3881 H   0  0  0  0  0  0  0  0  0  0  0  0
   -5.5312    1.2192   -6.8212 H   0  0  0  0  0  0  0  0  0  0  0  0
   -6.1911    1.9920   -5.3696 H   0  0  0  0  0  0  0  0  0  0  0  0
   -4.6301    2.5137   -5.9652 H   0  0  0  0  0  0  0  0  0  0  0  0
    2.3607    7.3603    1.5476 H   0  0  0  0  0  0  0  0  0  0  0  0
    0.8960    6.7204    1.8259 H   0  0  0  0  0  0  0  0  0  0  0  0
  1  2  2  0  0  0  0
  1 28  1  0  0  0  0
  2  3  1  0  0  0  0
  2 29  1  0  0  0  0
  3  4  2  0  0  0  0
  3 30  1  0  0  0  0
  4  5  1  0  0  0  0
  4 31  1  0  0  0  0
  5  6  2  0  0  0  0
  5  7  1  0  0  0  0
  6  1  1  0  0  0  0
  6 32  1  0  0  0  0
  7  8  1  0  0  0  0
  7 33  1  0  0  0  0
  7 34  1  0  0  0  0
  8  9  1  0  0  0  0
  8 27  1  0  0  0  0
  8 35  1  1  0  0  0
  9 10  1  0  0  0  0
  9 36  1  0  0  0  0
  9 37  1  0  0  0  0
 10 11  1  0  0  0  0
 11 12  2  0  0  0  0
 12 13  1  0  0  0  0
 12 38  1  0  0  0  0
 13 14  2  0  0  0  0
 13 17  1  0  0  0  0
 14 15  1  0  0  0  0
 14 39  1  0  0  0  0
 15 16  2  0  0  0  0
 16 11  1  0  0  0  0
 16 40  1  0  0  0  0
 17 18  2  0  0  0  0
 18 19  1  0  0  0  0
 18 41  1  0  0  0  0
 19 20  2  0  0  0  0
 19 23  1  0  0  0  0
 20 21  1  0  0  0  0
 21 22  2  0  0  0  0
 21 42  1  0  0  0  0
 22 17  1  0  0  0  0
 22 43  1  0  0  0  0
 23 24  2  0  0  0  0
 23 26  1  0  0  0  0
 24 25  1  0  0  0  0
 25 20  1  0  0  0  0
 25 44  1  0  0  0  0
 26 45  1  0  0  0  0
 26 46  1  0  0  0  0
 26 47  1  0  0  0  0
 27 48  1  0  0  0  0
 27 49  1  0  0  0  0
M  END
>  <Mol_ID>
832

>  <Formula>
C22H22N4O

>  <MolWeight>
358.43628

>  <Cat>
S2670

>  <Name>
A-674563

>  <Synonyms>
N/A

>  <Target>
Akt,CDK,PKA

>  <Form>
free base

>  <CAS>
552325-73-2

>  <URL>
http://selleckchem.com/products/a-674563.html

$$$$
