A-740003
 OpenBabel08302521283D

 65 67  0  0  0  0  0  0  0  0999 V2000
    1.1009    0.0077    0.0699 O   0  0  0  0  0  0  0  0  0  0  0  0
    1.0065    5.2188    0.3641 O   0  0  0  0  0  0  0  0  0  0  0  0
    3.6551    6.3914    0.3327 O   0  0  0  0  0  0  0  0  0  0  0  0
    3.0885   -0.4601    0.9567 N   0  0  0  0  0  0  0  0  0  0  0  0
    4.7487    0.1833    2.3712 N   0  0  0  0  0  0  0  0  0  0  0  0
    6.6072    1.4836    1.8857 N   0  0  0  0  0  0  0  0  0  0  0  0
    5.9392    0.8475    4.1527 N   0  0  0  0  0  0  0  0  0  0  0  0
    9.9182    4.7637    0.3468 N   0  0  0  0  0  0  0  0  0  0  0  0
    7.6864    2.0617    5.4500 N   0  0  0  0  0  0  0  0  0  0  0  0
    5.0568   -1.9789    1.1010 C   0  0  0  0  0  0  0  0  0  0  0  0
    4.5253   -0.5037    1.1232 C   0  0  3  0  0  0  0  0  0  0  0  0
    2.3238    0.1265   -0.0067 C   0  0  0  0  0  0  0  0  0  0  0  0
    2.9694    0.9378   -1.1193 C   0  0  0  0  0  0  0  0  0  0  0  0
    5.8344    0.8784    2.8582 C   0  0  0  0  0  0  0  0  0  0  0  0
    3.1415    2.3865   -0.7379 C   0  0  0  0  0  0  0  0  0  0  0  0
    7.2469    2.7638    1.9850 C   0  0  0  0  0  0  0  0  0  0  0  0
    2.0074    3.1406   -0.3940 C   0  0  0  0  0  0  0  0  0  0  0  0
    4.3924    3.0001   -0.7235 C   0  0  0  0  0  0  0  0  0  0  0  0
    8.3603    3.0721    1.1374 C   0  0  0  0  0  0  0  0  0  0  0  0
    2.0959    4.4867   -0.0232 C   0  0  0  0  0  0  0  0  0  0  0  0
    6.6966    3.7812    2.7785 C   0  0  0  0  0  0  0  0  0  0  0  0
    4.4976    4.3408   -0.3480 C   0  0  0  0  0  0  0  0  0  0  0  0
    8.8709    4.3927    1.1049 C   0  0  0  0  0  0  0  0  0  0  0  0
    3.3610    5.0968   -0.0171 C   0  0  0  0  0  0  0  0  0  0  0  0
    9.0295    2.1321    0.3195 C   0  0  0  0  0  0  0  0  0  0  0  0
    7.2103    5.0713    2.7368 C   0  0  0  0  0  0  0  0  0  0  0  0
    8.2702    5.3655    1.8843 C   0  0  0  0  0  0  0  0  0  0  0  0
    6.9171    1.4851    4.8153 C   0  0  0  0  0  0  0  0  0  0  0  0
   10.1349    2.5078   -0.4435 C   0  0  0  0  0  0  0  0  0  0  0  0
   10.5351    3.8261   -0.3982 C   0  0  0  0  0  0  0  0  0  0  0  0
   -0.2698    4.5891    0.3692 C   0  0  0  0  0  0  0  0  0  0  0  0
    2.6592    7.3701    0.0596 C   0  0  0  0  0  0  0  0  0  0  0  0
    4.7115   -2.6529   -0.2473 C   0  0  0  0  0  0  0  0  0  0  0  0
    6.5934   -1.9969    1.2079 C   0  0  0  0  0  0  0  0  0  0  0  0
    4.4489   -2.8642    2.2075 C   0  0  0  0  0  0  0  0  0  0  0  0
    2.5227   -0.9176    1.6589 H   0  0  0  0  0  0  0  0  0  0  0  0
    4.1441   -0.1284    3.1240 H   0  0  0  0  0  0  0  0  0  0  0  0
    6.1356    1.4974    0.9893 H   0  0  0  0  0  0  0  0  0  0  0  0
    4.9940    0.0419    0.3035 H   0  0  0  0  0  0  0  0  0  0  0  0
    3.9169    0.4810   -1.4198 H   0  0  0  0  0  0  0  0  0  0  0  0
    2.3332    0.8871   -2.0130 H   0  0  0  0  0  0  0  0  0  0  0  0
    1.0454    2.6364   -0.4095 H   0  0  0  0  0  0  0  0  0  0  0  0
    5.2900    2.4568   -1.0042 H   0  0  0  0  0  0  0  0  0  0  0  0
    5.8580    3.5894    3.4428 H   0  0  0  0  0  0  0  0  0  0  0  0
    5.4777    4.8140   -0.3212 H   0  0  0  0  0  0  0  0  0  0  0  0
    8.7190    1.0913    0.2987 H   0  0  0  0  0  0  0  0  0  0  0  0
    6.7750    5.8522    3.3552 H   0  0  0  0  0  0  0  0  0  0  0  0
    8.6406    6.3867    1.8288 H   0  0  0  0  0  0  0  0  0  0  0  0
   10.6763    1.7897   -1.0497 H   0  0  0  0  0  0  0  0  0  0  0  0
   11.3870    4.1803   -0.9726 H   0  0  0  0  0  0  0  0  0  0  0  0
   -0.5679    4.2945   -0.6430 H   0  0  0  0  0  0  0  0  0  0  0  0
   -0.2937    3.7360    1.0559 H   0  0  0  0  0  0  0  0  0  0  0  0
   -1.0003    5.3198    0.7287 H   0  0  0  0  0  0  0  0  0  0  0  0
    2.3384    7.3348   -0.9874 H   0  0  0  0  0  0  0  0  0  0  0  0
    1.8137    7.2910    0.7463 H   0  0  0  0  0  0  0  0  0  0  0  0
    3.1026    8.3545    0.2395 H   0  0  0  0  0  0  0  0  0  0  0  0
    5.1656   -2.1131   -1.0841 H   0  0  0  0  0  0  0  0  0  0  0  0
    5.0901   -3.6829   -0.2770 H   0  0  0  0  0  0  0  0  0  0  0  0
    3.6303   -2.7063   -0.4108 H   0  0  0  0  0  0  0  0  0  0  0  0
    6.9459   -1.6058    2.1647 H   0  0  0  0  0  0  0  0  0  0  0  0
    6.9817   -3.0177    1.1068 H   0  0  0  0  0  0  0  0  0  0  0  0
    7.0429   -1.3990    0.4054 H   0  0  0  0  0  0  0  0  0  0  0  0
    4.6978   -2.5034    3.2096 H   0  0  0  0  0  0  0  0  0  0  0  0
    3.3575   -2.9192    2.1234 H   0  0  0  0  0  0  0  0  0  0  0  0
    4.8185   -3.8936    2.1265 H   0  0  0  0  0  0  0  0  0  0  0  0
  1 12  2  0  0  0  0
  2 20  1  0  0  0  0
  2 31  1  0  0  0  0
  3 24  1  0  0  0  0
  3 32  1  0  0  0  0
  4 11  1  0  0  0  0
  4 12  1  0  0  0  0
  4 36  1  0  0  0  0
  5 11  1  0  0  0  0
  5 37  1  0  0  0  0
  6 14  1  0  0  0  0
  6 16  1  0  0  0  0
  6 38  1  0  0  0  0
  7 14  2  0  0  0  0
  7 28  1  0  0  0  0
  8 23  2  0  0  0  0
  8 30  1  0  0  0  0
  9 28  3  0  0  0  0
 10 11  1  0  0  0  0
 10 33  1  0  0  0  0
 10 34  1  0  0  0  0
 10 35  1  0  0  0  0
 11 39  1  0  0  0  0
 12 13  1  0  0  0  0
 13 15  1  0  0  0  0
 13 40  1  0  0  0  0
 13 41  1  0  0  0  0
 14  5  1  0  0  0  0
 15 17  2  0  0  0  0
 15 18  1  0  0  0  0
 16 19  1  0  0  0  0
 16 21  2  0  0  0  0
 17 20  1  0  0  0  0
 17 42  1  0  0  0  0
 18 22  2  0  0  0  0
 18 43  1  0  0  0  0
 19 23  1  0  0  0  0
 19 25  2  0  0  0  0
 20 24  2  0  0  0  0
 21 26  1  0  0  0  0
 21 44  1  0  0  0  0
 22 24  1  0  0  0  0
 22 45  1  0  0  0  0
 23 27  1  0  0  0  0
 25 29  1  0  0  0  0
 25 46  1  0  0  0  0
 26 27  2  0  0  0  0
 26 47  1  0  0  0  0
 27 48  1  0  0  0  0
 29 30  2  0  0  0  0
 29 49  1  0  0  0  0
 30 50  1  0  0  0  0
 31 51  1  0  0  0  0
 31 52  1  0  0  0  0
 31 53  1  0  0  0  0
 32 54  1  0  0  0  0
 32 55  1  0  0  0  0
 32 56  1  0  0  0  0
 33 57  1  0  0  0  0
 33 58  1  0  0  0  0
 33 59  1  0  0  0  0
 34 60  1  0  0  0  0
 34 61  1  0  0  0  0
 34 62  1  0  0  0  0
 35 63  1  0  0  0  0
 35 64  1  0  0  0  0
 35 65  1  0  0  0  0
M  END
>  <Mol_ID>
5398

>  <Formula>
C26H30N6O3

>  <MolWeight>
474.5548

>  <Cat>
S0826

>  <Name>
A-740003

>  <Synonyms>
N/A

>  <Target>
Interleukins,P2 Receptor

>  <Form>
Free Base

>  <CAS>
861393-28-4

>  <URL>
https://www.selleckchem.com/products/a-740003.html

$$$$
