A-803467.cdx
 OpenBabel08302521313D

 41 43  0  0  0  0  0  0  0  0999 V2000
   -2.2444    4.0775    0.6242 O   0  0  0  0  0  0  0  0  0  0  0  0
   -1.9149    2.8113    0.2215 C   0  0  0  0  0  0  0  0  0  0  0  0
   -3.0537    2.0330    0.1503 C   0  0  0  0  0  0  0  0  0  0  0  0
   -4.1374    2.8625    0.4943 C   0  0  0  0  0  0  0  0  0  0  0  0
   -3.6060    4.0976    0.8124 C   0  0  0  0  0  0  0  0  0  0  0  0
   -0.5480    2.4208   -0.0544 C   0  0  0  0  0  0  0  0  0  0  0  0
   -0.2945    1.2572   -0.3502 O   0  0  0  0  0  0  0  0  0  0  0  0
    0.4077    3.4268    0.0715 N   0  0  0  0  0  0  0  0  0  0  0  0
    1.7978    3.2572   -0.1534 C   0  0  0  0  0  0  0  0  0  0  0  0
    2.3113    2.1572   -0.8505 C   0  0  0  0  0  0  0  0  0  0  0  0
    3.6831    1.9331   -0.9471 C   0  0  0  0  0  0  0  0  0  0  0  0
    4.5647    2.8603   -0.3962 C   0  0  0  0  0  0  0  0  0  0  0  0
    4.0773    4.0174    0.2144 C   0  0  0  0  0  0  0  0  0  0  0  0
    2.6934    4.2071    0.3460 C   0  0  0  0  0  0  0  0  0  0  0  0
    4.8625    5.0060    0.7489 O   0  0  0  0  0  0  0  0  0  0  0  0
    6.2005    5.0632    0.2580 C   0  0  0  0  0  0  0  0  0  0  0  0
    4.2691    0.8483   -1.5438 O   0  0  0  0  0  0  0  0  0  0  0  0
    3.3878   -0.1423   -2.0674 C   0  0  0  0  0  0  0  0  0  0  0  0
   -4.1932    5.3296    1.3335 C   0  0  0  0  0  0  0  0  0  0  0  0
   -3.3995    6.4321    1.6756 C   0  0  0  0  0  0  0  0  0  0  0  0
   -3.9673    7.5690    2.2584 C   0  0  0  0  0  0  0  0  0  0  0  0
   -5.3383    7.6225    2.4989 C   0  0  0  0  0  0  0  0  0  0  0  0
   -6.1463    6.5478    2.1415 C   0  0  0  0  0  0  0  0  0  0  0  0
   -5.5777    5.4115    1.5605 C   0  0  0  0  0  0  0  0  0  0  0  0
   -3.0755    0.9848   -0.1187 H   0  0  0  0  0  0  0  0  0  0  0  0
   -5.1784    2.5766    0.5434 H   0  0  0  0  0  0  0  0  0  0  0  0
    0.0885    4.2999    0.4751 H   0  0  0  0  0  0  0  0  0  0  0  0
    1.6329    1.4655   -1.3315 H   0  0  0  0  0  0  0  0  0  0  0  0
    5.6268    2.6478   -0.4533 H   0  0  0  0  0  0  0  0  0  0  0  0
    2.3364    5.0935    0.8626 H   0  0  0  0  0  0  0  0  0  0  0  0
    6.8037    4.2427    0.6606 H   0  0  0  0  0  0  0  0  0  0  0  0
    6.2247    5.0671   -0.8377 H   0  0  0  0  0  0  0  0  0  0  0  0
    6.6451    6.0017    0.6023 H   0  0  0  0  0  0  0  0  0  0  0  0
    2.7093   -0.5282   -1.2982 H   0  0  0  0  0  0  0  0  0  0  0  0
    2.8305    0.2515   -2.9242 H   0  0  0  0  0  0  0  0  0  0  0  0
    3.9942   -0.9816   -2.4202 H   0  0  0  0  0  0  0  0  0  0  0  0
   -2.3253    6.4098    1.5105 H   0  0  0  0  0  0  0  0  0  0  0  0
   -3.3340    8.4071    2.5369 H   0  0  0  0  0  0  0  0  0  0  0  0
   -5.7759    8.4995    2.9683 H   0  0  0  0  0  0  0  0  0  0  0  0
   -7.2171    6.5852    2.3253 H   0  0  0  0  0  0  0  0  0  0  0  0
   -6.2346    4.5837    1.3044 H   0  0  0  0  0  0  0  0  0  0  0  0
  1  2  1  0  0  0  0
  1  5  1  0  0  0  0
  2  3  2  0  0  0  0
  2  6  1  0  0  0  0
  3  4  1  0  0  0  0
  3 25  1  0  0  0  0
  4  5  2  0  0  0  0
  4 26  1  0  0  0  0
  5 19  1  0  0  0  0
  6  7  2  0  0  0  0
  6  8  1  0  0  0  0
  8  9  1  0  0  0  0
  8 27  1  0  0  0  0
  9 10  2  0  0  0  0
  9 14  1  0  0  0  0
 10 11  1  0  0  0  0
 10 28  1  0  0  0  0
 11 12  2  0  0  0  0
 11 17  1  0  0  0  0
 12 13  1  0  0  0  0
 12 29  1  0  0  0  0
 13 14  2  0  0  0  0
 13 15  1  0  0  0  0
 14 30  1  0  0  0  0
 15 16  1  0  0  0  0
 16 31  1  0  0  0  0
 16 32  1  0  0  0  0
 16 33  1  0  0  0  0
 17 18  1  0  0  0  0
 18 34  1  0  0  0  0
 18 35  1  0  0  0  0
 18 36  1  0  0  0  0
 19 20  2  0  0  0  0
 19 24  1  0  0  0  0
 20 21  1  0  0  0  0
 20 37  1  0  0  0  0
 21 22  2  0  0  0  0
 21 38  1  0  0  0  0
 22 23  1  0  0  0  0
 22 39  1  0  0  0  0
 23 24  2  0  0  0  0
 23 40  1  0  0  0  0
 24 41  1  0  0  0  0
M  END
>  <Mol_ID>
561

>  <Formula>
C19H16ClNO4

>  <MolWeight>
357.78764

>  <Cat>
S2785

>  <Name>
A-803467

>  <Synonyms>
N/A

>  <Target>
Sodium Channel

>  <Form>
free base

>  <CAS>
944261-79-4

>  <URL>
http://selleckchem.com/products/a-803467.html

$$$$
