A-966492.cdx
 OpenBabel08302520013D

 41 44  0  0  0  0  0  0  0  0999 V2000
    2.2010    0.5780   -0.4770 C   0  0  0  0  0  0  0  0  0  0  0  0
    2.2325   -0.1290    0.7289 C   0  0  0  0  0  0  0  0  0  0  0  0
    1.0469   -0.5613    1.3451 C   0  0  0  0  0  0  0  0  0  0  0  0
   -0.1517   -0.2297    0.7041 C   0  0  0  0  0  0  0  0  0  0  0  0
   -0.2101    0.4640   -0.4946 C   0  0  0  0  0  0  0  0  0  0  0  0
    0.9835    0.8764   -1.1041 C   0  0  0  0  0  0  0  0  0  0  0  0
    1.0257   -1.3075    2.6238 C   0  0  0  0  0  0  0  0  0  0  0  0
    2.1286   -2.0547    2.9280 N   0  0  0  0  0  0  0  0  0  0  0  0
    0.0425   -1.2937    3.3542 O   0  0  0  0  0  0  0  0  0  0  0  0
   -1.4648   -0.4601    1.0193 N   0  0  0  0  0  0  0  0  0  0  0  0
   -2.2646    0.0657    0.0280 C   0  0  0  0  0  0  0  0  0  0  0  0
   -1.5113    0.6359   -0.8983 N   0  0  0  0  0  0  0  0  0  0  0  0
   -3.7270   -0.0137    0.0420 C   0  0  0  0  0  0  0  0  0  0  0  0
   -4.4828    0.5710   -0.9841 C   0  0  0  0  0  0  0  0  0  0  0  0
   -5.8837    0.5016   -0.9737 C   0  0  0  0  0  0  0  0  0  0  0  0
   -6.5652   -0.1483    0.0660 C   0  0  0  0  0  0  0  0  0  0  0  0
   -5.8069   -0.7374    1.0854 C   0  0  0  0  0  0  0  0  0  0  0  0
   -4.4151   -0.6677    1.0652 C   0  0  0  0  0  0  0  0  0  0  0  0
   -3.7501   -1.2547    2.0743 F   0  0  0  0  0  0  0  0  0  0  0  0
   -8.0767   -0.1995    0.0837 C   0  0  1  0  0  0  0  0  0  0  0  0
   -8.6036   -1.5747    0.0427 N   0  0  0  0  0  0  0  0  0  0  0  0
   -9.9300   -1.5425    0.6737 C   0  0  0  0  0  0  0  0  0  0  0  0
  -10.0872   -0.1869    1.3453 C   0  0  0  0  0  0  0  0  0  0  0  0
   -8.6926    0.4017    1.3421 C   0  0  0  0  0  0  0  0  0  0  0  0
    3.1314    0.9098   -0.9328 H   0  0  0  0  0  0  0  0  0  0  0  0
    3.1945   -0.3143    1.1994 H   0  0  0  0  0  0  0  0  0  0  0  0
    0.9531    1.4245   -2.0395 H   0  0  0  0  0  0  0  0  0  0  0  0
    2.0676   -2.6380    3.7533 H   0  0  0  0  0  0  0  0  0  0  0  0
    2.8196   -2.3016    2.2335 H   0  0  0  0  0  0  0  0  0  0  0  0
   -1.7904   -0.9339    1.8541 H   0  0  0  0  0  0  0  0  0  0  0  0
   -3.9797    1.0871   -1.8006 H   0  0  0  0  0  0  0  0  0  0  0  0
   -6.4376    0.9646   -1.7914 H   0  0  0  0  0  0  0  0  0  0  0  0
   -6.2795   -1.2580    1.9130 H   0  0  0  0  0  0  0  0  0  0  0  0
   -8.4721    0.3299   -0.7934 H   0  0  0  0  0  0  0  0  0  0  0  0
   -8.0002   -2.1828    0.5938 H   0  0  0  0  0  0  0  0  0  0  0  0
  -10.0098   -2.3515    1.4085 H   0  0  0  0  0  0  0  0  0  0  0  0
  -10.7122   -1.6990   -0.0757 H   0  0  0  0  0  0  0  0  0  0  0  0
  -10.4917   -0.2672    2.3590 H   0  0  0  0  0  0  0  0  0  0  0  0
  -10.7603    0.4476    0.7574 H   0  0  0  0  0  0  0  0  0  0  0  0
   -8.1673    0.0968    2.2549 H   0  0  0  0  0  0  0  0  0  0  0  0
   -8.7052    1.4961    1.3175 H   0  0  0  0  0  0  0  0  0  0  0  0
  1  2  2  0  0  0  0
  1 25  1  0  0  0  0
  2  3  1  0  0  0  0
  2 26  1  0  0  0  0
  3  4  2  0  0  0  0
  3  7  1  0  0  0  0
  4  5  1  0  0  0  0
  4 10  1  0  0  0  0
  5  6  2  0  0  0  0
  6  1  1  0  0  0  0
  6 27  1  0  0  0  0
  7  8  1  0  0  0  0
  7  9  2  0  0  0  0
  8 28  1  0  0  0  0
  8 29  1  0  0  0  0
 10 11  1  0  0  0  0
 10 30  1  0  0  0  0
 11 12  2  0  0  0  0
 11 13  1  0  0  0  0
 12  5  1  0  0  0  0
 13 14  2  0  0  0  0
 14 15  1  0  0  0  0
 14 31  1  0  0  0  0
 15 16  2  0  0  0  0
 15 32  1  0  0  0  0
 16 17  1  0  0  0  0
 17 18  2  0  0  0  0
 17 33  1  0  0  0  0
 18 13  1  0  0  0  0
 18 19  1  0  0  0  0
 20 16  1  0  0  0  0
 20 21  1  0  0  0  0
 20 34  1  6  0  0  0
 21 22  1  0  0  0  0
 21 35  1  0  0  0  0
 22 23  1  0  0  0  0
 22 36  1  0  0  0  0
 22 37  1  0  0  0  0
 23 24  1  0  0  0  0
 23 38  1  0  0  0  0
 23 39  1  0  0  0  0
 24 20  1  0  0  0  0
 24 40  1  0  0  0  0
 24 41  1  0  0  0  0
M  END
>  <Mol_ID>
305

>  <Formula>
C18H17FN4O

>  <MolWeight>
324.3521832

>  <Cat>
S2197

>  <Name>
A-966492

>  <Synonyms>
N/A

>  <Target>
PARP

>  <Form>
free base

>  <CAS>
934162-61-5

>  <URL>
http://selleckchem.com/products/A-966492.html

$$$$
