A2764 dihydrochloride
 OpenBabel08302521263D

 38 39  0  0  0  0  0  0  0  0999 V2000
    1.0614   -0.0032   -0.5342 O   0  0  0  0  0  0  0  0  0  0  0  0
    0.1350    3.0308    1.5094 N   0  0  0  0  0  0  0  0  0  0  0  0
    0.9654   -2.7236   -0.9515 N   0  0  0  0  0  0  0  0  0  0  0  0
    0.7107    1.7107    1.1705 C   0  0  0  0  0  0  0  0  0  0  0  0
   -1.3371    3.0797    1.3994 C   0  0  0  0  0  0  0  0  0  0  0  0
    0.5655    3.5538    2.8139 C   0  0  0  0  0  0  0  0  0  0  0  0
    0.4326    1.2616   -0.2881 C   0  0  0  0  0  0  0  0  0  0  0  0
   -2.1108    2.1118    2.2920 C   0  0  0  0  0  0  0  0  0  0  0  0
    2.0573    3.8638    2.9196 C   0  0  0  0  0  0  0  0  0  0  0  0
    1.0760   -0.4741   -1.8360 C   0  0  0  0  0  0  0  0  0  0  0  0
    1.0968   -1.8763   -2.0014 C   0  0  0  0  0  0  0  0  0  0  0  0
    1.2512   -2.3867   -3.3153 C   0  0  0  0  0  0  0  0  0  0  0  0
    1.1696    0.3756   -2.9494 C   0  0  0  0  0  0  0  0  0  0  0  0
    1.3642   -1.5247   -4.4155 C   0  0  0  0  0  0  0  0  0  0  0  0
    1.3099   -0.1492   -4.2331 C   0  0  0  0  0  0  0  0  0  0  0  0
    1.2952   -3.7756   -3.5060 C   0  0  0  0  0  0  0  0  0  0  0  0
    1.1580   -4.6279   -2.4204 C   0  0  0  0  0  0  0  0  0  0  0  0
    0.9891   -4.0565   -1.1764 C   0  0  0  0  0  0  0  0  0  0  0  0
    0.3845    0.9343    1.8715 H   0  0  0  0  0  0  0  0  0  0  0  0
    1.8025    1.7537    1.2756 H   0  0  0  0  0  0  0  0  0  0  0  0
   -1.6793    4.1001    1.6176 H   0  0  0  0  0  0  0  0  0  0  0  0
   -1.6317    2.9170    0.3577 H   0  0  0  0  0  0  0  0  0  0  0  0
    0.0508    4.5064    2.9919 H   0  0  0  0  0  0  0  0  0  0  0  0
    0.2815    2.8859    3.6371 H   0  0  0  0  0  0  0  0  0  0  0  0
    0.8252    2.0422   -0.9454 H   0  0  0  0  0  0  0  0  0  0  0  0
   -0.6419    1.1413   -0.4611 H   0  0  0  0  0  0  0  0  0  0  0  0
   -1.9274    2.3018    3.3544 H   0  0  0  0  0  0  0  0  0  0  0  0
   -3.1861    2.2327    2.1213 H   0  0  0  0  0  0  0  0  0  0  0  0
   -1.8650    1.0669    2.0779 H   0  0  0  0  0  0  0  0  0  0  0  0
    2.4610    4.2592    1.9820 H   0  0  0  0  0  0  0  0  0  0  0  0
    2.2254    4.6235    3.6938 H   0  0  0  0  0  0  0  0  0  0  0  0
    2.6281    2.9743    3.2029 H   0  0  0  0  0  0  0  0  0  0  0  0
    1.1728    1.4545   -2.8502 H   0  0  0  0  0  0  0  0  0  0  0  0
    1.4967   -1.9213   -5.4203 H   0  0  0  0  0  0  0  0  0  0  0  0
    1.3982    0.5168   -5.0885 H   0  0  0  0  0  0  0  0  0  0  0  0
    1.4305   -4.1998   -4.4986 H   0  0  0  0  0  0  0  0  0  0  0  0
    1.1796   -5.7048   -2.5429 H   0  0  0  0  0  0  0  0  0  0  0  0
    0.8603   -4.6737   -0.2920 H   0  0  0  0  0  0  0  0  0  0  0  0
  1  7  1  0  0  0  0
  1 10  1  0  0  0  0
  2  4  1  0  0  0  0
  2  5  1  0  0  0  0
  2  6  1  0  0  0  0
  3 11  2  0  0  0  0
  3 18  1  0  0  0  0
  4  7  1  0  0  0  0
  4 19  1  0  0  0  0
  4 20  1  0  0  0  0
  5  8  1  0  0  0  0
  5 21  1  0  0  0  0
  5 22  1  0  0  0  0
  6  9  1  0  0  0  0
  6 23  1  0  0  0  0
  6 24  1  0  0  0  0
  7 25  1  0  0  0  0
  7 26  1  0  0  0  0
  8 27  1  0  0  0  0
  8 28  1  0  0  0  0
  8 29  1  0  0  0  0
  9 30  1  0  0  0  0
  9 31  1  0  0  0  0
  9 32  1  0  0  0  0
 10 11  1  0  0  0  0
 10 13  2  0  0  0  0
 11 12  1  0  0  0  0
 12 14  1  0  0  0  0
 12 16  2  0  0  0  0
 13 15  1  0  0  0  0
 13 33  1  0  0  0  0
 14 15  2  0  0  0  0
 14 34  1  0  0  0  0
 15 35  1  0  0  0  0
 16 17  1  0  0  0  0
 16 36  1  0  0  0  0
 17 18  2  0  0  0  0
 17 37  1  0  0  0  0
 18 38  1  0  0  0  0
M  END
>  <Mol_ID>
5276

>  <Formula>
C15H21Cl3N2O

>  <MolWeight>
351.69904

>  <Cat>
S0741

>  <Name>
A2764 dihydrochloride

>  <Synonyms>
N/A

>  <Target>
Potassium Channel

>  <Form>
Dihydrochloride

>  <CAS>
861038-72-4

>  <URL>
https://www.selleckchem.com/products/a2764-dihydrochloride.html

$$$$
