A2793
 OpenBabel08302521263D

 30 31  0  0  0  0  0  0  0  0999 V2000
    0.9567   -0.0354    0.0743 O   0  0  0  0  0  0  0  0  0  0  0  0
    2.4998    1.8769    1.0852 O   0  0  0  0  0  0  0  0  0  0  0  0
    4.0812    0.3545    1.7546 O   0  0  0  0  0  0  0  0  0  0  0  0
   -1.0960    1.4422   -1.0028 N   0  0  0  0  0  0  0  0  0  0  0  0
   -0.7026    0.2867   -1.5930 C   0  0  0  0  0  0  0  0  0  0  0  0
   -1.3416   -0.1772   -2.7669 C   0  0  0  0  0  0  0  0  0  0  0  0
    0.3527   -0.4922   -1.0790 C   0  0  0  0  0  0  0  0  0  0  0  0
   -0.9367   -1.3706   -3.3840 C   0  0  0  0  0  0  0  0  0  0  0  0
    0.7317   -1.6995   -1.6860 C   0  0  0  0  0  0  0  0  0  0  0  0
   -2.3944    0.5783   -3.3037 C   0  0  0  0  0  0  0  0  0  0  0  0
    0.0931   -2.1317   -2.8427 C   0  0  0  0  0  0  0  0  0  0  0  0
    2.3419   -0.3357    0.2085 C   0  0  0  0  0  0  0  0  0  0  0  0
   -2.7952    1.7524   -2.6834 C   0  0  0  0  0  0  0  0  0  0  0  0
   -2.1185    2.1393   -1.5455 C   0  0  0  0  0  0  0  0  0  0  0  0
    3.0673    0.6404    1.1272 C   0  0  0  0  0  0  0  0  0  0  0  0
    3.1447    2.9173    1.8303 C   0  0  0  0  0  0  0  0  0  0  0  0
    2.7367    2.8763    3.2910 C   0  0  0  0  0  0  0  0  0  0  0  0
   -1.4317   -1.7211   -4.2873 H   0  0  0  0  0  0  0  0  0  0  0  0
    1.5112   -2.3252   -1.2631 H   0  0  0  0  0  0  0  0  0  0  0  0
   -2.9092    0.2511   -4.2037 H   0  0  0  0  0  0  0  0  0  0  0  0
    0.3909   -3.0639   -3.3158 H   0  0  0  0  0  0  0  0  0  0  0  0
    2.4401   -1.3341    0.6502 H   0  0  0  0  0  0  0  0  0  0  0  0
    2.8599   -0.2949   -0.7581 H   0  0  0  0  0  0  0  0  0  0  0  0
   -3.6123    2.3461   -3.0759 H   0  0  0  0  0  0  0  0  0  0  0  0
   -2.3871    3.0496   -1.0166 H   0  0  0  0  0  0  0  0  0  0  0  0
    4.2332    2.8693    1.7128 H   0  0  0  0  0  0  0  0  0  0  0  0
    2.8151    3.8654    1.3919 H   0  0  0  0  0  0  0  0  0  0  0  0
    3.0732    1.9521    3.7707 H   0  0  0  0  0  0  0  0  0  0  0  0
    3.1643    3.7240    3.8345 H   0  0  0  0  0  0  0  0  0  0  0  0
    1.6466    2.9092    3.3880 H   0  0  0  0  0  0  0  0  0  0  0  0
  1  7  1  0  0  0  0
  1 12  1  0  0  0  0
  2 15  1  0  0  0  0
  2 16  1  0  0  0  0
  3 15  2  0  0  0  0
  4  5  2  0  0  0  0
  4 14  1  0  0  0  0
  5  6  1  0  0  0  0
  5  7  1  0  0  0  0
  6  8  1  0  0  0  0
  6 10  2  0  0  0  0
  7  9  2  0  0  0  0
  8 11  2  0  0  0  0
  8 18  1  0  0  0  0
  9 11  1  0  0  0  0
  9 19  1  0  0  0  0
 10 13  1  0  0  0  0
 10 20  1  0  0  0  0
 11 21  1  0  0  0  0
 12 15  1  0  0  0  0
 12 22  1  0  0  0  0
 12 23  1  0  0  0  0
 13 14  2  0  0  0  0
 13 24  1  0  0  0  0
 14 25  1  0  0  0  0
 16 17  1  0  0  0  0
 16 26  1  0  0  0  0
 16 27  1  0  0  0  0
 17 28  1  0  0  0  0
 17 29  1  0  0  0  0
 17 30  1  0  0  0  0
M  END
>  <Mol_ID>
5267

>  <Formula>
C13H12ClNO3

>  <MolWeight>
265.69228

>  <Cat>
S0524

>  <Name>
A2793

>  <Synonyms>
Ethyl [(5-Chloroquinolin-8-yl)oxy]acetate

>  <Target>
Potassium Channel

>  <Form>
Free Base

>  <CAS>
88349-90-0

>  <URL>
https://www.selleckchem.com/products/a2793.html

$$$$
