A2ti-1
 OpenBabel08302521373D

 49 51  0  0  0  0  0  0  0  0999 V2000
    0.6667    0.1291   -0.0722 C   0  0  0  0  0  0  0  0  0  0  0  0
   -0.4748    0.9774   -0.1523 O   0  0  0  0  0  0  0  0  0  0  0  0
    0.5546   -4.8218   -2.0386 S   0  0  0  0  0  0  0  0  0  0  0  0
   -0.2804   -4.9598   -3.6515 C   0  0  0  0  0  0  0  0  0  0  0  0
   -0.3650   -6.4251   -4.0445 C   0  0  0  0  0  0  0  0  0  0  0  0
   -1.5001   -7.0851   -3.6621 N   0  0  0  0  0  0  0  0  0  0  0  0
    0.5122   -7.0148   -4.6671 O   0  0  0  0  0  0  0  0  0  0  0  0
    3.2681   -0.7493    0.7879 C   0  0  0  0  0  0  0  0  0  0  0  0
    4.6996   -0.3633    1.1264 C   0  0  0  0  0  0  0  0  0  0  0  0
   -2.7577    2.2312   -1.0692 C   0  0  0  0  0  0  0  0  0  0  0  0
    0.9687   -2.3805   -0.6517 N   0  0  0  0  0  0  0  0  0  0  0  0
    0.5380   -1.0733   -0.9453 C   0  0  0  0  0  0  0  0  0  0  0  0
    0.4012   -3.1168   -1.7110 C   0  0  0  0  0  0  0  0  0  0  0  0
   -0.1039   -1.0544   -2.0983 N   0  0  0  0  0  0  0  0  0  0  0  0
   -0.2158   -2.3228   -2.5531 N   0  0  0  0  0  0  0  0  0  0  0  0
    1.7330   -2.8574    0.4959 C   0  0  0  0  0  0  0  0  0  0  0  0
    2.7288   -2.1069    1.1953 C   0  0  0  0  0  0  0  0  0  0  0  0
    1.4530   -4.1602    0.9713 C   0  0  0  0  0  0  0  0  0  0  0  0
    3.2898   -2.6612    2.3721 C   0  0  0  0  0  0  0  0  0  0  0  0
    2.1071   -4.7158    2.0751 C   0  0  0  0  0  0  0  0  0  0  0  0
    3.0040   -3.9548    2.7943 C   0  0  0  0  0  0  0  0  0  0  0  0
   -1.6355    0.4869    0.3778 C   0  0  0  0  0  0  0  0  0  0  0  0
   -2.8052    1.0602   -0.1310 C   0  0  0  0  0  0  0  0  0  0  0  0
   -1.6977   -0.5428    1.3266 C   0  0  0  0  0  0  0  0  0  0  0  0
   -4.0369    0.5311    0.2719 C   0  0  0  0  0  0  0  0  0  0  0  0
   -2.9186   -1.0742    1.7041 C   0  0  0  0  0  0  0  0  0  0  0  0
   -4.0937   -0.5511    1.1612 C   0  0  0  0  0  0  0  0  0  0  0  0
    0.8274   -0.1053    0.9757 H   0  0  0  0  0  0  0  0  0  0  0  0
    1.4955    0.7396   -0.4439 H   0  0  0  0  0  0  0  0  0  0  0  0
   -1.2908   -4.5367   -3.6205 H   0  0  0  0  0  0  0  0  0  0  0  0
    0.2919   -4.4302   -4.4197 H   0  0  0  0  0  0  0  0  0  0  0  0
   -1.5427   -8.0773   -3.8610 H   0  0  0  0  0  0  0  0  0  0  0  0
   -2.1620   -6.6962   -3.0046 H   0  0  0  0  0  0  0  0  0  0  0  0
    3.1717   -0.6442   -0.2960 H   0  0  0  0  0  0  0  0  0  0  0  0
    2.6836    0.0087    1.3124 H   0  0  0  0  0  0  0  0  0  0  0  0
    5.4207   -1.0774    0.7277 H   0  0  0  0  0  0  0  0  0  0  0  0
    4.9074    0.6248    0.6895 H   0  0  0  0  0  0  0  0  0  0  0  0
    4.8473   -0.2564    2.2048 H   0  0  0  0  0  0  0  0  0  0  0  0
   -3.5429    2.1549   -1.8297 H   0  0  0  0  0  0  0  0  0  0  0  0
   -2.8958    3.1646   -0.5082 H   0  0  0  0  0  0  0  0  0  0  0  0
   -1.8087    2.3036   -1.6119 H   0  0  0  0  0  0  0  0  0  0  0  0
    0.6847   -4.7901    0.5358 H   0  0  0  0  0  0  0  0  0  0  0  0
    3.9896   -2.0897    2.9783 H   0  0  0  0  0  0  0  0  0  0  0  0
    1.8902   -5.7362    2.3828 H   0  0  0  0  0  0  0  0  0  0  0  0
    3.4892   -4.3597    3.6791 H   0  0  0  0  0  0  0  0  0  0  0  0
   -0.8171   -0.9709    1.7867 H   0  0  0  0  0  0  0  0  0  0  0  0
   -4.9587    0.9435   -0.1271 H   0  0  0  0  0  0  0  0  0  0  0  0
   -2.9676   -1.9024    2.4008 H   0  0  0  0  0  0  0  0  0  0  0  0
   -5.0543   -0.9755    1.4273 H   0  0  0  0  0  0  0  0  0  0  0  0
  1  2  1  0  0  0  0
  1 12  1  0  0  0  0
  1 28  1  0  0  0  0
  1 29  1  0  0  0  0
  2 22  1  0  0  0  0
  3  4  1  0  0  0  0
  3 13  1  0  0  0  0
  4  5  1  0  0  0  0
  4 30  1  0  0  0  0
  4 31  1  0  0  0  0
  5  6  1  0  0  0  0
  5  7  2  0  0  0  0
  6 32  1  0  0  0  0
  6 33  1  0  0  0  0
  8  9  1  0  0  0  0
  8 17  1  0  0  0  0
  8 34  1  0  0  0  0
  8 35  1  0  0  0  0
  9 36  1  0  0  0  0
  9 37  1  0  0  0  0
  9 38  1  0  0  0  0
 10 23  1  0  0  0  0
 10 39  1  0  0  0  0
 10 40  1  0  0  0  0
 10 41  1  0  0  0  0
 11 12  1  0  0  0  0
 11 13  1  0  0  0  0
 11 16  1  0  0  0  0
 12 14  2  0  0  0  0
 13 15  2  0  0  0  0
 14 15  1  0  0  0  0
 16 17  2  0  0  0  0
 16 18  1  0  0  0  0
 17 19  1  0  0  0  0
 18 20  2  0  0  0  0
 18 42  1  0  0  0  0
 19 21  2  0  0  0  0
 19 43  1  0  0  0  0
 20 21  1  0  0  0  0
 20 44  1  0  0  0  0
 21 45  1  0  0  0  0
 22 23  2  0  0  0  0
 22 24  1  0  0  0  0
 23 25  1  0  0  0  0
 24 26  2  0  0  0  0
 24 46  1  0  0  0  0
 25 27  2  0  0  0  0
 25 47  1  0  0  0  0
 26 27  1  0  0  0  0
 26 48  1  0  0  0  0
 27 49  1  0  0  0  0
M  END
>  <Mol_ID>
7541

>  <Formula>
C20H22N4O2S

>  <MolWeight>
382.47928

>  <Cat>
E1421

>  <Name>
A2ti-1

>  <Target>
Anti-infection

>  <Form>
free base

>  <CAS>
570390-00-0

>  <URL>
https://www.selleckchem.com/products/a2ti-1.html

$$$$
