A66.cdx
 OpenBabel08302521413D

 49 51  0  0  0  0  0  0  0  0999 V2000
    0.1805    0.9393    0.9380 C   0  0  0  0  0  0  0  0  0  0  0  0
   -0.9727   -0.2897    0.6576 S   0  0  0  0  0  0  0  0  0  0  0  0
    0.0143   -0.9277   -0.6049 C   0  0  0  0  0  0  0  0  0  0  0  0
    1.1117   -0.2306   -0.8458 N   0  0  0  0  0  0  0  0  0  0  0  0
    1.2250    0.8207    0.0448 C   0  0  0  0  0  0  0  0  0  0  0  0
   -0.3584   -2.2103   -1.3400 C   0  0  0  0  0  0  0  0  0  0  0  0
   -1.7064   -2.0538   -2.0656 C   0  0  0  0  0  0  0  0  0  0  0  0
    0.7155   -2.5495   -2.3967 C   0  0  0  0  0  0  0  0  0  0  0  0
   -0.4310   -3.3848   -0.3456 C   0  0  0  0  0  0  0  0  0  0  0  0
    2.4088    1.7313    0.0246 C   0  0  0  0  0  0  0  0  0  0  0  0
    2.7227    2.9436    1.1941 S   0  0  0  0  0  0  0  0  0  0  0  0
    4.1487    3.3482    0.3803 C   0  0  0  0  0  0  0  0  0  0  0  0
    4.4047    2.6769   -0.7146 N   0  0  0  0  0  0  0  0  0  0  0  0
    3.4219    1.7203   -0.9217 C   0  0  0  0  0  0  0  0  0  0  0  0
    3.5677    0.8375   -2.1098 C   0  0  0  0  0  0  0  0  0  0  0  0
    5.0205    4.3130    0.7959 N   0  0  0  0  0  0  0  0  0  0  0  0
    5.0404    4.9673    1.9928 C   0  0  0  0  0  0  0  0  0  0  0  0
    6.1660    5.7588    2.1979 N   0  0  0  0  0  0  0  0  0  0  0  0
    4.1941    4.8630    2.8759 O   0  0  0  0  0  0  0  0  0  0  0  0
    7.1854    6.1764    1.2233 C   0  0  1  0  0  0  0  0  0  0  0  0
    8.2031    6.8819    2.1210 C   0  0  0  0  0  0  0  0  0  0  0  0
    7.3408    7.6075    3.1401 C   0  0  0  0  0  0  0  0  0  0  0  0
    6.1035    6.7304    3.2833 C   0  0  0  0  0  0  0  0  0  0  0  0
    7.9255    5.1116    0.4008 C   0  0  0  0  0  0  0  0  0  0  0  0
    8.4556    5.3673   -0.6762 O   0  0  0  0  0  0  0  0  0  0  0  0
    8.0366    3.8670    0.9429 N   0  0  0  0  0  0  0  0  0  0  0  0
    0.0308    1.6679    1.7210 H   0  0  0  0  0  0  0  0  0  0  0  0
   -1.6672   -1.2450   -2.8049 H   0  0  0  0  0  0  0  0  0  0  0  0
   -1.9774   -2.9754   -2.5935 H   0  0  0  0  0  0  0  0  0  0  0  0
   -2.5237   -1.8261   -1.3727 H   0  0  0  0  0  0  0  0  0  0  0  0
    1.7043   -2.6730   -1.9389 H   0  0  0  0  0  0  0  0  0  0  0  0
    0.4751   -3.4824   -2.9197 H   0  0  0  0  0  0  0  0  0  0  0  0
    0.7988   -1.7587   -3.1518 H   0  0  0  0  0  0  0  0  0  0  0  0
    0.5209   -3.5131    0.1838 H   0  0  0  0  0  0  0  0  0  0  0  0
   -1.2089   -3.2339    0.4112 H   0  0  0  0  0  0  0  0  0  0  0  0
   -0.6579   -4.3254   -0.8595 H   0  0  0  0  0  0  0  0  0  0  0  0
    3.6591   -0.2096   -1.8061 H   0  0  0  0  0  0  0  0  0  0  0  0
    2.7107    0.9460   -2.7811 H   0  0  0  0  0  0  0  0  0  0  0  0
    4.4685    1.0973   -2.6763 H   0  0  0  0  0  0  0  0  0  0  0  0
    5.7688    4.4184    0.1360 H   0  0  0  0  0  0  0  0  0  0  0  0
    6.6966    6.8728    0.5315 H   0  0  0  0  0  0  0  0  0  0  0  0
    8.8386    6.1503    2.6389 H   0  0  0  0  0  0  0  0  0  0  0  0
    8.8620    7.5551    1.5648 H   0  0  0  0  0  0  0  0  0  0  0  0
    7.8556    7.7527    4.0950 H   0  0  0  0  0  0  0  0  0  0  0  0
    7.0631    8.5967    2.7591 H   0  0  0  0  0  0  0  0  0  0  0  0
    6.0475    6.2177    4.2477 H   0  0  0  0  0  0  0  0  0  0  0  0
    5.1977    7.3385    3.1603 H   0  0  0  0  0  0  0  0  0  0  0  0
    7.5527    3.6023    1.7941 H   0  0  0  0  0  0  0  0  0  0  0  0
    8.4675    3.1443    0.3827 H   0  0  0  0  0  0  0  0  0  0  0  0
  1  2  1  0  0  0  0
  1 27  1  0  0  0  0
  2  3  1  0  0  0  0
  3  4  2  0  0  0  0
  3  6  1  0  0  0  0
  4  5  1  0  0  0  0
  5  1  2  0  0  0  0
  5 10  1  0  0  0  0
  6  7  1  0  0  0  0
  6  8  1  0  0  0  0
  6  9  1  0  0  0  0
  7 28  1  0  0  0  0
  7 29  1  0  0  0  0
  7 30  1  0  0  0  0
  8 31  1  0  0  0  0
  8 32  1  0  0  0  0
  8 33  1  0  0  0  0
  9 34  1  0  0  0  0
  9 35  1  0  0  0  0
  9 36  1  0  0  0  0
 10 11  1  0  0  0  0
 11 12  1  0  0  0  0
 12 13  2  0  0  0  0
 12 16  1  0  0  0  0
 13 14  1  0  0  0  0
 14 10  2  0  0  0  0
 14 15  1  0  0  0  0
 15 37  1  0  0  0  0
 15 38  1  0  0  0  0
 15 39  1  0  0  0  0
 16 17  1  0  0  0  0
 16 40  1  0  0  0  0
 17 18  1  0  0  0  0
 17 19  2  0  0  0  0
 18 20  1  0  0  0  0
 20 21  1  0  0  0  0
 20 41  1  6  0  0  0
 20 24  1  0  0  0  0
 21 22  1  0  0  0  0
 21 42  1  0  0  0  0
 21 43  1  0  0  0  0
 22 23  1  0  0  0  0
 22 44  1  0  0  0  0
 22 45  1  0  0  0  0
 23 18  1  0  0  0  0
 23 46  1  0  0  0  0
 23 47  1  0  0  0  0
 24 25  2  0  0  0  0
 24 26  1  0  0  0  0
 26 48  1  0  0  0  0
 26 49  1  0  0  0  0
M  END
>  <Mol_ID>
829

>  <Formula>
C17H23N5O2S2

>  <MolWeight>
393.52682

>  <Cat>
S2636

>  <Name>
A66

>  <Synonyms>
N/A

>  <Target>
PI3K

>  <Form>
free base

>  <CAS>
1166227-08-2

>  <URL>
http://selleckchem.com/products/a66.html

$$$$
