A939572
 OpenBabel08302521313D

 49 51  0  0  0  0  0  0  0  0999 V2000
    1.1275    0.3541    0.4622 O   0  0  0  0  0  0  0  0  0  0  0  0
    1.7432    5.2254   -2.5801 O   0  0  0  0  0  0  0  0  0  0  0  0
    2.0126   10.9230   -4.3877 O   0  0  0  0  0  0  0  0  0  0  0  0
    0.8483    3.8503   -1.0118 N   0  0  0  0  0  0  0  0  0  0  0  0
    0.1610    6.1078   -1.1618 N   0  0  0  0  0  0  0  0  0  0  0  0
    2.8321    8.7984   -4.6662 N   0  0  0  0  0  0  0  0  0  0  0  0
    0.1965    1.0694   -0.3713 C   0  0  0  0  0  0  0  0  0  0  0  0
    0.8580    1.4920   -1.6858 C   0  0  0  0  0  0  0  0  0  0  0  0
   -0.4251    2.2531    0.3921 C   0  0  0  0  0  0  0  0  0  0  0  0
    1.6690    2.7693   -1.5541 C   0  0  0  0  0  0  0  0  0  0  0  0
    0.3462    3.5718    0.3301 C   0  0  0  0  0  0  0  0  0  0  0  0
    0.9654    5.0918   -1.6355 C   0  0  0  0  0  0  0  0  0  0  0  0
    1.4240   -0.9414    0.0893 C   0  0  0  0  0  0  0  0  0  0  0  0
    0.1485    7.4525   -1.6295 C   0  0  0  0  0  0  0  0  0  0  0  0
    2.6038   -1.4712    0.6201 C   0  0  0  0  0  0  0  0  0  0  0  0
    0.6612   -1.7414   -0.7699 C   0  0  0  0  0  0  0  0  0  0  0  0
    0.8963    7.8851   -2.7302 C   0  0  0  0  0  0  0  0  0  0  0  0
   -0.6100    8.3987   -0.9327 C   0  0  0  0  0  0  0  0  0  0  0  0
    3.0435   -2.7496    0.2506 C   0  0  0  0  0  0  0  0  0  0  0  0
    1.0996   -3.0173   -1.1392 C   0  0  0  0  0  0  0  0  0  0  0  0
    1.0194    9.2421   -3.0525 C   0  0  0  0  0  0  0  0  0  0  0  0
    2.2975   -3.5172   -0.6414 C   0  0  0  0  0  0  0  0  0  0  0  0
   -0.5622    9.7518   -1.2940 C   0  0  0  0  0  0  0  0  0  0  0  0
    0.2672   10.1790   -2.3338 C   0  0  0  0  0  0  0  0  0  0  0  0
    1.9778    9.7295   -4.1034 C   0  0  0  0  0  0  0  0  0  0  0  0
    3.9150    9.1609   -5.5461 C   0  0  0  0  0  0  0  0  0  0  0  0
   -0.4417    5.9116   -0.3823 H   0  0  0  0  0  0  0  0  0  0  0  0
    2.8334    7.8414   -4.3466 H   0  0  0  0  0  0  0  0  0  0  0  0
   -0.6580    0.4213   -0.5838 H   0  0  0  0  0  0  0  0  0  0  0  0
    1.5208    0.7095   -2.0712 H   0  0  0  0  0  0  0  0  0  0  0  0
    0.0736    1.6508   -2.4350 H   0  0  0  0  0  0  0  0  0  0  0  0
   -1.4124    2.4404   -0.0508 H   0  0  0  0  0  0  0  0  0  0  0  0
   -0.5905    1.9836    1.4419 H   0  0  0  0  0  0  0  0  0  0  0  0
    2.5339    2.6383   -0.8933 H   0  0  0  0  0  0  0  0  0  0  0  0
    2.0607    3.0190   -2.5462 H   0  0  0  0  0  0  0  0  0  0  0  0
   -0.2966    4.3738    0.6977 H   0  0  0  0  0  0  0  0  0  0  0  0
    1.2149    3.5378    0.9980 H   0  0  0  0  0  0  0  0  0  0  0  0
    3.2004   -0.8831    1.3112 H   0  0  0  0  0  0  0  0  0  0  0  0
   -0.2836   -1.4151   -1.1871 H   0  0  0  0  0  0  0  0  0  0  0  0
    1.3930    7.1563   -3.3494 H   0  0  0  0  0  0  0  0  0  0  0  0
   -1.2316    8.1085   -0.0909 H   0  0  0  0  0  0  0  0  0  0  0  0
    3.9741   -3.1438    0.6520 H   0  0  0  0  0  0  0  0  0  0  0  0
    0.5030   -3.6151   -1.8242 H   0  0  0  0  0  0  0  0  0  0  0  0
    2.6437   -4.5024   -0.9443 H   0  0  0  0  0  0  0  0  0  0  0  0
   -1.1475   10.4850   -0.7438 H   0  0  0  0  0  0  0  0  0  0  0  0
    0.3362   11.2336   -2.5743 H   0  0  0  0  0  0  0  0  0  0  0  0
    4.8514    9.0034   -5.0034 H   0  0  0  0  0  0  0  0  0  0  0  0
    3.8909    8.4913   -6.4095 H   0  0  0  0  0  0  0  0  0  0  0  0
    3.8493   10.1999   -5.8730 H   0  0  0  0  0  0  0  0  0  0  0  0
  1  7  1  0  0  0  0
  1 13  1  0  0  0  0
  2 12  2  0  0  0  0
  3 25  2  0  0  0  0
  4 10  1  0  0  0  0
  4 11  1  0  0  0  0
  4 12  1  0  0  0  0
  5 12  1  0  0  0  0
  5 14  1  0  0  0  0
  5 27  1  0  0  0  0
  6 25  1  0  0  0  0
  6 26  1  0  0  0  0
  6 28  1  0  0  0  0
  7  8  1  0  0  0  0
  7  9  1  0  0  0  0
  7 29  1  0  0  0  0
  8 10  1  0  0  0  0
  8 30  1  0  0  0  0
  8 31  1  0  0  0  0
  9 11  1  0  0  0  0
  9 32  1  0  0  0  0
  9 33  1  0  0  0  0
 10 34  1  0  0  0  0
 10 35  1  0  0  0  0
 11 36  1  0  0  0  0
 11 37  1  0  0  0  0
 13 15  2  0  0  0  0
 13 16  1  0  0  0  0
 14 17  2  0  0  0  0
 14 18  1  0  0  0  0
 15 19  1  0  0  0  0
 15 38  1  0  0  0  0
 16 20  2  0  0  0  0
 16 39  1  0  0  0  0
 17 21  1  0  0  0  0
 17 40  1  0  0  0  0
 18 23  2  0  0  0  0
 18 41  1  0  0  0  0
 19 22  2  0  0  0  0
 19 42  1  0  0  0  0
 20 22  1  0  0  0  0
 20 43  1  0  0  0  0
 21 24  2  0  0  0  0
 21 25  1  0  0  0  0
 22 44  1  0  0  0  0
 23 24  1  0  0  0  0
 23 45  1  0  0  0  0
 24 46  1  0  0  0  0
 26 47  1  0  0  0  0
 26 48  1  0  0  0  0
 26 49  1  0  0  0  0
M  END
>  <Mol_ID>
5807

>  <Formula>
C20H22ClN3O3

>  <MolWeight>
387.85998

>  <Cat>
S9607

>  <Name>
A939572

>  <Synonyms>
N/A

>  <Target>
SCD

>  <Form>
Free Base

>  <CAS>
1032229-33-6

>  <URL>
http://www.selleckchem.com/products/a939572.html

$$$$
