A 205804.cdx
 OpenBabel08302522003D

 32 34  0  0  0  0  0  0  0  0999 V2000
   -0.1313   -0.6983    0.0300 C   0  0  0  0  0  0  0  0  0  0  0  0
   -0.2424    0.6962    0.0157 C   0  0  0  0  0  0  0  0  0  0  0  0
    0.9579    1.4493    0.0286 C   0  0  0  0  0  0  0  0  0  0  0  0
    2.1512    0.7370    0.0617 C   0  0  0  0  0  0  0  0  0  0  0  0
    2.2488   -0.6092    0.0863 N   0  0  0  0  0  0  0  0  0  0  0  0
    1.1130   -1.3354    0.0618 C   0  0  0  0  0  0  0  0  0  0  0  0
   -1.6685   -1.4667   -0.0013 S   0  0  0  0  0  0  0  0  0  0  0  0
   -2.5105    0.0158   -0.0149 C   0  0  0  0  0  0  0  0  0  0  0  0
   -1.6312    1.0832   -0.0181 C   0  0  0  0  0  0  0  0  0  0  0  0
   -3.9622    0.0842   -0.0194 C   0  0  0  0  0  0  0  0  0  0  0  0
   -4.5976    1.1325   -0.0280 O   0  0  0  0  0  0  0  0  0  0  0  0
   -4.6387   -1.1063   -0.0078 N   0  0  0  0  0  0  0  0  0  0  0  0
    0.9296    3.2198   -0.0906 S   0  0  0  0  0  0  0  0  0  0  0  0
    0.8048    3.7046    1.6209 C   0  0  0  0  0  0  0  0  0  0  0  0
    1.8099    3.3980    2.5425 C   0  0  0  0  0  0  0  0  0  0  0  0
    1.6702    3.7557    3.8866 C   0  0  0  0  0  0  0  0  0  0  0  0
    0.5305    4.4389    4.3255 C   0  0  0  0  0  0  0  0  0  0  0  0
   -0.4476    4.7958    3.3917 C   0  0  0  0  0  0  0  0  0  0  0  0
   -0.3084    4.4345    2.0478 C   0  0  0  0  0  0  0  0  0  0  0  0
    0.3526    4.7366    5.7851 C   0  0  0  0  0  0  0  0  0  0  0  0
    3.1094    1.2530    0.0634 H   0  0  0  0  0  0  0  0  0  0  0  0
    1.2191   -2.4149    0.0643 H   0  0  0  0  0  0  0  0  0  0  0  0
   -1.9761    2.1106   -0.0323 H   0  0  0  0  0  0  0  0  0  0  0  0
   -4.1618   -1.9909    0.0128 H   0  0  0  0  0  0  0  0  0  0  0  0
   -5.6470   -1.0758    0.0061 H   0  0  0  0  0  0  0  0  0  0  0  0
    2.7089    2.8732    2.2320 H   0  0  0  0  0  0  0  0  0  0  0  0
    2.4528    3.4865    4.5928 H   0  0  0  0  0  0  0  0  0  0  0  0
   -1.3323    5.3471    3.7028 H   0  0  0  0  0  0  0  0  0  0  0  0
   -1.0854    4.7203    1.3422 H   0  0  0  0  0  0  0  0  0  0  0  0
    0.2362    3.7995    6.3400 H   0  0  0  0  0  0  0  0  0  0  0  0
    1.2183    5.2800    6.1760 H   0  0  0  0  0  0  0  0  0  0  0  0
   -0.5381    5.3470    5.9663 H   0  0  0  0  0  0  0  0  0  0  0  0
  1  2  2  0  0  0  0
  1  7  1  0  0  0  0
  2  3  1  0  0  0  0
  3  4  2  0  0  0  0
  3 13  1  0  0  0  0
  4  5  1  0  0  0  0
  4 21  1  0  0  0  0
  5  6  2  0  0  0  0
  6  1  1  0  0  0  0
  6 22  1  0  0  0  0
  7  8  1  0  0  0  0
  8  9  2  0  0  0  0
  8 10  1  0  0  0  0
  9  2  1  0  0  0  0
  9 23  1  0  0  0  0
 10 11  2  0  0  0  0
 10 12  1  0  0  0  0
 12 24  1  0  0  0  0
 12 25  1  0  0  0  0
 13 14  1  0  0  0  0
 14 15  2  0  0  0  0
 15 16  1  0  0  0  0
 15 26  1  0  0  0  0
 16 17  2  0  0  0  0
 16 27  1  0  0  0  0
 17 18  1  0  0  0  0
 17 20  1  0  0  0  0
 18 19  2  0  0  0  0
 18 28  1  0  0  0  0
 19 14  1  0  0  0  0
 19 29  1  0  0  0  0
 20 30  1  0  0  0  0
 20 31  1  0  0  0  0
 20 32  1  0  0  0  0
M  END
>  <Mol_ID>
1058

>  <Formula>
C15H12N2OS2

>  <MolWeight>
300.39858

>  <Cat>
S2885

>  <Name>
A-205804

>  <Synonyms>
N/A

>  <Target>
Integrin

>  <Form>
free base

>  <CAS>
251992-66-2

>  <URL>
http://selleckchem.com/products/a-205804.html

$$$$
