AA26-9
 OpenBabel08302521313D

 22 23  0  0  0  0  0  0  0  0999 V2000
    1.0479    0.0911    0.0723 O   0  0  0  0  0  0  0  0  0  0  0  0
    3.1058    0.8924    0.8607 N   0  0  0  0  0  0  0  0  0  0  0  0
    2.9511   -0.4757   -1.0311 N   0  0  0  0  0  0  0  0  0  0  0  0
    4.1596   -1.0701   -0.8607 N   0  0  0  0  0  0  0  0  0  0  0  0
    4.5185   -1.6159   -2.0156 N   0  0  0  0  0  0  0  0  0  0  0  0
    2.8891    3.0063    1.8529 C   0  0  0  0  0  0  0  0  0  0  0  0
    4.2541    2.9536    1.1805 C   0  0  0  0  0  0  0  0  0  0  0  0
    2.5511    1.5388    2.0407 C   0  0  0  0  0  0  0  0  0  0  0  0
    4.1648    1.7229    0.2847 C   0  0  0  0  0  0  0  0  0  0  0  0
    2.2707    0.1574    0.0273 C   0  0  0  0  0  0  0  0  0  0  0  0
    2.5432   -0.6197   -2.3391 C   0  0  0  0  0  0  0  0  0  0  0  0
    3.5559   -1.3261   -2.9372 C   0  0  0  0  0  0  0  0  0  0  0  0
    2.1571    3.4761    1.1867 H   0  0  0  0  0  0  0  0  0  0  0  0
    2.9047    3.5593    2.7971 H   0  0  0  0  0  0  0  0  0  0  0  0
    4.4761    3.8627    0.6112 H   0  0  0  0  0  0  0  0  0  0  0  0
    5.0386    2.8169    1.9287 H   0  0  0  0  0  0  0  0  0  0  0  0
    3.0872    1.1281    2.9071 H   0  0  0  0  0  0  0  0  0  0  0  0
    1.4849    1.3554    2.1667 H   0  0  0  0  0  0  0  0  0  0  0  0
    3.8850    2.0141   -0.7340 H   0  0  0  0  0  0  0  0  0  0  0  0
    5.1088    1.1716    0.2583 H   0  0  0  0  0  0  0  0  0  0  0  0
    1.6336   -0.1653   -2.6989 H   0  0  0  0  0  0  0  0  0  0  0  0
    3.6520   -1.6243   -3.9704 H   0  0  0  0  0  0  0  0  0  0  0  0
  1 10  2  0  0  0  0
  2  8  1  0  0  0  0
  2  9  1  0  0  0  0
  2 10  1  0  0  0  0
  3  4  1  0  0  0  0
  3 10  1  0  0  0  0
  3 11  1  0  0  0  0
  4  5  2  0  0  0  0
  5 12  1  0  0  0  0
  6  7  1  0  0  0  0
  6  8  1  0  0  0  0
  6 13  1  0  0  0  0
  6 14  1  0  0  0  0
  7  9  1  0  0  0  0
  7 15  1  0  0  0  0
  7 16  1  0  0  0  0
  8 17  1  0  0  0  0
  8 18  1  0  0  0  0
  9 19  1  0  0  0  0
  9 20  1  0  0  0  0
 11 12  2  0  0  0  0
 11 21  1  0  0  0  0
 12 22  1  0  0  0  0
M  END
>  <Mol_ID>
5842

>  <Formula>
C7H10N4O

>  <MolWeight>
166.1805

>  <Cat>
S0286

>  <Name>
AA26-9

>  <Synonyms>
N/A

>  <Target>
Serine hydrolase

>  <Form>
Free Base

>  <CAS>
1312782-34-5

>  <URL>
http://www.selleckchem.com/products/aa26-9.html

$$$$
