AA38-3
 OpenBabel08302521323D

 32 33  0  0  0  0  0  0  0  0999 V2000
    1.4444   -0.0292    0.2136 N   0  0  0  0  0  0  0  0  0  0  0  0
    0.8180    1.1978   -0.2630 C   0  0  0  0  0  0  0  0  0  0  0  0
   -0.6349    1.2714    0.2056 C   0  0  0  0  0  0  0  0  0  0  0  0
   -1.4063    0.0121   -0.1908 C   0  0  0  0  0  0  0  0  0  0  0  0
   -0.6894   -1.2498    0.2921 C   0  0  0  0  0  0  0  0  0  0  0  0
    0.7716   -1.2704   -0.1554 C   0  0  0  0  0  0  0  0  0  0  0  0
    2.5446    0.0426    1.0546 C   0  0  0  0  0  0  0  0  0  0  0  0
    3.0991    1.0955    1.3550 O   0  0  0  0  0  0  0  0  0  0  0  0
    2.9263   -1.2044    1.5538 O   0  0  0  0  0  0  0  0  0  0  0  0
    3.6851   -1.2538    2.7393 C   0  0  0  0  0  0  0  0  0  0  0  0
    3.4055   -0.4124    3.8195 C   0  0  0  0  0  0  0  0  0  0  0  0
    4.1080   -0.5595    5.0155 C   0  0  0  0  0  0  0  0  0  0  0  0
    5.0740   -1.5684    5.1278 C   0  0  0  0  0  0  0  0  0  0  0  0
    5.3412   -2.4269    4.0494 C   0  0  0  0  0  0  0  0  0  0  0  0
    4.6384   -2.2679    2.8500 C   0  0  0  0  0  0  0  0  0  0  0  0
    5.7936   -1.7379    6.3974 N   0  3  0  0  0  0  0  0  0  0  0  0
    5.5182   -0.9639    7.3260 O   0  0  0  0  0  0  0  0  0  0  0  0
    6.6282   -2.6539    6.4682 O   0  5  0  0  0  0  0  0  0  0  0  0
    0.8668    1.1902   -1.3578 H   0  0  0  0  0  0  0  0  0  0  0  0
    1.3596    2.0828    0.0857 H   0  0  0  0  0  0  0  0  0  0  0  0
   -1.1212    2.1562   -0.2197 H   0  0  0  0  0  0  0  0  0  0  0  0
   -0.6626    1.3790    1.2975 H   0  0  0  0  0  0  0  0  0  0  0  0
   -2.4180    0.0479    0.2290 H   0  0  0  0  0  0  0  0  0  0  0  0
   -1.5119   -0.0219   -1.2820 H   0  0  0  0  0  0  0  0  0  0  0  0
   -0.7354   -1.2900    1.3875 H   0  0  0  0  0  0  0  0  0  0  0  0
   -1.2068   -2.1381   -0.0870 H   0  0  0  0  0  0  0  0  0  0  0  0
    1.2737   -2.1449    0.2670 H   0  0  0  0  0  0  0  0  0  0  0  0
    0.8312   -1.3571   -1.2465 H   0  0  0  0  0  0  0  0  0  0  0  0
    2.6435    0.3590    3.7444 H   0  0  0  0  0  0  0  0  0  0  0  0
    3.8853    0.1103    5.8424 H   0  0  0  0  0  0  0  0  0  0  0  0
    6.0789   -3.2226    4.1325 H   0  0  0  0  0  0  0  0  0  0  0  0
    4.8284   -2.9377    2.0153 H   0  0  0  0  0  0  0  0  0  0  0  0
  1  2  1  0  0  0  0
  1  6  1  0  0  0  0
  1  7  1  0  0  0  0
  2  3  1  0  0  0  0
  2 19  1  0  0  0  0
  2 20  1  0  0  0  0
  3  4  1  0  0  0  0
  3 21  1  0  0  0  0
  3 22  1  0  0  0  0
  4  5  1  0  0  0  0
  4 23  1  0  0  0  0
  4 24  1  0  0  0  0
  5  6  1  0  0  0  0
  5 25  1  0  0  0  0
  5 26  1  0  0  0  0
  6 27  1  0  0  0  0
  6 28  1  0  0  0  0
  7  8  2  0  0  0  0
  7  9  1  0  0  0  0
  9 10  1  0  0  0  0
 10 11  2  0  0  0  0
 10 15  1  0  0  0  0
 11 12  1  0  0  0  0
 11 29  1  0  0  0  0
 12 13  2  0  0  0  0
 12 30  1  0  0  0  0
 13 14  1  0  0  0  0
 13 16  1  0  0  0  0
 14 15  2  0  0  0  0
 14 31  1  0  0  0  0
 15 32  1  0  0  0  0
 16 17  2  0  0  0  0
 16 18  1  0  0  0  0
M  CHG  2  16   1  18  -1
M  END
>  <Mol_ID>
6272

>  <Formula>
C12H14N2O4

>  <MolWeight>
250.25056

>  <Cat>
E0409

>  <Name>
AA38-3

>  <Synonyms>
N/A

>  <Target>
Serine hydrolase

>  <Form>
free base

>  <CAS>
65815-76-1

>  <URL>
http://www.selleckchem.com/products/aa38-3.html

$$$$
