AA92593
 OpenBabel08302521303D

 37 38  0  0  0  0  0  0  0  0999 V2000
    1.0571    0.0082    0.3746 O   0  0  0  0  0  0  0  0  0  0  0  0
    0.1047    0.0856   -0.6672 C   0  0  0  0  0  0  0  0  0  0  0  0
    7.0075    0.0545    0.1307 S   0  0  0  0  0  0  0  0  0  0  0  0
    7.3999    0.7137   -1.0959 O   0  0  0  0  0  0  0  0  0  0  0  0
    7.4074    0.5808    1.4195 O   0  0  0  0  0  0  0  0  0  0  0  0
    7.5103   -1.5811    0.0455 N   0  0  0  0  0  0  0  0  0  0  0  0
    7.2051   -2.4045    1.2424 C   0  0  0  0  0  0  0  0  0  0  0  0
    7.2724   -2.2551   -1.2551 C   0  0  0  0  0  0  0  0  0  0  0  0
    7.8988   -3.7615    1.1722 C   0  0  0  0  0  0  0  0  0  0  0  0
    7.9738   -3.6097   -1.3067 C   0  0  0  0  0  0  0  0  0  0  0  0
    7.5673   -4.4821   -0.1274 C   0  0  0  0  0  0  0  0  0  0  0  0
    5.2190   -0.0334    0.1339 C   0  0  0  0  0  0  0  0  0  0  0  0
    4.5120    0.0472   -1.0705 C   0  0  0  0  0  0  0  0  0  0  0  0
    4.5273   -0.0619    1.3405 C   0  0  0  0  0  0  0  0  0  0  0  0
    3.0948    0.0658   -1.0982 C   0  0  0  0  0  0  0  0  0  0  0  0
    3.1338   -0.0526    1.3227 C   0  0  0  0  0  0  0  0  0  0  0  0
    2.3988    0.0073    0.1221 C   0  0  0  0  0  0  0  0  0  0  0  0
    2.4605    0.1674   -2.4573 C   0  0  0  0  0  0  0  0  0  0  0  0
    0.1733    1.0366   -1.2009 H   0  0  0  0  0  0  0  0  0  0  0  0
    0.1714   -0.7757   -1.3356 H   0  0  0  0  0  0  0  0  0  0  0  0
   -0.8897    0.0517   -0.2093 H   0  0  0  0  0  0  0  0  0  0  0  0
    6.1243   -2.5514    1.3320 H   0  0  0  0  0  0  0  0  0  0  0  0
    7.5623   -1.8932    2.1430 H   0  0  0  0  0  0  0  0  0  0  0  0
    7.6763   -1.6418   -2.0677 H   0  0  0  0  0  0  0  0  0  0  0  0
    6.1986   -2.3882   -1.4207 H   0  0  0  0  0  0  0  0  0  0  0  0
    7.5925   -4.3774    2.0260 H   0  0  0  0  0  0  0  0  0  0  0  0
    8.9857   -3.6285    1.2464 H   0  0  0  0  0  0  0  0  0  0  0  0
    9.0617   -3.4660   -1.2933 H   0  0  0  0  0  0  0  0  0  0  0  0
    7.7287   -4.1173   -2.2462 H   0  0  0  0  0  0  0  0  0  0  0  0
    8.0920   -5.4426   -0.1702 H   0  0  0  0  0  0  0  0  0  0  0  0
    6.4923   -4.6959   -0.1733 H   0  0  0  0  0  0  0  0  0  0  0  0
    5.0698    0.1151   -2.0041 H   0  0  0  0  0  0  0  0  0  0  0  0
    5.0553   -0.0744    2.2904 H   0  0  0  0  0  0  0  0  0  0  0  0
    2.5943   -0.0736    2.2714 H   0  0  0  0  0  0  0  0  0  0  0  0
    1.8554   -0.7171   -2.6721 H   0  0  0  0  0  0  0  0  0  0  0  0
    1.8626    1.0791   -2.5406 H   0  0  0  0  0  0  0  0  0  0  0  0
    3.2134    0.2243   -3.2507 H   0  0  0  0  0  0  0  0  0  0  0  0
  1  2  1  0  0  0  0
  1 17  1  0  0  0  0
  2 19  1  0  0  0  0
  2 20  1  0  0  0  0
  2 21  1  0  0  0  0
  3  4  2  0  0  0  0
  3  5  2  0  0  0  0
  3  6  1  0  0  0  0
  3 12  1  0  0  0  0
  6  7  1  0  0  0  0
  6  8  1  0  0  0  0
  7  9  1  0  0  0  0
  7 22  1  0  0  0  0
  7 23  1  0  0  0  0
  8 10  1  0  0  0  0
  8 24  1  0  0  0  0
  8 25  1  0  0  0  0
  9 11  1  0  0  0  0
  9 26  1  0  0  0  0
  9 27  1  0  0  0  0
 10 11  1  0  0  0  0
 10 28  1  0  0  0  0
 10 29  1  0  0  0  0
 11 30  1  0  0  0  0
 11 31  1  0  0  0  0
 12 13  2  0  0  0  0
 12 14  1  0  0  0  0
 13 15  1  0  0  0  0
 13 32  1  0  0  0  0
 14 16  2  0  0  0  0
 14 33  1  0  0  0  0
 15 17  2  0  0  0  0
 15 18  1  0  0  0  0
 16 17  1  0  0  0  0
 16 34  1  0  0  0  0
 18 35  1  0  0  0  0
 18 36  1  0  0  0  0
 18 37  1  0  0  0  0
M  END
>  <Mol_ID>
5623

>  <Formula>
C13H19NO3S

>  <MolWeight>
269.35986

>  <Cat>
S3415

>  <Name>
AA92593

>  <Synonyms>
N/A

>  <Target>
Others

>  <Form>
Free Base

>  <CAS>
457961-34-1

>  <URL>
http://www.selleckchem.com/products/aa92593.html

$$$$
