AB-423
 OpenBabel08302521353D

 43 44  0  0  0  0  0  0  0  0999 V2000
    1.0397   -0.1009   -0.0365 S   0  0  0  0  0  0  0  0  0  0  0  0
    6.8815   -0.1000    0.7840 F   0  0  0  0  0  0  0  0  0  0  0  0
    7.7873    7.1772   -0.3054 F   0  0  0  0  0  0  0  0  0  0  0  0
   10.3532    6.6542   -1.0949 F   0  0  0  0  0  0  0  0  0  0  0  0
    0.5342   -0.9271    1.0360 O   0  0  0  0  0  0  0  0  0  0  0  0
    0.5678    1.2533   -0.2421 O   0  0  0  0  0  0  0  0  0  0  0  0
    4.9267    3.4583    0.0586 O   0  0  0  0  0  0  0  0  0  0  0  0
    0.8025   -0.9876   -1.4539 N   0  0  0  0  0  0  0  0  0  0  0  0
    7.0056    2.4414    0.2554 N   0  0  0  0  0  0  0  0  0  0  0  0
    0.5062   -0.2675   -2.7114 C   0  0  1  0  0  0  0  0  0  0  0  0
    1.7268    0.4824   -3.2612 C   0  0  0  0  0  0  0  0  0  0  0  0
   -0.0447   -1.2720   -3.7287 C   0  0  0  0  0  0  0  0  0  0  0  0
    2.8082   -0.0770    0.1339 C   0  0  0  0  0  0  0  0  0  0  0  0
    2.9779   -0.3582   -3.4813 C   0  0  0  0  0  0  0  0  0  0  0  0
    3.5109    1.1343    0.1166 C   0  0  0  0  0  0  0  0  0  0  0  0
    3.4828   -1.2842    0.3397 C   0  0  0  0  0  0  0  0  0  0  0  0
    4.9055    1.1471    0.3148 C   0  0  0  0  0  0  0  0  0  0  0  0
    4.8613   -1.2731    0.5572 C   0  0  0  0  0  0  0  0  0  0  0  0
    5.5597   -0.0636    0.5545 C   0  0  0  0  0  0  0  0  0  0  0  0
    5.6174    2.4576    0.2255 C   0  0  0  0  0  0  0  0  0  0  0  0
    7.8453    3.5554    0.0162 C   0  0  0  0  0  0  0  0  0  0  0  0
    7.3932    4.8778    0.0469 C   0  0  0  0  0  0  0  0  0  0  0  0
    9.1878    3.3048   -0.3085 C   0  0  0  0  0  0  0  0  0  0  0  0
    8.2454    5.9175   -0.3151 C   0  0  0  0  0  0  0  0  0  0  0  0
   10.0359    4.3544   -0.6829 C   0  0  0  0  0  0  0  0  0  0  0  0
    9.5518    5.6549   -0.6997 C   0  0  0  0  0  0  0  0  0  0  0  0
    0.1745   -1.7650   -1.2400 H   0  0  0  0  0  0  0  0  0  0  0  0
    7.4627    1.5363    0.3065 H   0  0  0  0  0  0  0  0  0  0  0  0
   -0.3026    0.4500   -2.5252 H   0  0  0  0  0  0  0  0  0  0  0  0
    1.4462    0.9388   -4.2185 H   0  0  0  0  0  0  0  0  0  0  0  0
    1.9813    1.3172   -2.5976 H   0  0  0  0  0  0  0  0  0  0  0  0
   -0.9684   -1.7309   -3.3578 H   0  0  0  0  0  0  0  0  0  0  0  0
   -0.2794   -0.7753   -4.6764 H   0  0  0  0  0  0  0  0  0  0  0  0
    0.6581   -2.0858   -3.9320 H   0  0  0  0  0  0  0  0  0  0  0  0
    2.7604   -1.3308   -3.9279 H   0  0  0  0  0  0  0  0  0  0  0  0
    3.6659    0.1708   -4.1487 H   0  0  0  0  0  0  0  0  0  0  0  0
    3.5116   -0.5298   -2.5445 H   0  0  0  0  0  0  0  0  0  0  0  0
    2.9780    2.0692   -0.0573 H   0  0  0  0  0  0  0  0  0  0  0  0
    2.9385   -2.2265    0.3367 H   0  0  0  0  0  0  0  0  0  0  0  0
    5.3966   -2.2022    0.7336 H   0  0  0  0  0  0  0  0  0  0  0  0
    6.3862    5.1407    0.3490 H   0  0  0  0  0  0  0  0  0  0  0  0
    9.5810    2.2910   -0.3211 H   0  0  0  0  0  0  0  0  0  0  0  0
   11.0623    4.1640   -0.9807 H   0  0  0  0  0  0  0  0  0  0  0  0
  1  5  2  0  0  0  0
  1  6  2  0  0  0  0
  1  8  1  0  0  0  0
  1 13  1  0  0  0  0
  2 19  1  0  0  0  0
  3 24  1  0  0  0  0
  4 26  1  0  0  0  0
  7 20  2  0  0  0  0
  8 27  1  0  0  0  0
  9 20  1  0  0  0  0
  9 21  1  0  0  0  0
  9 28  1  0  0  0  0
 10  8  1  0  0  0  0
 10 11  1  0  0  0  0
 10 12  1  0  0  0  0
 10 29  1  1  0  0  0
 11 14  1  0  0  0  0
 11 30  1  0  0  0  0
 11 31  1  0  0  0  0
 12 32  1  0  0  0  0
 12 33  1  0  0  0  0
 12 34  1  0  0  0  0
 13 15  2  0  0  0  0
 13 16  1  0  0  0  0
 14 35  1  0  0  0  0
 14 36  1  0  0  0  0
 14 37  1  0  0  0  0
 15 17  1  0  0  0  0
 15 38  1  0  0  0  0
 16 18  2  0  0  0  0
 16 39  1  0  0  0  0
 17 19  2  0  0  0  0
 17 20  1  0  0  0  0
 18 19  1  0  0  0  0
 18 40  1  0  0  0  0
 21 22  2  0  0  0  0
 21 23  1  0  0  0  0
 22 24  1  0  0  0  0
 22 41  1  0  0  0  0
 23 25  2  0  0  0  0
 23 42  1  0  0  0  0
 24 26  2  0  0  0  0
 25 26  1  0  0  0  0
 25 43  1  0  0  0  0
M  END
>  <Mol_ID>
6610

>  <Formula>
C17H17F3N2O3S

>  <MolWeight>
386.3886896

>  <Cat>
S0038

>  <Name>
AB-423

>  <Synonyms>
N/A

>  <Target>
HBV

>  <Form>
Free base

>  <CAS>
1572510-80-5

>  <URL>
http://www.selleckchem.com/products/ab-423.html

$$$$
