ABBV-075 (Mivebresib).cdx
 OpenBabel08302520433D

 51 54  0  0  0  0  0  0  0  0999 V2000
   -2.0112    0.4964   -3.4874 C   0  0  0  0  0  0  0  0  0  0  0  0
   -2.7111    0.9480   -2.3790 C   0  0  0  0  0  0  0  0  0  0  0  0
   -2.8156    0.1292   -1.2539 C   0  0  0  0  0  0  0  0  0  0  0  0
   -2.2342   -1.1419   -1.2313 C   0  0  0  0  0  0  0  0  0  0  0  0
   -1.5543   -1.5939   -2.3748 C   0  0  0  0  0  0  0  0  0  0  0  0
   -1.4418   -0.7740   -3.5024 C   0  0  0  0  0  0  0  0  0  0  0  0
   -1.8661    1.2951   -4.5526 F   0  0  0  0  0  0  0  0  0  0  0  0
   -3.4933    0.5808   -0.1884 F   0  0  0  0  0  0  0  0  0  0  0  0
   -2.3048   -1.8559   -0.0448 O   0  0  0  0  0  0  0  0  0  0  0  0
   -2.4644   -3.2301   -0.0825 C   0  0  0  0  0  0  0  0  0  0  0  0
   -1.9558   -4.0295    0.9609 C   0  0  0  0  0  0  0  0  0  0  0  0
   -2.0848   -5.4360    0.8633 C   0  0  0  0  0  0  0  0  0  0  0  0
   -2.6943   -6.0337   -0.2445 C   0  0  0  0  0  0  0  0  0  0  0  0
   -3.2515   -5.2310   -1.2346 C   0  0  0  0  0  0  0  0  0  0  0  0
   -3.1624   -3.8399   -1.1351 C   0  0  0  0  0  0  0  0  0  0  0  0
   -2.5967   -7.4442   -0.4550 N   0  0  0  0  0  0  0  0  0  0  0  0
   -3.7052   -8.5319    0.2106 S   0  0  0  0  0  0  0  0  0  0  0  0
   -4.8629   -8.7102   -1.1390 C   0  0  0  0  0  0  0  0  0  0  0  0
   -5.9705   -9.7009   -0.8320 C   0  0  0  0  0  0  0  0  0  0  0  0
   -2.9741   -9.7790    0.3237 O   0  0  0  0  0  0  0  0  0  0  0  0
   -4.3695   -7.9426    1.3491 O   0  0  0  0  0  0  0  0  0  0  0  0
   -1.2487   -3.4940    2.1543 C   0  0  0  0  0  0  0  0  0  0  0  0
   -1.8723   -3.2248    3.4195 C   0  0  0  0  0  0  0  0  0  0  0  0
   -1.0931   -2.8335    4.4849 C   0  0  0  0  0  0  0  0  0  0  0  0
    0.3443   -2.6723    4.4393 C   0  0  0  0  0  0  0  0  0  0  0  0
    0.8913   -2.9957    3.1870 N   0  0  0  0  0  0  0  0  0  0  0  0
    0.1044   -3.3828    2.0934 C   0  0  0  0  0  0  0  0  0  0  0  0
   -3.2054   -3.3417    3.8736 C   0  0  0  0  0  0  0  0  0  0  0  0
   -3.1871   -3.0281    5.2198 C   0  0  0  0  0  0  0  0  0  0  0  0
   -1.9132   -2.6853    5.5742 N   0  0  0  0  0  0  0  0  0  0  0  0
    1.0004   -2.3200    5.4079 O   0  0  0  0  0  0  0  0  0  0  0  0
    2.3388   -2.9691    3.0760 C   0  0  0  0  0  0  0  0  0  0  0  0
   -3.1645    1.9358   -2.3785 H   0  0  0  0  0  0  0  0  0  0  0  0
   -1.1150   -2.5871   -2.4160 H   0  0  0  0  0  0  0  0  0  0  0  0
   -0.9034   -1.1095   -4.3821 H   0  0  0  0  0  0  0  0  0  0  0  0
   -1.6672   -6.0696    1.6439 H   0  0  0  0  0  0  0  0  0  0  0  0
   -3.7096   -5.6514   -2.1239 H   0  0  0  0  0  0  0  0  0  0  0  0
   -3.6033   -3.2387   -1.9244 H   0  0  0  0  0  0  0  0  0  0  0  0
   -1.6570   -7.8244   -0.3264 H   0  0  0  0  0  0  0  0  0  0  0  0
   -5.2899   -7.7215   -1.3187 H   0  0  0  0  0  0  0  0  0  0  0  0
   -4.2982   -9.0343   -2.0189 H   0  0  0  0  0  0  0  0  0  0  0  0
   -6.5203   -9.4151    0.0703 H   0  0  0  0  0  0  0  0  0  0  0  0
   -6.6814   -9.7357   -1.6641 H   0  0  0  0  0  0  0  0  0  0  0  0
   -5.5791  -10.7119   -0.6794 H   0  0  0  0  0  0  0  0  0  0  0  0
    0.6499   -3.6280    1.1805 H   0  0  0  0  0  0  0  0  0  0  0  0
   -4.0694   -3.6524    3.3092 H   0  0  0  0  0  0  0  0  0  0  0  0
   -3.9788   -3.0340    5.9628 H   0  0  0  0  0  0  0  0  0  0  0  0
   -1.5890   -2.4172    6.4985 H   0  0  0  0  0  0  0  0  0  0  0  0
    2.6924   -1.9463    3.2344 H   0  0  0  0  0  0  0  0  0  0  0  0
    2.7687   -3.6078    3.8547 H   0  0  0  0  0  0  0  0  0  0  0  0
    2.6764   -3.3259    2.0986 H   0  0  0  0  0  0  0  0  0  0  0  0
  1  2  2  0  0  0  0
  1  7  1  0  0  0  0
  2  3  1  0  0  0  0
  2 33  1  0  0  0  0
  3  4  2  0  0  0  0
  3  8  1  0  0  0  0
  4  5  1  0  0  0  0
  4  9  1  0  0  0  0
  5  6  2  0  0  0  0
  5 34  1  0  0  0  0
  6  1  1  0  0  0  0
  6 35  1  0  0  0  0
  9 10  1  0  0  0  0
 10 11  1  0  0  0  0
 11 12  2  0  0  0  0
 11 22  1  0  0  0  0
 12 13  1  0  0  0  0
 12 36  1  0  0  0  0
 13 14  2  0  0  0  0
 13 16  1  0  0  0  0
 14 15  1  0  0  0  0
 14 37  1  0  0  0  0
 15 10  2  0  0  0  0
 15 38  1  0  0  0  0
 16 17  1  0  0  0  0
 16 39  1  0  0  0  0
 17 18  1  0  0  0  0
 17 20  2  0  0  0  0
 17 21  2  0  0  0  0
 18 19  1  0  0  0  0
 18 40  1  0  0  0  0
 18 41  1  0  0  0  0
 19 42  1  0  0  0  0
 19 43  1  0  0  0  0
 19 44  1  0  0  0  0
 22 23  1  0  0  0  0
 23 24  2  0  0  0  0
 23 28  1  0  0  0  0
 24 25  1  0  0  0  0
 25 26  1  0  0  0  0
 25 31  2  0  0  0  0
 26 27  1  0  0  0  0
 26 32  1  0  0  0  0
 27 22  2  0  0  0  0
 27 45  1  0  0  0  0
 28 29  2  0  0  0  0
 28 46  1  0  0  0  0
 29 30  1  0  0  0  0
 29 47  1  0  0  0  0
 30 24  1  0  0  0  0
 30 48  1  0  0  0  0
 32 49  1  0  0  0  0
 32 50  1  0  0  0  0
 32 51  1  0  0  0  0
M  END
>  <Mol_ID>
4112

>  <Formula>
C22H19F2N3O4S

>  <MolWeight>
459.4657664

>  <Cat>
S8400

>  <Name>
Mivebresib (ABBV-075)

>  <Synonyms>
N/A

>  <Target>
Apoptosis related,Epigenetic Reader Domain

>  <Form>
free base

>  <CAS>
1445993-26-9

>  <URL>
http://selleckchem.com/products/mivebresib-abbv-075.html

$$$$
