ABC294640.cdx
 OpenBabel08302519593D

 52 56  0  0  0  0  0  0  0  0999 V2000
   -1.5112    0.2536    0.1104 C   0  0  3  0  0  0  0  0  0  0  0  0
   -0.7402    0.9980    1.2350 C   0  0  0  0  0  0  0  0  0  0  0  0
    0.7734    0.7425    1.1218 C   0  0  3  0  0  0  0  0  0  0  0  0
    1.0462   -0.7612    1.2487 C   0  0  0  0  0  0  0  0  0  0  0  0
    0.3280   -1.5500    0.1258 C   0  0  3  0  0  0  0  0  0  0  0  0
   -1.1832   -1.2642    0.2368 C   0  0  0  0  0  0  0  0  0  0  0  0
   -0.9562    0.7356   -1.2623 C   0  0  0  0  0  0  0  0  0  0  0  0
    0.8278   -1.0310   -1.2403 C   0  0  0  0  0  0  0  0  0  0  0  0
    0.5558    0.4788   -1.3698 C   0  0  3  0  0  0  0  0  0  0  0  0
    1.2772    1.2328   -0.2429 C   0  0  0  0  0  0  0  0  0  0  0  0
   -3.0178    0.5448    0.1810 C   0  0  0  0  0  0  0  0  0  0  0  0
   -3.4918    1.8643    0.0667 C   0  0  0  0  0  0  0  0  0  0  0  0
   -4.8597    2.1450    0.0412 C   0  0  0  0  0  0  0  0  0  0  0  0
   -5.7874    1.1121    0.1307 C   0  0  0  0  0  0  0  0  0  0  0  0
   -5.3449   -0.1972    0.2712 C   0  0  0  0  0  0  0  0  0  0  0  0
   -3.9774   -0.4756    0.3075 C   0  0  0  0  0  0  0  0  0  0  0  0
    0.5787   -3.0599    0.3158 C   0  0  0  0  0  0  0  0  0  0  0  0
    0.0005   -3.8924   -0.6162 N   0  0  0  0  0  0  0  0  0  0  0  0
    0.1013   -5.3376   -0.5264 C   0  0  0  0  0  0  0  0  0  0  0  0
   -1.2492   -5.9924   -0.4000 C   0  0  0  0  0  0  0  0  0  0  0  0
   -1.6921   -6.9434   -1.3250 C   0  0  0  0  0  0  0  0  0  0  0  0
   -2.9195   -7.5566   -1.1225 C   0  0  0  0  0  0  0  0  0  0  0  0
   -3.7297   -7.2872   -0.0754 N   0  0  0  0  0  0  0  0  0  0  0  0
   -3.2865   -6.3715    0.8104 C   0  0  0  0  0  0  0  0  0  0  0  0
   -2.0751   -5.7070    0.6939 C   0  0  0  0  0  0  0  0  0  0  0  0
    1.2202   -3.5002    1.2683 O   0  0  0  0  0  0  0  0  0  0  0  0
   -0.9150    2.0804    1.1859 H   0  0  0  0  0  0  0  0  0  0  0  0
   -1.0998    0.6739    2.2205 H   0  0  0  0  0  0  0  0  0  0  0  0
    1.2967    1.2790    1.9213 H   0  0  0  0  0  0  0  0  0  0  0  0
    2.1278   -0.9470    1.2107 H   0  0  0  0  0  0  0  0  0  0  0  0
    0.7084   -1.1091    2.2340 H   0  0  0  0  0  0  0  0  0  0  0  0
   -1.5490   -1.6533    1.1973 H   0  0  0  0  0  0  0  0  0  0  0  0
   -1.7140   -1.8208   -0.5469 H   0  0  0  0  0  0  0  0  0  0  0  0
   -1.4794    0.2248   -2.0816 H   0  0  0  0  0  0  0  0  0  0  0  0
   -1.1396    1.8087   -1.4056 H   0  0  0  0  0  0  0  0  0  0  0  0
    0.3299   -1.5547   -2.0659 H   0  0  0  0  0  0  0  0  0  0  0  0
    1.9012   -1.2275   -1.3544 H   0  0  0  0  0  0  0  0  0  0  0  0
    0.9174    0.8383   -2.3401 H   0  0  0  0  0  0  0  0  0  0  0  0
    2.3600    1.0762   -0.3222 H   0  0  0  0  0  0  0  0  0  0  0  0
    1.1051    2.3122   -0.3392 H   0  0  0  0  0  0  0  0  0  0  0  0
   -2.7979    2.6981   -0.0219 H   0  0  0  0  0  0  0  0  0  0  0  0
   -5.2005    3.1723   -0.0612 H   0  0  0  0  0  0  0  0  0  0  0  0
   -6.8507    1.3270    0.0910 H   0  0  0  0  0  0  0  0  0  0  0  0
   -6.0627   -1.0110    0.3443 H   0  0  0  0  0  0  0  0  0  0  0  0
   -3.6937   -1.5171    0.4225 H   0  0  0  0  0  0  0  0  0  0  0  0
   -0.5139   -3.5084   -1.3952 H   0  0  0  0  0  0  0  0  0  0  0  0
    0.6044   -5.6686   -1.4438 H   0  0  0  0  0  0  0  0  0  0  0  0
    0.7284   -5.6425    0.3175 H   0  0  0  0  0  0  0  0  0  0  0  0
   -1.0887   -7.2220   -2.1854 H   0  0  0  0  0  0  0  0  0  0  0  0
   -3.2941   -8.3082   -1.8112 H   0  0  0  0  0  0  0  0  0  0  0  0
   -3.9497   -6.1816    1.6498 H   0  0  0  0  0  0  0  0  0  0  0  0
   -1.7716   -4.9934    1.4536 H   0  0  0  0  0  0  0  0  0  0  0  0
  1  2  1  0  0  0  0
  1  7  1  0  0  0  0
  1 11  1  0  0  0  0
  2  3  1  0  0  0  0
  2 27  1  0  0  0  0
  2 28  1  0  0  0  0
  3  4  1  0  0  0  0
  3 29  1  0  0  0  0
  4  5  1  0  0  0  0
  4 30  1  0  0  0  0
  4 31  1  0  0  0  0
  5  6  1  0  0  0  0
  5  8  1  0  0  0  0
  5 17  1  0  0  0  0
  6  1  1  0  0  0  0
  6 32  1  0  0  0  0
  6 33  1  0  0  0  0
  7  9  1  0  0  0  0
  7 34  1  0  0  0  0
  7 35  1  0  0  0  0
  8 36  1  0  0  0  0
  8 37  1  0  0  0  0
  9  8  1  0  0  0  0
  9 10  1  0  0  0  0
  9 38  1  0  0  0  0
 10  3  1  0  0  0  0
 10 39  1  0  0  0  0
 10 40  1  0  0  0  0
 11 12  2  0  0  0  0
 12 13  1  0  0  0  0
 12 41  1  0  0  0  0
 13 14  2  0  0  0  0
 13 42  1  0  0  0  0
 14 15  1  0  0  0  0
 14 43  1  0  0  0  0
 15 16  2  0  0  0  0
 15 44  1  0  0  0  0
 16 11  1  0  0  0  0
 16 45  1  0  0  0  0
 17 18  1  0  0  0  0
 17 26  2  0  0  0  0
 18 19  1  0  0  0  0
 18 46  1  0  0  0  0
 19 20  1  0  0  0  0
 19 47  1  0  0  0  0
 19 48  1  0  0  0  0
 20 21  2  0  0  0  0
 21 22  1  0  0  0  0
 21 49  1  0  0  0  0
 22 23  2  0  0  0  0
 22 50  1  0  0  0  0
 23 24  1  0  0  0  0
 24 25  2  0  0  0  0
 24 51  1  0  0  0  0
 25 20  1  0  0  0  0
 25 52  1  0  0  0  0
M  END
>  <Mol_ID>
2621

>  <Formula>
C23H25ClN2O

>  <MolWeight>
380.9104

>  <Cat>
S7174

>  <Name>
Opaganib (ABC294640)

>  <Synonyms>
N/A

>  <Target>
SPHK

>  <Form>
free base

>  <CAS>
915385-81-8

>  <URL>
http://selleckchem.com/products/abc294640.html

$$$$
