ABILIFY (aripiprazole).cdx
 OpenBabel08302522003D

 57 60  0  0  0  0  0  0  0  0999 V2000
   -7.1308    3.4014   -2.1844 C   0  0  0  0  0  0  0  0  0  0  0  0
   -5.7910    3.0174   -2.1032 C   0  0  0  0  0  0  0  0  0  0  0  0
   -5.2702    2.1424   -3.0588 C   0  0  0  0  0  0  0  0  0  0  0  0
   -6.1076    1.6017   -4.0356 C   0  0  0  0  0  0  0  0  0  0  0  0
   -7.4464    1.9905   -4.1277 C   0  0  0  0  0  0  0  0  0  0  0  0
   -7.9533    2.9026   -3.1967 C   0  0  0  0  0  0  0  0  0  0  0  0
   -5.6229    0.5786   -4.8546 N   0  0  0  0  0  0  0  0  0  0  0  0
   -6.3569   -0.0326   -5.8368 C   0  0  0  0  0  0  0  0  0  0  0  0
   -7.6013    0.6988   -6.2805 C   0  0  0  0  0  0  0  0  0  0  0  0
   -8.3587    1.3200   -5.1157 C   0  0  0  0  0  0  0  0  0  0  0  0
   -5.9637   -1.0576   -6.3803 O   0  0  0  0  0  0  0  0  0  0  0  0
   -5.1154    3.5184   -1.0217 O   0  0  0  0  0  0  0  0  0  0  0  0
   -3.7420    3.1485   -0.9096 C   0  0  0  0  0  0  0  0  0  0  0  0
   -3.2202    3.5943    0.4518 C   0  0  0  0  0  0  0  0  0  0  0  0
   -1.7361    3.2771    0.6597 C   0  0  0  0  0  0  0  0  0  0  0  0
   -0.8094    3.9748   -0.3576 C   0  0  0  0  0  0  0  0  0  0  0  0
    0.5975    3.5782   -0.2155 N   0  0  0  0  0  0  0  0  0  0  0  0
    1.2087    3.9938    1.0643 C   0  0  0  0  0  0  0  0  0  0  0  0
    1.5338    5.4956    1.1729 C   0  0  0  0  0  0  0  0  0  0  0  0
    2.4439    5.8978    0.0909 N   0  0  0  0  0  0  0  0  0  0  0  0
    1.9694    5.5383   -1.2546 C   0  0  0  0  0  0  0  0  0  0  0  0
    1.4415    4.0776   -1.3344 C   0  0  0  0  0  0  0  0  0  0  0  0
    3.7449    6.2540    0.4040 C   0  0  0  0  0  0  0  0  0  0  0  0
    4.8581    5.8945   -0.3674 C   0  0  0  0  0  0  0  0  0  0  0  0
    6.1650    6.2357    0.0162 C   0  0  0  0  0  0  0  0  0  0  0  0
    6.3892    6.9628    1.1819 C   0  0  0  0  0  0  0  0  0  0  0  0
    5.3096    7.3607    1.9542 C   0  0  0  0  0  0  0  0  0  0  0  0
    4.0124    7.0196    1.5534 C   0  0  0  0  0  0  0  0  0  0  0  0
   -7.5440    4.0741   -1.4361 H   0  0  0  0  0  0  0  0  0  0  0  0
   -4.2303    1.8381   -3.0404 H   0  0  0  0  0  0  0  0  0  0  0  0
   -9.0012    3.1933   -3.2215 H   0  0  0  0  0  0  0  0  0  0  0  0
   -4.7258    0.1523   -4.6576 H   0  0  0  0  0  0  0  0  0  0  0  0
   -7.2806    1.4746   -6.9869 H   0  0  0  0  0  0  0  0  0  0  0  0
   -8.2557    0.0061   -6.8167 H   0  0  0  0  0  0  0  0  0  0  0  0
   -9.0829    2.0433   -5.5093 H   0  0  0  0  0  0  0  0  0  0  0  0
   -8.9178    0.5415   -4.5836 H   0  0  0  0  0  0  0  0  0  0  0  0
   -3.6183    2.0614   -0.9803 H   0  0  0  0  0  0  0  0  0  0  0  0
   -3.1949    3.6458   -1.7156 H   0  0  0  0  0  0  0  0  0  0  0  0
   -3.4046    4.6651    0.5952 H   0  0  0  0  0  0  0  0  0  0  0  0
   -3.8045    3.0886    1.2334 H   0  0  0  0  0  0  0  0  0  0  0  0
   -1.4853    3.5841    1.6809 H   0  0  0  0  0  0  0  0  0  0  0  0
   -1.5889    2.1902    0.6110 H   0  0  0  0  0  0  0  0  0  0  0  0
   -1.1260    3.6639   -1.3585 H   0  0  0  0  0  0  0  0  0  0  0  0
   -0.9423    5.0609   -0.3029 H   0  0  0  0  0  0  0  0  0  0  0  0
    0.5900    3.6964    1.9151 H   0  0  0  0  0  0  0  0  0  0  0  0
    2.1415    3.4270    1.1807 H   0  0  0  0  0  0  0  0  0  0  0  0
    0.6177    6.0998    1.1021 H   0  0  0  0  0  0  0  0  0  0  0  0
    1.9407    5.6685    2.1729 H   0  0  0  0  0  0  0  0  0  0  0  0
    1.1492    6.2219   -1.5067 H   0  0  0  0  0  0  0  0  0  0  0  0
    2.7312    5.6903   -2.0277 H   0  0  0  0  0  0  0  0  0  0  0  0
    2.3100    3.4107   -1.3952 H   0  0  0  0  0  0  0  0  0  0  0  0
    0.9142    3.9470   -2.2896 H   0  0  0  0  0  0  0  0  0  0  0  0
    4.7383    5.3000   -1.2674 H   0  0  0  0  0  0  0  0  0  0  0  0
    7.0089    5.9271   -0.5942 H   0  0  0  0  0  0  0  0  0  0  0  0
    7.4024    7.2185    1.4859 H   0  0  0  0  0  0  0  0  0  0  0  0
    5.4615    7.9419    2.8592 H   0  0  0  0  0  0  0  0  0  0  0  0
    3.1929    7.3936    2.1630 H   0  0  0  0  0  0  0  0  0  0  0  0
  1  2  2  0  0  0  0
  1 29  1  0  0  0  0
  2  3  1  0  0  0  0
  2 12  1  0  0  0  0
  3  4  2  0  0  0  0
  3 30  1  0  0  0  0
  4  5  1  0  0  0  0
  4  7  1  0  0  0  0
  5  6  2  0  0  0  0
  6  1  1  0  0  0  0
  6 31  1  0  0  0  0
  7  8  1  0  0  0  0
  7 32  1  0  0  0  0
  8  9  1  0  0  0  0
  8 11  2  0  0  0  0
  9 10  1  0  0  0  0
  9 33  1  0  0  0  0
  9 34  1  0  0  0  0
 10  5  1  0  0  0  0
 10 35  1  0  0  0  0
 10 36  1  0  0  0  0
 12 13  1  0  0  0  0
 13 14  1  0  0  0  0
 13 37  1  0  0  0  0
 13 38  1  0  0  0  0
 14 15  1  0  0  0  0
 14 39  1  0  0  0  0
 14 40  1  0  0  0  0
 15 16  1  0  0  0  0
 15 41  1  0  0  0  0
 15 42  1  0  0  0  0
 16 17  1  0  0  0  0
 16 43  1  0  0  0  0
 16 44  1  0  0  0  0
 17 18  1  0  0  0  0
 18 19  1  0  0  0  0
 18 45  1  0  0  0  0
 18 46  1  0  0  0  0
 19 20  1  0  0  0  0
 19 47  1  0  0  0  0
 19 48  1  0  0  0  0
 20 21  1  0  0  0  0
 20 23  1  0  0  0  0
 21 22  1  0  0  0  0
 21 49  1  0  0  0  0
 21 50  1  0  0  0  0
 22 17  1  0  0  0  0
 22 51  1  0  0  0  0
 22 52  1  0  0  0  0
 23 24  2  0  0  0  0
 24 25  1  0  0  0  0
 24 53  1  0  0  0  0
 25 26  2  0  0  0  0
 25 54  1  0  0  0  0
 26 27  1  0  0  0  0
 26 55  1  0  0  0  0
 27 28  2  0  0  0  0
 27 56  1  0  0  0  0
 28 23  1  0  0  0  0
 28 57  1  0  0  0  0
M  END
>  <Mol_ID>
1077

>  <Formula>
C23H27Cl2N3O2

>  <MolWeight>
448.38538

>  <Cat>
S1975

>  <Name>
Aripiprazole

>  <Synonyms>
OPC-14597

>  <Target>
5-HT Receptor

>  <Form>
free base

>  <CAS>
129722-12-9

>  <URL>
http://selleckchem.com/products/aripiprazole-abilify.html

$$$$
