Abitrexate (Methotrexate).cdx
 OpenBabel08302521593D

 55 57  0  0  0  0  0  0  0  0999 V2000
    0.3737    2.0612    2.2543 N   0  0  0  0  0  0  0  0  0  0  0  0
    0.7477    1.0735    3.0623 C   0  0  0  0  0  0  0  0  0  0  0  0
    0.3912   -0.1976    2.9243 N   0  0  0  0  0  0  0  0  0  0  0  0
   -0.3606   -0.5180    1.8753 C   0  0  0  0  0  0  0  0  0  0  0  0
   -0.8015    0.4188    0.9335 C   0  0  0  0  0  0  0  0  0  0  0  0
   -0.3876    1.7177    1.2042 C   0  0  0  0  0  0  0  0  0  0  0  0
   -0.6892   -1.8040    1.7176 N   0  0  0  0  0  0  0  0  0  0  0  0
   -1.4282   -2.1456    0.6318 C   0  0  0  0  0  0  0  0  0  0  0  0
   -1.8529   -1.2283   -0.3131 C   0  0  0  0  0  0  0  0  0  0  0  0
   -1.5388    0.0808   -0.1693 N   0  0  0  0  0  0  0  0  0  0  0  0
   -0.8319    2.7790    0.3974 N   0  0  0  0  0  0  0  0  0  0  0  0
    1.5403    1.3980    4.1422 N   0  0  0  0  0  0  0  0  0  0  0  0
   -2.6006   -1.6522   -1.5583 C   0  0  0  0  0  0  0  0  0  0  0  0
   -3.8579   -2.3455   -1.2493 N   0  0  0  0  0  0  0  0  0  0  0  0
   -3.9379   -3.7191   -1.0905 C   0  0  0  0  0  0  0  0  0  0  0  0
   -4.8904   -4.2842   -0.2234 C   0  0  0  0  0  0  0  0  0  0  0  0
   -4.9876   -5.6666   -0.0248 C   0  0  0  0  0  0  0  0  0  0  0  0
   -4.1290   -6.5305   -0.6969 C   0  0  0  0  0  0  0  0  0  0  0  0
   -3.1475   -5.9998   -1.5338 C   0  0  0  0  0  0  0  0  0  0  0  0
   -3.0639   -4.6124   -1.7298 C   0  0  0  0  0  0  0  0  0  0  0  0
   -5.0804   -1.5566   -1.3967 C   0  0  0  0  0  0  0  0  0  0  0  0
   -4.2031   -8.0044   -0.5077 C   0  0  0  0  0  0  0  0  0  0  0  0
   -5.4639   -8.5219   -0.3023 N   0  0  0  0  0  0  0  0  0  0  0  0
   -5.7019   -9.9485   -0.0588 C   0  0  1  0  0  0  0  0  0  0  0  0
   -5.6452  -10.2181    1.4517 C   0  0  0  0  0  0  0  0  0  0  0  0
   -5.8613  -11.6844    1.8295 C   0  0  0  0  0  0  0  0  0  0  0  0
   -5.6719  -11.9160    3.3033 C   0  0  0  0  0  0  0  0  0  0  0  0
   -3.1915   -8.6916   -0.5582 O   0  0  0  0  0  0  0  0  0  0  0  0
   -7.0502  -10.3709   -0.6581 C   0  0  0  0  0  0  0  0  0  0  0  0
   -5.4590  -11.0811    4.1644 O   0  0  0  0  0  0  0  0  0  0  0  0
   -5.8053  -13.2180    3.6248 O   0  0  0  0  0  0  0  0  0  0  0  0
   -7.4859  -11.5094   -0.7319 O   0  0  0  0  0  0  0  0  0  0  0  0
   -7.8144   -9.3409   -1.0874 O   0  0  0  0  0  0  0  0  0  0  0  0
   -1.6562   -3.2030    0.5497 H   0  0  0  0  0  0  0  0  0  0  0  0
   -0.8250    2.5248   -0.5848 H   0  0  0  0  0  0  0  0  0  0  0  0
   -0.3127    3.6213    0.6290 H   0  0  0  0  0  0  0  0  0  0  0  0
    1.4341    0.7089    4.8745 H   0  0  0  0  0  0  0  0  0  0  0  0
    1.4200    2.3686    4.3944 H   0  0  0  0  0  0  0  0  0  0  0  0
   -2.8192   -0.7512   -2.1473 H   0  0  0  0  0  0  0  0  0  0  0  0
   -1.9266   -2.2393   -2.1896 H   0  0  0  0  0  0  0  0  0  0  0  0
   -5.5452   -3.6397    0.3588 H   0  0  0  0  0  0  0  0  0  0  0  0
   -5.7180   -6.0429    0.6886 H   0  0  0  0  0  0  0  0  0  0  0  0
   -2.4481   -6.6564   -2.0471 H   0  0  0  0  0  0  0  0  0  0  0  0
   -2.3070   -4.2587   -2.4236 H   0  0  0  0  0  0  0  0  0  0  0  0
   -5.0461   -0.6784   -0.7436 H   0  0  0  0  0  0  0  0  0  0  0  0
   -5.1753   -1.2108   -2.4327 H   0  0  0  0  0  0  0  0  0  0  0  0
   -5.9973   -2.1077   -1.1653 H   0  0  0  0  0  0  0  0  0  0  0  0
   -6.2835   -7.9455   -0.4634 H   0  0  0  0  0  0  0  0  0  0  0  0
   -4.9245  -10.5167   -0.5823 H   0  0  0  0  0  0  0  0  0  0  0  0
   -4.6687   -9.8905    1.8341 H   0  0  0  0  0  0  0  0  0  0  0  0
   -6.3906   -9.5985    1.9689 H   0  0  0  0  0  0  0  0  0  0  0  0
   -6.8849  -11.9920    1.5951 H   0  0  0  0  0  0  0  0  0  0  0  0
   -5.1554  -12.3192    1.2835 H   0  0  0  0  0  0  0  0  0  0  0  0
   -5.6869  -13.2403    4.5972 H   0  0  0  0  0  0  0  0  0  0  0  0
   -8.6192   -9.7925   -1.4255 H   0  0  0  0  0  0  0  0  0  0  0  0
  1  2  2  0  0  0  0
  2  3  1  0  0  0  0
  2 12  1  0  0  0  0
  3  4  2  0  0  0  0
  4  5  1  0  0  0  0
  4  7  1  0  0  0  0
  5  6  2  0  0  0  0
  6  1  1  0  0  0  0
  6 11  1  0  0  0  0
  7  8  2  0  0  0  0
  8  9  1  0  0  0  0
  8 34  1  0  0  0  0
  9 10  2  0  0  0  0
  9 13  1  0  0  0  0
 10  5  1  0  0  0  0
 11 35  1  0  0  0  0
 11 36  1  0  0  0  0
 12 37  1  0  0  0  0
 12 38  1  0  0  0  0
 13 14  1  0  0  0  0
 13 39  1  0  0  0  0
 13 40  1  0  0  0  0
 14 15  1  0  0  0  0
 14 21  1  0  0  0  0
 15 16  2  0  0  0  0
 16 17  1  0  0  0  0
 16 41  1  0  0  0  0
 17 18  2  0  0  0  0
 17 42  1  0  0  0  0
 18 19  1  0  0  0  0
 18 22  1  0  0  0  0
 19 20  2  0  0  0  0
 19 43  1  0  0  0  0
 20 15  1  0  0  0  0
 20 44  1  0  0  0  0
 21 45  1  0  0  0  0
 21 46  1  0  0  0  0
 21 47  1  0  0  0  0
 22 23  1  0  0  0  0
 22 28  2  0  0  0  0
 23 24  1  0  0  0  0
 23 48  1  0  0  0  0
 24 25  1  0  0  0  0
 24 29  1  0  0  0  0
 24 49  1  6  0  0  0
 25 26  1  0  0  0  0
 25 50  1  0  0  0  0
 25 51  1  0  0  0  0
 26 27  1  0  0  0  0
 26 52  1  0  0  0  0
 26 53  1  0  0  0  0
 27 30  2  0  0  0  0
 27 31  1  0  0  0  0
 29 32  2  0  0  0  0
 29 33  1  0  0  0  0
 31 54  1  0  0  0  0
 33 55  1  0  0  0  0
M  END
>  <Mol_ID>
121

>  <Formula>
C20H22N8O5

>  <MolWeight>
454.43928

>  <Cat>
S1210

>  <Name>
Methotrexate (CL-14377)

>  <Synonyms>
NCI-C04671, Amethopterin, CL14377, WR19039, abitrexate

>  <Target>
ADC Cytotoxin,DHFR

>  <Form>
free base

>  <CAS>
59-05-2

>  <URL>
http://selleckchem.com/products/Abitrexate.html

$$$$
