ABR-238901
 OpenBabel08302521353D

 30 31  0  0  0  0  0  0  0  0999 V2000
    0.9770    0.1628   -0.1293 S   0  0  0  0  0  0  0  0  0  0  0  0
    0.6095    1.0285    1.2875 N   0  0  0  0  0  0  0  0  0  0  0  0
    0.6435    0.9527   -1.2904 O   0  0  0  0  0  0  0  0  0  0  0  0
    0.4224   -1.1596    0.0741 O   0  0  0  0  0  0  0  0  0  0  0  0
    6.0775    2.1877   -1.0963 Br  0  0  0  0  0  0  0  0  0  0  0  0
    6.7602   -0.2859    0.6339 O   0  0  0  0  0  0  0  0  0  0  0  0
    7.1181   -1.3868    1.4645 C   0  0  0  0  0  0  0  0  0  0  0  0
    2.7835    2.6819    2.0919 O   0  0  0  0  0  0  0  0  0  0  0  0
    2.7197    0.0334   -0.0022 C   0  0  0  0  0  0  0  0  0  0  0  0
    3.5604    0.9779   -0.5847 C   0  0  0  0  0  0  0  0  0  0  0  0
    3.2623   -1.0057    0.7295 C   0  0  0  0  0  0  0  0  0  0  0  0
    4.9316    0.8683   -0.3672 C   0  0  0  0  0  0  0  0  0  0  0  0
    4.5883   -1.1284    0.9553 N   0  0  0  0  0  0  0  0  0  0  0  0
    5.4032   -0.1909    0.4073 C   0  0  0  0  0  0  0  0  0  0  0  0
    0.5624    2.4567    1.1791 C   0  0  0  0  0  0  0  0  0  0  0  0
    1.6479    3.2367    1.5708 C   0  0  0  0  0  0  0  0  0  0  0  0
   -0.5447    3.1165    0.6624 C   0  0  0  0  0  0  0  0  0  0  0  0
    1.5962    4.6181    1.4672 C   0  0  0  0  0  0  0  0  0  0  0  0
   -0.6378    4.4636    0.5629 N   0  0  0  0  0  0  0  0  0  0  0  0
    0.4342    5.1820    0.9690 C   0  0  0  0  0  0  0  0  0  0  0  0
   -0.1971    0.5946    1.7443 H   0  0  0  0  0  0  0  0  0  0  0  0
    6.7257   -1.2557    2.4789 H   0  0  0  0  0  0  0  0  0  0  0  0
    6.7868   -2.3391    1.0355 H   0  0  0  0  0  0  0  0  0  0  0  0
    8.2099   -1.4169    1.5289 H   0  0  0  0  0  0  0  0  0  0  0  0
    2.6045    1.7348    2.2304 H   0  0  0  0  0  0  0  0  0  0  0  0
    3.1513    1.8015   -1.1664 H   0  0  0  0  0  0  0  0  0  0  0  0
    2.6469   -1.7754    1.1901 H   0  0  0  0  0  0  0  0  0  0  0  0
   -1.4143    2.5734    0.3044 H   0  0  0  0  0  0  0  0  0  0  0  0
    2.4284    5.2372    1.7805 H   0  0  0  0  0  0  0  0  0  0  0  0
    0.3284    6.2600    0.8821 H   0  0  0  0  0  0  0  0  0  0  0  0
  1  2  1  0  0  0  0
  1  3  2  0  0  0  0
  1  4  2  0  0  0  0
  1  9  1  0  0  0  0
  2 15  1  0  0  0  0
  2 21  1  0  0  0  0
  5 12  1  0  0  0  0
  6  7  1  0  0  0  0
  6 14  1  0  0  0  0
  7 22  1  0  0  0  0
  7 23  1  0  0  0  0
  7 24  1  0  0  0  0
  8 16  1  0  0  0  0
  8 25  1  0  0  0  0
  9 10  2  0  0  0  0
  9 11  1  0  0  0  0
 10 12  1  0  0  0  0
 10 26  1  0  0  0  0
 11 13  2  0  0  0  0
 11 27  1  0  0  0  0
 12 14  2  0  0  0  0
 13 14  1  0  0  0  0
 15 16  2  0  0  0  0
 15 17  1  0  0  0  0
 16 18  1  0  0  0  0
 17 19  2  0  0  0  0
 17 28  1  0  0  0  0
 18 20  2  0  0  0  0
 18 29  1  0  0  0  0
 19 20  1  0  0  0  0
 20 30  1  0  0  0  0
M  END
>  <Mol_ID>
6827

>  <Formula>
C11H9BrClN3O4S

>  <MolWeight>
394.62886

>  <Cat>
E1134

>  <Name>
ABR-238901

>  <Target>
Immunology & Inflammation related,TLR

>  <Form>
Free base

>  <CAS>
1638200-22-2

>  <URL>
http://www.selleckchem.com/products/abr-238901.html

$$$$
