Abrocitinib (PF-04965842)
 OpenBabel08302521223D

 43 45  0  0  0  0  0  0  0  0999 V2000
   -2.2821    5.1883    2.6206 N   0  0  0  0  0  0  0  0  0  0  0  0
   -2.5308    5.8934    3.7349 C   0  0  0  0  0  0  0  0  0  0  0  0
   -2.7142    7.2108    3.8338 N   0  0  0  0  0  0  0  0  0  0  0  0
   -2.5802    7.8064    2.6423 C   0  0  0  0  0  0  0  0  0  0  0  0
   -2.3432    7.2117    1.4054 C   0  0  0  0  0  0  0  0  0  0  0  0
   -2.2596    5.7967    1.3948 C   0  0  0  0  0  0  0  0  0  0  0  0
   -2.7058    9.1550    2.4667 N   0  0  0  0  0  0  0  0  0  0  0  0
   -2.5021    9.4690    1.1515 C   0  0  0  0  0  0  0  0  0  0  0  0
   -2.3072    8.2861    0.4675 C   0  0  0  0  0  0  0  0  0  0  0  0
   -2.3210    4.9418    0.2583 N   0  0  0  0  0  0  0  0  0  0  0  0
   -1.3961    5.3027   -0.8233 C   0  0  0  0  0  0  0  0  0  0  0  0
   -2.4617    3.4927    0.4637 C   0  0  1  0  0  0  0  0  0  0  0  0
   -3.6407    3.0643    1.3840 C   0  0  0  0  0  0  0  0  0  0  0  0
   -4.5049    2.8464    0.1391 C   0  0  2  0  0  0  0  0  0  0  0  0
   -3.2040    2.7637   -0.6853 C   0  0  0  0  0  0  0  0  0  0  0  0
   -5.4428    3.9789   -0.2481 N   0  0  0  0  0  0  0  0  0  0  0  0
   -6.5665    3.7176   -1.4794 S   0  0  0  0  0  0  0  0  0  0  0  0
   -7.4912    5.2489   -1.4810 C   0  0  0  0  0  0  0  0  0  0  0  0
   -8.5226    5.2978   -2.6067 C   0  0  0  0  0  0  0  0  0  0  0  0
   -9.6343    4.2684   -2.4672 C   0  0  0  0  0  0  0  0  0  0  0  0
   -5.8079    3.6373   -2.7075 O   0  0  0  0  0  0  0  0  0  0  0  0
   -7.4252    2.6403   -1.0406 O   0  0  0  0  0  0  0  0  0  0  0  0
   -2.6248    5.3180    4.6509 H   0  0  0  0  0  0  0  0  0  0  0  0
   -2.9214    9.7962    3.2164 H   0  0  0  0  0  0  0  0  0  0  0  0
   -2.5274   10.4975    0.8168 H   0  0  0  0  0  0  0  0  0  0  0  0
   -2.1352    8.2245   -0.5977 H   0  0  0  0  0  0  0  0  0  0  0  0
   -0.4615    4.7359   -0.7441 H   0  0  0  0  0  0  0  0  0  0  0  0
   -1.8525    5.0618   -1.7891 H   0  0  0  0  0  0  0  0  0  0  0  0
   -1.1257    6.3573   -0.8667 H   0  0  0  0  0  0  0  0  0  0  0  0
   -1.4970    3.0415    0.7260 H   0  0  0  0  0  0  0  0  0  0  0  0
   -3.4274    2.1376    1.9307 H   0  0  0  0  0  0  0  0  0  0  0  0
   -4.0725    3.7695    2.0961 H   0  0  0  0  0  0  0  0  0  0  0  0
   -5.0696    1.9149    0.1965 H   0  0  0  0  0  0  0  0  0  0  0  0
   -3.2286    3.2533   -1.6622 H   0  0  0  0  0  0  0  0  0  0  0  0
   -2.8704    1.7304   -0.8359 H   0  0  0  0  0  0  0  0  0  0  0  0
   -4.9114    4.8424   -0.3869 H   0  0  0  0  0  0  0  0  0  0  0  0
   -7.9662    5.3653   -0.5035 H   0  0  0  0  0  0  0  0  0  0  0  0
   -6.7647    6.0566   -1.6260 H   0  0  0  0  0  0  0  0  0  0  0  0
   -8.9779    6.2963   -2.6186 H   0  0  0  0  0  0  0  0  0  0  0  0
   -8.0329    5.1623   -3.5791 H   0  0  0  0  0  0  0  0  0  0  0  0
  -10.0497    4.2629   -1.4549 H   0  0  0  0  0  0  0  0  0  0  0  0
  -10.4458    4.4893   -3.1683 H   0  0  0  0  0  0  0  0  0  0  0  0
   -9.2778    3.2596   -2.7038 H   0  0  0  0  0  0  0  0  0  0  0  0
  1  2  2  0  0  0  0
  2  3  1  0  0  0  0
  2 23  1  0  0  0  0
  3  4  2  0  0  0  0
  4  5  1  0  0  0  0
  4  7  1  0  0  0  0
  5  6  2  0  0  0  0
  6  1  1  0  0  0  0
  6 10  1  0  0  0  0
  7  8  1  0  0  0  0
  7 24  1  0  0  0  0
  8  9  2  0  0  0  0
  8 25  1  0  0  0  0
  9  5  1  0  0  0  0
  9 26  1  0  0  0  0
 10 11  1  0  0  0  0
 11 27  1  0  0  0  0
 11 28  1  0  0  0  0
 11 29  1  0  0  0  0
 12 13  1  0  0  0  0
 12 30  1  1  0  0  0
 12 10  1  0  0  0  0
 13 14  1  0  0  0  0
 13 31  1  0  0  0  0
 13 32  1  0  0  0  0
 14 15  1  0  0  0  0
 14 33  1  1  0  0  0
 14 16  1  0  0  0  0
 15 12  1  0  0  0  0
 15 34  1  0  0  0  0
 15 35  1  0  0  0  0
 16 17  1  0  0  0  0
 16 36  1  0  0  0  0
 17 18  1  0  0  0  0
 17 21  2  0  0  0  0
 17 22  2  0  0  0  0
 18 19  1  0  0  0  0
 18 37  1  0  0  0  0
 18 38  1  0  0  0  0
 19 20  1  0  0  0  0
 19 39  1  0  0  0  0
 19 40  1  0  0  0  0
 20 41  1  0  0  0  0
 20 42  1  0  0  0  0
 20 43  1  0  0  0  0
M  END
>  <Mol_ID>
4664

>  <Formula>
C14H21N5O2S

>  <MolWeight>
323.41384

>  <Cat>
S8765

>  <Name>
Abrocitinib (PF-04965842)

>  <Synonyms>
N/A

>  <Target>
JAK

>  <Form>
free base

>  <CAS>
1622902-68-4

>  <URL>
http://www.selleck.cn/products/pf-04965842.html

$$$$
