abt-751.cdx
 OpenBabel08302521393D

 43 45  0  0  0  0  0  0  0  0999 V2000
   -4.7798    2.2506    5.2294 C   0  0  0  0  0  0  0  0  0  0  0  0
   -3.6450    2.2033    6.0417 C   0  0  0  0  0  0  0  0  0  0  0  0
   -2.4600    2.7979    5.5983 C   0  0  0  0  0  0  0  0  0  0  0  0
   -2.3862    3.3821    4.3297 C   0  0  0  0  0  0  0  0  0  0  0  0
   -3.5078    3.3561    3.4948 C   0  0  0  0  0  0  0  0  0  0  0  0
   -4.7163    2.8315    3.9572 C   0  0  0  0  0  0  0  0  0  0  0  0
   -3.5691    1.6189    7.2772 O   0  0  0  0  0  0  0  0  0  0  0  0
   -4.6924    0.8495    7.6923 C   0  0  0  0  0  0  0  0  0  0  0  0
   -3.4079    4.0331    1.8519 S   0  0  0  0  0  0  0  0  0  0  0  0
   -4.7403    4.3909    1.4104 O   0  0  0  0  0  0  0  0  0  0  0  0
   -2.3300    4.9997    1.8529 O   0  0  0  0  0  0  0  0  0  0  0  0
   -2.8760    2.7422    0.9271 N   0  0  0  0  0  0  0  0  0  0  0  0
   -3.6855    1.5769    0.7491 C   0  0  0  0  0  0  0  0  0  0  0  0
   -4.7184    1.4968   -0.2108 C   0  0  0  0  0  0  0  0  0  0  0  0
   -5.3901    0.3343   -0.4124 N   0  0  0  0  0  0  0  0  0  0  0  0
   -5.0558   -0.7445    0.3210 C   0  0  0  0  0  0  0  0  0  0  0  0
   -4.0688   -0.7384    1.2884 C   0  0  0  0  0  0  0  0  0  0  0  0
   -3.3750    0.4453    1.5072 C   0  0  0  0  0  0  0  0  0  0  0  0
   -4.9966    2.6016   -1.0489 N   0  0  0  0  0  0  0  0  0  0  0  0
   -5.6389    2.5709   -2.3040 C   0  0  0  0  0  0  0  0  0  0  0  0
   -6.5917    3.5432   -2.6493 C   0  0  0  0  0  0  0  0  0  0  0  0
   -7.2100    3.5319   -3.9089 C   0  0  0  0  0  0  0  0  0  0  0  0
   -6.8721    2.5470   -4.8324 C   0  0  0  0  0  0  0  0  0  0  0  0
   -5.9555    1.5623   -4.5054 C   0  0  0  0  0  0  0  0  0  0  0  0
   -5.3562    1.5662   -3.2421 C   0  0  0  0  0  0  0  0  0  0  0  0
   -7.4227    2.5132   -6.0790 O   0  0  0  0  0  0  0  0  0  0  0  0
   -5.7319    1.8445    5.5560 H   0  0  0  0  0  0  0  0  0  0  0  0
   -1.5864    2.8011    6.2488 H   0  0  0  0  0  0  0  0  0  0  0  0
   -1.4557    3.8486    4.0116 H   0  0  0  0  0  0  0  0  0  0  0  0
   -5.6077    2.8614    3.3357 H   0  0  0  0  0  0  0  0  0  0  0  0
   -5.5586    1.4933    7.8737 H   0  0  0  0  0  0  0  0  0  0  0  0
   -4.9298    0.0626    6.9673 H   0  0  0  0  0  0  0  0  0  0  0  0
   -4.4352    0.3604    8.6369 H   0  0  0  0  0  0  0  0  0  0  0  0
   -1.8648    2.6304    0.9008 H   0  0  0  0  0  0  0  0  0  0  0  0
   -5.6144   -1.6508    0.0914 H   0  0  0  0  0  0  0  0  0  0  0  0
   -3.8319   -1.6407    1.8414 H   0  0  0  0  0  0  0  0  0  0  0  0
   -2.5807    0.4694    2.2490 H   0  0  0  0  0  0  0  0  0  0  0  0
   -5.1113    3.4576   -0.5117 H   0  0  0  0  0  0  0  0  0  0  0  0
   -6.8724    4.3108   -1.9340 H   0  0  0  0  0  0  0  0  0  0  0  0
   -7.9447    4.2948   -4.1481 H   0  0  0  0  0  0  0  0  0  0  0  0
   -5.7018    0.7882   -5.2254 H   0  0  0  0  0  0  0  0  0  0  0  0
   -4.6371    0.7895   -2.9998 H   0  0  0  0  0  0  0  0  0  0  0  0
   -8.0314    3.2637   -6.1733 H   0  0  0  0  0  0  0  0  0  0  0  0
  1  2  2  0  0  0  0
  1 27  1  0  0  0  0
  2  3  1  0  0  0  0
  2  7  1  0  0  0  0
  3  4  2  0  0  0  0
  3 28  1  0  0  0  0
  4  5  1  0  0  0  0
  4 29  1  0  0  0  0
  5  6  2  0  0  0  0
  5  9  1  0  0  0  0
  6  1  1  0  0  0  0
  6 30  1  0  0  0  0
  7  8  1  0  0  0  0
  8 31  1  0  0  0  0
  8 32  1  0  0  0  0
  8 33  1  0  0  0  0
  9 10  2  0  0  0  0
  9 11  2  0  0  0  0
  9 12  1  0  0  0  0
 12 13  1  0  0  0  0
 12 34  1  0  0  0  0
 13 14  1  0  0  0  0
 14 15  2  0  0  0  0
 14 19  1  0  0  0  0
 15 16  1  0  0  0  0
 16 17  2  0  0  0  0
 16 35  1  0  0  0  0
 17 18  1  0  0  0  0
 17 36  1  0  0  0  0
 18 13  2  0  0  0  0
 18 37  1  0  0  0  0
 19 20  1  0  0  0  0
 19 38  1  0  0  0  0
 20 21  2  0  0  0  0
 21 22  1  0  0  0  0
 21 39  1  0  0  0  0
 22 23  2  0  0  0  0
 22 40  1  0  0  0  0
 23 24  1  0  0  0  0
 23 26  1  0  0  0  0
 24 25  2  0  0  0  0
 24 41  1  0  0  0  0
 25 20  1  0  0  0  0
 25 42  1  0  0  0  0
 26 43  1  0  0  0  0
M  END
>  <Mol_ID>
93

>  <Formula>
C18H17N3O4S

>  <MolWeight>
371.41028

>  <Cat>
S1165

>  <Name>
ABT-751 (E7010)

>  <Synonyms>
N/A

>  <Target>
Microtubule Associated

>  <Form>
free base

>  <CAS>
141430-65-1

>  <URL>
http://selleckchem.com/products/ABT-751.html

$$$$
