ABT-888(Veliparib).cdx
 OpenBabel08302520013D

 34 36  0  0  0  0  0  0  0  0999 V2000
    2.1684    0.7566   -0.0072 C   0  0  0  0  0  0  0  0  0  0  0  0
    2.2010   -0.6408    0.0021 C   0  0  0  0  0  0  0  0  0  0  0  0
    1.0215   -1.3946    0.0116 C   0  0  0  0  0  0  0  0  0  0  0  0
   -0.1821   -0.6849    0.0011 C   0  0  0  0  0  0  0  0  0  0  0  0
   -0.2493    0.7057   -0.0137 C   0  0  0  0  0  0  0  0  0  0  0  0
    0.9464    1.4506   -0.0125 C   0  0  0  0  0  0  0  0  0  0  0  0
    0.9444    2.9320   -0.0127 C   0  0  0  0  0  0  0  0  0  0  0  0
   -0.2682    3.5586   -0.0066 N   0  0  0  0  0  0  0  0  0  0  0  0
    1.9883    3.5754   -0.0137 O   0  0  0  0  0  0  0  0  0  0  0  0
   -1.4919   -1.0894    0.0020 N   0  0  0  0  0  0  0  0  0  0  0  0
   -2.2968    0.0250   -0.0133 C   0  0  0  0  0  0  0  0  0  0  0  0
   -1.5677    1.1238   -0.0249 N   0  0  0  0  0  0  0  0  0  0  0  0
   -3.7987   -0.0587    0.0042 C   0  0  2  0  0  0  0  0  0  0  0  0
   -4.2635   -1.4662    0.0583 N   0  0  0  0  0  0  0  0  0  0  0  0
   -5.4965   -1.5663   -0.7371 C   0  0  0  0  0  0  0  0  0  0  0  0
   -5.7446   -0.2081   -1.3692 C   0  0  0  0  0  0  0  0  0  0  0  0
   -4.3901    0.4659   -1.3058 C   0  0  0  0  0  0  0  0  0  0  0  0
   -4.3290    0.7239    1.2199 C   0  0  0  0  0  0  0  0  0  0  0  0
    3.1035    1.3142   -0.0100 H   0  0  0  0  0  0  0  0  0  0  0  0
    3.1624   -1.1504    0.0052 H   0  0  0  0  0  0  0  0  0  0  0  0
    1.0498   -2.4797    0.0230 H   0  0  0  0  0  0  0  0  0  0  0  0
   -0.3036    4.5667   -0.0075 H   0  0  0  0  0  0  0  0  0  0  0  0
   -1.1333    3.0217   -0.0114 H   0  0  0  0  0  0  0  0  0  0  0  0
   -1.8432   -2.0373    0.0147 H   0  0  0  0  0  0  0  0  0  0  0  0
   -4.4588   -1.7260    1.0249 H   0  0  0  0  0  0  0  0  0  0  0  0
   -5.3560   -2.3281   -1.5111 H   0  0  0  0  0  0  0  0  0  0  0  0
   -6.3457   -1.8722   -0.1169 H   0  0  0  0  0  0  0  0  0  0  0  0
   -6.1255   -0.2818   -2.3920 H   0  0  0  0  0  0  0  0  0  0  0  0
   -6.4755    0.3573   -0.7787 H   0  0  0  0  0  0  0  0  0  0  0  0
   -4.4753    1.5576   -1.3366 H   0  0  0  0  0  0  0  0  0  0  0  0
   -3.7892    0.1556   -2.1716 H   0  0  0  0  0  0  0  0  0  0  0  0
   -3.9207    0.3261    2.1568 H   0  0  0  0  0  0  0  0  0  0  0  0
   -4.0392    1.7803    1.1624 H   0  0  0  0  0  0  0  0  0  0  0  0
   -5.4209    0.6887    1.2948 H   0  0  0  0  0  0  0  0  0  0  0  0
  1  2  2  0  0  0  0
  1 19  1  0  0  0  0
  2  3  1  0  0  0  0
  2 20  1  0  0  0  0
  3  4  2  0  0  0  0
  3 21  1  0  0  0  0
  4  5  1  0  0  0  0
  4 10  1  0  0  0  0
  5  6  2  0  0  0  0
  6  1  1  0  0  0  0
  6  7  1  0  0  0  0
  7  8  1  0  0  0  0
  7  9  2  0  0  0  0
  8 22  1  0  0  0  0
  8 23  1  0  0  0  0
 10 11  1  0  0  0  0
 10 24  1  0  0  0  0
 11 12  2  0  0  0  0
 12  5  1  0  0  0  0
 13 14  1  0  0  0  0
 13 18  1  1  0  0  0
 13 11  1  0  0  0  0
 14 15  1  0  0  0  0
 14 25  1  0  0  0  0
 15 16  1  0  0  0  0
 15 26  1  0  0  0  0
 15 27  1  0  0  0  0
 16 17  1  0  0  0  0
 16 28  1  0  0  0  0
 16 29  1  0  0  0  0
 17 13  1  0  0  0  0
 17 30  1  0  0  0  0
 17 31  1  0  0  0  0
 18 32  1  0  0  0  0
 18 33  1  0  0  0  0
 18 34  1  0  0  0  0
M  END
>  <Mol_ID>
3

>  <Formula>
C13H16N4O

>  <MolWeight>
244.29234

>  <Cat>
S1004

>  <Name>
Veliparib (ABT-888)

>  <Synonyms>
NSC 737664

>  <Target>
Apoptosis related,Autophagy,PARP

>  <Form>
free base

>  <CAS>
912444-00-9

>  <URL>
http://selleckchem.com/products/ABT-888.html

$$$$
