ABTL-0812
 OpenBabel08302521263D

 53 52  0  0  0  0  0  0  0  0999 V2000
   13.4809    1.2499   -2.0937 O   0  0  0  0  0  0  0  0  0  0  0  0
   14.4818    0.4521   -4.3609 O   0  0  0  0  0  0  0  0  0  0  0  0
   14.3494   -1.7295   -3.7884 O   0  0  0  0  0  0  0  0  0  0  0  0
   11.0718   -2.1522   -0.5919 C   0  0  0  0  0  0  0  0  0  0  0  0
    9.6123   -2.3171   -1.0196 C   0  0  0  0  0  0  0  0  0  0  0  0
   11.8163   -1.2090   -1.5455 C   0  0  0  0  0  0  0  0  0  0  0  0
    8.8613   -3.2346   -0.0615 C   0  0  0  0  0  0  0  0  0  0  0  0
   13.2749   -0.9990   -1.1228 C   0  0  0  0  0  0  0  0  0  0  0  0
    7.4091   -3.4682   -0.4875 C   0  0  0  0  0  0  0  0  0  0  0  0
   14.0810   -0.0506   -2.0355 C   0  0  3  0  0  0  0  0  0  0  0  0
   10.5513   -9.0935   -0.4353 C   0  0  0  0  0  0  0  0  0  0  0  0
   12.0551   -9.2603   -0.6520 C   0  0  0  0  0  0  0  0  0  0  0  0
    7.3164   -4.0680   -1.8685 C   0  0  0  0  0  0  0  0  0  0  0  0
    9.8244   -8.8148   -1.7575 C   0  0  0  0  0  0  0  0  0  0  0  0
   12.7896   -9.5349    0.6602 C   0  0  0  0  0  0  0  0  0  0  0  0
    7.8526   -5.2476   -2.1945 C   0  0  0  0  0  0  0  0  0  0  0  0
   14.3139   -0.5660   -3.4596 C   0  0  0  0  0  0  0  0  0  0  0  0
    8.4789   -6.1758   -1.2109 C   0  0  0  0  0  0  0  0  0  0  0  0
    8.3588   -8.6433   -1.5103 C   0  0  0  0  0  0  0  0  0  0  0  0
    7.7634   -7.4773   -1.2456 C   0  0  0  0  0  0  0  0  0  0  0  0
   14.2847   -9.7145    0.4400 C   0  0  0  0  0  0  0  0  0  0  0  0
   12.6426    1.1514   -2.5846 H   0  0  0  0  0  0  0  0  0  0  0  0
   14.4167    1.3364   -3.9358 H   0  0  0  0  0  0  0  0  0  0  0  0
   11.5700   -3.1307   -0.5722 H   0  0  0  0  0  0  0  0  0  0  0  0
   11.1011   -1.7609    0.4314 H   0  0  0  0  0  0  0  0  0  0  0  0
    9.1077   -1.3450   -1.0450 H   0  0  0  0  0  0  0  0  0  0  0  0
    9.5811   -2.7234   -2.0381 H   0  0  0  0  0  0  0  0  0  0  0  0
   11.2972   -0.2444   -1.5549 H   0  0  0  0  0  0  0  0  0  0  0  0
   11.7711   -1.6147   -2.5610 H   0  0  0  0  0  0  0  0  0  0  0  0
    9.4226   -4.1718   -0.0007 H   0  0  0  0  0  0  0  0  0  0  0  0
    8.8738   -2.8371    0.9591 H   0  0  0  0  0  0  0  0  0  0  0  0
   13.7836   -1.9684   -1.0450 H   0  0  0  0  0  0  0  0  0  0  0  0
   13.2638   -0.5654   -0.1144 H   0  0  0  0  0  0  0  0  0  0  0  0
    6.9088   -4.1313    0.2398 H   0  0  0  0  0  0  0  0  0  0  0  0
    6.8470   -2.5305   -0.4759 H   0  0  0  0  0  0  0  0  0  0  0  0
   15.0729    0.0756   -1.5946 H   0  0  0  0  0  0  0  0  0  0  0  0
   10.3749   -8.2673    0.2652 H   0  0  0  0  0  0  0  0  0  0  0  0
   10.1362   -9.9977    0.0283 H   0  0  0  0  0  0  0  0  0  0  0  0
   12.2274  -10.0846   -1.3548 H   0  0  0  0  0  0  0  0  0  0  0  0
   12.4605   -8.3513   -1.1134 H   0  0  0  0  0  0  0  0  0  0  0  0
    6.8671   -3.4567   -2.6570 H   0  0  0  0  0  0  0  0  0  0  0  0
    9.9694   -9.6198   -2.4774 H   0  0  0  0  0  0  0  0  0  0  0  0
   10.2654   -7.9259   -2.2286 H   0  0  0  0  0  0  0  0  0  0  0  0
   12.6302   -8.7027    1.3551 H   0  0  0  0  0  0  0  0  0  0  0  0
   12.3845  -10.4358    1.1356 H   0  0  0  0  0  0  0  0  0  0  0  0
    7.8495   -5.5712   -3.2338 H   0  0  0  0  0  0  0  0  0  0  0  0
    9.5514   -6.2289   -1.4232 H   0  0  0  0  0  0  0  0  0  0  0  0
    8.4038   -5.8479   -0.1714 H   0  0  0  0  0  0  0  0  0  0  0  0
    7.7442   -9.5448   -1.4899 H   0  0  0  0  0  0  0  0  0  0  0  0
    6.7063   -7.4435   -1.0121 H   0  0  0  0  0  0  0  0  0  0  0  0
   14.7260   -8.8141    0.0006 H   0  0  0  0  0  0  0  0  0  0  0  0
   14.7862   -9.9059    1.3931 H   0  0  0  0  0  0  0  0  0  0  0  0
   14.4913  -10.5578   -0.2264 H   0  0  0  0  0  0  0  0  0  0  0  0
  1 10  1  0  0  0  0
  1 22  1  0  0  0  0
  2 17  1  0  0  0  0
  2 23  1  0  0  0  0
  3 17  2  0  0  0  0
  4  5  1  0  0  0  0
  4  6  1  0  0  0  0
  4 24  1  0  0  0  0
  4 25  1  0  0  0  0
  5  7  1  0  0  0  0
  5 26  1  0  0  0  0
  5 27  1  0  0  0  0
  6  8  1  0  0  0  0
  6 28  1  0  0  0  0
  6 29  1  0  0  0  0
  7  9  1  0  0  0  0
  7 30  1  0  0  0  0
  7 31  1  0  0  0  0
  8 10  1  0  0  0  0
  8 32  1  0  0  0  0
  8 33  1  0  0  0  0
  9 13  1  0  0  0  0
  9 34  1  0  0  0  0
  9 35  1  0  0  0  0
 10 17  1  0  0  0  0
 10 36  1  0  0  0  0
 11 12  1  0  0  0  0
 11 14  1  0  0  0  0
 11 37  1  0  0  0  0
 11 38  1  0  0  0  0
 12 15  1  0  0  0  0
 12 39  1  0  0  0  0
 12 40  1  0  0  0  0
 13 16  2  0  0  0  0
 13 41  1  0  0  0  0
 14 19  1  0  0  0  0
 14 42  1  0  0  0  0
 14 43  1  0  0  0  0
 15 21  1  0  0  0  0
 15 44  1  0  0  0  0
 15 45  1  0  0  0  0
 16 18  1  0  0  0  0
 16 46  1  0  0  0  0
 18 20  1  0  0  0  0
 18 47  1  0  0  0  0
 18 48  1  0  0  0  0
 19 20  2  0  0  0  0
 19 49  1  0  0  0  0
 20 50  1  0  0  0  0
 21 51  1  0  0  0  0
 21 52  1  0  0  0  0
 21 53  1  0  0  0  0
M  END
>  <Mol_ID>
5242

>  <Formula>
C18H32O3

>  <MolWeight>
296.44488

>  <Cat>
S9611

>  <Name>
ABTL-0812

>  <Synonyms>
¦Á-Hydroxylinoleic acid

>  <Target>
Akt,Autophagy,mTOR,ROS

>  <Form>
free base

>  <CAS>
57818-44-7

>  <URL>
http://www.selleckchem.com/products/abtl-0812.html

$$$$
