Ac-¦Â-Ala-OH
 OpenBabel08302521363D

 18 17  0  0  0  0  0  0  0  0999 V2000
    0.9421    0.0575    0.0111 C   0  0  0  0  0  0  0  0  0  0  0  0
    0.4334   -1.3738   -0.0421 C   0  0  0  0  0  0  0  0  0  0  0  0
    0.3419    0.7772    1.1242 N   0  0  0  0  0  0  0  0  0  0  0  0
    1.0446   -2.1106   -1.2052 C   0  0  0  0  0  0  0  0  0  0  0  0
    0.1581    2.1420    1.0720 C   0  0  0  0  0  0  0  0  0  0  0  0
    0.2575   -3.1057   -1.6751 O   0  0  0  0  0  0  0  0  0  0  0  0
    2.1549   -1.8887   -1.6597 O   0  0  0  0  0  0  0  0  0  0  0  0
   -0.3970    2.7373    2.3386 C   0  0  0  0  0  0  0  0  0  0  0  0
    0.3984    2.8275    0.0841 O   0  0  0  0  0  0  0  0  0  0  0  0
    0.7168    0.5776   -0.9268 H   0  0  0  0  0  0  0  0  0  0  0  0
    2.0277    0.0907    0.1527 H   0  0  0  0  0  0  0  0  0  0  0  0
    0.6823   -1.9160    0.8769 H   0  0  0  0  0  0  0  0  0  0  0  0
   -0.6579   -1.3623   -0.1458 H   0  0  0  0  0  0  0  0  0  0  0  0
    0.3957    0.3550    2.0431 H   0  0  0  0  0  0  0  0  0  0  0  0
   -0.6036   -3.1927   -1.2259 H   0  0  0  0  0  0  0  0  0  0  0  0
    0.3268    3.4434    2.7527 H   0  0  0  0  0  0  0  0  0  0  0  0
   -1.3303    3.2570    2.1045 H   0  0  0  0  0  0  0  0  0  0  0  0
   -0.6104    1.9709    3.0888 H   0  0  0  0  0  0  0  0  0  0  0  0
  1  2  1  0  0  0  0
  1  3  1  0  0  0  0
  1 10  1  0  0  0  0
  1 11  1  0  0  0  0
  2  4  1  0  0  0  0
  2 12  1  0  0  0  0
  2 13  1  0  0  0  0
  3  5  1  0  0  0  0
  3 14  1  0  0  0  0
  4  6  1  0  0  0  0
  4  7  2  0  0  0  0
  5  8  1  0  0  0  0
  5  9  2  0  0  0  0
  6 15  1  0  0  0  0
  8 16  1  0  0  0  0
  8 17  1  0  0  0  0
  8 18  1  0  0  0  0
M  END
>  <Mol_ID>
7059

>  <Formula>
C5H9NO3

>  <MolWeight>
131.12986

>  <Cat>
E4071

>  <Name>
Ac-¦Â-Ala-OH

>  <Synonyms>
N-Acetyl-¦Â-alanine

>  <Target>
Others

>  <Form>
Free base

>  <CAS>
3025-95-4

>  <URL>
https://www.selleckchem.com/products/ac-beta-ala-oh.html

$$$$
