Ac-Arg-OH
 OpenBabel08302520393D

 31 30  0  0  0  0  0  0  0  0999 V2000
    0.9114   -0.0321   -0.0935 C   0  0  2  0  0  0  0  0  0  0  0  0
    0.4665    0.8784    1.0633 C   0  0  0  0  0  0  0  0  0  0  0  0
    2.3644   -0.0750   -0.2260 N   0  0  0  0  0  0  0  0  0  0  0  0
    0.2687    0.3335   -1.4376 C   0  0  0  0  0  0  0  0  0  0  0  0
    1.0187    2.3138    1.0699 C   0  0  0  0  0  0  0  0  0  0  0  0
    3.1489   -0.7632    0.6695 C   0  0  0  0  0  0  0  0  0  0  0  0
   -1.0813    0.2659   -1.4407 O   0  0  0  0  0  0  0  0  0  0  0  0
    0.9132    0.6408   -2.4322 O   0  0  0  0  0  0  0  0  0  0  0  0
    0.6258    3.2126   -0.1031 C   0  0  0  0  0  0  0  0  0  0  0  0
    4.6201   -0.7562    0.3600 C   0  0  0  0  0  0  0  0  0  0  0  0
    2.6903   -1.3421    1.6514 O   0  0  0  0  0  0  0  0  0  0  0  0
   -0.8197    3.3728   -0.1848 N   0  0  0  0  0  0  0  0  0  0  0  0
   -1.3595    4.1209   -1.1767 C   0  0  0  0  0  0  0  0  0  0  0  0
   -2.7047    4.0334   -1.1623 N   0  0  0  0  0  0  0  0  0  0  0  0
   -0.7000    4.8193   -2.0208 N   0  0  0  0  0  0  0  0  0  0  0  0
    0.5871   -1.0595    0.1200 H   0  0  0  0  0  0  0  0  0  0  0  0
   -0.6269    0.9030    1.1251 H   0  0  0  0  0  0  0  0  0  0  0  0
    0.7917    0.4134    2.0041 H   0  0  0  0  0  0  0  0  0  0  0  0
    2.7678    0.3144   -1.0717 H   0  0  0  0  0  0  0  0  0  0  0  0
    0.6819    2.7900    1.9995 H   0  0  0  0  0  0  0  0  0  0  0  0
    2.1130    2.2778    1.1283 H   0  0  0  0  0  0  0  0  0  0  0  0
   -1.4822   -0.0892   -0.6250 H   0  0  0  0  0  0  0  0  0  0  0  0
    1.0840    4.1978    0.0548 H   0  0  0  0  0  0  0  0  0  0  0  0
    1.0303    2.8257   -1.0417 H   0  0  0  0  0  0  0  0  0  0  0  0
    5.1534   -0.2752    1.1825 H   0  0  0  0  0  0  0  0  0  0  0  0
    4.9648   -1.7897    0.2494 H   0  0  0  0  0  0  0  0  0  0  0  0
    4.8356   -0.2169   -0.5657 H   0  0  0  0  0  0  0  0  0  0  0  0
   -1.3354    2.5090   -0.0988 H   0  0  0  0  0  0  0  0  0  0  0  0
   -3.1711    4.7340   -1.7231 H   0  0  0  0  0  0  0  0  0  0  0  0
   -3.0753    4.0300   -0.2191 H   0  0  0  0  0  0  0  0  0  0  0  0
   -1.3385    5.2476   -2.6912 H   0  0  0  0  0  0  0  0  0  0  0  0
  1  2  1  0  0  0  0
  1  3  1  0  0  0  0
  1  4  1  0  0  0  0
  1 16  1  1  0  0  0
  2  5  1  0  0  0  0
  2 17  1  0  0  0  0
  2 18  1  0  0  0  0
  3  6  1  0  0  0  0
  3 19  1  0  0  0  0
  4  7  1  0  0  0  0
  4  8  2  0  0  0  0
  5  9  1  0  0  0  0
  5 20  1  0  0  0  0
  5 21  1  0  0  0  0
  6 10  1  0  0  0  0
  6 11  2  0  0  0  0
  7 22  1  0  0  0  0
  9 12  1  0  0  0  0
  9 23  1  0  0  0  0
  9 24  1  0  0  0  0
 10 25  1  0  0  0  0
 10 26  1  0  0  0  0
 10 27  1  0  0  0  0
 12 13  1  0  0  0  0
 12 28  1  0  0  0  0
 13 14  1  0  0  0  0
 13 15  2  0  0  0  0
 14 29  1  0  0  0  0
 14 30  1  0  0  0  0
 15 31  1  0  0  0  0
M  END
>  <Mol_ID>
3677

>  <Formula>
C8H16N4O3

>  <MolWeight>
216.23764

>  <Cat>
S6354

>  <Name>
Ac-Arg-OH

>  <Synonyms>
N-Acetyl-L-arginine

>  <Target>
Others

>  <Form>
free base

>  <CAS>
155-84-0

>  <URL>
http://www.selleck.cn/products/ac-arg-oh.html

$$$$
