Ac-DL-Trp-OH
 OpenBabel08302521363D

 32 33  0  0  0  0  0  0  0  0999 V2000
    0.9873    0.1116   -0.2208 C   0  0  0  0  0  0  0  0  0  0  0  0
    0.3324    1.2607    0.5627 C   0  0  3  0  0  0  0  0  0  0  0  0
   -1.1274    1.1373    0.7164 N   0  0  0  0  0  0  0  0  0  0  0  0
    1.1180    1.4632    1.8683 C   0  0  0  0  0  0  0  0  0  0  0  0
   -1.7580    0.0631    1.2786 C   0  0  0  0  0  0  0  0  0  0  0  0
    0.7342    0.6986    2.9132 O   0  0  0  0  0  0  0  0  0  0  0  0
    2.1036    2.1832    1.9395 O   0  0  0  0  0  0  0  0  0  0  0  0
   -3.2541    0.0442    1.1370 C   0  0  0  0  0  0  0  0  0  0  0  0
   -1.1352   -0.7906    1.9056 O   0  0  0  0  0  0  0  0  0  0  0  0
    0.6563   -1.1931   -2.4641 C   0  0  0  0  0  0  0  0  0  0  0  0
    0.6109    0.0066   -1.6742 C   0  0  0  0  0  0  0  0  0  0  0  0
    0.4542   -0.8264   -3.7945 C   0  0  0  0  0  0  0  0  0  0  0  0
    0.9130   -2.5510   -2.1786 C   0  0  0  0  0  0  0  0  0  0  0  0
    0.2807    1.0343   -2.5395 C   0  0  0  0  0  0  0  0  0  0  0  0
    0.1742    0.5183   -3.8037 N   0  0  0  0  0  0  0  0  0  0  0  0
    0.5613   -1.7311   -4.8580 C   0  0  0  0  0  0  0  0  0  0  0  0
    1.0101   -3.4728   -3.2291 C   0  0  0  0  0  0  0  0  0  0  0  0
    0.8584   -3.0612   -4.5505 C   0  0  0  0  0  0  0  0  0  0  0  0
    0.7874   -0.8449    0.2755 H   0  0  0  0  0  0  0  0  0  0  0  0
    2.0791    0.2352   -0.1894 H   0  0  0  0  0  0  0  0  0  0  0  0
    0.4603    2.2045    0.0164 H   0  0  0  0  0  0  0  0  0  0  0  0
   -1.6853    1.7798    0.1660 H   0  0  0  0  0  0  0  0  0  0  0  0
    0.0332    0.0398    2.6761 H   0  0  0  0  0  0  0  0  0  0  0  0
   -3.5425   -0.7803    0.4805 H   0  0  0  0  0  0  0  0  0  0  0  0
   -3.7023   -0.0941    2.1250 H   0  0  0  0  0  0  0  0  0  0  0  0
   -3.6318    0.9809    0.7184 H   0  0  0  0  0  0  0  0  0  0  0  0
    1.0501   -2.8854   -1.1542 H   0  0  0  0  0  0  0  0  0  0  0  0
    0.1578    2.0964   -2.3810 H   0  0  0  0  0  0  0  0  0  0  0  0
   -0.0249    1.0529   -4.6379 H   0  0  0  0  0  0  0  0  0  0  0  0
    0.4421   -1.4133   -5.8887 H   0  0  0  0  0  0  0  0  0  0  0  0
    1.2246   -4.5158   -3.0097 H   0  0  0  0  0  0  0  0  0  0  0  0
    0.9741   -3.7839   -5.3553 H   0  0  0  0  0  0  0  0  0  0  0  0
  1  2  1  0  0  0  0
  1 11  1  0  0  0  0
  1 19  1  0  0  0  0
  1 20  1  0  0  0  0
  2  3  1  0  0  0  0
  2  4  1  0  0  0  0
  2 21  1  0  0  0  0
  3  5  1  0  0  0  0
  3 22  1  0  0  0  0
  4  6  1  0  0  0  0
  4  7  2  0  0  0  0
  5  8  1  0  0  0  0
  5  9  2  0  0  0  0
  6 23  1  0  0  0  0
  8 24  1  0  0  0  0
  8 25  1  0  0  0  0
  8 26  1  0  0  0  0
 10 11  1  0  0  0  0
 10 12  2  0  0  0  0
 10 13  1  0  0  0  0
 11 14  2  0  0  0  0
 12 15  1  0  0  0  0
 12 16  1  0  0  0  0
 13 17  2  0  0  0  0
 13 27  1  0  0  0  0
 14 15  1  0  0  0  0
 14 28  1  0  0  0  0
 15 29  1  0  0  0  0
 16 18  2  0  0  0  0
 16 30  1  0  0  0  0
 17 18  1  0  0  0  0
 17 31  1  0  0  0  0
 18 32  1  0  0  0  0
M  END
>  <Mol_ID>
7211

>  <Formula>
C13H14N2O3

>  <MolWeight>
246.26186

>  <Cat>
E4215

>  <Name>
Ac-DL-Trp-OH

>  <Synonyms>
N-Acetyl-DL-tryptophan

>  <Target>
Others

>  <Form>
free base

>  <CAS>
87-32-1

>  <URL>
https://www.selleckchem.com/products/ac-dl-trp-oh.html

$$$$
