acalisib (GS-9820)
 OpenBabel08302520383D

 46 50  0  0  0  0  0  0  0  0999 V2000
    2.4782    2.8790   -1.6451 N   0  0  0  0  0  0  0  0  0  0  0  0
    3.6158    2.4962   -1.1355 C   0  0  0  0  0  0  0  0  0  0  0  0
    4.8362    2.7732   -1.7529 N   0  0  0  0  0  0  0  0  0  0  0  0
    4.9237    3.5548   -2.9087 C   0  0  0  0  0  0  0  0  0  0  0  0
    3.6513    4.0615   -3.4402 C   0  0  0  0  0  0  0  0  0  0  0  0
    3.6266    4.8871   -4.5710 C   0  0  0  0  0  0  0  0  0  0  0  0
    2.4042    5.3345   -5.0475 C   0  0  0  0  0  0  0  0  0  0  0  0
    1.2183    4.9655   -4.4240 C   0  0  0  0  0  0  0  0  0  0  0  0
    1.2583    4.1363   -3.2979 C   0  0  0  0  0  0  0  0  0  0  0  0
    2.4790    3.6782   -2.7924 C   0  0  0  0  0  0  0  0  0  0  0  0
    5.9619    3.8291   -3.5093 O   0  0  0  0  0  0  0  0  0  0  0  0
    3.6028    1.6262    0.1607 C   0  0  2  0  0  0  0  0  0  0  0  0
    3.4644    0.1462   -0.2109 C   0  0  0  0  0  0  0  0  0  0  0  0
    2.5163    2.0244    1.0920 N   0  0  0  0  0  0  0  0  0  0  0  0
    1.0411    3.0004    3.7183 N   0  0  0  0  0  0  0  0  0  0  0  0
    0.8647    3.7711    4.8343 C   0  0  0  0  0  0  0  0  0  0  0  0
    1.7985    4.6895    4.9455 N   0  0  0  0  0  0  0  0  0  0  0  0
    2.5659    4.5415    3.8227 C   0  0  0  0  0  0  0  0  0  0  0  0
    3.5864    5.3450    3.4858 N   0  0  0  0  0  0  0  0  0  0  0  0
    4.1156    5.0220    2.3053 C   0  0  0  0  0  0  0  0  0  0  0  0
    3.8037    3.9813    1.5102 N   0  0  0  0  0  0  0  0  0  0  0  0
    2.8086    3.1410    1.8741 C   0  0  0  0  0  0  0  0  0  0  0  0
    2.1394    3.4751    3.0491 C   0  0  0  0  0  0  0  0  0  0  0  0
    6.0590    2.2256   -1.2900 C   0  0  0  0  0  0  0  0  0  0  0  0
    6.8456    2.9446   -0.3858 C   0  0  0  0  0  0  0  0  0  0  0  0
    8.1006    2.4572   -0.0177 C   0  0  0  0  0  0  0  0  0  0  0  0
    8.5710    1.2578   -0.5548 C   0  0  0  0  0  0  0  0  0  0  0  0
    7.7903    0.5432   -1.4634 C   0  0  0  0  0  0  0  0  0  0  0  0
    6.5367    1.0287   -1.8377 C   0  0  0  0  0  0  0  0  0  0  0  0
    2.3657    6.1333   -6.1210 F   0  0  0  0  0  0  0  0  0  0  0  0
    4.5443    5.1876   -5.0688 H   0  0  0  0  0  0  0  0  0  0  0  0
    0.2709    5.3245   -4.8154 H   0  0  0  0  0  0  0  0  0  0  0  0
    0.3333    3.8514   -2.8033 H   0  0  0  0  0  0  0  0  0  0  0  0
    4.5592    1.7235    0.6840 H   0  0  0  0  0  0  0  0  0  0  0  0
    4.1267   -0.4541    0.4251 H   0  0  0  0  0  0  0  0  0  0  0  0
    2.4480   -0.2326   -0.0633 H   0  0  0  0  0  0  0  0  0  0  0  0
    3.7486   -0.0514   -1.2494 H   0  0  0  0  0  0  0  0  0  0  0  0
    2.0997    1.2662    1.6139 H   0  0  0  0  0  0  0  0  0  0  0  0
    0.4169    2.2701    3.4081 H   0  0  0  0  0  0  0  0  0  0  0  0
    0.0359    3.6410    5.5206 H   0  0  0  0  0  0  0  0  0  0  0  0
    4.8927    5.6834    1.9332 H   0  0  0  0  0  0  0  0  0  0  0  0
    6.4994    3.8955    0.0099 H   0  0  0  0  0  0  0  0  0  0  0  0
    8.7237    3.0250    0.6689 H   0  0  0  0  0  0  0  0  0  0  0  0
    9.5581    0.8916   -0.2821 H   0  0  0  0  0  0  0  0  0  0  0  0
    8.1716   -0.3762   -1.9012 H   0  0  0  0  0  0  0  0  0  0  0  0
    5.9565    0.4891   -2.5817 H   0  0  0  0  0  0  0  0  0  0  0  0
  1  2  2  0  0  0  0
  1 10  1  0  0  0  0
  2  3  1  0  0  0  0
  3  4  1  0  0  0  0
  3 24  1  0  0  0  0
  4  5  1  0  0  0  0
  4 11  2  0  0  0  0
  5  6  1  0  0  0  0
  5 10  2  0  0  0  0
  6  7  2  0  0  0  0
  6 31  1  0  0  0  0
  7  8  1  0  0  0  0
  7 30  1  0  0  0  0
  8  9  2  0  0  0  0
  8 32  1  0  0  0  0
  9 10  1  0  0  0  0
  9 33  1  0  0  0  0
 12 14  1  0  0  0  0
 12 34  1  1  0  0  0
 12 13  1  0  0  0  0
 12  2  1  0  0  0  0
 13 35  1  0  0  0  0
 13 36  1  0  0  0  0
 13 37  1  0  0  0  0
 14 22  1  0  0  0  0
 14 38  1  0  0  0  0
 15 16  1  0  0  0  0
 15 23  1  0  0  0  0
 15 39  1  0  0  0  0
 16 17  2  0  0  0  0
 16 40  1  0  0  0  0
 17 18  1  0  0  0  0
 18 19  1  0  0  0  0
 18 23  2  0  0  0  0
 19 20  2  0  0  0  0
 20 21  1  0  0  0  0
 20 41  1  0  0  0  0
 21 22  2  0  0  0  0
 22 23  1  0  0  0  0
 24 25  2  0  0  0  0
 24 29  1  0  0  0  0
 25 26  1  0  0  0  0
 25 42  1  0  0  0  0
 26 27  2  0  0  0  0
 26 43  1  0  0  0  0
 27 28  1  0  0  0  0
 27 44  1  0  0  0  0
 28 29  2  0  0  0  0
 28 45  1  0  0  0  0
 29 46  1  0  0  0  0
M  END
>  <Mol_ID>
3443

>  <Formula>
C21H16FN7O

>  <MolWeight>
401.3964432

>  <Cat>
S5818

>  <Name>
acalisib (GS-9820)

>  <Synonyms>
CAL-120

>  <Target>
PI3K

>  <Form>
Free Base

>  <CAS>
870281-34-8

>  <URL>
http://www.selleckchem.com/products/acalisib-gs-9820.html

$$$$
