Acalabrutinib.cdx
 OpenBabel08302520413D

 58 62  0  0  0  0  0  0  0  0999 V2000
   -0.6629    1.3700   -0.3625 C   0  0  0  0  0  0  0  0  0  0  0  0
   -1.4082    0.2040   -0.4928 C   0  0  0  0  0  0  0  0  0  0  0  0
   -0.9915   -0.9855    0.1036 C   0  0  0  0  0  0  0  0  0  0  0  0
    0.1507   -0.9604    0.9209 C   0  0  0  0  0  0  0  0  0  0  0  0
    0.8573    0.2352    1.1328 C   0  0  0  0  0  0  0  0  0  0  0  0
    0.4366    1.4084    0.4973 C   0  0  0  0  0  0  0  0  0  0  0  0
    0.9975    2.7610    0.7467 C   0  0  0  0  0  0  0  0  0  0  0  0
    0.8914    3.6068   -0.1379 O   0  0  0  0  0  0  0  0  0  0  0  0
    1.5615    2.9742    1.9837 N   0  0  0  0  0  0  0  0  0  0  0  0
    2.1007    4.2077    2.3453 C   0  0  0  0  0  0  0  0  0  0  0  0
    3.2805    4.1344    2.9879 N   0  0  0  0  0  0  0  0  0  0  0  0
    3.9248    5.3037    3.1905 C   0  0  0  0  0  0  0  0  0  0  0  0
    3.4049    6.5455    2.8602 C   0  0  0  0  0  0  0  0  0  0  0  0
    2.1340    6.5985    2.3045 C   0  0  0  0  0  0  0  0  0  0  0  0
    1.4705    5.4080    2.0320 C   0  0  0  0  0  0  0  0  0  0  0  0
   -1.7741   -2.2024   -0.0300 C   0  0  0  0  0  0  0  0  0  0  0  0
   -2.5505   -2.6231   -1.0960 C   0  0  0  0  0  0  0  0  0  0  0  0
   -3.1958   -3.7524   -0.6251 N   0  0  0  0  0  0  0  0  0  0  0  0
   -2.7124   -4.0311    0.6387 C   0  0  0  0  0  0  0  0  0  0  0  0
   -1.8491   -3.1038    1.0123 N   0  0  0  0  0  0  0  0  0  0  0  0
   -2.8387   -2.1963   -2.4555 C   0  0  0  0  0  0  0  0  0  0  0  0
   -3.7596   -2.8154   -3.1616 N   0  0  0  0  0  0  0  0  0  0  0  0
   -4.3862   -3.9178   -2.6327 C   0  0  0  0  0  0  0  0  0  0  0  0
   -4.1282   -4.4057   -1.4137 C   0  0  0  0  0  0  0  0  0  0  0  0
   -2.2251   -1.1926   -3.1352 N   0  0  0  0  0  0  0  0  0  0  0  0
   -3.2015   -5.1819    1.4517 C   0  0  2  0  0  0  0  0  0  0  0  0
   -3.2314   -4.8706    2.9516 C   0  0  0  0  0  0  0  0  0  0  0  0
   -3.3616   -6.2464    3.5980 C   0  0  0  0  0  0  0  0  0  0  0  0
   -2.7176   -7.2063    2.6033 C   0  0  0  0  0  0  0  0  0  0  0  0
   -2.4224   -6.4174    1.4199 N   0  0  0  0  0  0  0  0  0  0  0  0
   -1.8262   -7.0526    0.3469 C   0  0  0  0  0  0  0  0  0  0  0  0
   -1.6942   -8.2710    0.2916 O   0  0  0  0  0  0  0  0  0  0  0  0
   -1.2233   -6.2564   -0.6997 C   0  0  0  0  0  0  0  0  0  0  0  0
   -0.6454   -5.5741   -1.4987 C   0  0  0  0  0  0  0  0  0  0  0  0
    0.0648   -4.6495   -2.3826 C   0  0  0  0  0  0  0  0  0  0  0  0
   -0.9847    2.2699   -0.8833 H   0  0  0  0  0  0  0  0  0  0  0  0
   -2.3438    0.2621   -1.0401 H   0  0  0  0  0  0  0  0  0  0  0  0
    0.4754   -1.8681    1.4302 H   0  0  0  0  0  0  0  0  0  0  0  0
    1.7168    0.2190    1.7957 H   0  0  0  0  0  0  0  0  0  0  0  0
    1.9565    2.2012    2.4944 H   0  0  0  0  0  0  0  0  0  0  0  0
    4.9170    5.2107    3.6208 H   0  0  0  0  0  0  0  0  0  0  0  0
    3.9792    7.4491    3.0278 H   0  0  0  0  0  0  0  0  0  0  0  0
    1.6736    7.5505    2.0573 H   0  0  0  0  0  0  0  0  0  0  0  0
    0.4838    5.4254    1.5796 H   0  0  0  0  0  0  0  0  0  0  0  0
   -5.0977   -4.4143   -3.2871 H   0  0  0  0  0  0  0  0  0  0  0  0
   -4.6057   -5.2990   -1.0385 H   0  0  0  0  0  0  0  0  0  0  0  0
   -1.5110   -0.6027   -2.7427 H   0  0  0  0  0  0  0  0  0  0  0  0
   -2.7095   -0.8647   -3.9613 H   0  0  0  0  0  0  0  0  0  0  0  0
   -4.2207   -5.4511    1.1455 H   0  0  0  0  0  0  0  0  0  0  0  0
   -2.2909   -4.4101    3.2820 H   0  0  0  0  0  0  0  0  0  0  0  0
   -4.0477   -4.1973    3.2317 H   0  0  0  0  0  0  0  0  0  0  0  0
   -2.8725   -6.2857    4.5766 H   0  0  0  0  0  0  0  0  0  0  0  0
   -4.4164   -6.5036    3.7449 H   0  0  0  0  0  0  0  0  0  0  0  0
   -1.7938   -7.6525    2.9843 H   0  0  0  0  0  0  0  0  0  0  0  0
   -3.4103   -8.0135    2.3385 H   0  0  0  0  0  0  0  0  0  0  0  0
   -0.6046   -4.2530   -3.1508 H   0  0  0  0  0  0  0  0  0  0  0  0
    0.4590   -3.8052   -1.8093 H   0  0  0  0  0  0  0  0  0  0  0  0
    0.9032   -5.1456   -2.8768 H   0  0  0  0  0  0  0  0  0  0  0  0
  1  2  2  0  0  0  0
  1 36  1  0  0  0  0
  2  3  1  0  0  0  0
  2 37  1  0  0  0  0
  3  4  2  0  0  0  0
  3 16  1  0  0  0  0
  4  5  1  0  0  0  0
  4 38  1  0  0  0  0
  5  6  2  0  0  0  0
  5 39  1  0  0  0  0
  6  1  1  0  0  0  0
  6  7  1  0  0  0  0
  7  8  2  0  0  0  0
  7  9  1  0  0  0  0
  9 10  1  0  0  0  0
  9 40  1  0  0  0  0
 10 11  2  0  0  0  0
 11 12  1  0  0  0  0
 12 13  2  0  0  0  0
 12 41  1  0  0  0  0
 13 14  1  0  0  0  0
 13 42  1  0  0  0  0
 14 15  2  0  0  0  0
 14 43  1  0  0  0  0
 15 10  1  0  0  0  0
 15 44  1  0  0  0  0
 16 17  2  0  0  0  0
 17 21  1  0  0  0  0
 17 18  1  0  0  0  0
 18 19  1  0  0  0  0
 19 20  2  0  0  0  0
 20 16  1  0  0  0  0
 21 22  2  0  0  0  0
 21 25  1  0  0  0  0
 22 23  1  0  0  0  0
 23 24  2  0  0  0  0
 23 45  1  0  0  0  0
 24 18  1  0  0  0  0
 24 46  1  0  0  0  0
 25 47  1  0  0  0  0
 25 48  1  0  0  0  0
 26 19  1  0  0  0  0
 26 27  1  0  0  0  0
 26 49  1  6  0  0  0
 27 28  1  0  0  0  0
 27 50  1  0  0  0  0
 27 51  1  0  0  0  0
 28 29  1  0  0  0  0
 28 52  1  0  0  0  0
 28 53  1  0  0  0  0
 29 30  1  0  0  0  0
 29 54  1  0  0  0  0
 29 55  1  0  0  0  0
 30 26  1  0  0  0  0
 30 31  1  0  0  0  0
 31 32  2  0  0  0  0
 31 33  1  0  0  0  0
 33 34  3  0  0  0  0
 34 35  1  0  0  0  0
 35 56  1  0  0  0  0
 35 57  1  0  0  0  0
 35 58  1  0  0  0  0
M  END
>  <Mol_ID>
3925

>  <Formula>
C26H23N7O2

>  <MolWeight>
465.50652

>  <Cat>
S8116

>  <Name>
Acalabrutinib (ACP-196)

>  <Synonyms>
N/A

>  <Target>
BTK

>  <Form>
free base

>  <CAS>
1420477-60-6

>  <URL>
http://selleckchem.com/products/acalabrutinib.html

$$$$
