acebutolol hydrochloride.cdx
 OpenBabel08302522033D

 52 52  0  0  0  0  0  0  0  0999 V2000
    1.8317    0.0419   -0.2601 C   0  0  0  0  0  0  0  0  0  0  0  0
    0.8933   -0.9869   -0.5036 C   0  0  0  0  0  0  0  0  0  0  0  0
    1.3341    1.3417   -0.1081 C   0  0  0  0  0  0  0  0  0  0  0  0
    3.1612   -0.3069   -0.1480 O   0  0  0  0  0  0  0  0  0  0  0  0
   -0.4875   -0.7385   -0.3323 C   0  0  0  0  0  0  0  0  0  0  0  0
    1.3171   -2.2940   -1.1088 C   0  0  0  0  0  0  0  0  0  0  0  0
   -0.0568    1.5988   -0.1101 C   0  0  0  0  0  0  0  0  0  0  0  0
    4.1739    0.7134   -0.0960 C   0  0  0  0  0  0  0  0  0  0  0  0
   -0.9868    0.5532   -0.1561 C   0  0  0  0  0  0  0  0  0  0  0  0
    0.2688   -3.2101   -1.7059 C   0  0  0  0  0  0  0  0  0  0  0  0
    2.5086   -2.5985   -1.1939 O   0  0  0  0  0  0  0  0  0  0  0  0
    5.6132    0.1324   -0.3103 C   0  0  3  0  0  0  0  0  0  0  0  0
   -2.3678    0.8572   -0.0509 N   0  0  0  0  0  0  0  0  0  0  0  0
    6.3591   -0.3410    0.9720 C   0  0  0  0  0  0  0  0  0  0  0  0
    5.5757   -0.9243   -1.2778 O   0  0  0  0  0  0  0  0  0  0  0  0
   -3.4231   -0.0517   -0.0558 C   0  0  0  0  0  0  0  0  0  0  0  0
    7.6827   -0.9886    0.7873 N   0  0  0  0  0  0  0  0  0  0  0  0
   -4.8015    0.5557    0.1471 C   0  0  0  0  0  0  0  0  0  0  0  0
   -3.3184   -1.2678   -0.2023 O   0  0  0  0  0  0  0  0  0  0  0  0
    8.8053   -0.1885    0.2665 C   0  0  0  0  0  0  0  0  0  0  0  0
   -5.3417    1.3199   -1.0575 C   0  0  0  0  0  0  0  0  0  0  0  0
    9.2538    0.9775    1.1527 C   0  0  0  0  0  0  0  0  0  0  0  0
   10.0202   -1.1269    0.1054 C   0  0  0  0  0  0  0  0  0  0  0  0
   -5.3878    0.4835   -2.3284 C   0  0  0  0  0  0  0  0  0  0  0  0
    2.0010    2.1912    0.0015 H   0  0  0  0  0  0  0  0  0  0  0  0
   -1.1703   -1.5794   -0.3581 H   0  0  0  0  0  0  0  0  0  0  0  0
   -0.3935    2.6311   -0.0480 H   0  0  0  0  0  0  0  0  0  0  0  0
    3.9872    1.4032   -0.9270 H   0  0  0  0  0  0  0  0  0  0  0  0
    4.1147    1.2610    0.8514 H   0  0  0  0  0  0  0  0  0  0  0  0
    0.7228   -3.7810   -2.5229 H   0  0  0  0  0  0  0  0  0  0  0  0
   -0.0958   -3.9013   -0.9367 H   0  0  0  0  0  0  0  0  0  0  0  0
   -0.5597   -2.6567   -2.1502 H   0  0  0  0  0  0  0  0  0  0  0  0
    6.2186    0.9404   -0.7369 H   0  0  0  0  0  0  0  0  0  0  0  0
   -2.6157    1.8344    0.0506 H   0  0  0  0  0  0  0  0  0  0  0  0
    6.4467    0.4804    1.6914 H   0  0  0  0  0  0  0  0  0  0  0  0
    5.7370   -1.1045    1.4558 H   0  0  0  0  0  0  0  0  0  0  0  0
    4.7342   -1.4117   -1.1364 H   0  0  0  0  0  0  0  0  0  0  0  0
    7.5321   -1.7613    0.1320 H   0  0  0  0  0  0  0  0  0  0  0  0
   -5.4885   -0.2640    0.3987 H   0  0  0  0  0  0  0  0  0  0  0  0
   -4.7788    1.2100    1.0271 H   0  0  0  0  0  0  0  0  0  0  0  0
    8.5506    0.2002   -0.7266 H   0  0  0  0  0  0  0  0  0  0  0  0
   -6.3615    1.6556   -0.8269 H   0  0  0  0  0  0  0  0  0  0  0  0
   -4.7436    2.2194   -1.2370 H   0  0  0  0  0  0  0  0  0  0  0  0
    9.6292    0.6280    2.1232 H   0  0  0  0  0  0  0  0  0  0  0  0
   10.0778    1.5185    0.6690 H   0  0  0  0  0  0  0  0  0  0  0  0
    8.4516    1.6966    1.3248 H   0  0  0  0  0  0  0  0  0  0  0  0
    9.8162   -1.9294   -0.6097 H   0  0  0  0  0  0  0  0  0  0  0  0
   10.8977   -0.5777   -0.2559 H   0  0  0  0  0  0  0  0  0  0  0  0
   10.2974   -1.5877    1.0623 H   0  0  0  0  0  0  0  0  0  0  0  0
   -5.9369   -0.4506   -2.1711 H   0  0  0  0  0  0  0  0  0  0  0  0
   -5.8878    1.0393   -3.1283 H   0  0  0  0  0  0  0  0  0  0  0  0
   -4.3792    0.2376   -2.6750 H   0  0  0  0  0  0  0  0  0  0  0  0
  1  2  2  0  0  0  0
  1  3  1  0  0  0  0
  1  4  1  0  0  0  0
  2  5  1  0  0  0  0
  2  6  1  0  0  0  0
  3  7  2  0  0  0  0
  3 25  1  0  0  0  0
  4  8  1  0  0  0  0
  5  9  2  0  0  0  0
  5 26  1  0  0  0  0
  6 10  1  0  0  0  0
  6 11  2  0  0  0  0
  7  9  1  0  0  0  0
  7 27  1  0  0  0  0
  8 12  1  0  0  0  0
  8 28  1  0  0  0  0
  8 29  1  0  0  0  0
  9 13  1  0  0  0  0
 10 30  1  0  0  0  0
 10 31  1  0  0  0  0
 10 32  1  0  0  0  0
 12 14  1  0  0  0  0
 12 15  1  0  0  0  0
 12 33  1  0  0  0  0
 13 16  1  0  0  0  0
 13 34  1  0  0  0  0
 14 17  1  0  0  0  0
 14 35  1  0  0  0  0
 14 36  1  0  0  0  0
 15 37  1  0  0  0  0
 16 18  1  0  0  0  0
 16 19  2  0  0  0  0
 17 20  1  0  0  0  0
 17 38  1  0  0  0  0
 18 21  1  0  0  0  0
 18 39  1  0  0  0  0
 18 40  1  0  0  0  0
 20 22  1  0  0  0  0
 20 23  1  0  0  0  0
 20 41  1  0  0  0  0
 21 24  1  0  0  0  0
 21 42  1  0  0  0  0
 21 43  1  0  0  0  0
 22 44  1  0  0  0  0
 22 45  1  0  0  0  0
 22 46  1  0  0  0  0
 23 47  1  0  0  0  0
 23 48  1  0  0  0  0
 23 49  1  0  0  0  0
 24 50  1  0  0  0  0
 24 51  1  0  0  0  0
 24 52  1  0  0  0  0
M  END
>  <Mol_ID>
1193

>  <Formula>
C18H29ClN2O4

>  <MolWeight>
372.88686

>  <Cat>
S4010

>  <Name>
Acebutolol HCl

>  <Synonyms>
N/A

>  <Target>
Adrenergic Receptor

>  <Form>
Hydrochloride

>  <CAS>
34381-68-5

>  <URL>
http://selleckchem.com/products/acebutolol-hcl.html

$$$$
