Aceclidine Hydrochloride.cdx
 OpenBabel08302519573D

 27 28  0  0  0  0  0  0  0  0999 V2000
   -0.0171   -3.5129    0.0273 C   0  0  0  0  0  0  0  0  0  0  0  0
   -0.7466   -2.4181    0.7492 C   0  0  0  0  0  0  0  0  0  0  0  0
    0.1349   -1.5168    1.2592 O   0  0  0  0  0  0  0  0  0  0  0  0
   -1.9575   -2.3894    0.9091 O   0  0  0  0  0  0  0  0  0  0  0  0
   -0.4267   -0.5393    2.1556 C   0  0  3  0  0  0  0  0  0  0  0  0
   -1.2197    0.5696    1.4180 C   0  0  0  0  0  0  0  0  0  0  0  0
    0.7395    0.1244    2.9178 C   0  0  3  0  0  0  0  0  0  0  0  0
   -0.6726    1.9297    1.6875 N   0  0  3  0  0  0  0  0  0  0  0  0
    1.5985    0.9237    1.9203 C   0  0  0  0  0  0  0  0  0  0  0  0
    0.7250    1.9707    1.2116 C   0  0  0  0  0  0  0  0  0  0  0  0
    0.1334    1.1236    3.9132 C   0  0  0  0  0  0  0  0  0  0  0  0
   -0.6866    2.1741    3.1457 C   0  0  0  0  0  0  0  0  0  0  0  0
    0.9679   -3.1724   -0.3046 H   0  0  0  0  0  0  0  0  0  0  0  0
   -0.5852   -3.8086   -0.8583 H   0  0  0  0  0  0  0  0  0  0  0  0
    0.1032   -4.3669    0.6990 H   0  0  0  0  0  0  0  0  0  0  0  0
   -1.0735   -1.0517    2.8805 H   0  0  0  0  0  0  0  0  0  0  0  0
   -1.2460    0.3941    0.3360 H   0  0  0  0  0  0  0  0  0  0  0  0
   -2.2656    0.5451    1.7507 H   0  0  0  0  0  0  0  0  0  0  0  0
    1.3545   -0.6258    3.4258 H   0  0  0  0  0  0  0  0  0  0  0  0
    2.0549    0.2545    1.1818 H   0  0  0  0  0  0  0  0  0  0  0  0
    2.4181    1.4217    2.4521 H   0  0  0  0  0  0  0  0  0  0  0  0
    0.7537    1.8137    0.1262 H   0  0  0  0  0  0  0  0  0  0  0  0
    1.1404    2.9743    1.3730 H   0  0  0  0  0  0  0  0  0  0  0  0
   -0.5081    0.5993    4.6315 H   0  0  0  0  0  0  0  0  0  0  0  0
    0.9287    1.6144    4.4858 H   0  0  0  0  0  0  0  0  0  0  0  0
   -0.2932    3.1774    3.3547 H   0  0  0  0  0  0  0  0  0  0  0  0
   -1.7205    2.1832    3.5123 H   0  0  0  0  0  0  0  0  0  0  0  0
  1  2  1  0  0  0  0
  1 13  1  0  0  0  0
  1 14  1  0  0  0  0
  1 15  1  0  0  0  0
  2  3  1  0  0  0  0
  2  4  2  0  0  0  0
  3  5  1  0  0  0  0
  5  6  1  0  0  0  0
  5  7  1  0  0  0  0
  5 16  1  0  0  0  0
  6  8  1  0  0  0  0
  6 17  1  0  0  0  0
  6 18  1  0  0  0  0
  7  9  1  0  0  0  0
  7 11  1  0  0  0  0
  7 19  1  0  0  0  0
  8 10  1  0  0  0  0
  8 12  1  0  0  0  0
  9 10  1  0  0  0  0
  9 20  1  0  0  0  0
  9 21  1  0  0  0  0
 10 22  1  0  0  0  0
 10 23  1  0  0  0  0
 11 24  1  0  0  0  0
 11 25  1  0  0  0  0
 12 11  1  0  0  0  0
 12 26  1  0  0  0  0
 12 27  1  0  0  0  0
M  END
>  <Mol_ID>
2272

>  <Formula>
C9H16ClNO2

>  <MolWeight>
205.68184

>  <Cat>
S4301

>  <Name>
(R)-(+)-Atenolol HCl

>  <Synonyms>
N/A

>  <Target>
Adrenergic Receptor

>  <Form>
Hydrochloride

>  <CAS>
56715-13-0

>  <URL>
http://selleckchem.com/products/atenolol.html

$$$$
