Aceclidine Hydrochloride.cdx
 OpenBabel08302519583D

 27 28  0  0  0  0  0  0  0  0999 V2000
    0.6037    1.3732   -2.3267 C   0  0  0  0  0  0  0  0  0  0  0  0
    0.2292    0.2867   -1.3619 C   0  0  0  0  0  0  0  0  0  0  0  0
    0.0544   -0.8825   -2.0264 O   0  0  0  0  0  0  0  0  0  0  0  0
    0.0564    0.4555   -0.1636 O   0  0  0  0  0  0  0  0  0  0  0  0
   -0.4165   -1.9937   -1.2403 C   0  0  3  0  0  0  0  0  0  0  0  0
    0.7148   -2.6280   -0.3919 C   0  0  0  0  0  0  0  0  0  0  0  0
   -0.9392   -3.0596   -2.2275 C   0  0  3  0  0  0  0  0  0  0  0  0
    0.9743   -4.0449   -0.7680 N   0  0  3  0  0  0  0  0  0  0  0  0
    0.2354   -3.5403   -3.1000 C   0  0  0  0  0  0  0  0  0  0  0  0
    1.3530   -4.0864   -2.1976 C   0  0  0  0  0  0  0  0  0  0  0  0
   -1.4318   -4.2621   -1.4122 C   0  0  0  0  0  0  0  0  0  0  0  0
   -0.2679   -4.8272   -0.5815 C   0  0  0  0  0  0  0  0  0  0  0  0
    1.2270    0.9690   -3.1300 H   0  0  0  0  0  0  0  0  0  0  0  0
    1.1863    2.1382   -1.8060 H   0  0  0  0  0  0  0  0  0  0  0  0
   -0.3023    1.8178   -2.7480 H   0  0  0  0  0  0  0  0  0  0  0  0
   -1.2427   -1.6653   -0.5963 H   0  0  0  0  0  0  0  0  0  0  0  0
    1.6466   -2.0554   -0.4718 H   0  0  0  0  0  0  0  0  0  0  0  0
    0.4339   -2.5974    0.6690 H   0  0  0  0  0  0  0  0  0  0  0  0
   -1.7332   -2.6499   -2.8600 H   0  0  0  0  0  0  0  0  0  0  0  0
    0.6204   -2.7207   -3.7179 H   0  0  0  0  0  0  0  0  0  0  0  0
   -0.1078   -4.3237   -3.7864 H   0  0  0  0  0  0  0  0  0  0  0  0
    2.2753   -3.5126   -2.3521 H   0  0  0  0  0  0  0  0  0  0  0  0
    1.5959   -5.1166   -2.4869 H   0  0  0  0  0  0  0  0  0  0  0  0
   -2.2541   -3.9613   -0.7530 H   0  0  0  0  0  0  0  0  0  0  0  0
   -1.8199   -5.0367   -2.0846 H   0  0  0  0  0  0  0  0  0  0  0  0
   -0.0895   -5.8749   -0.8519 H   0  0  0  0  0  0  0  0  0  0  0  0
   -0.5406   -4.8413    0.4810 H   0  0  0  0  0  0  0  0  0  0  0  0
  1  2  1  0  0  0  0
  1 13  1  0  0  0  0
  1 14  1  0  0  0  0
  1 15  1  0  0  0  0
  2  3  1  0  0  0  0
  2  4  2  0  0  0  0
  3  5  1  0  0  0  0
  5  6  1  0  0  0  0
  5  7  1  0  0  0  0
  5 16  1  0  0  0  0
  6  8  1  0  0  0  0
  6 17  1  0  0  0  0
  6 18  1  0  0  0  0
  7  9  1  0  0  0  0
  7 11  1  0  0  0  0
  7 19  1  0  0  0  0
  8 10  1  0  0  0  0
  8 12  1  0  0  0  0
  9 10  1  0  0  0  0
  9 20  1  0  0  0  0
  9 21  1  0  0  0  0
 10 22  1  0  0  0  0
 10 23  1  0  0  0  0
 11 24  1  0  0  0  0
 11 25  1  0  0  0  0
 12 11  1  0  0  0  0
 12 26  1  0  0  0  0
 12 27  1  0  0  0  0
M  END
>  <Mol_ID>
2344

>  <Formula>
C9H16ClNO2

>  <MolWeight>
205.68184

>  <Cat>
S4376

>  <Name>
Aceclidine HCl

>  <Synonyms>
N/A

>  <Target>
Others

>  <Form>
hydrochloride

>  <CAS>
6109-70-2

>  <URL>
http://www.selleckchem.com/products/aceclidine-hcl.html

$$$$
