Aceglutamide.cdx
 OpenBabel08302519503D

 25 24  0  0  0  0  0  0  0  0999 V2000
    0.7766    0.0173    0.0535 C   0  0  2  0  0  0  0  0  0  0  0  0
    0.2962   -0.3629    1.4580 C   0  0  0  0  0  0  0  0  0  0  0  0
    0.1884    1.2884   -0.3711 N   0  0  0  0  0  0  0  0  0  0  0  0
    0.3674   -1.0300   -0.9878 C   0  0  0  0  0  0  0  0  0  0  0  0
    0.8689   -1.6863    1.9593 C   0  0  0  0  0  0  0  0  0  0  0  0
    0.5687    2.4909    0.1641 C   0  0  0  0  0  0  0  0  0  0  0  0
    1.3098   -1.9675   -1.2351 O   0  0  0  0  0  0  0  0  0  0  0  0
   -0.7183   -1.0300   -1.5550 O   0  0  0  0  0  0  0  0  0  0  0  0
    0.4219   -2.0008    3.3689 C   0  0  0  0  0  0  0  0  0  0  0  0
   -0.1693    3.6830   -0.3846 C   0  0  0  0  0  0  0  0  0  0  0  0
    1.4442    2.5945    1.0187 O   0  0  0  0  0  0  0  0  0  0  0  0
    0.8136   -1.1193    4.3289 N   0  0  0  0  0  0  0  0  0  0  0  0
   -0.2207   -3.0034    3.6560 O   0  0  0  0  0  0  0  0  0  0  0  0
    1.8648    0.1472    0.0341 H   0  0  0  0  0  0  0  0  0  0  0  0
    0.5722    0.4377    2.1544 H   0  0  0  0  0  0  0  0  0  0  0  0
   -0.8003   -0.4090    1.4817 H   0  0  0  0  0  0  0  0  0  0  0  0
   -0.6044    1.2371   -1.0082 H   0  0  0  0  0  0  0  0  0  0  0  0
    0.5331   -2.5114    1.3210 H   0  0  0  0  0  0  0  0  0  0  0  0
    1.9644   -1.6762    1.9363 H   0  0  0  0  0  0  0  0  0  0  0  0
    2.1511   -1.8511   -0.7538 H   0  0  0  0  0  0  0  0  0  0  0  0
   -0.6259    4.2331    0.4426 H   0  0  0  0  0  0  0  0  0  0  0  0
    0.5384    4.3277   -0.9119 H   0  0  0  0  0  0  0  0  0  0  0  0
   -0.9596    3.3881   -1.0809 H   0  0  0  0  0  0  0  0  0  0  0  0
    0.4955   -1.2934    5.2739 H   0  0  0  0  0  0  0  0  0  0  0  0
    1.2561   -0.2323    4.1312 H   0  0  0  0  0  0  0  0  0  0  0  0
  1  2  1  0  0  0  0
  1  3  1  0  0  0  0
  1  4  1  0  0  0  0
  1 14  1  1  0  0  0
  2  5  1  0  0  0  0
  2 15  1  0  0  0  0
  2 16  1  0  0  0  0
  3  6  1  0  0  0  0
  3 17  1  0  0  0  0
  4  7  1  0  0  0  0
  4  8  2  0  0  0  0
  5  9  1  0  0  0  0
  5 18  1  0  0  0  0
  5 19  1  0  0  0  0
  6 10  1  0  0  0  0
  6 11  2  0  0  0  0
  7 20  1  0  0  0  0
  9 12  1  0  0  0  0
  9 13  2  0  0  0  0
 10 21  1  0  0  0  0
 10 22  1  0  0  0  0
 10 23  1  0  0  0  0
 12 24  1  0  0  0  0
 12 25  1  0  0  0  0
M  END
>  <Mol_ID>
1494

>  <Formula>
C7H12N2O4

>  <MolWeight>
188.18118

>  <Cat>
S4512

>  <Name>
Aceglutamide

>  <Synonyms>
¦Á-N-Acetyl-L-glutamine, N2-Acetylglutamine

>  <Target>
Others

>  <Form>
free base

>  <CAS>
2490-97-3

>  <URL>
http://selleckchem.com/products/aceglutamide.html

$$$$
