Acemetacin.cdx
 OpenBabel08302521443D

 47 49  0  0  0  0  0  0  0  0999 V2000
    0.8497    0.1624    0.0084 C   0  0  0  0  0  0  0  0  0  0  0  0
    0.4679   -0.6332    1.2181 C   0  0  0  0  0  0  0  0  0  0  0  0
   -0.1043   -0.1061    2.3857 N   0  0  0  0  0  0  0  0  0  0  0  0
   -0.3177   -1.1798    3.2694 C   0  0  0  0  0  0  0  0  0  0  0  0
    0.2865   -2.3146    2.7289 C   0  0  0  0  0  0  0  0  0  0  0  0
    0.6955   -1.9916    1.4058 C   0  0  0  0  0  0  0  0  0  0  0  0
   -1.0066   -1.2664    4.4977 C   0  0  0  0  0  0  0  0  0  0  0  0
   -0.9431   -2.4512    5.2430 C   0  0  0  0  0  0  0  0  0  0  0  0
   -0.2640   -3.5600    4.7603 C   0  0  0  0  0  0  0  0  0  0  0  0
    0.3287   -3.5017    3.4949 C   0  0  0  0  0  0  0  0  0  0  0  0
   -0.4122    1.2628    2.6428 C   0  0  0  0  0  0  0  0  0  0  0  0
   -0.6014    2.0049    1.6835 O   0  0  0  0  0  0  0  0  0  0  0  0
   -0.5286    1.8778    3.9910 C   0  0  0  0  0  0  0  0  0  0  0  0
   -0.1287   -4.7625    5.3986 O   0  0  0  0  0  0  0  0  0  0  0  0
   -0.7377   -4.8865    6.6785 C   0  0  0  0  0  0  0  0  0  0  0  0
    1.2471   -2.9562    0.3961 C   0  0  0  0  0  0  0  0  0  0  0  0
    0.1447   -3.5182   -0.4801 C   0  0  0  0  0  0  0  0  0  0  0  0
   -0.7132   -4.2996    0.2275 O   0  0  0  0  0  0  0  0  0  0  0  0
   -1.7542   -4.9261   -0.5210 C   0  0  0  0  0  0  0  0  0  0  0  0
   -2.9287   -4.0451   -0.9426 C   0  0  0  0  0  0  0  0  0  0  0  0
   -2.6038   -3.0525   -1.8017 O   0  0  0  0  0  0  0  0  0  0  0  0
   -4.0831   -4.2397   -0.5823 O   0  0  0  0  0  0  0  0  0  0  0  0
    0.0168   -3.2999   -1.6813 O   0  0  0  0  0  0  0  0  0  0  0  0
    0.3029    1.4841    5.0488 C   0  0  0  0  0  0  0  0  0  0  0  0
    0.0984    2.0076    6.3268 C   0  0  0  0  0  0  0  0  0  0  0  0
   -0.8934    2.9651    6.5369 C   0  0  0  0  0  0  0  0  0  0  0  0
   -1.6634    3.4244    5.4694 C   0  0  0  0  0  0  0  0  0  0  0  0
   -1.4809    2.8836    4.1951 C   0  0  0  0  0  0  0  0  0  0  0  0
    0.4618    1.1764   -0.0352 H   0  0  0  0  0  0  0  0  0  0  0  0
    0.4984   -0.3450   -0.8967 H   0  0  0  0  0  0  0  0  0  0  0  0
    1.9420    0.2291   -0.0487 H   0  0  0  0  0  0  0  0  0  0  0  0
   -1.5814   -0.4353    4.8953 H   0  0  0  0  0  0  0  0  0  0  0  0
   -1.4465   -2.4644    6.2047 H   0  0  0  0  0  0  0  0  0  0  0  0
    0.8200   -4.3879    3.1021 H   0  0  0  0  0  0  0  0  0  0  0  0
   -0.2456   -4.2369    7.4099 H   0  0  0  0  0  0  0  0  0  0  0  0
   -1.8132   -4.6864    6.6318 H   0  0  0  0  0  0  0  0  0  0  0  0
   -0.6108   -5.9217    7.0098 H   0  0  0  0  0  0  0  0  0  0  0  0
    1.9799   -2.4575   -0.2478 H   0  0  0  0  0  0  0  0  0  0  0  0
    1.7721   -3.7873    0.8750 H   0  0  0  0  0  0  0  0  0  0  0  0
   -1.3501   -5.4285   -1.4087 H   0  0  0  0  0  0  0  0  0  0  0  0
   -2.1590   -5.7189    0.1169 H   0  0  0  0  0  0  0  0  0  0  0  0
   -1.6456   -3.0305   -2.0353 H   0  0  0  0  0  0  0  0  0  0  0  0
    1.0879    0.7460    4.9012 H   0  0  0  0  0  0  0  0  0  0  0  0
    0.7010    1.6547    7.1585 H   0  0  0  0  0  0  0  0  0  0  0  0
   -1.0589    3.3628    7.5356 H   0  0  0  0  0  0  0  0  0  0  0  0
   -2.4117    4.1961    5.6286 H   0  0  0  0  0  0  0  0  0  0  0  0
   -2.0887    3.2417    3.3668 H   0  0  0  0  0  0  0  0  0  0  0  0
  1  2  1  0  0  0  0
  1 29  1  0  0  0  0
  1 30  1  0  0  0  0
  1 31  1  0  0  0  0
  2  3  1  0  0  0  0
  3  4  1  0  0  0  0
  3 11  1  0  0  0  0
  4  5  2  0  0  0  0
  4  7  1  0  0  0  0
  5  6  1  0  0  0  0
  6  2  2  0  0  0  0
  6 16  1  0  0  0  0
  7  8  2  0  0  0  0
  7 32  1  0  0  0  0
  8  9  1  0  0  0  0
  8 33  1  0  0  0  0
  9 10  2  0  0  0  0
  9 14  1  0  0  0  0
 10  5  1  0  0  0  0
 10 34  1  0  0  0  0
 11 12  2  0  0  0  0
 11 13  1  0  0  0  0
 13 24  2  0  0  0  0
 14 15  1  0  0  0  0
 15 35  1  0  0  0  0
 15 36  1  0  0  0  0
 15 37  1  0  0  0  0
 16 17  1  0  0  0  0
 16 38  1  0  0  0  0
 16 39  1  0  0  0  0
 17 18  1  0  0  0  0
 17 23  2  0  0  0  0
 18 19  1  0  0  0  0
 19 20  1  0  0  0  0
 19 40  1  0  0  0  0
 19 41  1  0  0  0  0
 20 21  1  0  0  0  0
 20 22  2  0  0  0  0
 21 42  1  0  0  0  0
 24 25  1  0  0  0  0
 24 43  1  0  0  0  0
 25 26  2  0  0  0  0
 25 44  1  0  0  0  0
 26 27  1  0  0  0  0
 26 45  1  0  0  0  0
 27 28  2  0  0  0  0
 27 46  1  0  0  0  0
 28 13  1  0  0  0  0
 28 47  1  0  0  0  0
M  END
>  <Mol_ID>
930

>  <Formula>
C21H18ClNO6

>  <MolWeight>
415.82372

>  <Cat>
S2602

>  <Name>
Acemetacin

>  <Synonyms>
K-708,TVX 1322

>  <Target>
COX

>  <Form>
free base

>  <CAS>
53164-05-9

>  <URL>
http://selleckchem.com/products/acemetacin-emflex.html

$$$$
