ACEON (perindopril erbumine).cdx
 OpenBabel08302520433D

 74 74  0  0  0  0  0  0  0  0999 V2000
   -2.8142   -4.5340   -0.4532 C   0  0  0  0  0  0  0  0  0  0  0  0
   -1.3746   -4.6299   -0.9361 C   0  0  0  0  0  0  0  0  0  0  0  0
   -1.2196   -4.8733   -2.4430 C   0  0  0  0  0  0  0  0  0  0  0  0
   -1.8246   -3.8176   -3.3962 C   0  0  3  0  0  0  0  0  0  0  0  0
   -1.2442   -2.4706   -3.2027 N   0  0  0  0  0  0  0  0  0  0  0  0
   -1.6440   -4.2825   -4.8643 C   0  0  0  0  0  0  0  0  0  0  0  0
   -0.3451   -4.5614   -5.1595 O   0  0  0  0  0  0  0  0  0  0  0  0
   -2.5679   -4.3227   -5.6638 O   0  0  0  0  0  0  0  0  0  0  0  0
   -0.0408   -4.8682   -6.5274 C   0  0  0  0  0  0  0  0  0  0  0  0
   -0.2191   -6.3492   -6.8142 C   0  0  0  0  0  0  0  0  0  0  0  0
   -1.8779   -1.3852   -4.0056 C   0  0  2  0  0  0  0  0  0  0  0  0
   -1.1493   -0.0559   -3.7013 C   0  0  0  0  0  0  0  0  0  0  0  0
   -3.3690   -1.2732   -3.7459 C   0  0  0  0  0  0  0  0  0  0  0  0
   -1.4224    1.0651   -4.4824 N   0  0  0  0  0  0  0  0  0  0  0  0
   -0.2657    0.0011   -2.8282 O   0  0  0  0  0  0  0  0  0  0  0  0
   -2.4623    1.3118   -5.5029 C   0  0  2  0  0  0  0  0  0  0  0  0
   -1.6709    2.0385   -6.5983 C   0  0  2  0  0  0  0  0  0  0  0  0
   -0.7466    2.9430   -5.7660 C   0  0  0  0  0  0  0  0  0  0  0  0
   -0.3320    2.0377   -4.6048 C   0  0  1  0  0  0  0  0  0  0  0  0
   -3.5990    2.2085   -4.9474 C   0  0  0  0  0  0  0  0  0  0  0  0
   -4.4601    2.8262   -6.0485 C   0  0  0  0  0  0  0  0  0  0  0  0
   -3.6174    3.6304   -7.0284 C   0  0  0  0  0  0  0  0  0  0  0  0
   -2.5168    2.7726   -7.6373 C   0  0  0  0  0  0  0  0  0  0  0  0
   -0.0467    2.8201   -3.3246 C   0  0  0  0  0  0  0  0  0  0  0  0
    0.9984    3.4140   -3.0764 O   0  0  0  0  0  0  0  0  0  0  0  0
   -1.0848    2.9094   -2.4680 O   0  0  0  0  0  0  0  0  0  0  0  0
    1.3549    0.0845    1.2641 C   0  0  0  0  0  0  0  0  0  0  0  0
    0.9797    1.4080    0.5833 C   0  0  0  0  0  0  0  0  0  0  0  0
    0.8807   -1.0797    0.5080 N   0  0  0  0  0  0  0  0  0  0  0  0
    0.6716    0.0291    2.6353 C   0  0  0  0  0  0  0  0  0  0  0  0
    2.8807   -0.0016    1.3953 C   0  0  0  0  0  0  0  0  0  0  0  0
   -3.3198   -3.6579   -0.8695 H   0  0  0  0  0  0  0  0  0  0  0  0
   -2.8344   -4.4406    0.6395 H   0  0  0  0  0  0  0  0  0  0  0  0
   -3.3824   -5.4287   -0.7240 H   0  0  0  0  0  0  0  0  0  0  0  0
   -0.8280   -3.7304   -0.6347 H   0  0  0  0  0  0  0  0  0  0  0  0
   -0.8985   -5.4671   -0.4103 H   0  0  0  0  0  0  0  0  0  0  0  0
   -0.1477   -4.9914   -2.6498 H   0  0  0  0  0  0  0  0  0  0  0  0
   -1.6748   -5.8444   -2.6809 H   0  0  0  0  0  0  0  0  0  0  0  0
   -2.8993   -3.7893   -3.1990 H   0  0  0  0  0  0  0  0  0  0  0  0
   -1.2707   -2.1994   -2.2194 H   0  0  0  0  0  0  0  0  0  0  0  0
   -0.6404   -4.2569   -7.2184 H   0  0  0  0  0  0  0  0  0  0  0  0
    1.0061   -4.5963   -6.6936 H   0  0  0  0  0  0  0  0  0  0  0  0
   -1.2538   -6.6644   -6.6493 H   0  0  0  0  0  0  0  0  0  0  0  0
    0.0544   -6.5797   -7.8481 H   0  0  0  0  0  0  0  0  0  0  0  0
    0.4104   -6.9465   -6.1463 H   0  0  0  0  0  0  0  0  0  0  0  0
   -1.6764   -1.5829   -5.0683 H   0  0  0  0  0  0  0  0  0  0  0  0
   -3.7591   -0.2830   -3.9540 H   0  0  0  0  0  0  0  0  0  0  0  0
   -3.9218   -1.9733   -4.3795 H   0  0  0  0  0  0  0  0  0  0  0  0
   -3.6174   -1.4663   -2.6989 H   0  0  0  0  0  0  0  0  0  0  0  0
   -2.8737    0.3742   -5.8876 H   0  0  0  0  0  0  0  0  0  0  0  0
   -1.0449    1.3035   -7.1252 H   0  0  0  0  0  0  0  0  0  0  0  0
    0.1104    3.2912   -6.3509 H   0  0  0  0  0  0  0  0  0  0  0  0
   -1.2746    3.8342   -5.4042 H   0  0  0  0  0  0  0  0  0  0  0  0
    0.5772    1.4740   -4.8670 H   0  0  0  0  0  0  0  0  0  0  0  0
   -3.1819    3.0218   -4.3399 H   0  0  0  0  0  0  0  0  0  0  0  0
   -4.2483    1.6547   -4.2653 H   0  0  0  0  0  0  0  0  0  0  0  0
   -5.2154    3.4819   -5.5990 H   0  0  0  0  0  0  0  0  0  0  0  0
   -5.0022    2.0362   -6.5831 H   0  0  0  0  0  0  0  0  0  0  0  0
   -4.2553    4.0332   -7.8249 H   0  0  0  0  0  0  0  0  0  0  0  0
   -3.1778    4.4942   -6.5169 H   0  0  0  0  0  0  0  0  0  0  0  0
   -2.9835    2.0314   -8.3009 H   0  0  0  0  0  0  0  0  0  0  0  0
   -1.8728    3.3939   -8.2696 H   0  0  0  0  0  0  0  0  0  0  0  0
   -0.6942    3.3256   -1.6737 H   0  0  0  0  0  0  0  0  0  0  0  0
    1.5677    1.5866   -0.3280 H   0  0  0  0  0  0  0  0  0  0  0  0
   -0.0804    1.4463    0.3196 H   0  0  0  0  0  0  0  0  0  0  0  0
    1.1739    2.2502    1.2628 H   0  0  0  0  0  0  0  0  0  0  0  0
   -0.1145   -0.9826    0.3126 H   0  0  0  0  0  0  0  0  0  0  0  0
    1.3301   -1.1206   -0.4082 H   0  0  0  0  0  0  0  0  0  0  0  0
    0.9347   -0.8837    3.1814 H   0  0  0  0  0  0  0  0  0  0  0  0
    0.9557    0.8853    3.2559 H   0  0  0  0  0  0  0  0  0  0  0  0
   -0.4200    0.0492    2.5272 H   0  0  0  0  0  0  0  0  0  0  0  0
    3.3544   -0.1564    0.4181 H   0  0  0  0  0  0  0  0  0  0  0  0
    3.2944    0.9255    1.8090 H   0  0  0  0  0  0  0  0  0  0  0  0
    3.1881   -0.8267    2.0476 H   0  0  0  0  0  0  0  0  0  0  0  0
  1  2  1  0  0  0  0
  1 32  1  0  0  0  0
  1 33  1  0  0  0  0
  1 34  1  0  0  0  0
  2  3  1  0  0  0  0
  2 35  1  0  0  0  0
  2 36  1  0  0  0  0
  3  4  1  0  0  0  0
  3 37  1  0  0  0  0
  3 38  1  0  0  0  0
  4  5  1  0  0  0  0
  4  6  1  0  0  0  0
  4 39  1  0  0  0  0
  5 40  1  0  0  0  0
  6  7  1  0  0  0  0
  6  8  2  0  0  0  0
  7  9  1  0  0  0  0
  9 10  1  0  0  0  0
  9 41  1  0  0  0  0
  9 42  1  0  0  0  0
 10 43  1  0  0  0  0
 10 44  1  0  0  0  0
 10 45  1  0  0  0  0
 11 13  1  0  0  0  0
 11 46  1  6  0  0  0
 11 12  1  0  0  0  0
 11  5  1  0  0  0  0
 12 14  1  0  0  0  0
 12 15  2  0  0  0  0
 13 47  1  0  0  0  0
 13 48  1  0  0  0  0
 13 49  1  0  0  0  0
 14 16  1  0  0  0  0
 16 17  1  0  0  0  0
 16 20  1  0  0  0  0
 16 50  1  6  0  0  0
 17 18  1  0  0  0  0
 17 51  1  6  0  0  0
 18 19  1  0  0  0  0
 18 52  1  0  0  0  0
 18 53  1  0  0  0  0
 19 14  1  0  0  0  0
 19 24  1  0  0  0  0
 19 54  1  6  0  0  0
 20 21  1  0  0  0  0
 20 55  1  0  0  0  0
 20 56  1  0  0  0  0
 21 22  1  0  0  0  0
 21 57  1  0  0  0  0
 21 58  1  0  0  0  0
 22 23  1  0  0  0  0
 22 59  1  0  0  0  0
 22 60  1  0  0  0  0
 23 17  1  0  0  0  0
 23 61  1  0  0  0  0
 23 62  1  0  0  0  0
 24 25  2  0  0  0  0
 24 26  1  0  0  0  0
 26 63  1  0  0  0  0
 27 28  1  0  0  0  0
 27 29  1  0  0  0  0
 27 30  1  0  0  0  0
 27 31  1  0  0  0  0
 28 64  1  0  0  0  0
 28 65  1  0  0  0  0
 28 66  1  0  0  0  0
 29 67  1  0  0  0  0
 29 68  1  0  0  0  0
 30 69  1  0  0  0  0
 30 70  1  0  0  0  0
 30 71  1  0  0  0  0
 31 72  1  0  0  0  0
 31 73  1  0  0  0  0
 31 74  1  0  0  0  0
M  END
>  <Mol_ID>
4022

>  <Formula>
C23H43N3O5

>  <MolWeight>
441.60462

>  <Cat>
S1506

>  <Name>
Perindopril Erbumine

>  <Synonyms>
S9490-3

>  <Target>
RAAS

>  <Form>
t-Butylamine

>  <CAS>
107133-36-8

>  <URL>
http://selleckchem.com/products/Perindopril-Erbumine(Aceon).html

$$$$
