Acesulfame potassium.cdx
 OpenBabel08302522003D

 15 15  0  0  0  0  0  0  0  0999 V2000
   -1.1047    0.9625   -0.0469 O   0  0  0  0  0  0  0  0  0  0  0  0
    0.4029    1.5669    0.0237 S   0  0  0  0  0  0  0  0  0  0  0  0
    1.4117    0.2693   -0.0503 N   0  0  0  0  0  0  0  0  0  0  0  0
    1.0178   -1.0551   -0.0106 C   0  0  0  0  0  0  0  0  0  0  0  0
   -0.4263   -1.3386    0.0059 C   0  0  0  0  0  0  0  0  0  0  0  0
   -1.3715   -0.3892   -0.0097 C   0  0  0  0  0  0  0  0  0  0  0  0
    1.8389   -1.9581    0.0066 O   0  0  0  0  0  0  0  0  0  0  0  0
   -2.8346   -0.7057    0.0071 C   0  0  0  0  0  0  0  0  0  0  0  0
    0.5930    2.1603    1.3290 O   0  0  0  0  0  0  0  0  0  0  0  0
    0.6382    2.3363   -1.1784 O   0  0  0  0  0  0  0  0  0  0  0  0
    2.4020    0.4809   -0.0236 H   0  0  0  0  0  0  0  0  0  0  0  0
   -0.6777   -2.3934    0.0305 H   0  0  0  0  0  0  0  0  0  0  0  0
   -3.3014   -0.2747    0.8987 H   0  0  0  0  0  0  0  0  0  0  0  0
   -3.3228   -0.2823   -0.8765 H   0  0  0  0  0  0  0  0  0  0  0  0
   -3.0257   -1.7835    0.0140 H   0  0  0  0  0  0  0  0  0  0  0  0
  1  2  1  0  0  0  0
  1  6  1  0  0  0  0
  2  3  1  0  0  0  0
  2  9  2  0  0  0  0
  2 10  2  0  0  0  0
  3  4  1  0  0  0  0
  3 11  1  0  0  0  0
  4  5  1  0  0  0  0
  4  7  2  0  0  0  0
  5  6  2  0  0  0  0
  5 12  1  0  0  0  0
  6  8  1  0  0  0  0
  8 13  1  0  0  0  0
  8 14  1  0  0  0  0
  8 15  1  0  0  0  0
M  END
>  <Mol_ID>
1045

>  <Formula>
C4H5KNO4S

>  <MolWeight>
202.2501

>  <Cat>
S2884

>  <Name>
Acesulfame Potassium

>  <Synonyms>
N/A

>  <Target>
Others

>  <Form>
Potassium Salt

>  <CAS>
55589-62-3

>  <URL>
http://selleckchem.com/products/acesulfame-potassium.html

$$$$
