Acetic acid octyl ester
 OpenBabel08302521293D

 32 31  0  0  0  0  0  0  0  0999 V2000
   -1.7724   -0.6072    1.4005 O   0  0  0  0  0  0  0  0  0  0  0  0
   -1.5969   -1.5955   -0.6675 O   0  0  0  0  0  0  0  0  0  0  0  0
    2.2193   -0.7979    3.2896 C   0  0  0  0  0  0  0  0  0  0  0  0
    1.6021   -0.9539    4.6839 C   0  0  0  0  0  0  0  0  0  0  0  0
    1.7406   -1.8196    2.2493 C   0  0  0  0  0  0  0  0  0  0  0  0
    1.9416   -2.2970    5.3319 C   0  0  0  0  0  0  0  0  0  0  0  0
    0.2267   -1.8592    2.0229 C   0  0  0  0  0  0  0  0  0  0  0  0
    1.3157   -2.4328    6.7187 C   0  0  0  0  0  0  0  0  0  0  0  0
   -0.3406   -0.5411    1.5019 C   0  0  0  0  0  0  0  0  0  0  0  0
    1.6619   -3.7768    7.3407 C   0  0  0  0  0  0  0  0  0  0  0  0
   -2.2635   -1.1329    0.2462 C   0  0  0  0  0  0  0  0  0  0  0  0
   -3.7575   -1.0119    0.2233 C   0  0  0  0  0  0  0  0  0  0  0  0
    3.3107   -0.8742    3.3735 H   0  0  0  0  0  0  0  0  0  0  0  0
    2.0193    0.2169    2.9267 H   0  0  0  0  0  0  0  0  0  0  0  0
    1.9785   -0.1432    5.3202 H   0  0  0  0  0  0  0  0  0  0  0  0
    0.5155   -0.8234    4.6334 H   0  0  0  0  0  0  0  0  0  0  0  0
    2.0787   -2.8218    2.5381 H   0  0  0  0  0  0  0  0  0  0  0  0
    2.2397   -1.6029    1.2948 H   0  0  0  0  0  0  0  0  0  0  0  0
    1.5844   -3.1212    4.7053 H   0  0  0  0  0  0  0  0  0  0  0  0
    3.0312   -2.3966    5.4088 H   0  0  0  0  0  0  0  0  0  0  0  0
   -0.2967   -2.1504    2.9413 H   0  0  0  0  0  0  0  0  0  0  0  0
    0.0022   -2.6574    1.3048 H   0  0  0  0  0  0  0  0  0  0  0  0
    1.6708   -1.6273    7.3712 H   0  0  0  0  0  0  0  0  0  0  0  0
    0.2258   -2.3391    6.6471 H   0  0  0  0  0  0  0  0  0  0  0  0
    0.1079   -0.2613    0.5409 H   0  0  0  0  0  0  0  0  0  0  0  0
   -0.1291    0.2733    2.2013 H   0  0  0  0  0  0  0  0  0  0  0  0
    2.7464   -3.9103    7.4085 H   0  0  0  0  0  0  0  0  0  0  0  0
    1.2450   -3.8480    8.3505 H   0  0  0  0  0  0  0  0  0  0  0  0
    1.2526   -4.5992    6.7455 H   0  0  0  0  0  0  0  0  0  0  0  0
   -4.1810   -1.3759    1.1624 H   0  0  0  0  0  0  0  0  0  0  0  0
   -4.0381    0.0318    0.0570 H   0  0  0  0  0  0  0  0  0  0  0  0
   -4.1578   -1.6237   -0.5903 H   0  0  0  0  0  0  0  0  0  0  0  0
  1  9  1  0  0  0  0
  1 11  1  0  0  0  0
  2 11  2  0  0  0  0
  3  4  1  0  0  0  0
  3  5  1  0  0  0  0
  3 13  1  0  0  0  0
  3 14  1  0  0  0  0
  4  6  1  0  0  0  0
  4 15  1  0  0  0  0
  4 16  1  0  0  0  0
  5  7  1  0  0  0  0
  5 17  1  0  0  0  0
  5 18  1  0  0  0  0
  6  8  1  0  0  0  0
  6 19  1  0  0  0  0
  6 20  1  0  0  0  0
  7  9  1  0  0  0  0
  7 21  1  0  0  0  0
  7 22  1  0  0  0  0
  8 10  1  0  0  0  0
  8 23  1  0  0  0  0
  8 24  1  0  0  0  0
  9 25  1  0  0  0  0
  9 26  1  0  0  0  0
 10 27  1  0  0  0  0
 10 28  1  0  0  0  0
 10 29  1  0  0  0  0
 11 12  1  0  0  0  0
 12 30  1  0  0  0  0
 12 31  1  0  0  0  0
 12 32  1  0  0  0  0
M  END
>  <Mol_ID>
5435

>  <Formula>
C10H20O2

>  <MolWeight>
172.2646

>  <Cat>
S2999

>  <Name>
Acetic acid octyl ester

>  <Synonyms>
Octyl acetate

>  <Target>
Others

>  <Form>
Free Base

>  <CAS>
112-14-1

>  <URL>
https://www.selleckchem.com/products/acetic-acid-octyl-ester.html

$$$$
