Acetamide
 OpenBabel08302520383D

  9  8  0  0  0  0  0  0  0  0999 V2000
    1.1148   -0.0194   -0.0602 C   0  0  0  0  0  0  0  0  0  0  0  0
    0.3263    1.2549    0.0230 C   0  0  0  0  0  0  0  0  0  0  0  0
    0.3618   -1.1525   -0.1341 N   0  0  0  0  0  0  0  0  0  0  0  0
    2.3378   -0.0640   -0.0631 O   0  0  0  0  0  0  0  0  0  0  0  0
   -0.2999    1.3636   -0.8666 H   0  0  0  0  0  0  0  0  0  0  0  0
   -0.2999    1.2470    0.9193 H   0  0  0  0  0  0  0  0  0  0  0  0
    1.0116    2.1054    0.0785 H   0  0  0  0  0  0  0  0  0  0  0  0
    0.8495   -2.0370   -0.1919 H   0  0  0  0  0  0  0  0  0  0  0  0
   -0.6479   -1.1486   -0.1339 H   0  0  0  0  0  0  0  0  0  0  0  0
  1  2  1  0  0  0  0
  1  3  1  0  0  0  0
  1  4  2  0  0  0  0
  2  5  1  0  0  0  0
  2  6  1  0  0  0  0
  2  7  1  0  0  0  0
  3  8  1  0  0  0  0
  3  9  1  0  0  0  0
M  END
>  <Mol_ID>
3508

>  <Formula>
C2H5NO

>  <MolWeight>
59.0672

>  <Cat>
S6011

>  <Name>
Acetamide

>  <Synonyms>
ethanamide, Acetic acid amide

>  <Target>
Others

>  <Form>
free base

>  <CAS>
60-35-5

>  <URL>
http://www.selleck.cn/products/acetamide.html

$$$$
