Acetylthiocholine iodide
 OpenBabel08302521383D

 27 25  0  0  0  0  0  0  0  0999 V2000
    1.2197    0.1082    0.3525 C   0  0  0  0  0  0  0  0  0  0  0  0
    0.7804   -1.3745    0.3670 C   0  0  0  0  0  0  0  0  0  0  0  0
    0.6256    0.9726    1.4201 N   0  3  0  0  0  0  0  0  0  0  0  0
    1.5825   -2.2512   -1.0202 S   0  0  0  0  0  0  0  0  0  0  0  0
    1.1714    2.3445    1.2607 C   0  0  0  0  0  0  0  0  0  0  0  0
   -0.8499    1.0480    1.2976 C   0  0  0  0  0  0  0  0  0  0  0  0
    0.9852    0.4860    2.7735 C   0  0  0  0  0  0  0  0  0  0  0  0
    0.9085   -3.8645   -0.5998 C   0  0  0  0  0  0  0  0  0  0  0  0
   -0.3378   -4.3716   -1.2588 C   0  0  0  0  0  0  0  0  0  0  0  0
    1.4903   -4.5672    0.2112 O   0  0  0  0  0  0  0  0  0  0  0  0
   -1.5852   -0.2152   -2.5774 I   0  5  0  0  0  0  0  0  0  0  0  0
    0.9616    0.5268   -0.6469 H   0  0  0  0  0  0  0  0  0  0  0  0
    2.3305    0.1262    0.4345 H   0  0  0  0  0  0  0  0  0  0  0  0
    1.1008   -1.8536    1.3145 H   0  0  0  0  0  0  0  0  0  0  0  0
   -0.3164   -1.4550    0.2318 H   0  0  0  0  0  0  0  0  0  0  0  0
    0.9204    2.7625    0.2592 H   0  0  0  0  0  0  0  0  0  0  0  0
    0.7567    3.0373    2.0268 H   0  0  0  0  0  0  0  0  0  0  0  0
    2.2801    2.3513    1.3658 H   0  0  0  0  0  0  0  0  0  0  0  0
   -1.3280    0.0627    1.4750 H   0  0  0  0  0  0  0  0  0  0  0  0
   -1.2777    1.7480    2.0502 H   0  0  0  0  0  0  0  0  0  0  0  0
   -1.1481    1.4096    0.2884 H   0  0  0  0  0  0  0  0  0  0  0  0
    0.5228   -0.4992    2.9898 H   0  0  0  0  0  0  0  0  0  0  0  0
    2.0888    0.3915    2.8832 H   0  0  0  0  0  0  0  0  0  0  0  0
    0.6219    1.1870    3.5594 H   0  0  0  0  0  0  0  0  0  0  0  0
   -0.1120   -5.3049   -1.8162 H   0  0  0  0  0  0  0  0  0  0  0  0
   -1.1086   -4.5874   -0.4893 H   0  0  0  0  0  0  0  0  0  0  0  0
   -0.7389   -3.6191   -1.9690 H   0  0  0  0  0  0  0  0  0  0  0  0
  1  2  1  0  0  0  0
  1  3  1  0  0  0  0
  1 12  1  0  0  0  0
  1 13  1  0  0  0  0
  2  4  1  0  0  0  0
  2 14  1  0  0  0  0
  2 15  1  0  0  0  0
  3  5  1  0  0  0  0
  3  6  1  0  0  0  0
  3  7  1  0  0  0  0
  4  8  1  0  0  0  0
  5 16  1  0  0  0  0
  5 17  1  0  0  0  0
  5 18  1  0  0  0  0
  6 19  1  0  0  0  0
  6 20  1  0  0  0  0
  6 21  1  0  0  0  0
  7 22  1  0  0  0  0
  7 23  1  0  0  0  0
  7 24  1  0  0  0  0
  8  9  1  0  0  0  0
  8 10  2  0  0  0  0
  9 25  1  0  0  0  0
  9 26  1  0  0  0  0
  9 27  1  0  0  0  0
M  CHG  2   3   1  11  -1
M  END
>  <Mol_ID>
7638

>  <Formula>
C7H16INOS

>  <MolWeight>
289.17751

>  <Cat>
E2998

>  <Name>
Acetylthiocholine iodide

>  <Synonyms>
S-Acetylthiocholine iodide; ATCh iodide

>  <Target>
Others

>  <Form>
iodide

>  <CAS>
1866-15-5

>  <URL>
https://www.selleckchem.com/products/acetylthiocholine-iodide.html

$$$$
