Acetylvaline
 OpenBabel08302521363D

 24 23  0  0  1  0  0  0  0  0999 V2000
    0.8054    0.1091    0.0101 C   0  0  1  0  0  0  0  0  0  0  0  0
    0.1396   -1.2055    0.0933 N   0  0  0  0  0  0  0  0  0  0  0  0
    0.3812    0.8917   -1.2566 C   0  0  0  0  0  0  0  0  0  0  0  0
    0.5267    0.8993    1.2991 C   0  0  0  0  0  0  0  0  0  0  0  0
    0.7463   -2.3417   -0.3956 C   0  0  0  0  0  0  0  0  0  0  0  0
    0.8503    0.2024   -2.5433 C   0  0  0  0  0  0  0  0  0  0  0  0
   -1.1304    1.1358   -1.3287 C   0  0  0  0  0  0  0  0  0  0  0  0
    0.2193    0.0863    2.3464 O   0  0  0  0  0  0  0  0  0  0  0  0
    0.6241    2.1100    1.4246 O   0  0  0  0  0  0  0  0  0  0  0  0
   -0.2291   -3.4519   -0.6778 C   0  0  0  0  0  0  0  0  0  0  0  0
    1.9481   -2.4336   -0.6090 O   0  0  0  0  0  0  0  0  0  0  0  0
    1.8903   -0.0500   -0.0092 H   0  0  0  0  0  0  0  0  0  0  0  0
   -0.8753   -1.1950    0.1185 H   0  0  0  0  0  0  0  0  0  0  0  0
    0.8669    1.8760   -1.2246 H   0  0  0  0  0  0  0  0  0  0  0  0
    0.4399   -0.8073   -2.6417 H   0  0  0  0  0  0  0  0  0  0  0  0
    0.5296    0.7671   -3.4256 H   0  0  0  0  0  0  0  0  0  0  0  0
    1.9424    0.1317   -2.5708 H   0  0  0  0  0  0  0  0  0  0  0  0
   -1.4985    1.6337   -0.4266 H   0  0  0  0  0  0  0  0  0  0  0  0
   -1.3717    1.7811   -2.1804 H   0  0  0  0  0  0  0  0  0  0  0  0
   -1.6871    0.2018   -1.4557 H   0  0  0  0  0  0  0  0  0  0  0  0
    0.3059   -0.8490    2.0629 H   0  0  0  0  0  0  0  0  0  0  0  0
   -0.9124   -3.1318   -1.4705 H   0  0  0  0  0  0  0  0  0  0  0  0
    0.3085   -4.3421   -1.0141 H   0  0  0  0  0  0  0  0  0  0  0  0
   -0.7977   -3.6935    0.2239 H   0  0  0  0  0  0  0  0  0  0  0  0
  1  4  1  0  0  0  0
  1 12  1  6  0  0  0
  1  3  1  0  0  0  0
  1  2  1  0  0  0  0
  2  5  1  0  0  0  0
  2 13  1  0  0  0  0
  3  6  1  0  0  0  0
  3  7  1  0  0  0  0
  3 14  1  0  0  0  0
  4  8  1  0  0  0  0
  4  9  2  0  0  0  0
  5 10  1  0  0  0  0
  5 11  2  0  0  0  0
  6 15  1  0  0  0  0
  6 16  1  0  0  0  0
  6 17  1  0  0  0  0
  7 18  1  0  0  0  0
  7 19  1  0  0  0  0
  7 20  1  0  0  0  0
  8 21  1  0  0  0  0
 10 22  1  0  0  0  0
 10 23  1  0  0  0  0
 10 24  1  0  0  0  0
M  END
>  <Mol_ID>
7196

>  <Formula>
C7H13NO3

>  <MolWeight>
159.18302

>  <Cat>
E4196

>  <Name>
Acetylvaline

>  <Synonyms>
Ac-Val-OH

>  <Target>
Others

>  <Form>
Free base

>  <CAS>
96-81-1

>  <URL>
https://www.selleckchem.com/products/acetylvaline.html

$$$$
