Acetazolamide.cdx
 OpenBabel08302522063D

 19 19  0  0  0  0  0  0  0  0999 V2000
   -0.3215    1.1868    0.0021 C   0  0  0  0  0  0  0  0  0  0  0  0
    0.9923    0.1051   -0.1656 S   0  0  0  0  0  0  0  0  0  0  0  0
   -0.1597   -1.1510   -0.0353 C   0  0  0  0  0  0  0  0  0  0  0  0
   -1.4130   -0.7599    0.0595 N   0  0  0  0  0  0  0  0  0  0  0  0
   -1.5004    0.6187    0.0936 N   0  0  0  0  0  0  0  0  0  0  0  0
    0.3850   -2.8182   -0.0558 S   0  0  0  0  0  0  0  0  0  0  0  0
    0.0148    2.5140    0.0245 N   0  0  0  0  0  0  0  0  0  0  0  0
    0.9866   -3.0330   -1.3520 O   0  0  0  0  0  0  0  0  0  0  0  0
    1.1150   -3.0411    1.1725 O   0  0  0  0  0  0  0  0  0  0  0  0
   -0.9559   -3.8433   -0.0125 N   0  0  0  0  0  0  0  0  0  0  0  0
   -0.9179    3.4724    0.3503 C   0  0  0  0  0  0  0  0  0  0  0  0
   -0.3789    4.8786    0.2956 C   0  0  0  0  0  0  0  0  0  0  0  0
   -2.0810    3.2745    0.6842 O   0  0  0  0  0  0  0  0  0  0  0  0
    0.9831    2.7530   -0.1262 H   0  0  0  0  0  0  0  0  0  0  0  0
   -1.4037   -3.8906   -0.9280 H   0  0  0  0  0  0  0  0  0  0  0  0
   -0.6896   -4.7589    0.3480 H   0  0  0  0  0  0  0  0  0  0  0  0
   -1.0049    5.4686   -0.3800 H   0  0  0  0  0  0  0  0  0  0  0  0
   -0.4139    5.3107    1.2997 H   0  0  0  0  0  0  0  0  0  0  0  0
    0.6517    4.9136   -0.0663 H   0  0  0  0  0  0  0  0  0  0  0  0
  1  2  1  0  0  0  0
  1  7  1  0  0  0  0
  2  3  1  0  0  0  0
  3  4  2  0  0  0  0
  3  6  1  0  0  0  0
  4  5  1  0  0  0  0
  5  1  2  0  0  0  0
  6  8  2  0  0  0  0
  6  9  2  0  0  0  0
  6 10  1  0  0  0  0
  7 11  1  0  0  0  0
  7 14  1  0  0  0  0
 10 15  1  0  0  0  0
 10 16  1  0  0  0  0
 11 12  1  0  0  0  0
 11 13  2  0  0  0  0
 12 17  1  0  0  0  0
 12 18  1  0  0  0  0
 12 19  1  0  0  0  0
M  END
>  <Mol_ID>
1472

>  <Formula>
C4H6N4O3S2

>  <MolWeight>
222.24544

>  <Cat>
S4506

>  <Name>
Acetazolamide

>  <Synonyms>
Diamox

>  <Target>
Carbonic Anhydrase

>  <Form>
free base

>  <CAS>
59-66-5

>  <URL>
http://selleckchem.com/products/acetazolamide.html

$$$$
