Acipimox.cdx
 OpenBabel08302521223D

 17 17  0  0  0  0  0  0  0  0999 V2000
   -0.7067    1.1467   -0.0228 C   0  0  0  0  0  0  0  0  0  0  0  0
   -1.3595   -0.0739   -0.0670 C   0  0  0  0  0  0  0  0  0  0  0  0
   -0.5903   -1.2274   -0.0712 N   0  3  0  0  0  0  0  0  0  0  0  0
    0.7788   -1.1282   -0.0477 C   0  0  0  0  0  0  0  0  0  0  0  0
    1.3537    0.1223   -0.0246 C   0  0  0  0  0  0  0  0  0  0  0  0
    0.6322    1.2679   -0.0015 N   0  0  0  0  0  0  0  0  0  0  0  0
   -1.1315   -2.3790   -0.1036 O   0  5  0  0  0  0  0  0  0  0  0  0
   -2.8426   -0.2057   -0.1373 C   0  0  0  0  0  0  0  0  0  0  0  0
    2.8375    0.2152   -0.0537 C   0  0  0  0  0  0  0  0  0  0  0  0
    3.6004   -0.7338   -0.1087 O   0  0  0  0  0  0  0  0  0  0  0  0
    3.2923    1.4820   -0.0317 O   0  0  0  0  0  0  0  0  0  0  0  0
   -1.2554    2.0847   -0.0108 H   0  0  0  0  0  0  0  0  0  0  0  0
    1.2982   -2.0714   -0.0647 H   0  0  0  0  0  0  0  0  0  0  0  0
   -3.1324   -0.6823   -1.0790 H   0  0  0  0  0  0  0  0  0  0  0  0
   -3.2181   -0.8032    0.6989 H   0  0  0  0  0  0  0  0  0  0  0  0
   -3.3306    0.7735   -0.0948 H   0  0  0  0  0  0  0  0  0  0  0  0
    4.2671    1.4067   -0.0748 H   0  0  0  0  0  0  0  0  0  0  0  0
  1  2  2  0  0  0  0
  1 12  1  0  0  0  0
  2  3  1  0  0  0  0
  2  8  1  0  0  0  0
  3  4  2  0  0  0  0
  3  7  1  0  0  0  0
  4  5  1  0  0  0  0
  4 13  1  0  0  0  0
  5  6  2  0  0  0  0
  5  9  1  0  0  0  0
  6  1  1  0  0  0  0
  8 14  1  0  0  0  0
  8 15  1  0  0  0  0
  8 16  1  0  0  0  0
  9 10  2  0  0  0  0
  9 11  1  0  0  0  0
 11 17  1  0  0  0  0
M  CHG  2   3   1   7  -1
M  END
>  <Mol_ID>
447

>  <Formula>
C6H6N2O3

>  <MolWeight>
154.12344

>  <Cat>
S1806

>  <Name>
Acipimox

>  <Synonyms>
Olbemox,K-9321

>  <Target>
Others

>  <Form>
free base

>  <CAS>
51037-30-0

>  <URL>
http://selleckchem.com/products/Acipimox.html

$$$$
