Acridone
 OpenBabel08302521363D

 24 26  0  0  0  0  0  0  0  0999 V2000
   -0.0030    2.4824   -0.0515 O   0  0  0  0  0  0  0  0  0  0  0  0
   -1.2313   -0.9063   -0.0619 C   0  0  0  0  0  0  0  0  0  0  0  0
   -1.2767    0.4965   -0.0115 C   0  0  0  0  0  0  0  0  0  0  0  0
    0.0025   -1.5747   -0.0481 N   0  0  0  0  0  0  0  0  0  0  0  0
   -2.4324   -1.6197   -0.0109 C   0  0  0  0  0  0  0  0  0  0  0  0
   -0.0013    1.2555   -0.0292 C   0  0  0  0  0  0  0  0  0  0  0  0
   -2.4976    1.1754    0.0614 C   0  0  0  0  0  0  0  0  0  0  0  0
    1.2342   -0.9026   -0.0594 C   0  0  0  0  0  0  0  0  0  0  0  0
   -3.6544   -0.9439    0.0669 C   0  0  0  0  0  0  0  0  0  0  0  0
    1.2757    0.5000   -0.0153 C   0  0  0  0  0  0  0  0  0  0  0  0
   -3.6873    0.4506    0.1031 C   0  0  0  0  0  0  0  0  0  0  0  0
    2.4375   -1.6124   -0.0015 C   0  0  0  0  0  0  0  0  0  0  0  0
    2.4966    1.1831    0.0495 C   0  0  0  0  0  0  0  0  0  0  0  0
    3.6578   -0.9330    0.0720 C   0  0  0  0  0  0  0  0  0  0  0  0
    3.6877    0.4617    0.0946 C   0  0  0  0  0  0  0  0  0  0  0  0
    0.0045   -2.5521   -0.3102 H   0  0  0  0  0  0  0  0  0  0  0  0
   -2.4293   -2.7063   -0.0180 H   0  0  0  0  0  0  0  0  0  0  0  0
   -2.5186    2.2621    0.0990 H   0  0  0  0  0  0  0  0  0  0  0  0
   -4.5835   -1.5075    0.1114 H   0  0  0  0  0  0  0  0  0  0  0  0
   -4.6381    0.9732    0.1739 H   0  0  0  0  0  0  0  0  0  0  0  0
    2.4364   -2.6989    0.0003 H   0  0  0  0  0  0  0  0  0  0  0  0
    2.5148    2.2700    0.0790 H   0  0  0  0  0  0  0  0  0  0  0  0
    4.5879   -1.4944    0.1238 H   0  0  0  0  0  0  0  0  0  0  0  0
    4.6374    0.9870    0.1612 H   0  0  0  0  0  0  0  0  0  0  0  0
  1  6  2  0  0  0  0
  2  3  2  0  0  0  0
  2  4  1  0  0  0  0
  2  5  1  0  0  0  0
  3  6  1  0  0  0  0
  3  7  1  0  0  0  0
  4  8  1  0  0  0  0
  4 16  1  0  0  0  0
  5  9  2  0  0  0  0
  5 17  1  0  0  0  0
  6 10  1  0  0  0  0
  7 11  2  0  0  0  0
  7 18  1  0  0  0  0
  8 10  2  0  0  0  0
  8 12  1  0  0  0  0
  9 11  1  0  0  0  0
  9 19  1  0  0  0  0
 10 13  1  0  0  0  0
 11 20  1  0  0  0  0
 12 14  2  0  0  0  0
 12 21  1  0  0  0  0
 13 15  2  0  0  0  0
 13 22  1  0  0  0  0
 14 15  1  0  0  0  0
 14 23  1  0  0  0  0
 15 24  1  0  0  0  0
M  END
>  <Mol_ID>
7161

>  <Formula>
C13H9NO

>  <MolWeight>
195.21666

>  <Cat>
E4152

>  <Name>
Acridone

>  <Synonyms>
Acridone

>  <Target>
ABC;Antibacterial

>  <Form>
free base

>  <CAS>
578-95-0

>  <URL>
https://www.selleckchem.com/products/acridone.html

$$$$
