Acrivastine
 OpenBabel08302520343D

 50 52  0  0  0  0  0  0  0  0999 V2000
    2.3641    0.0052    0.0286 C   0  0  0  0  0  0  0  0  0  0  0  0
    3.1127   -1.2747   -0.0443 C   0  0  0  0  0  0  0  0  0  0  0  0
    0.8859    0.0584   -0.0125 C   0  0  0  0  0  0  0  0  0  0  0  0
    3.1353    1.1178    0.0748 C   0  0  0  0  0  0  0  0  0  0  0  0
    3.4382   -1.8777    1.1289 N   0  0  0  0  0  0  0  0  0  0  0  0
    3.4989   -1.7644   -1.2877 C   0  0  0  0  0  0  0  0  0  0  0  0
    0.1904    0.1046   -1.2269 C   0  0  0  0  0  0  0  0  0  0  0  0
    0.1515   -0.0005    1.1784 C   0  0  0  0  0  0  0  0  0  0  0  0
    2.7239    2.5602    0.0104 C   0  0  0  0  0  0  0  0  0  0  0  0
    4.1708   -3.0149    1.0500 C   0  0  0  0  0  0  0  0  0  0  0  0
    4.2477   -2.9312   -1.3424 C   0  0  0  0  0  0  0  0  0  0  0  0
   -1.2121    0.0941   -1.2485 C   0  0  0  0  0  0  0  0  0  0  0  0
   -1.2482   -0.0049    1.1580 C   0  0  0  0  0  0  0  0  0  0  0  0
    3.1716    3.3388    1.1758 N   0  0  0  0  0  0  0  0  0  0  0  0
    4.5886   -3.5686   -0.1553 C   0  0  0  0  0  0  0  0  0  0  0  0
    4.5484   -3.6748    2.3045 C   0  0  0  0  0  0  0  0  0  0  0  0
   -1.9423    0.0456   -0.0560 C   0  0  0  0  0  0  0  0  0  0  0  0
    2.4651    2.9642    2.4109 C   0  0  0  0  0  0  0  0  0  0  0  0
    2.8832    4.7763    0.9802 C   0  0  0  0  0  0  0  0  0  0  0  0
    4.2326   -3.2094    3.5252 C   0  0  0  0  0  0  0  0  0  0  0  0
   -3.4447    0.0192   -0.0653 C   0  0  0  0  0  0  0  0  0  0  0  0
    1.2128    3.8167    2.4261 C   0  0  0  0  0  0  0  0  0  0  0  0
    1.7086    5.1409    1.8841 C   0  0  0  0  0  0  0  0  0  0  0  0
    4.6780   -3.9632    4.7109 C   0  0  0  0  0  0  0  0  0  0  0  0
    4.2951   -3.3727    5.8602 O   0  0  0  0  0  0  0  0  0  0  0  0
    5.3174   -5.0012    4.6722 O   0  0  0  0  0  0  0  0  0  0  0  0
    4.2182    0.9897    0.1283 H   0  0  0  0  0  0  0  0  0  0  0  0
    3.2354   -1.2381   -2.2004 H   0  0  0  0  0  0  0  0  0  0  0  0
    0.7305    0.1320   -2.1699 H   0  0  0  0  0  0  0  0  0  0  0  0
    0.6698   -0.0637    2.1329 H   0  0  0  0  0  0  0  0  0  0  0  0
    3.2436    2.9610   -0.8721 H   0  0  0  0  0  0  0  0  0  0  0  0
    1.6541    2.6839   -0.1840 H   0  0  0  0  0  0  0  0  0  0  0  0
    4.5721   -3.3348   -2.2983 H   0  0  0  0  0  0  0  0  0  0  0  0
   -1.7285    0.1153   -2.2057 H   0  0  0  0  0  0  0  0  0  0  0  0
   -1.7936   -0.0612    2.0978 H   0  0  0  0  0  0  0  0  0  0  0  0
    5.1814   -4.4789   -0.1835 H   0  0  0  0  0  0  0  0  0  0  0  0
    5.1246   -4.5945    2.2103 H   0  0  0  0  0  0  0  0  0  0  0  0
    3.1006    3.2290    3.2657 H   0  0  0  0  0  0  0  0  0  0  0  0
    2.2480    1.8969    2.5040 H   0  0  0  0  0  0  0  0  0  0  0  0
    2.6621    5.0314   -0.0633 H   0  0  0  0  0  0  0  0  0  0  0  0
    3.7633    5.3650    1.2645 H   0  0  0  0  0  0  0  0  0  0  0  0
    3.6639   -2.2993    3.6498 H   0  0  0  0  0  0  0  0  0  0  0  0
   -3.8105   -0.9390    0.3177 H   0  0  0  0  0  0  0  0  0  0  0  0
   -3.8433    0.8282    0.5562 H   0  0  0  0  0  0  0  0  0  0  0  0
   -3.8442    0.1527   -1.0764 H   0  0  0  0  0  0  0  0  0  0  0  0
    0.4468    3.3980    1.7631 H   0  0  0  0  0  0  0  0  0  0  0  0
    0.7827    3.9137    3.4268 H   0  0  0  0  0  0  0  0  0  0  0  0
    0.9205    5.6799    1.3494 H   0  0  0  0  0  0  0  0  0  0  0  0
    2.0549    5.7758    2.7086 H   0  0  0  0  0  0  0  0  0  0  0  0
    3.7957   -2.5434    5.7493 H   0  0  0  0  0  0  0  0  0  0  0  0
  1  2  1  0  0  0  0
  1  3  1  0  0  0  0
  1  4  2  0  0  0  0
  2  5  2  0  0  0  0
  2  6  1  0  0  0  0
  3  7  2  0  0  0  0
  3  8  1  0  0  0  0
  4  9  1  0  0  0  0
  4 27  1  0  0  0  0
  5 10  1  0  0  0  0
  6 11  2  0  0  0  0
  6 28  1  0  0  0  0
  7 12  1  0  0  0  0
  7 29  1  0  0  0  0
  8 13  2  0  0  0  0
  8 30  1  0  0  0  0
  9 14  1  0  0  0  0
  9 31  1  0  0  0  0
  9 32  1  0  0  0  0
 10 15  2  0  0  0  0
 10 16  1  0  0  0  0
 11 15  1  0  0  0  0
 11 33  1  0  0  0  0
 12 17  2  0  0  0  0
 12 34  1  0  0  0  0
 13 17  1  0  0  0  0
 13 35  1  0  0  0  0
 14 18  1  0  0  0  0
 14 19  1  0  0  0  0
 15 36  1  0  0  0  0
 16 20  2  0  0  0  0
 16 37  1  0  0  0  0
 17 21  1  0  0  0  0
 18 22  1  0  0  0  0
 18 38  1  0  0  0  0
 18 39  1  0  0  0  0
 19 23  1  0  0  0  0
 19 40  1  0  0  0  0
 19 41  1  0  0  0  0
 20 24  1  0  0  0  0
 20 42  1  0  0  0  0
 21 43  1  0  0  0  0
 21 44  1  0  0  0  0
 21 45  1  0  0  0  0
 22 23  1  0  0  0  0
 22 46  1  0  0  0  0
 22 47  1  0  0  0  0
 23 48  1  0  0  0  0
 23 49  1  0  0  0  0
 24 25  1  0  0  0  0
 24 26  2  0  0  0  0
 25 50  1  0  0  0  0
M  END
>  <Mol_ID>
3374

>  <Formula>
C22H24N2O2

>  <MolWeight>
348.43816

>  <Cat>
S5718

>  <Name>
Acrivastine

>  <Synonyms>
BW825C

>  <Target>
Histamine Receptor

>  <Form>
Free Base

>  <CAS>
87848-99-5

>  <URL>
http://www.selleckchem.com/products/acrivastine.html

$$$$
