ACSS2 inhibitor.cdx
 OpenBabel08302520433D

 46 49  0  0  0  0  0  0  0  0999 V2000
    0.1026   -0.3827   -0.4395 C   0  0  0  0  0  0  0  0  0  0  0  0
    0.0676    0.9925   -0.1272 C   0  0  0  0  0  0  0  0  0  0  0  0
   -1.1703    1.5929    0.0661 C   0  0  0  0  0  0  0  0  0  0  0  0
   -2.3635    0.8558   -0.0117 C   0  0  0  0  0  0  0  0  0  0  0  0
   -2.3201   -0.4958   -0.3392 C   0  0  0  0  0  0  0  0  0  0  0  0
   -1.0816   -1.0825   -0.6067 C   0  0  0  0  0  0  0  0  0  0  0  0
    1.2581   -1.0639   -0.5040 N   0  0  0  0  0  0  0  0  0  0  0  0
    2.4013   -0.3697   -0.2612 C   0  0  0  0  0  0  0  0  0  0  0  0
    2.3787    1.0182   -0.0742 C   0  0  0  0  0  0  0  0  0  0  0  0
    1.2052    1.7057    0.0052 N   0  0  0  0  0  0  0  0  0  0  0  0
    3.5925   -1.2088   -0.0735 C   0  0  0  0  0  0  0  0  0  0  0  0
    3.5927    1.8599   -0.0303 C   0  0  0  0  0  0  0  0  0  0  0  0
   -3.4370   -1.3530   -0.3582 N   0  0  0  0  0  0  0  0  0  0  0  0
   -4.6909   -1.0980    0.0984 C   0  0  0  0  0  0  0  0  0  0  0  0
   -5.0908   -0.0338    0.5632 O   0  0  0  0  0  0  0  0  0  0  0  0
   -5.5869   -2.1233    0.0395 N   0  0  0  0  0  0  0  0  0  0  0  0
   -5.4104   -3.5689   -0.0957 C   0  0  0  0  0  0  0  0  0  0  0  0
   -4.7120   -4.0670   -1.3653 C   0  0  0  0  0  0  0  0  0  0  0  0
   -3.2958   -3.8924   -1.2377 O   0  0  0  0  0  0  0  0  0  0  0  0
   -2.6061   -4.3124   -2.4123 C   0  0  0  0  0  0  0  0  0  0  0  0
    4.6017   -1.0964    0.8771 C   0  0  0  0  0  0  0  0  0  0  0  0
    5.6374   -2.0588    0.7065 C   0  0  0  0  0  0  0  0  0  0  0  0
    5.3614   -2.9280   -0.3228 C   0  0  0  0  0  0  0  0  0  0  0  0
    3.8792   -2.5639   -1.0934 S   0  0  0  0  0  0  0  0  0  0  0  0
    4.7742    1.7180   -0.7436 C   0  0  0  0  0  0  0  0  0  0  0  0
    5.7470    2.7055   -0.4188 C   0  0  0  0  0  0  0  0  0  0  0  0
    5.2719    3.6022    0.5087 C   0  0  0  0  0  0  0  0  0  0  0  0
    3.6776    3.2299    1.0060 S   0  0  0  0  0  0  0  0  0  0  0  0
   -1.2103    2.6486    0.3293 H   0  0  0  0  0  0  0  0  0  0  0  0
   -3.2972    1.3672    0.1972 H   0  0  0  0  0  0  0  0  0  0  0  0
   -1.0162   -2.1311   -0.8844 H   0  0  0  0  0  0  0  0  0  0  0  0
   -3.2554   -2.3154   -0.6242 H   0  0  0  0  0  0  0  0  0  0  0  0
   -6.4323   -1.8358    0.5184 H   0  0  0  0  0  0  0  0  0  0  0  0
   -4.8898   -3.9205    0.8010 H   0  0  0  0  0  0  0  0  0  0  0  0
   -6.4277   -3.9765   -0.0888 H   0  0  0  0  0  0  0  0  0  0  0  0
   -4.9093   -5.1404   -1.4761 H   0  0  0  0  0  0  0  0  0  0  0  0
   -5.0798   -3.5382   -2.2507 H   0  0  0  0  0  0  0  0  0  0  0  0
   -2.8852   -5.3345   -2.6835 H   0  0  0  0  0  0  0  0  0  0  0  0
   -2.8222   -3.6266   -3.2360 H   0  0  0  0  0  0  0  0  0  0  0  0
   -1.5325   -4.2860   -2.2063 H   0  0  0  0  0  0  0  0  0  0  0  0
    4.6135   -0.3353    1.6468 H   0  0  0  0  0  0  0  0  0  0  0  0
    6.5313   -2.1141    1.3161 H   0  0  0  0  0  0  0  0  0  0  0  0
    5.9590   -3.7634   -0.6607 H   0  0  0  0  0  0  0  0  0  0  0  0
    4.9481    0.9264   -1.4628 H   0  0  0  0  0  0  0  0  0  0  0  0
    6.7380    2.7582   -0.8534 H   0  0  0  0  0  0  0  0  0  0  0  0
    5.7827    4.4615    0.9194 H   0  0  0  0  0  0  0  0  0  0  0  0
  1  2  1  0  0  0  0
  1  7  1  0  0  0  0
  2  3  2  0  0  0  0
  3  4  1  0  0  0  0
  3 29  1  0  0  0  0
  4  5  2  0  0  0  0
  4 30  1  0  0  0  0
  5  6  1  0  0  0  0
  5 13  1  0  0  0  0
  6  1  2  0  0  0  0
  6 31  1  0  0  0  0
  7  8  2  0  0  0  0
  8  9  1  0  0  0  0
  8 11  1  0  0  0  0
  9 10  2  0  0  0  0
  9 12  1  0  0  0  0
 10  2  1  0  0  0  0
 11 21  2  0  0  0  0
 12 25  2  0  0  0  0
 13 14  1  0  0  0  0
 13 32  1  0  0  0  0
 14 15  2  0  0  0  0
 14 16  1  0  0  0  0
 16 17  1  0  0  0  0
 16 33  1  0  0  0  0
 17 18  1  0  0  0  0
 17 34  1  0  0  0  0
 17 35  1  0  0  0  0
 18 19  1  0  0  0  0
 18 36  1  0  0  0  0
 18 37  1  0  0  0  0
 19 20  1  0  0  0  0
 20 38  1  0  0  0  0
 20 39  1  0  0  0  0
 20 40  1  0  0  0  0
 21 22  1  0  0  0  0
 21 41  1  0  0  0  0
 22 23  2  0  0  0  0
 22 42  1  0  0  0  0
 23 24  1  0  0  0  0
 23 43  1  0  0  0  0
 24 11  1  0  0  0  0
 25 26  1  0  0  0  0
 25 44  1  0  0  0  0
 26 27  2  0  0  0  0
 26 45  1  0  0  0  0
 27 28  1  0  0  0  0
 27 46  1  0  0  0  0
 28 12  1  0  0  0  0
M  END
>  <Mol_ID>
4166

>  <Formula>
C20H18N4O2S2

>  <MolWeight>
410.51252

>  <Cat>
S8588

>  <Name>
ACSS2 inhibitor

>  <Synonyms>
N/A

>  <Target>
ACSS2,RSV

>  <Form>
free base

>  <CAS>
508186-14-9

>  <URL>
http://selleckchem.com/products/acss2-inhibitor.html

$$$$
