ACT001(DMAMCL)
 OpenBabel08302521353D

 48 50  0  0  1  0  0  0  0  0999 V2000
    2.5621    1.0089    1.4323 C   0  0  0  0  0  0  0  0  0  0  0  0
    1.5715    0.5017   -0.6721 O   0  0  0  0  0  0  0  0  0  0  0  0
   -3.8297    0.4204    3.0402 C   0  0  0  0  0  0  0  0  0  0  0  0
   -4.5022   -0.8282    3.4470 N   0  0  0  0  0  0  0  0  0  0  0  0
   -4.3712   -1.1061    4.8793 C   0  0  0  0  0  0  0  0  0  0  0  0
   -5.9194   -0.8123    3.0786 C   0  0  0  0  0  0  0  0  0  0  0  0
   -2.1074    2.7658    2.6207 O   0  0  0  0  0  0  0  0  0  0  0  0
    1.0894   -4.4367    2.7567 C   0  0  0  0  0  0  0  0  0  0  0  0
   -0.1940   -0.0880    2.2536 C   0  0  2  0  0  0  0  0  0  0  0  0
    0.6576   -0.8160    1.1903 C   0  0  2  0  0  0  0  0  0  0  0  0
   -1.5864   -0.7017    2.4112 C   0  0  2  0  0  0  0  0  0  0  0  0
   -0.5046    1.2731    1.9287 O   0  0  0  0  0  0  0  0  0  0  0  0
    1.2354   -2.1283    1.7377 C   0  0  0  0  0  0  0  0  0  0  0  0
    1.8973   -0.0830    0.5926 C   0  0  2  0  0  0  0  0  0  0  0  0
   -2.2992    0.3985    3.1969 C   0  0  1  0  0  0  0  0  0  0  0  0
   -1.6046   -2.0843    3.0571 C   0  0  0  0  0  0  0  0  0  0  0  0
   -1.6701    1.6241    2.5633 C   0  0  0  0  0  0  0  0  0  0  0  0
    2.7301   -2.1240    1.5713 C   0  0  0  0  0  0  0  0  0  0  0  0
    0.5068   -3.1678    2.1923 C   0  0  0  0  0  0  0  0  0  0  0  0
    2.8977   -1.2295    0.3554 C   0  0  0  0  0  0  0  0  0  0  0  0
   -0.9991   -3.1564    2.1608 C   0  0  0  0  0  0  0  0  0  0  0  0
    1.8636    1.7975    1.7189 H   0  0  0  0  0  0  0  0  0  0  0  0
    3.0365    0.6191    2.3371 H   0  0  0  0  0  0  0  0  0  0  0  0
    3.3373    1.5114    0.8379 H   0  0  0  0  0  0  0  0  0  0  0  0
    1.2356   -0.1971   -1.2591 H   0  0  0  0  0  0  0  0  0  0  0  0
   -4.2431    1.2709    3.5972 H   0  0  0  0  0  0  0  0  0  0  0  0
   -4.0584    0.6127    1.9841 H   0  0  0  0  0  0  0  0  0  0  0  0
   -4.8479   -0.3399    5.4968 H   0  0  0  0  0  0  0  0  0  0  0  0
   -4.8211   -2.0782    5.1145 H   0  0  0  0  0  0  0  0  0  0  0  0
   -3.3227   -1.1871    5.1809 H   0  0  0  0  0  0  0  0  0  0  0  0
   -6.4710   -0.0193    3.5955 H   0  0  0  0  0  0  0  0  0  0  0  0
   -6.0416   -0.6768    1.9983 H   0  0  0  0  0  0  0  0  0  0  0  0
   -6.3877   -1.7731    3.3239 H   0  0  0  0  0  0  0  0  0  0  0  0
    0.6777   -4.6183    3.7566 H   0  0  0  0  0  0  0  0  0  0  0  0
    0.8297   -5.2872    2.1183 H   0  0  0  0  0  0  0  0  0  0  0  0
    2.1757   -4.4074    2.8627 H   0  0  0  0  0  0  0  0  0  0  0  0
    0.3483   -0.0752    3.2102 H   0  0  0  0  0  0  0  0  0  0  0  0
    0.0007   -1.0613    0.3440 H   0  0  0  0  0  0  0  0  0  0  0  0
   -2.0586   -0.7667    1.4211 H   0  0  0  0  0  0  0  0  0  0  0  0
   -2.0054    0.3906    4.2500 H   0  0  0  0  0  0  0  0  0  0  0  0
   -1.1136   -2.0656    4.0378 H   0  0  0  0  0  0  0  0  0  0  0  0
   -2.6348   -2.3986    3.2291 H   0  0  0  0  0  0  0  0  0  0  0  0
    3.1584   -3.1114    1.3832 H   0  0  0  0  0  0  0  0  0  0  0  0
    3.2073   -1.6923    2.4579 H   0  0  0  0  0  0  0  0  0  0  0  0
    2.6486   -1.7838   -0.5602 H   0  0  0  0  0  0  0  0  0  0  0  0
    3.9294   -0.8820    0.2407 H   0  0  0  0  0  0  0  0  0  0  0  0
   -1.3502   -3.0458    1.1264 H   0  0  0  0  0  0  0  0  0  0  0  0
   -1.3808   -4.1320    2.4894 H   0  0  0  0  0  0  0  0  0  0  0  0
  1 22  1  0  0  0  0
  1 23  1  0  0  0  0
  1 24  1  0  0  0  0
  2 25  1  0  0  0  0
  3  4  1  0  0  0  0
  3 26  1  0  0  0  0
  3 27  1  0  0  0  0
  4  5  1  0  0  0  0
  4  6  1  0  0  0  0
  5 28  1  0  0  0  0
  5 29  1  0  0  0  0
  5 30  1  0  0  0  0
  6 31  1  0  0  0  0
  6 32  1  0  0  0  0
  6 33  1  0  0  0  0
  7 17  2  0  0  0  0
  8 19  1  0  0  0  0
  8 34  1  0  0  0  0
  8 35  1  0  0  0  0
  8 36  1  0  0  0  0
  9 10  1  0  0  0  0
  9 11  1  0  0  0  0
  9 12  1  0  0  0  0
  9 37  1  1  0  0  0
 10 13  1  0  0  0  0
 10 14  1  0  0  0  0
 10 38  1  6  0  0  0
 11 15  1  0  0  0  0
 11 16  1  0  0  0  0
 11 39  1  6  0  0  0
 12 17  1  0  0  0  0
 13 18  1  0  0  0  0
 13 19  2  0  0  0  0
 14 20  1  0  0  0  0
 14  2  1  6  0  0  0
 14  1  1  0  0  0  0
 15 17  1  0  0  0  0
 15 40  1  1  0  0  0
 15  3  1  0  0  0  0
 16 21  1  0  0  0  0
 16 41  1  0  0  0  0
 16 42  1  0  0  0  0
 18 20  1  0  0  0  0
 18 43  1  0  0  0  0
 18 44  1  0  0  0  0
 19 21  1  0  0  0  0
 20 45  1  0  0  0  0
 20 46  1  0  0  0  0
 21 47  1  0  0  0  0
 21 48  1  0  0  0  0
M  END
>  <Mol_ID>
6954

>  <Formula>
C17H27NO3

>  <MolWeight>
293.40118

>  <Cat>
E1603

>  <Name>
ACT001(DMAMCL)

>  <Synonyms>
DMAMCL, dimethylaminomicheliolide

>  <Target>
PAI-1

>  <Form>
free base

>  <CAS>
1403357-81-2

>  <URL>
https://www.selleckchem.com/products/act001-dmamcl.html

$$$$
