ACTIN-N (nitrofurazone).cdx
 OpenBabel08302520393D

 20 20  0  0  0  0  0  0  0  0999 V2000
   -0.1700    1.0767   -0.0104 C   0  0  0  0  0  0  0  0  0  0  0  0
    1.1258    0.6208   -0.0008 C   0  0  0  0  0  0  0  0  0  0  0  0
    1.0252   -0.7957   -0.0007 C   0  0  0  0  0  0  0  0  0  0  0  0
   -0.3245   -1.1049   -0.0104 C   0  0  0  0  0  0  0  0  0  0  0  0
   -1.0617    0.0513   -0.0158 O   0  0  0  0  0  0  0  0  0  0  0  0
   -0.7141    2.3987   -0.0161 N   0  3  0  0  0  0  0  0  0  0  0  0
   -1.0412   -2.3539   -0.0156 C   0  0  0  0  0  0  0  0  0  0  0  0
   -0.4006   -3.4791   -0.0181 N   0  0  0  0  0  0  0  0  0  0  0  0
   -1.0901   -4.6687   -0.0237 N   0  0  0  0  0  0  0  0  0  0  0  0
   -2.4535   -4.8733   -0.0377 C   0  0  0  0  0  0  0  0  0  0  0  0
   -2.7944   -6.1911   -0.0355 N   0  0  0  0  0  0  0  0  0  0  0  0
   -3.3384   -4.0310   -0.0486 O   0  0  0  0  0  0  0  0  0  0  0  0
    0.1065    3.3265   -0.0146 O   0  5  0  0  0  0  0  0  0  0  0  0
   -1.9448    2.5193   -0.0220 O   0  0  0  0  0  0  0  0  0  0  0  0
    2.0217    1.2277    0.0051 H   0  0  0  0  0  0  0  0  0  0  0  0
    1.8343   -1.5143    0.0058 H   0  0  0  0  0  0  0  0  0  0  0  0
   -2.1346   -2.2494   -0.0167 H   0  0  0  0  0  0  0  0  0  0  0  0
   -0.4916   -5.4840   -0.0215 H   0  0  0  0  0  0  0  0  0  0  0  0
   -3.7851   -6.3971   -0.0565 H   0  0  0  0  0  0  0  0  0  0  0  0
   -2.1377   -6.9532   -0.0564 H   0  0  0  0  0  0  0  0  0  0  0  0
  1  2  2  0  0  0  0
  1  6  1  0  0  0  0
  2  3  1  0  0  0  0
  2 15  1  0  0  0  0
  3  4  2  0  0  0  0
  3 16  1  0  0  0  0
  4  5  1  0  0  0  0
  4  7  1  0  0  0  0
  5  1  1  0  0  0  0
  6 13  1  0  0  0  0
  6 14  2  0  0  0  0
  7  8  2  0  0  0  0
  7 17  1  0  0  0  0
  8  9  1  0  0  0  0
  9 10  1  0  0  0  0
  9 18  1  0  0  0  0
 10 11  1  0  0  0  0
 10 12  2  0  0  0  0
 11 19  1  0  0  0  0
 11 20  1  0  0  0  0
M  CHG  2   6   1  13  -1
M  END
>  <Mol_ID>
367

>  <Formula>
C6H6N4O4

>  <MolWeight>
198.13624

>  <Cat>
S1644

>  <Name>
Nitrofural

>  <Synonyms>
Nitrofurazone

>  <Target>
Anti-infection

>  <Form>
free base

>  <CAS>
59-87-0

>  <URL>
http://selleckchem.com/products/Nitrofurazone(ACTIN-N).html

$$$$
