ACTRON (ketoprofen).cdx
 OpenBabel08302520393D

 33 34  0  0  0  0  0  0  0  0999 V2000
    1.0756   -0.2325   -1.1409 C   0  0  0  0  0  0  0  0  0  0  0  0
    0.0710   -1.0584   -1.6460 C   0  0  0  0  0  0  0  0  0  0  0  0
   -1.2684   -0.6988   -1.5010 C   0  0  0  0  0  0  0  0  0  0  0  0
   -1.6044    0.4932   -0.8591 C   0  0  0  0  0  0  0  0  0  0  0  0
   -0.5993    1.3324   -0.3633 C   0  0  0  0  0  0  0  0  0  0  0  0
    0.7432    0.9576   -0.4909 C   0  0  0  0  0  0  0  0  0  0  0  0
   -1.0083    2.5735    0.3419 C   0  0  0  0  0  0  0  0  0  0  0  0
   -0.1395    3.7741    0.4047 C   0  0  0  0  0  0  0  0  0  0  0  0
   -2.0998    2.6164    0.9058 O   0  0  0  0  0  0  0  0  0  0  0  0
    0.6758    4.1731   -0.6574 C   0  0  0  0  0  0  0  0  0  0  0  0
    1.4326    5.3380   -0.5452 C   0  0  0  0  0  0  0  0  0  0  0  0
    1.3391    6.1300    0.6020 C   0  0  0  0  0  0  0  0  0  0  0  0
    0.4972    5.7647    1.6648 C   0  0  0  0  0  0  0  0  0  0  0  0
   -0.2229    4.5671    1.5585 C   0  0  0  0  0  0  0  0  0  0  0  0
    0.3439    6.7037    2.8505 C   0  0  3  0  0  0  0  0  0  0  0  0
   -0.7937    7.7009    2.6653 C   0  0  0  0  0  0  0  0  0  0  0  0
    0.2223    6.0070    4.2061 C   0  0  0  0  0  0  0  0  0  0  0  0
   -2.0154    7.1632    2.4496 O   0  0  0  0  0  0  0  0  0  0  0  0
   -0.6334    8.9133    2.7337 O   0  0  0  0  0  0  0  0  0  0  0  0
    2.1181   -0.5228   -1.2431 H   0  0  0  0  0  0  0  0  0  0  0  0
    0.3315   -1.9897   -2.1416 H   0  0  0  0  0  0  0  0  0  0  0  0
   -2.0526   -1.3496   -1.8802 H   0  0  0  0  0  0  0  0  0  0  0  0
   -2.6524    0.7630   -0.7402 H   0  0  0  0  0  0  0  0  0  0  0  0
    1.5426    1.5648   -0.0753 H   0  0  0  0  0  0  0  0  0  0  0  0
    0.7175    3.6025   -1.5808 H   0  0  0  0  0  0  0  0  0  0  0  0
    2.0795    5.6474   -1.3635 H   0  0  0  0  0  0  0  0  0  0  0  0
    1.9211    7.0504    0.6510 H   0  0  0  0  0  0  0  0  0  0  0  0
   -0.8789    4.2335    2.3605 H   0  0  0  0  0  0  0  0  0  0  0  0
    1.2622    7.3063    2.9049 H   0  0  0  0  0  0  0  0  0  0  0  0
    1.0945    5.3706    4.3940 H   0  0  0  0  0  0  0  0  0  0  0  0
    0.1614    6.7446    5.0140 H   0  0  0  0  0  0  0  0  0  0  0  0
   -0.6737    5.3825    4.2785 H   0  0  0  0  0  0  0  0  0  0  0  0
   -2.0331    6.1917    2.3666 H   0  0  0  0  0  0  0  0  0  0  0  0
  1  2  2  0  0  0  0
  1 20  1  0  0  0  0
  2  3  1  0  0  0  0
  2 21  1  0  0  0  0
  3  4  2  0  0  0  0
  3 22  1  0  0  0  0
  4  5  1  0  0  0  0
  4 23  1  0  0  0  0
  5  6  2  0  0  0  0
  5  7  1  0  0  0  0
  6  1  1  0  0  0  0
  6 24  1  0  0  0  0
  7  8  1  0  0  0  0
  7  9  2  0  0  0  0
  8 10  2  0  0  0  0
 10 11  1  0  0  0  0
 10 25  1  0  0  0  0
 11 12  2  0  0  0  0
 11 26  1  0  0  0  0
 12 13  1  0  0  0  0
 12 27  1  0  0  0  0
 13 14  2  0  0  0  0
 13 15  1  0  0  0  0
 14  8  1  0  0  0  0
 14 28  1  0  0  0  0
 15 16  1  0  0  0  0
 15 17  1  0  0  0  0
 15 29  1  0  0  0  0
 16 18  1  0  0  0  0
 16 19  2  0  0  0  0
 17 30  1  0  0  0  0
 17 31  1  0  0  0  0
 17 32  1  0  0  0  0
 18 33  1  0  0  0  0
M  END
>  <Mol_ID>
368

>  <Formula>
C16H14O3

>  <MolWeight>
254.28056

>  <Cat>
S1645

>  <Name>
Ketoprofen

>  <Synonyms>
RP-19583

>  <Target>
COX

>  <Form>
free base

>  <CAS>
22071-15-4

>  <URL>
http://selleckchem.com/products/Ketoprofen(Actron).html

$$$$
