ACY-775
 OpenBabel08302521303D

 43 45  0  0  0  0  0  0  0  0999 V2000
   -0.5692   -1.4437   -2.5777 F   0  0  0  0  0  0  0  0  0  0  0  0
   -6.0308    0.4428    5.5930 O   0  0  0  0  0  0  0  0  0  0  0  0
   -8.4080   -0.7870    5.3581 O   0  0  0  0  0  0  0  0  0  0  0  0
   -3.4235    2.0082    0.1792 N   0  0  0  0  0  0  0  0  0  0  0  0
   -3.5256    1.3082    2.4360 N   0  0  0  0  0  0  0  0  0  0  0  0
   -5.3173    0.9767    0.9537 N   0  0  0  0  0  0  0  0  0  0  0  0
   -7.6878   -0.3776    4.2133 N   0  0  0  0  0  0  0  0  0  0  0  0
   -2.0115    2.3922    0.1563 C   0  0  0  0  0  0  0  0  0  0  0  0
   -1.8080    3.3200   -1.0931 C   0  0  0  0  0  0  0  0  0  0  0  0
   -1.5931    3.2431    1.3955 C   0  0  0  0  0  0  0  0  0  0  0  0
   -2.4711    4.6978   -0.9785 C   0  0  0  0  0  0  0  0  0  0  0  0
   -2.3376    4.5688    1.5208 C   0  0  0  0  0  0  0  0  0  0  0  0
   -2.0797    5.4313    0.2962 C   0  0  0  0  0  0  0  0  0  0  0  0
   -1.1309    1.1399   -0.0575 C   0  0  0  0  0  0  0  0  0  0  0  0
   -1.3020    0.3227   -1.1930 C   0  0  0  0  0  0  0  0  0  0  0  0
   -0.0747    0.8127    0.8151 C   0  0  0  0  0  0  0  0  0  0  0  0
   -4.0688    1.3907    1.2160 C   0  0  0  0  0  0  0  0  0  0  0  0
   -0.4044   -0.7073   -1.4706 C   0  0  0  0  0  0  0  0  0  0  0  0
    0.8278   -0.2148    0.5220 C   0  0  0  0  0  0  0  0  0  0  0  0
    0.6732   -0.9661   -0.6364 C   0  0  0  0  0  0  0  0  0  0  0  0
   -4.3027    0.8761    3.4511 C   0  0  0  0  0  0  0  0  0  0  0  0
   -6.0669    0.5520    1.9985 C   0  0  0  0  0  0  0  0  0  0  0  0
   -5.6139    0.4959    3.2953 C   0  0  0  0  0  0  0  0  0  0  0  0
   -6.4477    0.1746    4.4709 C   0  0  0  0  0  0  0  0  0  0  0  0
   -8.8415    0.0445    5.6321 H   0  0  0  0  0  0  0  0  0  0  0  0
   -3.8577    1.7598   -0.6965 H   0  0  0  0  0  0  0  0  0  0  0  0
   -7.8357   -0.9624    3.3984 H   0  0  0  0  0  0  0  0  0  0  0  0
   -0.7316    3.4730   -1.2568 H   0  0  0  0  0  0  0  0  0  0  0  0
   -2.1897    2.8429   -2.0051 H   0  0  0  0  0  0  0  0  0  0  0  0
   -1.6891    2.6950    2.3364 H   0  0  0  0  0  0  0  0  0  0  0  0
   -0.5229    3.4836    1.3184 H   0  0  0  0  0  0  0  0  0  0  0  0
   -2.1847    5.3068   -1.8439 H   0  0  0  0  0  0  0  0  0  0  0  0
   -3.5609    4.5883   -1.0172 H   0  0  0  0  0  0  0  0  0  0  0  0
   -1.9899    5.0950    2.4173 H   0  0  0  0  0  0  0  0  0  0  0  0
   -3.4128    4.4002    1.6478 H   0  0  0  0  0  0  0  0  0  0  0  0
   -1.0153    5.6970    0.2552 H   0  0  0  0  0  0  0  0  0  0  0  0
   -2.6373    6.3706    0.3771 H   0  0  0  0  0  0  0  0  0  0  0  0
   -2.1150    0.4906   -1.8929 H   0  0  0  0  0  0  0  0  0  0  0  0
    0.0866    1.3654    1.7371 H   0  0  0  0  0  0  0  0  0  0  0  0
    1.6572   -0.4120    1.1965 H   0  0  0  0  0  0  0  0  0  0  0  0
    1.3802   -1.7487   -0.8895 H   0  0  0  0  0  0  0  0  0  0  0  0
   -3.8209    0.8772    4.4255 H   0  0  0  0  0  0  0  0  0  0  0  0
   -7.0842    0.2949    1.7238 H   0  0  0  0  0  0  0  0  0  0  0  0
  1 18  1  0  0  0  0
  2 24  2  0  0  0  0
  3  7  1  0  0  0  0
  3 25  1  0  0  0  0
  4  8  1  0  0  0  0
  4 17  1  0  0  0  0
  4 26  1  0  0  0  0
  5 17  2  0  0  0  0
  5 21  1  0  0  0  0
  6 17  1  0  0  0  0
  6 22  2  0  0  0  0
  7 24  1  0  0  0  0
  7 27  1  0  0  0  0
  8  9  1  0  0  0  0
  8 10  1  0  0  0  0
  8 14  1  0  0  0  0
  9 11  1  0  0  0  0
  9 28  1  0  0  0  0
  9 29  1  0  0  0  0
 10 12  1  0  0  0  0
 10 30  1  0  0  0  0
 10 31  1  0  0  0  0
 11 13  1  0  0  0  0
 11 32  1  0  0  0  0
 11 33  1  0  0  0  0
 12 13  1  0  0  0  0
 12 34  1  0  0  0  0
 12 35  1  0  0  0  0
 13 36  1  0  0  0  0
 13 37  1  0  0  0  0
 14 15  2  0  0  0  0
 14 16  1  0  0  0  0
 15 18  1  0  0  0  0
 15 38  1  0  0  0  0
 16 19  2  0  0  0  0
 16 39  1  0  0  0  0
 18 20  2  0  0  0  0
 19 20  1  0  0  0  0
 19 40  1  0  0  0  0
 20 41  1  0  0  0  0
 21 23  2  0  0  0  0
 21 42  1  0  0  0  0
 22 23  1  0  0  0  0
 22 43  1  0  0  0  0
 23 24  1  0  0  0  0
M  END
>  <Mol_ID>
5712

>  <Formula>
C17H19FN4O2

>  <MolWeight>
330.3567632

>  <Cat>
S0864

>  <Name>
ACY-775

>  <Synonyms>
N/A

>  <Target>
HDAC

>  <Form>
Free Base

>  <CAS>
1375466-18-4

>  <URL>
http://www.selleckchem.com/products/acy-775.html

$$$$
