Acyclovir.cdx
 OpenBabel08302521223D

 27 28  0  0  0  0  0  0  0  0999 V2000
    6.1826    0.8852    2.1407 O   0  0  0  0  0  0  0  0  0  0  0  0
    5.8054   -0.3771    2.6811 C   0  0  0  0  0  0  0  0  0  0  0  0
    4.5134   -0.2499    3.4918 C   0  0  0  0  0  0  0  0  0  0  0  0
    3.3807    0.2566    2.7720 O   0  0  0  0  0  0  0  0  0  0  0  0
    2.9995   -0.4699    1.6074 C   0  0  0  0  0  0  0  0  0  0  0  0
    2.5760   -1.8120    1.9391 N   0  0  0  0  0  0  0  0  0  0  0  0
    3.1023   -2.9729    1.4507 C   0  0  0  0  0  0  0  0  0  0  0  0
    2.3426   -3.9707    2.0180 C   0  0  0  0  0  0  0  0  0  0  0  0
    1.3778   -3.4582    2.8484 N   0  0  0  0  0  0  0  0  0  0  0  0
    1.5536   -2.1523    2.7882 C   0  0  0  0  0  0  0  0  0  0  0  0
    4.1643   -3.0927    0.6185 N   0  0  0  0  0  0  0  0  0  0  0  0
    4.4766   -4.3349    0.3599 C   0  0  0  0  0  0  0  0  0  0  0  0
    3.7788   -5.4207    0.8467 N   0  0  0  0  0  0  0  0  0  0  0  0
    2.6812   -5.3392    1.6937 C   0  0  0  0  0  0  0  0  0  0  0  0
    2.1010   -6.3412    2.0994 O   0  0  0  0  0  0  0  0  0  0  0  0
    5.5456   -4.6099   -0.4293 N   0  0  0  0  0  0  0  0  0  0  0  0
    6.2710    0.7767    1.1789 H   0  0  0  0  0  0  0  0  0  0  0  0
    5.7056   -1.0954    1.8638 H   0  0  0  0  0  0  0  0  0  0  0  0
    6.6172   -0.7211    3.3303 H   0  0  0  0  0  0  0  0  0  0  0  0
    4.2563   -1.2086    3.9525 H   0  0  0  0  0  0  0  0  0  0  0  0
    4.6812    0.4641    4.3064 H   0  0  0  0  0  0  0  0  0  0  0  0
    2.1367    0.0333    1.1579 H   0  0  0  0  0  0  0  0  0  0  0  0
    3.7995   -0.4882    0.8629 H   0  0  0  0  0  0  0  0  0  0  0  0
    0.9863   -1.4116    3.3386 H   0  0  0  0  0  0  0  0  0  0  0  0
    4.0762   -6.3564    0.6284 H   0  0  0  0  0  0  0  0  0  0  0  0
    5.8735   -3.8095   -0.9579 H   0  0  0  0  0  0  0  0  0  0  0  0
    5.5568   -5.4778   -0.9477 H   0  0  0  0  0  0  0  0  0  0  0  0
  1  2  1  0  0  0  0
  1 17  1  0  0  0  0
  2  3  1  0  0  0  0
  2 18  1  0  0  0  0
  2 19  1  0  0  0  0
  3  4  1  0  0  0  0
  3 20  1  0  0  0  0
  3 21  1  0  0  0  0
  4  5  1  0  0  0  0
  5  6  1  0  0  0  0
  5 22  1  0  0  0  0
  5 23  1  0  0  0  0
  6  7  1  0  0  0  0
  7  8  2  0  0  0  0
  7 11  1  0  0  0  0
  8  9  1  0  0  0  0
  9 10  2  0  0  0  0
 10  6  1  0  0  0  0
 10 24  1  0  0  0  0
 11 12  2  0  0  0  0
 12 13  1  0  0  0  0
 12 16  1  0  0  0  0
 13 14  1  0  0  0  0
 13 25  1  0  0  0  0
 14  8  1  0  0  0  0
 14 15  2  0  0  0  0
 16 26  1  0  0  0  0
 16 27  1  0  0  0  0
M  END
>  <Mol_ID>
448

>  <Formula>
C8H11N5O3

>  <MolWeight>
225.20464

>  <Cat>
S1807

>  <Name>
Aciclovir (BW 248U)

>  <Synonyms>
Acyclovir, Acycloguanosine, Zovirax, ACV, NSC 645011,BW 248U

>  <Target>
Antiviral,Apoptosis related,DNA/RNA Synthesis,Nucleoside Analog/Antimetabolite

>  <Form>
free base

>  <CAS>
59277-89-3

>  <URL>
http://selleckchem.com/products/Acyclovir(Aciclovir).html

$$$$
