ADALAT (nifedipine).cdx
 OpenBabel08302521223D

 43 44  0  0  0  0  0  0  0  0999 V2000
    1.1513   -0.0314   -0.3088 C   0  0  0  0  0  0  0  0  0  0  0  0
    0.2815   -1.1348   -0.2707 C   0  0  0  0  0  0  0  0  0  0  0  0
   -1.0764   -1.0192    0.1247 C   0  0  0  0  0  0  0  0  0  0  0  0
   -1.4705    0.2695    0.5677 C   0  0  0  0  0  0  0  0  0  0  0  0
   -0.5822    1.3702    0.5709 C   0  0  0  0  0  0  0  0  0  0  0  0
    0.7223    1.2213    0.1129 C   0  0  0  0  0  0  0  0  0  0  0  0
   -2.0507   -2.1975   -0.1777 C   0  0  3  0  0  0  0  0  0  0  0  0
   -2.1584   -3.3552    0.8773 C   0  0  0  0  0  0  0  0  0  0  0  0
   -1.7537   -4.6125    0.5484 C   0  0  0  0  0  0  0  0  0  0  0  0
   -1.1831   -4.8425   -0.6892 N   0  0  0  0  0  0  0  0  0  0  0  0
   -1.2762   -4.0026   -1.7849 C   0  0  0  0  0  0  0  0  0  0  0  0
   -1.7266   -2.7365   -1.6182 C   0  0  0  0  0  0  0  0  0  0  0  0
   -2.8972   -3.0698    2.1513 C   0  0  0  0  0  0  0  0  0  0  0  0
   -1.9014   -5.8960    1.3399 C   0  0  0  0  0  0  0  0  0  0  0  0
   -3.6717   -4.1125    2.5498 O   0  0  0  0  0  0  0  0  0  0  0  0
   -2.8354   -1.9852    2.7189 O   0  0  0  0  0  0  0  0  0  0  0  0
   -4.4480   -3.9904    3.7587 C   0  0  0  0  0  0  0  0  0  0  0  0
   -0.8362   -4.6731   -3.0654 C   0  0  0  0  0  0  0  0  0  0  0  0
   -1.8083   -1.7896   -2.7779 C   0  0  0  0  0  0  0  0  0  0  0  0
   -1.1773   -1.8845   -3.8100 O   0  0  0  0  0  0  0  0  0  0  0  0
   -2.6786   -0.7784   -2.5021 O   0  0  0  0  0  0  0  0  0  0  0  0
   -2.7967    0.1958   -3.5480 C   0  0  0  0  0  0  0  0  0  0  0  0
   -2.8420    0.5958    0.9381 N   0  3  0  0  0  0  0  0  0  0  0  0
   -3.7145    0.4600    0.0691 O   0  5  0  0  0  0  0  0  0  0  0  0
   -3.0207    1.0980    2.0562 O   0  0  0  0  0  0  0  0  0  0  0  0
    2.1583   -0.1486   -0.7067 H   0  0  0  0  0  0  0  0  0  0  0  0
    0.6691   -2.0787   -0.6528 H   0  0  0  0  0  0  0  0  0  0  0  0
   -0.9197    2.3577    0.8844 H   0  0  0  0  0  0  0  0  0  0  0  0
    1.3929    2.0761    0.0668 H   0  0  0  0  0  0  0  0  0  0  0  0
   -3.0712   -1.8088   -0.2465 H   0  0  0  0  0  0  0  0  0  0  0  0
   -0.9602   -5.8151   -0.9011 H   0  0  0  0  0  0  0  0  0  0  0  0
   -2.6165   -6.5463    0.8160 H   0  0  0  0  0  0  0  0  0  0  0  0
   -0.9455   -6.4316    1.3785 H   0  0  0  0  0  0  0  0  0  0  0  0
   -2.2344   -5.7981    2.3709 H   0  0  0  0  0  0  0  0  0  0  0  0
   -3.8927   -4.3969    4.6126 H   0  0  0  0  0  0  0  0  0  0  0  0
   -4.7553   -2.9617    3.9602 H   0  0  0  0  0  0  0  0  0  0  0  0
   -5.3509   -4.6011    3.6388 H   0  0  0  0  0  0  0  0  0  0  0  0
    0.1137   -5.1992   -2.9037 H   0  0  0  0  0  0  0  0  0  0  0  0
   -1.5844   -5.4193   -3.3547 H   0  0  0  0  0  0  0  0  0  0  0  0
   -0.6741   -4.0189   -3.9170 H   0  0  0  0  0  0  0  0  0  0  0  0
   -1.9137    0.8411   -3.5771 H   0  0  0  0  0  0  0  0  0  0  0  0
   -2.9563   -0.2812   -4.5209 H   0  0  0  0  0  0  0  0  0  0  0  0
   -3.6700    0.8166   -3.3276 H   0  0  0  0  0  0  0  0  0  0  0  0
  1  2  2  0  0  0  0
  1 26  1  0  0  0  0
  2  3  1  0  0  0  0
  2 27  1  0  0  0  0
  3  4  2  0  0  0  0
  3  7  1  0  0  0  0
  4  5  1  0  0  0  0
  4 23  1  0  0  0  0
  5  6  2  0  0  0  0
  5 28  1  0  0  0  0
  6  1  1  0  0  0  0
  6 29  1  0  0  0  0
  7  8  1  0  0  0  0
  7 30  1  0  0  0  0
  8  9  2  0  0  0  0
  8 13  1  0  0  0  0
  9 10  1  0  0  0  0
  9 14  1  0  0  0  0
 10 11  1  0  0  0  0
 10 31  1  0  0  0  0
 11 12  2  0  0  0  0
 11 18  1  0  0  0  0
 12  7  1  0  0  0  0
 12 19  1  0  0  0  0
 13 15  1  0  0  0  0
 13 16  2  0  0  0  0
 14 32  1  0  0  0  0
 14 33  1  0  0  0  0
 14 34  1  0  0  0  0
 15 17  1  0  0  0  0
 17 35  1  0  0  0  0
 17 36  1  0  0  0  0
 17 37  1  0  0  0  0
 18 38  1  0  0  0  0
 18 39  1  0  0  0  0
 18 40  1  0  0  0  0
 19 20  2  0  0  0  0
 19 21  1  0  0  0  0
 21 22  1  0  0  0  0
 22 41  1  0  0  0  0
 22 42  1  0  0  0  0
 22 43  1  0  0  0  0
 23 24  1  0  0  0  0
 23 25  2  0  0  0  0
M  CHG  2  23   1  24  -1
M  END
>  <Mol_ID>
449

>  <Formula>
C17H18N2O6

>  <MolWeight>
346.33462

>  <Cat>
S1808

>  <Name>
Nifedipine (BAY-a-1040)

>  <Synonyms>
BAY-a-1040

>  <Target>
Calcium Channel

>  <Form>
free base

>  <CAS>
21829-25-4

>  <URL>
http://selleckchem.com/products/Nifedipine(Adalat).html

$$$$
