Adenosine.cdx
 OpenBabel08302520393D

 32 34  0  0  0  0  0  0  0  0999 V2000
    1.6233    0.5186    0.2258 O   0  0  0  0  0  0  0  0  0  0  0  0
    1.3087   -0.7658   -0.3746 C   0  0  1  0  0  0  0  0  0  0  0  0
   -0.2122   -0.8685   -0.4080 C   0  0  2  0  0  0  0  0  0  0  0  0
   -0.6468    0.5802   -0.5410 C   0  0  2  0  0  0  0  0  0  0  0  0
    0.4045    1.2988    0.3089 C   0  0  2  0  0  0  0  0  0  0  0  0
    1.9460   -0.8099   -1.7655 C   0  0  0  0  0  0  0  0  0  0  0  0
    0.6594    2.6454   -0.1588 N   0  0  0  0  0  0  0  0  0  0  0  0
   -0.7427   -1.3767    0.8274 O   0  0  0  0  0  0  0  0  0  0  0  0
   -1.9829    0.7666   -0.0885 O   0  0  0  0  0  0  0  0  0  0  0  0
    3.3635   -0.7134   -1.6500 O   0  0  0  0  0  0  0  0  0  0  0  0
   -0.0160    3.7577    0.2622 C   0  0  0  0  0  0  0  0  0  0  0  0
    0.3784    4.7608   -0.6091 C   0  0  0  0  0  0  0  0  0  0  0  0
    1.3112    4.2873   -1.5112 N   0  0  0  0  0  0  0  0  0  0  0  0
    1.4755    3.0218   -1.1912 C   0  0  0  0  0  0  0  0  0  0  0  0
   -0.9062    3.8503    1.2614 N   0  0  0  0  0  0  0  0  0  0  0  0
   -1.4255    5.0929    1.3258 C   0  0  0  0  0  0  0  0  0  0  0  0
   -1.1632    6.1542    0.5317 N   0  0  0  0  0  0  0  0  0  0  0  0
   -0.2470    6.0080   -0.4531 C   0  0  0  0  0  0  0  0  0  0  0  0
   -0.0092    7.0901   -1.2941 N   0  0  0  0  0  0  0  0  0  0  0  0
    1.7608   -1.5313    0.2656 H   0  0  0  0  0  0  0  0  0  0  0  0
   -0.5997   -1.5037   -1.2097 H   0  0  0  0  0  0  0  0  0  0  0  0
   -0.5925    0.8990   -1.5883 H   0  0  0  0  0  0  0  0  0  0  0  0
    0.1184    1.3549    1.3658 H   0  0  0  0  0  0  0  0  0  0  0  0
    1.7118   -1.7494   -2.2743 H   0  0  0  0  0  0  0  0  0  0  0  0
    1.6140    0.0219   -2.3933 H   0  0  0  0  0  0  0  0  0  0  0  0
   -0.0847   -1.2635    1.5381 H   0  0  0  0  0  0  0  0  0  0  0  0
   -2.1534    0.0662    0.5753 H   0  0  0  0  0  0  0  0  0  0  0  0
    3.5549    0.0358   -1.0541 H   0  0  0  0  0  0  0  0  0  0  0  0
    2.1511    2.3386   -1.6891 H   0  0  0  0  0  0  0  0  0  0  0  0
   -2.1534    5.2630    2.1140 H   0  0  0  0  0  0  0  0  0  0  0  0
    0.3744    6.8101   -2.1905 H   0  0  0  0  0  0  0  0  0  0  0  0
   -0.7985    7.7235   -1.3077 H   0  0  0  0  0  0  0  0  0  0  0  0
  1  2  1  0  0  0  0
  2  3  1  0  0  0  0
  2 20  1  1  0  0  0
  2  6  1  0  0  0  0
  3  4  1  0  0  0  0
  3  8  1  0  0  0  0
  3 21  1  6  0  0  0
  4  5  1  0  0  0  0
  4  9  1  0  0  0  0
  4 22  1  6  0  0  0
  5  1  1  0  0  0  0
  5 23  1  1  0  0  0
  5  7  1  0  0  0  0
  6 10  1  0  0  0  0
  6 24  1  0  0  0  0
  6 25  1  0  0  0  0
  7 11  1  0  0  0  0
  8 26  1  0  0  0  0
  9 27  1  0  0  0  0
 10 28  1  0  0  0  0
 11 12  2  0  0  0  0
 11 15  1  0  0  0  0
 12 13  1  0  0  0  0
 13 14  2  0  0  0  0
 14  7  1  0  0  0  0
 14 29  1  0  0  0  0
 15 16  2  0  0  0  0
 16 17  1  0  0  0  0
 16 30  1  0  0  0  0
 17 18  2  0  0  0  0
 18 12  1  0  0  0  0
 18 19  1  0  0  0  0
 19 31  1  0  0  0  0
 19 32  1  0  0  0  0
M  END
>  <Mol_ID>
369

>  <Formula>
C10H13N5O4

>  <MolWeight>
267.24132

>  <Cat>
S1647

>  <Name>
Adenosine

>  <Synonyms>
N/A

>  <Target>
Adenosine Receptor,Nucleoside Analog/Antimetabolite

>  <Form>
free base

>  <CAS>
58-61-7

>  <URL>
http://selleckchem.com/products/Adenosine(Adenocard).html

$$$$
