Adenine
 OpenBabel08302521263D

 15 16  0  0  0  0  0  0  0  0999 V2000
    0.2096    0.5351    0.0004 C   0  0  0  0  0  0  0  0  0  0  0  0
    0.6608   -0.7731   -0.0004 C   0  0  0  0  0  0  0  0  0  0  0  0
   -0.0726   -1.8954    0.0024 N   0  0  0  0  0  0  0  0  0  0  0  0
   -1.3886   -1.5980    0.0073 C   0  0  0  0  0  0  0  0  0  0  0  0
   -1.9763   -0.3811    0.0067 N   0  0  0  0  0  0  0  0  0  0  0  0
   -1.1838    0.7170    0.0039 C   0  0  0  0  0  0  0  0  0  0  0  0
    1.2752    1.4159   -0.0007 N   0  0  0  0  0  0  0  0  0  0  0  0
    2.3456    0.6486   -0.0025 C   0  0  0  0  0  0  0  0  0  0  0  0
    2.0217   -0.6813   -0.0056 N   0  0  0  0  0  0  0  0  0  0  0  0
   -1.7838    1.9551    0.0067 N   0  0  0  0  0  0  0  0  0  0  0  0
   -2.0667   -2.4469    0.0131 H   0  0  0  0  0  0  0  0  0  0  0  0
    3.3715    0.9934   -0.0022 H   0  0  0  0  0  0  0  0  0  0  0  0
    2.6583   -1.4630   -0.0090 H   0  0  0  0  0  0  0  0  0  0  0  0
   -1.2059    2.7830   -0.0109 H   0  0  0  0  0  0  0  0  0  0  0  0
   -2.7901    1.9963   -0.0087 H   0  0  0  0  0  0  0  0  0  0  0  0
  1  2  1  0  0  0  0
  1  7  1  0  0  0  0
  2  3  2  0  0  0  0
  3  4  1  0  0  0  0
  4  5  2  0  0  0  0
  4 11  1  0  0  0  0
  5  6  1  0  0  0  0
  6  1  2  0  0  0  0
  6 10  1  0  0  0  0
  7  8  2  0  0  0  0
  8  9  1  0  0  0  0
  8 12  1  0  0  0  0
  9  2  1  0  0  0  0
  9 13  1  0  0  0  0
 10 14  1  0  0  0  0
 10 15  1  0  0  0  0
M  END
>  <Mol_ID>
5255

>  <Formula>
C5H5N5

>  <MolWeight>
135.1267

>  <Cat>
S1981

>  <Name>
Adenine

>  <Synonyms>
6-Aminopurine

>  <Target>
DNA/RNA Synthesis

>  <Form>
Free Base

>  <CAS>
73-24-5

>  <URL>
https://www.selleckchem.com/products/adenine.html

$$$$
