Adiphenine hydrochloride.cdx
 OpenBabel08302522023D

 48 49  0  0  0  0  0  0  0  0999 V2000
    0.7752    0.8151   -1.0311 C   0  0  0  0  0  0  0  0  0  0  0  0
    0.2299    1.3201    0.3351 C   0  0  0  0  0  0  0  0  0  0  0  0
    0.0262    0.1185    1.2749 C   0  0  0  0  0  0  0  0  0  0  0  0
    0.9726    2.6140    0.7361 C   0  0  0  0  0  0  0  0  0  0  0  0
    0.5274    3.8232    0.1415 C   0  0  0  0  0  0  0  0  0  0  0  0
    1.3404    4.9598    0.0757 C   0  0  0  0  0  0  0  0  0  0  0  0
    2.6118    4.9313    0.6352 C   0  0  0  0  0  0  0  0  0  0  0  0
    3.0250    3.7864    1.3249 C   0  0  0  0  0  0  0  0  0  0  0  0
    2.2112    2.6471    1.3863 C   0  0  0  0  0  0  0  0  0  0  0  0
    1.0953   -0.6731    1.7173 C   0  0  0  0  0  0  0  0  0  0  0  0
    0.8842   -1.9855    2.1531 C   0  0  0  0  0  0  0  0  0  0  0  0
   -0.3989   -2.5337    2.1640 C   0  0  0  0  0  0  0  0  0  0  0  0
   -1.4821   -1.7441    1.8074 C   0  0  0  0  0  0  0  0  0  0  0  0
   -1.2747   -0.4216    1.3849 C   0  0  0  0  0  0  0  0  0  0  0  0
   -0.0037   -0.2000   -1.5142 O   0  0  0  0  0  0  0  0  0  0  0  0
    1.7215    1.2780   -1.6412 O   0  0  0  0  0  0  0  0  0  0  0  0
    0.1007   -0.4468   -2.9273 C   0  0  0  0  0  0  0  0  0  0  0  0
    1.2123   -1.4202   -3.3450 C   0  0  0  0  0  0  0  0  0  0  0  0
    1.0732   -1.8174   -4.7627 N   0  0  0  0  0  0  0  0  0  0  0  0
    1.3225   -0.7701   -5.7565 C   0  0  0  0  0  0  0  0  0  0  0  0
    2.5438    0.1350   -5.6075 C   0  0  0  0  0  0  0  0  0  0  0  0
    1.5633   -3.1759   -5.0092 C   0  0  0  0  0  0  0  0  0  0  0  0
    1.4420   -3.7574   -6.4182 C   0  0  0  0  0  0  0  0  0  0  0  0
   -0.7880    1.6771    0.1084 H   0  0  0  0  0  0  0  0  0  0  0  0
   -0.4365    3.8651   -0.3637 H   0  0  0  0  0  0  0  0  0  0  0  0
    1.0067    5.8385   -0.4643 H   0  0  0  0  0  0  0  0  0  0  0  0
    3.2763    5.7784    0.5256 H   0  0  0  0  0  0  0  0  0  0  0  0
    4.0195    3.7734    1.7689 H   0  0  0  0  0  0  0  0  0  0  0  0
    2.6124    1.7730    1.8872 H   0  0  0  0  0  0  0  0  0  0  0  0
    2.1212   -0.3290    1.6292 H   0  0  0  0  0  0  0  0  0  0  0  0
    1.7334   -2.6119    2.4255 H   0  0  0  0  0  0  0  0  0  0  0  0
   -0.5467   -3.5802    2.4264 H   0  0  0  0  0  0  0  0  0  0  0  0
   -2.4825   -2.1682    1.7941 H   0  0  0  0  0  0  0  0  0  0  0  0
   -2.1422    0.1364    1.0338 H   0  0  0  0  0  0  0  0  0  0  0  0
   -0.8680   -0.8820   -3.2081 H   0  0  0  0  0  0  0  0  0  0  0  0
    0.1778    0.5122   -3.4625 H   0  0  0  0  0  0  0  0  0  0  0  0
    2.2084   -1.0168   -3.1282 H   0  0  0  0  0  0  0  0  0  0  0  0
    1.1227   -2.3030   -2.6979 H   0  0  0  0  0  0  0  0  0  0  0  0
    1.3246   -1.1853   -6.7699 H   0  0  0  0  0  0  0  0  0  0  0  0
    0.4455   -0.1094   -5.7438 H   0  0  0  0  0  0  0  0  0  0  0  0
    3.4824   -0.4245   -5.6400 H   0  0  0  0  0  0  0  0  0  0  0  0
    2.5592    0.8574   -6.4346 H   0  0  0  0  0  0  0  0  0  0  0  0
    2.5110    0.7258   -4.6856 H   0  0  0  0  0  0  0  0  0  0  0  0
    2.6004   -3.2861   -4.6737 H   0  0  0  0  0  0  0  0  0  0  0  0
    0.9545   -3.8369   -4.3782 H   0  0  0  0  0  0  0  0  0  0  0  0
    2.2252   -3.3777   -7.0828 H   0  0  0  0  0  0  0  0  0  0  0  0
    1.5604   -4.8504   -6.3695 H   0  0  0  0  0  0  0  0  0  0  0  0
    0.4659   -3.5615   -6.8686 H   0  0  0  0  0  0  0  0  0  0  0  0
  1  2  1  0  0  0  0
  1 15  1  0  0  0  0
  1 16  2  0  0  0  0
  2  3  1  0  0  0  0
  2  4  1  0  0  0  0
  2 24  1  0  0  0  0
  3 10  2  0  0  0  0
  4  5  2  0  0  0  0
  5  6  1  0  0  0  0
  5 25  1  0  0  0  0
  6  7  2  0  0  0  0
  6 26  1  0  0  0  0
  7  8  1  0  0  0  0
  7 27  1  0  0  0  0
  8  9  2  0  0  0  0
  8 28  1  0  0  0  0
  9  4  1  0  0  0  0
  9 29  1  0  0  0  0
 10 11  1  0  0  0  0
 10 30  1  0  0  0  0
 11 12  2  0  0  0  0
 11 31  1  0  0  0  0
 12 13  1  0  0  0  0
 12 32  1  0  0  0  0
 13 14  2  0  0  0  0
 13 33  1  0  0  0  0
 14  3  1  0  0  0  0
 14 34  1  0  0  0  0
 15 17  1  0  0  0  0
 17 18  1  0  0  0  0
 17 35  1  0  0  0  0
 17 36  1  0  0  0  0
 18 19  1  0  0  0  0
 18 37  1  0  0  0  0
 18 38  1  0  0  0  0
 19 20  1  0  0  0  0
 19 22  1  0  0  0  0
 20 21  1  0  0  0  0
 20 39  1  0  0  0  0
 20 40  1  0  0  0  0
 21 41  1  0  0  0  0
 21 42  1  0  0  0  0
 21 43  1  0  0  0  0
 22 23  1  0  0  0  0
 22 44  1  0  0  0  0
 22 45  1  0  0  0  0
 23 46  1  0  0  0  0
 23 47  1  0  0  0  0
 23 48  1  0  0  0  0
M  END
>  <Mol_ID>
1140

>  <Formula>
C20H26ClNO2

>  <MolWeight>
347.87894

>  <Cat>
S2082

>  <Name>
Adiphenine HCl

>  <Synonyms>
NSC 129224

>  <Target>
AChR

>  <Form>
HCl

>  <CAS>
50-42-0

>  <URL>
http://selleckchem.com/products/adiphenine-hcl.html

$$$$
