Adipic acid
 OpenBabel08302521303D

 20 19  0  0  0  0  0  0  0  0999 V2000
   -0.8818    3.5493   -0.0652 O   0  0  0  0  0  0  0  0  0  0  0  0
   -2.0521   -4.7086   -2.0423 O   0  0  0  0  0  0  0  0  0  0  0  0
   -1.8971    2.8917   -1.9370 O   0  0  0  0  0  0  0  0  0  0  0  0
   -1.0251   -4.0000   -0.1656 O   0  0  0  0  0  0  0  0  0  0  0  0
   -1.6118    0.1357   -1.3135 C   0  0  0  0  0  0  0  0  0  0  0  0
   -1.3379   -1.2744   -0.7885 C   0  0  0  0  0  0  0  0  0  0  0  0
   -1.0983    1.2086   -0.3524 C   0  0  0  0  0  0  0  0  0  0  0  0
   -1.8748   -2.3496   -1.7361 C   0  0  0  0  0  0  0  0  0  0  0  0
   -1.3472    2.5937   -0.8914 C   0  0  0  0  0  0  0  0  0  0  0  0
   -1.5951   -3.7415   -1.2134 C   0  0  0  0  0  0  0  0  0  0  0  0
   -1.1017    4.3894   -0.5204 H   0  0  0  0  0  0  0  0  0  0  0  0
   -2.4888   -4.3686   -2.8460 H   0  0  0  0  0  0  0  0  0  0  0  0
   -2.6899    0.2690   -1.4674 H   0  0  0  0  0  0  0  0  0  0  0  0
   -1.1360    0.2618   -2.2938 H   0  0  0  0  0  0  0  0  0  0  0  0
   -0.2576   -1.4118   -0.6535 H   0  0  0  0  0  0  0  0  0  0  0  0
   -1.7973   -1.3951    0.1999 H   0  0  0  0  0  0  0  0  0  0  0  0
   -0.0200    1.0899   -0.1998 H   0  0  0  0  0  0  0  0  0  0  0  0
   -1.6083    1.1210    0.6132 H   0  0  0  0  0  0  0  0  0  0  0  0
   -2.9589   -2.2382   -1.8486 H   0  0  0  0  0  0  0  0  0  0  0  0
   -1.4001   -2.2506   -2.7186 H   0  0  0  0  0  0  0  0  0  0  0  0
  1  9  1  0  0  0  0
  1 11  1  0  0  0  0
  2 10  1  0  0  0  0
  2 12  1  0  0  0  0
  3  9  2  0  0  0  0
  4 10  2  0  0  0  0
  5  6  1  0  0  0  0
  5  7  1  0  0  0  0
  5 13  1  0  0  0  0
  5 14  1  0  0  0  0
  6  8  1  0  0  0  0
  6 15  1  0  0  0  0
  6 16  1  0  0  0  0
  7  9  1  0  0  0  0
  7 17  1  0  0  0  0
  7 18  1  0  0  0  0
  8 10  1  0  0  0  0
  8 19  1  0  0  0  0
  8 20  1  0  0  0  0
M  END
>  <Mol_ID>
5688

>  <Formula>
C6H10O4

>  <MolWeight>
146.1412

>  <Cat>
S3594

>  <Name>
Adipic acid

>  <Synonyms>
Hexanedioic acid

>  <Target>
Others

>  <Form>
Free Base

>  <CAS>
124-04-9

>  <URL>
http://www.selleckchem.com/products/adipic-acid.html

$$$$
