Adjudin
 OpenBabel08302521283D

 34 36  0  0  0  0  0  0  0  0999 V2000
    1.3470    0.6570   -0.2478 O   0  0  0  0  0  0  0  0  0  0  0  0
    4.5489   -2.1630   -1.7251 N   0  0  0  0  0  0  0  0  0  0  0  0
    4.2159   -1.5068   -0.5812 N   0  0  0  0  0  0  0  0  0  0  0  0
    3.0250    0.2114    1.2559 N   0  0  0  0  0  0  0  0  0  0  0  0
    2.4990    1.0933    2.2303 N   0  0  0  0  0  0  0  0  0  0  0  0
    3.6738   -1.9432   -2.7608 C   0  0  0  0  0  0  0  0  0  0  0  0
    5.6754   -3.0996   -1.7235 C   0  0  0  0  0  0  0  0  0  0  0  0
    2.6497   -1.1735   -2.2186 C   0  0  0  0  0  0  0  0  0  0  0  0
    3.0652   -0.8704   -0.8929 C   0  0  0  0  0  0  0  0  0  0  0  0
    6.9508   -2.4790   -2.2341 C   0  0  0  0  0  0  0  0  0  0  0  0
    3.6736   -2.3442   -4.1051 C   0  0  0  0  0  0  0  0  0  0  0  0
    1.5376   -0.8464   -3.0192 C   0  0  0  0  0  0  0  0  0  0  0  0
    2.5683   -1.9890   -4.8882 C   0  0  0  0  0  0  0  0  0  0  0  0
    1.5038   -1.2703   -4.3501 C   0  0  0  0  0  0  0  0  0  0  0  0
    7.5218   -1.3762   -1.5817 C   0  0  0  0  0  0  0  0  0  0  0  0
    7.6101   -3.0157   -3.3513 C   0  0  0  0  0  0  0  0  0  0  0  0
    2.3805    0.0469    0.0339 C   0  0  0  0  0  0  0  0  0  0  0  0
    8.6962   -0.7962   -2.0598 C   0  0  0  0  0  0  0  0  0  0  0  0
    8.7880   -2.4349   -3.8273 C   0  0  0  0  0  0  0  0  0  0  0  0
    9.3253   -1.3197   -3.1880 C   0  0  0  0  0  0  0  0  0  0  0  0
    3.8381   -0.3748    1.4460 H   0  0  0  0  0  0  0  0  0  0  0  0
    3.1419    1.8837    2.3188 H   0  0  0  0  0  0  0  0  0  0  0  0
    1.6464    1.5069    1.8233 H   0  0  0  0  0  0  0  0  0  0  0  0
    5.8090   -3.4664   -0.6996 H   0  0  0  0  0  0  0  0  0  0  0  0
    5.3716   -3.9563   -2.3363 H   0  0  0  0  0  0  0  0  0  0  0  0
    4.5006   -2.8961   -4.5391 H   0  0  0  0  0  0  0  0  0  0  0  0
    0.7124   -0.2699   -2.6082 H   0  0  0  0  0  0  0  0  0  0  0  0
    2.5381   -2.2796   -5.9362 H   0  0  0  0  0  0  0  0  0  0  0  0
    0.6442   -1.0224   -4.9675 H   0  0  0  0  0  0  0  0  0  0  0  0
    7.0476   -0.9567   -0.6958 H   0  0  0  0  0  0  0  0  0  0  0  0
    7.2152   -3.8901   -3.8639 H   0  0  0  0  0  0  0  0  0  0  0  0
    9.1210    0.0678   -1.5537 H   0  0  0  0  0  0  0  0  0  0  0  0
    9.2878   -2.8510   -4.6985 H   0  0  0  0  0  0  0  0  0  0  0  0
   10.2353   -0.8599   -3.5657 H   0  0  0  0  0  0  0  0  0  0  0  0
  1 17  2  0  0  0  0
  2  3  1  0  0  0  0
  2  6  1  0  0  0  0
  2  7  1  0  0  0  0
  3  9  2  0  0  0  0
  4  5  1  0  0  0  0
  4 17  1  0  0  0  0
  4 21  1  0  0  0  0
  5 22  1  0  0  0  0
  5 23  1  0  0  0  0
  6  8  2  0  0  0  0
  6 11  1  0  0  0  0
  7 10  1  0  0  0  0
  7 24  1  0  0  0  0
  7 25  1  0  0  0  0
  8  9  1  0  0  0  0
  8 12  1  0  0  0  0
  9 17  1  0  0  0  0
 10 15  2  0  0  0  0
 10 16  1  0  0  0  0
 11 13  2  0  0  0  0
 11 26  1  0  0  0  0
 12 14  2  0  0  0  0
 12 27  1  0  0  0  0
 13 14  1  0  0  0  0
 13 28  1  0  0  0  0
 14 29  1  0  0  0  0
 15 18  1  0  0  0  0
 15 30  1  0  0  0  0
 16 19  2  0  0  0  0
 16 31  1  0  0  0  0
 18 20  2  0  0  0  0
 18 32  1  0  0  0  0
 19 20  1  0  0  0  0
 19 33  1  0  0  0  0
 20 34  1  0  0  0  0
M  END
>  <Mol_ID>
5380

>  <Formula>
C15H12Cl2N4O

>  <MolWeight>
335.18798

>  <Cat>
S0454

>  <Name>
Adjudin

>  <Synonyms>
AF-2364

>  <Target>
Chloride Channel,ERK,NF-¦ÊB

>  <Form>
Free Base

>  <CAS>
252025-52-8

>  <URL>
https://www.selleckchem.com/products/adjudin.html

$$$$
