ADONITOL.cdx
 OpenBabel08302521433D

 22 21  0  0  0  0  0  0  0  0999 V2000
   -1.0910   -0.2301   -3.2612 O   0  0  0  0  0  0  0  0  0  0  0  0
   -0.5918   -0.1763   -1.9237 C   0  0  0  0  0  0  0  0  0  0  0  0
    0.7163    0.6274   -1.8926 C   0  0  2  0  0  0  0  0  0  0  0  0
    1.2847    0.8564   -0.4766 C   0  0  2  0  0  0  0  0  0  0  0  0
    1.6014   -0.4550    0.2710 C   0  0  2  0  0  0  0  0  0  0  0  0
    2.1033   -0.2287    1.6998 C   0  0  0  0  0  0  0  0  0  0  0  0
    3.3293    0.5029    1.6517 O   0  0  0  0  0  0  0  0  0  0  0  0
    0.4325    1.9161   -2.4812 O   0  0  0  0  0  0  0  0  0  0  0  0
    2.6100   -1.1764   -0.4433 O   0  0  0  0  0  0  0  0  0  0  0  0
    0.3485    1.6680    0.2520 O   0  0  0  0  0  0  0  0  0  0  0  0
   -0.9378    0.6636   -3.6301 H   0  0  0  0  0  0  0  0  0  0  0  0
   -1.3655    0.3007   -1.3137 H   0  0  0  0  0  0  0  0  0  0  0  0
   -0.4495   -1.2027   -1.5800 H   0  0  0  0  0  0  0  0  0  0  0  0
    1.4578    0.1464   -2.5409 H   0  0  0  0  0  0  0  0  0  0  0  0
    2.1966    1.4557   -0.5922 H   0  0  0  0  0  0  0  0  0  0  0  0
    0.7071   -1.0833    0.3347 H   0  0  0  0  0  0  0  0  0  0  0  0
    1.3824    0.3259    2.3081 H   0  0  0  0  0  0  0  0  0  0  0  0
    2.2992   -1.1910    2.1871 H   0  0  0  0  0  0  0  0  0  0  0  0
    3.9815   -0.0020    2.1721 H   0  0  0  0  0  0  0  0  0  0  0  0
    0.0167    2.4357   -1.7633 H   0  0  0  0  0  0  0  0  0  0  0  0
    3.4358   -0.6754   -0.3237 H   0  0  0  0  0  0  0  0  0  0  0  0
    0.8576    2.1141    0.9557 H   0  0  0  0  0  0  0  0  0  0  0  0
  1  2  1  0  0  0  0
  1 11  1  0  0  0  0
  2 12  1  0  0  0  0
  2 13  1  0  0  0  0
  3  8  1  0  0  0  0
  3 14  1  6  0  0  0
  3  4  1  0  0  0  0
  3  2  1  0  0  0  0
  4 15  1  6  0  0  0
  4 10  1  0  0  0  0
  5  9  1  0  0  0  0
  5 16  1  1  0  0  0
  5  6  1  0  0  0  0
  5  4  1  0  0  0  0
  6  7  1  0  0  0  0
  6 17  1  0  0  0  0
  6 18  1  0  0  0  0
  7 19  1  0  0  0  0
  8 20  1  0  0  0  0
  9 21  1  0  0  0  0
 10 22  1  0  0  0  0
M  END
>  <Mol_ID>
886

>  <Formula>
C5H12O5

>  <MolWeight>
152.14578

>  <Cat>
S2612

>  <Name>
Ribitol

>  <Synonyms>
Adonitol

>  <Target>
Anti-infection

>  <Form>
free base

>  <CAS>
488-81-3

>  <URL>
http://selleckchem.com/products/ribitol-adonitol.html

$$$$
