Adrucil (Fluorouracil).cdx
 OpenBabel08302521593D

 12 12  0  0  0  0  0  0  0  0999 V2000
    1.6439    0.0185    0.0012 C   0  0  0  0  0  0  0  0  0  0  0  0
    0.7146    1.0241   -0.0018 N   0  0  0  0  0  0  0  0  0  0  0  0
   -0.6484    0.8532   -0.0009 C   0  0  0  0  0  0  0  0  0  0  0  0
   -1.1035   -0.5558    0.0015 C   0  0  0  0  0  0  0  0  0  0  0  0
   -0.2025   -1.5386    0.0031 C   0  0  0  0  0  0  0  0  0  0  0  0
    1.1381   -1.2568    0.0028 N   0  0  0  0  0  0  0  0  0  0  0  0
   -2.4284   -0.7878    0.0027 F   0  0  0  0  0  0  0  0  0  0  0  0
   -1.4272    1.7998   -0.0017 O   0  0  0  0  0  0  0  0  0  0  0  0
    2.8496    0.2376    0.0027 O   0  0  0  0  0  0  0  0  0  0  0  0
    1.0615    1.9707   -0.0027 H   0  0  0  0  0  0  0  0  0  0  0  0
   -0.4918   -2.5833    0.0052 H   0  0  0  0  0  0  0  0  0  0  0  0
    1.8242   -2.0042    0.0046 H   0  0  0  0  0  0  0  0  0  0  0  0
  1  2  1  0  0  0  0
  1  9  2  0  0  0  0
  2  3  1  0  0  0  0
  2 10  1  0  0  0  0
  3  4  1  0  0  0  0
  3  8  2  0  0  0  0
  4  5  2  0  0  0  0
  4  7  1  0  0  0  0
  5  6  1  0  0  0  0
  5 11  1  0  0  0  0
  6  1  1  0  0  0  0
  6 12  1  0  0  0  0
M  END
>  <Mol_ID>
120

>  <Formula>
C4H3FN2O2

>  <MolWeight>
130.0772232

>  <Cat>
S1209

>  <Name>
Fluorouracil (5-Fluorouracil, 5-FU)

>  <Synonyms>
NSC 19893,5-Fluorouracil, 5-FU

>  <Target>
Apoptosis related,DNA/RNA Synthesis,HIV,Nucleoside Analog/Antimetabolite,Thymidylate Synthase

>  <Form>
free base

>  <CAS>
51-21-8

>  <URL>
http://selleckchem.com/products/Adrucil(Fluorouracil).html

$$$$
