Aegeline
 OpenBabel08302521373D

 41 42  0  0  0  0  0  0  0  0999 V2000
    0.9663    0.1192   -0.0027 C   0  0  3  0  0  0  0  0  0  0  0  0
    0.4378    0.1267    1.4438 C   0  0  0  0  0  0  0  0  0  0  0  0
    0.4741    1.2587   -0.7204 O   0  0  0  0  0  0  0  0  0  0  0  0
    0.8321    1.3332    2.1670 N   0  0  0  0  0  0  0  0  0  0  0  0
    0.4197    1.5257    3.4651 C   0  0  0  0  0  0  0  0  0  0  0  0
    0.8780    2.8163    4.0321 C   0  0  0  0  0  0  0  0  0  0  0  0
   -0.2765    0.7333    4.0827 O   0  0  0  0  0  0  0  0  0  0  0  0
    0.4888    3.1717    5.2681 C   0  0  0  0  0  0  0  0  0  0  0  0
   -0.3982   -4.7103   -2.7031 O   0  0  0  0  0  0  0  0  0  0  0  0
   -1.6210   -4.8198   -3.4232 C   0  0  0  0  0  0  0  0  0  0  0  0
    0.5775   -1.1425   -0.7374 C   0  0  0  0  0  0  0  0  0  0  0  0
   -0.6408   -1.2369   -1.4237 C   0  0  0  0  0  0  0  0  0  0  0  0
    1.4215   -2.2614   -0.7272 C   0  0  0  0  0  0  0  0  0  0  0  0
   -1.0024   -2.4051   -2.1004 C   0  0  0  0  0  0  0  0  0  0  0  0
    1.0553   -3.4328   -1.4005 C   0  0  0  0  0  0  0  0  0  0  0  0
   -0.1549   -3.5115   -2.0906 C   0  0  0  0  0  0  0  0  0  0  0  0
    0.7495    4.4808    5.8859 C   0  0  0  0  0  0  0  0  0  0  0  0
    0.8522    5.6554    5.1266 C   0  0  0  0  0  0  0  0  0  0  0  0
    0.7798    4.5826    7.2832 C   0  0  0  0  0  0  0  0  0  0  0  0
    0.9885    6.8996    5.7474 C   0  0  0  0  0  0  0  0  0  0  0  0
    0.9140    5.8285    7.9047 C   0  0  0  0  0  0  0  0  0  0  0  0
    1.0147    6.9860    7.1368 C   0  0  0  0  0  0  0  0  0  0  0  0
    2.0588    0.2178    0.0045 H   0  0  0  0  0  0  0  0  0  0  0  0
   -0.6579    0.0902    1.4574 H   0  0  0  0  0  0  0  0  0  0  0  0
    0.8102   -0.7400    2.0034 H   0  0  0  0  0  0  0  0  0  0  0  0
    0.3761    1.9852   -0.0824 H   0  0  0  0  0  0  0  0  0  0  0  0
    1.5432    1.9387    1.7801 H   0  0  0  0  0  0  0  0  0  0  0  0
    1.4726    3.4679    3.4071 H   0  0  0  0  0  0  0  0  0  0  0  0
   -0.1005    2.4795    5.8681 H   0  0  0  0  0  0  0  0  0  0  0  0
   -2.4839   -4.6315   -2.7754 H   0  0  0  0  0  0  0  0  0  0  0  0
   -1.6251   -4.1507   -4.2904 H   0  0  0  0  0  0  0  0  0  0  0  0
   -1.7045   -5.8469   -3.7907 H   0  0  0  0  0  0  0  0  0  0  0  0
   -1.3209   -0.3835   -1.4458 H   0  0  0  0  0  0  0  0  0  0  0  0
    2.3727   -2.2346   -0.1993 H   0  0  0  0  0  0  0  0  0  0  0  0
   -1.9515   -2.4109   -2.6262 H   0  0  0  0  0  0  0  0  0  0  0  0
    1.7240   -4.2911   -1.3891 H   0  0  0  0  0  0  0  0  0  0  0  0
    0.7952    5.6269    4.0418 H   0  0  0  0  0  0  0  0  0  0  0  0
    0.6864    3.6942    7.9039 H   0  0  0  0  0  0  0  0  0  0  0  0
    1.0525    7.8016    5.1447 H   0  0  0  0  0  0  0  0  0  0  0  0
    0.9245    5.8945    8.9899 H   0  0  0  0  0  0  0  0  0  0  0  0
    1.1009    7.9557    7.6200 H   0  0  0  0  0  0  0  0  0  0  0  0
  1  2  1  0  0  0  0
  1  3  1  0  0  0  0
  1 11  1  0  0  0  0
  1 23  1  0  0  0  0
  2  4  1  0  0  0  0
  2 24  1  0  0  0  0
  2 25  1  0  0  0  0
  3 26  1  0  0  0  0
  4  5  1  0  0  0  0
  4 27  1  0  0  0  0
  5  6  1  0  0  0  0
  5  7  2  0  0  0  0
  6  8  2  0  0  0  0
  6 28  1  0  0  0  0
  8 17  1  0  0  0  0
  8 29  1  0  0  0  0
  9 10  1  0  0  0  0
  9 16  1  0  0  0  0
 10 30  1  0  0  0  0
 10 31  1  0  0  0  0
 10 32  1  0  0  0  0
 11 12  2  0  0  0  0
 11 13  1  0  0  0  0
 12 14  1  0  0  0  0
 12 33  1  0  0  0  0
 13 15  2  0  0  0  0
 13 34  1  0  0  0  0
 14 16  2  0  0  0  0
 14 35  1  0  0  0  0
 15 16  1  0  0  0  0
 15 36  1  0  0  0  0
 17 18  2  0  0  0  0
 17 19  1  0  0  0  0
 18 20  1  0  0  0  0
 18 37  1  0  0  0  0
 19 21  2  0  0  0  0
 19 38  1  0  0  0  0
 20 22  2  0  0  0  0
 20 39  1  0  0  0  0
 21 22  1  0  0  0  0
 21 40  1  0  0  0  0
 22 41  1  0  0  0  0
M  END
>  <Mol_ID>
7436

>  <Formula>
C18H19NO3

>  <MolWeight>
297.34836

>  <Cat>
E4538

>  <Name>
Aegeline

>  <Synonyms>
Aegeline

>  <Target>
Others

>  <Form>
Free base

>  <CAS>
456-12-2

>  <URL>
https://www.selleckchem.com/products/aegeline.html

$$$$
