AESCULIN.cdx
 OpenBabel08302521353D

 40 42  0  0  0  0  0  0  0  0999 V2000
   -3.8259   -3.7406   -0.5735 C   0  0  0  0  0  0  0  0  0  0  0  0
   -5.1215   -3.4145   -0.1683 C   0  0  0  0  0  0  0  0  0  0  0  0
   -5.9597   -4.4350    0.3083 C   0  0  0  0  0  0  0  0  0  0  0  0
   -5.4859   -5.7477    0.4245 C   0  0  0  0  0  0  0  0  0  0  0  0
   -4.1598   -6.0150    0.0902 C   0  0  0  0  0  0  0  0  0  0  0  0
   -3.3203   -5.0247   -0.4043 C   0  0  0  0  0  0  0  0  0  0  0  0
   -6.3334   -6.8486    0.8517 C   0  0  0  0  0  0  0  0  0  0  0  0
   -5.8240   -8.0816    0.9285 C   0  0  0  0  0  0  0  0  0  0  0  0
   -4.4180   -8.3818    0.6117 C   0  0  0  0  0  0  0  0  0  0  0  0
   -3.6299   -7.3160    0.1980 O   0  0  0  0  0  0  0  0  0  0  0  0
   -3.0134   -2.8609   -1.2269 O   0  0  0  0  0  0  0  0  0  0  0  0
   -3.9808   -9.5202    0.7117 O   0  0  0  0  0  0  0  0  0  0  0  0
   -5.7100   -2.1866   -0.2695 O   0  0  0  0  0  0  0  0  0  0  0  0
   -4.9308   -1.0275    0.0871 C   0  0  2  0  0  0  0  0  0  0  0  0
   -5.6039   -0.3583    1.1627 O   0  0  0  0  0  0  0  0  0  0  0  0
   -4.9740    0.8777    1.5415 C   0  0  1  0  0  0  0  0  0  0  0  0
   -5.0540    1.8822    0.3887 C   0  0  2  0  0  0  0  0  0  0  0  0
   -4.3710    1.2885   -0.8500 C   0  0  1  0  0  0  0  0  0  0  0  0
   -4.8757   -0.1260   -1.1711 C   0  0  1  0  0  0  0  0  0  0  0  0
   -5.6944    1.4052    2.7885 C   0  0  0  0  0  0  0  0  0  0  0  0
   -4.5478    2.1391   -1.9890 O   0  0  0  0  0  0  0  0  0  0  0  0
   -5.5484    0.4682    3.8540 O   0  0  0  0  0  0  0  0  0  0  0  0
   -4.4582    3.1305    0.7520 O   0  0  0  0  0  0  0  0  0  0  0  0
   -4.0497   -0.7389   -2.1863 O   0  0  0  0  0  0  0  0  0  0  0  0
   -6.9885   -4.1960    0.5722 H   0  0  0  0  0  0  0  0  0  0  0  0
   -2.3050   -5.2616   -0.7044 H   0  0  0  0  0  0  0  0  0  0  0  0
   -7.3759   -6.6587    1.0798 H   0  0  0  0  0  0  0  0  0  0  0  0
   -6.4259   -8.9348    1.2250 H   0  0  0  0  0  0  0  0  0  0  0  0
   -3.5931   -2.3223   -1.8119 H   0  0  0  0  0  0  0  0  0  0  0  0
   -3.9250   -1.2951    0.4336 H   0  0  0  0  0  0  0  0  0  0  0  0
   -3.9308    0.6742    1.8136 H   0  0  0  0  0  0  0  0  0  0  0  0
   -6.1027    2.0941    0.1478 H   0  0  0  0  0  0  0  0  0  0  0  0
   -3.2841    1.2620   -0.6880 H   0  0  0  0  0  0  0  0  0  0  0  0
   -5.8785   -0.0551   -1.6113 H   0  0  0  0  0  0  0  0  0  0  0  0
   -5.2777    2.3618    3.1221 H   0  0  0  0  0  0  0  0  0  0  0  0
   -6.7658    1.5309    2.6029 H   0  0  0  0  0  0  0  0  0  0  0  0
   -5.4991    2.3222   -2.1005 H   0  0  0  0  0  0  0  0  0  0  0  0
   -5.8531   -0.3905    3.4973 H   0  0  0  0  0  0  0  0  0  0  0  0
   -3.4976    3.0867    0.6049 H   0  0  0  0  0  0  0  0  0  0  0  0
   -3.2268   -0.2169   -2.2658 H   0  0  0  0  0  0  0  0  0  0  0  0
  1  2  2  0  0  0  0
  1 11  1  0  0  0  0
  2  3  1  0  0  0  0
  2 13  1  0  0  0  0
  3  4  2  0  0  0  0
  3 25  1  0  0  0  0
  4  5  1  0  0  0  0
  4  7  1  0  0  0  0
  5  6  2  0  0  0  0
  6  1  1  0  0  0  0
  6 26  1  0  0  0  0
  7  8  2  0  0  0  0
  7 27  1  0  0  0  0
  8  9  1  0  0  0  0
  8 28  1  0  0  0  0
  9 10  1  0  0  0  0
  9 12  2  0  0  0  0
 10  5  1  0  0  0  0
 11 29  1  0  0  0  0
 14 15  1  0  0  0  0
 14 30  1  1  0  0  0
 14 13  1  0  0  0  0
 15 16  1  0  0  0  0
 16 17  1  0  0  0  0
 16 20  1  0  0  0  0
 16 31  1  1  0  0  0
 17 18  1  0  0  0  0
 17 23  1  0  0  0  0
 17 32  1  6  0  0  0
 18 19  1  0  0  0  0
 18 21  1  0  0  0  0
 18 33  1  1  0  0  0
 19 14  1  0  0  0  0
 19 24  1  0  0  0  0
 19 34  1  6  0  0  0
 20 22  1  0  0  0  0
 20 35  1  0  0  0  0
 20 36  1  0  0  0  0
 21 37  1  0  0  0  0
 22 38  1  0  0  0  0
 23 39  1  0  0  0  0
 24 40  1  0  0  0  0
M  END
>  <Mol_ID>
656

>  <Formula>
C15H16O9

>  <MolWeight>
340.28214

>  <Cat>
S2258

>  <Name>
Esculin

>  <Synonyms>
Aesculin

>  <Target>
Others

>  <Form>
free base

>  <CAS>
531-75-9

>  <URL>
http://selleckchem.com/products/Aesculin(Esculin).html

$$$$
