AF-353
 OpenBabel08302521243D

 38 39  0  0  0  0  0  0  0  0999 V2000
    0.1338   -2.3344   -3.4990 C   0  0  0  0  0  0  0  0  0  0  0  0
    1.1003   -1.4163   -3.5319 N   0  0  0  0  0  0  0  0  0  0  0  0
    1.8524   -1.2573   -2.4246 C   0  0  0  0  0  0  0  0  0  0  0  0
    1.6811   -2.0316   -1.2831 C   0  0  0  0  0  0  0  0  0  0  0  0
    0.6792   -2.9744   -1.3866 C   0  0  0  0  0  0  0  0  0  0  0  0
   -0.0966   -3.1554   -2.4761 N   0  0  0  0  0  0  0  0  0  0  0  0
   -0.6774   -2.4407   -4.6073 N   0  0  0  0  0  0  0  0  0  0  0  0
    2.8401   -0.2900   -2.5833 N   0  0  0  0  0  0  0  0  0  0  0  0
    2.2961   -1.9611   -0.0541 O   0  0  0  0  0  0  0  0  0  0  0  0
    3.5745   -1.4824    0.0738 C   0  0  0  0  0  0  0  0  0  0  0  0
    3.9189   -0.6680    1.1565 C   0  0  0  0  0  0  0  0  0  0  0  0
    5.2226   -0.1277    1.1605 C   0  0  0  0  0  0  0  0  0  0  0  0
    6.1871   -0.3919    0.1612 C   0  0  0  0  0  0  0  0  0  0  0  0
    5.8477   -1.2951   -0.8444 C   0  0  0  0  0  0  0  0  0  0  0  0
    4.5579   -1.8634   -0.8447 C   0  0  0  0  0  0  0  0  0  0  0  0
    3.0543   -0.3570    2.3769 C   0  0  0  0  0  0  0  0  0  0  0  0
    1.5357   -0.3802    2.2033 C   0  0  0  0  0  0  0  0  0  0  0  0
    3.4522   -1.2785    3.5413 C   0  0  0  0  0  0  0  0  0  0  0  0
    7.3235    0.3195    0.4129 O   0  0  0  0  0  0  0  0  0  0  0  0
    8.4085    0.3266   -0.4923 C   0  0  0  0  0  0  0  0  0  0  0  0
    7.0248   -1.9561   -2.4606 I   0  0  0  0  0  0  0  0  0  0  0  0
    0.4592   -3.6415   -0.5580 H   0  0  0  0  0  0  0  0  0  0  0  0
   -0.2165   -2.0614   -5.4219 H   0  0  0  0  0  0  0  0  0  0  0  0
   -1.0705   -3.3675   -4.6744 H   0  0  0  0  0  0  0  0  0  0  0  0
    2.7193    0.1446   -3.4943 H   0  0  0  0  0  0  0  0  0  0  0  0
    2.8661    0.3783   -1.8221 H   0  0  0  0  0  0  0  0  0  0  0  0
    5.5147    0.5367    1.9765 H   0  0  0  0  0  0  0  0  0  0  0  0
    4.2964   -2.5769   -1.6247 H   0  0  0  0  0  0  0  0  0  0  0  0
    3.2911    0.6730    2.6813 H   0  0  0  0  0  0  0  0  0  0  0  0
    1.1483   -1.3999    2.0996 H   0  0  0  0  0  0  0  0  0  0  0  0
    1.0497    0.0517    3.0879 H   0  0  0  0  0  0  0  0  0  0  0  0
    1.2216    0.2077    1.3357 H   0  0  0  0  0  0  0  0  0  0  0  0
    4.5052   -1.1446    3.8154 H   0  0  0  0  0  0  0  0  0  0  0  0
    2.8541   -1.0657    4.4343 H   0  0  0  0  0  0  0  0  0  0  0  0
    3.3095   -2.3336    3.2826 H   0  0  0  0  0  0  0  0  0  0  0  0
    8.8906   -0.6525   -0.5245 H   0  0  0  0  0  0  0  0  0  0  0  0
    8.1097    0.6943   -1.4765 H   0  0  0  0  0  0  0  0  0  0  0  0
    9.1545    1.0298   -0.1061 H   0  0  0  0  0  0  0  0  0  0  0  0
  1  2  2  0  0  0  0
  1  6  1  0  0  0  0
  1  7  1  0  0  0  0
  2  3  1  0  0  0  0
  3  4  2  0  0  0  0
  3  8  1  0  0  0  0
  4  5  1  0  0  0  0
  4  9  1  0  0  0  0
  5  6  2  0  0  0  0
  5 22  1  0  0  0  0
  7 23  1  0  0  0  0
  7 24  1  0  0  0  0
  8 25  1  0  0  0  0
  8 26  1  0  0  0  0
  9 10  1  0  0  0  0
 10 11  2  0  0  0  0
 10 15  1  0  0  0  0
 11 12  1  0  0  0  0
 11 16  1  0  0  0  0
 12 13  2  0  0  0  0
 12 27  1  0  0  0  0
 13 14  1  0  0  0  0
 13 19  1  0  0  0  0
 14 15  2  0  0  0  0
 14 21  1  0  0  0  0
 15 28  1  0  0  0  0
 16 17  1  0  0  0  0
 16 18  1  0  0  0  0
 16 29  1  0  0  0  0
 17 30  1  0  0  0  0
 17 31  1  0  0  0  0
 17 32  1  0  0  0  0
 18 33  1  0  0  0  0
 18 34  1  0  0  0  0
 18 35  1  0  0  0  0
 19 20  1  0  0  0  0
 20 36  1  0  0  0  0
 20 37  1  0  0  0  0
 20 38  1  0  0  0  0
M  END
>  <Mol_ID>
5069

>  <Formula>
C14H17IN4O2

>  <MolWeight>
400.21485

>  <Cat>
S0405

>  <Name>
AF-353

>  <Synonyms>
Ro-4

>  <Target>
P2 Receptor

>  <Form>
free base

>  <CAS>
865305-30-2

>  <URL>
http://www.selleckchem.com/products/af353.html

$$$$
