AF38469
 OpenBabel08302521323D

 34 35  0  0  0  0  0  0  0  0999 V2000
    1.4848   -0.1209    0.0238 C   0  0  0  0  0  0  0  0  0  0  0  0
    0.6643   -1.1557   -0.4233 C   0  0  0  0  0  0  0  0  0  0  0  0
   -0.7178   -0.9657   -0.5054 C   0  0  0  0  0  0  0  0  0  0  0  0
   -1.3361    0.2587   -0.1584 C   0  0  0  0  0  0  0  0  0  0  0  0
   -0.5047    1.3173    0.2498 C   0  0  0  0  0  0  0  0  0  0  0  0
    0.8914    1.1096    0.3562 C   0  0  0  0  0  0  0  0  0  0  0  0
    2.9767   -0.3097    0.1543 C   0  0  0  0  0  0  0  0  0  0  0  0
   -1.0000    2.6592    0.6326 C   0  0  0  0  0  0  0  0  0  0  0  0
   -0.2381    3.6836    0.1960 O   0  0  0  0  0  0  0  0  0  0  0  0
   -2.8262    0.2252   -0.3188 C   0  0  0  0  0  0  0  0  0  0  0  0
    3.3969   -1.5707   -0.1401 F   0  0  0  0  0  0  0  0  0  0  0  0
    3.6692    0.5208   -0.6745 F   0  0  0  0  0  0  0  0  0  0  0  0
    3.4207   -0.0436    1.4095 F   0  0  0  0  0  0  0  0  0  0  0  0
   -1.9955    2.8281    1.3126 O   0  0  0  0  0  0  0  0  0  0  0  0
   -3.2796   -0.5835   -1.1306 O   0  0  0  0  0  0  0  0  0  0  0  0
   -3.6177    1.0634    0.4262 N   0  0  0  0  0  0  0  0  0  0  0  0
   -5.0132    1.0702    0.3351 C   0  0  0  0  0  0  0  0  0  0  0  0
   -5.7532   -0.1044    0.2661 C   0  0  0  0  0  0  0  0  0  0  0  0
   -7.1335   -0.0181    0.1285 C   0  0  0  0  0  0  0  0  0  0  0  0
   -7.7229    1.2364    0.0268 C   0  0  0  0  0  0  0  0  0  0  0  0
   -6.9123    2.3636    0.1247 C   0  0  0  0  0  0  0  0  0  0  0  0
   -5.5770    2.2915    0.3288 N   0  0  0  0  0  0  0  0  0  0  0  0
   -7.4804    3.7394   -0.0537 C   0  0  0  0  0  0  0  0  0  0  0  0
    1.0795   -2.1237   -0.6952 H   0  0  0  0  0  0  0  0  0  0  0  0
   -1.3257   -1.8059   -0.8485 H   0  0  0  0  0  0  0  0  0  0  0  0
    1.5378    1.9038    0.7326 H   0  0  0  0  0  0  0  0  0  0  0  0
    0.4798    3.4734   -0.4297 H   0  0  0  0  0  0  0  0  0  0  0  0
   -3.2459    1.9338    0.8000 H   0  0  0  0  0  0  0  0  0  0  0  0
   -5.2754   -1.0752    0.3354 H   0  0  0  0  0  0  0  0  0  0  0  0
   -7.7383   -0.9193    0.0782 H   0  0  0  0  0  0  0  0  0  0  0  0
   -8.7922    1.3252   -0.1316 H   0  0  0  0  0  0  0  0  0  0  0  0
   -7.3337    4.3237    0.8586 H   0  0  0  0  0  0  0  0  0  0  0  0
   -6.9704    4.2410   -0.8831 H   0  0  0  0  0  0  0  0  0  0  0  0
   -8.5498    3.7124   -0.2836 H   0  0  0  0  0  0  0  0  0  0  0  0
  1  2  2  0  0  0  0
  1  7  1  0  0  0  0
  2  3  1  0  0  0  0
  2 24  1  0  0  0  0
  3  4  2  0  0  0  0
  3 25  1  0  0  0  0
  4  5  1  0  0  0  0
  4 10  1  0  0  0  0
  5  6  2  0  0  0  0
  5  8  1  0  0  0  0
  6  1  1  0  0  0  0
  6 26  1  0  0  0  0
  7 11  1  0  0  0  0
  7 12  1  0  0  0  0
  7 13  1  0  0  0  0
  8  9  1  0  0  0  0
  8 14  2  0  0  0  0
  9 27  1  0  0  0  0
 10 15  2  0  0  0  0
 10 16  1  0  0  0  0
 16 17  1  0  0  0  0
 16 28  1  0  0  0  0
 17 18  2  0  0  0  0
 18 19  1  0  0  0  0
 18 29  1  0  0  0  0
 19 20  2  0  0  0  0
 19 30  1  0  0  0  0
 20 21  1  0  0  0  0
 20 31  1  0  0  0  0
 21 22  2  0  0  0  0
 21 23  1  0  0  0  0
 22 17  1  0  0  0  0
 23 32  1  0  0  0  0
 23 33  1  0  0  0  0
 23 34  1  0  0  0  0
M  END
>  <Mol_ID>
6246

>  <Formula>
C15H11F3N2O3

>  <MolWeight>
324.2546496

>  <Cat>
S7478

>  <Name>
AF38469

>  <Target>
Others

>  <Form>
free base

>  <CAS>
1531634-31-7

>  <URL>
http://www.selleckchem.com/products/af38469.html

$$$$
