Afatinib impurity 11
 OpenBabel08302521353D

 48 51  0  0  0  0  0  0  0  0999 V2000
    1.3319    1.3810    1.1419 C   0  0  0  0  0  0  0  0  0  0  0  0
    0.7729    2.4659    0.2840 C   0  0  0  0  0  0  0  0  0  0  0  0
    0.1438    3.5186    0.8188 C   0  0  0  0  0  0  0  0  0  0  0  0
    1.0496    1.2864    2.3275 O   0  0  0  0  0  0  0  0  0  0  0  0
    2.2484    0.5912    0.4517 N   0  0  0  0  0  0  0  0  0  0  0  0
    5.4292   -2.2529    4.0110 N   0  0  0  0  0  0  0  0  0  0  0  0
    6.5441   -1.6701    4.4628 C   0  0  0  0  0  0  0  0  0  0  0  0
    7.0444   -0.5044    4.0496 N   0  0  0  0  0  0  0  0  0  0  0  0
    6.3404    0.1591    3.1163 C   0  0  0  0  0  0  0  0  0  0  0  0
    5.1273   -0.3348    2.6000 C   0  0  0  0  0  0  0  0  0  0  0  0
    4.3111    0.3268    1.6500 C   0  0  0  0  0  0  0  0  0  0  0  0
    3.1011   -0.2342    1.2223 C   0  0  0  0  0  0  0  0  0  0  0  0
    2.7443   -1.5141    1.6531 C   0  0  0  0  0  0  0  0  0  0  0  0
    3.5621   -2.1566    2.5920 C   0  0  0  0  0  0  0  0  0  0  0  0
    4.7296   -1.5868    3.0880 C   0  0  0  0  0  0  0  0  0  0  0  0
    1.6201   -2.2154    1.3135 O   0  0  0  0  0  0  0  0  0  0  0  0
   -0.9470   -2.3373   -1.0313 O   0  0  0  0  0  0  0  0  0  0  0  0
   -0.0077   -1.5108   -0.3395 C   0  0  0  0  0  0  0  0  0  0  0  0
    1.2690   -2.2949   -0.0746 C   0  0  2  0  0  0  0  0  0  0  0  0
    0.8847   -3.7289   -0.4002 C   0  0  0  0  0  0  0  0  0  0  0  0
   -0.4044   -3.6437   -1.1859 C   0  0  0  0  0  0  0  0  0  0  0  0
    6.8340    1.4165    2.6670 N   0  0  0  0  0  0  0  0  0  0  0  0
    8.1882    1.8281    2.6846 C   0  0  0  0  0  0  0  0  0  0  0  0
    9.2342    0.9156    2.4655 C   0  0  0  0  0  0  0  0  0  0  0  0
   10.5638    1.3384    2.4158 C   0  0  0  0  0  0  0  0  0  0  0  0
   10.8553    2.6871    2.5634 C   0  0  0  0  0  0  0  0  0  0  0  0
    9.8404    3.6154    2.7481 C   0  0  0  0  0  0  0  0  0  0  0  0
    8.5086    3.1898    2.7943 C   0  0  0  0  0  0  0  0  0  0  0  0
   12.1286    3.0969    2.5126 F   0  0  0  0  0  0  0  0  0  0  0  0
    0.8683    2.3661   -0.7913 H   0  0  0  0  0  0  0  0  0  0  0  0
   -0.2777    4.2969    0.1939 H   0  0  0  0  0  0  0  0  0  0  0  0
    0.0258    3.6242    1.8980 H   0  0  0  0  0  0  0  0  0  0  0  0
    2.7155    1.1189   -0.2769 H   0  0  0  0  0  0  0  0  0  0  0  0
    7.0943   -2.1914    5.2390 H   0  0  0  0  0  0  0  0  0  0  0  0
    4.5935    1.3186    1.3056 H   0  0  0  0  0  0  0  0  0  0  0  0
    3.2692   -3.1389    2.9619 H   0  0  0  0  0  0  0  0  0  0  0  0
   -0.4767   -1.1494    0.5807 H   0  0  0  0  0  0  0  0  0  0  0  0
    0.1932   -0.6468   -0.9797 H   0  0  0  0  0  0  0  0  0  0  0  0
    2.0864   -1.9765   -0.7345 H   0  0  0  0  0  0  0  0  0  0  0  0
    1.6564   -4.2381   -0.9895 H   0  0  0  0  0  0  0  0  0  0  0  0
    0.7406   -4.3322    0.5033 H   0  0  0  0  0  0  0  0  0  0  0  0
   -0.2417   -3.8205   -2.2540 H   0  0  0  0  0  0  0  0  0  0  0  0
   -1.1398   -4.3767   -0.8370 H   0  0  0  0  0  0  0  0  0  0  0  0
    6.2025    2.1453    2.9832 H   0  0  0  0  0  0  0  0  0  0  0  0
    9.0189   -0.1409    2.3285 H   0  0  0  0  0  0  0  0  0  0  0  0
   11.3655    0.6242    2.2589 H   0  0  0  0  0  0  0  0  0  0  0  0
   10.0910    4.6673    2.8520 H   0  0  0  0  0  0  0  0  0  0  0  0
    7.7270    3.9329    2.9286 H   0  0  0  0  0  0  0  0  0  0  0  0
  1  2  1  0  0  0  0
  1  4  2  0  0  0  0
  1  5  1  0  0  0  0
  2  3  2  0  0  0  0
  2 30  1  0  0  0  0
  3 31  1  0  0  0  0
  3 32  1  0  0  0  0
  5 12  1  0  0  0  0
  5 33  1  0  0  0  0
  6  7  2  0  0  0  0
  6 15  1  0  0  0  0
  7  8  1  0  0  0  0
  7 34  1  0  0  0  0
  8  9  2  0  0  0  0
  9 10  1  0  0  0  0
  9 22  1  0  0  0  0
 10 11  1  0  0  0  0
 10 15  2  0  0  0  0
 11 12  2  0  0  0  0
 11 35  1  0  0  0  0
 12 13  1  0  0  0  0
 13 14  2  0  0  0  0
 13 16  1  0  0  0  0
 14 15  1  0  0  0  0
 14 36  1  0  0  0  0
 17 18  1  0  0  0  0
 17 21  1  0  0  0  0
 18 19  1  0  0  0  0
 18 37  1  0  0  0  0
 18 38  1  0  0  0  0
 19 20  1  0  0  0  0
 19 16  1  0  0  0  0
 19 39  1  6  0  0  0
 20 21  1  0  0  0  0
 20 40  1  0  0  0  0
 20 41  1  0  0  0  0
 21 42  1  0  0  0  0
 21 43  1  0  0  0  0
 22 23  1  0  0  0  0
 22 44  1  0  0  0  0
 23 24  2  0  0  0  0
 23 28  1  0  0  0  0
 24 25  1  0  0  0  0
 24 45  1  0  0  0  0
 25 26  2  0  0  0  0
 25 46  1  0  0  0  0
 26 27  1  0  0  0  0
 26 29  1  0  0  0  0
 27 28  2  0  0  0  0
 27 47  1  0  0  0  0
 28 48  1  0  0  0  0
M  END
>  <Mol_ID>
6858

>  <Formula>
C21H18ClFN4O3

>  <MolWeight>
428.8440232

>  <Cat>
E2649

>  <Name>
Afatinib impurity 11

>  <Target>
Others

>  <Form>
Free base

>  <CAS>
1402086-20-7

>  <URL>
http://www.selleckchem.com/products/afatinib-impurity-11.html

$$$$
