Aficamten (CK-274)
 OpenBabel08302521333D

 44 47  0  0  0  0  0  0  0  0999 V2000
   -2.1849   -0.6293   -0.1660 C   0  0  0  0  0  0  0  0  0  0  0  0
   -2.1839    0.7837   -0.1514 C   0  0  0  0  0  0  0  0  0  0  0  0
   -0.9606    1.4702   -0.0688 C   0  0  0  0  0  0  0  0  0  0  0  0
    0.2131    0.7368    0.0227 C   0  0  0  0  0  0  0  0  0  0  0  0
    0.1919   -0.6621    0.0688 C   0  0  0  0  0  0  0  0  0  0  0  0
   -0.9976   -1.3592   -0.0486 C   0  0  0  0  0  0  0  0  0  0  0  0
    1.6173    1.2458    0.1232 C   0  0  0  0  0  0  0  0  0  0  0  0
    2.4151   -0.0190   -0.2436 C   0  0  0  0  0  0  0  0  0  0  0  0
    1.5751   -1.2157    0.2490 C   0  0  1  0  0  0  0  0  0  0  0  0
   -3.4524    1.5092   -0.1902 C   0  0  0  0  0  0  0  0  0  0  0  0
   -4.6673    0.8551   -0.2165 N   0  0  0  0  0  0  0  0  0  0  0  0
   -5.5253    1.8468   -0.1893 C   0  0  0  0  0  0  0  0  0  0  0  0
   -4.9338    3.0732   -0.1566 O   0  0  0  0  0  0  0  0  0  0  0  0
   -3.5582    2.8483   -0.1585 N   0  0  0  0  0  0  0  0  0  0  0  0
    1.8815   -1.4778    1.6407 N   0  0  0  0  0  0  0  0  0  0  0  0
    2.3185   -2.7088    2.0613 C   0  0  0  0  0  0  0  0  0  0  0  0
    3.0884   -2.7063    3.2952 C   0  0  0  0  0  0  0  0  0  0  0  0
    2.1406   -3.7368    1.4154 O   0  0  0  0  0  0  0  0  0  0  0  0
    3.6879   -3.8332    3.9049 C   0  0  0  0  0  0  0  0  0  0  0  0
    4.4158   -3.5202    4.9798 N   0  0  0  0  0  0  0  0  0  0  0  0
    4.2848   -2.1874    5.0717 N   0  0  0  0  0  0  0  0  0  0  0  0
    3.4837   -1.6505    4.1028 C   0  0  0  0  0  0  0  0  0  0  0  0
    4.9987   -1.4806    6.1079 C   0  0  0  0  0  0  0  0  0  0  0  0
   -7.0045    1.8088   -0.1768 C   0  0  0  0  0  0  0  0  0  0  0  0
   -7.5468    1.7763    1.2419 C   0  0  0  0  0  0  0  0  0  0  0  0
   -3.1262   -1.1706   -0.2550 H   0  0  0  0  0  0  0  0  0  0  0  0
   -0.9267    2.5562   -0.0660 H   0  0  0  0  0  0  0  0  0  0  0  0
   -1.0139   -2.4457   -0.0489 H   0  0  0  0  0  0  0  0  0  0  0  0
    1.8278    1.5666    1.1487 H   0  0  0  0  0  0  0  0  0  0  0  0
    1.8224    2.0608   -0.5758 H   0  0  0  0  0  0  0  0  0  0  0  0
    2.5143   -0.0732   -1.3363 H   0  0  0  0  0  0  0  0  0  0  0  0
    3.4270    0.0005    0.1765 H   0  0  0  0  0  0  0  0  0  0  0  0
    1.7530   -2.0972   -0.3767 H   0  0  0  0  0  0  0  0  0  0  0  0
    1.9664   -0.6876    2.2611 H   0  0  0  0  0  0  0  0  0  0  0  0
    3.6370   -4.8661    3.5831 H   0  0  0  0  0  0  0  0  0  0  0  0
    3.3043   -0.5870    4.0552 H   0  0  0  0  0  0  0  0  0  0  0  0
    4.7747   -1.9531    7.0672 H   0  0  0  0  0  0  0  0  0  0  0  0
    6.0689   -1.5435    5.8908 H   0  0  0  0  0  0  0  0  0  0  0  0
    4.6802   -0.4356    6.1232 H   0  0  0  0  0  0  0  0  0  0  0  0
   -7.4073    2.6793   -0.7062 H   0  0  0  0  0  0  0  0  0  0  0  0
   -7.3459    0.9184   -0.7166 H   0  0  0  0  0  0  0  0  0  0  0  0
   -7.2656    2.6797    1.7941 H   0  0  0  0  0  0  0  0  0  0  0  0
   -8.6396    1.7116    1.2299 H   0  0  0  0  0  0  0  0  0  0  0  0
   -7.1615    0.9126    1.7956 H   0  0  0  0  0  0  0  0  0  0  0  0
  1  2  2  0  0  0  0
  1 26  1  0  0  0  0
  2  3  1  0  0  0  0
  2 10  1  0  0  0  0
  3  4  2  0  0  0  0
  3 27  1  0  0  0  0
  4  5  1  0  0  0  0
  4  7  1  0  0  0  0
  5  6  2  0  0  0  0
  6  1  1  0  0  0  0
  6 28  1  0  0  0  0
  7  8  1  0  0  0  0
  7 29  1  0  0  0  0
  7 30  1  0  0  0  0
  8  9  1  0  0  0  0
  8 31  1  0  0  0  0
  8 32  1  0  0  0  0
  9  5  1  0  0  0  0
  9 33  1  6  0  0  0
  9 15  1  0  0  0  0
 10 11  1  0  0  0  0
 11 12  2  0  0  0  0
 12 13  1  0  0  0  0
 12 24  1  0  0  0  0
 13 14  1  0  0  0  0
 14 10  2  0  0  0  0
 15 16  1  0  0  0  0
 15 34  1  0  0  0  0
 16 17  1  0  0  0  0
 16 18  2  0  0  0  0
 17 19  1  0  0  0  0
 19 20  2  0  0  0  0
 19 35  1  0  0  0  0
 20 21  1  0  0  0  0
 21 22  1  0  0  0  0
 21 23  1  0  0  0  0
 22 17  2  0  0  0  0
 22 36  1  0  0  0  0
 23 37  1  0  0  0  0
 23 38  1  0  0  0  0
 23 39  1  0  0  0  0
 24 25  1  0  0  0  0
 24 40  1  0  0  0  0
 24 41  1  0  0  0  0
 25 42  1  0  0  0  0
 25 43  1  0  0  0  0
 25 44  1  0  0  0  0
M  END
>  <Mol_ID>
6383

>  <Formula>
C18H19N5O2

>  <MolWeight>
337.37576

>  <Cat>
E1016

>  <Name>
Aficamten (CK-274)

>  <Synonyms>
CK 3773274

>  <Target>
Cardiac Myosin

>  <Form>
free base

>  <CAS>
2364554-48-1

>  <URL>
http://www.selleckchem.com/products/aficamten-ck-274.html

$$$$
