AFN-1252
 OpenBabel08302521333D

 49 52  0  0  0  0  0  0  0  0999 V2000
    0.2960    0.2523    0.6788 C   0  0  0  0  0  0  0  0  0  0  0  0
   -0.3532   -0.0356   -0.5160 C   0  0  0  0  0  0  0  0  0  0  0  0
    0.1016    0.3490   -1.7221 N   0  0  0  0  0  0  0  0  0  0  0  0
    1.2615    1.0507   -1.7414 C   0  0  0  0  0  0  0  0  0  0  0  0
    2.0052    1.3863   -0.6089 C   0  0  0  0  0  0  0  0  0  0  0  0
    1.5036    0.9580    0.6179 C   0  0  0  0  0  0  0  0  0  0  0  0
   -0.2222   -0.2974    1.9739 C   0  0  0  0  0  0  0  0  0  0  0  0
   -1.7167   -0.5658    1.9161 C   0  0  0  0  0  0  0  0  0  0  0  0
   -2.1203   -1.2560    0.6340 C   0  0  0  0  0  0  0  0  0  0  0  0
   -1.4934   -0.8263   -0.4998 N   0  0  0  0  0  0  0  0  0  0  0  0
   -3.0325   -2.0776    0.5939 O   0  0  0  0  0  0  0  0  0  0  0  0
    3.2818    2.0979   -0.7333 C   0  0  0  0  0  0  0  0  0  0  0  0
    3.7546    2.9280    0.2085 C   0  0  0  0  0  0  0  0  0  0  0  0
    5.0454    3.6234   -0.0005 C   0  0  0  0  0  0  0  0  0  0  0  0
    5.0069    5.0003    0.1333 N   0  0  0  0  0  0  0  0  0  0  0  0
    6.0504    2.9802   -0.2896 O   0  0  0  0  0  0  0  0  0  0  0  0
    6.2419    5.7554   -0.0456 C   0  0  0  0  0  0  0  0  0  0  0  0
    3.7746    5.7631    0.2767 C   0  0  0  0  0  0  0  0  0  0  0  0
    6.9263    5.9630    1.2618 C   0  0  0  0  0  0  0  0  0  0  0  0
    8.1701    5.5719    1.7350 C   0  0  0  0  0  0  0  0  0  0  0  0
    8.2665    6.0846    3.0644 C   0  0  0  0  0  0  0  0  0  0  0  0
    7.1027    6.8142    3.2792 C   0  0  0  0  0  0  0  0  0  0  0  0
    6.2839    6.7319    2.1921 O   0  0  0  0  0  0  0  0  0  0  0  0
    9.2227    6.0366    4.0976 C   0  0  0  0  0  0  0  0  0  0  0  0
    8.9779    6.7428    5.2844 C   0  0  0  0  0  0  0  0  0  0  0  0
    7.8079    7.4879    5.4469 C   0  0  0  0  0  0  0  0  0  0  0  0
    6.8350    7.5333    4.4426 C   0  0  0  0  0  0  0  0  0  0  0  0
    9.1950    4.8143    0.9754 C   0  0  0  0  0  0  0  0  0  0  0  0
    1.5896    1.3442   -2.7355 H   0  0  0  0  0  0  0  0  0  0  0  0
    2.0570    1.1282    1.5384 H   0  0  0  0  0  0  0  0  0  0  0  0
   -0.0197    0.4066    2.7901 H   0  0  0  0  0  0  0  0  0  0  0  0
    0.3163   -1.2272    2.1929 H   0  0  0  0  0  0  0  0  0  0  0  0
   -2.2794    0.3745    1.9683 H   0  0  0  0  0  0  0  0  0  0  0  0
   -2.0144   -1.1834    2.7702 H   0  0  0  0  0  0  0  0  0  0  0  0
   -1.8308   -1.1572   -1.3924 H   0  0  0  0  0  0  0  0  0  0  0  0
    3.8457    1.9403   -1.6507 H   0  0  0  0  0  0  0  0  0  0  0  0
    3.2389    3.1389    1.1355 H   0  0  0  0  0  0  0  0  0  0  0  0
    6.9034    5.2133   -0.7293 H   0  0  0  0  0  0  0  0  0  0  0  0
    6.0185    6.7171   -0.5194 H   0  0  0  0  0  0  0  0  0  0  0  0
    3.1797    5.6299   -0.6334 H   0  0  0  0  0  0  0  0  0  0  0  0
    3.2034    5.3993    1.1347 H   0  0  0  0  0  0  0  0  0  0  0  0
    3.9831    6.8264    0.4180 H   0  0  0  0  0  0  0  0  0  0  0  0
   10.1392    5.4655    3.9823 H   0  0  0  0  0  0  0  0  0  0  0  0
    9.7143    6.7145    6.0851 H   0  0  0  0  0  0  0  0  0  0  0  0
    7.6515    8.0442    6.3692 H   0  0  0  0  0  0  0  0  0  0  0  0
    5.9231    8.1061    4.5535 H   0  0  0  0  0  0  0  0  0  0  0  0
    8.7574    3.9335    0.4969 H   0  0  0  0  0  0  0  0  0  0  0  0
    9.6175    5.4547    0.1926 H   0  0  0  0  0  0  0  0  0  0  0  0
   10.0157    4.4816    1.6163 H   0  0  0  0  0  0  0  0  0  0  0  0
  1  2  1  0  0  0  0
  1  7  1  0  0  0  0
  2  3  2  0  0  0  0
  3  4  1  0  0  0  0
  4  5  2  0  0  0  0
  4 29  1  0  0  0  0
  5  6  1  0  0  0  0
  5 12  1  0  0  0  0
  6  1  2  0  0  0  0
  6 30  1  0  0  0  0
  7  8  1  0  0  0  0
  7 31  1  0  0  0  0
  7 32  1  0  0  0  0
  8  9  1  0  0  0  0
  8 33  1  0  0  0  0
  8 34  1  0  0  0  0
  9 10  1  0  0  0  0
  9 11  2  0  0  0  0
 10  2  1  0  0  0  0
 10 35  1  0  0  0  0
 12 13  2  0  0  0  0
 12 36  1  0  0  0  0
 13 14  1  0  0  0  0
 13 37  1  0  0  0  0
 14 15  1  0  0  0  0
 14 16  2  0  0  0  0
 15 17  1  0  0  0  0
 15 18  1  0  0  0  0
 17 19  1  0  0  0  0
 17 38  1  0  0  0  0
 17 39  1  0  0  0  0
 18 40  1  0  0  0  0
 18 41  1  0  0  0  0
 18 42  1  0  0  0  0
 19 20  2  0  0  0  0
 20 21  1  0  0  0  0
 20 28  1  0  0  0  0
 21 22  2  0  0  0  0
 21 24  1  0  0  0  0
 22 23  1  0  0  0  0
 23 19  1  0  0  0  0
 24 25  2  0  0  0  0
 24 43  1  0  0  0  0
 25 26  1  0  0  0  0
 25 44  1  0  0  0  0
 26 27  2  0  0  0  0
 26 45  1  0  0  0  0
 27 22  1  0  0  0  0
 27 46  1  0  0  0  0
 28 47  1  0  0  0  0
 28 48  1  0  0  0  0
 28 49  1  0  0  0  0
M  END
>  <Mol_ID>
6402

>  <Formula>
C22H21N3O3

>  <MolWeight>
375.42044

>  <Cat>
E1126

>  <Name>
AFN-1252

>  <Synonyms>
Debio 1452

>  <Target>
Anti-infection

>  <Form>
free base

>  <CAS>
620175-39-5

>  <URL>
http://www.selleckchem.com/products/afn-1252.html

$$$$
