Afuresertib £¨GSK2110183).cdx
 OpenBabel08302519593D

 44 46  0  0  0  0  0  0  0  0999 V2000
   -2.7997   -2.2455    2.4893 C   0  0  0  0  0  0  0  0  0  0  0  0
   -1.9170   -1.5196    3.3032 C   0  0  0  0  0  0  0  0  0  0  0  0
   -1.2367   -2.1405    4.3531 C   0  0  0  0  0  0  0  0  0  0  0  0
   -1.4347   -3.4971    4.6015 C   0  0  0  0  0  0  0  0  0  0  0  0
   -2.3112   -4.2172    3.8004 C   0  0  0  0  0  0  0  0  0  0  0  0
   -2.9962   -3.6075    2.7535 C   0  0  0  0  0  0  0  0  0  0  0  0
   -2.5036   -5.5210    4.0400 F   0  0  0  0  0  0  0  0  0  0  0  0
   -3.5518   -1.5444    1.3846 C   0  0  0  0  0  0  0  0  0  0  0  0
   -3.3473   -2.1334   -0.0262 C   0  0  2  0  0  0  0  0  0  0  0  0
   -1.9552   -2.2375   -0.4828 N   0  0  0  0  0  0  0  0  0  0  0  0
   -4.2022   -1.3381   -1.0471 C   0  0  0  0  0  0  0  0  0  0  0  0
   -4.1026   -1.8962   -2.4029 N   0  0  0  0  0  0  0  0  0  0  0  0
   -1.0808   -1.1708   -0.5534 C   0  0  0  0  0  0  0  0  0  0  0  0
   -1.2428   -0.1477    0.1026 O   0  0  0  0  0  0  0  0  0  0  0  0
    1.4999   -0.5871   -3.1871 C   0  0  0  0  0  0  0  0  0  0  0  0
    1.2518   -1.8806   -3.5860 C   0  0  0  0  0  0  0  0  0  0  0  0
    0.1422   -2.6786   -2.5550 S   0  0  0  0  0  0  0  0  0  0  0  0
   -0.0294   -1.2936   -1.5617 C   0  0  0  0  0  0  0  0  0  0  0  0
    0.8823   -0.3170   -1.9230 C   0  0  0  0  0  0  0  0  0  0  0  0
    2.2825    0.4245   -3.9708 C   0  0  0  0  0  0  0  0  0  0  0  0
    2.7706    1.6122   -3.4578 C   0  0  0  0  0  0  0  0  0  0  0  0
    3.3756    2.2665   -4.5393 C   0  0  0  0  0  0  0  0  0  0  0  0
    3.2916    1.5617   -5.6649 N   0  0  0  0  0  0  0  0  0  0  0  0
    2.5894    0.4600   -5.3123 N   0  0  0  0  0  0  0  0  0  0  0  0
    2.1511   -0.4022   -6.3840 C   0  0  0  0  0  0  0  0  0  0  0  0
   -1.7506   -0.4588    3.1169 H   0  0  0  0  0  0  0  0  0  0  0  0
   -0.5556   -1.5644    4.9722 H   0  0  0  0  0  0  0  0  0  0  0  0
   -0.9141   -3.9937    5.4133 H   0  0  0  0  0  0  0  0  0  0  0  0
   -3.6794   -4.2059    2.1599 H   0  0  0  0  0  0  0  0  0  0  0  0
   -4.6202   -1.5923    1.6379 H   0  0  0  0  0  0  0  0  0  0  0  0
   -3.3081   -0.4753    1.3868 H   0  0  0  0  0  0  0  0  0  0  0  0
   -3.7119   -3.1688   -0.0241 H   0  0  0  0  0  0  0  0  0  0  0  0
   -1.7712   -2.9997   -1.1228 H   0  0  0  0  0  0  0  0  0  0  0  0
   -5.2545   -1.3531   -0.7413 H   0  0  0  0  0  0  0  0  0  0  0  0
   -3.8818   -0.2905   -1.0771 H   0  0  0  0  0  0  0  0  0  0  0  0
   -4.5720   -1.2636   -3.0514 H   0  0  0  0  0  0  0  0  0  0  0  0
   -3.1232   -1.9021   -2.6858 H   0  0  0  0  0  0  0  0  0  0  0  0
    1.6344   -2.4170   -4.4421 H   0  0  0  0  0  0  0  0  0  0  0  0
    0.9579    0.6210   -1.3848 H   0  0  0  0  0  0  0  0  0  0  0  0
    2.7060    1.9660   -2.4399 H   0  0  0  0  0  0  0  0  0  0  0  0
    3.8678    3.2306   -4.5611 H   0  0  0  0  0  0  0  0  0  0  0  0
    1.8293    0.2230   -7.2227 H   0  0  0  0  0  0  0  0  0  0  0  0
    2.9928   -1.0299   -6.6834 H   0  0  0  0  0  0  0  0  0  0  0  0
    1.3006   -1.0070   -6.0754 H   0  0  0  0  0  0  0  0  0  0  0  0
  1  2  2  0  0  0  0
  1  8  1  0  0  0  0
  2  3  1  0  0  0  0
  2 26  1  0  0  0  0
  3  4  2  0  0  0  0
  3 27  1  0  0  0  0
  4  5  1  0  0  0  0
  4 28  1  0  0  0  0
  5  6  2  0  0  0  0
  5  7  1  0  0  0  0
  6  1  1  0  0  0  0
  6 29  1  0  0  0  0
  8 30  1  0  0  0  0
  8 31  1  0  0  0  0
  9 11  1  0  0  0  0
  9 32  1  1  0  0  0
  9 10  1  0  0  0  0
  9  8  1  0  0  0  0
 10 13  1  0  0  0  0
 10 33  1  0  0  0  0
 11 12  1  0  0  0  0
 11 34  1  0  0  0  0
 11 35  1  0  0  0  0
 12 36  1  0  0  0  0
 12 37  1  0  0  0  0
 13 14  2  0  0  0  0
 15 16  2  0  0  0  0
 15 20  1  0  0  0  0
 16 17  1  0  0  0  0
 16 38  1  0  0  0  0
 17 18  1  0  0  0  0
 18 19  2  0  0  0  0
 18 13  1  0  0  0  0
 19 15  1  0  0  0  0
 19 39  1  0  0  0  0
 20 21  2  0  0  0  0
 21 22  1  0  0  0  0
 21 40  1  0  0  0  0
 22 23  2  0  0  0  0
 22 41  1  0  0  0  0
 23 24  1  0  0  0  0
 24 20  1  0  0  0  0
 24 25  1  0  0  0  0
 25 42  1  0  0  0  0
 25 43  1  0  0  0  0
 25 44  1  0  0  0  0
M  END
>  <Mol_ID>
2577

>  <Formula>
C18H17Cl2FN4OS

>  <MolWeight>
427.3231832

>  <Cat>
S7521

>  <Name>
Afuresertib (GSK2110183)

>  <Synonyms>
N/A

>  <Target>
Akt

>  <Form>
free base

>  <CAS>
1047644-62-1

>  <URL>
http://selleckchem.com/products/afuresertib-gsk2110183.html

$$$$
