AG-1557
 OpenBabel08302521273D

 36 38  0  0  0  0  0  0  0  0999 V2000
   -1.2068    3.3735    2.2886 I   0  0  0  0  0  0  0  0  0  0  0  0
    4.9035    0.2838   -4.2505 O   0  0  0  0  0  0  0  0  0  0  0  0
    8.0311   -0.0924   -3.9717 O   0  0  0  0  0  0  0  0  0  0  0  0
    3.6580    2.5079   -0.0382 N   0  0  0  0  0  0  0  0  0  0  0  0
    7.8011    2.6112   -0.1574 N   0  0  0  0  0  0  0  0  0  0  0  0
    5.7385    3.1195    0.9269 N   0  0  0  0  0  0  0  0  0  0  0  0
    5.7425    2.0458   -1.2303 C   0  0  0  0  0  0  0  0  0  0  0  0
    7.1316    2.0550   -1.1791 C   0  0  0  0  0  0  0  0  0  0  0  0
    5.0716    2.5758   -0.1067 C   0  0  0  0  0  0  0  0  0  0  0  0
    5.1042    1.4576   -2.3445 C   0  0  0  0  0  0  0  0  0  0  0  0
    5.8040    0.8029   -3.3740 C   0  0  0  0  0  0  0  0  0  0  0  0
    7.8296    1.3969   -2.1967 C   0  0  0  0  0  0  0  0  0  0  0  0
    7.1934    0.7425   -3.2805 C   0  0  0  0  0  0  0  0  0  0  0  0
    2.8742    2.3839    1.1330 C   0  0  0  0  0  0  0  0  0  0  0  0
    7.0689    3.1273    0.8389 C   0  0  0  0  0  0  0  0  0  0  0  0
    1.5499    2.8331    1.1409 C   0  0  0  0  0  0  0  0  0  0  0  0
    3.3455    1.6933    2.2576 C   0  0  0  0  0  0  0  0  0  0  0  0
    0.7474    2.6567    2.2748 C   0  0  0  0  0  0  0  0  0  0  0  0
    2.5410    1.5007    3.3825 C   0  0  0  0  0  0  0  0  0  0  0  0
    1.2369    1.9890    3.3967 C   0  0  0  0  0  0  0  0  0  0  0  0
    5.2664   -0.4601   -5.3867 C   0  0  0  0  0  0  0  0  0  0  0  0
    8.2405    0.1646   -5.3525 C   0  0  0  0  0  0  0  0  0  0  0  0
    3.2393    3.0797   -0.7629 H   0  0  0  0  0  0  0  0  0  0  0  0
    4.0162    1.4429   -2.3852 H   0  0  0  0  0  0  0  0  0  0  0  0
    8.9139    1.3424   -2.1089 H   0  0  0  0  0  0  0  0  0  0  0  0
    7.6074    3.5904    1.6590 H   0  0  0  0  0  0  0  0  0  0  0  0
    1.1438    3.3447    0.2708 H   0  0  0  0  0  0  0  0  0  0  0  0
    4.3533    1.2828    2.2631 H   0  0  0  0  0  0  0  0  0  0  0  0
    2.9341    0.9622    4.2404 H   0  0  0  0  0  0  0  0  0  0  0  0
    0.6183    1.8338    4.2762 H   0  0  0  0  0  0  0  0  0  0  0  0
    5.7709    0.1696   -6.1226 H   0  0  0  0  0  0  0  0  0  0  0  0
    5.8302   -1.3560   -5.1186 H   0  0  0  0  0  0  0  0  0  0  0  0
    4.3363   -0.7906   -5.8617 H   0  0  0  0  0  0  0  0  0  0  0  0
    7.7794   -0.6456   -5.9236 H   0  0  0  0  0  0  0  0  0  0  0  0
    7.8734    1.1386   -5.6882 H   0  0  0  0  0  0  0  0  0  0  0  0
    9.3118    0.0951   -5.5687 H   0  0  0  0  0  0  0  0  0  0  0  0
  1 18  1  0  0  0  0
  2 11  1  0  0  0  0
  2 21  1  0  0  0  0
  3 13  1  0  0  0  0
  3 22  1  0  0  0  0
  4  9  1  0  0  0  0
  4 14  1  0  0  0  0
  4 23  1  0  0  0  0
  5  8  2  0  0  0  0
  5 15  1  0  0  0  0
  6  9  1  0  0  0  0
  6 15  2  0  0  0  0
  7  8  1  0  0  0  0
  7  9  2  0  0  0  0
  7 10  1  0  0  0  0
  8 12  1  0  0  0  0
 10 11  2  0  0  0  0
 10 24  1  0  0  0  0
 11 13  1  0  0  0  0
 12 13  2  0  0  0  0
 12 25  1  0  0  0  0
 14 16  2  0  0  0  0
 14 17  1  0  0  0  0
 15 26  1  0  0  0  0
 16 18  1  0  0  0  0
 16 27  1  0  0  0  0
 17 19  2  0  0  0  0
 17 28  1  0  0  0  0
 18 20  2  0  0  0  0
 19 20  1  0  0  0  0
 19 29  1  0  0  0  0
 20 30  1  0  0  0  0
 21 31  1  0  0  0  0
 21 32  1  0  0  0  0
 21 33  1  0  0  0  0
 22 34  1  0  0  0  0
 22 35  1  0  0  0  0
 22 36  1  0  0  0  0
M  END
>  <Mol_ID>
5346

>  <Formula>
C16H14IN3O2

>  <MolWeight>
407.20573

>  <Cat>
S0151

>  <Name>
AG-1557

>  <Synonyms>
N/A

>  <Target>
EGFR

>  <Form>
Free Base

>  <CAS>
189290-58-2

>  <URL>
https://www.selleckchem.com/products/ag-1557.html

$$$$
