AG-1478.cdx
 OpenBabel08302521443D

 36 38  0  0  0  0  0  0  0  0999 V2000
    1.3281   -1.3064    0.0656 C   0  0  0  0  0  0  0  0  0  0  0  0
    0.0804   -0.6723    0.1061 C   0  0  0  0  0  0  0  0  0  0  0  0
    0.0543    0.7253    0.0736 C   0  0  0  0  0  0  0  0  0  0  0  0
    1.2736    1.4331    0.0788 C   0  0  0  0  0  0  0  0  0  0  0  0
    2.5259    0.7943    0.0425 C   0  0  0  0  0  0  0  0  0  0  0  0
    2.5546   -0.6004    0.0155 C   0  0  0  0  0  0  0  0  0  0  0  0
   -1.0379   -1.4050    0.1048 N   0  0  0  0  0  0  0  0  0  0  0  0
   -2.1966   -0.7380    0.0445 C   0  0  0  0  0  0  0  0  0  0  0  0
   -2.3424    0.5824   -0.0356 N   0  0  0  0  0  0  0  0  0  0  0  0
   -1.2167    1.3207   -0.0277 C   0  0  0  0  0  0  0  0  0  0  0  0
   -1.3287    2.7238   -0.1945 N   0  0  0  0  0  0  0  0  0  0  0  0
   -2.3614    3.4090   -0.8675 C   0  0  0  0  0  0  0  0  0  0  0  0
    3.6359   -1.3689   -0.3224 O   0  0  0  0  0  0  0  0  0  0  0  0
    3.5080    1.7353   -0.0348 O   0  0  0  0  0  0  0  0  0  0  0  0
    4.8740    1.3959   -0.0164 C   0  0  0  0  0  0  0  0  0  0  0  0
    4.6248   -1.5489    0.6842 C   0  0  0  0  0  0  0  0  0  0  0  0
   -2.7450    4.6925   -0.4588 C   0  0  0  0  0  0  0  0  0  0  0  0
   -3.7541    5.3861   -1.1464 C   0  0  0  0  0  0  0  0  0  0  0  0
   -4.3725    4.8147   -2.2542 C   0  0  0  0  0  0  0  0  0  0  0  0
   -3.9868    3.5455   -2.6822 C   0  0  0  0  0  0  0  0  0  0  0  0
   -2.9904    2.8536   -1.9919 C   0  0  0  0  0  0  0  0  0  0  0  0
    1.3400   -2.3968    0.0006 H   0  0  0  0  0  0  0  0  0  0  0  0
    1.2627    2.5213    0.0388 H   0  0  0  0  0  0  0  0  0  0  0  0
   -3.1100   -1.3242    0.0464 H   0  0  0  0  0  0  0  0  0  0  0  0
   -0.9192    3.2299    0.5802 H   0  0  0  0  0  0  0  0  0  0  0  0
    5.1559    0.9682    0.9495 H   0  0  0  0  0  0  0  0  0  0  0  0
    5.1428    0.7647   -0.8655 H   0  0  0  0  0  0  0  0  0  0  0  0
    5.4403    2.3276   -0.1110 H   0  0  0  0  0  0  0  0  0  0  0  0
    5.5538   -1.0932    0.3275 H   0  0  0  0  0  0  0  0  0  0  0  0
    4.3515   -1.1384    1.6611 H   0  0  0  0  0  0  0  0  0  0  0  0
    4.8455   -2.6155    0.7902 H   0  0  0  0  0  0  0  0  0  0  0  0
   -2.2824    5.1645    0.3978 H   0  0  0  0  0  0  0  0  0  0  0  0
   -4.0570    6.3752   -0.8123 H   0  0  0  0  0  0  0  0  0  0  0  0
   -5.1497    5.3508   -2.7909 H   0  0  0  0  0  0  0  0  0  0  0  0
   -4.4552    3.0910   -3.5507 H   0  0  0  0  0  0  0  0  0  0  0  0
   -2.6947    1.8704   -2.3503 H   0  0  0  0  0  0  0  0  0  0  0  0
  1  2  2  0  0  0  0
  1 22  1  0  0  0  0
  2  3  1  0  0  0  0
  2  7  1  0  0  0  0
  3  4  2  0  0  0  0
  4  5  1  0  0  0  0
  4 23  1  0  0  0  0
  5  6  2  0  0  0  0
  5 14  1  0  0  0  0
  6  1  1  0  0  0  0
  6 13  1  0  0  0  0
  7  8  2  0  0  0  0
  8  9  1  0  0  0  0
  8 24  1  0  0  0  0
  9 10  2  0  0  0  0
 10  3  1  0  0  0  0
 10 11  1  0  0  0  0
 11 12  1  0  0  0  0
 11 25  1  0  0  0  0
 12 17  2  0  0  0  0
 13 16  1  0  0  0  0
 14 15  1  0  0  0  0
 15 26  1  0  0  0  0
 15 27  1  0  0  0  0
 15 28  1  0  0  0  0
 16 29  1  0  0  0  0
 16 30  1  0  0  0  0
 16 31  1  0  0  0  0
 17 18  1  0  0  0  0
 17 32  1  0  0  0  0
 18 19  2  0  0  0  0
 18 33  1  0  0  0  0
 19 20  1  0  0  0  0
 19 34  1  0  0  0  0
 20 21  2  0  0  0  0
 20 35  1  0  0  0  0
 21 12  1  0  0  0  0
 21 36  1  0  0  0  0
M  END
>  <Mol_ID>
903

>  <Formula>
C16H14ClN3O2

>  <MolWeight>
315.75426

>  <Cat>
S2728

>  <Name>
AG-1478 (Tyrphostin AG-1478)

>  <Synonyms>
NSC 693255

>  <Target>
EGFR,HCV,PI4K

>  <Form>
free base

>  <CAS>
153436-53-4,175178-82-2

>  <URL>
http://selleckchem.com/products/ag-1478-tyrphostin-ag-1478.html

$$$$
