AG-1296.cdx
 OpenBabel08302520403D

 34 36  0  0  0  0  0  0  0  0999 V2000
    1.1544   -1.3274   -0.1380 N   0  0  0  0  0  0  0  0  0  0  0  0
    2.2948   -0.5989   -0.0374 C   0  0  0  0  0  0  0  0  0  0  0  0
    2.2093    0.7869    0.0074 C   0  0  0  0  0  0  0  0  0  0  0  0
    1.0344    1.4751    0.0075 N   0  0  0  0  0  0  0  0  0  0  0  0
   -0.0955    0.7354   -0.0333 C   0  0  0  0  0  0  0  0  0  0  0  0
   -1.3531    1.3375    0.0689 C   0  0  0  0  0  0  0  0  0  0  0  0
   -2.5518    0.5939    0.0953 C   0  0  0  0  0  0  0  0  0  0  0  0
   -2.4814   -0.7919   -0.0462 C   0  0  0  0  0  0  0  0  0  0  0  0
   -1.2060   -1.3838   -0.1673 C   0  0  0  0  0  0  0  0  0  0  0  0
   -0.0223   -0.6650   -0.1259 C   0  0  0  0  0  0  0  0  0  0  0  0
    3.5654   -1.3591    0.0359 C   0  0  0  0  0  0  0  0  0  0  0  0
    3.6825   -2.6390   -0.5288 C   0  0  0  0  0  0  0  0  0  0  0  0
    4.8752   -3.3705   -0.4684 C   0  0  0  0  0  0  0  0  0  0  0  0
    5.9884   -2.8370    0.1763 C   0  0  0  0  0  0  0  0  0  0  0  0
    5.8999   -1.5798    0.7636 C   0  0  0  0  0  0  0  0  0  0  0  0
    4.7035   -0.8523    0.6992 C   0  0  0  0  0  0  0  0  0  0  0  0
   -3.4266   -1.7709   -0.0079 O   0  0  0  0  0  0  0  0  0  0  0  0
   -4.8058   -1.4834   -0.0026 C   0  0  0  0  0  0  0  0  0  0  0  0
   -3.6475    1.3006    0.5157 O   0  0  0  0  0  0  0  0  0  0  0  0
   -4.6918    1.5069   -0.4274 C   0  0  0  0  0  0  0  0  0  0  0  0
    3.0947    1.4119    0.0461 H   0  0  0  0  0  0  0  0  0  0  0  0
   -1.3905    2.4181    0.1950 H   0  0  0  0  0  0  0  0  0  0  0  0
   -1.1370   -2.4679   -0.2272 H   0  0  0  0  0  0  0  0  0  0  0  0
    2.8222   -3.0900   -1.0306 H   0  0  0  0  0  0  0  0  0  0  0  0
    4.9273   -4.3582   -0.9202 H   0  0  0  0  0  0  0  0  0  0  0  0
    6.9122   -3.4018    0.2260 H   0  0  0  0  0  0  0  0  0  0  0  0
    6.7606   -1.1643    1.2832 H   0  0  0  0  0  0  0  0  0  0  0  0
    4.6751    0.1127    1.1993 H   0  0  0  0  0  0  0  0  0  0  0  0
   -5.0901   -0.9010    0.8769 H   0  0  0  0  0  0  0  0  0  0  0  0
   -5.1135   -1.0189   -0.9425 H   0  0  0  0  0  0  0  0  0  0  0  0
   -5.3369   -2.4375    0.0571 H   0  0  0  0  0  0  0  0  0  0  0  0
   -4.4987    1.0774   -1.4144 H   0  0  0  0  0  0  0  0  0  0  0  0
   -5.6076    1.0803   -0.0039 H   0  0  0  0  0  0  0  0  0  0  0  0
   -4.8797    2.5793   -0.5338 H   0  0  0  0  0  0  0  0  0  0  0  0
  1  2  2  0  0  0  0
  1 10  1  0  0  0  0
  2  3  1  0  0  0  0
  2 11  1  0  0  0  0
  3  4  2  0  0  0  0
  3 21  1  0  0  0  0
  4  5  1  0  0  0  0
  5  6  1  0  0  0  0
  5 10  2  0  0  0  0
  6  7  2  0  0  0  0
  6 22  1  0  0  0  0
  7  8  1  0  0  0  0
  7 19  1  0  0  0  0
  8  9  2  0  0  0  0
  8 17  1  0  0  0  0
  9 10  1  0  0  0  0
  9 23  1  0  0  0  0
 11 12  2  0  0  0  0
 11 16  1  0  0  0  0
 12 13  1  0  0  0  0
 12 24  1  0  0  0  0
 13 14  2  0  0  0  0
 13 25  1  0  0  0  0
 14 15  1  0  0  0  0
 14 26  1  0  0  0  0
 15 16  2  0  0  0  0
 15 27  1  0  0  0  0
 16 28  1  0  0  0  0
 17 18  1  0  0  0  0
 18 29  1  0  0  0  0
 18 30  1  0  0  0  0
 18 31  1  0  0  0  0
 19 20  1  0  0  0  0
 20 32  1  0  0  0  0
 20 33  1  0  0  0  0
 20 34  1  0  0  0  0
M  END
>  <Mol_ID>
3872

>  <Formula>
C16H14N2O2

>  <MolWeight>
266.29456

>  <Cat>
S8024

>  <Name>
Tyrphostin AG 1296

>  <Synonyms>
AG 1296

>  <Target>
Apoptosis related,c-Kit,FGFR,PDGFR

>  <Form>
free base

>  <CAS>
146535-11-7

>  <URL>
http://selleckchem.com/products/tyrphostin-ag-1296-ag-1296.html

$$$$
