AG-221 (Enasidenib).cdx
 OpenBabel08302520413D

 50 52  0  0  0  0  0  0  0  0999 V2000
    0.9649   -0.2155   -0.9850 C   0  0  0  0  0  0  0  0  0  0  0  0
    0.1943    0.9413   -1.0380 C   0  0  0  0  0  0  0  0  0  0  0  0
   -0.7394    1.1979   -0.0291 C   0  0  0  0  0  0  0  0  0  0  0  0
   -0.9058    0.3278    1.0038 N   0  0  0  0  0  0  0  0  0  0  0  0
   -0.1485   -0.8043    1.0522 C   0  0  0  0  0  0  0  0  0  0  0  0
    0.7963   -1.1023    0.0666 C   0  0  0  0  0  0  0  0  0  0  0  0
   -1.5710    2.4271   -0.0207 C   0  0  0  0  0  0  0  0  0  0  0  0
   -0.3457   -1.7727    2.2092 C   0  0  0  0  0  0  0  0  0  0  0  0
   -1.4011    3.2666   -1.0349 N   0  0  0  0  0  0  0  0  0  0  0  0
   -2.1032    4.3886   -0.9844 C   0  0  0  0  0  0  0  0  0  0  0  0
   -2.9255    4.7072    0.0019 N   0  0  0  0  0  0  0  0  0  0  0  0
   -3.0162    3.8223    0.9891 C   0  0  0  0  0  0  0  0  0  0  0  0
   -2.3946    2.6538    1.0028 N   0  0  0  0  0  0  0  0  0  0  0  0
   -1.9791    5.2905   -2.0446 N   0  0  0  0  0  0  0  0  0  0  0  0
   -0.8676    5.4790   -2.8792 C   0  0  0  0  0  0  0  0  0  0  0  0
   -1.0431    5.9391   -4.1812 C   0  0  0  0  0  0  0  0  0  0  0  0
    0.0643    6.0227   -5.0087 C   0  0  0  0  0  0  0  0  0  0  0  0
    1.3206    5.6919   -4.6304 N   0  0  0  0  0  0  0  0  0  0  0  0
    1.4954    5.2461   -3.3583 C   0  0  0  0  0  0  0  0  0  0  0  0
    0.4259    5.1383   -2.4686 C   0  0  0  0  0  0  0  0  0  0  0  0
    2.8765    4.8148   -2.8914 C   0  0  0  0  0  0  0  0  0  0  0  0
   -3.7637    4.1090    2.1149 N   0  0  0  0  0  0  0  0  0  0  0  0
   -4.5136    5.3557    2.1593 C   0  0  0  0  0  0  0  0  0  0  0  0
   -5.3394    5.4921    3.4659 C   0  0  0  0  0  0  0  0  0  0  0  0
   -6.4280    4.4227    3.5747 C   0  0  0  0  0  0  0  0  0  0  0  0
   -4.4836    5.3644    4.6083 O   0  0  0  0  0  0  0  0  0  0  0  0
   -5.9693    6.8869    3.5428 C   0  0  0  0  0  0  0  0  0  0  0  0
    3.8461    4.9151   -3.8429 F   0  0  0  0  0  0  0  0  0  0  0  0
    3.3227    5.5417   -1.8255 F   0  0  0  0  0  0  0  0  0  0  0  0
    2.8985    3.5120   -2.4770 F   0  0  0  0  0  0  0  0  0  0  0  0
   -1.2985   -1.3907    3.1049 F   0  0  0  0  0  0  0  0  0  0  0  0
   -0.7131   -3.0176    1.7851 F   0  0  0  0  0  0  0  0  0  0  0  0
    0.7952   -1.9581    2.9358 F   0  0  0  0  0  0  0  0  0  0  0  0
    1.6980   -0.4168   -1.7702 H   0  0  0  0  0  0  0  0  0  0  0  0
    0.3303    1.6375   -1.8629 H   0  0  0  0  0  0  0  0  0  0  0  0
    1.3904   -2.0086    0.1218 H   0  0  0  0  0  0  0  0  0  0  0  0
   -2.6215    6.0652   -1.9510 H   0  0  0  0  0  0  0  0  0  0  0  0
   -2.0261    6.1823   -4.5686 H   0  0  0  0  0  0  0  0  0  0  0  0
   -0.0319    6.3494   -6.0413 H   0  0  0  0  0  0  0  0  0  0  0  0
    0.6136    4.7878   -1.4564 H   0  0  0  0  0  0  0  0  0  0  0  0
   -4.1241    3.2589    2.5272 H   0  0  0  0  0  0  0  0  0  0  0  0
   -3.7830    6.1756    2.1297 H   0  0  0  0  0  0  0  0  0  0  0  0
   -5.1741    5.4574    1.2888 H   0  0  0  0  0  0  0  0  0  0  0  0
   -6.0013    3.4144    3.5675 H   0  0  0  0  0  0  0  0  0  0  0  0
   -6.9620    4.5130    4.5276 H   0  0  0  0  0  0  0  0  0  0  0  0
   -7.1530    4.4982    2.7585 H   0  0  0  0  0  0  0  0  0  0  0  0
   -4.0152    4.5147    4.5200 H   0  0  0  0  0  0  0  0  0  0  0  0
   -5.1988    7.6665    3.5152 H   0  0  0  0  0  0  0  0  0  0  0  0
   -6.6700    7.0648    2.7204 H   0  0  0  0  0  0  0  0  0  0  0  0
   -6.5048    7.0208    4.4899 H   0  0  0  0  0  0  0  0  0  0  0  0
  1  2  2  0  0  0  0
  1 34  1  0  0  0  0
  2  3  1  0  0  0  0
  2 35  1  0  0  0  0
  3  4  2  0  0  0  0
  3  7  1  0  0  0  0
  4  5  1  0  0  0  0
  5  6  2  0  0  0  0
  5  8  1  0  0  0  0
  6  1  1  0  0  0  0
  6 36  1  0  0  0  0
  7  9  2  0  0  0  0
  8 31  1  0  0  0  0
  8 32  1  0  0  0  0
  8 33  1  0  0  0  0
  9 10  1  0  0  0  0
 10 11  2  0  0  0  0
 10 14  1  0  0  0  0
 11 12  1  0  0  0  0
 12 13  2  0  0  0  0
 12 22  1  0  0  0  0
 13  7  1  0  0  0  0
 14 15  1  0  0  0  0
 14 37  1  0  0  0  0
 15 16  2  0  0  0  0
 16 17  1  0  0  0  0
 16 38  1  0  0  0  0
 17 18  2  0  0  0  0
 17 39  1  0  0  0  0
 18 19  1  0  0  0  0
 19 20  2  0  0  0  0
 19 21  1  0  0  0  0
 20 15  1  0  0  0  0
 20 40  1  0  0  0  0
 21 28  1  0  0  0  0
 21 29  1  0  0  0  0
 21 30  1  0  0  0  0
 22 23  1  0  0  0  0
 22 41  1  0  0  0  0
 23 24  1  0  0  0  0
 23 42  1  0  0  0  0
 23 43  1  0  0  0  0
 24 25  1  0  0  0  0
 24 26  1  0  0  0  0
 24 27  1  0  0  0  0
 25 44  1  0  0  0  0
 25 45  1  0  0  0  0
 25 46  1  0  0  0  0
 26 47  1  0  0  0  0
 27 48  1  0  0  0  0
 27 49  1  0  0  0  0
 27 50  1  0  0  0  0
M  END
>  <Mol_ID>
3936

>  <Formula>
C19H17F6N7O

>  <MolWeight>
473.3749992

>  <Cat>
S8205

>  <Name>
Enasidenib (AG-221)

>  <Synonyms>
N/A

>  <Target>
Dehydrogenase

>  <Form>
free base

>  <CAS>
1446502-11-9

>  <URL>
http://selleckchem.com/products/ag-221-enasidenib.html

$$$$
