AG-881.cdx
 OpenBabel08302520433D

 40 41  0  0  0  0  0  0  0  0999 V2000
   -0.5560   -1.2108   -0.0504 N   0  0  0  0  0  0  0  0  0  0  0  0
   -1.2913   -0.1161    0.0775 C   0  0  0  0  0  0  0  0  0  0  0  0
   -0.8002    1.1077    0.1427 N   0  0  0  0  0  0  0  0  0  0  0  0
    0.5358    1.1884    0.0668 C   0  0  0  0  0  0  0  0  0  0  0  0
    1.3553    0.1407   -0.0565 N   0  0  0  0  0  0  0  0  0  0  0  0
    0.7564   -1.0348   -0.1176 C   0  0  0  0  0  0  0  0  0  0  0  0
   -2.6609   -0.3250    0.1532 N   0  0  0  0  0  0  0  0  0  0  0  0
    1.1329    2.5402    0.1648 C   0  0  0  0  0  0  0  0  0  0  0  0
   -3.5220    0.7308   -0.4214 C   0  0  2  0  0  0  0  0  0  0  0  0
   -4.9730    0.3364   -0.1189 C   0  0  0  0  0  0  0  0  0  0  0  0
    0.5133    3.5560    0.9010 C   0  0  0  0  0  0  0  0  0  0  0  0
    1.1017    4.8171    0.9655 C   0  0  0  0  0  0  0  0  0  0  0  0
    2.2892    5.0464    0.2855 C   0  0  0  0  0  0  0  0  0  0  0  0
    2.8455    3.9983   -0.4268 C   0  0  0  0  0  0  0  0  0  0  0  0
    2.3042    2.7617   -0.4964 N   0  0  0  0  0  0  0  0  0  0  0  0
    1.5006   -2.2010   -0.2337 N   0  0  0  0  0  0  0  0  0  0  0  0
    2.8520   -2.1835    0.3673 C   0  0  1  0  0  0  0  0  0  0  0  0
    2.9125   -1.9115    1.8977 C   0  0  0  0  0  0  0  0  0  0  0  0
    3.4977   -3.5368    0.0418 C   0  0  0  0  0  0  0  0  0  0  0  0
   -2.3932    0.2141   -2.5016 F   0  0  0  0  0  0  0  0  0  0  0  0
   -4.4816    0.7879   -2.6367 F   0  0  0  0  0  0  0  0  0  0  0  0
    1.6898   -1.7123    2.4432 F   0  0  0  0  0  0  0  0  0  0  0  0
    3.4664   -2.9488    2.5742 F   0  0  0  0  0  0  0  0  0  0  0  0
    3.6635   -0.8200    2.1742 F   0  0  0  0  0  0  0  0  0  0  0  0
   -3.3385    1.0026   -1.9411 C   0  0  0  0  0  0  0  0  0  0  0  0
   -2.9796    2.2897   -2.1625 F   0  0  0  0  0  0  0  0  0  0  0  0
   -2.8217   -1.2627   -0.2081 H   0  0  0  0  0  0  0  0  0  0  0  0
   -3.3367    1.6689    0.1183 H   0  0  0  0  0  0  0  0  0  0  0  0
   -5.1209    0.1831    0.9560 H   0  0  0  0  0  0  0  0  0  0  0  0
   -5.6697    1.1148   -0.4470 H   0  0  0  0  0  0  0  0  0  0  0  0
   -5.2404   -0.5992   -0.6236 H   0  0  0  0  0  0  0  0  0  0  0  0
   -0.4163    3.3650    1.4296 H   0  0  0  0  0  0  0  0  0  0  0  0
    0.6343    5.6107    1.5419 H   0  0  0  0  0  0  0  0  0  0  0  0
    2.7705    6.0177    0.3094 H   0  0  0  0  0  0  0  0  0  0  0  0
    3.7714    4.1288   -0.9802 H   0  0  0  0  0  0  0  0  0  0  0  0
    0.8944   -2.9605    0.0641 H   0  0  0  0  0  0  0  0  0  0  0  0
    3.4540   -1.4190   -0.1409 H   0  0  0  0  0  0  0  0  0  0  0  0
    3.4924   -3.7248   -1.0377 H   0  0  0  0  0  0  0  0  0  0  0  0
    4.5372   -3.5713    0.3852 H   0  0  0  0  0  0  0  0  0  0  0  0
    2.9517   -4.3585    0.5201 H   0  0  0  0  0  0  0  0  0  0  0  0
  1  2  2  0  0  0  0
  2  3  1  0  0  0  0
  2  7  1  0  0  0  0
  3  4  2  0  0  0  0
  4  5  1  0  0  0  0
  4  8  1  0  0  0  0
  5  6  2  0  0  0  0
  6  1  1  0  0  0  0
  6 16  1  0  0  0  0
  7  9  1  0  0  0  0
  7 27  1  0  0  0  0
  8 11  2  0  0  0  0
  9 25  1  0  0  0  0
  9 10  1  0  0  0  0
  9 28  1  1  0  0  0
 10 29  1  0  0  0  0
 10 30  1  0  0  0  0
 10 31  1  0  0  0  0
 11 12  1  0  0  0  0
 11 32  1  0  0  0  0
 12 13  2  0  0  0  0
 12 33  1  0  0  0  0
 13 14  1  0  0  0  0
 13 34  1  0  0  0  0
 14 15  2  0  0  0  0
 14 35  1  0  0  0  0
 15  8  1  0  0  0  0
 16 17  1  0  0  0  0
 16 36  1  0  0  0  0
 17 18  1  0  0  0  0
 17 19  1  0  0  0  0
 17 37  1  6  0  0  0
 18 22  1  0  0  0  0
 18 23  1  0  0  0  0
 18 24  1  0  0  0  0
 19 38  1  0  0  0  0
 19 39  1  0  0  0  0
 19 40  1  0  0  0  0
 25 20  1  0  0  0  0
 25 21  1  0  0  0  0
 25 26  1  0  0  0  0
M  END
>  <Mol_ID>
4153

>  <Formula>
C14H13ClF6N6

>  <MolWeight>
414.7366392

>  <Cat>
S8611

>  <Name>
Vorasidenib (AG-881)

>  <Synonyms>
N/A

>  <Target>
Dehydrogenase

>  <Form>
free base

>  <CAS>
1644545-52-7

>  <URL>
http://selleckchem.com/products/ag-881.html

$$$$
