AG14361.cdx
 OpenBabel08302521343D

 44 47  0  0  0  0  0  0  0  0999 V2000
    0.1474   -0.1385   -0.0890 C   0  0  0  0  0  0  0  0  0  0  0  0
    0.1433    1.2568   -0.1236 C   0  0  0  0  0  0  0  0  0  0  0  0
    1.3911    1.8916   -0.1001 C   0  0  0  0  0  0  0  0  0  0  0  0
    2.5700    1.1459    0.0098 C   0  0  0  0  0  0  0  0  0  0  0  0
    2.5330   -0.2555    0.1118 C   0  0  0  0  0  0  0  0  0  0  0  0
    1.2882   -0.9021    0.0612 C   0  0  0  0  0  0  0  0  0  0  0  0
   -0.8569   -1.0586   -0.2564 N   0  0  0  0  0  0  0  0  0  0  0  0
   -2.1476   -0.6546   -0.7776 C   0  0  0  0  0  0  0  0  0  0  0  0
   -2.8665    0.2576    0.2107 C   0  0  0  0  0  0  0  0  0  0  0  0
   -2.1922    1.5113    0.5568 N   0  0  0  0  0  0  0  0  0  0  0  0
   -1.1231    2.0261   -0.1607 C   0  0  0  0  0  0  0  0  0  0  0  0
    0.9597   -2.2338    0.1516 N   0  0  0  0  0  0  0  0  0  0  0  0
   -0.3625   -2.3083    0.0497 C   0  0  0  0  0  0  0  0  0  0  0  0
   -1.1597    3.1363   -0.6746 O   0  0  0  0  0  0  0  0  0  0  0  0
   -1.1518   -3.5350    0.2233 C   0  0  0  0  0  0  0  0  0  0  0  0
   -2.4777   -3.5106    0.6740 C   0  0  0  0  0  0  0  0  0  0  0  0
   -3.2312   -4.6781    0.7730 C   0  0  0  0  0  0  0  0  0  0  0  0
   -2.6579   -5.9159    0.4724 C   0  0  0  0  0  0  0  0  0  0  0  0
   -1.3092   -5.9637    0.0985 C   0  0  0  0  0  0  0  0  0  0  0  0
   -0.5676   -4.7840   -0.0338 C   0  0  0  0  0  0  0  0  0  0  0  0
   -3.5169   -7.1612    0.4929 C   0  0  0  0  0  0  0  0  0  0  0  0
   -4.5824   -7.1225   -0.5271 N   0  0  0  0  0  0  0  0  0  0  0  0
   -4.0313   -7.0758   -1.8844 C   0  0  0  0  0  0  0  0  0  0  0  0
   -5.4565   -8.2867   -0.3853 C   0  0  0  0  0  0  0  0  0  0  0  0
    1.4400    2.9778   -0.1565 H   0  0  0  0  0  0  0  0  0  0  0  0
    3.5294    1.6587    0.0264 H   0  0  0  0  0  0  0  0  0  0  0  0
    3.4454   -0.8332    0.2159 H   0  0  0  0  0  0  0  0  0  0  0  0
   -2.7445   -1.5338   -1.0249 H   0  0  0  0  0  0  0  0  0  0  0  0
   -1.9634   -0.1355   -1.7268 H   0  0  0  0  0  0  0  0  0  0  0  0
   -3.0368   -0.2682    1.1580 H   0  0  0  0  0  0  0  0  0  0  0  0
   -3.8496    0.5309   -0.1852 H   0  0  0  0  0  0  0  0  0  0  0  0
   -2.0024    1.5636    1.5516 H   0  0  0  0  0  0  0  0  0  0  0  0
   -2.9623   -2.5837    0.9545 H   0  0  0  0  0  0  0  0  0  0  0  0
   -4.2792   -4.6200    1.0601 H   0  0  0  0  0  0  0  0  0  0  0  0
   -0.8329   -6.9176   -0.1211 H   0  0  0  0  0  0  0  0  0  0  0  0
    0.4751   -4.8426   -0.3418 H   0  0  0  0  0  0  0  0  0  0  0  0
   -2.8936   -8.0576    0.3812 H   0  0  0  0  0  0  0  0  0  0  0  0
   -3.9684   -7.2205    1.4934 H   0  0  0  0  0  0  0  0  0  0  0  0
   -3.3886   -7.9367   -2.0989 H   0  0  0  0  0  0  0  0  0  0  0  0
   -4.8388   -7.0523   -2.6245 H   0  0  0  0  0  0  0  0  0  0  0  0
   -3.4524   -6.1610   -2.0512 H   0  0  0  0  0  0  0  0  0  0  0  0
   -4.9135   -9.2293   -0.5186 H   0  0  0  0  0  0  0  0  0  0  0  0
   -5.9309   -8.2956    0.6020 H   0  0  0  0  0  0  0  0  0  0  0  0
   -6.2678   -8.2497   -1.1211 H   0  0  0  0  0  0  0  0  0  0  0  0
  1  2  1  0  0  0  0
  1  7  1  0  0  0  0
  2  3  2  0  0  0  0
  3  4  1  0  0  0  0
  3 25  1  0  0  0  0
  4  5  2  0  0  0  0
  4 26  1  0  0  0  0
  5  6  1  0  0  0  0
  5 27  1  0  0  0  0
  6  1  2  0  0  0  0
  6 12  1  0  0  0  0
  7  8  1  0  0  0  0
  8  9  1  0  0  0  0
  8 28  1  0  0  0  0
  8 29  1  0  0  0  0
  9 10  1  0  0  0  0
  9 30  1  0  0  0  0
  9 31  1  0  0  0  0
 10 11  1  0  0  0  0
 10 32  1  0  0  0  0
 11  2  1  0  0  0  0
 11 14  2  0  0  0  0
 12 13  2  0  0  0  0
 13  7  1  0  0  0  0
 13 15  1  0  0  0  0
 15 16  2  0  0  0  0
 16 17  1  0  0  0  0
 16 33  1  0  0  0  0
 17 18  2  0  0  0  0
 17 34  1  0  0  0  0
 18 19  1  0  0  0  0
 18 21  1  0  0  0  0
 19 20  2  0  0  0  0
 19 35  1  0  0  0  0
 20 15  1  0  0  0  0
 20 36  1  0  0  0  0
 21 22  1  0  0  0  0
 21 37  1  0  0  0  0
 21 38  1  0  0  0  0
 22 23  1  0  0  0  0
 22 24  1  0  0  0  0
 23 39  1  0  0  0  0
 23 40  1  0  0  0  0
 23 41  1  0  0  0  0
 24 42  1  0  0  0  0
 24 43  1  0  0  0  0
 24 44  1  0  0  0  0
M  END
>  <Mol_ID>
627

>  <Formula>
C19H20N4O

>  <MolWeight>
320.3883

>  <Cat>
S2178

>  <Name>
AG-14361

>  <Synonyms>
N/A

>  <Target>
PARP

>  <Form>
free base

>  <CAS>
328543-09-5

>  <URL>
http://selleckchem.com/products/AG14361.html

$$$$
