Agaric acid
 OpenBabel08302521493D

 69 68  0  0  0  0  0  0  0  0999 V2000
   -3.0675   -1.5986    0.2030 C   0  0  3  0  0  0  0  0  0  0  0  0
   -3.9060   -2.3917   -0.8347 C   0  0  3  0  0  0  0  0  0  0  0  0
   -1.5388   -1.5374   -0.0132 C   0  0  0  0  0  0  0  0  0  0  0  0
   -3.3074   -2.1772    1.5920 C   0  0  0  0  0  0  0  0  0  0  0  0
   -5.4074   -2.3770   -0.4521 C   0  0  0  0  0  0  0  0  0  0  0  0
   -3.7836   -1.7537   -2.2277 C   0  0  0  0  0  0  0  0  0  0  0  0
   -3.4004   -3.7520   -0.8790 O   0  0  0  0  0  0  0  0  0  0  0  0
   -1.0324   -0.7156   -1.2049 C   0  0  0  0  0  0  0  0  0  0  0  0
   -3.0387   -3.4950    1.7013 O   0  0  0  0  0  0  0  0  0  0  0  0
   -3.7328   -1.5149    2.5261 O   0  0  0  0  0  0  0  0  0  0  0  0
   -6.2335   -3.0634   -1.5058 C   0  0  0  0  0  0  0  0  0  0  0  0
   -3.0959   -2.5322   -3.1024 O   0  0  0  0  0  0  0  0  0  0  0  0
   -4.2542   -0.6687   -2.5312 O   0  0  0  0  0  0  0  0  0  0  0  0
   -1.5024    0.7403   -1.2185 C   0  0  0  0  0  0  0  0  0  0  0  0
   -7.5293   -2.7054   -1.5124 O   0  0  0  0  0  0  0  0  0  0  0  0
   -5.7727   -3.9368   -2.2293 O   0  0  0  0  0  0  0  0  0  0  0  0
   -1.0770    1.4395   -2.5110 C   0  0  0  0  0  0  0  0  0  0  0  0
   -1.5329    2.8980   -2.5263 C   0  0  0  0  0  0  0  0  0  0  0  0
   -1.0968    3.6003   -3.8115 C   0  0  0  0  0  0  0  0  0  0  0  0
   -1.5366    5.0640   -3.8154 C   0  0  0  0  0  0  0  0  0  0  0  0
   -1.0935    5.7697   -5.0977 C   0  0  0  0  0  0  0  0  0  0  0  0
   -1.5311    7.2339   -5.0962 C   0  0  0  0  0  0  0  0  0  0  0  0
   -1.0938    7.9400   -6.3802 C   0  0  0  0  0  0  0  0  0  0  0  0
   -1.5321    9.4048   -6.3818 C   0  0  0  0  0  0  0  0  0  0  0  0
   -1.0986   10.1115   -7.6661 C   0  0  0  0  0  0  0  0  0  0  0  0
   -1.5315   11.5783   -7.6675 C   0  0  0  0  0  0  0  0  0  0  0  0
   -1.0879   12.2837   -8.9499 C   0  0  0  0  0  0  0  0  0  0  0  0
   -1.5304   13.7464   -8.9658 C   0  0  0  0  0  0  0  0  0  0  0  0
   -1.0858   14.4461  -10.2404 C   0  0  0  0  0  0  0  0  0  0  0  0
   -3.4546   -0.5737    0.2513 H   0  0  0  0  0  0  0  0  0  0  0  0
   -1.0735   -1.1216    0.8924 H   0  0  0  0  0  0  0  0  0  0  0  0
   -1.1344   -2.5541   -0.1046 H   0  0  0  0  0  0  0  0  0  0  0  0
   -5.5891   -2.9212    0.4792 H   0  0  0  0  0  0  0  0  0  0  0  0
   -5.7534   -1.3423   -0.3449 H   0  0  0  0  0  0  0  0  0  0  0  0
   -4.0828   -4.2860   -1.3541 H   0  0  0  0  0  0  0  0  0  0  0  0
    0.0632   -0.7273   -1.1862 H   0  0  0  0  0  0  0  0  0  0  0  0
   -1.3007   -1.2049   -2.1418 H   0  0  0  0  0  0  0  0  0  0  0  0
   -2.7983   -3.9122    0.8423 H   0  0  0  0  0  0  0  0  0  0  0  0
   -2.7844   -3.3557   -2.6702 H   0  0  0  0  0  0  0  0  0  0  0  0
   -2.5923    0.8064   -1.1354 H   0  0  0  0  0  0  0  0  0  0  0  0
   -1.0856    1.2661   -0.3514 H   0  0  0  0  0  0  0  0  0  0  0  0
   -7.7756   -2.0212   -0.8584 H   0  0  0  0  0  0  0  0  0  0  0  0
    0.0129    1.3892   -2.6160 H   0  0  0  0  0  0  0  0  0  0  0  0
   -1.5101    0.9145   -3.3713 H   0  0  0  0  0  0  0  0  0  0  0  0
   -2.6248    2.9441   -2.4350 H   0  0  0  0  0  0  0  0  0  0  0  0
   -1.1132    3.4228   -1.6595 H   0  0  0  0  0  0  0  0  0  0  0  0
   -0.0053    3.5437   -3.9090 H   0  0  0  0  0  0  0  0  0  0  0  0
   -1.5262    3.0835   -4.6786 H   0  0  0  0  0  0  0  0  0  0  0  0
   -2.6271    5.1203   -3.7202 H   0  0  0  0  0  0  0  0  0  0  0  0
   -1.1086    5.5777   -2.9457 H   0  0  0  0  0  0  0  0  0  0  0  0
   -0.0039    5.7104   -5.1914 H   0  0  0  0  0  0  0  0  0  0  0  0
   -1.5234    5.2571   -5.9646 H   0  0  0  0  0  0  0  0  0  0  0  0
   -2.6214    7.2932   -4.9970 H   0  0  0  0  0  0  0  0  0  0  0  0
   -1.0981    7.7471   -4.2290 H   0  0  0  0  0  0  0  0  0  0  0  0
   -0.0030    7.8817   -6.4787 H   0  0  0  0  0  0  0  0  0  0  0  0
   -1.5249    7.4255   -7.2476 H   0  0  0  0  0  0  0  0  0  0  0  0
   -2.6228    9.4618   -6.2808 H   0  0  0  0  0  0  0  0  0  0  0  0
   -1.0995    9.9183   -5.5145 H   0  0  0  0  0  0  0  0  0  0  0  0
   -0.0085   10.0493   -7.7699 H   0  0  0  0  0  0  0  0  0  0  0  0
   -1.5355    9.5990   -8.5319 H   0  0  0  0  0  0  0  0  0  0  0  0
   -2.6225   11.6391   -7.5720 H   0  0  0  0  0  0  0  0  0  0  0  0
   -1.1015   12.0904   -6.7982 H   0  0  0  0  0  0  0  0  0  0  0  0
    0.0039   12.2291   -9.0397 H   0  0  0  0  0  0  0  0  0  0  0  0
   -1.5097   11.7641   -9.8187 H   0  0  0  0  0  0  0  0  0  0  0  0
   -2.6219   13.8059   -8.8846 H   0  0  0  0  0  0  0  0  0  0  0  0
   -1.1111   14.2736   -8.1009 H   0  0  0  0  0  0  0  0  0  0  0  0
   -1.4949   13.9466  -11.1254 H   0  0  0  0  0  0  0  0  0  0  0  0
   -1.4327   15.4834  -10.2453 H   0  0  0  0  0  0  0  0  0  0  0  0
    0.0056   14.4517  -10.3237 H   0  0  0  0  0  0  0  0  0  0  0  0
  1  2  1  0  0  0  0
  1  3  1  0  0  0  0
  1  4  1  0  0  0  0
  1 30  1  0  0  0  0
  2  5  1  0  0  0  0
  2  6  1  0  0  0  0
  2  7  1  0  0  0  0
  3  8  1  0  0  0  0
  3 31  1  0  0  0  0
  3 32  1  0  0  0  0
  4  9  1  0  0  0  0
  4 10  2  0  0  0  0
  5 11  1  0  0  0  0
  5 33  1  0  0  0  0
  5 34  1  0  0  0  0
  6 12  1  0  0  0  0
  6 13  2  0  0  0  0
  7 35  1  0  0  0  0
  8 14  1  0  0  0  0
  8 36  1  0  0  0  0
  8 37  1  0  0  0  0
  9 38  1  0  0  0  0
 11 15  1  0  0  0  0
 11 16  2  0  0  0  0
 12 39  1  0  0  0  0
 14 17  1  0  0  0  0
 14 40  1  0  0  0  0
 14 41  1  0  0  0  0
 15 42  1  0  0  0  0
 17 18  1  0  0  0  0
 17 43  1  0  0  0  0
 17 44  1  0  0  0  0
 18 19  1  0  0  0  0
 18 45  1  0  0  0  0
 18 46  1  0  0  0  0
 19 20  1  0  0  0  0
 19 47  1  0  0  0  0
 19 48  1  0  0  0  0
 20 21  1  0  0  0  0
 20 49  1  0  0  0  0
 20 50  1  0  0  0  0
 21 22  1  0  0  0  0
 21 51  1  0  0  0  0
 21 52  1  0  0  0  0
 22 23  1  0  0  0  0
 22 53  1  0  0  0  0
 22 54  1  0  0  0  0
 23 24  1  0  0  0  0
 23 55  1  0  0  0  0
 23 56  1  0  0  0  0
 24 25  1  0  0  0  0
 24 57  1  0  0  0  0
 24 58  1  0  0  0  0
 25 26  1  0  0  0  0
 25 59  1  0  0  0  0
 25 60  1  0  0  0  0
 26 27  1  0  0  0  0
 26 61  1  0  0  0  0
 26 62  1  0  0  0  0
 27 28  1  0  0  0  0
 27 63  1  0  0  0  0
 27 64  1  0  0  0  0
 28 29  1  0  0  0  0
 28 65  1  0  0  0  0
 28 66  1  0  0  0  0
 29 67  1  0  0  0  0
 29 68  1  0  0  0  0
 29 69  1  0  0  0  0
M  END
>  <Mol_ID>
9839

>  <Formula>
C22H40O7

>  <MolWeight>
416.5488

>  <Cat>
E2465

>  <Name>
Agaric acid

>  <Synonyms>
N/A

>  <Target>
Calcium Channel

>  <Form>
free base

>  <CAS>
666-99-9

>  <URL>
https://www.selleckchem.com/products/agaric-acid.html

$$$$
