AGI5198.cdx
 OpenBabel08302519513D

 65 68  0  0  0  0  0  0  0  0999 V2000
    1.6957   -3.9070   -0.8357 C   0  0  0  0  0  0  0  0  0  0  0  0
    3.0559   -3.5415   -0.2440 C   0  0  0  0  0  0  0  0  0  0  0  0
    3.4158   -2.0762   -0.4989 C   0  0  0  0  0  0  0  0  0  0  0  0
    2.3289   -1.1336    0.0216 C   0  0  0  0  0  0  0  0  0  0  0  0
    0.9696   -1.4897   -0.6041 C   0  0  0  0  0  0  0  0  0  0  0  0
    0.5873   -2.9562   -0.3917 C   0  0  0  0  0  0  0  0  0  0  0  0
    2.2646   -1.2258    1.4721 N   0  0  0  0  0  0  0  0  0  0  0  0
    2.9078   -0.3765    2.3443 C   0  0  0  0  0  0  0  0  0  0  0  0
    2.5946   -0.6274    3.8548 C   0  0  3  0  0  0  0  0  0  0  0  0
    3.6312    0.5447    1.9717 O   0  0  0  0  0  0  0  0  0  0  0  0
    1.4209    0.0832    4.4464 N   0  0  0  0  0  0  0  0  0  0  0  0
    2.8038   -2.0964    4.2980 C   0  0  0  0  0  0  0  0  0  0  0  0
    1.8350   -3.1244    4.3645 C   0  0  0  0  0  0  0  0  0  0  0  0
    2.2037   -4.3900    4.8759 C   0  0  0  0  0  0  0  0  0  0  0  0
    3.5028   -4.6693    5.2834 C   0  0  0  0  0  0  0  0  0  0  0  0
    4.4748   -3.6919    5.1650 C   0  0  0  0  0  0  0  0  0  0  0  0
    4.1314   -2.4301    4.6761 C   0  0  0  0  0  0  0  0  0  0  0  0
    0.4031   -3.0430    3.9245 C   0  0  0  0  0  0  0  0  0  0  0  0
    0.2785    0.3327    3.6859 C   0  0  0  0  0  0  0  0  0  0  0  0
    1.4377    0.2250    5.8663 C   0  0  0  0  0  0  0  0  0  0  0  0
    2.3507    1.0874    6.4829 C   0  0  0  0  0  0  0  0  0  0  0  0
    2.3279    1.2268    7.8693 C   0  0  0  0  0  0  0  0  0  0  0  0
    1.4367    0.5054    8.6572 C   0  0  0  0  0  0  0  0  0  0  0  0
    0.5508   -0.3801    8.0509 C   0  0  0  0  0  0  0  0  0  0  0  0
    0.5509   -0.5181    6.6609 C   0  0  0  0  0  0  0  0  0  0  0  0
    3.1703    2.0858    8.4578 F   0  0  0  0  0  0  0  0  0  0  0  0
   -0.8602    1.1445    4.2758 C   0  0  0  0  0  0  0  0  0  0  0  0
    0.1581   -0.0429    2.5160 O   0  0  0  0  0  0  0  0  0  0  0  0
   -0.6536    2.5638    4.0757 N   0  0  0  0  0  0  0  0  0  0  0  0
   -0.2107    3.4231    5.0459 C   0  0  0  0  0  0  0  0  0  0  0  0
   -0.1647    4.6530    4.4424 C   0  0  0  0  0  0  0  0  0  0  0  0
   -0.5911    4.5660    3.1469 N   0  0  0  0  0  0  0  0  0  0  0  0
   -0.8803    3.2970    2.9326 C   0  0  0  0  0  0  0  0  0  0  0  0
   -1.3858    2.7623    1.6414 C   0  0  0  0  0  0  0  0  0  0  0  0
    1.7633   -3.8918   -1.9290 H   0  0  0  0  0  0  0  0  0  0  0  0
    1.4348   -4.9313   -0.5457 H   0  0  0  0  0  0  0  0  0  0  0  0
    3.0476   -3.7377    0.8356 H   0  0  0  0  0  0  0  0  0  0  0  0
    3.8288   -4.1876   -0.6737 H   0  0  0  0  0  0  0  0  0  0  0  0
    4.3752   -1.8486   -0.0193 H   0  0  0  0  0  0  0  0  0  0  0  0
    3.5494   -1.9178   -1.5762 H   0  0  0  0  0  0  0  0  0  0  0  0
    2.5830   -0.1017   -0.2479 H   0  0  0  0  0  0  0  0  0  0  0  0
    0.1801   -0.8481   -0.1942 H   0  0  0  0  0  0  0  0  0  0  0  0
    1.0086   -1.2909   -1.6828 H   0  0  0  0  0  0  0  0  0  0  0  0
   -0.3322   -3.1804   -0.9450 H   0  0  0  0  0  0  0  0  0  0  0  0
    0.3563   -3.1327    0.6654 H   0  0  0  0  0  0  0  0  0  0  0  0
    1.5249   -1.7900    1.8628 H   0  0  0  0  0  0  0  0  0  0  0  0
    3.4402   -0.0906    4.3161 H   0  0  0  0  0  0  0  0  0  0  0  0
    1.4567   -5.1799    4.9534 H   0  0  0  0  0  0  0  0  0  0  0  0
    3.7516   -5.6504    5.6781 H   0  0  0  0  0  0  0  0  0  0  0  0
    5.4996   -3.9050    5.4578 H   0  0  0  0  0  0  0  0  0  0  0  0
    4.9291   -1.6902    4.5982 H   0  0  0  0  0  0  0  0  0  0  0  0
    0.2127   -3.7913    3.1474 H   0  0  0  0  0  0  0  0  0  0  0  0
   -0.2662   -3.2381    4.7683 H   0  0  0  0  0  0  0  0  0  0  0  0
    0.1253   -2.0917    3.5032 H   0  0  0  0  0  0  0  0  0  0  0  0
    3.0483    1.6843    5.9072 H   0  0  0  0  0  0  0  0  0  0  0  0
    1.4417    0.6360    9.7351 H   0  0  0  0  0  0  0  0  0  0  0  0
   -0.1359   -0.9654    8.6578 H   0  0  0  0  0  0  0  0  0  0  0  0
   -0.1329   -1.2320    6.2101 H   0  0  0  0  0  0  0  0  0  0  0  0
   -1.7899    0.8604    3.7704 H   0  0  0  0  0  0  0  0  0  0  0  0
   -1.0329    0.9614    5.3350 H   0  0  0  0  0  0  0  0  0  0  0  0
    0.0347    3.1004    6.0479 H   0  0  0  0  0  0  0  0  0  0  0  0
    0.1522    5.5935    4.8730 H   0  0  0  0  0  0  0  0  0  0  0  0
   -2.3371    3.2427    1.3877 H   0  0  0  0  0  0  0  0  0  0  0  0
   -0.6714    2.9900    0.8440 H   0  0  0  0  0  0  0  0  0  0  0  0
   -1.5523    1.6839    1.6469 H   0  0  0  0  0  0  0  0  0  0  0  0
  1  2  1  0  0  0  0
  1 35  1  0  0  0  0
  1 36  1  0  0  0  0
  2  3  1  0  0  0  0
  2 37  1  0  0  0  0
  2 38  1  0  0  0  0
  3  4  1  0  0  0  0
  3 39  1  0  0  0  0
  3 40  1  0  0  0  0
  4  5  1  0  0  0  0
  4  7  1  0  0  0  0
  4 41  1  0  0  0  0
  5  6  1  0  0  0  0
  5 42  1  0  0  0  0
  5 43  1  0  0  0  0
  6  1  1  0  0  0  0
  6 44  1  0  0  0  0
  6 45  1  0  0  0  0
  7  8  1  0  0  0  0
  7 46  1  0  0  0  0
  8  9  1  0  0  0  0
  8 10  2  0  0  0  0
  9 11  1  0  0  0  0
  9 12  1  0  0  0  0
  9 47  1  0  0  0  0
 11 19  1  0  0  0  0
 11 20  1  0  0  0  0
 12 13  2  0  0  0  0
 13 14  1  0  0  0  0
 13 18  1  0  0  0  0
 14 15  2  0  0  0  0
 14 48  1  0  0  0  0
 15 16  1  0  0  0  0
 15 49  1  0  0  0  0
 16 17  2  0  0  0  0
 16 50  1  0  0  0  0
 17 12  1  0  0  0  0
 17 51  1  0  0  0  0
 18 52  1  0  0  0  0
 18 53  1  0  0  0  0
 18 54  1  0  0  0  0
 19 27  1  0  0  0  0
 19 28  2  0  0  0  0
 20 21  2  0  0  0  0
 21 22  1  0  0  0  0
 21 55  1  0  0  0  0
 22 23  2  0  0  0  0
 22 26  1  0  0  0  0
 23 24  1  0  0  0  0
 23 56  1  0  0  0  0
 24 25  2  0  0  0  0
 24 57  1  0  0  0  0
 25 20  1  0  0  0  0
 25 58  1  0  0  0  0
 27 29  1  0  0  0  0
 27 59  1  0  0  0  0
 27 60  1  0  0  0  0
 29 30  1  0  0  0  0
 30 31  2  0  0  0  0
 30 61  1  0  0  0  0
 31 32  1  0  0  0  0
 31 62  1  0  0  0  0
 32 33  2  0  0  0  0
 33 29  1  0  0  0  0
 33 34  1  0  0  0  0
 34 63  1  0  0  0  0
 34 64  1  0  0  0  0
 34 65  1  0  0  0  0
M  END
>  <Mol_ID>
1896

>  <Formula>
C27H31FN4O2

>  <MolWeight>
462.5590432

>  <Cat>
S7185

>  <Name>
AGI-5198

>  <Synonyms>
IDH-C35

>  <Target>
Dehydrogenase

>  <Form>
free base

>  <CAS>
1355326-35-0

>  <URL>
http://selleckchem.com/products/agi-5198.html

$$$$
