Agomelatine.cdx
 OpenBabel08302522023D

 35 36  0  0  0  0  0  0  0  0999 V2000
    1.8128    2.0761   -2.5398 C   0  0  0  0  0  0  0  0  0  0  0  0
    2.6191    1.2251   -3.4860 C   0  0  0  0  0  0  0  0  0  0  0  0
    1.0227    2.9182   -2.9657 O   0  0  0  0  0  0  0  0  0  0  0  0
    1.9511    1.9244   -1.1958 N   0  0  0  0  0  0  0  0  0  0  0  0
    2.8375    1.0472   -0.4424 C   0  0  0  0  0  0  0  0  0  0  0  0
    4.2062    1.6936   -0.1867 C   0  0  0  0  0  0  0  0  0  0  0  0
    5.1766    0.9016    0.6813 C   0  0  0  0  0  0  0  0  0  0  0  0
    5.1519   -0.5058    0.6598 C   0  0  0  0  0  0  0  0  0  0  0  0
    5.9842   -1.2547    1.4867 C   0  0  0  0  0  0  0  0  0  0  0  0
    6.8850   -0.6140    2.3299 C   0  0  0  0  0  0  0  0  0  0  0  0
    7.0021    0.7805    2.3223 C   0  0  0  0  0  0  0  0  0  0  0  0
    7.9683    1.3999    3.1287 C   0  0  0  0  0  0  0  0  0  0  0  0
    8.1296    2.7817    3.1135 C   0  0  0  0  0  0  0  0  0  0  0  0
    7.3297    3.5741    2.3026 C   0  0  0  0  0  0  0  0  0  0  0  0
    6.3528    2.9657    1.5064 C   0  0  0  0  0  0  0  0  0  0  0  0
    6.1559    1.5612    1.4918 C   0  0  0  0  0  0  0  0  0  0  0  0
    7.5950    4.9149    2.3610 O   0  0  0  0  0  0  0  0  0  0  0  0
    6.8012    5.7694    1.5478 C   0  0  0  0  0  0  0  0  0  0  0  0
    1.9290    0.6547   -4.1154 H   0  0  0  0  0  0  0  0  0  0  0  0
    3.2265    1.8800   -4.1177 H   0  0  0  0  0  0  0  0  0  0  0  0
    3.2860    0.5241   -2.9870 H   0  0  0  0  0  0  0  0  0  0  0  0
    1.3650    2.5643   -0.6708 H   0  0  0  0  0  0  0  0  0  0  0  0
    2.3356    0.8475    0.5109 H   0  0  0  0  0  0  0  0  0  0  0  0
    2.9204    0.0964   -0.9740 H   0  0  0  0  0  0  0  0  0  0  0  0
    4.7014    1.9253   -1.1370 H   0  0  0  0  0  0  0  0  0  0  0  0
    3.9861    2.6481    0.3021 H   0  0  0  0  0  0  0  0  0  0  0  0
    4.4834   -1.0506   -0.0021 H   0  0  0  0  0  0  0  0  0  0  0  0
    5.9316   -2.3404    1.4737 H   0  0  0  0  0  0  0  0  0  0  0  0
    7.5171   -1.2190    2.9758 H   0  0  0  0  0  0  0  0  0  0  0  0
    8.6150    0.8058    3.7675 H   0  0  0  0  0  0  0  0  0  0  0  0
    8.8963    3.2422    3.7326 H   0  0  0  0  0  0  0  0  0  0  0  0
    5.7405    3.5887    0.8667 H   0  0  0  0  0  0  0  0  0  0  0  0
    6.9107    5.5237    0.4862 H   0  0  0  0  0  0  0  0  0  0  0  0
    5.7502    5.7371    1.8544 H   0  0  0  0  0  0  0  0  0  0  0  0
    7.1583    6.7939    1.6875 H   0  0  0  0  0  0  0  0  0  0  0  0
  1  2  1  0  0  0  0
  1  3  2  0  0  0  0
  1  4  1  0  0  0  0
  2 19  1  0  0  0  0
  2 20  1  0  0  0  0
  2 21  1  0  0  0  0
  4  5  1  0  0  0  0
  4 22  1  0  0  0  0
  5  6  1  0  0  0  0
  5 23  1  0  0  0  0
  5 24  1  0  0  0  0
  6  7  1  0  0  0  0
  6 25  1  0  0  0  0
  6 26  1  0  0  0  0
  7  8  2  0  0  0  0
  7 16  1  0  0  0  0
  8  9  1  0  0  0  0
  8 27  1  0  0  0  0
  9 10  2  0  0  0  0
  9 28  1  0  0  0  0
 10 11  1  0  0  0  0
 10 29  1  0  0  0  0
 11 12  1  0  0  0  0
 11 16  2  0  0  0  0
 12 13  2  0  0  0  0
 12 30  1  0  0  0  0
 13 14  1  0  0  0  0
 13 31  1  0  0  0  0
 14 15  2  0  0  0  0
 14 17  1  0  0  0  0
 15 16  1  0  0  0  0
 15 32  1  0  0  0  0
 17 18  1  0  0  0  0
 18 33  1  0  0  0  0
 18 34  1  0  0  0  0
 18 35  1  0  0  0  0
M  END
>  <Mol_ID>
135

>  <Formula>
C15H17NO2

>  <MolWeight>
243.30098

>  <Cat>
S1243

>  <Name>
Agomelatine (S20098)

>  <Synonyms>
Valdoxan, Melitor, Thymanax,S20098

>  <Target>
5-HT Receptor

>  <Form>
free base

>  <CAS>
138112-76-2

>  <URL>
http://selleckchem.com/products/Agomelatine.html

$$$$
