AH7614
 OpenBabel08302521313D

 42 45  0  0  0  0  0  0  0  0999 V2000
    1.5028    2.2249    1.4866 S   0  0  0  0  0  0  0  0  0  0  0  0
    2.7291    4.8686   -1.2953 O   0  0  0  0  0  0  0  0  0  0  0  0
    2.7932    2.8458    1.3205 O   0  0  0  0  0  0  0  0  0  0  0  0
    1.3409    1.0800    2.3591 O   0  0  0  0  0  0  0  0  0  0  0  0
    0.8863    1.7358    0.0061 N   0  0  0  0  0  0  0  0  0  0  0  0
    1.1022    2.4810   -1.2439 C   0  0  0  0  0  0  0  0  0  0  0  0
    2.5390    2.4698   -1.6928 C   0  0  0  0  0  0  0  0  0  0  0  0
    0.5088    3.8612   -1.2554 C   0  0  0  0  0  0  0  0  0  0  0  0
    3.2845    3.6488   -1.6048 C   0  0  0  0  0  0  0  0  0  0  0  0
    1.3581    4.9741   -1.2865 C   0  0  0  0  0  0  0  0  0  0  0  0
    3.1688    1.2883   -2.1147 C   0  0  0  0  0  0  0  0  0  0  0  0
   -0.8822    4.0646   -1.2194 C   0  0  0  0  0  0  0  0  0  0  0  0
    0.3373    3.4448    2.0327 C   0  0  0  0  0  0  0  0  0  0  0  0
    4.6626    3.6260   -1.8144 C   0  0  0  0  0  0  0  0  0  0  0  0
    0.8329    6.2659   -1.2695 C   0  0  0  0  0  0  0  0  0  0  0  0
    4.5412    1.2770   -2.3649 C   0  0  0  0  0  0  0  0  0  0  0  0
   -1.4046    5.3604   -1.2038 C   0  0  0  0  0  0  0  0  0  0  0  0
    5.2924    2.4373   -2.1821 C   0  0  0  0  0  0  0  0  0  0  0  0
   -0.5488    6.4587   -1.2288 C   0  0  0  0  0  0  0  0  0  0  0  0
   -0.9649    3.0432    2.3330 C   0  0  0  0  0  0  0  0  0  0  0  0
    0.7068    4.7894    2.0995 C   0  0  0  0  0  0  0  0  0  0  0  0
   -1.6081    5.3710    2.5363 C   0  0  0  0  0  0  0  0  0  0  0  0
   -1.9365    4.0102    2.5862 C   0  0  0  0  0  0  0  0  0  0  0  0
   -0.2712    5.7519    2.3489 C   0  0  0  0  0  0  0  0  0  0  0  0
   -2.6745    6.4196    2.6426 C   0  0  0  0  0  0  0  0  0  0  0  0
    0.8341    0.7246   -0.0638 H   0  0  0  0  0  0  0  0  0  0  0  0
    0.5505    1.9278   -2.0205 H   0  0  0  0  0  0  0  0  0  0  0  0
    2.6003    0.3686   -2.2290 H   0  0  0  0  0  0  0  0  0  0  0  0
   -1.5603    3.2153   -1.1792 H   0  0  0  0  0  0  0  0  0  0  0  0
    5.2460    4.5309   -1.6725 H   0  0  0  0  0  0  0  0  0  0  0  0
    1.5009    7.1223   -1.2774 H   0  0  0  0  0  0  0  0  0  0  0  0
    5.0314    0.3572   -2.6733 H   0  0  0  0  0  0  0  0  0  0  0  0
   -2.4803    5.5096   -1.1482 H   0  0  0  0  0  0  0  0  0  0  0  0
    6.3696    2.4171   -2.3235 H   0  0  0  0  0  0  0  0  0  0  0  0
   -0.9552    7.4661   -1.1995 H   0  0  0  0  0  0  0  0  0  0  0  0
   -1.2331    1.9896    2.3291 H   0  0  0  0  0  0  0  0  0  0  0  0
    1.7284    5.0998    1.8911 H   0  0  0  0  0  0  0  0  0  0  0  0
   -2.9597    3.6964    2.7794 H   0  0  0  0  0  0  0  0  0  0  0  0
    0.0019    6.8052    2.3348 H   0  0  0  0  0  0  0  0  0  0  0  0
   -2.6272    6.9247    3.6106 H   0  0  0  0  0  0  0  0  0  0  0  0
   -2.5508    7.1572    1.8415 H   0  0  0  0  0  0  0  0  0  0  0  0
   -3.6713    5.9823    2.5205 H   0  0  0  0  0  0  0  0  0  0  0  0
  1  3  2  0  0  0  0
  1  4  2  0  0  0  0
  1  5  1  0  0  0  0
  1 13  1  0  0  0  0
  2  9  1  0  0  0  0
  2 10  1  0  0  0  0
  5  6  1  0  0  0  0
  5 26  1  0  0  0  0
  6  7  1  0  0  0  0
  6  8  1  0  0  0  0
  6 27  1  0  0  0  0
  7  9  2  0  0  0  0
  7 11  1  0  0  0  0
  8 10  2  0  0  0  0
  8 12  1  0  0  0  0
  9 14  1  0  0  0  0
 10 15  1  0  0  0  0
 11 16  2  0  0  0  0
 11 28  1  0  0  0  0
 12 17  2  0  0  0  0
 12 29  1  0  0  0  0
 13 20  2  0  0  0  0
 13 21  1  0  0  0  0
 14 18  2  0  0  0  0
 14 30  1  0  0  0  0
 15 19  2  0  0  0  0
 15 31  1  0  0  0  0
 16 18  1  0  0  0  0
 16 32  1  0  0  0  0
 17 19  1  0  0  0  0
 17 33  1  0  0  0  0
 18 34  1  0  0  0  0
 19 35  1  0  0  0  0
 20 23  1  0  0  0  0
 20 36  1  0  0  0  0
 21 24  2  0  0  0  0
 21 37  1  0  0  0  0
 22 23  2  0  0  0  0
 22 24  1  0  0  0  0
 22 25  1  0  0  0  0
 23 38  1  0  0  0  0
 24 39  1  0  0  0  0
 25 40  1  0  0  0  0
 25 41  1  0  0  0  0
 25 42  1  0  0  0  0
M  END
>  <Mol_ID>
5805

>  <Formula>
C20H17NO3S

>  <MolWeight>
351.41888

>  <Cat>
S9477

>  <Name>
AH7614

>  <Synonyms>
N/A

>  <Target>
GPR

>  <Form>
Free Base

>  <CAS>
6326-06-3

>  <URL>
http://www.selleckchem.com/products/ah7614.html

$$$$
