aicar.cdx
 OpenBabel08302522033D

 32 33  0  0  0  0  0  0  0  0999 V2000
   -0.2677   -0.8648   -0.4401 C   0  0  1  0  0  0  0  0  0  0  0  0
   -0.6126    0.6151   -0.5017 C   0  0  2  0  0  0  0  0  0  0  0  0
    0.4909    1.2372    0.3546 C   0  0  1  0  0  0  0  0  0  0  0  0
    1.6225    0.3305    0.3387 O   0  0  0  0  0  0  0  0  0  0  0  0
    1.2545   -0.8732   -0.3728 C   0  0  2  0  0  0  0  0  0  0  0  0
    1.9303   -0.8660   -1.7478 C   0  0  0  0  0  0  0  0  0  0  0  0
    0.9132    2.5563   -0.0917 N   0  0  0  0  0  0  0  0  0  0  0  0
   -0.8466   -1.4020    0.7645 O   0  0  0  0  0  0  0  0  0  0  0  0
   -1.9209    0.8667    0.0242 O   0  0  0  0  0  0  0  0  0  0  0  0
    3.3492   -0.8859   -1.6040 O   0  0  0  0  0  0  0  0  0  0  0  0
    2.1663    2.8851   -0.5140 C   0  0  0  0  0  0  0  0  0  0  0  0
    2.3288    4.1866   -0.5961 N   0  0  0  0  0  0  0  0  0  0  0  0
    1.1024    4.7364   -0.2320 C   0  0  0  0  0  0  0  0  0  0  0  0
    0.1838    3.7208    0.0169 C   0  0  0  0  0  0  0  0  0  0  0  0
   -1.1224    3.7053    0.3646 N   0  0  0  0  0  0  0  0  0  0  0  0
    0.9180    6.1864   -0.1351 C   0  0  0  0  0  0  0  0  0  0  0  0
   -0.1348    6.7439    0.1697 O   0  0  0  0  0  0  0  0  0  0  0  0
    2.0611    6.9117   -0.3863 N   0  0  0  0  0  0  0  0  0  0  0  0
   -0.6795   -1.4341   -1.2782 H   0  0  0  0  0  0  0  0  0  0  0  0
   -0.5763    0.9840   -1.5323 H   0  0  0  0  0  0  0  0  0  0  0  0
    0.1791    1.3514    1.4007 H   0  0  0  0  0  0  0  0  0  0  0  0
    1.6352   -1.7125    0.2197 H   0  0  0  0  0  0  0  0  0  0  0  0
    1.6473   -1.7549   -2.3187 H   0  0  0  0  0  0  0  0  0  0  0  0
    1.6729    0.0248   -2.3282 H   0  0  0  0  0  0  0  0  0  0  0  0
   -0.2386   -1.2379    1.5105 H   0  0  0  0  0  0  0  0  0  0  0  0
   -2.1334    0.0993    0.6000 H   0  0  0  0  0  0  0  0  0  0  0  0
    3.5999   -0.1233   -1.0514 H   0  0  0  0  0  0  0  0  0  0  0  0
    2.9379    2.1509   -0.7070 H   0  0  0  0  0  0  0  0  0  0  0  0
   -1.6484    4.5752    0.4536 H   0  0  0  0  0  0  0  0  0  0  0  0
   -1.7240    2.8786    0.2717 H   0  0  0  0  0  0  0  0  0  0  0  0
    2.9290    6.4242   -0.5447 H   0  0  0  0  0  0  0  0  0  0  0  0
    2.0370    7.9115   -0.2690 H   0  0  0  0  0  0  0  0  0  0  0  0
  1  2  1  0  0  0  0
  1  8  1  0  0  0  0
  1 19  1  6  0  0  0
  2  3  1  0  0  0  0
  2  9  1  0  0  0  0
  2 20  1  6  0  0  0
  3  4  1  0  0  0  0
  3 21  1  1  0  0  0
  3  7  1  0  0  0  0
  4  5  1  0  0  0  0
  5  1  1  0  0  0  0
  5 22  1  1  0  0  0
  5  6  1  0  0  0  0
  6 10  1  0  0  0  0
  6 23  1  0  0  0  0
  6 24  1  0  0  0  0
  7 11  1  0  0  0  0
  8 25  1  0  0  0  0
  9 26  1  0  0  0  0
 10 27  1  0  0  0  0
 11 12  2  0  0  0  0
 11 28  1  0  0  0  0
 13 14  2  0  0  0  0
 13 12  1  0  0  0  0
 13 16  1  0  0  0  0
 14  7  1  0  0  0  0
 14 15  1  0  0  0  0
 15 29  1  0  0  0  0
 15 30  1  0  0  0  0
 16 17  2  0  0  0  0
 16 18  1  0  0  0  0
 18 31  1  0  0  0  0
 18 32  1  0  0  0  0
M  END
>  <Mol_ID>
1184

>  <Formula>
C9H14N4O5

>  <MolWeight>
258.23126

>  <Cat>
S1802

>  <Name>
AICAR (Acadesine)

>  <Synonyms>
NSC105823, AICA Riboside

>  <Target>
AMPK,Mitophagy

>  <Form>
free base

>  <CAS>
2627-69-2

>  <URL>
http://selleckchem.com/products/Acadesine.html

$$$$
