Alantolactone.cdx
 OpenBabel08302520433D

 37 39  0  0  0  0  0  0  0  0999 V2000
    1.6943   -5.1964    0.1423 C   0  0  0  0  0  0  0  0  0  0  0  0
    2.4845   -4.3261   -0.8280 C   0  0  0  0  0  0  0  0  0  0  0  0
    1.7532   -3.0286   -1.2304 C   0  0  1  0  0  0  0  0  0  0  0  0
    0.4031   -2.8593   -0.5391 C   0  0  0  0  0  0  0  0  0  0  0  0
    0.2645   -3.2348    0.9414 C   0  0  2  0  0  0  0  0  0  0  0  0
    1.2802   -4.3448    1.3372 C   0  0  0  0  0  0  0  0  0  0  0  0
   -0.6692   -2.5166   -1.2780 C   0  0  0  0  0  0  0  0  0  0  0  0
   -2.0848   -2.4621   -0.7841 C   0  0  1  0  0  0  0  0  0  0  0  0
   -2.3182   -2.9845    0.6230 C   0  0  1  0  0  0  0  0  0  0  0  0
   -1.1617   -3.7947    1.2193 C   0  0  0  0  0  0  0  0  0  0  0  0
   -2.6095   -1.0745   -0.6883 C   0  0  0  0  0  0  0  0  0  0  0  0
   -3.0053   -0.8031    0.7094 C   0  0  0  0  0  0  0  0  0  0  0  0
   -2.6554   -1.8755    1.4657 O   0  0  0  0  0  0  0  0  0  0  0  0
    0.5191   -2.0113    1.8469 C   0  0  0  0  0  0  0  0  0  0  0  0
    2.6534   -1.7937   -1.1077 C   0  0  0  0  0  0  0  0  0  0  0  0
   -3.5369    0.2103    1.1241 O   0  0  0  0  0  0  0  0  0  0  0  0
   -2.6871   -0.1380   -1.6435 C   0  0  0  0  0  0  0  0  0  0  0  0
    2.3174   -6.0337    0.4740 H   0  0  0  0  0  0  0  0  0  0  0  0
    0.8163   -5.6286   -0.3533 H   0  0  0  0  0  0  0  0  0  0  0  0
    3.4568   -4.0940   -0.3760 H   0  0  0  0  0  0  0  0  0  0  0  0
    2.7066   -4.9112   -1.7297 H   0  0  0  0  0  0  0  0  0  0  0  0
    1.5660   -3.1383   -2.3093 H   0  0  0  0  0  0  0  0  0  0  0  0
    0.8628   -4.9917    2.1190 H   0  0  0  0  0  0  0  0  0  0  0  0
    2.1856   -3.9007    1.7730 H   0  0  0  0  0  0  0  0  0  0  0  0
   -0.5372   -2.2951   -2.3364 H   0  0  0  0  0  0  0  0  0  0  0  0
   -2.6992   -3.0503   -1.4805 H   0  0  0  0  0  0  0  0  0  0  0  0
   -3.2077   -3.6352    0.6324 H   0  0  0  0  0  0  0  0  0  0  0  0
   -1.3100   -3.8910    2.3033 H   0  0  0  0  0  0  0  0  0  0  0  0
   -1.2268   -4.8099    0.8038 H   0  0  0  0  0  0  0  0  0  0  0  0
   -0.1828   -1.1955    1.6551 H   0  0  0  0  0  0  0  0  0  0  0  0
    1.5258   -1.6055    1.7094 H   0  0  0  0  0  0  0  0  0  0  0  0
    0.4337   -2.2852    2.9055 H   0  0  0  0  0  0  0  0  0  0  0  0
    3.7017   -2.0397   -1.3087 H   0  0  0  0  0  0  0  0  0  0  0  0
    2.3560   -1.0358   -1.8413 H   0  0  0  0  0  0  0  0  0  0  0  0
    2.6050   -1.3285   -0.1217 H   0  0  0  0  0  0  0  0  0  0  0  0
   -3.0678    0.8565   -1.4264 H   0  0  0  0  0  0  0  0  0  0  0  0
   -2.3471   -0.3356   -2.6553 H   0  0  0  0  0  0  0  0  0  0  0  0
  1  2  1  0  0  0  0
  1 18  1  0  0  0  0
  1 19  1  0  0  0  0
  2  3  1  0  0  0  0
  2 20  1  0  0  0  0
  2 21  1  0  0  0  0
  3  4  1  0  0  0  0
  3 15  1  0  0  0  0
  3 22  1  6  0  0  0
  4  5  1  0  0  0  0
  4  7  2  0  0  0  0
  5  6  1  0  0  0  0
  5 14  1  1  0  0  0
  6  1  1  0  0  0  0
  6 23  1  0  0  0  0
  6 24  1  0  0  0  0
  7 25  1  0  0  0  0
  8  7  1  0  0  0  0
  8  9  1  0  0  0  0
  8 11  1  0  0  0  0
  8 26  1  6  0  0  0
  9 10  1  0  0  0  0
  9 13  1  0  0  0  0
  9 27  1  6  0  0  0
 10  5  1  0  0  0  0
 10 28  1  0  0  0  0
 10 29  1  0  0  0  0
 11 12  1  0  0  0  0
 11 17  2  0  0  0  0
 12 13  1  0  0  0  0
 12 16  2  0  0  0  0
 14 30  1  0  0  0  0
 14 31  1  0  0  0  0
 14 32  1  0  0  0  0
 15 33  1  0  0  0  0
 15 34  1  0  0  0  0
 15 35  1  0  0  0  0
 17 36  1  0  0  0  0
 17 37  1  0  0  0  0
M  END
>  <Mol_ID>
4069

>  <Formula>
C15H20O2

>  <MolWeight>
232.3181

>  <Cat>
S8318

>  <Name>
Alantolactone

>  <Synonyms>
helenin, helenine, Eupatal

>  <Target>
TGF-beta/Smad

>  <Form>
free base

>  <CAS>
546-43-0

>  <URL>
http://selleckchem.com/products/alantolactone.html

$$$$
