¦Â-Alanine methyl ester hydrochloride
 OpenBabel08302520383D

 16 15  0  0  0  0  0  0  0  0999 V2000
    0.9394   -0.0328    0.1207 C   0  0  0  0  0  0  0  0  0  0  0  0
    0.1556   -0.2355   -1.1518 C   0  0  0  0  0  0  0  0  0  0  0  0
    0.9411    1.2878    0.4613 O   0  0  0  0  0  0  0  0  0  0  0  0
    1.5100   -0.9200    0.7404 O   0  0  0  0  0  0  0  0  0  0  0  0
   -0.4426   -1.6370   -1.1776 C   0  0  0  0  0  0  0  0  0  0  0  0
    1.6509    1.6091    1.6604 C   0  0  0  0  0  0  0  0  0  0  0  0
   -1.2440   -1.8481   -2.3829 N   0  0  0  0  0  0  0  0  0  0  0  0
   -0.6469    0.5102   -1.2033 H   0  0  0  0  0  0  0  0  0  0  0  0
    0.8324   -0.0788   -1.9992 H   0  0  0  0  0  0  0  0  0  0  0  0
    0.3557   -2.3873   -1.1515 H   0  0  0  0  0  0  0  0  0  0  0  0
   -1.0692   -1.8020   -0.2935 H   0  0  0  0  0  0  0  0  0  0  0  0
    1.6221    0.8005    2.3978 H   0  0  0  0  0  0  0  0  0  0  0  0
    2.6855    1.8578    1.4100 H   0  0  0  0  0  0  0  0  0  0  0  0
    1.1771    2.4875    2.1067 H   0  0  0  0  0  0  0  0  0  0  0  0
   -1.5472   -2.8219   -2.4135 H   0  0  0  0  0  0  0  0  0  0  0  0
   -2.0975   -1.2923   -2.3320 H   0  0  0  0  0  0  0  0  0  0  0  0
  1  2  1  0  0  0  0
  1  3  1  0  0  0  0
  1  4  2  0  0  0  0
  2  5  1  0  0  0  0
  2  8  1  0  0  0  0
  2  9  1  0  0  0  0
  3  6  1  0  0  0  0
  5  7  1  0  0  0  0
  5 10  1  0  0  0  0
  5 11  1  0  0  0  0
  6 12  1  0  0  0  0
  6 13  1  0  0  0  0
  6 14  1  0  0  0  0
  7 15  1  0  0  0  0
  7 16  1  0  0  0  0
M  END
>  <Mol_ID>
3496

>  <Formula>
C4H10ClNO2

>  <MolWeight>
139.5807

>  <Cat>
S6219

>  <Name>
¦Â-Alanine methyl ester hydrochloride

>  <Synonyms>
N/A

>  <Target>
Others

>  <Form>
hydrochloride

>  <CAS>
3196-73-4

>  <URL>
http://www.selleck.cn/products/alanine-methyl-ester-hydrochloride.html

$$$$
