¦Â-Alanine
 OpenBabel08302521383D

 13 12  0  0  0  0  0  0  0  0999 V2000
    0.9576    0.1361   -0.0054 C   0  0  0  0  0  0  0  0  0  0  0  0
    0.3954    1.4375    0.4966 C   0  0  0  0  0  0  0  0  0  0  0  0
    0.4696   -0.1171   -1.4241 C   0  0  0  0  0  0  0  0  0  0  0  0
    1.2039    2.4987    0.2765 O   0  0  0  0  0  0  0  0  0  0  0  0
   -0.7010    1.5520    1.0223 O   0  0  0  0  0  0  0  0  0  0  0  0
    0.9843   -1.3864   -1.9294 N   0  0  0  0  0  0  0  0  0  0  0  0
    0.6296   -0.6586    0.6754 H   0  0  0  0  0  0  0  0  0  0  0  0
    2.0523    0.1569    0.0504 H   0  0  0  0  0  0  0  0  0  0  0  0
   -0.6255   -0.1377   -1.4486 H   0  0  0  0  0  0  0  0  0  0  0  0
    0.7902    0.6939   -2.0886 H   0  0  0  0  0  0  0  0  0  0  0  0
    2.0534    2.2786   -0.1492 H   0  0  0  0  0  0  0  0  0  0  0  0
    0.6247   -1.5499   -2.8702 H   0  0  0  0  0  0  0  0  0  0  0  0
    1.9992   -1.3610   -2.0104 H   0  0  0  0  0  0  0  0  0  0  0  0
  1  2  1  0  0  0  0
  1  3  1  0  0  0  0
  1  7  1  0  0  0  0
  1  8  1  0  0  0  0
  2  4  1  0  0  0  0
  2  5  2  0  0  0  0
  3  6  1  0  0  0  0
  3  9  1  0  0  0  0
  3 10  1  0  0  0  0
  4 11  1  0  0  0  0
  6 12  1  0  0  0  0
  6 13  1  0  0  0  0
M  END
>  <Mol_ID>
7882

>  <Formula>
C3H7NO2

>  <MolWeight>
89.09318

>  <Cat>
S5526

>  <Name>
¦Â-Alanine

>  <Synonyms>
beta-Alanine, 3-Aminopropanoic acid

>  <Target>
Others

>  <Form>
Free Base

>  <CAS>
107-95-9

>  <URL>
http://www.selleckchem.com/products/beta-alanine.html

$$$$
