ALBENZA (albendazole).cdx
 OpenBabel08302520393D

 33 34  0  0  0  0  0  0  0  0999 V2000
    2.0662   -0.7567    0.3105 C   0  0  0  0  0  0  0  0  0  0  0  0
    2.0484    0.6305    0.5051 C   0  0  0  0  0  0  0  0  0  0  0  0
    0.8412    1.3461    0.4624 C   0  0  0  0  0  0  0  0  0  0  0  0
   -0.3573    0.6481    0.2553 C   0  0  0  0  0  0  0  0  0  0  0  0
   -0.3288   -0.7298    0.0986 C   0  0  0  0  0  0  0  0  0  0  0  0
    0.8642   -1.4644    0.1001 C   0  0  0  0  0  0  0  0  0  0  0  0
   -1.6391    1.1208    0.1822 N   0  0  0  0  0  0  0  0  0  0  0  0
   -2.4144    0.0754    0.0258 C   0  0  0  0  0  0  0  0  0  0  0  0
   -1.6570   -1.0738   -0.0428 N   0  0  0  0  0  0  0  0  0  0  0  0
    3.5983   -1.6737    0.1539 S   0  0  0  0  0  0  0  0  0  0  0  0
    4.4698   -1.2975    1.7157 C   0  0  0  0  0  0  0  0  0  0  0  0
    3.8189   -1.8552    2.9824 C   0  0  0  0  0  0  0  0  0  0  0  0
    3.5696   -3.3577    2.9886 C   0  0  0  0  0  0  0  0  0  0  0  0
   -3.7882    0.0625   -0.0403 N   0  0  0  0  0  0  0  0  0  0  0  0
   -4.5171    1.2266    0.0239 C   0  0  0  0  0  0  0  0  0  0  0  0
   -5.8477    0.9119   -0.0138 O   0  0  0  0  0  0  0  0  0  0  0  0
   -6.7083    2.0571    0.0578 C   0  0  0  0  0  0  0  0  0  0  0  0
   -4.1143    2.3750    0.1084 O   0  0  0  0  0  0  0  0  0  0  0  0
    2.9702    1.1876    0.6554 H   0  0  0  0  0  0  0  0  0  0  0  0
    0.8164    2.4248    0.5769 H   0  0  0  0  0  0  0  0  0  0  0  0
    0.8715   -2.5355   -0.0711 H   0  0  0  0  0  0  0  0  0  0  0  0
   -2.0091   -2.0110   -0.1558 H   0  0  0  0  0  0  0  0  0  0  0  0
    5.4758   -1.7237    1.6180 H   0  0  0  0  0  0  0  0  0  0  0  0
    4.6036   -0.2152    1.8116 H   0  0  0  0  0  0  0  0  0  0  0  0
    4.4788   -1.6208    3.8270 H   0  0  0  0  0  0  0  0  0  0  0  0
    2.8746   -1.3339    3.1755 H   0  0  0  0  0  0  0  0  0  0  0  0
    4.4939   -3.9185    2.8177 H   0  0  0  0  0  0  0  0  0  0  0  0
    3.1715   -3.6589    3.9638 H   0  0  0  0  0  0  0  0  0  0  0  0
    2.8360   -3.6545    2.2336 H   0  0  0  0  0  0  0  0  0  0  0  0
   -4.3069   -0.7917   -0.1181 H   0  0  0  0  0  0  0  0  0  0  0  0
   -6.5418    2.6141    0.9858 H   0  0  0  0  0  0  0  0  0  0  0  0
   -6.5614    2.7064   -0.8123 H   0  0  0  0  0  0  0  0  0  0  0  0
   -7.7453    1.7072    0.0521 H   0  0  0  0  0  0  0  0  0  0  0  0
  1  2  2  0  0  0  0
  1 10  1  0  0  0  0
  2  3  1  0  0  0  0
  2 19  1  0  0  0  0
  3  4  2  0  0  0  0
  3 20  1  0  0  0  0
  4  5  1  0  0  0  0
  4  7  1  0  0  0  0
  5  6  2  0  0  0  0
  6  1  1  0  0  0  0
  6 21  1  0  0  0  0
  7  8  2  0  0  0  0
  8  9  1  0  0  0  0
  8 14  1  0  0  0  0
  9  5  1  0  0  0  0
  9 22  1  0  0  0  0
 10 11  1  0  0  0  0
 11 12  1  0  0  0  0
 11 23  1  0  0  0  0
 11 24  1  0  0  0  0
 12 13  1  0  0  0  0
 12 25  1  0  0  0  0
 12 26  1  0  0  0  0
 13 27  1  0  0  0  0
 13 28  1  0  0  0  0
 13 29  1  0  0  0  0
 14 15  1  0  0  0  0
 14 30  1  0  0  0  0
 15 16  1  0  0  0  0
 15 18  2  0  0  0  0
 16 17  1  0  0  0  0
 17 31  1  0  0  0  0
 17 32  1  0  0  0  0
 17 33  1  0  0  0  0
M  END
>  <Mol_ID>
364

>  <Formula>
C12H15N3O2S

>  <MolWeight>
265.3314

>  <Cat>
S1640

>  <Name>
Albendazole (SKF-62979)

>  <Synonyms>
SKF-62979

>  <Target>
ADC Cytotoxin,Microtubule Associated

>  <Form>
free base

>  <CAS>
54965-21-8

>  <URL>
http://selleckchem.com/products/Albendazole(Albenza).html

$$$$
