Albendazole oxide.cdx
 OpenBabel08302521443D

 34 35  0  0  0  0  0  0  0  0999 V2000
    2.1876   -0.7453    0.0617 C   0  0  0  0  0  0  0  0  0  0  0  0
    2.1917    0.6564    0.0012 C   0  0  0  0  0  0  0  0  0  0  0  0
    0.9951    1.3829   -0.0418 C   0  0  0  0  0  0  0  0  0  0  0  0
   -0.2168    0.6798   -0.0383 C   0  0  0  0  0  0  0  0  0  0  0  0
   -0.2063   -0.7067   -0.0142 C   0  0  0  0  0  0  0  0  0  0  0  0
    0.9742   -1.4595    0.0244 C   0  0  0  0  0  0  0  0  0  0  0  0
   -1.4933    1.1598   -0.0512 N   0  0  0  0  0  0  0  0  0  0  0  0
   -2.2835    0.1143   -0.0285 C   0  0  0  0  0  0  0  0  0  0  0  0
   -1.5393   -1.0471   -0.0271 N   0  0  0  0  0  0  0  0  0  0  0  0
    3.7749   -1.6332    0.1779 S   0  0  3  0  0  0  0  0  0  0  0  0
    4.3008   -0.9714    1.7961 C   0  0  0  0  0  0  0  0  0  0  0  0
    5.6246   -1.5454    2.2950 C   0  0  0  0  0  0  0  0  0  0  0  0
    6.8205   -1.2532    1.3988 C   0  0  0  0  0  0  0  0  0  0  0  0
    3.4188   -3.0791    0.3679 O   0  0  0  0  0  0  0  0  0  0  0  0
   -3.6540    0.0877   -0.0074 N   0  0  0  0  0  0  0  0  0  0  0  0
   -4.4529    1.2054    0.0082 C   0  0  0  0  0  0  0  0  0  0  0  0
   -5.6764    1.0935    0.0341 O   0  0  0  0  0  0  0  0  0  0  0  0
   -3.7967    2.3913   -0.0063 O   0  0  0  0  0  0  0  0  0  0  0  0
   -4.6139    3.5569    0.0081 C   0  0  0  0  0  0  0  0  0  0  0  0
    3.1267    1.2110   -0.0039 H   0  0  0  0  0  0  0  0  0  0  0  0
    0.9895    2.4675   -0.0668 H   0  0  0  0  0  0  0  0  0  0  0  0
    0.9570   -2.5450    0.0423 H   0  0  0  0  0  0  0  0  0  0  0  0
   -1.9083   -1.9833   -0.0135 H   0  0  0  0  0  0  0  0  0  0  0  0
    4.3841    0.1160    1.7153 H   0  0  0  0  0  0  0  0  0  0  0  0
    3.5126   -1.2050    2.5199 H   0  0  0  0  0  0  0  0  0  0  0  0
    5.8281   -1.1006    3.2778 H   0  0  0  0  0  0  0  0  0  0  0  0
    5.5439   -2.6268    2.4516 H   0  0  0  0  0  0  0  0  0  0  0  0
    6.8982   -0.1853    1.1724 H   0  0  0  0  0  0  0  0  0  0  0  0
    7.7456   -1.5579    1.9007 H   0  0  0  0  0  0  0  0  0  0  0  0
    6.7610   -1.8067    0.4572 H   0  0  0  0  0  0  0  0  0  0  0  0
   -4.1555   -0.7862    0.0103 H   0  0  0  0  0  0  0  0  0  0  0  0
   -5.2454    3.5959   -0.8847 H   0  0  0  0  0  0  0  0  0  0  0  0
   -5.2200    3.5929    0.9186 H   0  0  0  0  0  0  0  0  0  0  0  0
   -3.9519    4.4276    0.0004 H   0  0  0  0  0  0  0  0  0  0  0  0
  1  2  2  0  0  0  0
  1 10  1  0  0  0  0
  2  3  1  0  0  0  0
  2 20  1  0  0  0  0
  3  4  2  0  0  0  0
  3 21  1  0  0  0  0
  4  5  1  0  0  0  0
  4  7  1  0  0  0  0
  5  6  2  0  0  0  0
  6  1  1  0  0  0  0
  6 22  1  0  0  0  0
  7  8  2  0  0  0  0
  8  9  1  0  0  0  0
  8 15  1  0  0  0  0
  9  5  1  0  0  0  0
  9 23  1  0  0  0  0
 10 11  1  0  0  0  0
 10 14  2  0  0  0  0
 11 12  1  0  0  0  0
 11 24  1  0  0  0  0
 11 25  1  0  0  0  0
 12 13  1  0  0  0  0
 12 26  1  0  0  0  0
 12 27  1  0  0  0  0
 13 28  1  0  0  0  0
 13 29  1  0  0  0  0
 13 30  1  0  0  0  0
 15 16  1  0  0  0  0
 15 31  1  0  0  0  0
 16 17  2  0  0  0  0
 16 18  1  0  0  0  0
 18 19  1  0  0  0  0
 19 32  1  0  0  0  0
 19 33  1  0  0  0  0
 19 34  1  0  0  0  0
M  END
>  <Mol_ID>
919

>  <Formula>
C12H15N3O3S

>  <MolWeight>
281.3308

>  <Cat>
S1836

>  <Name>
Albendazole Oxide

>  <Synonyms>
Ricobendazole,Albendazole sulfoxide

>  <Target>
Microtubule Associated

>  <Form>
free base

>  <CAS>
54029-12-8

>  <URL>
http://selleckchem.com/products/albendazole-oxide-ricobendazole.html

$$$$
