Alda 1
 OpenBabel08302520353D

 32 34  0  0  0  0  0  0  0  0999 V2000
    1.0254   -0.0189   -0.0548 C   0  0  0  0  0  0  0  0  0  0  0  0
    0.3055    0.5222   -1.2406 C   0  0  0  0  0  0  0  0  0  0  0  0
    0.8369    1.5506   -2.0312 C   0  0  0  0  0  0  0  0  0  0  0  0
    0.1054    2.0518   -3.1116 C   0  0  0  0  0  0  0  0  0  0  0  0
   -1.1566    1.5347   -3.4044 C   0  0  0  0  0  0  0  0  0  0  0  0
   -1.6960    0.5208   -2.6146 C   0  0  0  0  0  0  0  0  0  0  0  0
   -0.9709    0.0203   -1.5313 C   0  0  0  0  0  0  0  0  0  0  0  0
    0.3877   -0.4586    0.8955 O   0  0  0  0  0  0  0  0  0  0  0  0
    2.4026   -0.0043   -0.1086 N   0  0  0  0  0  0  0  0  0  0  0  0
    3.2125   -0.4162    1.0156 C   0  0  0  0  0  0  0  0  0  0  0  0
    6.7529   -4.6905    0.1034 O   0  0  0  0  0  0  0  0  0  0  0  0
    7.9487   -3.9131    0.3197 C   0  0  0  0  0  0  0  0  0  0  0  0
    7.6873   -2.5162    0.5731 O   0  0  0  0  0  0  0  0  0  0  0  0
    6.3286   -2.4959    0.5159 C   0  0  0  0  0  0  0  0  0  0  0  0
    5.7968   -3.7337    0.2422 C   0  0  0  0  0  0  0  0  0  0  0  0
    5.5300   -1.3905    0.7279 C   0  0  0  0  0  0  0  0  0  0  0  0
    4.1357   -1.5573    0.6699 C   0  0  0  0  0  0  0  0  0  0  0  0
    3.6017   -2.8307    0.3600 C   0  0  0  0  0  0  0  0  0  0  0  0
    4.4373   -3.9317    0.1440 C   0  0  0  0  0  0  0  0  0  0  0  0
    1.7998    1.9959   -1.7999 H   0  0  0  0  0  0  0  0  0  0  0  0
    0.5132    2.8567   -3.7184 H   0  0  0  0  0  0  0  0  0  0  0  0
   -1.7268    1.9315   -4.2413 H   0  0  0  0  0  0  0  0  0  0  0  0
   -2.6839    0.1236   -2.8355 H   0  0  0  0  0  0  0  0  0  0  0  0
   -1.4034   -0.7611   -0.9090 H   0  0  0  0  0  0  0  0  0  0  0  0
    2.8777    0.2517   -0.9616 H   0  0  0  0  0  0  0  0  0  0  0  0
    3.7904    0.4642    1.3182 H   0  0  0  0  0  0  0  0  0  0  0  0
    2.5922   -0.7019    1.8728 H   0  0  0  0  0  0  0  0  0  0  0  0
    8.5818   -3.9941   -0.5714 H   0  0  0  0  0  0  0  0  0  0  0  0
    8.4909   -4.3305    1.1758 H   0  0  0  0  0  0  0  0  0  0  0  0
    5.9811   -0.4323    0.9625 H   0  0  0  0  0  0  0  0  0  0  0  0
    2.5211   -2.9649    0.3142 H   0  0  0  0  0  0  0  0  0  0  0  0
    4.0293   -4.9131   -0.0703 H   0  0  0  0  0  0  0  0  0  0  0  0
  1  2  1  0  0  0  0
  1  8  2  0  0  0  0
  1  9  1  0  0  0  0
  2  3  2  0  0  0  0
  2  7  1  0  0  0  0
  3  4  1  0  0  0  0
  3 20  1  0  0  0  0
  4  5  2  0  0  0  0
  4 21  1  0  0  0  0
  5  6  1  0  0  0  0
  5 22  1  0  0  0  0
  6  7  2  0  0  0  0
  6 23  1  0  0  0  0
  7 24  1  0  0  0  0
  9 10  1  0  0  0  0
  9 25  1  0  0  0  0
 10 17  1  0  0  0  0
 10 26  1  0  0  0  0
 10 27  1  0  0  0  0
 11 12  1  0  0  0  0
 11 15  1  0  0  0  0
 12 13  1  0  0  0  0
 12 28  1  0  0  0  0
 12 29  1  0  0  0  0
 13 14  1  0  0  0  0
 14 15  2  0  0  0  0
 14 16  1  0  0  0  0
 15 19  1  0  0  0  0
 16 17  2  0  0  0  0
 16 30  1  0  0  0  0
 17 18  1  0  0  0  0
 18 19  2  0  0  0  0
 18 31  1  0  0  0  0
 19 32  1  0  0  0  0
M  END
>  <Mol_ID>
3429

>  <Formula>
C15H11Cl2NO3

>  <MolWeight>
324.15874

>  <Cat>
S5800

>  <Name>
Alda 1

>  <Synonyms>
N/A

>  <Target>
Dehydrogenase

>  <Form>
Free Base

>  <CAS>
349438-38-6

>  <URL>
http://www.selleckchem.com/products/alda-1.html

$$$$
