ALDOCLOR-250 (chlorothiazide).cdx
 OpenBabel08302520393D

 23 24  0  0  0  0  0  0  0  0999 V2000
   -2.4582   -0.7098   -0.0025 C   0  0  0  0  0  0  0  0  0  0  0  0
   -2.5229    0.6848   -0.0298 C   0  0  0  0  0  0  0  0  0  0  0  0
   -1.3546    1.4458   -0.0359 C   0  0  0  0  0  0  0  0  0  0  0  0
   -0.1204    0.7810   -0.0216 C   0  0  0  0  0  0  0  0  0  0  0  0
   -0.0205   -0.6078    0.0036 C   0  0  0  0  0  0  0  0  0  0  0  0
   -1.2120   -1.3435    0.0137 C   0  0  0  0  0  0  0  0  0  0  0  0
    1.3444    1.7250   -0.0170 S   0  0  0  0  0  0  0  0  0  0  0  0
    2.5483    0.5959    0.0634 N   0  0  0  0  0  0  0  0  0  0  0  0
    2.3218   -0.7718    0.0263 C   0  0  0  0  0  0  0  0  0  0  0  0
    1.1713   -1.3419    0.0065 N   0  0  0  0  0  0  0  0  0  0  0  0
   -4.1001    1.4846   -0.0178 S   0  0  0  0  0  0  0  0  0  0  0  0
   -4.0292    2.3843    1.3972 N   0  0  0  0  0  0  0  0  0  0  0  0
   -4.1521    2.4175   -1.1168 O   0  0  0  0  0  0  0  0  0  0  0  0
   -5.1319    0.4939    0.2196 O   0  0  0  0  0  0  0  0  0  0  0  0
    1.4621    2.3738   -1.3036 O   0  0  0  0  0  0  0  0  0  0  0  0
    1.3863    2.4779    1.2171 O   0  0  0  0  0  0  0  0  0  0  0  0
   -3.3643   -1.3136    0.0095 H   0  0  0  0  0  0  0  0  0  0  0  0
   -1.3996    2.5327   -0.0443 H   0  0  0  0  0  0  0  0  0  0  0  0
   -1.1663   -2.4313    0.0321 H   0  0  0  0  0  0  0  0  0  0  0  0
    3.4842    0.9772   -0.0318 H   0  0  0  0  0  0  0  0  0  0  0  0
    3.2454   -1.3729    0.0145 H   0  0  0  0  0  0  0  0  0  0  0  0
   -4.5220    3.2686    1.2537 H   0  0  0  0  0  0  0  0  0  0  0  0
   -4.4039    1.8498    2.1815 H   0  0  0  0  0  0  0  0  0  0  0  0
  1  2  2  0  0  0  0
  1 17  1  0  0  0  0
  2  3  1  0  0  0  0
  2 11  1  0  0  0  0
  3  4  2  0  0  0  0
  3 18  1  0  0  0  0
  4  5  1  0  0  0  0
  4  7  1  0  0  0  0
  5  6  2  0  0  0  0
  6  1  1  0  0  0  0
  6 19  1  0  0  0  0
  7  8  1  0  0  0  0
  7 15  2  0  0  0  0
  7 16  2  0  0  0  0
  8  9  1  0  0  0  0
  8 20  1  0  0  0  0
  9 10  2  0  0  0  0
  9 21  1  0  0  0  0
 10  5  1  0  0  0  0
 11 12  1  0  0  0  0
 11 13  2  0  0  0  0
 11 14  2  0  0  0  0
 12 22  1  0  0  0  0
 12 23  1  0  0  0  0
M  END
>  <Mol_ID>
365

>  <Formula>
C7H6ClN3O4S2

>  <MolWeight>
295.72324

>  <Cat>
S1641

>  <Name>
Chlorothiazide

>  <Synonyms>
N/A

>  <Target>
Others

>  <Form>
free base

>  <CAS>
58-94-6

>  <URL>
http://selleckchem.com/products/Chlorothiazide(Diuril).html

$$$$
