Alfuzosin
 OpenBabel08302520343D

 55 57  0  0  0  0  0  0  0  0999 V2000
   -1.1293   -4.9799    8.4247 O   0  0  0  0  0  0  0  0  0  0  0  0
   -2.4858   -4.5331    8.5732 C   0  0  3  0  0  0  0  0  0  0  0  0
   -3.4088   -5.7070    8.2838 C   0  0  0  0  0  0  0  0  0  0  0  0
   -2.5045   -6.7784    7.7269 C   0  0  0  0  0  0  0  0  0  0  0  0
   -1.1275   -6.3915    8.2084 C   0  0  0  0  0  0  0  0  0  0  0  0
   -2.7598   -3.2780    7.7190 C   0  0  0  0  0  0  0  0  0  0  0  0
   -3.8580   -3.0004    7.2472 O   0  0  0  0  0  0  0  0  0  0  0  0
   -1.6677   -2.4367    7.6473 N   0  0  0  0  0  0  0  0  0  0  0  0
   -1.7096   -1.1183    7.0463 C   0  0  0  0  0  0  0  0  0  0  0  0
   -1.4456   -1.1433    5.5458 C   0  0  0  0  0  0  0  0  0  0  0  0
   -1.5911    0.2329    4.8825 C   0  0  0  0  0  0  0  0  0  0  0  0
   -0.7198    1.2583    5.4492 N   0  0  0  0  0  0  0  0  0  0  0  0
   -1.2098    2.1501    6.4784 C   0  0  0  0  0  0  0  0  0  0  0  0
    1.4230    2.2314    5.6531 N   0  0  0  0  0  0  0  0  0  0  0  0
    0.6230    1.2816    5.1297 C   0  0  0  0  0  0  0  0  0  0  0  0
    1.0820    0.3261    4.3127 N   0  0  0  0  0  0  0  0  0  0  0  0
    2.3848    0.3023    4.0371 C   0  0  0  0  0  0  0  0  0  0  0  0
    3.2866    1.2417    4.5309 C   0  0  0  0  0  0  0  0  0  0  0  0
    4.6681    1.2297    4.2343 C   0  0  0  0  0  0  0  0  0  0  0  0
    5.5351    2.1957    4.7443 C   0  0  0  0  0  0  0  0  0  0  0  0
    4.9908    3.2069    5.5467 C   0  0  0  0  0  0  0  0  0  0  0  0
    3.6067    3.1981    5.8317 C   0  0  0  0  0  0  0  0  0  0  0  0
    2.7374    2.2237    5.3434 C   0  0  0  0  0  0  0  0  0  0  0  0
    5.6418    4.2650    6.1321 O   0  0  0  0  0  0  0  0  0  0  0  0
    7.0378    4.4186    5.9083 C   0  0  0  0  0  0  0  0  0  0  0  0
    6.8785    2.1881    4.4873 O   0  0  0  0  0  0  0  0  0  0  0  0
    7.4087    1.1352    3.6897 C   0  0  0  0  0  0  0  0  0  0  0  0
    2.7933   -0.7488    3.2043 N   0  0  0  0  0  0  0  0  0  0  0  0
   -2.6167   -4.2183    9.6165 H   0  0  0  0  0  0  0  0  0  0  0  0
   -3.8657   -6.0551    9.2180 H   0  0  0  0  0  0  0  0  0  0  0  0
   -4.2299   -5.4766    7.5981 H   0  0  0  0  0  0  0  0  0  0  0  0
   -2.7871   -7.7852    8.0514 H   0  0  0  0  0  0  0  0  0  0  0  0
   -2.5372   -6.7635    6.6323 H   0  0  0  0  0  0  0  0  0  0  0  0
   -0.8805   -6.8845    9.1545 H   0  0  0  0  0  0  0  0  0  0  0  0
   -0.3523   -6.6420    7.4782 H   0  0  0  0  0  0  0  0  0  0  0  0
   -0.7782   -2.8251    7.9497 H   0  0  0  0  0  0  0  0  0  0  0  0
   -2.6876   -0.6708    7.2543 H   0  0  0  0  0  0  0  0  0  0  0  0
   -0.9452   -0.5290    7.5615 H   0  0  0  0  0  0  0  0  0  0  0  0
   -0.4482   -1.5582    5.3604 H   0  0  0  0  0  0  0  0  0  0  0  0
   -2.1517   -1.8304    5.0624 H   0  0  0  0  0  0  0  0  0  0  0  0
   -1.4046    0.1326    3.8043 H   0  0  0  0  0  0  0  0  0  0  0  0
   -2.6374    0.5559    4.9541 H   0  0  0  0  0  0  0  0  0  0  0  0
   -0.7369    1.9315    7.4421 H   0  0  0  0  0  0  0  0  0  0  0  0
   -1.0296    3.1993    6.2221 H   0  0  0  0  0  0  0  0  0  0  0  0
   -2.2911    2.0365    6.6184 H   0  0  0  0  0  0  0  0  0  0  0  0
    5.0342    0.4445    3.5812 H   0  0  0  0  0  0  0  0  0  0  0  0
    3.1965    3.9893    6.4568 H   0  0  0  0  0  0  0  0  0  0  0  0
    7.6025    3.6006    6.3675 H   0  0  0  0  0  0  0  0  0  0  0  0
    7.2676    4.5303    4.8430 H   0  0  0  0  0  0  0  0  0  0  0  0
    7.3561    5.3446    6.3977 H   0  0  0  0  0  0  0  0  0  0  0  0
    7.2785    0.1658    4.1829 H   0  0  0  0  0  0  0  0  0  0  0  0
    6.9659    1.1342    2.6880 H   0  0  0  0  0  0  0  0  0  0  0  0
    8.4823    1.3090    3.5744 H   0  0  0  0  0  0  0  0  0  0  0  0
    3.5102   -1.3057    3.6527 H   0  0  0  0  0  0  0  0  0  0  0  0
    1.9597   -1.3002    3.0162 H   0  0  0  0  0  0  0  0  0  0  0  0
  1  2  1  0  0  0  0
  1  5  1  0  0  0  0
  2  3  1  0  0  0  0
  2  6  1  0  0  0  0
  2 29  1  0  0  0  0
  3  4  1  0  0  0  0
  3 30  1  0  0  0  0
  3 31  1  0  0  0  0
  4  5  1  0  0  0  0
  4 32  1  0  0  0  0
  4 33  1  0  0  0  0
  5 34  1  0  0  0  0
  5 35  1  0  0  0  0
  6  7  2  0  0  0  0
  6  8  1  0  0  0  0
  8  9  1  0  0  0  0
  8 36  1  0  0  0  0
  9 10  1  0  0  0  0
  9 37  1  0  0  0  0
  9 38  1  0  0  0  0
 10 11  1  0  0  0  0
 10 39  1  0  0  0  0
 10 40  1  0  0  0  0
 11 12  1  0  0  0  0
 11 41  1  0  0  0  0
 11 42  1  0  0  0  0
 12 13  1  0  0  0  0
 12 15  1  0  0  0  0
 13 43  1  0  0  0  0
 13 44  1  0  0  0  0
 13 45  1  0  0  0  0
 14 15  2  0  0  0  0
 14 23  1  0  0  0  0
 15 16  1  0  0  0  0
 16 17  2  0  0  0  0
 17 18  1  0  0  0  0
 17 28  1  0  0  0  0
 18 19  1  0  0  0  0
 18 23  2  0  0  0  0
 19 20  2  0  0  0  0
 19 46  1  0  0  0  0
 20 21  1  0  0  0  0
 20 26  1  0  0  0  0
 21 22  2  0  0  0  0
 21 24  1  0  0  0  0
 22 23  1  0  0  0  0
 22 47  1  0  0  0  0
 24 25  1  0  0  0  0
 25 48  1  0  0  0  0
 25 49  1  0  0  0  0
 25 50  1  0  0  0  0
 26 27  1  0  0  0  0
 27 51  1  0  0  0  0
 27 52  1  0  0  0  0
 27 53  1  0  0  0  0
 28 54  1  0  0  0  0
 28 55  1  0  0  0  0
M  END
>  <Mol_ID>
3407

>  <Formula>
C19H27N5O4

>  <MolWeight>
389.44878

>  <Cat>
S5766

>  <Name>
Alfuzosin

>  <Synonyms>
SL 77499

>  <Target>
Adrenergic Receptor

>  <Form>
Free Base

>  <CAS>
81403-80-7

>  <URL>
http://www.selleckchem.com/products/alfuzosin.html

$$$$
