Alibendol.cdx
 OpenBabel08302521443D

 35 35  0  0  0  0  0  0  0  0999 V2000
    0.2474   -1.2471    0.0369 C   0  0  0  0  0  0  0  0  0  0  0  0
    0.9518   -0.0446    0.0155 C   0  0  0  0  0  0  0  0  0  0  0  0
    0.2484    1.1727    0.0192 C   0  0  0  0  0  0  0  0  0  0  0  0
   -1.1528    1.2089    0.0499 C   0  0  0  0  0  0  0  0  0  0  0  0
   -1.8437   -0.0155    0.0750 C   0  0  0  0  0  0  0  0  0  0  0  0
   -1.1566   -1.2448    0.0567 C   0  0  0  0  0  0  0  0  0  0  0  0
    2.3196    0.0856   -0.0122 O   0  0  0  0  0  0  0  0  0  0  0  0
    3.0801   -1.1186    0.0001 C   0  0  0  0  0  0  0  0  0  0  0  0
    0.9939    2.3316   -0.0082 O   0  0  0  0  0  0  0  0  0  0  0  0
   -1.9142   -2.5546    0.0740 C   0  0  0  0  0  0  0  0  0  0  0  0
   -2.1754   -3.0552    1.4659 C   0  0  0  0  0  0  0  0  0  0  0  0
   -1.7662   -4.2411    1.9374 C   0  0  0  0  0  0  0  0  0  0  0  0
   -1.9654    2.4737    0.0499 C   0  0  0  0  0  0  0  0  0  0  0  0
   -3.1895    2.4312    0.0143 O   0  0  0  0  0  0  0  0  0  0  0  0
   -1.2652    3.6584    0.0986 N   0  0  0  0  0  0  0  0  0  0  0  0
   -1.8707    4.9764   -0.0113 C   0  0  0  0  0  0  0  0  0  0  0  0
   -2.7135    5.3540    1.2054 C   0  0  0  0  0  0  0  0  0  0  0  0
   -1.9400    5.2291    2.3971 O   0  0  0  0  0  0  0  0  0  0  0  0
    0.7613   -2.2034    0.0367 H   0  0  0  0  0  0  0  0  0  0  0  0
   -2.9329   -0.0137    0.1059 H   0  0  0  0  0  0  0  0  0  0  0  0
    2.8950   -1.6938    0.9133 H   0  0  0  0  0  0  0  0  0  0  0  0
    2.8829   -1.7181   -0.8945 H   0  0  0  0  0  0  0  0  0  0  0  0
    4.1392   -0.8437   -0.0105 H   0  0  0  0  0  0  0  0  0  0  0  0
    1.9272    2.0280   -0.0220 H   0  0  0  0  0  0  0  0  0  0  0  0
   -2.8718   -2.4279   -0.4454 H   0  0  0  0  0  0  0  0  0  0  0  0
   -1.3579   -3.2987   -0.5114 H   0  0  0  0  0  0  0  0  0  0  0  0
   -2.7590   -2.4067    2.1169 H   0  0  0  0  0  0  0  0  0  0  0  0
   -2.0079   -4.5459    2.9517 H   0  0  0  0  0  0  0  0  0  0  0  0
   -1.1933   -4.9356    1.3312 H   0  0  0  0  0  0  0  0  0  0  0  0
   -0.2514    3.5938    0.0336 H   0  0  0  0  0  0  0  0  0  0  0  0
   -1.0356    5.6793   -0.1033 H   0  0  0  0  0  0  0  0  0  0  0  0
   -2.4697    5.0206   -0.9262 H   0  0  0  0  0  0  0  0  0  0  0  0
   -3.0466    6.3948    1.1259 H   0  0  0  0  0  0  0  0  0  0  0  0
   -3.6018    4.7210    1.3022 H   0  0  0  0  0  0  0  0  0  0  0  0
   -1.6080    4.3120    2.3835 H   0  0  0  0  0  0  0  0  0  0  0  0
  1  2  2  0  0  0  0
  1 19  1  0  0  0  0
  2  3  1  0  0  0  0
  2  7  1  0  0  0  0
  3  4  2  0  0  0  0
  3  9  1  0  0  0  0
  4  5  1  0  0  0  0
  4 13  1  0  0  0  0
  5  6  2  0  0  0  0
  5 20  1  0  0  0  0
  6  1  1  0  0  0  0
  6 10  1  0  0  0  0
  7  8  1  0  0  0  0
  8 21  1  0  0  0  0
  8 22  1  0  0  0  0
  8 23  1  0  0  0  0
  9 24  1  0  0  0  0
 10 11  1  0  0  0  0
 10 25  1  0  0  0  0
 10 26  1  0  0  0  0
 11 12  2  0  0  0  0
 11 27  1  0  0  0  0
 12 28  1  0  0  0  0
 12 29  1  0  0  0  0
 13 14  2  0  0  0  0
 13 15  1  0  0  0  0
 15 16  1  0  0  0  0
 15 30  1  0  0  0  0
 16 17  1  0  0  0  0
 16 31  1  0  0  0  0
 16 32  1  0  0  0  0
 17 18  1  0  0  0  0
 17 33  1  0  0  0  0
 17 34  1  0  0  0  0
 18 35  1  0  0  0  0
M  END
>  <Mol_ID>
920

>  <Formula>
C13H17NO4

>  <MolWeight>
251.27838

>  <Cat>
S1928

>  <Name>
Alibendol

>  <Synonyms>
EB 1856

>  <Target>
Others

>  <Form>
free base

>  <CAS>
26750-81-2

>  <URL>
http://selleckchem.com/products/alibendol.html

$$$$
