ALINIA (nitazoxanide).cdx
 OpenBabel08302520383D

 30 31  0  0  0  0  0  0  0  0999 V2000
    1.2767   -0.3351    0.3199 C   0  0  0  0  0  0  0  0  0  0  0  0
    0.3359   -1.3633    0.2081 C   0  0  0  0  0  0  0  0  0  0  0  0
   -1.0132   -1.0650    0.0717 C   0  0  0  0  0  0  0  0  0  0  0  0
   -1.4247    0.2642    0.0823 C   0  0  0  0  0  0  0  0  0  0  0  0
   -0.4932    1.3147    0.2162 C   0  0  0  0  0  0  0  0  0  0  0  0
    0.8749    1.0056    0.2985 C   0  0  0  0  0  0  0  0  0  0  0  0
    1.8132    2.0786    0.2885 O   0  0  0  0  0  0  0  0  0  0  0  0
    3.2107    1.9503    0.1756 C   0  0  0  0  0  0  0  0  0  0  0  0
    3.8224    3.3077   -0.0059 C   0  0  0  0  0  0  0  0  0  0  0  0
    3.8586    0.9144    0.1753 O   0  0  0  0  0  0  0  0  0  0  0  0
   -1.0889    2.6819    0.2467 C   0  0  0  0  0  0  0  0  0  0  0  0
   -0.3974    3.6560    0.9327 N   0  0  0  0  0  0  0  0  0  0  0  0
   -2.1625    2.8420   -0.3282 O   0  0  0  0  0  0  0  0  0  0  0  0
   -0.9600    4.8910    1.1264 C   0  0  0  0  0  0  0  0  0  0  0  0
   -2.2097    5.2496    0.9611 N   0  0  0  0  0  0  0  0  0  0  0  0
   -2.3375    6.6063    1.1718 C   0  0  0  0  0  0  0  0  0  0  0  0
   -1.1651    7.2387    1.5020 C   0  0  0  0  0  0  0  0  0  0  0  0
    0.1137    6.1174    1.6414 S   0  0  0  0  0  0  0  0  0  0  0  0
   -0.9796    8.6389    1.7013 N   0  3  0  0  0  0  0  0  0  0  0  0
   -1.9839    9.3512    1.5747 O   0  0  0  0  0  0  0  0  0  0  0  0
    0.1587    9.0425    1.9700 O   0  5  0  0  0  0  0  0  0  0  0  0
    2.3163   -0.6321    0.4088 H   0  0  0  0  0  0  0  0  0  0  0  0
    0.6643   -2.3998    0.2129 H   0  0  0  0  0  0  0  0  0  0  0  0
   -1.7454   -1.8602   -0.0414 H   0  0  0  0  0  0  0  0  0  0  0  0
   -2.4878    0.4841   -0.0185 H   0  0  0  0  0  0  0  0  0  0  0  0
    4.8626    3.2780    0.3338 H   0  0  0  0  0  0  0  0  0  0  0  0
    3.7947    3.5805   -1.0635 H   0  0  0  0  0  0  0  0  0  0  0  0
    3.2971    4.0544    0.5942 H   0  0  0  0  0  0  0  0  0  0  0  0
    0.5475    3.5012    1.2477 H   0  0  0  0  0  0  0  0  0  0  0  0
   -3.3085    7.0728    1.0442 H   0  0  0  0  0  0  0  0  0  0  0  0
  1  2  2  0  0  0  0
  1 22  1  0  0  0  0
  2  3  1  0  0  0  0
  2 23  1  0  0  0  0
  3  4  2  0  0  0  0
  3 24  1  0  0  0  0
  4  5  1  0  0  0  0
  4 25  1  0  0  0  0
  5  6  2  0  0  0  0
  5 11  1  0  0  0  0
  6  1  1  0  0  0  0
  6  7  1  0  0  0  0
  7  8  1  0  0  0  0
  8  9  1  0  0  0  0
  8 10  2  0  0  0  0
  9 26  1  0  0  0  0
  9 27  1  0  0  0  0
  9 28  1  0  0  0  0
 11 12  1  0  0  0  0
 11 13  2  0  0  0  0
 12 14  1  0  0  0  0
 12 29  1  0  0  0  0
 14 15  2  0  0  0  0
 15 16  1  0  0  0  0
 16 17  2  0  0  0  0
 16 30  1  0  0  0  0
 17 18  1  0  0  0  0
 17 19  1  0  0  0  0
 18 14  1  0  0  0  0
 19 20  2  0  0  0  0
 19 21  1  0  0  0  0
M  CHG  2  19   1  21  -1
M  END
>  <Mol_ID>
357

>  <Formula>
C12H9N3O5S

>  <MolWeight>
307.28196

>  <Cat>
S1627

>  <Name>
Nitazoxanide (NSC 697855)

>  <Synonyms>
NTZ, NSC 697855

>  <Target>
Autophagy,Influenza Virus,mTOR,Serotonin Transporter

>  <Form>
free base

>  <CAS>
55981-09-4

>  <URL>
http://selleckchem.com/products/Nitazoxanide(Alinia).html

$$$$
