Alismoxide
 OpenBabel08302521583D

 43 44  0  0  1  0  0  0  0  0999 V2000
    2.3521   -0.9911   -0.0704 C   0  0  0  0  0  0  0  0  0  0  0  0
    3.3522    0.9386   -0.9791 O   0  0  0  0  0  0  0  0  0  0  0  0
    1.7596    4.2888    0.5259 C   0  0  0  0  0  0  0  0  0  0  0  0
   -0.3576    4.1185    1.5702 O   0  0  0  0  0  0  0  0  0  0  0  0
   -2.7120    1.5432   -0.5031 C   0  0  0  0  0  0  0  0  0  0  0  0
   -3.8253    2.0268   -1.4351 C   0  0  0  0  0  0  0  0  0  0  0  0
   -3.1822    0.2999    0.2582 C   0  0  0  0  0  0  0  0  0  0  0  0
    0.9953    1.2235   -0.4099 C   0  0  2  0  0  0  0  0  0  0  0  0
    0.5662    2.0501    0.8325 C   0  0  1  0  0  0  0  0  0  0  0  0
   -0.3438    0.5796   -0.8028 C   0  0  0  0  0  0  0  0  0  0  0  0
    2.3330    0.5234   -0.0270 C   0  0  1  0  0  0  0  0  0  0  0  0
    1.4565    1.5807    1.9824 C   0  0  0  0  0  0  0  0  0  0  0  0
    0.4155    3.5528    0.4910 C   0  0  2  0  0  0  0  0  0  0  0  0
   -1.3065    1.4881   -1.1343 C   0  0  0  0  0  0  0  0  0  0  0  0
    2.7403    1.1128    1.3346 C   0  0  0  0  0  0  0  0  0  0  0  0
   -0.3538    3.8916   -0.8402 C   0  0  0  0  0  0  0  0  0  0  0  0
   -0.8527    2.7794   -1.7954 C   0  0  0  0  0  0  0  0  0  0  0  0
    1.6913   -1.4385    0.6695 H   0  0  0  0  0  0  0  0  0  0  0  0
    3.3736   -1.3499    0.1104 H   0  0  0  0  0  0  0  0  0  0  0  0
    2.0849   -1.3553   -1.0696 H   0  0  0  0  0  0  0  0  0  0  0  0
    3.4370    1.9141   -0.9449 H   0  0  0  0  0  0  0  0  0  0  0  0
    2.2005    4.2530    1.5283 H   0  0  0  0  0  0  0  0  0  0  0  0
    2.4720    3.8754   -0.1915 H   0  0  0  0  0  0  0  0  0  0  0  0
    1.6242    5.3532    0.3037 H   0  0  0  0  0  0  0  0  0  0  0  0
   -0.5194    5.0558    1.3679 H   0  0  0  0  0  0  0  0  0  0  0  0
   -2.6292    2.3266    0.2657 H   0  0  0  0  0  0  0  0  0  0  0  0
   -3.9312    1.3713   -2.3051 H   0  0  0  0  0  0  0  0  0  0  0  0
   -3.6419    3.0458   -1.7912 H   0  0  0  0  0  0  0  0  0  0  0  0
   -4.7840    2.0609   -0.9095 H   0  0  0  0  0  0  0  0  0  0  0  0
   -4.0934    0.5345    0.8250 H   0  0  0  0  0  0  0  0  0  0  0  0
   -2.4433   -0.0342    0.9933 H   0  0  0  0  0  0  0  0  0  0  0  0
   -3.4107   -0.5255   -0.4196 H   0  0  0  0  0  0  0  0  0  0  0  0
    1.2899    1.8767   -1.2354 H   0  0  0  0  0  0  0  0  0  0  0  0
   -0.4288    1.7591    1.2061 H   0  0  0  0  0  0  0  0  0  0  0  0
   -0.5926   -0.3410   -0.2806 H   0  0  0  0  0  0  0  0  0  0  0  0
    1.6132    2.3431    2.7516 H   0  0  0  0  0  0  0  0  0  0  0  0
    0.9813    0.7181    2.4779 H   0  0  0  0  0  0  0  0  0  0  0  0
    3.2563    0.3811    1.9602 H   0  0  0  0  0  0  0  0  0  0  0  0
    3.4239    1.9600    1.2155 H   0  0  0  0  0  0  0  0  0  0  0  0
   -1.2256    4.5163   -0.6095 H   0  0  0  0  0  0  0  0  0  0  0  0
    0.2898    4.5312   -1.4648 H   0  0  0  0  0  0  0  0  0  0  0  0
   -0.0707    2.5489   -2.5340 H   0  0  0  0  0  0  0  0  0  0  0  0
   -1.6424    3.1815   -2.4392 H   0  0  0  0  0  0  0  0  0  0  0  0
  1 18  1  0  0  0  0
  1 19  1  0  0  0  0
  1 20  1  0  0  0  0
  2 21  1  0  0  0  0
  3 22  1  0  0  0  0
  3 23  1  0  0  0  0
  3 24  1  0  0  0  0
  4 25  1  0  0  0  0
  5  6  1  0  0  0  0
  5  7  1  0  0  0  0
  5 26  1  0  0  0  0
  5 14  1  0  0  0  0
  6 27  1  0  0  0  0
  6 28  1  0  0  0  0
  6 29  1  0  0  0  0
  7 30  1  0  0  0  0
  7 31  1  0  0  0  0
  7 32  1  0  0  0  0
  8  9  1  0  0  0  0
  8 10  1  0  0  0  0
  8 11  1  0  0  0  0
  8 33  1  6  0  0  0
  9 12  1  0  0  0  0
  9 13  1  0  0  0  0
  9 34  1  1  0  0  0
 10 14  2  0  0  0  0
 10 35  1  0  0  0  0
 11 15  1  0  0  0  0
 11  1  1  0  0  0  0
 11  2  1  6  0  0  0
 12 15  1  0  0  0  0
 12 36  1  0  0  0  0
 12 37  1  0  0  0  0
 13 16  1  0  0  0  0
 13  4  1  1  0  0  0
 13  3  1  0  0  0  0
 14 17  1  0  0  0  0
 15 38  1  0  0  0  0
 15 39  1  0  0  0  0
 16 17  1  0  0  0  0
 16 40  1  0  0  0  0
 16 41  1  0  0  0  0
 17 42  1  0  0  0  0
 17 43  1  0  0  0  0
M  END
>  <Mol_ID>
10114

>  <Formula>
C15H26O2

>  <MolWeight>
238.36574

>  <Cat>
S0959

>  <Name>
Alismoxide

>  <Synonyms>
(1S,3aR,4R,8aS)-7-isopropyl-1,4-dimethyl-1,2,3,3a,4,5,6,8a-octahydroazulene-1,4-diol

>  <Target>
Immunology & Inflammation related

>  <Form>
Free base

>  <CAS>
87701-68-6

>  <URL>
https://www.selleckchem.com/products/alismoxide.html

$$$$
