Alizapride hydrochloride.cdx
 OpenBabel08302522063D

 44 46  0  0  0  0  0  0  0  0999 V2000
   -0.2306   -0.3683    1.6444 C   0  0  0  0  0  0  0  0  0  0  0  0
    0.8398   -0.4536    2.5110 C   0  0  0  0  0  0  0  0  0  0  0  0
   -0.2670    0.5023    0.5531 C   0  0  0  0  0  0  0  0  0  0  0  0
   -1.1109   -1.2902    2.1419 N   0  0  0  0  0  0  0  0  0  0  0  0
    1.9538    0.3560    2.2980 C   0  0  0  0  0  0  0  0  0  0  0  0
    0.5756   -1.3915    3.4759 N   0  0  0  0  0  0  0  0  0  0  0  0
    0.8536    1.3401    0.3421 C   0  0  0  0  0  0  0  0  0  0  0  0
   -0.6289   -1.8964    3.2374 N   0  0  0  0  0  0  0  0  0  0  0  0
    1.9724    1.2572    1.2041 C   0  0  0  0  0  0  0  0  0  0  0  0
    0.9019    2.2201   -0.7173 O   0  0  0  0  0  0  0  0  0  0  0  0
    3.2444    2.0493    1.0967 C   0  0  0  0  0  0  0  0  0  0  0  0
   -0.3528    2.6133   -1.2795 C   0  0  0  0  0  0  0  0  0  0  0  0
    3.4203    2.9279    0.0528 N   0  0  0  0  0  0  0  0  0  0  0  0
    4.1225    1.9013    1.9473 O   0  0  0  0  0  0  0  0  0  0  0  0
    4.6479    3.7033   -0.0393 C   0  0  0  0  0  0  0  0  0  0  0  0
    4.6457    4.7177   -1.1941 C   0  0  3  0  0  0  0  0  0  0  0  0
    3.6005    5.7767   -1.1989 N   0  0  0  0  0  0  0  0  0  0  0  0
    5.9631    5.4829   -1.2946 C   0  0  0  0  0  0  0  0  0  0  0  0
    4.1211    6.8104   -2.1184 C   0  0  0  0  0  0  0  0  0  0  0  0
    3.3150    6.3191    0.1387 C   0  0  0  0  0  0  0  0  0  0  0  0
    5.6309    6.6284   -2.2297 C   0  0  0  0  0  0  0  0  0  0  0  0
    2.1918    7.3186    0.1143 C   0  0  0  0  0  0  0  0  0  0  0  0
    2.2776    8.5616    0.6057 C   0  0  0  0  0  0  0  0  0  0  0  0
   -1.1329    0.4968   -0.0987 H   0  0  0  0  0  0  0  0  0  0  0  0
   -2.0264   -1.5521    1.8056 H   0  0  0  0  0  0  0  0  0  0  0  0
    2.7946    0.2777    2.9791 H   0  0  0  0  0  0  0  0  0  0  0  0
   -0.8915    1.7676   -1.7213 H   0  0  0  0  0  0  0  0  0  0  0  0
   -0.9698    3.1225   -0.5306 H   0  0  0  0  0  0  0  0  0  0  0  0
   -0.1565    3.3160   -2.0937 H   0  0  0  0  0  0  0  0  0  0  0  0
    2.6708    3.0804   -0.6157 H   0  0  0  0  0  0  0  0  0  0  0  0
    4.8191    4.1974    0.9258 H   0  0  0  0  0  0  0  0  0  0  0  0
    5.4760    2.9949   -0.1683 H   0  0  0  0  0  0  0  0  0  0  0  0
    4.5120    4.1464   -2.1239 H   0  0  0  0  0  0  0  0  0  0  0  0
    6.2802    5.8748   -0.3203 H   0  0  0  0  0  0  0  0  0  0  0  0
    6.7777    4.8664   -1.6887 H   0  0  0  0  0  0  0  0  0  0  0  0
    3.8787    7.8375   -1.8265 H   0  0  0  0  0  0  0  0  0  0  0  0
    3.6644    6.6573   -3.1033 H   0  0  0  0  0  0  0  0  0  0  0  0
    2.9626    5.5164    0.7961 H   0  0  0  0  0  0  0  0  0  0  0  0
    4.2122    6.7470    0.6029 H   0  0  0  0  0  0  0  0  0  0  0  0
    6.1777    7.5366   -1.9560 H   0  0  0  0  0  0  0  0  0  0  0  0
    5.9018    6.3693   -3.2600 H   0  0  0  0  0  0  0  0  0  0  0  0
    1.2570    6.9824   -0.3279 H   0  0  0  0  0  0  0  0  0  0  0  0
    1.4296    9.2372    0.5604 H   0  0  0  0  0  0  0  0  0  0  0  0
    3.1927    8.9326    1.0570 H   0  0  0  0  0  0  0  0  0  0  0  0
  1  2  1  0  0  0  0
  1  3  2  0  0  0  0
  1  4  1  0  0  0  0
  2  5  2  0  0  0  0
  2  6  1  0  0  0  0
  3  7  1  0  0  0  0
  3 24  1  0  0  0  0
  4  8  1  0  0  0  0
  4 25  1  0  0  0  0
  5  9  1  0  0  0  0
  5 26  1  0  0  0  0
  6  8  2  0  0  0  0
  7 10  1  0  0  0  0
  7  9  2  0  0  0  0
  9 11  1  0  0  0  0
 10 12  1  0  0  0  0
 11 13  1  0  0  0  0
 11 14  2  0  0  0  0
 12 27  1  0  0  0  0
 12 28  1  0  0  0  0
 12 29  1  0  0  0  0
 13 15  1  0  0  0  0
 13 30  1  0  0  0  0
 15 16  1  0  0  0  0
 15 31  1  0  0  0  0
 15 32  1  0  0  0  0
 16 17  1  0  0  0  0
 16 18  1  0  0  0  0
 16 33  1  0  0  0  0
 17 19  1  0  0  0  0
 17 20  1  0  0  0  0
 18 21  1  0  0  0  0
 18 34  1  0  0  0  0
 18 35  1  0  0  0  0
 19 21  1  0  0  0  0
 19 36  1  0  0  0  0
 19 37  1  0  0  0  0
 20 22  1  0  0  0  0
 20 38  1  0  0  0  0
 20 39  1  0  0  0  0
 21 40  1  0  0  0  0
 21 41  1  0  0  0  0
 22 23  2  0  0  0  0
 22 42  1  0  0  0  0
 23 43  1  0  0  0  0
 23 44  1  0  0  0  0
M  END
>  <Mol_ID>
1395

>  <Formula>
C16H22ClN5O2

>  <MolWeight>
351.83118

>  <Cat>
S4257

>  <Name>
Alizapride HCl

>  <Synonyms>
Alizapride hydrochloride

>  <Target>
Dopamine Receptor

>  <Form>
hydrochloride

>  <CAS>
59338-87-3

>  <URL>
http://selleckchem.com/products/alizapride-hcl.html

$$$$
