Alkyne tyramide
 OpenBabel08302521323D

 31 31  0  0  0  0  0  0  0  0999 V2000
    1.5082   -1.0750    0.1246 C   0  0  0  0  0  0  0  0  0  0  0  0
    0.7489   -1.0198    1.4299 C   0  0  0  0  0  0  0  0  0  0  0  0
    1.4723   -1.7957    2.5243 C   0  0  0  0  0  0  0  0  0  0  0  0
    0.6708   -1.7092    3.8129 C   0  0  0  0  0  0  0  0  0  0  0  0
   -0.0166   -1.6349    4.9183 C   0  0  0  0  0  0  0  0  0  0  0  0
    1.3554   -1.9850   -0.6819 O   0  0  0  0  0  0  0  0  0  0  0  0
    2.3906   -0.0327   -0.0604 N   0  0  0  0  0  0  0  0  0  0  0  0
    3.1345    0.1102   -1.3026 C   0  0  0  0  0  0  0  0  0  0  0  0
    4.0355    1.3463   -1.2859 C   0  0  0  0  0  0  0  0  0  0  0  0
    4.8470    1.4916   -2.5468 C   0  0  0  0  0  0  0  0  0  0  0  0
    4.3512    2.2207   -3.6376 C   0  0  0  0  0  0  0  0  0  0  0  0
    5.1047    2.3507   -4.8076 C   0  0  0  0  0  0  0  0  0  0  0  0
    6.3552    1.7446   -4.8862 C   0  0  0  0  0  0  0  0  0  0  0  0
    6.8601    1.0131   -3.8195 C   0  0  0  0  0  0  0  0  0  0  0  0
    6.1065    0.8839   -2.6502 C   0  0  0  0  0  0  0  0  0  0  0  0
    7.1255    1.8463   -6.0066 O   0  0  0  0  0  0  0  0  0  0  0  0
    0.6058    0.0267    1.7274 H   0  0  0  0  0  0  0  0  0  0  0  0
   -0.2550   -1.4269    1.2567 H   0  0  0  0  0  0  0  0  0  0  0  0
    1.5898   -2.8473    2.2394 H   0  0  0  0  0  0  0  0  0  0  0  0
    2.4744   -1.3858    2.6932 H   0  0  0  0  0  0  0  0  0  0  0  0
   -0.5791   -1.5788    5.8220 H   0  0  0  0  0  0  0  0  0  0  0  0
    2.3915    0.7323    0.6010 H   0  0  0  0  0  0  0  0  0  0  0  0
    3.7207   -0.8049   -1.4498 H   0  0  0  0  0  0  0  0  0  0  0  0
    2.4114    0.1672   -2.1255 H   0  0  0  0  0  0  0  0  0  0  0  0
    3.4287    2.2486   -1.1329 H   0  0  0  0  0  0  0  0  0  0  0  0
    4.7108    1.3029   -0.4213 H   0  0  0  0  0  0  0  0  0  0  0  0
    3.3741    2.6969   -3.5822 H   0  0  0  0  0  0  0  0  0  0  0  0
    4.7029    2.9209   -5.6382 H   0  0  0  0  0  0  0  0  0  0  0  0
    7.8363    0.5433   -3.8958 H   0  0  0  0  0  0  0  0  0  0  0  0
    6.5132    0.3086   -1.8223 H   0  0  0  0  0  0  0  0  0  0  0  0
    6.6514    2.3856   -6.6605 H   0  0  0  0  0  0  0  0  0  0  0  0
  1  2  1  0  0  0  0
  1  6  2  0  0  0  0
  1  7  1  0  0  0  0
  2  3  1  0  0  0  0
  2 17  1  0  0  0  0
  2 18  1  0  0  0  0
  3  4  1  0  0  0  0
  3 19  1  0  0  0  0
  3 20  1  0  0  0  0
  4  5  3  0  0  0  0
  5 21  1  0  0  0  0
  7  8  1  0  0  0  0
  7 22  1  0  0  0  0
  8  9  1  0  0  0  0
  8 23  1  0  0  0  0
  8 24  1  0  0  0  0
  9 10  1  0  0  0  0
  9 25  1  0  0  0  0
  9 26  1  0  0  0  0
 10 11  2  0  0  0  0
 10 15  1  0  0  0  0
 11 12  1  0  0  0  0
 11 27  1  0  0  0  0
 12 13  2  0  0  0  0
 12 28  1  0  0  0  0
 13 14  1  0  0  0  0
 13 16  1  0  0  0  0
 14 15  2  0  0  0  0
 14 29  1  0  0  0  0
 15 30  1  0  0  0  0
 16 31  1  0  0  0  0
M  END
>  <Mol_ID>
6282

>  <Formula>
C13H15NO2

>  <MolWeight>
217.2637

>  <Cat>
E0471

>  <Name>
Alkyne tyramide

>  <Synonyms>
N/A

>  <Target>
Peroxidases

>  <Form>
free base

>  <CAS>
1694495-59-4

>  <URL>
http://www.selleckchem.com/products/alkyne-tyramide.html

$$$$
