Allopregnanolone
 OpenBabel08302520452D

 57 60  0  0  0  0  0  0  0  0999 V2000
    4.8699    3.4968    0.0000 C   0  0  1  0  0  0  0  0  0  0  0  0
    6.0768    2.7932    0.0000 C   0  0  2  0  0  0  0  0  0  0  0  0
    3.6546    2.8017    0.0000 C   0  0  2  0  0  0  0  0  0  0  0  0
    4.8784    4.9083    0.0000 C   0  0  0  0  0  0  0  0  0  0  0  0
    7.3005    3.4883    0.0000 C   0  0  1  0  0  0  0  0  0  0  0  0
    6.0768    1.4114    0.0000 C   0  0  0  0  0  0  0  0  0  0  0  0
    3.6546    1.4029    0.0000 C   0  0  1  0  0  0  0  0  0  0  0  0
    2.4477    3.4968    0.0000 C   0  0  0  0  0  0  0  0  0  0  0  0
    3.6546    4.2047    0.0000 C   0  0  0  0  0  0  0  0  0  0  0  0
    6.0895    5.6034    0.0000 C   0  0  0  0  0  0  0  0  0  0  0  0
    7.3134    4.8871    0.0000 C   0  0  2  0  0  0  0  0  0  0  0  0
    8.6268    3.0618    0.0000 C   0  0  0  0  0  0  0  0  0  0  0  0
    4.8699    0.7080    0.0000 C   0  0  0  0  0  0  0  0  0  0  0  0
    2.4477    0.7080    0.0000 C   0  0  0  0  0  0  0  0  0  0  0  0
    1.2323    2.7932    0.0000 C   0  0  0  0  0  0  0  0  0  0  0  0
    8.6355    5.3134    0.0000 C   0  0  2  0  0  0  0  0  0  0  0  0
    9.4329    4.2047    0.0000 C   0  0  0  0  0  0  0  0  0  0  0  0
    1.2323    1.4114    0.0000 C   0  0  1  0  0  0  0  0  0  0  0  0
    9.0960    6.6482    0.0000 C   0  0  0  0  0  0  0  0  0  0  0  0
    0.0000    0.7292    0.0000 O   0  0  0  0  0  0  0  0  0  0  0  0
    8.1620    7.7015    0.0000 C   0  0  0  0  0  0  0  0  0  0  0  0
   10.4648    6.9170    0.0000 O   0  0  0  0  0  0  0  0  0  0  0  0
    7.3573    6.2864    0.0000 C   0  0  0  0  0  0  0  0  0  0  0  0
    5.7993    4.0271    0.0000 H   0  0  0  0  0  0  0  0  0  0  0  0
    5.1490    2.2602    0.0000 H   0  0  0  0  0  0  0  0  0  0  0  0
    3.9541    5.4473    0.0000 H   0  0  0  0  0  0  0  0  0  0  0  0
    4.8821    5.9783    0.0000 H   0  0  0  0  0  0  0  0  0  0  0  0
    7.4102    2.4239    0.0000 H   0  0  0  0  0  0  0  0  0  0  0  0
    7.0045    0.8783    0.0000 H   0  0  0  0  0  0  0  0  0  0  0  0
    6.0801    0.3414    0.0000 H   0  0  0  0  0  0  0  0  0  0  0  0
    2.7283    1.9384    0.0000 H   0  0  0  0  0  0  0  0  0  0  0  0
    2.4465    4.5668    0.0000 H   0  0  0  0  0  0  0  0  0  0  0  0
    1.5204    4.0307    0.0000 H   0  0  0  0  0  0  0  0  0  0  0  0
    4.5812    4.7397    0.0000 H   0  0  0  0  0  0  0  0  0  0  0  0
    2.7280    4.7397    0.0000 H   0  0  0  0  0  0  0  0  0  0  0  0
    3.6546    5.2747    0.0000 H   0  0  0  0  0  0  0  0  0  0  0  0
    6.0940    6.6734    0.0000 H   0  0  0  0  0  0  0  0  0  0  0  0
    7.0188    6.1337    0.0000 H   0  0  0  0  0  0  0  0  0  0  0  0
    8.9661    2.0470    0.0000 H   0  0  0  0  0  0  0  0  0  0  0  0
    9.6854    2.9064    0.0000 H   0  0  0  0  0  0  0  0  0  0  0  0
    4.8743   -0.3620    0.0000 H   0  0  0  0  0  0  0  0  0  0  0  0
    3.9455    0.1692    0.0000 H   0  0  0  0  0  0  0  0  0  0  0  0
    2.4465   -0.3620    0.0000 H   0  0  0  0  0  0  0  0  0  0  0  0
    1.5205    0.1740    0.0000 H   0  0  0  0  0  0  0  0  0  0  0  0
    0.3053    3.3277    0.0000 H   0  0  0  0  0  0  0  0  0  0  0  0
    0.3058    2.2579    0.0000 H   0  0  0  0  0  0  0  0  0  0  0  0
    7.8866    6.0776    0.0000 H   0  0  0  0  0  0  0  0  0  0  0  0
   10.5029    4.2096    0.0000 H   0  0  0  0  0  0  0  0  0  0  0  0
    9.9188    5.1580    0.0000 H   0  0  0  0  0  0  0  0  0  0  0  0
    1.2221    0.3414    0.0000 H   0  0  0  0  0  0  0  0  0  0  0  0
   -0.8312    1.2292    0.0000 H   0  0  0  0  0  0  0  0  0  0  0  0
    8.5004    8.7166    0.0000 H   0  0  0  0  0  0  0  0  0  0  0  0
    7.1137    7.4870    0.0000 H   0  0  0  0  0  0  0  0  0  0  0  0
    7.4521    8.5021    0.0000 H   0  0  0  0  0  0  0  0  0  0  0  0
    8.3003    6.7921    0.0000 H   0  0  0  0  0  0  0  0  0  0  0  0
    6.4479    6.8502    0.0000 H   0  0  0  0  0  0  0  0  0  0  0  0
    7.3909    7.3559    0.0000 H   0  0  0  0  0  0  0  0  0  0  0  0
  1  2  1  0  0  0  0
  1  3  1  0  0  0  0
  1  4  1  0  0  0  0
  1 24  1  6  0  0  0
  2  5  1  0  0  0  0
  2  6  1  0  0  0  0
  2 25  1  1  0  0  0
  3  7  1  0  0  0  0
  3  8  1  0  0  0  0
  3  9  1  1  0  0  0
  4 10  1  0  0  0  0
  4 26  1  0  0  0  0
  4 27  1  0  0  0  0
  5 11  1  0  0  0  0
  5 12  1  0  0  0  0
  5 28  1  6  0  0  0
  6 13  1  0  0  0  0
  6 29  1  0  0  0  0
  6 30  1  0  0  0  0
  7 14  1  0  0  0  0
  7 13  1  0  0  0  0
  7 31  1  6  0  0  0
  8 15  1  0  0  0  0
  8 32  1  0  0  0  0
  8 33  1  0  0  0  0
  9 34  1  0  0  0  0
  9 35  1  0  0  0  0
  9 36  1  0  0  0  0
 10 11  1  0  0  0  0
 10 37  1  0  0  0  0
 10 38  1  0  0  0  0
 11 16  1  0  0  0  0
 11 23  1  1  0  0  0
 12 17  1  0  0  0  0
 12 39  1  0  0  0  0
 12 40  1  0  0  0  0
 13 41  1  0  0  0  0
 13 42  1  0  0  0  0
 14 18  1  0  0  0  0
 14 43  1  0  0  0  0
 14 44  1  0  0  0  0
 15 18  1  0  0  0  0
 15 45  1  0  0  0  0
 15 46  1  0  0  0  0
 16 19  1  0  0  0  0
 16 17  1  0  0  0  0
 16 47  1  6  0  0  0
 17 48  1  0  0  0  0
 17 49  1  0  0  0  0
 18 20  1  0  0  0  0
 18 50  1  1  0  0  0
 19 21  1  0  0  0  0
 19 22  2  0  0  0  0
 20 51  1  0  0  0  0
 21 52  1  0  0  0  0
 21 53  1  0  0  0  0
 21 54  1  0  0  0  0
 23 55  1  0  0  0  0
 23 56  1  0  0  0  0
 23 57  1  0  0  0  0
M  END
>  <Mol_ID>
3433

>  <Formula>
C21H34O2

>  <MolWeight>
318.49346

>  <Cat>
S5805

>  <Name>
Allopregnanolone

>  <Synonyms>
N/A

>  <Target>
GABA Receptor

>  <Form>
Free Base

>  <CAS>
516-54-1

>  <URL>
http://www.selleckchem.com/products/allopregnanolone.html

$$$$
