Allocholic acid
 OpenBabel08302521373D

 69 72  0  0  1  0  0  0  0  0999 V2000
    3.0229   -0.7921   -0.4756 O   0  0  0  0  0  0  0  0  0  0  0  0
    7.2771   -3.6443   -2.2001 C   0  0  0  0  0  0  0  0  0  0  0  0
    6.8843    1.3572   -2.9418 C   0  0  0  0  0  0  0  0  0  0  0  0
    6.8332   -3.9272    1.7442 C   0  0  1  0  0  0  0  0  0  0  0  0
    5.9210   -2.8694    2.3975 C   0  0  0  0  0  0  0  0  0  0  0  0
    6.7310   -5.2277    2.5424 C   0  0  0  0  0  0  0  0  0  0  0  0
    6.4073   -2.3346    3.7461 C   0  0  0  0  0  0  0  0  0  0  0  0
    5.5661   -1.1602    4.2080 C   0  0  0  0  0  0  0  0  0  0  0  0
    5.8925   -0.7705    5.4685 O   0  0  0  0  0  0  0  0  0  0  0  0
    4.7190   -0.5827    3.5562 O   0  0  0  0  0  0  0  0  0  0  0  0
    8.2873   -1.7154    0.8947 O   0  0  0  0  0  0  0  0  0  0  0  0
    6.4732    4.9493    1.2919 O   0  0  0  0  0  0  0  0  0  0  0  0
    5.4392   -0.7863   -0.6005 C   0  0  3  0  0  0  0  0  0  0  0  0
    5.5342   -2.2728   -1.0474 C   0  0  3  0  0  0  0  0  0  0  0  0
    6.7405    0.0784   -0.7460 C   0  0  3  0  0  0  0  0  0  0  0  0
    4.1381   -0.1091   -1.0638 C   0  0  3  0  0  0  0  0  0  0  0  0
    6.9082   -2.9957   -0.8077 C   0  0  3  0  0  0  0  0  0  0  0  0
    4.4776   -3.2034   -0.3955 C   0  0  0  0  0  0  0  0  0  0  0  0
    6.6529    1.4933   -1.4069 C   0  0  3  0  0  0  0  0  0  0  0  0
    7.9496   -0.7529   -1.2413 C   0  0  0  0  0  0  0  0  0  0  0  0
    4.1401    1.3062   -0.5533 C   0  0  0  0  0  0  0  0  0  0  0  0
    6.6134   -4.1676    0.2021 C   0  0  3  0  0  0  0  0  0  0  0  0
    8.0795   -2.0444   -0.4760 C   0  0  3  0  0  0  0  0  0  0  0  0
    5.1720   -4.5372   -0.1723 C   0  0  0  0  0  0  0  0  0  0  0  0
    5.2787    2.2125   -1.0708 C   0  0  3  0  0  0  0  0  0  0  0  0
    7.8881    2.3522   -0.9458 C   0  0  0  0  0  0  0  0  0  0  0  0
    5.3031    3.3564   -0.0198 C   0  0  0  0  0  0  0  0  0  0  0  0
    7.7000    3.0677    0.3738 C   0  0  0  0  0  0  0  0  0  0  0  0
    6.6057    4.0968    0.1619 C   0  0  3  0  0  0  0  0  0  0  0  0
    2.3337   -0.1514   -0.2269 H   0  0  0  0  0  0  0  0  0  0  0  0
    7.4259   -2.8850   -2.9765 H   0  0  0  0  0  0  0  0  0  0  0  0
    8.2044   -4.2232   -2.1322 H   0  0  0  0  0  0  0  0  0  0  0  0
    6.4958   -4.3075   -2.5810 H   0  0  0  0  0  0  0  0  0  0  0  0
    6.2440    0.6005   -3.4061 H   0  0  0  0  0  0  0  0  0  0  0  0
    6.7428    2.3111   -3.4608 H   0  0  0  0  0  0  0  0  0  0  0  0
    7.9267    1.0730   -3.1518 H   0  0  0  0  0  0  0  0  0  0  0  0
    7.8771   -3.6275    1.8725 H   0  0  0  0  0  0  0  0  0  0  0  0
    5.8528   -2.0170    1.7488 H   0  0  0  0  0  0  0  0  0  0  0  0
    4.9012   -3.2556    2.5113 H   0  0  0  0  0  0  0  0  0  0  0  0
    7.4600   -5.9598    2.1833 H   0  0  0  0  0  0  0  0  0  0  0  0
    6.9571   -5.0465    3.5981 H   0  0  0  0  0  0  0  0  0  0  0  0
    5.7306   -5.6639    2.4874 H   0  0  0  0  0  0  0  0  0  0  0  0
    6.3504   -3.1170    4.4992 H   0  0  0  0  0  0  0  0  0  0  0  0
    7.4376   -1.9738    3.6511 H   0  0  0  0  0  0  0  0  0  0  0  0
    6.6102   -1.3047    5.8597 H   0  0  0  0  0  0  0  0  0  0  0  0
    7.5265   -1.1892    1.2145 H   0  0  0  0  0  0  0  0  0  0  0  0
    7.2796    4.8841    1.8299 H   0  0  0  0  0  0  0  0  0  0  0  0
    5.2945   -0.8273    0.4796 H   0  0  0  0  0  0  0  0  0  0  0  0
    5.3117   -2.2732   -2.1247 H   0  0  0  0  0  0  0  0  0  0  0  0
    6.9734    0.3460    0.2936 H   0  0  0  0  0  0  0  0  0  0  0  0
    4.0043   -0.1502   -2.1469 H   0  0  0  0  0  0  0  0  0  0  0  0
    4.1232   -2.8088    0.5613 H   0  0  0  0  0  0  0  0  0  0  0  0
    3.5853   -3.3212   -1.0195 H   0  0  0  0  0  0  0  0  0  0  0  0
    8.8801   -0.2001   -1.0970 H   0  0  0  0  0  0  0  0  0  0  0  0
    7.8742   -0.9555   -2.3108 H   0  0  0  0  0  0  0  0  0  0  0  0
    4.1885    1.2254    0.5453 H   0  0  0  0  0  0  0  0  0  0  0  0
    3.1721    1.7882   -0.7358 H   0  0  0  0  0  0  0  0  0  0  0  0
    7.2632   -5.0137   -0.0578 H   0  0  0  0  0  0  0  0  0  0  0  0
    9.0274   -2.5427   -0.7649 H   0  0  0  0  0  0  0  0  0  0  0  0
    4.6634   -5.1603    0.5685 H   0  0  0  0  0  0  0  0  0  0  0  0
    5.1535   -5.1037   -1.1099 H   0  0  0  0  0  0  0  0  0  0  0  0
    4.9233    2.6552   -2.0130 H   0  0  0  0  0  0  0  0  0  0  0  0
    8.7997    1.7536   -0.8782 H   0  0  0  0  0  0  0  0  0  0  0  0
    8.1150    3.1118   -1.7068 H   0  0  0  0  0  0  0  0  0  0  0  0
    5.0505    2.9619    0.9754 H   0  0  0  0  0  0  0  0  0  0  0  0
    4.4907    4.0636   -0.2333 H   0  0  0  0  0  0  0  0  0  0  0  0
    7.4393    2.3715    1.1817 H   0  0  0  0  0  0  0  0  0  0  0  0
    8.6318    3.5501    0.6890 H   0  0  0  0  0  0  0  0  0  0  0  0
    6.8160    4.7259   -0.7099 H   0  0  0  0  0  0  0  0  0  0  0  0
  1 30  1  0  0  0  0
  2 31  1  0  0  0  0
  2 32  1  0  0  0  0
  2 33  1  0  0  0  0
  3 34  1  0  0  0  0
  3 35  1  0  0  0  0
  3 36  1  0  0  0  0
  4  5  1  0  0  0  0
  4  6  1  0  0  0  0
  4 22  1  0  0  0  0
  4 37  1  1  0  0  0
  5  7  1  0  0  0  0
  5 38  1  0  0  0  0
  5 39  1  0  0  0  0
  6 40  1  0  0  0  0
  6 41  1  0  0  0  0
  6 42  1  0  0  0  0
  7  8  1  0  0  0  0
  7 43  1  0  0  0  0
  7 44  1  0  0  0  0
  8  9  1  0  0  0  0
  8 10  2  0  0  0  0
  9 45  1  0  0  0  0
 11 46  1  0  0  0  0
 12 47  1  0  0  0  0
 13 14  1  0  0  0  0
 13 15  1  0  0  0  0
 13 16  1  0  0  0  0
 13 48  1  0  0  0  0
 14 17  1  0  0  0  0
 14 18  1  0  0  0  0
 14 49  1  0  0  0  0
 15 19  1  0  0  0  0
 15 20  1  0  0  0  0
 15 50  1  0  0  0  0
 16  1  1  0  0  0  0
 16 21  1  0  0  0  0
 16 51  1  0  0  0  0
 17  2  1  0  0  0  0
 17 22  1  0  0  0  0
 17 23  1  0  0  0  0
 18 24  1  0  0  0  0
 18 52  1  0  0  0  0
 18 53  1  0  0  0  0
 19  3  1  0  0  0  0
 19 25  1  0  0  0  0
 19 26  1  0  0  0  0
 20 23  1  0  0  0  0
 20 54  1  0  0  0  0
 20 55  1  0  0  0  0
 21 56  1  0  0  0  0
 21 57  1  0  0  0  0
 22 24  1  0  0  0  0
 22 58  1  0  0  0  0
 23 11  1  0  0  0  0
 23 59  1  0  0  0  0
 24 60  1  0  0  0  0
 24 61  1  0  0  0  0
 25 21  1  0  0  0  0
 25 27  1  0  0  0  0
 25 62  1  0  0  0  0
 26 28  1  0  0  0  0
 26 63  1  0  0  0  0
 26 64  1  0  0  0  0
 27 29  1  0  0  0  0
 27 65  1  0  0  0  0
 27 66  1  0  0  0  0
 28 29  1  0  0  0  0
 28 67  1  0  0  0  0
 28 68  1  0  0  0  0
 29 12  1  0  0  0  0
 29 69  1  0  0  0  0
M  END
>  <Mol_ID>
7565

>  <Formula>
C24H40O5

>  <MolWeight>
408.5714

>  <Cat>
E2430

>  <Name>
Allocholic acid

>  <Target>
Others

>  <Form>
free base

>  <CAS>
2464-18-8

>  <URL>
https://www.selleckchem.com/products/allocholic-acid.html

$$$$
