Allocryptopine
 OpenBabel08302521583D

 50 53  0  0  0  0  0  0  0  0999 V2000
    1.7976    2.0030    2.3477 O   0  0  0  0  0  0  0  0  0  0  0  0
    1.0274    3.0864    1.8079 C   0  0  0  0  0  0  0  0  0  0  0  0
    1.6298   -0.3094    0.9615 O   0  0  0  0  0  0  0  0  0  0  0  0
    1.5971   -1.5686    0.2842 C   0  0  0  0  0  0  0  0  0  0  0  0
    4.6664    5.1487    4.3186 C   0  0  0  0  0  0  0  0  0  0  0  0
    8.5323    1.9465    0.8117 O   0  0  0  0  0  0  0  0  0  0  0  0
    4.0095    2.5333    1.4729 C   0  0  0  0  0  0  0  0  0  0  0  0
    4.9421    2.2134    0.4675 C   0  0  0  0  0  0  0  0  0  0  0  0
    2.8335    1.7000    1.4817 C   0  0  0  0  0  0  0  0  0  0  0  0
    4.1897    3.4286    2.7320 C   0  0  0  0  0  0  0  0  0  0  0  0
    6.3139    2.7903    0.3194 C   0  0  0  0  0  0  0  0  0  0  0  0
    4.7312    1.1059   -0.3966 C   0  0  0  0  0  0  0  0  0  0  0  0
    2.7053    0.5099    0.7158 C   0  0  0  0  0  0  0  0  0  0  0  0
    5.0333    4.6384    2.9695 N   0  0  0  0  0  0  0  0  0  0  0  0
    7.3593    2.0318    1.1408 C   0  0  0  0  0  0  0  0  0  0  0  0
    3.6789    0.2260   -0.2239 C   0  0  0  0  0  0  0  0  0  0  0  0
    6.5057    4.6677    2.8954 C   0  0  0  0  0  0  0  0  0  0  0  0
    6.9470    1.4194    2.4332 C   0  0  0  0  0  0  0  0  0  0  0  0
    7.4572    3.6438    3.5544 C   0  0  0  0  0  0  0  0  0  0  0  0
    6.9637    2.2271    3.5948 C   0  0  0  0  0  0  0  0  0  0  0  0
    6.2983    0.1766    2.4181 C   0  0  0  0  0  0  0  0  0  0  0  0
    6.3137    1.7855    4.7592 C   0  0  0  0  0  0  0  0  0  0  0  0
    5.5101   -0.1129    3.5106 C   0  0  0  0  0  0  0  0  0  0  0  0
    5.5175    0.6665    4.6448 C   0  0  0  0  0  0  0  0  0  0  0  0
    4.4867   -1.0195    3.5324 O   0  0  0  0  0  0  0  0  0  0  0  0
    4.4878    0.3591    5.4867 O   0  0  0  0  0  0  0  0  0  0  0  0
    3.6873   -0.4418    4.5885 C   0  0  0  0  0  0  0  0  0  0  0  0
    0.4802    3.5479    2.6354 H   0  0  0  0  0  0  0  0  0  0  0  0
    1.6449    3.8688    1.3478 H   0  0  0  0  0  0  0  0  0  0  0  0
    0.3094    2.7176    1.0705 H   0  0  0  0  0  0  0  0  0  0  0  0
    0.6036   -2.0043    0.4247 H   0  0  0  0  0  0  0  0  0  0  0  0
    1.7363   -1.4636   -0.7973 H   0  0  0  0  0  0  0  0  0  0  0  0
    2.3330   -2.2657    0.7043 H   0  0  0  0  0  0  0  0  0  0  0  0
    3.6099    5.4325    4.3591 H   0  0  0  0  0  0  0  0  0  0  0  0
    4.8543    4.4039    5.1018 H   0  0  0  0  0  0  0  0  0  0  0  0
    5.2285    6.0516    4.5856 H   0  0  0  0  0  0  0  0  0  0  0  0
    4.3002    2.7415    3.5705 H   0  0  0  0  0  0  0  0  0  0  0  0
    3.1899    3.8471    2.8853 H   0  0  0  0  0  0  0  0  0  0  0  0
    6.6189    2.7223   -0.7346 H   0  0  0  0  0  0  0  0  0  0  0  0
    6.2845    3.8553    0.4868 H   0  0  0  0  0  0  0  0  0  0  0  0
    5.4821    0.8525   -1.1464 H   0  0  0  0  0  0  0  0  0  0  0  0
    3.6801   -0.6763   -0.8255 H   0  0  0  0  0  0  0  0  0  0  0  0
    6.8329    5.6402    3.2976 H   0  0  0  0  0  0  0  0  0  0  0  0
    6.8115    4.8306    1.8667 H   0  0  0  0  0  0  0  0  0  0  0  0
    7.6965    3.9725    4.5723 H   0  0  0  0  0  0  0  0  0  0  0  0
    8.4175    3.6696    3.0196 H   0  0  0  0  0  0  0  0  0  0  0  0
    6.2376   -0.4280    1.5201 H   0  0  0  0  0  0  0  0  0  0  0  0
    6.2455    2.4133    5.6405 H   0  0  0  0  0  0  0  0  0  0  0  0
    2.9110    0.1984    4.1412 H   0  0  0  0  0  0  0  0  0  0  0  0
    3.1851   -1.2319    5.1538 H   0  0  0  0  0  0  0  0  0  0  0  0
  1  2  1  0  0  0  0
  1  9  1  0  0  0  0
  2 28  1  0  0  0  0
  2 29  1  0  0  0  0
  2 30  1  0  0  0  0
  3  4  1  0  0  0  0
  3 13  1  0  0  0  0
  4 31  1  0  0  0  0
  4 32  1  0  0  0  0
  4 33  1  0  0  0  0
  5 14  1  0  0  0  0
  5 34  1  0  0  0  0
  5 35  1  0  0  0  0
  5 36  1  0  0  0  0
  6 15  2  0  0  0  0
  7  8  1  0  0  0  0
  7  9  2  0  0  0  0
  7 10  1  0  0  0  0
  8 11  1  0  0  0  0
  8 12  2  0  0  0  0
  9 13  1  0  0  0  0
 10 14  1  0  0  0  0
 10 37  1  0  0  0  0
 10 38  1  0  0  0  0
 11 15  1  0  0  0  0
 11 39  1  0  0  0  0
 11 40  1  0  0  0  0
 12 16  1  0  0  0  0
 12 41  1  0  0  0  0
 13 16  2  0  0  0  0
 14 17  1  0  0  0  0
 15 18  1  0  0  0  0
 16 42  1  0  0  0  0
 17 19  1  0  0  0  0
 17 43  1  0  0  0  0
 17 44  1  0  0  0  0
 18 20  2  0  0  0  0
 18 21  1  0  0  0  0
 19 20  1  0  0  0  0
 19 45  1  0  0  0  0
 19 46  1  0  0  0  0
 20 22  1  0  0  0  0
 21 23  2  0  0  0  0
 21 47  1  0  0  0  0
 22 24  2  0  0  0  0
 22 48  1  0  0  0  0
 23 24  1  0  0  0  0
 23 25  1  0  0  0  0
 24 26  1  0  0  0  0
 25 27  1  0  0  0  0
 26 27  1  0  0  0  0
 27 49  1  0  0  0  0
 27 50  1  0  0  0  0
M  END
>  <Mol_ID>
10108

>  <Formula>
C21H23NO5

>  <MolWeight>
369.41102

>  <Cat>
S0948

>  <Name>
Allocryptopine

>  <Synonyms>
NA

>  <Target>
hERG

>  <Form>
Free Base

>  <CAS>
485-91-6

>  <URL>
https://www.selleckchem.com/products/allocryptopine.html

$$$$
