ALLOPURINOL (allopurinol).cdx
 OpenBabel08302520393D

 14 15  0  0  0  0  0  0  0  0999 V2000
    2.0937   -0.6438   -0.0375 N   0  0  0  0  0  0  0  0  0  0  0  0
    1.9793    0.6454   -0.0859 C   0  0  0  0  0  0  0  0  0  0  0  0
    0.8181    1.3810   -0.1031 N   0  0  0  0  0  0  0  0  0  0  0  0
   -0.2760    0.7064   -0.0704 C   0  0  0  0  0  0  0  0  0  0  0  0
   -0.2682   -0.7557    0.0432 C   0  0  0  0  0  0  0  0  0  0  0  0
    0.9946   -1.4619    0.0177 C   0  0  0  0  0  0  0  0  0  0  0  0
   -1.5829    1.1709   -0.0993 N   0  0  0  0  0  0  0  0  0  0  0  0
   -2.3819    0.0715    0.1703 N   0  0  0  0  0  0  0  0  0  0  0  0
   -1.5686   -1.0576    0.1542 C   0  0  0  0  0  0  0  0  0  0  0  0
    1.0403   -2.6843    0.0565 O   0  0  0  0  0  0  0  0  0  0  0  0
    2.9108    1.2358   -0.1258 H   0  0  0  0  0  0  0  0  0  0  0  0
   -1.7495    2.0436    0.3994 H   0  0  0  0  0  0  0  0  0  0  0  0
   -3.2340   -0.0292   -0.3890 H   0  0  0  0  0  0  0  0  0  0  0  0
   -2.0116   -2.0414    0.2294 H   0  0  0  0  0  0  0  0  0  0  0  0
  1  2  2  0  0  0  0
  2  3  1  0  0  0  0
  2 11  1  0  0  0  0
  3  4  2  0  0  0  0
  4  5  1  0  0  0  0
  4  7  1  0  0  0  0
  5  6  1  0  0  0  0
  6  1  1  0  0  0  0
  6 10  2  0  0  0  0
  7  8  1  0  0  0  0
  7 12  1  0  0  0  0
  8  9  1  0  0  0  0
  8 13  1  0  0  0  0
  9  5  2  0  0  0  0
  9 14  1  0  0  0  0
M  END
>  <Mol_ID>
360

>  <Formula>
C5H4N4O

>  <MolWeight>
136.11146

>  <Cat>
S1630

>  <Name>
Allopurinol

>  <Synonyms>
N/A

>  <Target>
ROS

>  <Form>
Free Base

>  <CAS>
315-30-0

>  <URL>
http://selleckchem.com/products/Allopurinol(Zyloprim).html

$$$$
