Allosecurinin
 OpenBabel08302521243D

 31 34  0  0  0  0  0  0  0  0999 V2000
   -3.1569   -3.0977    0.6700 O   0  0  0  0  0  0  0  0  0  0  0  0
   -3.5544   -5.1004    1.7185 O   0  0  0  0  0  0  0  0  0  0  0  0
   -1.1428   -0.6351   -0.9586 N   0  0  3  0  0  0  0  0  0  0  0  0
   -2.0170   -2.2702    0.5333 C   0  0  1  0  0  0  0  0  0  0  0  0
   -1.5798   -2.0450   -0.9499 C   0  0  2  0  0  0  0  0  0  0  0  0
   -0.9250   -0.2321    0.4362 C   0  0  1  0  0  0  0  0  0  0  0  0
   -2.2171   -0.8305    1.0188 C   0  0  0  0  0  0  0  0  0  0  0  0
   -0.5706   -3.0210   -1.5934 C   0  0  0  0  0  0  0  0  0  0  0  0
   -0.1986   -0.2865   -1.9921 C   0  0  0  0  0  0  0  0  0  0  0  0
   -1.0007   -2.8801    1.4372 C   0  0  0  0  0  0  0  0  0  0  0  0
    0.8948   -2.5612   -1.6058 C   0  0  0  0  0  0  0  0  0  0  0  0
    1.0956   -1.0827   -1.9490 C   0  0  0  0  0  0  0  0  0  0  0  0
    0.2699   -0.8842    1.1444 C   0  0  0  0  0  0  0  0  0  0  0  0
    0.2035   -2.1299    1.6642 C   0  0  0  0  0  0  0  0  0  0  0  0
   -1.4456   -4.0220    1.9451 C   0  0  0  0  0  0  0  0  0  0  0  0
   -2.8191   -4.1696    1.4441 C   0  0  0  0  0  0  0  0  0  0  0  0
   -2.4923   -2.1077   -1.5597 H   0  0  0  0  0  0  0  0  0  0  0  0
   -0.9048    0.8545    0.5595 H   0  0  0  0  0  0  0  0  0  0  0  0
   -2.2858   -0.7348    2.1101 H   0  0  0  0  0  0  0  0  0  0  0  0
   -3.1252   -0.3760    0.6006 H   0  0  0  0  0  0  0  0  0  0  0  0
   -0.6408   -4.0163   -1.1405 H   0  0  0  0  0  0  0  0  0  0  0  0
   -0.8615   -3.1499   -2.6447 H   0  0  0  0  0  0  0  0  0  0  0  0
   -0.6817   -0.4691   -2.9632 H   0  0  0  0  0  0  0  0  0  0  0  0
    0.0097    0.7892   -1.9801 H   0  0  0  0  0  0  0  0  0  0  0  0
    1.4619   -3.1734   -2.3175 H   0  0  0  0  0  0  0  0  0  0  0  0
    1.3621   -2.7678   -0.6385 H   0  0  0  0  0  0  0  0  0  0  0  0
    1.5908   -0.9985   -2.9244 H   0  0  0  0  0  0  0  0  0  0  0  0
    1.7870   -0.6287   -1.2291 H   0  0  0  0  0  0  0  0  0  0  0  0
    1.1792   -0.2972    1.2408 H   0  0  0  0  0  0  0  0  0  0  0  0
    1.0357   -2.5778    2.2025 H   0  0  0  0  0  0  0  0  0  0  0  0
   -0.9956   -4.6988    2.6480 H   0  0  0  0  0  0  0  0  0  0  0  0
  1 16  1  0  0  0  0
  2 16  2  0  0  0  0
  3  5  1  0  0  0  0
  3  9  1  0  0  0  0
  4  1  1  1  0  0  0
  4  5  1  0  0  0  0
  4  7  1  0  0  0  0
  4 10  1  0  0  0  0
  5  8  1  0  0  0  0
  5 17  1  6  0  0  0
  6  3  1  0  0  0  0
  6  7  1  0  0  0  0
  6 13  1  0  0  0  0
  6 18  1  1  0  0  0
  7 19  1  0  0  0  0
  7 20  1  0  0  0  0
  8 11  1  0  0  0  0
  8 21  1  0  0  0  0
  8 22  1  0  0  0  0
  9 12  1  0  0  0  0
  9 23  1  0  0  0  0
  9 24  1  0  0  0  0
 10 14  1  0  0  0  0
 10 15  2  0  0  0  0
 11 12  1  0  0  0  0
 11 25  1  0  0  0  0
 11 26  1  0  0  0  0
 12 27  1  0  0  0  0
 12 28  1  0  0  0  0
 13 14  2  0  0  0  0
 13 29  1  0  0  0  0
 14 30  1  0  0  0  0
 15 16  1  0  0  0  0
 15 31  1  0  0  0  0
M  END
>  <Mol_ID>
5092

>  <Formula>
C13H15NO2

>  <MolWeight>
217.2637

>  <Cat>
S0917

>  <Name>
Allosecurinin

>  <Synonyms>
Phyllochrysine

>  <Target>
Fungal

>  <Form>
free base

>  <CAS>
884-68-4

>  <URL>
http://www.selleckchem.com/products/allosecurinin.html

$$$$
