ALLO-2
 OpenBabel08302521333D

 39 42  0  0  0  0  0  0  0  0999 V2000
   -0.8432    1.1573   -2.5199 N   0  0  0  0  0  0  0  0  0  0  0  0
   -1.8729    0.2961   -2.3935 N   0  0  0  0  0  0  0  0  0  0  0  0
   -1.3306   -0.7349   -1.7391 C   0  0  0  0  0  0  0  0  0  0  0  0
    0.0329   -0.5329   -1.4415 C   0  0  0  0  0  0  0  0  0  0  0  0
    1.0483   -1.2664   -0.8091 C   0  0  0  0  0  0  0  0  0  0  0  0
    2.3524   -0.7438   -0.7430 C   0  0  0  0  0  0  0  0  0  0  0  0
    2.5977    0.5454   -1.2335 C   0  0  0  0  0  0  0  0  0  0  0  0
    1.5970    1.3005   -1.8641 C   0  0  0  0  0  0  0  0  0  0  0  0
    0.3283    0.7215   -1.9584 C   0  0  0  0  0  0  0  0  0  0  0  0
    3.4094   -1.4733   -0.1580 N   0  0  0  0  0  0  0  0  0  0  0  0
    3.5034   -2.8711   -0.1423 C   0  0  0  0  0  0  0  0  0  0  0  0
    4.1100   -3.4403    0.9080 N   0  0  0  0  0  0  0  0  0  0  0  0
    4.1424   -4.7918    0.9517 C   0  0  0  0  0  0  0  0  0  0  0  0
    3.5932   -5.5712   -0.0505 C   0  0  0  0  0  0  0  0  0  0  0  0
    3.0178   -4.9006   -1.0931 C   0  0  0  0  0  0  0  0  0  0  0  0
    2.9662   -3.5675   -1.1595 N   0  0  0  0  0  0  0  0  0  0  0  0
    4.8175   -5.4009    2.1187 C   0  0  0  0  0  0  0  0  0  0  0  0
    4.3750   -6.6135    2.6760 C   0  0  0  0  0  0  0  0  0  0  0  0
    5.0560   -7.2318    3.7314 C   0  0  0  0  0  0  0  0  0  0  0  0
    6.2189   -6.6631    4.2375 C   0  0  0  0  0  0  0  0  0  0  0  0
    6.6315   -5.4222    3.7480 C   0  0  0  0  0  0  0  0  0  0  0  0
    5.9424   -4.7987    2.7023 C   0  0  0  0  0  0  0  0  0  0  0  0
    7.0039   -7.1833    5.2193 O   0  0  0  0  0  0  0  0  0  0  0  0
    7.0786   -8.5937    5.3791 C   0  0  0  0  0  0  0  0  0  0  0  0
    6.5507   -9.2984    4.3557 F   0  0  0  0  0  0  0  0  0  0  0  0
    8.3799   -8.9434    5.4871 F   0  0  0  0  0  0  0  0  0  0  0  0
    6.4514   -8.9490    6.5218 F   0  0  0  0  0  0  0  0  0  0  0  0
   -1.0069    2.0312   -3.0064 H   0  0  0  0  0  0  0  0  0  0  0  0
   -1.9459   -1.5949   -1.5104 H   0  0  0  0  0  0  0  0  0  0  0  0
    0.8183   -2.2464   -0.4034 H   0  0  0  0  0  0  0  0  0  0  0  0
    3.6032    0.9581   -1.1711 H   0  0  0  0  0  0  0  0  0  0  0  0
    1.8128    2.2799   -2.2777 H   0  0  0  0  0  0  0  0  0  0  0  0
    3.6842   -1.1313    0.7544 H   0  0  0  0  0  0  0  0  0  0  0  0
    3.6207   -6.6524   -0.0420 H   0  0  0  0  0  0  0  0  0  0  0  0
    2.5590   -5.4256   -1.9288 H   0  0  0  0  0  0  0  0  0  0  0  0
    3.4794   -7.1004    2.2935 H   0  0  0  0  0  0  0  0  0  0  0  0
    4.6477   -8.1576    4.1265 H   0  0  0  0  0  0  0  0  0  0  0  0
    7.5118   -4.9390    4.1674 H   0  0  0  0  0  0  0  0  0  0  0  0
    6.3073   -3.8436    2.3265 H   0  0  0  0  0  0  0  0  0  0  0  0
  1  2  1  0  0  0  0
  1  9  1  0  0  0  0
  1 28  1  0  0  0  0
  2  3  2  0  0  0  0
  3  4  1  0  0  0  0
  3 29  1  0  0  0  0
  4  5  1  0  0  0  0
  4  9  2  0  0  0  0
  5  6  2  0  0  0  0
  5 30  1  0  0  0  0
  6  7  1  0  0  0  0
  6 10  1  0  0  0  0
  7  8  2  0  0  0  0
  7 31  1  0  0  0  0
  8  9  1  0  0  0  0
  8 32  1  0  0  0  0
 10 11  1  0  0  0  0
 10 33  1  0  0  0  0
 11 12  2  0  0  0  0
 11 16  1  0  0  0  0
 12 13  1  0  0  0  0
 13 14  2  0  0  0  0
 13 17  1  0  0  0  0
 14 15  1  0  0  0  0
 14 34  1  0  0  0  0
 15 16  2  0  0  0  0
 15 35  1  0  0  0  0
 17 18  2  0  0  0  0
 17 22  1  0  0  0  0
 18 19  1  0  0  0  0
 18 36  1  0  0  0  0
 19 20  2  0  0  0  0
 19 37  1  0  0  0  0
 20 21  1  0  0  0  0
 20 23  1  0  0  0  0
 21 22  2  0  0  0  0
 21 38  1  0  0  0  0
 22 39  1  0  0  0  0
 23 24  1  0  0  0  0
 24 25  1  0  0  0  0
 24 26  1  0  0  0  0
 24 27  1  0  0  0  0
M  END
>  <Mol_ID>
6342

>  <Formula>
C18H12F3N5O

>  <MolWeight>
371.3159896

>  <Cat>
E0787

>  <Name>
ALLO-2

>  <Target>
Hedgehog/Smoothened

>  <Form>
free base

>  <CAS>
1357350-60-7

>  <URL>
http://www.selleckchem.com/products/allo-2.html

$$$$
