Almotriptan malate.cdx
 OpenBabel08302522003D

 63 64  0  0  0  0  0  0  0  0999 V2000
    2.5001   -0.8641   -0.1676 C   0  0  0  0  0  0  0  0  0  0  0  0
    2.5703    0.7290   -1.0195 C   0  0  0  0  0  0  0  0  0  0  0  0
    1.0829    1.7340   -1.1321 C   0  0  0  0  0  0  0  0  0  0  0  0
   -0.5072    1.0460   -0.6298 C   0  0  0  0  0  0  0  0  0  0  0  0
   -0.6374   -0.5547    0.0908 C   0  0  0  0  0  0  0  0  0  0  0  0
    0.8975   -1.4826    0.3764 C   0  0  0  0  0  0  0  0  0  0  0  0
    3.7054   -1.7958   -0.1242 C   0  0  0  0  0  0  0  0  0  0  0  0
    4.9679   -1.2152    1.0211 S   0  0  0  0  0  0  0  0  0  0  0  0
    6.2353   -2.3238    0.8657 N   0  0  0  0  0  0  0  0  0  0  0  0
    5.4365    0.0619    0.5161 O   0  0  0  0  0  0  0  0  0  0  0  0
    4.4732   -1.3304    2.3753 O   0  0  0  0  0  0  0  0  0  0  0  0
    6.8856   -2.5540   -0.4367 C   0  0  0  0  0  0  0  0  0  0  0  0
    6.5004   -3.9889   -0.7626 C   0  0  0  0  0  0  0  0  0  0  0  0
    6.6316   -4.6762    0.5851 C   0  0  0  0  0  0  0  0  0  0  0  0
    6.1720   -3.6194    1.5914 C   0  0  0  0  0  0  0  0  0  0  0  0
   -1.8146    1.4503   -0.5596 N   0  0  0  0  0  0  0  0  0  0  0  0
   -2.6433    0.3429   -0.5145 C   0  0  0  0  0  0  0  0  0  0  0  0
   -2.0195   -0.8605   -0.1589 C   0  0  0  0  0  0  0  0  0  0  0  0
   -2.7251   -2.1864   -0.3412 C   0  0  0  0  0  0  0  0  0  0  0  0
   -2.0574   -3.5094    0.0715 C   0  0  0  0  0  0  0  0  0  0  0  0
   -1.6726   -3.6205    1.4826 N   0  0  0  0  0  0  0  0  0  0  0  0
   -2.8176   -3.5152    2.3866 C   0  0  0  0  0  0  0  0  0  0  0  0
   -0.9506   -4.8652    1.7536 C   0  0  0  0  0  0  0  0  0  0  0  0
    1.1503    0.5521    0.5437 C   0  0  0  0  0  0  0  0  0  0  0  0
    0.8992   -0.3590   -1.4371 C   0  0  3  0  0  0  0  0  0  0  0  0
    0.3351    0.8660    1.4527 O   0  0  0  0  0  0  0  0  0  0  0  0
    2.3595    1.0546    1.1551 O   0  0  0  0  0  0  0  0  0  0  0  0
    0.2678    0.2658   -2.9484 C   0  0  0  0  0  0  0  0  0  0  0  0
    1.7193   -1.4634   -2.1849 O   0  0  0  0  0  0  0  0  0  0  0  0
    1.2549    0.9926   -3.8272 C   0  0  0  0  0  0  0  0  0  0  0  0
    0.7378    2.0817   -4.4450 O   0  0  0  0  0  0  0  0  0  0  0  0
    2.4120    0.6385   -3.9961 O   0  0  0  0  0  0  0  0  0  0  0  0
    3.5069    1.1056   -1.4363 H   0  0  0  0  0  0  0  0  0  0  0  0
    1.0756    2.7445   -1.5476 H   0  0  0  0  0  0  0  0  0  0  0  0
    0.7895   -2.4811    0.7811 H   0  0  0  0  0  0  0  0  0  0  0  0
    3.3985   -2.7964    0.1815 H   0  0  0  0  0  0  0  0  0  0  0  0
    4.1543   -1.8255   -1.1209 H   0  0  0  0  0  0  0  0  0  0  0  0
    7.9716   -2.4703   -0.3004 H   0  0  0  0  0  0  0  0  0  0  0  0
    6.5845   -1.8481   -1.2121 H   0  0  0  0  0  0  0  0  0  0  0  0
    5.4598   -4.0371   -1.1037 H   0  0  0  0  0  0  0  0  0  0  0  0
    7.1353   -4.4389   -1.5305 H   0  0  0  0  0  0  0  0  0  0  0  0
    6.0367   -5.5927    0.6496 H   0  0  0  0  0  0  0  0  0  0  0  0
    7.6782   -4.9492    0.7689 H   0  0  0  0  0  0  0  0  0  0  0  0
    5.1679   -3.8428    1.9588 H   0  0  0  0  0  0  0  0  0  0  0  0
    6.8596   -3.5893    2.4448 H   0  0  0  0  0  0  0  0  0  0  0  0
   -2.1340    2.3951   -0.7202 H   0  0  0  0  0  0  0  0  0  0  0  0
   -3.6747    0.4907   -0.8101 H   0  0  0  0  0  0  0  0  0  0  0  0
   -3.7237   -2.1170    0.1055 H   0  0  0  0  0  0  0  0  0  0  0  0
   -2.9086   -2.2717   -1.4246 H   0  0  0  0  0  0  0  0  0  0  0  0
   -2.7509   -4.3246   -0.1854 H   0  0  0  0  0  0  0  0  0  0  0  0
   -1.1748   -3.6575   -0.5651 H   0  0  0  0  0  0  0  0  0  0  0  0
   -3.4766   -4.3894    2.3182 H   0  0  0  0  0  0  0  0  0  0  0  0
   -2.4676   -3.4232    3.4194 H   0  0  0  0  0  0  0  0  0  0  0  0
   -3.4207   -2.6247    2.1898 H   0  0  0  0  0  0  0  0  0  0  0  0
   -1.6150   -5.7366    1.7995 H   0  0  0  0  0  0  0  0  0  0  0  0
   -0.1847   -5.0666    0.9962 H   0  0  0  0  0  0  0  0  0  0  0  0
   -0.4279   -4.7811    2.7127 H   0  0  0  0  0  0  0  0  0  0  0  0
    0.0762   -1.1080   -1.5028 H   0  0  0  0  0  0  0  0  0  0  0  0
    3.2805    1.0350    0.8403 H   0  0  0  0  0  0  0  0  0  0  0  0
   -0.0194   -0.6084   -3.5544 H   0  0  0  0  0  0  0  0  0  0  0  0
   -0.6594    0.8396   -2.8674 H   0  0  0  0  0  0  0  0  0  0  0  0
    2.4149   -1.0034   -2.6866 H   0  0  0  0  0  0  0  0  0  0  0  0
   -0.2083    2.2480   -4.2678 H   0  0  0  0  0  0  0  0  0  0  0  0
  1  2  2  0  0  0  0
  1  7  1  0  0  0  0
  2  3  1  0  0  0  0
  2 33  1  0  0  0  0
  3  4  2  0  0  0  0
  3 34  1  0  0  0  0
  4  5  1  0  0  0  0
  4 16  1  0  0  0  0
  5  6  2  0  0  0  0
  6  1  1  0  0  0  0
  6 35  1  0  0  0  0
  7  8  1  0  0  0  0
  7 36  1  0  0  0  0
  7 37  1  0  0  0  0
  8  9  1  0  0  0  0
  8 10  2  0  0  0  0
  8 11  2  0  0  0  0
  9 12  1  0  0  0  0
 12 13  1  0  0  0  0
 12 38  1  0  0  0  0
 12 39  1  0  0  0  0
 13 14  1  0  0  0  0
 13 40  1  0  0  0  0
 13 41  1  0  0  0  0
 14 15  1  0  0  0  0
 14 42  1  0  0  0  0
 14 43  1  0  0  0  0
 15  9  1  0  0  0  0
 15 44  1  0  0  0  0
 15 45  1  0  0  0  0
 16 17  1  0  0  0  0
 16 46  1  0  0  0  0
 17 18  2  0  0  0  0
 17 47  1  0  0  0  0
 18  5  1  0  0  0  0
 18 19  1  0  0  0  0
 19 20  1  0  0  0  0
 19 48  1  0  0  0  0
 19 49  1  0  0  0  0
 20 21  1  0  0  0  0
 20 50  1  0  0  0  0
 20 51  1  0  0  0  0
 21 22  1  0  0  0  0
 21 23  1  0  0  0  0
 22 52  1  0  0  0  0
 22 53  1  0  0  0  0
 22 54  1  0  0  0  0
 23 55  1  0  0  0  0
 23 56  1  0  0  0  0
 23 57  1  0  0  0  0
 24 25  1  0  0  0  0
 24 26  2  0  0  0  0
 24 27  1  0  0  0  0
 25 28  1  0  0  0  0
 25 29  1  0  0  0  0
 25 58  1  0  0  0  0
 27 59  1  0  0  0  0
 28 30  1  0  0  0  0
 28 60  1  0  0  0  0
 28 61  1  0  0  0  0
 29 62  1  0  0  0  0
 30 31  1  0  0  0  0
 30 32  2  0  0  0  0
 31 63  1  0  0  0  0
M  END
>  <Mol_ID>
1079

>  <Formula>
C21H31N3O7S

>  <MolWeight>
469.55174

>  <Cat>
S2096

>  <Name>
Almotriptan Malate

>  <Synonyms>
LAS 31416

>  <Target>
5-HT Receptor

>  <Form>
Malate

>  <CAS>
181183-52-8

>  <URL>
http://selleckchem.com/products/almotriptan-malate-axert.html

$$$$
