Alobresib (GS-5829)
 OpenBabel08302521233D

 56 61  0  0  0  0  0  0  0  0999 V2000
   -0.8209    1.2448    1.3137 O   0  0  0  0  0  0  0  0  0  0  0  0
    2.5439    3.8913    6.7770 O   0  0  0  0  0  0  0  0  0  0  0  0
    1.1375   -2.6513    4.0645 N   0  0  0  0  0  0  0  0  0  0  0  0
    0.5499   -1.9705    2.0506 N   0  0  0  0  0  0  0  0  0  0  0  0
   -0.5474   -0.4202   -0.6739 N   0  0  0  0  0  0  0  0  0  0  0  0
    2.6159    2.3007    0.4009 N   0  0  0  0  0  0  0  0  0  0  0  0
    3.3686    3.0112    7.4308 N   0  0  0  0  0  0  0  0  0  0  0  0
    0.2247   -4.3899    2.3694 C   0  0  0  0  0  0  0  0  0  0  0  0
   -0.3879   -5.3424    3.3718 C   0  0  0  0  0  0  0  0  0  0  0  0
    0.9677   -5.6257    2.8198 C   0  0  0  0  0  0  0  0  0  0  0  0
    0.6498   -3.0121    2.8374 C   0  0  0  0  0  0  0  0  0  0  0  0
    0.9911   -0.8932    2.7751 C   0  0  0  0  0  0  0  0  0  0  0  0
    1.3480   -1.2914    4.0578 C   0  0  0  0  0  0  0  0  0  0  0  0
    1.0908    0.4586    2.3897 C   0  0  0  0  0  0  0  0  0  0  0  0
    0.5850    0.9864    1.0355 C   0  0  0  0  0  0  0  0  0  0  0  0
    1.7795   -0.4007    5.0479 C   0  0  0  0  0  0  0  0  0  0  0  0
    1.8996    0.9534    4.6996 C   0  0  0  0  0  0  0  0  0  0  0  0
    1.5743    1.3445    3.3904 C   0  0  0  0  0  0  0  0  0  0  0  0
    0.6484   -0.0391   -0.1203 C   0  0  0  0  0  0  0  0  0  0  0  0
    1.2651    2.3138    0.6076 C   0  0  0  0  0  0  0  0  0  0  0  0
    2.3410    1.9455    5.6822 C   0  0  0  0  0  0  0  0  0  0  0  0
    1.9305    3.2696    5.7353 C   0  0  0  0  0  0  0  0  0  0  0  0
    3.2601    1.8485    6.7757 C   0  0  0  0  0  0  0  0  0  0  0  0
    1.8643   -0.5911   -0.5327 C   0  0  0  0  0  0  0  0  0  0  0  0
    0.5364    3.5052    0.5165 C   0  0  0  0  0  0  0  0  0  0  0  0
    1.0173    4.1362    4.9573 C   0  0  0  0  0  0  0  0  0  0  0  0
    4.0809    0.7017    7.2280 C   0  0  0  0  0  0  0  0  0  0  0  0
    1.8642   -1.5708   -1.5205 C   0  0  0  0  0  0  0  0  0  0  0  0
    1.1992    4.6949    0.2193 C   0  0  0  0  0  0  0  0  0  0  0  0
   -0.5079   -1.3860   -1.6184 C   0  0  0  0  0  0  0  0  0  0  0  0
    3.2276    3.4667    0.0989 C   0  0  0  0  0  0  0  0  0  0  0  0
    0.6576   -1.9821   -2.0703 C   0  0  0  0  0  0  0  0  0  0  0  0
    2.5697    4.6777    0.0053 C   0  0  0  0  0  0  0  0  0  0  0  0
   -1.2795    0.5493    0.7951 H   0  0  0  0  0  0  0  0  0  0  0  0
    1.2900   -3.2750    4.8415 H   0  0  0  0  0  0  0  0  0  0  0  0
   -0.1674   -4.4027    1.3564 H   0  0  0  0  0  0  0  0  0  0  0  0
   -0.4678   -5.0444    4.4096 H   0  0  0  0  0  0  0  0  0  0  0  0
   -1.2258   -5.9386    3.0266 H   0  0  0  0  0  0  0  0  0  0  0  0
    1.0618   -6.4340    2.1007 H   0  0  0  0  0  0  0  0  0  0  0  0
    1.8305   -5.5180    3.4640 H   0  0  0  0  0  0  0  0  0  0  0  0
    1.9809   -0.7599    6.0482 H   0  0  0  0  0  0  0  0  0  0  0  0
    1.6931    2.3883    3.1158 H   0  0  0  0  0  0  0  0  0  0  0  0
    2.7965   -0.2854   -0.0677 H   0  0  0  0  0  0  0  0  0  0  0  0
   -0.5349    3.5203    0.6975 H   0  0  0  0  0  0  0  0  0  0  0  0
    1.4521    4.3817    3.9834 H   0  0  0  0  0  0  0  0  0  0  0  0
    0.0511    3.6474    4.8006 H   0  0  0  0  0  0  0  0  0  0  0  0
    0.8337    5.0842    5.4722 H   0  0  0  0  0  0  0  0  0  0  0  0
    3.4529   -0.1444    7.5180 H   0  0  0  0  0  0  0  0  0  0  0  0
    4.7617    0.3828    6.4334 H   0  0  0  0  0  0  0  0  0  0  0  0
    4.6848    0.9630    8.1038 H   0  0  0  0  0  0  0  0  0  0  0  0
    2.7997   -2.0204   -1.8379 H   0  0  0  0  0  0  0  0  0  0  0  0
    0.6468    5.6286    0.1637 H   0  0  0  0  0  0  0  0  0  0  0  0
   -1.4739   -1.6867   -2.0135 H   0  0  0  0  0  0  0  0  0  0  0  0
    4.2994    3.3969   -0.0621 H   0  0  0  0  0  0  0  0  0  0  0  0
    0.6266   -2.7560   -2.8278 H   0  0  0  0  0  0  0  0  0  0  0  0
    3.1142    5.5863   -0.2264 H   0  0  0  0  0  0  0  0  0  0  0  0
  1 15  1  0  0  0  0
  1 34  1  0  0  0  0
  2  7  1  0  0  0  0
  2 22  1  0  0  0  0
  3 11  1  0  0  0  0
  3 13  1  0  0  0  0
  3 35  1  0  0  0  0
  4 11  2  0  0  0  0
  4 12  1  0  0  0  0
  5 19  2  0  0  0  0
  5 30  1  0  0  0  0
  6 20  2  0  0  0  0
  6 31  1  0  0  0  0
  7 23  2  0  0  0  0
  8  9  1  0  0  0  0
  8 10  1  0  0  0  0
  8 11  1  0  0  0  0
  8 36  1  0  0  0  0
  9 10  1  0  0  0  0
  9 37  1  0  0  0  0
  9 38  1  0  0  0  0
 10 39  1  0  0  0  0
 10 40  1  0  0  0  0
 12 13  2  0  0  0  0
 12 14  1  0  0  0  0
 13 16  1  0  0  0  0
 14 15  1  0  0  0  0
 14 18  2  0  0  0  0
 15 19  1  0  0  0  0
 15 20  1  0  0  0  0
 16 17  2  0  0  0  0
 16 41  1  0  0  0  0
 17 18  1  0  0  0  0
 17 21  1  0  0  0  0
 18 42  1  0  0  0  0
 19 24  1  0  0  0  0
 20 25  1  0  0  0  0
 21 22  2  0  0  0  0
 21 23  1  0  0  0  0
 22 26  1  0  0  0  0
 23 27  1  0  0  0  0
 24 28  2  0  0  0  0
 24 43  1  0  0  0  0
 25 29  2  0  0  0  0
 25 44  1  0  0  0  0
 26 45  1  0  0  0  0
 26 46  1  0  0  0  0
 26 47  1  0  0  0  0
 27 48  1  0  0  0  0
 27 49  1  0  0  0  0
 27 50  1  0  0  0  0
 28 32  1  0  0  0  0
 28 51  1  0  0  0  0
 29 33  1  0  0  0  0
 29 52  1  0  0  0  0
 30 32  2  0  0  0  0
 30 53  1  0  0  0  0
 31 33  2  0  0  0  0
 31 54  1  0  0  0  0
 32 55  1  0  0  0  0
 33 56  1  0  0  0  0
M  END
>  <Mol_ID>
4907

>  <Formula>
C26H23N5O2

>  <MolWeight>
437.49312

>  <Cat>
S8961

>  <Name>
Alobresib (GS-5829)

>  <Synonyms>
N/A

>  <Target>
Akt,Apoptosis related,Epigenetic Reader Domain,ERK,Myc,NF-¦ÊB

>  <Form>
Free Base

>  <CAS>
1637771-14-2

>  <URL>
http://www.selleckchem.com/products/alobresib.html

$$$$
