Alofanib (RPT835)
 OpenBabel08302521043D

 44 46  0  0  0  0  0  0  0  0999 V2000
    0.2888    1.4509   -0.1710 C   0  0  0  0  0  0  0  0  0  0  0  0
    1.1005    0.3059   -0.0778 C   0  0  0  0  0  0  0  0  0  0  0  0
    0.4923   -0.9681    0.0307 C   0  0  0  0  0  0  0  0  0  0  0  0
   -0.9266   -1.0203    0.1182 C   0  0  0  0  0  0  0  0  0  0  0  0
   -1.7478    0.1152    0.0062 C   0  0  0  0  0  0  0  0  0  0  0  0
   -1.1149    1.3612   -0.1267 C   0  0  0  0  0  0  0  0  0  0  0  0
   -1.8745    2.6156   -0.1827 N   0  3  0  0  0  0  0  0  0  0  0  0
   -1.2604    3.6548   -0.4599 O   0  0  0  0  0  0  0  0  0  0  0  0
   -3.0902    2.5738    0.0612 O   0  5  0  0  0  0  0  0  0  0  0  0
    2.5977    0.5169   -0.0859 C   0  0  0  0  0  0  0  0  0  0  0  0
    1.2521   -2.2427   -0.0271 C   0  0  0  0  0  0  0  0  0  0  0  0
   -3.1718   -0.0355    0.1519 N   0  0  0  0  0  0  0  0  0  0  0  0
   -4.1343   -1.0126   -0.8365 S   0  0  0  0  0  0  0  0  0  0  0  0
   -3.4705   -2.2821   -1.0331 O   0  0  0  0  0  0  0  0  0  0  0  0
   -5.4761   -0.9374   -0.3119 O   0  0  0  0  0  0  0  0  0  0  0  0
   -4.1882   -0.2008   -2.4230 C   0  0  0  0  0  0  0  0  0  0  0  0
   -4.4956    1.1608   -2.4851 C   0  0  0  0  0  0  0  0  0  0  0  0
   -4.4864    1.8234   -3.7111 C   0  0  0  0  0  0  0  0  0  0  0  0
   -4.2535    1.1094   -4.8865 C   0  0  0  0  0  0  0  0  0  0  0  0
   -4.0753   -0.2796   -4.8412 C   0  0  0  0  0  0  0  0  0  0  0  0
   -4.0067   -0.9394   -3.6082 C   0  0  0  0  0  0  0  0  0  0  0  0
    1.0074   -3.3237    0.8335 C   0  0  0  0  0  0  0  0  0  0  0  0
    1.6588   -4.5427    0.6448 C   0  0  0  0  0  0  0  0  0  0  0  0
    2.5744   -4.6592   -0.3899 C   0  0  0  0  0  0  0  0  0  0  0  0
    2.8644   -3.6477   -1.2290 N   0  0  0  0  0  0  0  0  0  0  0  0
    2.1871   -2.4882   -1.0370 C   0  0  0  0  0  0  0  0  0  0  0  0
   -3.9637   -0.9861   -6.1415 C   0  0  0  0  0  0  0  0  0  0  0  0
   -4.6342   -2.1586   -6.1763 O   0  0  0  0  0  0  0  0  0  0  0  0
   -3.3935   -0.5116   -7.1071 O   0  0  0  0  0  0  0  0  0  0  0  0
    0.7705    2.4254   -0.2690 H   0  0  0  0  0  0  0  0  0  0  0  0
   -1.3984   -1.9891    0.2886 H   0  0  0  0  0  0  0  0  0  0  0  0
    3.0667    0.0062    0.7608 H   0  0  0  0  0  0  0  0  0  0  0  0
    3.0414    0.1755   -1.0237 H   0  0  0  0  0  0  0  0  0  0  0  0
    2.8512    1.5798    0.0055 H   0  0  0  0  0  0  0  0  0  0  0  0
   -3.6899    0.7796    0.5021 H   0  0  0  0  0  0  0  0  0  0  0  0
   -4.7590    1.7154   -1.5874 H   0  0  0  0  0  0  0  0  0  0  0  0
   -4.6762    2.8936   -3.7559 H   0  0  0  0  0  0  0  0  0  0  0  0
   -4.2387    1.6338   -5.8409 H   0  0  0  0  0  0  0  0  0  0  0  0
   -3.8213   -2.0116   -3.5612 H   0  0  0  0  0  0  0  0  0  0  0  0
    0.2862   -3.2396    1.6426 H   0  0  0  0  0  0  0  0  0  0  0  0
    1.4460   -5.3988    1.2785 H   0  0  0  0  0  0  0  0  0  0  0  0
    3.0980   -5.5898   -0.5853 H   0  0  0  0  0  0  0  0  0  0  0  0
    2.4109   -1.7369   -1.7887 H   0  0  0  0  0  0  0  0  0  0  0  0
   -5.2050   -2.3384   -5.4060 H   0  0  0  0  0  0  0  0  0  0  0  0
  1  2  2  0  0  0  0
  1 30  1  0  0  0  0
  2  3  1  0  0  0  0
  2 10  1  0  0  0  0
  3  4  2  0  0  0  0
  3 11  1  0  0  0  0
  4  5  1  0  0  0  0
  4 31  1  0  0  0  0
  5  6  2  0  0  0  0
  5 12  1  0  0  0  0
  6  1  1  0  0  0  0
  6  7  1  0  0  0  0
  7  8  2  0  0  0  0
  7  9  1  0  0  0  0
 10 32  1  0  0  0  0
 10 33  1  0  0  0  0
 10 34  1  0  0  0  0
 11 22  2  0  0  0  0
 12 13  1  0  0  0  0
 12 35  1  0  0  0  0
 13 14  2  0  0  0  0
 13 15  2  0  0  0  0
 13 16  1  0  0  0  0
 16 17  2  0  0  0  0
 17 18  1  0  0  0  0
 17 36  1  0  0  0  0
 18 19  2  0  0  0  0
 18 37  1  0  0  0  0
 19 20  1  0  0  0  0
 19 38  1  0  0  0  0
 20 21  2  0  0  0  0
 21 16  1  0  0  0  0
 21 39  1  0  0  0  0
 22 23  1  0  0  0  0
 22 40  1  0  0  0  0
 23 24  2  0  0  0  0
 23 41  1  0  0  0  0
 24 25  1  0  0  0  0
 24 42  1  0  0  0  0
 25 26  2  0  0  0  0
 26 11  1  0  0  0  0
 26 43  1  0  0  0  0
 27 28  1  0  0  0  0
 27 20  1  0  0  0  0
 27 29  2  0  0  0  0
 28 44  1  0  0  0  0
M  CHG  2   7   1   9  -1
M  END
>  <Mol_ID>
4315

>  <Formula>
C19H15N3O6S

>  <MolWeight>
413.4039

>  <Cat>
S8754

>  <Name>
Alofanib (RPT835)

>  <Synonyms>
N/A

>  <Target>
FGFR

>  <Form>
Free Base

>  <CAS>
1612888-66-0

>  <URL>
http://www.selleckchem.com/products/alofanib-rpt835.html

$$$$
