ALOPRIM (allopurinol sodium).cdx
 OpenBabel08302520393D

 14 15  0  0  0  0  0  0  0  0999 V2000
   -1.2870    1.7389   -0.0091 C   0  0  0  0  0  0  0  0  0  0  0  0
    0.0015    1.9045    0.0093 N   0  0  0  0  0  0  0  0  0  0  0  0
    0.6714    0.7274    0.0083 C   0  0  0  0  0  0  0  0  0  0  0  0
    0.1501   -0.5420   -0.0053 C   0  0  0  0  0  0  0  0  0  0  0  0
   -1.2736   -0.6990   -0.0172 C   0  0  0  0  0  0  0  0  0  0  0  0
   -1.9361    0.5162   -0.0252 N   0  0  0  0  0  0  0  0  0  0  0  0
    2.0258    0.5732    0.0190 N   0  0  0  0  0  0  0  0  0  0  0  0
    2.4129   -0.7243    0.0087 N   0  0  0  0  0  0  0  0  0  0  0  0
    1.2545   -1.4002   -0.0059 C   0  0  0  0  0  0  0  0  0  0  0  0
   -1.8570   -1.7759   -0.0188 O   0  0  0  0  0  0  0  0  0  0  0  0
   -1.9747    2.5998   -0.0130 H   0  0  0  0  0  0  0  0  0  0  0  0
   -2.9437    0.4684   -0.0363 H   0  0  0  0  0  0  0  0  0  0  0  0
    2.7312    1.3006    0.0319 H   0  0  0  0  0  0  0  0  0  0  0  0
    1.2726   -2.4826   -0.0178 H   0  0  0  0  0  0  0  0  0  0  0  0
  1  2  2  0  0  0  0
  1 11  1  0  0  0  0
  2  3  1  0  0  0  0
  3  4  2  0  0  0  0
  3  7  1  0  0  0  0
  4  5  1  0  0  0  0
  5  6  1  0  0  0  0
  5 10  2  0  0  0  0
  6  1  1  0  0  0  0
  6 12  1  0  0  0  0
  7  8  1  0  0  0  0
  7 13  1  0  0  0  0
  8  9  2  0  0  0  0
  9  4  1  0  0  0  0
  9 14  1  0  0  0  0
M  END
>  <Mol_ID>
361

>  <Formula>
C5H4N4NaO+

>  <MolWeight>
159.10123

>  <Cat>
S1631

>  <Name>
Allopurinol Sodium

>  <Synonyms>
N/A

>  <Target>
ROS

>  <Form>
Sodium Salt

>  <CAS>
17795-21-0

>  <URL>
http://selleckchem.com/products/Allopurinol-Sodium(Aloprim).html

$$$$
