Alpha-Estradiol
 OpenBabel08302521313D

 44 47  0  0  0  0  0  0  0  0999 V2000
    2.9143    1.5351    1.1061 O   0  0  0  0  0  0  0  0  0  0  0  0
    4.4068    7.6998   -7.3773 O   0  0  0  0  0  0  0  0  0  0  0  0
    2.0893    2.5702   -0.9941 C   0  0  1  0  0  0  0  0  0  0  0  0
    3.1240    2.0539   -2.0142 C   0  0  2  0  0  0  0  0  0  0  0  0
    3.3125    2.9609   -3.2217 C   0  0  1  0  0  0  0  0  0  0  0  0
    3.7219    4.3939   -2.7703 C   0  0  2  0  0  0  0  0  0  0  0  0
    2.0399    1.3733   -0.0013 C   0  0  1  0  0  0  0  0  0  0  0  0
    2.6016    3.9277   -0.4856 C   0  0  0  0  0  0  0  0  0  0  0  0
    2.6705    0.6232   -2.2607 C   0  0  0  0  0  0  0  0  0  0  0  0
    2.7955    4.9314   -1.6472 C   0  0  0  0  0  0  0  0  0  0  0  0
    2.4617    0.1296   -0.8275 C   0  0  0  0  0  0  0  0  0  0  0  0
    4.4238    2.4304   -4.1361 C   0  0  0  0  0  0  0  0  0  0  0  0
    0.6540    2.7545   -1.5531 C   0  0  0  0  0  0  0  0  0  0  0  0
    3.8931    5.2842   -4.0042 C   0  0  0  0  0  0  0  0  0  0  0  0
    4.4476    3.2228   -5.4322 C   0  0  0  0  0  0  0  0  0  0  0  0
    4.2694    4.7103   -5.2437 C   0  0  0  0  0  0  0  0  0  0  0  0
    3.7520    6.6805   -3.9382 C   0  0  0  0  0  0  0  0  0  0  0  0
    4.4366    5.5193   -6.3799 C   0  0  0  0  0  0  0  0  0  0  0  0
    3.9246    7.4799   -5.0774 C   0  0  0  0  0  0  0  0  0  0  0  0
    4.2585    6.8931   -6.2888 C   0  0  0  0  0  0  0  0  0  0  0  0
    3.8024    1.7430    0.7733 H   0  0  0  0  0  0  0  0  0  0  0  0
    4.6054    7.1399   -8.1460 H   0  0  0  0  0  0  0  0  0  0  0  0
    4.1052    1.9934   -1.5157 H   0  0  0  0  0  0  0  0  0  0  0  0
    2.3763    3.0025   -3.7940 H   0  0  0  0  0  0  0  0  0  0  0  0
    4.7247    4.3340   -2.3188 H   0  0  0  0  0  0  0  0  0  0  0  0
    1.0359    1.2192    0.4085 H   0  0  0  0  0  0  0  0  0  0  0  0
    1.9112    4.3473    0.2556 H   0  0  0  0  0  0  0  0  0  0  0  0
    3.5664    3.8097    0.0235 H   0  0  0  0  0  0  0  0  0  0  0  0
    3.4068    0.0156   -2.7935 H   0  0  0  0  0  0  0  0  0  0  0  0
    1.7365    0.5857   -2.8335 H   0  0  0  0  0  0  0  0  0  0  0  0
    1.8223    5.2152   -2.0645 H   0  0  0  0  0  0  0  0  0  0  0  0
    3.2208    5.8485   -1.2213 H   0  0  0  0  0  0  0  0  0  0  0  0
    3.4010   -0.2916   -0.4476 H   0  0  0  0  0  0  0  0  0  0  0  0
    1.7082   -0.6632   -0.7977 H   0  0  0  0  0  0  0  0  0  0  0  0
    5.3957    2.5175   -3.6302 H   0  0  0  0  0  0  0  0  0  0  0  0
    4.2906    1.3705   -4.3725 H   0  0  0  0  0  0  0  0  0  0  0  0
    0.6199    3.3755   -2.4511 H   0  0  0  0  0  0  0  0  0  0  0  0
    0.1733    1.8021   -1.7991 H   0  0  0  0  0  0  0  0  0  0  0  0
    0.0195    3.2358   -0.7977 H   0  0  0  0  0  0  0  0  0  0  0  0
    5.3936    3.0235   -5.9501 H   0  0  0  0  0  0  0  0  0  0  0  0
    3.6349    2.8645   -6.0763 H   0  0  0  0  0  0  0  0  0  0  0  0
    3.5008    7.1769   -3.0054 H   0  0  0  0  0  0  0  0  0  0  0  0
    4.7002    5.0599   -7.3281 H   0  0  0  0  0  0  0  0  0  0  0  0
    3.8032    8.5558   -5.0123 H   0  0  0  0  0  0  0  0  0  0  0  0
  1 21  1  0  0  0  0
  2 20  1  0  0  0  0
  2 22  1  0  0  0  0
  3  4  1  0  0  0  0
  3  7  1  0  0  0  0
  3  8  1  0  0  0  0
  3 13  1  6  0  0  0
  4  5  1  0  0  0  0
  4  9  1  0  0  0  0
  4 23  1  1  0  0  0
  5  6  1  0  0  0  0
  5 12  1  0  0  0  0
  5 24  1  6  0  0  0
  6 10  1  0  0  0  0
  6 14  1  0  0  0  0
  6 25  1  1  0  0  0
  7 11  1  0  0  0  0
  7 26  1  1  0  0  0
  7  1  1  0  0  0  0
  8 10  1  0  0  0  0
  8 27  1  0  0  0  0
  8 28  1  0  0  0  0
  9 11  1  0  0  0  0
  9 29  1  0  0  0  0
  9 30  1  0  0  0  0
 10 31  1  0  0  0  0
 10 32  1  0  0  0  0
 11 33  1  0  0  0  0
 11 34  1  0  0  0  0
 12 15  1  0  0  0  0
 12 35  1  0  0  0  0
 12 36  1  0  0  0  0
 13 37  1  0  0  0  0
 13 38  1  0  0  0  0
 13 39  1  0  0  0  0
 14 16  2  0  0  0  0
 14 17  1  0  0  0  0
 15 16  1  0  0  0  0
 15 40  1  0  0  0  0
 15 41  1  0  0  0  0
 16 18  1  0  0  0  0
 17 19  2  0  0  0  0
 17 42  1  0  0  0  0
 18 20  2  0  0  0  0
 18 43  1  0  0  0  0
 19 20  1  0  0  0  0
 19 44  1  0  0  0  0
M  END
>  <Mol_ID>
5881

>  <Formula>
C18H24O2

>  <MolWeight>
272.38196

>  <Cat>
S5910

>  <Name>
Alpha-Estradiol

>  <Synonyms>
¦Á-Estradiol, 17alpha-Estradiol, Alfatradiol, Epiestradiol, Epiestrol, Alora, 17 ¦Á-E2

>  <Target>
Estrogen/progestogen Receptor

>  <Form>
Free Base

>  <CAS>
57-91-0

>  <URL>
http://www.selleckchem.com/products/alpha-estradiol.html

$$$$
