Alprenolol hydrochloride
 OpenBabel08302520353D

 41 41  0  0  0  0  0  0  0  0999 V2000
    1.2697    0.3843    0.4970 C   0  0  0  0  0  0  0  0  0  0  0  0
    1.1053    1.7359    0.8703 C   0  0  0  0  0  0  0  0  0  0  0  0
    2.1760   -0.3928    1.1815 O   0  0  0  0  0  0  0  0  0  0  0  0
    0.4136   -0.1532   -0.4757 C   0  0  0  0  0  0  0  0  0  0  0  0
    0.1389    2.5243    0.2074 C   0  0  0  0  0  0  0  0  0  0  0  0
    1.8244    2.3826    2.0381 C   0  0  0  0  0  0  0  0  0  0  0  0
    2.8851   -1.3900    0.4242 C   0  0  0  0  0  0  0  0  0  0  0  0
   -0.5624    0.6262   -1.0919 C   0  0  0  0  0  0  0  0  0  0  0  0
   -0.6933    1.9692   -0.7603 C   0  0  0  0  0  0  0  0  0  0  0  0
    0.8939    2.4935    3.2198 C   0  0  0  0  0  0  0  0  0  0  0  0
    3.1120   -2.6879    1.2308 C   0  0  3  0  0  0  0  0  0  0  0  0
    0.4775    3.6349    3.7878 C   0  0  0  0  0  0  0  0  0  0  0  0
    1.8296   -3.3726    1.7544 C   0  0  0  0  0  0  0  0  0  0  0  0
    3.8155   -3.6279    0.4012 O   0  0  0  0  0  0  0  0  0  0  0  0
    2.0268   -4.7756    2.2432 N   0  0  0  0  0  0  0  0  0  0  0  0
    2.5997   -4.9027    3.6005 C   0  0  0  0  0  0  0  0  0  0  0  0
    2.2205   -6.2775    4.1892 C   0  0  0  0  0  0  0  0  0  0  0  0
    4.1236   -4.8165    3.5985 C   0  0  0  0  0  0  0  0  0  0  0  0
    0.4546   -1.2047   -0.7383 H   0  0  0  0  0  0  0  0  0  0  0  0
   -0.0036    3.5632    0.4943 H   0  0  0  0  0  0  0  0  0  0  0  0
    2.7158    1.8134    2.3218 H   0  0  0  0  0  0  0  0  0  0  0  0
    2.1867    3.3743    1.7298 H   0  0  0  0  0  0  0  0  0  0  0  0
    2.4442   -1.6339   -0.5475 H   0  0  0  0  0  0  0  0  0  0  0  0
    3.8717   -0.9728    0.1793 H   0  0  0  0  0  0  0  0  0  0  0  0
   -1.2388    0.1813   -1.8128 H   0  0  0  0  0  0  0  0  0  0  0  0
   -1.4714    2.5767   -1.2155 H   0  0  0  0  0  0  0  0  0  0  0  0
    0.4912    1.5516    3.5848 H   0  0  0  0  0  0  0  0  0  0  0  0
    3.7536   -2.4330    2.0765 H   0  0  0  0  0  0  0  0  0  0  0  0
   -0.2445    3.6071    4.5988 H   0  0  0  0  0  0  0  0  0  0  0  0
    0.8166    4.6076    3.4503 H   0  0  0  0  0  0  0  0  0  0  0  0
    1.3167   -2.7610    2.5026 H   0  0  0  0  0  0  0  0  0  0  0  0
    1.1431   -3.4674    0.9001 H   0  0  0  0  0  0  0  0  0  0  0  0
    3.5927   -4.5068    0.7755 H   0  0  0  0  0  0  0  0  0  0  0  0
    1.0959   -5.2055    2.2595 H   0  0  0  0  0  0  0  0  0  0  0  0
    2.1776   -4.1409    4.2642 H   0  0  0  0  0  0  0  0  0  0  0  0
    2.5349   -7.1000    3.5358 H   0  0  0  0  0  0  0  0  0  0  0  0
    2.7077   -6.4299    5.1611 H   0  0  0  0  0  0  0  0  0  0  0  0
    1.1414   -6.3661    4.3534 H   0  0  0  0  0  0  0  0  0  0  0  0
    4.4801   -3.8116    3.3772 H   0  0  0  0  0  0  0  0  0  0  0  0
    4.5271   -5.0747    4.5846 H   0  0  0  0  0  0  0  0  0  0  0  0
    4.5620   -5.5094    2.8720 H   0  0  0  0  0  0  0  0  0  0  0  0
  1  2  2  0  0  0  0
  1  3  1  0  0  0  0
  1  4  1  0  0  0  0
  2  5  1  0  0  0  0
  2  6  1  0  0  0  0
  3  7  1  0  0  0  0
  4  8  2  0  0  0  0
  4 19  1  0  0  0  0
  5  9  2  0  0  0  0
  5 20  1  0  0  0  0
  6 10  1  0  0  0  0
  6 21  1  0  0  0  0
  6 22  1  0  0  0  0
  7 11  1  0  0  0  0
  7 23  1  0  0  0  0
  7 24  1  0  0  0  0
  8  9  1  0  0  0  0
  8 25  1  0  0  0  0
  9 26  1  0  0  0  0
 10 12  2  0  0  0  0
 10 27  1  0  0  0  0
 11 13  1  0  0  0  0
 11 14  1  0  0  0  0
 11 28  1  0  0  0  0
 12 29  1  0  0  0  0
 12 30  1  0  0  0  0
 13 15  1  0  0  0  0
 13 31  1  0  0  0  0
 13 32  1  0  0  0  0
 14 33  1  0  0  0  0
 15 16  1  0  0  0  0
 15 34  1  0  0  0  0
 16 17  1  0  0  0  0
 16 18  1  0  0  0  0
 16 35  1  0  0  0  0
 17 36  1  0  0  0  0
 17 37  1  0  0  0  0
 17 38  1  0  0  0  0
 18 39  1  0  0  0  0
 18 40  1  0  0  0  0
 18 41  1  0  0  0  0
M  END
>  <Mol_ID>
3430

>  <Formula>
C15H24ClNO2

>  <MolWeight>
285.80956

>  <Cat>
S5802

>  <Name>
Alprenolol hydrochloride

>  <Synonyms>
N/A

>  <Target>
Adrenergic Receptor

>  <Form>
Hydrochloride

>  <CAS>
13707-88-5

>  <URL>
http://www.selleckchem.com/products/alprenolol-hydrochloride.html

$$$$
