ALREX (loteprednol etabonate).cdx
 OpenBabel08302521202D

 63 66  0  0  0  0  0  0  0  0999 V2000
    1.2082    2.1000    0.0000 C   0  0  0  0  0  0  0  0  0  0  0  0
    1.2082    0.7000    0.0000 C   0  0  0  0  0  0  0  0  0  0  0  0
    2.4207    0.0000    0.0000 C   0  0  0  0  0  0  0  0  0  0  0  0
    3.6331    0.7000    0.0000 C   0  0  0  0  0  0  0  0  0  0  0  0
    3.6331    2.1000    0.0000 C   0  0  2  0  0  0  0  0  0  0  0  0
    2.4207    2.8000    0.0000 C   0  0  0  0  0  0  0  0  0  0  0  0
    4.8455    0.0000    0.0000 C   0  0  0  0  0  0  0  0  0  0  0  0
    6.0580    0.7000    0.0000 C   0  0  0  0  0  0  0  0  0  0  0  0
    6.0580    2.1000    0.0000 C   0  0  2  0  0  0  0  0  0  0  0  0
    4.8455    2.8000    0.0000 C   0  0  3  0  0  0  0  0  0  0  0  0
    7.2704    2.8000    0.0000 C   0  0  3  0  0  0  0  0  0  0  0  0
    7.2704    4.2000    0.0000 C   0  0  3  0  0  0  0  0  0  0  0  0
    6.0580    4.9000    0.0000 C   0  0  0  0  0  0  0  0  0  0  0  0
    4.8455    4.2000    0.0000 C   0  0  3  0  0  0  0  0  0  0  0  0
    8.6019    2.3674    0.0000 C   0  0  0  0  0  0  0  0  0  0  0  0
    9.4248    3.5000    0.0000 C   0  0  0  0  0  0  0  0  0  0  0  0
    8.6019    4.6326    0.0000 C   0  0  3  0  0  0  0  0  0  0  0  0
    0.0000    0.0024    0.0000 O   0  0  0  0  0  0  0  0  0  0  0  0
    9.5918    5.6226    0.0000 C   0  0  0  0  0  0  0  0  0  0  0  0
   10.9441    5.2602    0.0000 O   0  0  0  0  0  0  0  0  0  0  0  0
   11.9306    6.2467    0.0000 C   0  0  0  0  0  0  0  0  0  0  0  0
    9.2307    6.9702    0.0000 O   0  0  0  0  0  0  0  0  0  0  0  0
    3.6331    3.5000    0.0000 C   0  0  0  0  0  0  0  0  0  0  0  0
    7.2704    5.6000    0.0000 C   0  0  0  0  0  0  0  0  0  0  0  0
    3.6373    4.8976    0.0000 O   0  0  0  0  0  0  0  0  0  0  0  0
    8.2395    5.9849    0.0000 O   0  0  0  0  0  0  0  0  0  0  0  0
    6.8872    6.3473    0.0000 C   0  0  0  0  0  0  0  0  0  0  0  0
    6.5249    7.6996    0.0000 O   0  0  0  0  0  0  0  0  0  0  0  0
    5.8973    5.3573    0.0000 O   0  0  0  0  0  0  0  0  0  0  0  0
    7.5114    8.6861    0.0000 C   0  0  0  0  0  0  0  0  0  0  0  0
    7.1503   10.0337    0.0000 C   0  0  0  0  0  0  0  0  0  0  0  0
    0.3145    2.6160    0.0000 H   0  0  0  0  0  0  0  0  0  0  0  0
    2.4207   -1.0320    0.0000 H   0  0  0  0  0  0  0  0  0  0  0  0
    2.4207    3.8320    0.0000 H   0  0  0  0  0  0  0  0  0  0  0  0
    4.8455   -1.0700    0.0000 H   0  0  0  0  0  0  0  0  0  0  0  0
    5.7721   -0.5350    0.0000 H   0  0  0  0  0  0  0  0  0  0  0  0
    6.9846    0.1650    0.0000 H   0  0  0  0  0  0  0  0  0  0  0  0
    6.9847    1.2350    0.0000 H   0  0  0  0  0  0  0  0  0  0  0  0
    5.1314    1.5650    0.0000 H   0  0  0  0  0  0  0  0  0  0  0  0
    4.8455    1.7300    0.0000 H   0  0  0  0  0  0  0  0  0  0  0  0
    6.3437    3.3350    0.0000 H   0  0  0  0  0  0  0  0  0  0  0  0
    6.0580    5.9700    0.0000 H   0  0  0  0  0  0  0  0  0  0  0  0
    5.1314    5.4350    0.0000 H   0  0  0  0  0  0  0  0  0  0  0  0
    5.7721    3.6650    0.0000 H   0  0  0  0  0  0  0  0  0  0  0  0
    8.9326    1.3498    0.0000 H   0  0  0  0  0  0  0  0  0  0  0  0
    9.6587    2.2000    0.0000 H   0  0  0  0  0  0  0  0  0  0  0  0
   10.4948    3.5000    0.0000 H   0  0  0  0  0  0  0  0  0  0  0  0
    9.9106    4.4534    0.0000 H   0  0  0  0  0  0  0  0  0  0  0  0
   12.9641    5.9698    0.0000 H   0  0  0  0  0  0  0  0  0  0  0  0
   11.6537    7.2802    0.0000 H   0  0  0  0  0  0  0  0  0  0  0  0
   12.6872    7.0033    0.0000 H   0  0  0  0  0  0  0  0  0  0  0  0
    4.5597    4.0350    0.0000 H   0  0  0  0  0  0  0  0  0  0  0  0
    2.7065    4.0350    0.0000 H   0  0  0  0  0  0  0  0  0  0  0  0
    3.6331    4.5700    0.0000 H   0  0  0  0  0  0  0  0  0  0  0  0
    8.1970    6.1350    0.0000 H   0  0  0  0  0  0  0  0  0  0  0  0
    6.3438    6.1350    0.0000 H   0  0  0  0  0  0  0  0  0  0  0  0
    7.2704    6.6700    0.0000 H   0  0  0  0  0  0  0  0  0  0  0  0
    3.6373    5.8676    0.0000 H   0  0  0  0  0  0  0  0  0  0  0  0
    8.5449    8.4092    0.0000 H   0  0  0  0  0  0  0  0  0  0  0  0
    8.2680    9.4427    0.0000 H   0  0  0  0  0  0  0  0  0  0  0  0
    7.9069   10.7903    0.0000 H   0  0  0  0  0  0  0  0  0  0  0  0
    6.1168   10.3106    0.0000 H   0  0  0  0  0  0  0  0  0  0  0  0
    6.8734   11.0672    0.0000 H   0  0  0  0  0  0  0  0  0  0  0  0
  1  2  1  0  0  0  0
  1 32  1  0  0  0  0
  2  3  1  0  0  0  0
  2 18  2  0  0  0  0
  3  4  2  0  0  0  0
  3 33  1  0  0  0  0
  4  5  1  0  0  0  0
  4  7  1  0  0  0  0
  5  6  1  0  0  0  0
  5 23  1  1  0  0  0
  6  1  2  0  0  0  0
  6 34  1  0  0  0  0
  7  8  1  0  0  0  0
  7 35  1  0  0  0  0
  7 36  1  0  0  0  0
  8 37  1  0  0  0  0
  8 38  1  0  0  0  0
  9  8  1  0  0  0  0
  9 10  1  0  0  0  0
  9 11  1  0  0  0  0
  9 39  1  1  0  0  0
 10  5  1  0  0  0  0
 10 14  1  0  0  0  0
 10 40  1  0  0  0  0
 11 12  1  0  0  0  0
 11 15  1  0  0  0  0
 11 41  1  0  0  0  0
 12 13  1  0  0  0  0
 12 24  1  0  0  0  0
 13 14  1  0  0  0  0
 13 42  1  0  0  0  0
 13 43  1  0  0  0  0
 14 25  1  0  0  0  0
 14 44  1  0  0  0  0
 15 16  1  0  0  0  0
 15 45  1  0  0  0  0
 15 46  1  0  0  0  0
 16 17  1  0  0  0  0
 16 47  1  0  0  0  0
 16 48  1  0  0  0  0
 17 12  1  0  0  0  0
 17 19  1  0  0  0  0
 17 26  1  0  0  0  0
 19 20  1  0  0  0  0
 19 22  2  0  0  0  0
 20 21  1  0  0  0  0
 21 49  1  0  0  0  0
 21 50  1  0  0  0  0
 21 51  1  0  0  0  0
 23 52  1  0  0  0  0
 23 53  1  0  0  0  0
 23 54  1  0  0  0  0
 24 55  1  0  0  0  0
 24 56  1  0  0  0  0
 24 57  1  0  0  0  0
 25 58  1  0  0  0  0
 26 27  1  0  0  0  0
 27 28  1  0  0  0  0
 27 29  2  0  0  0  0
 28 30  1  0  0  0  0
 30 31  1  0  0  0  0
 30 59  1  0  0  0  0
 30 60  1  0  0  0  0
 31 61  1  0  0  0  0
 31 62  1  0  0  0  0
 31 63  1  0  0  0  0
M  END
>  <Mol_ID>
383

>  <Formula>
C24H31ClO7

>  <MolWeight>
466.95174

>  <Cat>
S1669

>  <Name>
Loteprednol etabonate

>  <Synonyms>
N/A

>  <Target>
Glucocorticoid Receptor

>  <Form>
free base

>  <CAS>
82034-46-6

>  <URL>
http://selleckchem.com/products/Loteprednol-etabonate.html

$$$$
