Alrestatin
 OpenBabel08302520353D

 28 30  0  0  0  0  0  0  0  0999 V2000
   -0.4872    0.0202   -0.0111 C   0  0  0  0  0  0  0  0  0  0  0  0
    0.1660   -1.2199    0.0029 C   0  0  0  0  0  0  0  0  0  0  0  0
    0.2247    1.2253   -0.0087 C   0  0  0  0  0  0  0  0  0  0  0  0
   -1.9014    0.0595   -0.0125 C   0  0  0  0  0  0  0  0  0  0  0  0
    1.6480   -1.2621    0.0066 C   0  0  0  0  0  0  0  0  0  0  0  0
   -0.5672   -2.4124    0.0226 C   0  0  0  0  0  0  0  0  0  0  0  0
    1.6967    1.2006    0.1134 C   0  0  0  0  0  0  0  0  0  0  0  0
   -0.4384    2.4566   -0.0577 C   0  0  0  0  0  0  0  0  0  0  0  0
   -2.6210   -1.1426    0.0330 C   0  0  0  0  0  0  0  0  0  0  0  0
   -2.5549    1.3031   -0.0475 C   0  0  0  0  0  0  0  0  0  0  0  0
    2.3162   -0.0485    0.0978 N   0  0  0  0  0  0  0  0  0  0  0  0
    2.2490   -2.3327   -0.0905 O   0  0  0  0  0  0  0  0  0  0  0  0
   -1.9589   -2.3719    0.0513 C   0  0  0  0  0  0  0  0  0  0  0  0
    2.3043    2.2540    0.2636 O   0  0  0  0  0  0  0  0  0  0  0  0
   -1.8287    2.4929   -0.0823 C   0  0  0  0  0  0  0  0  0  0  0  0
    3.7672   -0.0639    0.2561 C   0  0  0  0  0  0  0  0  0  0  0  0
    4.4776   -0.0649   -1.0884 C   0  0  0  0  0  0  0  0  0  0  0  0
    4.2136   -1.1621   -1.8472 O   0  0  0  0  0  0  0  0  0  0  0  0
    5.2741    0.7846   -1.4490 O   0  0  0  0  0  0  0  0  0  0  0  0
   -0.0588   -3.3752    0.0300 H   0  0  0  0  0  0  0  0  0  0  0  0
    0.1267    3.3882   -0.0650 H   0  0  0  0  0  0  0  0  0  0  0  0
   -3.7094   -1.1319    0.0589 H   0  0  0  0  0  0  0  0  0  0  0  0
   -3.6421    1.3525   -0.0451 H   0  0  0  0  0  0  0  0  0  0  0  0
   -2.5317   -3.2960    0.0915 H   0  0  0  0  0  0  0  0  0  0  0  0
   -2.3468    3.4486   -0.1167 H   0  0  0  0  0  0  0  0  0  0  0  0
    4.0908    0.8131    0.8265 H   0  0  0  0  0  0  0  0  0  0  0  0
    4.0876   -0.9495    0.8163 H   0  0  0  0  0  0  0  0  0  0  0  0
    3.6732   -1.8406   -1.3814 H   0  0  0  0  0  0  0  0  0  0  0  0
  1  2  1  0  0  0  0
  1  3  2  0  0  0  0
  1  4  1  0  0  0  0
  2  5  1  0  0  0  0
  2  6  2  0  0  0  0
  3  7  1  0  0  0  0
  3  8  1  0  0  0  0
  4  9  1  0  0  0  0
  4 10  2  0  0  0  0
  5 11  1  0  0  0  0
  5 12  2  0  0  0  0
  6 13  1  0  0  0  0
  6 20  1  0  0  0  0
  7 14  2  0  0  0  0
  7 11  1  0  0  0  0
  8 15  2  0  0  0  0
  8 21  1  0  0  0  0
  9 13  2  0  0  0  0
  9 22  1  0  0  0  0
 10 15  1  0  0  0  0
 10 23  1  0  0  0  0
 11 16  1  0  0  0  0
 13 24  1  0  0  0  0
 15 25  1  0  0  0  0
 16 17  1  0  0  0  0
 16 26  1  0  0  0  0
 16 27  1  0  0  0  0
 17 18  1  0  0  0  0
 17 19  2  0  0  0  0
 18 28  1  0  0  0  0
M  END
>  <Mol_ID>
3431

>  <Formula>
C14H9NO4

>  <MolWeight>
255.22556

>  <Cat>
S5803

>  <Name>
Alrestatin

>  <Synonyms>
N/A

>  <Target>
Aldose Reductase

>  <Form>
Free Base

>  <CAS>
51411-04-2

>  <URL>
http://www.selleckchem.com/products/alrestatin.html

$$$$
