Alsterpaullone
 OpenBabel08302521273D

 33 36  0  0  0  0  0  0  0  0999 V2000
    1.0712   -0.0914    0.0058 O   0  0  0  0  0  0  0  0  0  0  0  0
    1.6360    6.2409   -1.6685 O   0  5  0  0  0  0  0  0  0  0  0  0
    2.6730    7.7756   -0.4986 O   0  0  0  0  0  0  0  0  0  0  0  0
    5.4094    2.4462    1.4850 N   0  0  0  0  0  0  0  0  0  0  0  0
    2.9916   -0.9664    0.7616 N   0  0  0  0  0  0  0  0  0  0  0  0
    2.4707    6.5956   -0.8235 N   0  3  0  0  0  0  0  0  0  0  0  0
    3.9041    1.8170   -0.0126 C   0  0  0  0  0  0  0  0  0  0  0  0
    4.8919    1.3528    0.8323 C   0  0  0  0  0  0  0  0  0  0  0  0
    3.8524    3.2292    0.0976 C   0  0  0  0  0  0  0  0  0  0  0  0
    4.7981    3.6037    1.0488 C   0  0  0  0  0  0  0  0  0  0  0  0
    3.0664    0.9292   -0.8518 C   0  0  0  0  0  0  0  0  0  0  0  0
    5.3045   -0.0372    1.0288 C   0  0  0  0  0  0  0  0  0  0  0  0
    4.3808   -1.1067    0.9611 C   0  0  0  0  0  0  0  0  0  0  0  0
    3.0684    4.2208   -0.5245 C   0  0  0  0  0  0  0  0  0  0  0  0
    2.3057   -0.0421    0.0226 C   0  0  0  0  0  0  0  0  0  0  0  0
    5.0059    4.9360    1.4261 C   0  0  0  0  0  0  0  0  0  0  0  0
    6.6578   -0.3267    1.2711 C   0  0  0  0  0  0  0  0  0  0  0  0
    3.2738    5.5604   -0.1666 C   0  0  0  0  0  0  0  0  0  0  0  0
    4.2268    5.9154    0.7971 C   0  0  0  0  0  0  0  0  0  0  0  0
    4.8298   -2.4219    1.1341 C   0  0  0  0  0  0  0  0  0  0  0  0
    7.0940   -1.6455    1.4117 C   0  0  0  0  0  0  0  0  0  0  0  0
    6.1828   -2.6924    1.3293 C   0  0  0  0  0  0  0  0  0  0  0  0
    6.1225    2.4107    2.1999 H   0  0  0  0  0  0  0  0  0  0  0  0
    2.3859   -1.6849    1.1379 H   0  0  0  0  0  0  0  0  0  0  0  0
    3.6815    0.3591   -1.5578 H   0  0  0  0  0  0  0  0  0  0  0  0
    2.3476    1.5019   -1.4462 H   0  0  0  0  0  0  0  0  0  0  0  0
    2.3270    3.9374   -1.2653 H   0  0  0  0  0  0  0  0  0  0  0  0
    5.7426    5.2067    2.1770 H   0  0  0  0  0  0  0  0  0  0  0  0
    7.3966    0.4695    1.3220 H   0  0  0  0  0  0  0  0  0  0  0  0
    4.3773    6.9574    1.0756 H   0  0  0  0  0  0  0  0  0  0  0  0
    4.1354   -3.2553    1.0543 H   0  0  0  0  0  0  0  0  0  0  0  0
    8.1490   -1.8553    1.5713 H   0  0  0  0  0  0  0  0  0  0  0  0
    6.5241   -3.7218    1.4057 H   0  0  0  0  0  0  0  0  0  0  0  0
  1 15  2  0  0  0  0
  2  6  1  0  0  0  0
  3  6  2  0  0  0  0
  4  8  1  0  0  0  0
  4 10  1  0  0  0  0
  4 23  1  0  0  0  0
  5 13  1  0  0  0  0
  5 15  1  0  0  0  0
  5 24  1  0  0  0  0
  6 18  1  0  0  0  0
  7  8  2  0  0  0  0
  7  9  1  0  0  0  0
  7 11  1  0  0  0  0
  8 12  1  0  0  0  0
  9 10  2  0  0  0  0
  9 14  1  0  0  0  0
 10 16  1  0  0  0  0
 11 15  1  0  0  0  0
 11 25  1  0  0  0  0
 11 26  1  0  0  0  0
 12 13  2  0  0  0  0
 12 17  1  0  0  0  0
 13 20  1  0  0  0  0
 14 18  2  0  0  0  0
 14 27  1  0  0  0  0
 16 19  2  0  0  0  0
 16 28  1  0  0  0  0
 17 21  2  0  0  0  0
 17 29  1  0  0  0  0
 18 19  1  0  0  0  0
 19 30  1  0  0  0  0
 20 22  2  0  0  0  0
 20 31  1  0  0  0  0
 21 22  1  0  0  0  0
 21 32  1  0  0  0  0
 22 33  1  0  0  0  0
M  CHG  2   2  -1   6   1
M  END
>  <Mol_ID>
5371

>  <Formula>
C16H11N3O3

>  <MolWeight>
293.27684

>  <Cat>
S0354

>  <Name>
Alsterpaullone

>  <Synonyms>
Alp, 9-Nitropaullone, NSC 705701

>  <Target>
Apoptosis related,Caspase,CDK,GSK-3

>  <Form>
Free Base

>  <CAS>
237430-03-4

>  <URL>
https://www.selleckchem.com/products/alsterpaullone.html

$$$$
