ALTACE (ramipril).cdx
 OpenBabel08302521213D

 62 64  0  0  0  0  0  0  0  0999 V2000
   -4.3526   -2.1208   -3.6355 C   0  0  0  0  0  0  0  0  0  0  0  0
   -5.4251   -2.6496   -4.3779 C   0  0  0  0  0  0  0  0  0  0  0  0
   -5.2912   -2.8807   -5.7369 C   0  0  0  0  0  0  0  0  0  0  0  0
   -4.0855   -2.5135   -6.3671 C   0  0  0  0  0  0  0  0  0  0  0  0
   -3.0205   -1.9927   -5.6235 C   0  0  0  0  0  0  0  0  0  0  0  0
   -3.1000   -1.8277   -4.2358 C   0  0  0  0  0  0  0  0  0  0  0  0
   -1.9060   -1.4458   -3.3416 C   0  0  0  0  0  0  0  0  0  0  0  0
   -0.4254   -1.6466   -3.8133 C   0  0  0  0  0  0  0  0  0  0  0  0
    0.7030   -0.5568   -3.9696 C   0  0  1  0  0  0  0  0  0  0  0  0
    0.6194    0.3326   -5.2503 C   0  0  0  0  0  0  0  0  0  0  0  0
   -0.3997    0.7044   -5.8049 O   0  0  0  0  0  0  0  0  0  0  0  0
    1.9024    0.6476   -5.6595 O   0  0  0  0  0  0  0  0  0  0  0  0
    2.1123    1.5821   -6.7252 C   0  0  0  0  0  0  0  0  0  0  0  0
    2.1212    0.8966   -8.0795 C   0  0  0  0  0  0  0  0  0  0  0  0
    1.1274    0.2875   -2.8120 N   0  0  0  0  0  0  0  0  0  0  0  0
    1.7689   -0.3973   -1.6464 C   0  0  2  0  0  0  0  0  0  0  0  0
    1.6175    0.5475   -0.4039 C   0  0  0  0  0  0  0  0  0  0  0  0
    3.1455   -0.9664   -1.9327 C   0  0  0  0  0  0  0  0  0  0  0  0
    2.5924    0.9678    0.4914 N   0  0  0  0  0  0  0  0  0  0  0  0
    0.4449    0.9273   -0.2035 O   0  0  0  0  0  0  0  0  0  0  0  0
    2.1307    1.9519    1.4780 C   0  0  2  0  0  0  0  0  0  0  0  0
    3.3411    2.7642    1.9486 C   0  0  2  0  0  0  0  0  0  0  0  0
    4.4936    2.3097    1.0628 C   0  0  0  0  0  0  0  0  0  0  0  0
    4.0853    0.9233    0.5274 C   0  0  1  0  0  0  0  0  0  0  0  0
    1.5438    1.2981    2.7314 C   0  0  0  0  0  0  0  0  0  0  0  0
    2.0207    2.1911    3.8623 C   0  0  0  0  0  0  0  0  0  0  0  0
    3.4549    2.5061    3.4519 C   0  0  0  0  0  0  0  0  0  0  0  0
    4.7344   -0.1483    1.4380 C   0  0  0  0  0  0  0  0  0  0  0  0
    3.9099   -1.1660    1.7652 O   0  0  0  0  0  0  0  0  0  0  0  0
    5.9046   -0.1312    1.7912 O   0  0  0  0  0  0  0  0  0  0  0  0
   -4.4999   -1.9746   -2.5690 H   0  0  0  0  0  0  0  0  0  0  0  0
   -6.3649   -2.9053   -3.8819 H   0  0  0  0  0  0  0  0  0  0  0  0
   -6.0971   -3.3285   -6.3100 H   0  0  0  0  0  0  0  0  0  0  0  0
   -3.9874   -2.6815   -7.4330 H   0  0  0  0  0  0  0  0  0  0  0  0
   -2.1105   -1.7313   -6.1561 H   0  0  0  0  0  0  0  0  0  0  0  0
   -2.0757   -0.4868   -2.8405 H   0  0  0  0  0  0  0  0  0  0  0  0
   -2.0049   -2.2045   -2.5453 H   0  0  0  0  0  0  0  0  0  0  0  0
   -0.0045   -2.3231   -3.0532 H   0  0  0  0  0  0  0  0  0  0  0  0
   -0.4278   -2.2417   -4.7330 H   0  0  0  0  0  0  0  0  0  0  0  0
    1.5785   -1.1822   -4.2020 H   0  0  0  0  0  0  0  0  0  0  0  0
    1.3765    2.3984   -6.6907 H   0  0  0  0  0  0  0  0  0  0  0  0
    3.0968    2.0366   -6.5639 H   0  0  0  0  0  0  0  0  0  0  0  0
    1.1485    0.4483   -8.2968 H   0  0  0  0  0  0  0  0  0  0  0  0
    2.3632    1.6077   -8.8775 H   0  0  0  0  0  0  0  0  0  0  0  0
    2.8635    0.0906   -8.1034 H   0  0  0  0  0  0  0  0  0  0  0  0
    0.3238    0.8292   -2.4728 H   0  0  0  0  0  0  0  0  0  0  0  0
    1.1286   -1.2466   -1.3791 H   0  0  0  0  0  0  0  0  0  0  0  0
    3.8580   -0.2043   -2.2583 H   0  0  0  0  0  0  0  0  0  0  0  0
    3.5446   -1.4617   -1.0415 H   0  0  0  0  0  0  0  0  0  0  0  0
    3.1030   -1.7319   -2.7145 H   0  0  0  0  0  0  0  0  0  0  0  0
    1.4040    2.6406    1.0263 H   0  0  0  0  0  0  0  0  0  0  0  0
    3.1613    3.8371    1.7987 H   0  0  0  0  0  0  0  0  0  0  0  0
    4.5700    2.9978    0.2105 H   0  0  0  0  0  0  0  0  0  0  0  0
    5.4550    2.3433    1.5857 H   0  0  0  0  0  0  0  0  0  0  0  0
    4.4869    0.7643   -0.4716 H   0  0  0  0  0  0  0  0  0  0  0  0
    1.9379    0.2855    2.8770 H   0  0  0  0  0  0  0  0  0  0  0  0
    0.4542    1.2190    2.6840 H   0  0  0  0  0  0  0  0  0  0  0  0
    1.4185    3.1070    3.8977 H   0  0  0  0  0  0  0  0  0  0  0  0
    1.9584    1.6998    4.8375 H   0  0  0  0  0  0  0  0  0  0  0  0
    3.8402    3.3789    3.9886 H   0  0  0  0  0  0  0  0  0  0  0  0
    4.1102    1.6582    3.6729 H   0  0  0  0  0  0  0  0  0  0  0  0
    3.0095   -1.0209    1.4193 H   0  0  0  0  0  0  0  0  0  0  0  0
  1  2  2  0  0  0  0
  1 31  1  0  0  0  0
  2  3  1  0  0  0  0
  2 32  1  0  0  0  0
  3  4  2  0  0  0  0
  3 33  1  0  0  0  0
  4  5  1  0  0  0  0
  4 34  1  0  0  0  0
  5  6  2  0  0  0  0
  5 35  1  0  0  0  0
  6  1  1  0  0  0  0
  6  7  1  0  0  0  0
  7  8  1  0  0  0  0
  7 36  1  0  0  0  0
  7 37  1  0  0  0  0
  8 38  1  0  0  0  0
  8 39  1  0  0  0  0
  9  8  1  0  0  0  0
  9 10  1  0  0  0  0
  9 15  1  0  0  0  0
  9 40  1  6  0  0  0
 10 11  2  0  0  0  0
 10 12  1  0  0  0  0
 12 13  1  0  0  0  0
 13 14  1  0  0  0  0
 13 41  1  0  0  0  0
 13 42  1  0  0  0  0
 14 43  1  0  0  0  0
 14 44  1  0  0  0  0
 14 45  1  0  0  0  0
 15 46  1  0  0  0  0
 16 15  1  0  0  0  0
 16 47  1  1  0  0  0
 16 18  1  0  0  0  0
 16 17  1  0  0  0  0
 17 19  1  0  0  0  0
 17 20  2  0  0  0  0
 18 48  1  0  0  0  0
 18 49  1  0  0  0  0
 18 50  1  0  0  0  0
 21 22  1  0  0  0  0
 21 25  1  0  0  0  0
 21 19  1  0  0  0  0
 21 51  1  6  0  0  0
 22 23  1  0  0  0  0
 22 27  1  0  0  0  0
 22 52  1  6  0  0  0
 23 24  1  0  0  0  0
 23 53  1  0  0  0  0
 23 54  1  0  0  0  0
 24 19  1  0  0  0  0
 24 55  1  6  0  0  0
 24 28  1  0  0  0  0
 25 26  1  0  0  0  0
 25 56  1  0  0  0  0
 25 57  1  0  0  0  0
 26 27  1  0  0  0  0
 26 58  1  0  0  0  0
 26 59  1  0  0  0  0
 27 60  1  0  0  0  0
 27 61  1  0  0  0  0
 28 29  1  0  0  0  0
 28 30  2  0  0  0  0
 29 62  1  0  0  0  0
M  END
>  <Mol_ID>
443

>  <Formula>
C23H32N2O5

>  <MolWeight>
416.51058

>  <Cat>
S1793

>  <Name>
Ramipril

>  <Synonyms>
HOE-498

>  <Target>
ACE,RAAS

>  <Form>
free base

>  <CAS>
87333-19-5

>  <URL>
http://selleckchem.com/products/Ramipril(Altace).html

$$$$
