Altrenogest.cdx
 OpenBabel08302520323D

 49 52  0  0  0  0  0  0  0  0999 V2000
    4.0271    2.2854    1.9484 C   0  0  0  0  0  0  0  0  0  0  0  0
    3.7294    1.2434    0.9050 C   0  0  0  0  0  0  0  0  0  0  0  0
    3.7743    1.7146   -0.4968 C   0  0  0  0  0  0  0  0  0  0  0  0
    3.3131    2.9550   -0.7379 C   0  0  0  0  0  0  0  0  0  0  0  0
    2.6524    3.7120    0.3259 C   0  0  0  0  0  0  0  0  0  0  0  0
    3.1911    3.5420    1.7310 C   0  0  0  0  0  0  0  0  0  0  0  0
    3.1603    3.5283   -2.1167 C   0  0  0  0  0  0  0  0  0  0  0  0
    1.6806    3.4692   -2.4746 C   0  0  0  0  0  0  0  0  0  0  0  0
    0.7378    3.8850   -1.3136 C   0  0  2  0  0  0  0  0  0  0  0  0
    1.4062    4.1757    0.0479 C   0  0  0  0  0  0  0  0  0  0  0  0
   -0.2653    2.7971   -0.9091 C   0  0  1  0  0  0  0  0  0  0  0  0
   -1.4067    3.3790   -0.0140 C   0  0  2  0  0  0  0  0  0  0  0  0
   -0.7493    4.0122    1.2058 C   0  0  0  0  0  0  0  0  0  0  0  0
    0.5013    4.4990    1.1518 C   0  0  0  0  0  0  0  0  0  0  0  0
   -0.9733    1.8826   -1.8831 C   0  0  0  0  0  0  0  0  0  0  0  0
   -1.8307    1.0822   -0.8929 C   0  0  0  0  0  0  0  0  0  0  0  0
   -2.3897    2.1391    0.0985 C   0  0  1  0  0  0  0  0  0  0  0  0
    3.5218    0.0596    1.1580 O   0  0  0  0  0  0  0  0  0  0  0  0
   -2.5800    1.5830    1.5248 C   0  0  0  0  0  0  0  0  0  0  0  0
   -3.5527    0.4322    1.5786 C   0  0  0  0  0  0  0  0  0  0  0  0
   -3.2596   -0.8080    1.9790 C   0  0  0  0  0  0  0  0  0  0  0  0
   -2.1353    4.5930   -0.6561 C   0  0  0  0  0  0  0  0  0  0  0  0
   -3.7028    2.5072   -0.3802 O   0  0  0  0  0  0  0  0  0  0  0  0
    3.8390    1.8731    2.9445 H   0  0  0  0  0  0  0  0  0  0  0  0
    5.0952    2.5198    1.8807 H   0  0  0  0  0  0  0  0  0  0  0  0
    4.0954    1.0224   -1.2589 H   0  0  0  0  0  0  0  0  0  0  0  0
    3.7690    4.4297    2.0099 H   0  0  0  0  0  0  0  0  0  0  0  0
    2.3700    3.4755    2.4520 H   0  0  0  0  0  0  0  0  0  0  0  0
    3.5294    4.5537   -2.1390 H   0  0  0  0  0  0  0  0  0  0  0  0
    3.7440    2.9627   -2.8542 H   0  0  0  0  0  0  0  0  0  0  0  0
    1.4457    2.4599   -2.8280 H   0  0  0  0  0  0  0  0  0  0  0  0
    1.5054    4.1225   -3.3372 H   0  0  0  0  0  0  0  0  0  0  0  0
    0.2358    4.7964   -1.6644 H   0  0  0  0  0  0  0  0  0  0  0  0
    0.3161    2.0826   -0.2922 H   0  0  0  0  0  0  0  0  0  0  0  0
   -1.3536    4.1850    2.0931 H   0  0  0  0  0  0  0  0  0  0  0  0
    0.9089    5.0385    2.0114 H   0  0  0  0  0  0  0  0  0  0  0  0
   -0.3008    1.2179   -2.4272 H   0  0  0  0  0  0  0  0  0  0  0  0
   -1.5870    2.4382   -2.6124 H   0  0  0  0  0  0  0  0  0  0  0  0
   -2.6077    0.5122   -1.4120 H   0  0  0  0  0  0  0  0  0  0  0  0
   -1.1817    0.3642   -0.3647 H   0  0  0  0  0  0  0  0  0  0  0  0
   -2.9984    2.3705    2.1654 H   0  0  0  0  0  0  0  0  0  0  0  0
   -1.6144    1.2903    1.9543 H   0  0  0  0  0  0  0  0  0  0  0  0
   -4.5716    0.6558    1.2643 H   0  0  0  0  0  0  0  0  0  0  0  0
   -2.2666   -1.0915    2.3032 H   0  0  0  0  0  0  0  0  0  0  0  0
   -4.0281   -1.5840    1.9843 H   0  0  0  0  0  0  0  0  0  0  0  0
   -1.5206    5.4996   -0.6754 H   0  0  0  0  0  0  0  0  0  0  0  0
   -3.0248    4.8573   -0.0669 H   0  0  0  0  0  0  0  0  0  0  0  0
   -2.4457    4.3923   -1.6850 H   0  0  0  0  0  0  0  0  0  0  0  0
   -3.6735    2.5366   -1.3503 H   0  0  0  0  0  0  0  0  0  0  0  0
  1  2  1  0  0  0  0
  1 24  1  0  0  0  0
  1 25  1  0  0  0  0
  2  3  1  0  0  0  0
  2 18  2  0  0  0  0
  3  4  2  0  0  0  0
  3 26  1  0  0  0  0
  4  5  1  0  0  0  0
  4  7  1  0  0  0  0
  5  6  1  0  0  0  0
  6  1  1  0  0  0  0
  6 27  1  0  0  0  0
  6 28  1  0  0  0  0
  7  8  1  0  0  0  0
  7 29  1  0  0  0  0
  7 30  1  0  0  0  0
  8 31  1  0  0  0  0
  8 32  1  0  0  0  0
  9  8  1  0  0  0  0
  9 10  1  0  0  0  0
  9 11  1  0  0  0  0
  9 33  1  6  0  0  0
 10  5  2  0  0  0  0
 11 12  1  0  0  0  0
 11 15  1  0  0  0  0
 11 34  1  1  0  0  0
 12 13  1  0  0  0  0
 12 22  1  6  0  0  0
 13 14  2  0  0  0  0
 13 35  1  0  0  0  0
 14 10  1  0  0  0  0
 14 36  1  0  0  0  0
 15 16  1  0  0  0  0
 15 37  1  0  0  0  0
 15 38  1  0  0  0  0
 16 17  1  0  0  0  0
 16 39  1  0  0  0  0
 16 40  1  0  0  0  0
 17 12  1  0  0  0  0
 17 19  1  0  0  0  0
 17 23  1  6  0  0  0
 19 20  1  0  0  0  0
 19 41  1  0  0  0  0
 19 42  1  0  0  0  0
 20 21  2  0  0  0  0
 20 43  1  0  0  0  0
 21 44  1  0  0  0  0
 21 45  1  0  0  0  0
 22 46  1  0  0  0  0
 22 47  1  0  0  0  0
 22 48  1  0  0  0  0
 23 49  1  0  0  0  0
M  END
>  <Mol_ID>
337

>  <Formula>
C21H26O2

>  <MolWeight>
310.42994

>  <Cat>
S3167

>  <Name>
Altrenogest

>  <Synonyms>
A35957, RU2267,R2267

>  <Target>
Estrogen/progestogen Receptor

>  <Form>
free base

>  <CAS>
850-52-2

>  <URL>
http://selleckchem.com/products/altrenogest.html

$$$$
