Altretamine.cdx
 OpenBabel08302522043D

 33 33  0  0  0  0  0  0  0  0999 V2000
   -0.5529   -1.2190   -0.0194 N   0  0  0  0  0  0  0  0  0  0  0  0
   -1.3023   -0.1233   -0.0236 C   0  0  0  0  0  0  0  0  0  0  0  0
   -0.7844    1.0978    0.0168 N   0  0  0  0  0  0  0  0  0  0  0  0
    0.5369    1.1997    0.0503 C   0  0  0  0  0  0  0  0  0  0  0  0
    1.3359    0.1404    0.0459 N   0  0  0  0  0  0  0  0  0  0  0  0
    0.7644   -1.0559    0.0135 C   0  0  0  0  0  0  0  0  0  0  0  0
    1.5700   -2.1762   -0.0009 N   0  0  0  0  0  0  0  0  0  0  0  0
    3.0101   -2.0675    0.0552 C   0  0  0  0  0  0  0  0  0  0  0  0
    0.9533   -3.4832    0.0696 C   0  0  0  0  0  0  0  0  0  0  0  0
    1.1113    2.4529    0.1070 N   0  0  0  0  0  0  0  0  0  0  0  0
    0.3051    3.6517    0.0658 C   0  0  0  0  0  0  0  0  0  0  0  0
    2.5517    2.5618    0.0235 C   0  0  0  0  0  0  0  0  0  0  0  0
   -2.6751   -0.2493   -0.0816 N   0  0  0  0  0  0  0  0  0  0  0  0
   -3.3181   -1.5429   -0.1069 C   0  0  0  0  0  0  0  0  0  0  0  0
   -3.4877    0.9492   -0.0184 C   0  0  0  0  0  0  0  0  0  0  0  0
    3.3893   -2.5178    0.9790 H   0  0  0  0  0  0  0  0  0  0  0  0
    3.4516   -2.6076   -0.7897 H   0  0  0  0  0  0  0  0  0  0  0  0
    3.3903   -1.0420    0.0100 H   0  0  0  0  0  0  0  0  0  0  0  0
    0.3470   -3.5910    0.9763 H   0  0  0  0  0  0  0  0  0  0  0  0
    0.3243   -3.6688   -0.8076 H   0  0  0  0  0  0  0  0  0  0  0  0
    1.7124   -4.2744    0.0939 H   0  0  0  0  0  0  0  0  0  0  0  0
    0.5629    4.2949    0.9146 H   0  0  0  0  0  0  0  0  0  0  0  0
    0.5033    4.2120   -0.8545 H   0  0  0  0  0  0  0  0  0  0  0  0
   -0.7738    3.4744    0.1184 H   0  0  0  0  0  0  0  0  0  0  0  0
    3.0305    2.0875    0.8871 H   0  0  0  0  0  0  0  0  0  0  0  0
    2.9361    2.1034   -0.8951 H   0  0  0  0  0  0  0  0  0  0  0  0
    2.8675    3.6114    0.0160 H   0  0  0  0  0  0  0  0  0  0  0  0
   -3.9444   -1.6694    0.7825 H   0  0  0  0  0  0  0  0  0  0  0  0
   -3.9646   -1.6148   -0.9877 H   0  0  0  0  0  0  0  0  0  0  0  0
   -2.6269   -2.3908   -0.1451 H   0  0  0  0  0  0  0  0  0  0  0  0
   -3.3089    1.5014    0.9104 H   0  0  0  0  0  0  0  0  0  0  0  0
   -3.2877    1.6059   -0.8704 H   0  0  0  0  0  0  0  0  0  0  0  0
   -4.5547    0.7001   -0.0466 H   0  0  0  0  0  0  0  0  0  0  0  0
  1  2  2  0  0  0  0
  2  3  1  0  0  0  0
  2 13  1  0  0  0  0
  3  4  2  0  0  0  0
  4  5  1  0  0  0  0
  4 10  1  0  0  0  0
  5  6  2  0  0  0  0
  6  1  1  0  0  0  0
  6  7  1  0  0  0  0
  7  8  1  0  0  0  0
  7  9  1  0  0  0  0
  8 16  1  0  0  0  0
  8 17  1  0  0  0  0
  8 18  1  0  0  0  0
  9 19  1  0  0  0  0
  9 20  1  0  0  0  0
  9 21  1  0  0  0  0
 10 11  1  0  0  0  0
 10 12  1  0  0  0  0
 11 22  1  0  0  0  0
 11 23  1  0  0  0  0
 11 24  1  0  0  0  0
 12 25  1  0  0  0  0
 12 26  1  0  0  0  0
 12 27  1  0  0  0  0
 13 14  1  0  0  0  0
 13 15  1  0  0  0  0
 14 28  1  0  0  0  0
 14 29  1  0  0  0  0
 14 30  1  0  0  0  0
 15 31  1  0  0  0  0
 15 32  1  0  0  0  0
 15 33  1  0  0  0  0
M  END
>  <Mol_ID>
151

>  <Formula>
C9H18N6

>  <MolWeight>
210.27942

>  <Cat>
S1278

>  <Name>
Altretamine

>  <Synonyms>
Hexamethylmelamine, NSC13875, ENT50852

>  <Target>
DNA alkylator

>  <Form>
free base

>  <CAS>
645-05-6

>  <URL>
http://selleckchem.com/products/Altretamine.html

$$$$
