ALVESCO (ciclesonide).cdx
 OpenBabel08302520303D

 31 33  0  0  0  0  0  0  0  0999 V2000
    1.8731    1.0772   -0.0176 C   0  0  0  0  0  0  0  0  0  0  0  0
    2.1962   -0.2956    0.0541 C   0  0  0  0  0  0  0  0  0  0  0  0
    1.1923   -1.2607    0.1252 C   0  0  0  0  0  0  0  0  0  0  0  0
   -0.1122   -0.8071    0.1053 C   0  0  0  0  0  0  0  0  0  0  0  0
   -0.4307    0.5374    0.0359 C   0  0  0  0  0  0  0  0  0  0  0  0
    0.5441    1.5248    0.0120 C   0  0  0  0  0  0  0  0  0  0  0  0
   -1.3598   -1.5622    0.1226 C   0  0  0  0  0  0  0  0  0  0  0  0
   -2.3785   -0.6526    0.0296 N   0  0  0  0  0  0  0  0  0  0  0  0
   -1.8940    0.6270    0.0016 C   0  0  0  0  0  0  0  0  0  0  0  0
    0.2571    2.8725   -0.2122 N   0  0  0  0  0  0  0  0  0  0  0  0
   -2.5149    1.6737   -0.0447 O   0  0  0  0  0  0  0  0  0  0  0  0
   -1.4230   -2.7714    0.2320 O   0  0  0  0  0  0  0  0  0  0  0  0
   -3.7803   -1.0490   -0.0369 C   0  0  3  0  0  0  0  0  0  0  0  0
   -4.3981   -0.5098   -1.3222 C   0  0  0  0  0  0  0  0  0  0  0  0
   -5.2795    0.5365   -1.1880 N   0  0  0  0  0  0  0  0  0  0  0  0
   -5.6178    1.2263   -0.0509 C   0  0  0  0  0  0  0  0  0  0  0  0
   -5.0768    0.7121    1.2632 C   0  0  0  0  0  0  0  0  0  0  0  0
   -4.6326   -0.7370    1.1886 C   0  0  0  0  0  0  0  0  0  0  0  0
   -4.0641   -0.9087   -2.4363 O   0  0  0  0  0  0  0  0  0  0  0  0
   -6.3169    2.2350   -0.1151 O   0  0  0  0  0  0  0  0  0  0  0  0
    2.6845    1.7963   -0.1143 H   0  0  0  0  0  0  0  0  0  0  0  0
    3.2407   -0.6019    0.0299 H   0  0  0  0  0  0  0  0  0  0  0  0
    1.4192   -2.3203    0.1664 H   0  0  0  0  0  0  0  0  0  0  0  0
   -0.6971    3.1453    0.0308 H   0  0  0  0  0  0  0  0  0  0  0  0
    0.9537    3.5311    0.1181 H   0  0  0  0  0  0  0  0  0  0  0  0
   -3.8007   -2.1418   -0.1449 H   0  0  0  0  0  0  0  0  0  0  0  0
   -5.6166    0.9370   -2.0526 H   0  0  0  0  0  0  0  0  0  0  0  0
   -5.8768    0.7965    2.0084 H   0  0  0  0  0  0  0  0  0  0  0  0
   -4.2618    1.3600    1.5944 H   0  0  0  0  0  0  0  0  0  0  0  0
   -5.5388   -1.3574    1.1345 H   0  0  0  0  0  0  0  0  0  0  0  0
   -4.1129   -1.0222    2.1098 H   0  0  0  0  0  0  0  0  0  0  0  0
  1  2  2  0  0  0  0
  1 21  1  0  0  0  0
  2  3  1  0  0  0  0
  2 22  1  0  0  0  0
  3  4  2  0  0  0  0
  3 23  1  0  0  0  0
  4  5  1  0  0  0  0
  4  7  1  0  0  0  0
  5  6  2  0  0  0  0
  6  1  1  0  0  0  0
  6 10  1  0  0  0  0
  7  8  1  0  0  0  0
  7 12  2  0  0  0  0
  8  9  1  0  0  0  0
  8 13  1  0  0  0  0
  9  5  1  0  0  0  0
  9 11  2  0  0  0  0
 10 24  1  0  0  0  0
 10 25  1  0  0  0  0
 13 14  1  0  0  0  0
 13 26  1  0  0  0  0
 14 15  1  0  0  0  0
 14 19  2  0  0  0  0
 15 16  1  0  0  0  0
 15 27  1  0  0  0  0
 16 17  1  0  0  0  0
 16 20  2  0  0  0  0
 17 18  1  0  0  0  0
 17 28  1  0  0  0  0
 17 29  1  0  0  0  0
 18 13  1  0  0  0  0
 18 30  1  0  0  0  0
 18 31  1  0  0  0  0
M  END
>  <Mol_ID>
328

>  <Formula>
C13H11N3O4

>  <MolWeight>
273.24414

>  <Cat>
S1567

>  <Name>
Pomalidomide (CC-4047)

>  <Synonyms>
CC-4047

>  <Target>
Apoptosis related,E3 Ligase ,E3 ligase Ligand,TNF-alpha

>  <Form>
free base

>  <CAS>
19171-19-8

>  <URL>
http://selleckchem.com/products/Pomalidomide(CC-4047).html

$$$$
