Alverine citrate.cdx
 OpenBabel08302521593D

 69 69  0  0  0  0  0  0  0  0999 V2000
    4.7086   -1.9925   -2.7263 C   0  0  0  0  0  0  0  0  0  0  0  0
    4.0546   -2.7079   -3.7501 C   0  0  0  0  0  0  0  0  0  0  0  0
    4.4203   -4.0128   -4.0816 C   0  0  0  0  0  0  0  0  0  0  0  0
    5.4661   -4.6458   -3.4012 C   0  0  0  0  0  0  0  0  0  0  0  0
    6.1046   -3.9690   -2.3677 C   0  0  0  0  0  0  0  0  0  0  0  0
    5.7338   -2.6548   -2.0355 C   0  0  0  0  0  0  0  0  0  0  0  0
    4.0166    1.5617   -1.0186 C   0  0  0  0  0  0  0  0  0  0  0  0
    4.3503    0.0394   -1.0724 C   0  0  0  0  0  0  0  0  0  0  0  0
    4.4157   -0.5105   -2.5205 C   0  0  0  0  0  0  0  0  0  0  0  0
    3.9349    2.1324    0.3565 N   0  0  0  0  0  0  0  0  0  0  0  0
    5.2599    2.2725    0.9800 C   0  0  0  0  0  0  0  0  0  0  0  0
    5.4532    3.0495    2.3075 C   0  0  0  0  0  0  0  0  0  0  0  0
    4.5848    2.6334    3.5089 C   0  0  0  0  0  0  0  0  0  0  0  0
    4.8394    3.4132    4.7972 C   0  0  0  0  0  0  0  0  0  0  0  0
    3.7743    3.6220    5.6914 C   0  0  0  0  0  0  0  0  0  0  0  0
    3.9624    4.3018    6.9015 C   0  0  0  0  0  0  0  0  0  0  0  0
    5.2248    4.7744    7.2440 C   0  0  0  0  0  0  0  0  0  0  0  0
    6.2972    4.5647    6.3817 C   0  0  0  0  0  0  0  0  0  0  0  0
    6.1078    3.8817    5.1727 C   0  0  0  0  0  0  0  0  0  0  0  0
    3.0501    3.3050    0.4520 C   0  0  0  0  0  0  0  0  0  0  0  0
    3.2328    4.4771   -0.5065 C   0  0  0  0  0  0  0  0  0  0  0  0
    0.1845   -0.3052    0.0781 C   0  0  0  0  0  0  0  0  0  0  0  0
   -0.1359   -0.1245   -1.4045 C   0  0  0  0  0  0  0  0  0  0  0  0
    0.5102   -0.9860   -2.4796 C   0  0  0  0  0  0  0  0  0  0  0  0
   -0.0355   -1.6018    0.8060 C   0  0  0  0  0  0  0  0  0  0  0  0
   -1.0556   -2.2651    0.8476 O   0  0  0  0  0  0  0  0  0  0  0  0
    1.0082   -1.8811    1.6233 O   0  0  0  0  0  0  0  0  0  0  0  0
   -1.5969    0.1502   -1.7531 C   0  0  0  0  0  0  0  0  0  0  0  0
   -1.9786    1.1386   -2.3800 O   0  0  0  0  0  0  0  0  0  0  0  0
   -2.4662   -0.8070   -1.4230 O   0  0  0  0  0  0  0  0  0  0  0  0
    0.2244   -2.4520   -2.5334 C   0  0  0  0  0  0  0  0  0  0  0  0
    0.6169   -3.2950   -1.7475 O   0  0  0  0  0  0  0  0  0  0  0  0
   -0.4034   -2.8027   -3.6758 O   0  0  0  0  0  0  0  0  0  0  0  0
    0.4864    1.2008   -1.6617 O   0  0  0  0  0  0  0  0  0  0  0  0
    3.2536   -2.2444   -4.3248 H   0  0  0  0  0  0  0  0  0  0  0  0
    3.9206   -4.5474   -4.8914 H   0  0  0  0  0  0  0  0  0  0  0  0
    5.7760   -5.6532   -3.6800 H   0  0  0  0  0  0  0  0  0  0  0  0
    6.9201   -4.4558   -1.8334 H   0  0  0  0  0  0  0  0  0  0  0  0
    6.2854   -2.1507   -1.2453 H   0  0  0  0  0  0  0  0  0  0  0  0
    4.7512    2.1199   -1.6158 H   0  0  0  0  0  0  0  0  0  0  0  0
    3.0531    1.6980   -1.5236 H   0  0  0  0  0  0  0  0  0  0  0  0
    3.5866   -0.5117   -0.5105 H   0  0  0  0  0  0  0  0  0  0  0  0
    5.3096   -0.1410   -0.5810 H   0  0  0  0  0  0  0  0  0  0  0  0
    5.1900    0.0333   -3.0754 H   0  0  0  0  0  0  0  0  0  0  0  0
    3.4744   -0.2722   -3.0268 H   0  0  0  0  0  0  0  0  0  0  0  0
    5.6405    1.2600    1.1614 H   0  0  0  0  0  0  0  0  0  0  0  0
    5.9489    2.7353    0.2604 H   0  0  0  0  0  0  0  0  0  0  0  0
    6.5062    2.8974    2.5804 H   0  0  0  0  0  0  0  0  0  0  0  0
    5.3433    4.1248    2.1250 H   0  0  0  0  0  0  0  0  0  0  0  0
    3.5293    2.7644    3.2510 H   0  0  0  0  0  0  0  0  0  0  0  0
    4.7245    1.5678    3.7236 H   0  0  0  0  0  0  0  0  0  0  0  0
    2.7788    3.2519    5.4533 H   0  0  0  0  0  0  0  0  0  0  0  0
    3.1240    4.4550    7.5763 H   0  0  0  0  0  0  0  0  0  0  0  0
    5.3745    5.3019    8.1839 H   0  0  0  0  0  0  0  0  0  0  0  0
    7.2874    4.9240    6.6527 H   0  0  0  0  0  0  0  0  0  0  0  0
    6.9760    3.7227    4.5400 H   0  0  0  0  0  0  0  0  0  0  0  0
    2.0202    2.9431    0.3416 H   0  0  0  0  0  0  0  0  0  0  0  0
    3.0721    3.7222    1.4619 H   0  0  0  0  0  0  0  0  0  0  0  0
    3.0837    4.1856   -1.5494 H   0  0  0  0  0  0  0  0  0  0  0  0
    2.4759    5.2405   -0.2785 H   0  0  0  0  0  0  0  0  0  0  0  0
    4.2128    4.9490   -0.3975 H   0  0  0  0  0  0  0  0  0  0  0  0
   -0.3644    0.4489    0.6601 H   0  0  0  0  0  0  0  0  0  0  0  0
    1.2426   -0.0462    0.2210 H   0  0  0  0  0  0  0  0  0  0  0  0
    0.2518   -0.5663   -3.4645 H   0  0  0  0  0  0  0  0  0  0  0  0
    1.5946   -0.8870   -2.4310 H   0  0  0  0  0  0  0  0  0  0  0  0
    0.7365   -2.6469    2.1699 H   0  0  0  0  0  0  0  0  0  0  0  0
   -3.3257   -0.4879   -1.7534 H   0  0  0  0  0  0  0  0  0  0  0  0
   -0.3724   -3.7831   -3.6926 H   0  0  0  0  0  0  0  0  0  0  0  0
   -0.0440    1.6385   -2.3589 H   0  0  0  0  0  0  0  0  0  0  0  0
  1  2  2  0  0  0  0
  1  6  1  0  0  0  0
  1  9  1  0  0  0  0
  2  3  1  0  0  0  0
  2 35  1  0  0  0  0
  3  4  2  0  0  0  0
  3 36  1  0  0  0  0
  4  5  1  0  0  0  0
  4 37  1  0  0  0  0
  5  6  2  0  0  0  0
  5 38  1  0  0  0  0
  6 39  1  0  0  0  0
  7  8  1  0  0  0  0
  7 10  1  0  0  0  0
  7 40  1  0  0  0  0
  7 41  1  0  0  0  0
  8  9  1  0  0  0  0
  8 42  1  0  0  0  0
  8 43  1  0  0  0  0
  9 44  1  0  0  0  0
  9 45  1  0  0  0  0
 10 11  1  0  0  0  0
 10 20  1  0  0  0  0
 11 12  1  0  0  0  0
 11 46  1  0  0  0  0
 11 47  1  0  0  0  0
 12 13  1  0  0  0  0
 12 48  1  0  0  0  0
 12 49  1  0  0  0  0
 13 14  1  0  0  0  0
 13 50  1  0  0  0  0
 13 51  1  0  0  0  0
 14 15  2  0  0  0  0
 14 19  1  0  0  0  0
 15 16  1  0  0  0  0
 15 52  1  0  0  0  0
 16 17  2  0  0  0  0
 16 53  1  0  0  0  0
 17 18  1  0  0  0  0
 17 54  1  0  0  0  0
 18 19  2  0  0  0  0
 18 55  1  0  0  0  0
 19 56  1  0  0  0  0
 20 21  1  0  0  0  0
 20 57  1  0  0  0  0
 20 58  1  0  0  0  0
 21 59  1  0  0  0  0
 21 60  1  0  0  0  0
 21 61  1  0  0  0  0
 22 23  1  0  0  0  0
 22 25  1  0  0  0  0
 22 62  1  0  0  0  0
 22 63  1  0  0  0  0
 23 24  1  0  0  0  0
 23 28  1  0  0  0  0
 23 34  1  0  0  0  0
 24 31  1  0  0  0  0
 24 64  1  0  0  0  0
 24 65  1  0  0  0  0
 25 26  2  0  0  0  0
 25 27  1  0  0  0  0
 27 66  1  0  0  0  0
 28 29  2  0  0  0  0
 28 30  1  0  0  0  0
 30 67  1  0  0  0  0
 31 32  2  0  0  0  0
 31 33  1  0  0  0  0
 33 68  1  0  0  0  0
 34 69  1  0  0  0  0
M  END
>  <Mol_ID>
1033

>  <Formula>
C26H35NO7

>  <MolWeight>
473.5586

>  <Cat>
S3054

>  <Name>
Alverine Citrate

>  <Synonyms>
NSC 35459

>  <Target>
5-HT Receptor

>  <Form>
Citrate

>  <CAS>
5560-59-8

>  <URL>
http://selleckchem.com/products/alverine-citrate.html

$$$$
