Alverine
 OpenBabel08302521313D

 48 49  0  0  0  0  0  0  0  0999 V2000
    6.7259    2.2487   -3.6469 C   0  0  0  0  0  0  0  0  0  0  0  0
    5.9101    1.9437   -2.3951 C   0  0  0  0  0  0  0  0  0  0  0  0
    8.0039    2.8235   -3.4964 C   0  0  0  0  0  0  0  0  0  0  0  0
    6.3260    1.8739   -4.9381 C   0  0  0  0  0  0  0  0  0  0  0  0
    4.3813    2.0873   -2.4898 C   0  0  0  0  0  0  0  0  0  0  0  0
    8.8448    3.0167   -4.5955 C   0  0  0  0  0  0  0  0  0  0  0  0
    7.1748    2.0652   -6.0393 C   0  0  0  0  0  0  0  0  0  0  0  0
    3.6335    1.6273   -1.2153 C   0  0  0  0  0  0  0  0  0  0  0  0
    8.4351    2.6321   -5.8680 C   0  0  0  0  0  0  0  0  0  0  0  0
    3.9542    2.3468    0.0271 N   0  0  0  0  0  0  0  0  0  0  0  0
    3.4873    3.7438    0.0877 C   0  0  0  0  0  0  0  0  0  0  0  0
    3.6318    1.5736    1.2349 C   0  0  0  0  0  0  0  0  0  0  0  0
    2.0609    4.1735   -0.3282 C   0  0  0  0  0  0  0  0  0  0  0  0
    4.6693    0.4813    1.5173 C   0  0  0  0  0  0  0  0  0  0  0  0
    0.8932    3.6946    0.5426 C   0  0  0  0  0  0  0  0  0  0  0  0
   -0.4368    4.2744    0.0789 C   0  0  0  0  0  0  0  0  0  0  0  0
   -1.1957    3.6114   -0.8971 C   0  0  0  0  0  0  0  0  0  0  0  0
   -0.9298    5.4841    0.5949 C   0  0  0  0  0  0  0  0  0  0  0  0
   -2.4182    4.1336   -1.3380 C   0  0  0  0  0  0  0  0  0  0  0  0
   -2.1501    6.0028    0.1514 C   0  0  0  0  0  0  0  0  0  0  0  0
   -2.8970    5.3308   -0.8128 C   0  0  0  0  0  0  0  0  0  0  0  0
    6.1630    0.9182   -2.0978 H   0  0  0  0  0  0  0  0  0  0  0  0
    6.2600    2.6021   -1.5893 H   0  0  0  0  0  0  0  0  0  0  0  0
    8.3582    3.1081   -2.5096 H   0  0  0  0  0  0  0  0  0  0  0  0
    5.3641    1.4021   -5.1095 H   0  0  0  0  0  0  0  0  0  0  0  0
    4.1134    3.1188   -2.7397 H   0  0  0  0  0  0  0  0  0  0  0  0
    4.0105    1.4616   -3.3114 H   0  0  0  0  0  0  0  0  0  0  0  0
    9.8313    3.4511   -4.4507 H   0  0  0  0  0  0  0  0  0  0  0  0
    6.8560    1.7550   -7.0326 H   0  0  0  0  0  0  0  0  0  0  0  0
    2.5530    1.6582   -1.4001 H   0  0  0  0  0  0  0  0  0  0  0  0
    3.8673    0.5621   -1.0987 H   0  0  0  0  0  0  0  0  0  0  0  0
    9.0994    2.7618   -6.7182 H   0  0  0  0  0  0  0  0  0  0  0  0
    3.6897    4.1485    1.0886 H   0  0  0  0  0  0  0  0  0  0  0  0
    4.1693    4.3101   -0.5608 H   0  0  0  0  0  0  0  0  0  0  0  0
    3.6312    2.2211    2.1215 H   0  0  0  0  0  0  0  0  0  0  0  0
    2.6310    1.1336    1.1673 H   0  0  0  0  0  0  0  0  0  0  0  0
    2.0546    5.2732   -0.3084 H   0  0  0  0  0  0  0  0  0  0  0  0
    1.8823    3.9024   -1.3744 H   0  0  0  0  0  0  0  0  0  0  0  0
    5.5861    0.9137    1.9342 H   0  0  0  0  0  0  0  0  0  0  0  0
    4.2752   -0.2300    2.2515 H   0  0  0  0  0  0  0  0  0  0  0  0
    4.9492   -0.0919    0.6289 H   0  0  0  0  0  0  0  0  0  0  0  0
    0.8229    2.6017    0.5237 H   0  0  0  0  0  0  0  0  0  0  0  0
    1.0551    3.9743    1.5908 H   0  0  0  0  0  0  0  0  0  0  0  0
   -0.8409    2.6770   -1.3232 H   0  0  0  0  0  0  0  0  0  0  0  0
   -0.3690    6.0322    1.3488 H   0  0  0  0  0  0  0  0  0  0  0  0
   -2.9959    3.6042   -2.0915 H   0  0  0  0  0  0  0  0  0  0  0  0
   -2.5266    6.9426    0.5609 H   0  0  0  0  0  0  0  0  0  0  0  0
   -3.8465    5.7388   -1.1519 H   0  0  0  0  0  0  0  0  0  0  0  0
  1  2  1  0  0  0  0
  1  3  2  0  0  0  0
  1  4  1  0  0  0  0
  2  5  1  0  0  0  0
  2 22  1  0  0  0  0
  2 23  1  0  0  0  0
  3  6  1  0  0  0  0
  3 24  1  0  0  0  0
  4  7  2  0  0  0  0
  4 25  1  0  0  0  0
  5  8  1  0  0  0  0
  5 26  1  0  0  0  0
  5 27  1  0  0  0  0
  6  9  2  0  0  0  0
  6 28  1  0  0  0  0
  7  9  1  0  0  0  0
  7 29  1  0  0  0  0
  8 10  1  0  0  0  0
  8 30  1  0  0  0  0
  8 31  1  0  0  0  0
  9 32  1  0  0  0  0
 10 11  1  0  0  0  0
 10 12  1  0  0  0  0
 11 13  1  0  0  0  0
 11 33  1  0  0  0  0
 11 34  1  0  0  0  0
 12 14  1  0  0  0  0
 12 35  1  0  0  0  0
 12 36  1  0  0  0  0
 13 15  1  0  0  0  0
 13 37  1  0  0  0  0
 13 38  1  0  0  0  0
 14 39  1  0  0  0  0
 14 40  1  0  0  0  0
 14 41  1  0  0  0  0
 15 16  1  0  0  0  0
 15 42  1  0  0  0  0
 15 43  1  0  0  0  0
 16 17  2  0  0  0  0
 16 18  1  0  0  0  0
 17 19  1  0  0  0  0
 17 44  1  0  0  0  0
 18 20  2  0  0  0  0
 18 45  1  0  0  0  0
 19 21  2  0  0  0  0
 19 46  1  0  0  0  0
 20 21  1  0  0  0  0
 20 47  1  0  0  0  0
 21 48  1  0  0  0  0
M  END
>  <Mol_ID>
5799

>  <Formula>
C20H27N

>  <MolWeight>
281.43508

>  <Cat>
S5945

>  <Name>
Alverine

>  <Synonyms>
N/A

>  <Target>
Others

>  <Form>
Free Base

>  <CAS>
150-59-4

>  <URL>
http://www.selleckchem.com/products/alverine.html

$$$$
