Alvimopan
 OpenBabel08302520143D

 63 65  0  0  0  0  0  0  0  0999 V2000
   -0.1881   -2.7801   -4.1100 C   0  0  0  0  0  0  0  0  0  0  0  0
   -0.6914   -1.7068   -5.0633 C   0  0  0  0  0  0  0  0  0  0  0  0
   -0.6283   -2.9546   -2.9724 O   0  0  0  0  0  0  0  0  0  0  0  0
    0.8085   -3.5368   -4.6233 O   0  0  0  0  0  0  0  0  0  0  0  0
   -1.7525   -0.8905   -4.4927 N   0  0  0  0  0  0  0  0  0  0  0  0
   -2.3484    0.0830   -5.2486 C   0  0  0  0  0  0  0  0  0  0  0  0
   -3.5838    0.7849   -4.6800 C   0  0  1  0  0  0  0  0  0  0  0  0
   -4.7087   -0.2365   -4.3881 C   0  0  0  0  0  0  0  0  0  0  0  0
   -1.9498    0.3271   -6.3962 O   0  0  0  0  0  0  0  0  0  0  0  0
   -5.2806   -1.0019   -5.5737 C   0  0  0  0  0  0  0  0  0  0  0  0
   -5.8200   -2.2856   -5.3823 C   0  0  0  0  0  0  0  0  0  0  0  0
   -6.4712   -2.9565   -6.4284 C   0  0  0  0  0  0  0  0  0  0  0  0
   -6.5955   -2.3555   -7.6781 C   0  0  0  0  0  0  0  0  0  0  0  0
   -6.0570   -1.0927   -7.8875 C   0  0  0  0  0  0  0  0  0  0  0  0
   -5.4158   -0.4192   -6.8424 C   0  0  0  0  0  0  0  0  0  0  0  0
   -3.3617    1.7309   -3.4587 C   0  0  0  0  0  0  0  0  0  0  0  0
   -2.4435    2.8678   -3.6372 N   0  0  0  0  0  0  0  0  0  0  0  0
   -2.2448    3.6925   -2.4270 C   0  0  0  0  0  0  0  0  0  0  0  0
   -3.1598    4.9312   -2.2218 C   0  0  1  0  0  0  0  0  0  0  0  0
   -3.2074    5.8165   -3.5066 C   0  0  1  0  0  0  0  0  0  0  0  0
   -3.5944    4.8784   -4.6806 C   0  0  0  0  0  0  0  0  0  0  0  0
   -2.6529    3.6788   -4.8398 C   0  0  0  0  0  0  0  0  0  0  0  0
   -4.5581    4.5473   -1.7039 C   0  0  0  0  0  0  0  0  0  0  0  0
   -4.1732    7.0078   -3.2999 C   0  0  0  0  0  0  0  0  0  0  0  0
   -3.9283    7.9370   -2.2632 C   0  0  0  0  0  0  0  0  0  0  0  0
   -4.7978    9.0042   -2.0375 C   0  0  0  0  0  0  0  0  0  0  0  0
   -5.9215    9.1764   -2.8246 C   0  0  0  0  0  0  0  0  0  0  0  0
   -6.1937    8.2641   -3.8403 C   0  0  0  0  0  0  0  0  0  0  0  0
   -5.3313    7.1898   -4.0748 C   0  0  0  0  0  0  0  0  0  0  0  0
   -4.5738    9.8972   -1.0322 O   0  0  0  0  0  0  0  0  0  0  0  0
   -1.8056    6.4308   -3.7853 C   0  0  0  0  0  0  0  0  0  0  0  0
    0.1430   -1.0488   -5.3217 H   0  0  0  0  0  0  0  0  0  0  0  0
   -1.0744   -2.1932   -5.9689 H   0  0  0  0  0  0  0  0  0  0  0  0
    1.0698   -3.2891   -5.5359 H   0  0  0  0  0  0  0  0  0  0  0  0
   -1.9513   -0.9915   -3.5034 H   0  0  0  0  0  0  0  0  0  0  0  0
   -3.9599    1.4139   -5.4859 H   0  0  0  0  0  0  0  0  0  0  0  0
   -4.3679   -0.9476   -3.6248 H   0  0  0  0  0  0  0  0  0  0  0  0
   -5.5560    0.3083   -3.9554 H   0  0  0  0  0  0  0  0  0  0  0  0
   -5.7613   -2.7703   -4.4102 H   0  0  0  0  0  0  0  0  0  0  0  0
   -6.9041   -3.9385   -6.2574 H   0  0  0  0  0  0  0  0  0  0  0  0
   -7.1251   -2.8614   -8.4824 H   0  0  0  0  0  0  0  0  0  0  0  0
   -6.1554   -0.6102   -8.8561 H   0  0  0  0  0  0  0  0  0  0  0  0
   -5.0459    0.5806   -7.0467 H   0  0  0  0  0  0  0  0  0  0  0  0
   -4.3446    2.1280   -3.1950 H   0  0  0  0  0  0  0  0  0  0  0  0
   -3.0298    1.1353   -2.5985 H   0  0  0  0  0  0  0  0  0  0  0  0
   -2.2654    3.0761   -1.5198 H   0  0  0  0  0  0  0  0  0  0  0  0
   -1.2103    4.0599   -2.4706 H   0  0  0  0  0  0  0  0  0  0  0  0
   -2.7010    5.5209   -1.4146 H   0  0  0  0  0  0  0  0  0  0  0  0
   -4.6144    4.4934   -4.5481 H   0  0  0  0  0  0  0  0  0  0  0  0
   -3.5998    5.4361   -5.6265 H   0  0  0  0  0  0  0  0  0  0  0  0
   -1.6752    4.0246   -5.1899 H   0  0  0  0  0  0  0  0  0  0  0  0
   -3.0129    3.0863   -5.6814 H   0  0  0  0  0  0  0  0  0  0  0  0
   -4.4769    4.0492   -0.7338 H   0  0  0  0  0  0  0  0  0  0  0  0
   -5.1914    5.4265   -1.5412 H   0  0  0  0  0  0  0  0  0  0  0  0
   -5.1023    3.8951   -2.3873 H   0  0  0  0  0  0  0  0  0  0  0  0
   -3.0653    7.8148   -1.6176 H   0  0  0  0  0  0  0  0  0  0  0  0
   -6.5906   10.0127   -2.6424 H   0  0  0  0  0  0  0  0  0  0  0  0
   -7.0865    8.3845   -4.4495 H   0  0  0  0  0  0  0  0  0  0  0  0
   -5.6008    6.4950   -4.8646 H   0  0  0  0  0  0  0  0  0  0  0  0
   -3.7735    9.6315   -0.5509 H   0  0  0  0  0  0  0  0  0  0  0  0
   -1.0392    5.6815   -3.9980 H   0  0  0  0  0  0  0  0  0  0  0  0
   -1.8375    7.1148   -4.6416 H   0  0  0  0  0  0  0  0  0  0  0  0
   -1.4330    6.9989   -2.9253 H   0  0  0  0  0  0  0  0  0  0  0  0
  1  2  1  0  0  0  0
  1  3  2  0  0  0  0
  1  4  1  0  0  0  0
  2  5  1  0  0  0  0
  2 32  1  0  0  0  0
  2 33  1  0  0  0  0
  4 34  1  0  0  0  0
  5  6  1  0  0  0  0
  5 35  1  0  0  0  0
  6  7  1  0  0  0  0
  6  9  2  0  0  0  0
  7  8  1  0  0  0  0
  7 16  1  0  0  0  0
  7 36  1  6  0  0  0
  8 10  1  0  0  0  0
  8 37  1  0  0  0  0
  8 38  1  0  0  0  0
 10 11  2  0  0  0  0
 10 15  1  0  0  0  0
 11 12  1  0  0  0  0
 11 39  1  0  0  0  0
 12 13  2  0  0  0  0
 12 40  1  0  0  0  0
 13 14  1  0  0  0  0
 13 41  1  0  0  0  0
 14 15  2  0  0  0  0
 14 42  1  0  0  0  0
 15 43  1  0  0  0  0
 16 17  1  0  0  0  0
 16 44  1  0  0  0  0
 16 45  1  0  0  0  0
 17 18  1  0  0  0  0
 17 22  1  0  0  0  0
 18 19  1  0  0  0  0
 18 46  1  0  0  0  0
 18 47  1  0  0  0  0
 19 20  1  0  0  0  0
 19 23  1  0  0  0  0
 19 48  1  1  0  0  0
 20 21  1  0  0  0  0
 20 24  1  0  0  0  0
 20 31  1  6  0  0  0
 21 22  1  0  0  0  0
 21 49  1  0  0  0  0
 21 50  1  0  0  0  0
 22 51  1  0  0  0  0
 22 52  1  0  0  0  0
 23 53  1  0  0  0  0
 23 54  1  0  0  0  0
 23 55  1  0  0  0  0
 24 25  2  0  0  0  0
 24 29  1  0  0  0  0
 25 26  1  0  0  0  0
 25 56  1  0  0  0  0
 26 27  2  0  0  0  0
 26 30  1  0  0  0  0
 27 28  1  0  0  0  0
 27 57  1  0  0  0  0
 28 29  2  0  0  0  0
 28 58  1  0  0  0  0
 29 59  1  0  0  0  0
 30 60  1  0  0  0  0
 31 61  1  0  0  0  0
 31 62  1  0  0  0  0
 31 63  1  0  0  0  0
M  END
>  <Mol_ID>
3194

>  <Formula>
C25H32N2O4

>  <MolWeight>
424.53258

>  <Cat>
S5935

>  <Name>
Alvimopan

>  <Synonyms>
LY 246736, ADL 8-2698

>  <Target>
Opioid Receptor

>  <Form>
Free Base

>  <CAS>
156053-89-3

>  <URL>
http://www.selleckchem.com/products/alvimopan.html

$$$$
