AM2394
 OpenBabel08302521323D

 56 58  0  0  0  0  0  0  0  0999 V2000
    0.8691    0.0447    0.1744 O   0  0  0  0  0  0  0  0  0  0  0  0
   -2.2883    3.2133    1.9910 N   0  0  0  0  0  0  0  0  0  0  0  0
   -2.9912    4.3960    2.0455 C   0  0  0  0  0  0  0  0  0  0  0  0
   -2.8075    5.2449    1.0014 N   0  0  0  0  0  0  0  0  0  0  0  0
   -3.7344    4.6221    2.9979 O   0  0  0  0  0  0  0  0  0  0  0  0
   -3.4373    6.5174    0.7998 C   0  0  0  0  0  0  0  0  0  0  0  0
    3.7311    1.8095   -5.5445 O   0  0  0  0  0  0  0  0  0  0  0  0
    3.5109    3.0144   -6.2969 C   0  0  0  0  0  0  0  0  0  0  0  0
    4.4508    3.1416   -7.5147 C   0  0  0  0  0  0  0  0  0  0  0  0
    5.9236    3.2356   -7.1119 C   0  0  0  0  0  0  0  0  0  0  0  0
    4.2464    1.9786   -8.4868 C   0  0  0  0  0  0  0  0  0  0  0  0
    4.1048    4.3603   -8.1943 O   0  0  0  0  0  0  0  0  0  0  0  0
    2.4358    0.6547    4.8760 C   0  0  0  0  0  0  0  0  0  0  0  0
    0.3849    2.0669   -1.0393 C   0  0  0  0  0  0  0  0  0  0  0  0
    0.1746    1.2387    0.0837 C   0  0  0  0  0  0  0  0  0  0  0  0
   -0.3070    3.2756   -0.9910 C   0  0  0  0  0  0  0  0  0  0  0  0
   -0.7738    1.5882    1.0735 C   0  0  0  0  0  0  0  0  0  0  0  0
   -1.1589    3.6552   -0.0230 N   0  0  0  0  0  0  0  0  0  0  0  0
   -1.3991    2.8125    0.9883 C   0  0  0  0  0  0  0  0  0  0  0  0
    1.2301    1.8000   -2.2208 C   0  0  0  0  0  0  0  0  0  0  0  0
    2.4605    1.1392   -2.1844 C   0  0  0  0  0  0  0  0  0  0  0  0
    0.8733    2.3115   -3.4779 C   0  0  0  0  0  0  0  0  0  0  0  0
    3.2712    1.0803   -3.3289 C   0  0  0  0  0  0  0  0  0  0  0  0
    1.6475    2.3120   -4.5849 N   0  0  0  0  0  0  0  0  0  0  0  0
    2.8551    1.7332   -4.4763 C   0  0  0  0  0  0  0  0  0  0  0  0
    1.2683   -0.4092    1.4130 C   0  0  0  0  0  0  0  0  0  0  0  0
    1.6656    0.4013    2.4799 C   0  0  0  0  0  0  0  0  0  0  0  0
    1.3188   -1.7833    1.5974 C   0  0  0  0  0  0  0  0  0  0  0  0
    2.0366   -0.1784    3.6986 C   0  0  0  0  0  0  0  0  0  0  0  0
    1.6769   -2.3814    2.7584 N   0  0  0  0  0  0  0  0  0  0  0  0
    2.0180   -1.5668    3.7825 C   0  0  0  0  0  0  0  0  0  0  0  0
   -2.4552    2.6089    2.7782 H   0  0  0  0  0  0  0  0  0  0  0  0
   -2.1499    4.9255    0.2972 H   0  0  0  0  0  0  0  0  0  0  0  0
   -2.6415    7.2631    0.7045 H   0  0  0  0  0  0  0  0  0  0  0  0
   -3.9817    6.4649   -0.1444 H   0  0  0  0  0  0  0  0  0  0  0  0
   -4.1069    6.7697    1.6204 H   0  0  0  0  0  0  0  0  0  0  0  0
    2.4794    3.0582   -6.6732 H   0  0  0  0  0  0  0  0  0  0  0  0
    3.6607    3.8841   -5.6411 H   0  0  0  0  0  0  0  0  0  0  0  0
    6.2678    2.3403   -6.5871 H   0  0  0  0  0  0  0  0  0  0  0  0
    6.5542    3.3749   -7.9996 H   0  0  0  0  0  0  0  0  0  0  0  0
    6.0995    4.1114   -6.4775 H   0  0  0  0  0  0  0  0  0  0  0  0
    3.2228    1.9742   -8.8781 H   0  0  0  0  0  0  0  0  0  0  0  0
    4.9080    2.0753   -9.3553 H   0  0  0  0  0  0  0  0  0  0  0  0
    4.4437    1.0121   -8.0124 H   0  0  0  0  0  0  0  0  0  0  0  0
    4.7952    4.5519   -8.8514 H   0  0  0  0  0  0  0  0  0  0  0  0
    1.7184    0.5324    5.6943 H   0  0  0  0  0  0  0  0  0  0  0  0
    3.4318    0.3641    5.2246 H   0  0  0  0  0  0  0  0  0  0  0  0
    2.4723    1.7185    4.6180 H   0  0  0  0  0  0  0  0  0  0  0  0
   -0.1869    4.0363   -1.7629 H   0  0  0  0  0  0  0  0  0  0  0  0
   -0.9933    0.9208    1.8955 H   0  0  0  0  0  0  0  0  0  0  0  0
    2.8339    0.7017   -1.2634 H   0  0  0  0  0  0  0  0  0  0  0  0
   -0.0898    2.7946   -3.6477 H   0  0  0  0  0  0  0  0  0  0  0  0
    4.2357    0.5821   -3.2997 H   0  0  0  0  0  0  0  0  0  0  0  0
    1.6799    1.4832    2.3817 H   0  0  0  0  0  0  0  0  0  0  0  0
    1.0579   -2.4646    0.7924 H   0  0  0  0  0  0  0  0  0  0  0  0
    2.2930   -2.0808    4.7002 H   0  0  0  0  0  0  0  0  0  0  0  0
  1 15  1  0  0  0  0
  1 26  1  0  0  0  0
  2  3  1  0  0  0  0
  2 19  1  0  0  0  0
  2 32  1  0  0  0  0
  3  4  1  0  0  0  0
  3  5  2  0  0  0  0
  4  6  1  0  0  0  0
  4 33  1  0  0  0  0
  6 34  1  0  0  0  0
  6 35  1  0  0  0  0
  6 36  1  0  0  0  0
  7  8  1  0  0  0  0
  7 25  1  0  0  0  0
  8  9  1  0  0  0  0
  8 37  1  0  0  0  0
  8 38  1  0  0  0  0
  9 10  1  0  0  0  0
  9 11  1  0  0  0  0
  9 12  1  0  0  0  0
 10 39  1  0  0  0  0
 10 40  1  0  0  0  0
 10 41  1  0  0  0  0
 11 42  1  0  0  0  0
 11 43  1  0  0  0  0
 11 44  1  0  0  0  0
 12 45  1  0  0  0  0
 13 29  1  0  0  0  0
 13 46  1  0  0  0  0
 13 47  1  0  0  0  0
 13 48  1  0  0  0  0
 14 15  1  0  0  0  0
 14 16  2  0  0  0  0
 14 20  1  0  0  0  0
 15 17  2  0  0  0  0
 16 18  1  0  0  0  0
 16 49  1  0  0  0  0
 17 19  1  0  0  0  0
 17 50  1  0  0  0  0
 18 19  2  0  0  0  0
 20 21  2  0  0  0  0
 20 22  1  0  0  0  0
 21 23  1  0  0  0  0
 21 51  1  0  0  0  0
 22 24  2  0  0  0  0
 22 52  1  0  0  0  0
 23 25  2  0  0  0  0
 23 53  1  0  0  0  0
 24 25  1  0  0  0  0
 26 27  2  0  0  0  0
 26 28  1  0  0  0  0
 27 29  1  0  0  0  0
 27 54  1  0  0  0  0
 28 30  2  0  0  0  0
 28 55  1  0  0  0  0
 29 31  2  0  0  0  0
 30 31  1  0  0  0  0
 31 56  1  0  0  0  0
M  END
>  <Mol_ID>
6218

>  <Formula>
C22H25N5O4

>  <MolWeight>
423.465

>  <Cat>
S3527

>  <Name>
AM2394

>  <Synonyms>
N/A

>  <Target>
Carbohydrate Metabolism

>  <Form>
free base

>  <CAS>
1442684-77-6

>  <URL>
http://www.selleckchem.com/products/am2394.html

$$$$
