AM580
 OpenBabel08302521223D

 51 53  0  0  0  0  0  0  0  0999 V2000
    0.7375    0.3190    0.0245 C   0  0  0  0  0  0  0  0  0  0  0  0
   -0.1091   -0.8057   -0.0378 C   0  0  0  0  0  0  0  0  0  0  0  0
    2.1328    0.1062    0.0064 C   0  0  0  0  0  0  0  0  0  0  0  0
    0.2147    1.7581    0.0828 C   0  0  0  0  0  0  0  0  0  0  0  0
   -1.6375   -0.6748   -0.1051 C   0  0  0  0  0  0  0  0  0  0  0  0
    0.4824   -2.0947   -0.0145 C   0  0  0  0  0  0  0  0  0  0  0  0
    2.7038   -1.1725   -0.0065 C   0  0  0  0  0  0  0  0  0  0  0  0
   -1.2935    1.8120    0.4109 C   0  0  0  0  0  0  0  0  0  0  0  0
    0.4981    2.4368   -1.2754 C   0  0  0  0  0  0  0  0  0  0  0  0
    0.9211    2.5740    1.1946 C   0  0  0  0  0  0  0  0  0  0  0  0
   -2.1031    0.7814   -0.3546 C   0  0  0  0  0  0  0  0  0  0  0  0
   -2.2011   -1.5075   -1.2812 C   0  0  0  0  0  0  0  0  0  0  0  0
   -2.2539   -1.2025    1.2094 C   0  0  0  0  0  0  0  0  0  0  0  0
    1.8735   -2.2816    0.0023 C   0  0  0  0  0  0  0  0  0  0  0  0
    4.1878   -1.2495    0.0448 C   0  0  0  0  0  0  0  0  0  0  0  0
    4.7933   -2.3017   -0.6303 N   0  0  0  0  0  0  0  0  0  0  0  0
    4.7688   -0.3422    0.6312 O   0  0  0  0  0  0  0  0  0  0  0  0
    6.1951   -2.4855   -0.7477 C   0  0  0  0  0  0  0  0  0  0  0  0
    7.1249   -1.8009    0.0427 C   0  0  0  0  0  0  0  0  0  0  0  0
    6.6707   -3.3970   -1.6980 C   0  0  0  0  0  0  0  0  0  0  0  0
    8.4991   -1.9844   -0.1355 C   0  0  0  0  0  0  0  0  0  0  0  0
    8.0507   -3.5849   -1.8837 C   0  0  0  0  0  0  0  0  0  0  0  0
    8.9685   -2.8608   -1.1119 C   0  0  0  0  0  0  0  0  0  0  0  0
   10.4393   -3.0171   -1.2478 C   0  0  0  0  0  0  0  0  0  0  0  0
   10.8491   -3.2711   -2.5085 O   0  0  0  0  0  0  0  0  0  0  0  0
   11.2092   -2.8874   -0.3118 O   0  0  0  0  0  0  0  0  0  0  0  0
    2.8075    0.9621    0.0041 H   0  0  0  0  0  0  0  0  0  0  0  0
   -0.1481   -2.9823    0.0094 H   0  0  0  0  0  0  0  0  0  0  0  0
   -1.4583    1.6618    1.4855 H   0  0  0  0  0  0  0  0  0  0  0  0
   -1.6864    2.8127    0.1841 H   0  0  0  0  0  0  0  0  0  0  0  0
    1.5737    2.4783   -1.4884 H   0  0  0  0  0  0  0  0  0  0  0  0
    0.0294    1.8982   -2.1062 H   0  0  0  0  0  0  0  0  0  0  0  0
    0.1297    3.4685   -1.2898 H   0  0  0  0  0  0  0  0  0  0  0  0
    0.7853    2.1014    2.1751 H   0  0  0  0  0  0  0  0  0  0  0  0
    1.9981    2.6776    1.0293 H   0  0  0  0  0  0  0  0  0  0  0  0
    0.5128    3.5898    1.2537 H   0  0  0  0  0  0  0  0  0  0  0  0
   -3.1611    0.8881   -0.0782 H   0  0  0  0  0  0  0  0  0  0  0  0
   -2.0533    1.0223   -1.4238 H   0  0  0  0  0  0  0  0  0  0  0  0
   -2.0311   -2.5816   -1.1572 H   0  0  0  0  0  0  0  0  0  0  0  0
   -3.2833   -1.3627   -1.3812 H   0  0  0  0  0  0  0  0  0  0  0  0
   -1.7359   -1.2090   -2.2288 H   0  0  0  0  0  0  0  0  0  0  0  0
   -3.3444   -1.0890    1.2106 H   0  0  0  0  0  0  0  0  0  0  0  0
   -2.0467   -2.2696    1.3543 H   0  0  0  0  0  0  0  0  0  0  0  0
   -1.8598   -0.6744    2.0846 H   0  0  0  0  0  0  0  0  0  0  0  0
    2.2707   -3.2902    0.0612 H   0  0  0  0  0  0  0  0  0  0  0  0
    4.2040   -2.8833   -1.2110 H   0  0  0  0  0  0  0  0  0  0  0  0
    6.8179   -1.1180    0.8293 H   0  0  0  0  0  0  0  0  0  0  0  0
    5.9789   -3.9671   -2.3134 H   0  0  0  0  0  0  0  0  0  0  0  0
    9.1955   -1.4361    0.4979 H   0  0  0  0  0  0  0  0  0  0  0  0
    8.3877   -4.3178   -2.6121 H   0  0  0  0  0  0  0  0  0  0  0  0
   10.1677   -3.1387   -3.1932 H   0  0  0  0  0  0  0  0  0  0  0  0
  1  2  1  0  0  0  0
  1  3  2  0  0  0  0
  1  4  1  0  0  0  0
  2  5  1  0  0  0  0
  2  6  2  0  0  0  0
  3  7  1  0  0  0  0
  3 27  1  0  0  0  0
  4  8  1  0  0  0  0
  4  9  1  0  0  0  0
  4 10  1  0  0  0  0
  5 11  1  0  0  0  0
  5 12  1  0  0  0  0
  5 13  1  0  0  0  0
  6 14  1  0  0  0  0
  6 28  1  0  0  0  0
  7 15  1  0  0  0  0
  7 14  2  0  0  0  0
  8 11  1  0  0  0  0
  8 29  1  0  0  0  0
  8 30  1  0  0  0  0
  9 31  1  0  0  0  0
  9 32  1  0  0  0  0
  9 33  1  0  0  0  0
 10 34  1  0  0  0  0
 10 35  1  0  0  0  0
 10 36  1  0  0  0  0
 11 37  1  0  0  0  0
 11 38  1  0  0  0  0
 12 39  1  0  0  0  0
 12 40  1  0  0  0  0
 12 41  1  0  0  0  0
 13 42  1  0  0  0  0
 13 43  1  0  0  0  0
 13 44  1  0  0  0  0
 14 45  1  0  0  0  0
 15 16  1  0  0  0  0
 15 17  2  0  0  0  0
 16 18  1  0  0  0  0
 16 46  1  0  0  0  0
 18 19  2  0  0  0  0
 18 20  1  0  0  0  0
 19 21  1  0  0  0  0
 19 47  1  0  0  0  0
 20 22  2  0  0  0  0
 20 48  1  0  0  0  0
 21 23  2  0  0  0  0
 21 49  1  0  0  0  0
 22 23  1  0  0  0  0
 22 50  1  0  0  0  0
 23 24  1  0  0  0  0
 24 25  1  0  0  0  0
 24 26  2  0  0  0  0
 25 51  1  0  0  0  0
M  END
>  <Mol_ID>
4707

>  <Formula>
C22H25NO3

>  <MolWeight>
351.4388

>  <Cat>
S2933

>  <Name>
AM580

>  <Synonyms>
N/A

>  <Target>
Retinoid Receptor

>  <Form>
Free Base

>  <CAS>
102121-60-8

>  <URL>
http://www.selleck.cn/products/am580.html

$$$$
