Amantadine HCl.cdx
 OpenBabel08302521373D

 28 30  0  0  0  0  0  0  0  0999 V2000
   -1.5139    0.2808    0.0984 C   0  0  3  0  0  0  0  0  0  0  0  0
   -0.7707    1.0315    1.2165 C   0  0  0  0  0  0  0  0  0  0  0  0
    0.7400    0.7569    1.1239 C   0  0  3  0  0  0  0  0  0  0  0  0
    0.9892   -0.7547    1.2618 C   0  0  0  0  0  0  0  0  0  0  0  0
    0.2555   -1.5152    0.1440 C   0  0  3  0  0  0  0  0  0  0  0  0
   -1.2526   -1.2283    0.2418 C   0  0  0  0  0  0  0  0  0  0  0  0
   -0.9895    0.7582   -1.2680 C   0  0  0  0  0  0  0  0  0  0  0  0
    0.7755   -1.0330   -1.2226 C   0  0  0  0  0  0  0  0  0  0  0  0
    0.5270    0.4832   -1.3801 C   0  0  3  0  0  0  0  0  0  0  0  0
    1.2588    1.2329   -0.2452 C   0  0  0  0  0  0  0  0  0  0  0  0
    1.0324    0.9342   -2.6755 N   0  0  0  0  0  0  0  0  0  0  0  0
   -2.5892    0.4786    0.1711 H   0  0  0  0  0  0  0  0  0  0  0  0
   -0.9615    2.1087    1.1355 H   0  0  0  0  0  0  0  0  0  0  0  0
   -1.1493    0.7139    2.1958 H   0  0  0  0  0  0  0  0  0  0  0  0
    1.2631    1.2926    1.9239 H   0  0  0  0  0  0  0  0  0  0  0  0
    2.0650   -0.9631    1.2129 H   0  0  0  0  0  0  0  0  0  0  0  0
    0.6416   -1.1033    2.2420 H   0  0  0  0  0  0  0  0  0  0  0  0
    0.4349   -2.5910    0.2490 H   0  0  0  0  0  0  0  0  0  0  0  0
   -1.6396   -1.5851    1.2042 H   0  0  0  0  0  0  0  0  0  0  0  0
   -1.7901   -1.7777   -0.5409 H   0  0  0  0  0  0  0  0  0  0  0  0
   -1.5337    0.2427   -2.0704 H   0  0  0  0  0  0  0  0  0  0  0  0
   -1.1953    1.8304   -1.3857 H   0  0  0  0  0  0  0  0  0  0  0  0
    0.2722   -1.5907   -2.0236 H   0  0  0  0  0  0  0  0  0  0  0  0
    1.8471   -1.2575   -1.3075 H   0  0  0  0  0  0  0  0  0  0  0  0
    2.3416    1.0611   -0.3073 H   0  0  0  0  0  0  0  0  0  0  0  0
    1.1056    2.3163   -0.3385 H   0  0  0  0  0  0  0  0  0  0  0  0
    0.5310    0.4609   -3.4264 H   0  0  0  0  0  0  0  0  0  0  0  0
    0.8440    1.9291   -2.7932 H   0  0  0  0  0  0  0  0  0  0  0  0
  1  2  1  0  0  0  0
  1  7  1  0  0  0  0
  1 12  1  0  0  0  0
  2  3  1  0  0  0  0
  2 13  1  0  0  0  0
  2 14  1  0  0  0  0
  3  4  1  0  0  0  0
  3 10  1  0  0  0  0
  3 15  1  0  0  0  0
  4  5  1  0  0  0  0
  4 16  1  0  0  0  0
  4 17  1  0  0  0  0
  5  6  1  0  0  0  0
  5  8  1  0  0  0  0
  5 18  1  0  0  0  0
  6  1  1  0  0  0  0
  6 19  1  0  0  0  0
  6 20  1  0  0  0  0
  7  9  1  0  0  0  0
  7 21  1  0  0  0  0
  7 22  1  0  0  0  0
  8 23  1  0  0  0  0
  8 24  1  0  0  0  0
  9  8  1  0  0  0  0
  9 11  1  0  0  0  0
 10  9  1  0  0  0  0
 10 25  1  0  0  0  0
 10 26  1  0  0  0  0
 11 27  1  0  0  0  0
 11 28  1  0  0  0  0
M  END
>  <Mol_ID>
733

>  <Formula>
C10H18ClN

>  <MolWeight>
187.70962

>  <Cat>
S2451

>  <Name>
Amantadine HCl

>  <Synonyms>
1-adamantanamine HCl

>  <Target>
Dopamine Receptor

>  <Form>
Hydrochloride

>  <CAS>
665-66-7

>  <URL>
http://selleckchem.com/products/Amantadine-hydrochloride(Symmetrel).html

$$$$
