Ambrisentan.cdx
 OpenBabel08302522023D

 50 52  0  0  0  0  0  0  0  0999 V2000
    1.0170   -0.2208    0.2032 C   0  0  2  0  0  0  0  0  0  0  0  0
    2.4251   -0.0513    0.3699 O   0  0  0  0  0  0  0  0  0  0  0  0
    2.8619    1.2539    0.4356 C   0  0  0  0  0  0  0  0  0  0  0  0
    0.4553   -0.4602    1.6157 C   0  0  0  0  0  0  0  0  0  0  0  0
   -0.7600   -1.0517    1.6894 O   0  0  0  0  0  0  0  0  0  0  0  0
    1.0089   -0.0727    2.6421 O   0  0  0  0  0  0  0  0  0  0  0  0
    0.6323   -1.3338   -0.8571 C   0  0  0  0  0  0  0  0  0  0  0  0
    1.2490   -1.2115   -2.2855 C   0  0  0  0  0  0  0  0  0  0  0  0
    0.9373   -2.7662   -0.3263 C   0  0  0  0  0  0  0  0  0  0  0  0
    2.4743   -0.5752   -2.5517 C   0  0  0  0  0  0  0  0  0  0  0  0
    2.9899   -0.4680   -3.8492 C   0  0  0  0  0  0  0  0  0  0  0  0
    2.3026   -1.0150   -4.9227 C   0  0  0  0  0  0  0  0  0  0  0  0
    1.1156   -1.6995   -4.6927 C   0  0  0  0  0  0  0  0  0  0  0  0
    0.6092   -1.8142   -3.3916 C   0  0  0  0  0  0  0  0  0  0  0  0
   -0.0603   -3.7651   -0.2711 C   0  0  0  0  0  0  0  0  0  0  0  0
    0.2242   -5.0568    0.1824 C   0  0  0  0  0  0  0  0  0  0  0  0
    1.5126   -5.3863    0.5835 C   0  0  0  0  0  0  0  0  0  0  0  0
    2.5171   -4.4228    0.5358 C   0  0  0  0  0  0  0  0  0  0  0  0
    2.2331   -3.1286    0.0832 C   0  0  0  0  0  0  0  0  0  0  0  0
   -0.8442   -1.2635   -0.9647 O   0  0  0  0  0  0  0  0  0  0  0  0
   -1.4176   -0.1150   -1.5962 C   0  0  0  0  0  0  0  0  0  0  0  0
    2.0004    2.2742    0.2965 N   0  0  0  0  0  0  0  0  0  0  0  0
    2.5348    3.5112    0.2208 C   0  0  0  0  0  0  0  0  0  0  0  0
    3.8989    3.7268    0.2567 C   0  0  0  0  0  0  0  0  0  0  0  0
    4.6990    2.6066    0.3578 C   0  0  0  0  0  0  0  0  0  0  0  0
    4.1942    1.3628    0.4391 N   0  0  0  0  0  0  0  0  0  0  0  0
    1.5974    4.6629    0.0077 C   0  0  0  0  0  0  0  0  0  0  0  0
    6.1898    2.7200    0.2726 C   0  0  0  0  0  0  0  0  0  0  0  0
    0.5486    0.7036   -0.1337 H   0  0  0  0  0  0  0  0  0  0  0  0
   -1.1082   -1.3676    0.8272 H   0  0  0  0  0  0  0  0  0  0  0  0
    3.0975   -0.1645   -1.7703 H   0  0  0  0  0  0  0  0  0  0  0  0
    3.9389    0.0385   -4.0091 H   0  0  0  0  0  0  0  0  0  0  0  0
    2.7026   -0.9239   -5.9290 H   0  0  0  0  0  0  0  0  0  0  0  0
    0.5829   -2.1480   -5.5275 H   0  0  0  0  0  0  0  0  0  0  0  0
   -0.3160   -2.3729   -3.2510 H   0  0  0  0  0  0  0  0  0  0  0  0
   -1.0811   -3.5584   -0.5854 H   0  0  0  0  0  0  0  0  0  0  0  0
   -0.5634   -5.8063    0.2177 H   0  0  0  0  0  0  0  0  0  0  0  0
    1.7376   -6.3916    0.9294 H   0  0  0  0  0  0  0  0  0  0  0  0
    3.5253   -4.6759    0.8509 H   0  0  0  0  0  0  0  0  0  0  0  0
    3.0530   -2.4149    0.0485 H   0  0  0  0  0  0  0  0  0  0  0  0
   -1.1787    0.8127   -1.0750 H   0  0  0  0  0  0  0  0  0  0  0  0
   -1.1376   -0.0322   -2.6476 H   0  0  0  0  0  0  0  0  0  0  0  0
   -2.5047   -0.2318   -1.5565 H   0  0  0  0  0  0  0  0  0  0  0  0
    4.3194    4.7223    0.1795 H   0  0  0  0  0  0  0  0  0  0  0  0
    1.7582    5.4394    0.7623 H   0  0  0  0  0  0  0  0  0  0  0  0
    1.7628    5.0922   -0.9864 H   0  0  0  0  0  0  0  0  0  0  0  0
    0.5540    4.3376    0.0672 H   0  0  0  0  0  0  0  0  0  0  0  0
    6.4781    2.9416   -0.7597 H   0  0  0  0  0  0  0  0  0  0  0  0
    6.5618    3.5097    0.9313 H   0  0  0  0  0  0  0  0  0  0  0  0
    6.6652    1.7782    0.5653 H   0  0  0  0  0  0  0  0  0  0  0  0
  1  2  1  0  0  0  0
  1  4  1  0  0  0  0
  1  7  1  0  0  0  0
  1 29  1  6  0  0  0
  2  3  1  0  0  0  0
  3 22  2  0  0  0  0
  4  5  1  0  0  0  0
  4  6  2  0  0  0  0
  5 30  1  0  0  0  0
  7  8  1  0  0  0  0
  7  9  1  0  0  0  0
  7 20  1  0  0  0  0
  8 10  2  0  0  0  0
  9 15  2  0  0  0  0
 10 11  1  0  0  0  0
 10 31  1  0  0  0  0
 11 12  2  0  0  0  0
 11 32  1  0  0  0  0
 12 13  1  0  0  0  0
 12 33  1  0  0  0  0
 13 14  2  0  0  0  0
 13 34  1  0  0  0  0
 14  8  1  0  0  0  0
 14 35  1  0  0  0  0
 15 16  1  0  0  0  0
 15 36  1  0  0  0  0
 16 17  2  0  0  0  0
 16 37  1  0  0  0  0
 17 18  1  0  0  0  0
 17 38  1  0  0  0  0
 18 19  2  0  0  0  0
 18 39  1  0  0  0  0
 19  9  1  0  0  0  0
 19 40  1  0  0  0  0
 20 21  1  0  0  0  0
 21 41  1  0  0  0  0
 21 42  1  0  0  0  0
 21 43  1  0  0  0  0
 22 23  1  0  0  0  0
 23 24  2  0  0  0  0
 23 27  1  0  0  0  0
 24 25  1  0  0  0  0
 24 44  1  0  0  0  0
 25 26  2  0  0  0  0
 25 28  1  0  0  0  0
 26  3  1  0  0  0  0
 27 45  1  0  0  0  0
 27 46  1  0  0  0  0
 27 47  1  0  0  0  0
 28 48  1  0  0  0  0
 28 49  1  0  0  0  0
 28 50  1  0  0  0  0
M  END
>  <Mol_ID>
1143

>  <Formula>
C22H22N2O4

>  <MolWeight>
378.42108

>  <Cat>
S2097

>  <Name>
Ambrisentan

>  <Synonyms>
LU-208075, BSF-208075

>  <Target>
Endothelin Receptor

>  <Form>
free base

>  <CAS>
177036-94-1

>  <URL>
http://selleckchem.com/products/ambrisentan.html

$$$$
