Amdinocillin
 OpenBabel08302521302D

 45 47  0  0  0  0  0  0  0  0999 V2000
    7.4599    2.8100    0.0000 N   0  0  0  0  0  0  0  0  0  0  0  0
    7.4599    4.2100    0.0000 C   0  0  1  0  0  0  0  0  0  0  0  0
    8.7798    2.3751    0.0000 C   0  0  2  0  0  0  0  0  0  0  0  0
    6.0848    2.8100    0.0000 C   0  0  0  0  0  0  0  0  0  0  0  0
    6.0848    4.2100    0.0000 C   0  0  1  0  0  0  0  0  0  0  0  0
    8.7798    4.6402    0.0000 S   0  0  0  0  0  0  0  0  0  0  0  0
    9.6098    3.5002    0.0000 C   0  0  0  0  0  0  0  0  0  0  0  0
    9.2147    1.0550    0.0000 C   0  0  0  0  0  0  0  0  0  0  0  0
    5.0897    1.8151    0.0000 O   0  0  0  0  0  0  0  0  0  0  0  0
    5.0897    5.1651    0.0000 N   0  0  0  0  0  0  0  0  0  0  0  0
   10.6448    4.4350    0.0000 C   0  0  0  0  0  0  0  0  0  0  0  0
   10.6448    2.5701    0.0000 C   0  0  0  0  0  0  0  0  0  0  0  0
   10.5849    0.7501    0.0000 O   0  0  0  0  0  0  0  0  0  0  0  0
    8.2899    0.0000    0.0000 O   0  0  0  0  0  0  0  0  0  0  0  0
    3.7514    4.7296    0.0000 C   0  0  0  0  0  0  0  0  0  0  0  0
    2.7265    5.6835    0.0000 N   0  0  0  0  0  0  0  0  0  0  0  0
    3.1369    7.0215    0.0000 C   0  0  0  0  0  0  0  0  0  0  0  0
    1.4215    5.1643    0.0000 C   0  0  0  0  0  0  0  0  0  0  0  0
    2.3339    8.1745    0.0000 C   0  0  0  0  0  0  0  0  0  0  0  0
    0.2010    5.8851    0.0000 C   0  0  0  0  0  0  0  0  0  0  0  0
    0.9487    8.2727    0.0000 C   0  0  0  0  0  0  0  0  0  0  0  0
    0.0000    7.2430    0.0000 C   0  0  0  0  0  0  0  0  0  0  0  0
    8.3258    3.5815    0.0000 H   0  0  0  0  0  0  0  0  0  0  0  0
    8.0232    1.6185    0.0000 H   0  0  0  0  0  0  0  0  0  0  0  0
    6.4841    5.2027    0.0000 H   0  0  0  0  0  0  0  0  0  0  0  0
   11.6629    4.1059    0.0000 H   0  0  0  0  0  0  0  0  0  0  0  0
   10.4207    5.4813    0.0000 H   0  0  0  0  0  0  0  0  0  0  0  0
   11.4389    5.1522    0.0000 H   0  0  0  0  0  0  0  0  0  0  0  0
   10.4234    1.5233    0.0000 H   0  0  0  0  0  0  0  0  0  0  0  0
   11.6621    2.9017    0.0000 H   0  0  0  0  0  0  0  0  0  0  0  0
   11.4407    1.8549    0.0000 H   0  0  0  0  0  0  0  0  0  0  0  0
   10.8660   -0.1438    0.0000 H   0  0  0  0  0  0  0  0  0  0  0  0
    3.5287    3.7219    0.0000 H   0  0  0  0  0  0  0  0  0  0  0  0
    4.1940    7.1871    0.0000 H   0  0  0  0  0  0  0  0  0  0  0  0
    3.5571    8.0055    0.0000 H   0  0  0  0  0  0  0  0  0  0  0  0
    1.3388    4.0975    0.0000 H   0  0  0  0  0  0  0  0  0  0  0  0
    0.4724    4.6702    0.0000 H   0  0  0  0  0  0  0  0  0  0  0  0
    2.8624    9.1049    0.0000 H   0  0  0  0  0  0  0  0  0  0  0  0
    1.8287    9.1177    0.0000 H   0  0  0  0  0  0  0  0  0  0  0  0
   -0.6868    5.2879    0.0000 H   0  0  0  0  0  0  0  0  0  0  0  0
   -0.7778    6.3173    0.0000 H   0  0  0  0  0  0  0  0  0  0  0  0
    0.5540    9.2673    0.0000 H   0  0  0  0  0  0  0  0  0  0  0  0
   -0.1034    8.4678    0.0000 H   0  0  0  0  0  0  0  0  0  0  0  0
   -1.0226    7.5579    0.0000 H   0  0  0  0  0  0  0  0  0  0  0  0
   -0.2790    8.2760    0.0000 H   0  0  0  0  0  0  0  0  0  0  0  0
  1  2  1  0  0  0  0
  1  3  1  0  0  0  0
  1  4  1  0  0  0  0
  2  5  1  0  0  0  0
  2  6  1  0  0  0  0
  2 23  1  6  0  0  0
  3  7  1  0  0  0  0
  3  8  1  0  0  0  0
  3 24  1  1  0  0  0
  4  9  2  0  0  0  0
  4  5  1  0  0  0  0
  5 10  1  0  0  0  0
  5 25  1  6  0  0  0
  6  7  1  0  0  0  0
  7 11  1  0  0  0  0
  7 12  1  0  0  0  0
  8 13  1  0  0  0  0
  8 14  2  0  0  0  0
 10 15  2  0  0  0  0
 11 26  1  0  0  0  0
 11 27  1  0  0  0  0
 11 28  1  0  0  0  0
 12 29  1  0  0  0  0
 12 30  1  0  0  0  0
 12 31  1  0  0  0  0
 13 32  1  0  0  0  0
 15 16  1  0  0  0  0
 15 33  1  0  0  0  0
 16 17  1  0  0  0  0
 16 18  1  0  0  0  0
 17 19  1  0  0  0  0
 17 34  1  0  0  0  0
 17 35  1  0  0  0  0
 18 20  1  0  0  0  0
 18 36  1  0  0  0  0
 18 37  1  0  0  0  0
 19 21  1  0  0  0  0
 19 38  1  0  0  0  0
 19 39  1  0  0  0  0
 20 22  1  0  0  0  0
 20 40  1  0  0  0  0
 20 41  1  0  0  0  0
 21 22  1  0  0  0  0
 21 42  1  0  0  0  0
 21 43  1  0  0  0  0
 22 44  1  0  0  0  0
 22 45  1  0  0  0  0
M  END
>  <Mol_ID>
5605

>  <Formula>
C15H23N3O3S

>  <MolWeight>
325.42642

>  <Cat>
S6584

>  <Name>
Amdinocillin

>  <Synonyms>
Mecillinam, Coactin, FL 1060

>  <Target>
Antibiotics,Bacterial

>  <Form>
Free Base

>  <CAS>
32887-01-7

>  <URL>
http://www.selleckchem.com/products/amdinocillin.html

$$$$
