AMG-333
 OpenBabel08302521223D

 44 46  0  0  0  0  0  0  0  0999 V2000
    1.6977    0.1378    1.0287 F   0  0  0  0  0  0  0  0  0  0  0  0
   -2.6575    3.3110    3.5212 F   0  0  0  0  0  0  0  0  0  0  0  0
   -2.3133    1.4449    4.9498 F   0  0  0  0  0  0  0  0  0  0  0  0
   -1.0697    1.1291    6.7086 F   0  0  0  0  0  0  0  0  0  0  0  0
   -2.5409    2.7446    6.7082 F   0  0  0  0  0  0  0  0  0  0  0  0
   -0.6410    2.9903    5.5028 O   0  0  0  0  0  0  0  0  0  0  0  0
    2.0923    4.8236   -1.1583 O   0  0  0  0  0  0  0  0  0  0  0  0
   -1.3954    8.7003   -5.9979 O   0  0  0  0  0  0  0  0  0  0  0  0
   -3.2452    7.8945   -4.9922 O   0  0  0  0  0  0  0  0  0  0  0  0
    0.1781    3.5771   -0.9736 N   0  0  0  0  0  0  0  0  0  0  0  0
   -1.1550    1.1870   -0.9734 N   0  0  0  0  0  0  0  0  0  0  0  0
   -1.0231    5.0847   -2.8654 N   0  0  0  0  0  0  0  0  0  0  0  0
    0.6559    2.5920   -0.0099 C   0  0  1  0  0  0  0  0  0  0  0  0
    0.3077    2.9874    1.4311 C   0  0  0  0  0  0  0  0  0  0  0  0
    0.0295    1.2175   -0.2873 C   0  0  0  0  0  0  0  0  0  0  0  0
   -1.0339    3.1311    1.8297 C   0  0  0  0  0  0  0  0  0  0  0  0
    1.3018    3.0057    2.4234 C   0  0  0  0  0  0  0  0  0  0  0  0
    0.5506    0.0839    0.3378 C   0  0  0  0  0  0  0  0  0  0  0  0
   -1.3685    3.1705    3.1814 C   0  0  0  0  0  0  0  0  0  0  0  0
    0.9523    3.0327    3.7798 C   0  0  0  0  0  0  0  0  0  0  0  0
    0.9386    4.5962   -1.4896 C   0  0  0  0  0  0  0  0  0  0  0  0
   -0.3903    3.0410    4.1639 C   0  0  0  0  0  0  0  0  0  0  0  0
    0.2453    5.4462   -2.5265 C   0  0  0  0  0  0  0  0  0  0  0  0
   -0.1660   -1.1055    0.3023 C   0  0  0  0  0  0  0  0  0  0  0  0
   -1.8243    0.0127   -0.9977 C   0  0  0  0  0  0  0  0  0  0  0  0
   -1.3835   -1.1420   -0.3695 C   0  0  0  0  0  0  0  0  0  0  0  0
    0.8770    6.5739   -3.0495 C   0  0  0  0  0  0  0  0  0  0  0  0
    0.1687    7.4037   -3.9280 C   0  0  0  0  0  0  0  0  0  0  0  0
   -1.1449    7.0714   -4.2699 C   0  0  0  0  0  0  0  0  0  0  0  0
   -1.6850    5.9107   -3.7221 C   0  0  0  0  0  0  0  0  0  0  0  0
   -1.6517    2.0800    5.9388 C   0  0  0  0  0  0  0  0  0  0  0  0
   -2.0306    7.9167   -5.1025 C   0  0  0  0  0  0  0  0  0  0  0  0
   -0.4427    8.5385   -6.1267 H   0  0  0  0  0  0  0  0  0  0  0  0
   -0.7363    3.4084   -1.3873 H   0  0  0  0  0  0  0  0  0  0  0  0
    1.7446    2.5123   -0.1253 H   0  0  0  0  0  0  0  0  0  0  0  0
   -1.8350    3.1388    1.0945 H   0  0  0  0  0  0  0  0  0  0  0  0
    2.3539    2.9347    2.1502 H   0  0  0  0  0  0  0  0  0  0  0  0
    1.7348    3.0028    4.5352 H   0  0  0  0  0  0  0  0  0  0  0  0
    0.2100   -1.9813    0.8216 H   0  0  0  0  0  0  0  0  0  0  0  0
   -2.7686    0.0310   -1.5353 H   0  0  0  0  0  0  0  0  0  0  0  0
   -1.9821   -2.0462   -0.3943 H   0  0  0  0  0  0  0  0  0  0  0  0
    1.8906    6.8245   -2.7474 H   0  0  0  0  0  0  0  0  0  0  0  0
    0.6398    8.3175   -4.2794 H   0  0  0  0  0  0  0  0  0  0  0  0
   -2.7032    5.6059   -3.9543 H   0  0  0  0  0  0  0  0  0  0  0  0
  1 18  1  0  0  0  0
  2 19  1  0  0  0  0
  3 31  1  0  0  0  0
  4 31  1  0  0  0  0
  5 31  1  0  0  0  0
  6 22  1  0  0  0  0
  6 31  1  0  0  0  0
  7 21  2  0  0  0  0
  8 32  1  0  0  0  0
  8 33  1  0  0  0  0
  9 32  2  0  0  0  0
 10 21  1  0  0  0  0
 10 34  1  0  0  0  0
 11 15  2  0  0  0  0
 11 25  1  0  0  0  0
 12 23  2  0  0  0  0
 12 30  1  0  0  0  0
 13 10  1  0  0  0  0
 13 14  1  0  0  0  0
 13 15  1  0  0  0  0
 13 35  1  6  0  0  0
 14 16  2  0  0  0  0
 14 17  1  0  0  0  0
 15 18  1  0  0  0  0
 16 19  1  0  0  0  0
 16 36  1  0  0  0  0
 17 20  2  0  0  0  0
 17 37  1  0  0  0  0
 18 24  2  0  0  0  0
 19 22  2  0  0  0  0
 20 22  1  0  0  0  0
 20 38  1  0  0  0  0
 21 23  1  0  0  0  0
 23 27  1  0  0  0  0
 24 26  1  0  0  0  0
 24 39  1  0  0  0  0
 25 26  2  0  0  0  0
 25 40  1  0  0  0  0
 26 41  1  0  0  0  0
 27 28  2  0  0  0  0
 27 42  1  0  0  0  0
 28 29  1  0  0  0  0
 28 43  1  0  0  0  0
 29 30  2  0  0  0  0
 29 32  1  0  0  0  0
 30 44  1  0  0  0  0
M  END
>  <Mol_ID>
4755

>  <Formula>
C20H12F5N3O4

>  <MolWeight>
453.318996

>  <Cat>
S6638

>  <Name>
AMG-333

>  <Synonyms>
N/A

>  <Target>
TRP Channel

>  <Form>
Free Base

>  <CAS>
1416799-28-4

>  <URL>
http://www.selleck.cn/products/amg-333.html

$$$$
