AMG-9810
 OpenBabel08302521303D

 48 50  0  0  0  0  0  0  0  0999 V2000
    1.0021   -0.0698    0.1933 C   0  0  0  0  0  0  0  0  0  0  0  0
    0.2990    1.0892    0.8153 C   0  0  0  0  0  0  0  0  0  0  0  0
   -1.0417    1.0719    0.8896 C   0  0  0  0  0  0  0  0  0  0  0  0
    0.3661   -1.0281   -0.2101 O   0  0  0  0  0  0  0  0  0  0  0  0
    2.3714    0.1033    0.1392 N   0  0  0  0  0  0  0  0  0  0  0  0
   -1.8615    2.1560    1.4443 C   0  0  0  0  0  0  0  0  0  0  0  0
   -1.4882    3.4969    1.3537 C   0  0  0  0  0  0  0  0  0  0  0  0
   -2.2950    4.5057    1.8938 C   0  0  0  0  0  0  0  0  0  0  0  0
   -3.5113    4.2116    2.5296 C   0  0  0  0  0  0  0  0  0  0  0  0
   -3.8980    2.8591    2.5770 C   0  0  0  0  0  0  0  0  0  0  0  0
   -3.0892    1.8491    2.0361 C   0  0  0  0  0  0  0  0  0  0  0  0
   -4.4062    5.3012    3.1468 C   0  0  0  0  0  0  0  0  0  0  0  0
    5.9721   -2.1953   -3.4249 O   0  0  0  0  0  0  0  0  0  0  0  0
    5.2646   -2.6386   -4.5946 C   0  0  0  0  0  0  0  0  0  0  0  0
    4.2231   -3.6691   -4.1960 C   0  0  0  0  0  0  0  0  0  0  0  0
    3.2110   -3.0682   -3.3826 O   0  0  0  0  0  0  0  0  0  0  0  0
    3.7355   -2.1776   -2.4795 C   0  0  0  0  0  0  0  0  0  0  0  0
    5.0750   -1.7858   -2.4694 C   0  0  0  0  0  0  0  0  0  0  0  0
    2.8351   -1.6121   -1.5796 C   0  0  0  0  0  0  0  0  0  0  0  0
    3.2611   -0.6473   -0.6631 C   0  0  0  0  0  0  0  0  0  0  0  0
    4.6290   -0.3318   -0.5974 C   0  0  0  0  0  0  0  0  0  0  0  0
    5.5361   -0.9080   -1.4923 C   0  0  0  0  0  0  0  0  0  0  0  0
   -3.8113    6.7237    3.0248 C   0  0  0  0  0  0  0  0  0  0  0  0
   -5.7779    5.3141    2.4401 C   0  0  0  0  0  0  0  0  0  0  0  0
   -4.6166    5.0260    4.6503 C   0  0  0  0  0  0  0  0  0  0  0  0
    0.8883    1.9272    1.1592 H   0  0  0  0  0  0  0  0  0  0  0  0
   -1.5943    0.2010    0.5360 H   0  0  0  0  0  0  0  0  0  0  0  0
    2.7715    0.8845    0.6362 H   0  0  0  0  0  0  0  0  0  0  0  0
   -0.5693    3.7884    0.8547 H   0  0  0  0  0  0  0  0  0  0  0  0
   -1.9390    5.5270    1.7959 H   0  0  0  0  0  0  0  0  0  0  0  0
   -4.8374    2.5664    3.0381 H   0  0  0  0  0  0  0  0  0  0  0  0
   -3.4313    0.8173    2.0951 H   0  0  0  0  0  0  0  0  0  0  0  0
    5.9917   -3.0687   -5.2887 H   0  0  0  0  0  0  0  0  0  0  0  0
    4.8028   -1.7673   -5.0807 H   0  0  0  0  0  0  0  0  0  0  0  0
    4.6725   -4.4985   -3.6363 H   0  0  0  0  0  0  0  0  0  0  0  0
    3.7299   -4.0781   -5.0829 H   0  0  0  0  0  0  0  0  0  0  0  0
    1.7986   -1.9106   -1.6617 H   0  0  0  0  0  0  0  0  0  0  0  0
    5.0016    0.3867    0.1288 H   0  0  0  0  0  0  0  0  0  0  0  0
    6.5871   -0.6360   -1.4607 H   0  0  0  0  0  0  0  0  0  0  0  0
   -3.6779    7.0162    1.9763 H   0  0  0  0  0  0  0  0  0  0  0  0
   -4.4671    7.4698    3.4863 H   0  0  0  0  0  0  0  0  0  0  0  0
   -2.8377    6.7955    3.5247 H   0  0  0  0  0  0  0  0  0  0  0  0
   -6.3037    4.3582    2.5397 H   0  0  0  0  0  0  0  0  0  0  0  0
   -6.4311    6.0857    2.8645 H   0  0  0  0  0  0  0  0  0  0  0  0
   -5.6697    5.5208    1.3691 H   0  0  0  0  0  0  0  0  0  0  0  0
   -5.1157    4.0677    4.8320 H   0  0  0  0  0  0  0  0  0  0  0  0
   -3.6612    5.0079    5.1875 H   0  0  0  0  0  0  0  0  0  0  0  0
   -5.2404    5.8031    5.1083 H   0  0  0  0  0  0  0  0  0  0  0  0
  1  2  1  0  0  0  0
  1  4  2  0  0  0  0
  1  5  1  0  0  0  0
  2  3  2  0  0  0  0
  2 26  1  0  0  0  0
  3  6  1  0  0  0  0
  3 27  1  0  0  0  0
  5 20  1  0  0  0  0
  5 28  1  0  0  0  0
  6  7  2  0  0  0  0
  6 11  1  0  0  0  0
  7  8  1  0  0  0  0
  7 29  1  0  0  0  0
  8  9  2  0  0  0  0
  8 30  1  0  0  0  0
  9 10  1  0  0  0  0
  9 12  1  0  0  0  0
 10 11  2  0  0  0  0
 10 31  1  0  0  0  0
 11 32  1  0  0  0  0
 12 23  1  0  0  0  0
 12 24  1  0  0  0  0
 12 25  1  0  0  0  0
 13 14  1  0  0  0  0
 13 18  1  0  0  0  0
 14 15  1  0  0  0  0
 14 33  1  0  0  0  0
 14 34  1  0  0  0  0
 15 16  1  0  0  0  0
 15 35  1  0  0  0  0
 15 36  1  0  0  0  0
 16 17  1  0  0  0  0
 17 18  2  0  0  0  0
 17 19  1  0  0  0  0
 18 22  1  0  0  0  0
 19 20  2  0  0  0  0
 19 37  1  0  0  0  0
 20 21  1  0  0  0  0
 21 22  2  0  0  0  0
 21 38  1  0  0  0  0
 22 39  1  0  0  0  0
 23 40  1  0  0  0  0
 23 41  1  0  0  0  0
 23 42  1  0  0  0  0
 24 43  1  0  0  0  0
 24 44  1  0  0  0  0
 24 45  1  0  0  0  0
 25 46  1  0  0  0  0
 25 47  1  0  0  0  0
 25 48  1  0  0  0  0
M  END
>  <Mol_ID>
5534

>  <Formula>
C21H23NO3

>  <MolWeight>
337.41222

>  <Cat>
S6934

>  <Name>
AMG-9810

>  <Synonyms>
N/A

>  <Target>
TLR,TRP Channel

>  <Form>
Free Base

>  <CAS>
545395-94-6

>  <URL>
https://www.selleckchem.com/products/amg-9810.html

$$$$
