AMG319.cdx
 OpenBabel08302519563D

 45 49  0  0  0  0  0  0  0  0999 V2000
    3.7020    2.2943   -1.1174 C   0  0  0  0  0  0  0  0  0  0  0  0
    4.8742    2.6271   -1.8286 C   0  0  0  0  0  0  0  0  0  0  0  0
    4.8550    3.4653   -2.9226 N   0  0  0  0  0  0  0  0  0  0  0  0
    3.7020    3.9565   -3.3872 C   0  0  0  0  0  0  0  0  0  0  0  0
    2.4758    3.6683   -2.7693 C   0  0  0  0  0  0  0  0  0  0  0  0
    2.5105    2.8514   -1.6240 C   0  0  0  0  0  0  0  0  0  0  0  0
    3.7043    4.7701   -4.5123 C   0  0  0  0  0  0  0  0  0  0  0  0
    2.5175    5.2766   -5.0325 C   0  0  0  0  0  0  0  0  0  0  0  0
    1.2959    4.9940   -4.4275 C   0  0  0  0  0  0  0  0  0  0  0  0
    1.2799    4.1858   -3.3005 C   0  0  0  0  0  0  0  0  0  0  0  0
    6.2457    2.1044   -1.5570 C   0  0  0  0  0  0  0  0  0  0  0  0
    3.6892    1.3771    0.1228 C   0  0  2  0  0  0  0  0  0  0  0  0
    2.2827    0.8863    0.5209 C   0  0  0  0  0  0  0  0  0  0  0  0
    4.2182    2.0699    1.3107 N   0  0  0  0  0  0  0  0  0  0  0  0
    5.2086    1.3970    2.0394 C   0  0  0  0  0  0  0  0  0  0  0  0
    5.2427    0.0316    2.3881 C   0  0  0  0  0  0  0  0  0  0  0  0
    6.4791   -0.4534    2.7908 C   0  0  0  0  0  0  0  0  0  0  0  0
    7.5790    0.2426    3.1046 N   0  0  0  0  0  0  0  0  0  0  0  0
    7.3180    1.5623    3.0281 C   0  0  0  0  0  0  0  0  0  0  0  0
    6.2457    2.1673    2.4725 N   0  0  0  0  0  0  0  0  0  0  0  0
    4.3124   -0.9972    2.4240 N   0  0  0  0  0  0  0  0  0  0  0  0
    4.9936   -2.0492    2.8300 C   0  0  0  0  0  0  0  0  0  0  0  0
    6.3341   -1.8078    2.7315 N   0  0  0  0  0  0  0  0  0  0  0  0
    2.5568    6.0604   -6.1109 F   0  0  0  0  0  0  0  0  0  0  0  0
    7.3784    2.8550   -1.8687 C   0  0  0  0  0  0  0  0  0  0  0  0
    8.6526    2.3067   -1.7095 C   0  0  0  0  0  0  0  0  0  0  0  0
    8.7595    1.0017   -1.2477 C   0  0  0  0  0  0  0  0  0  0  0  0
    7.5980    0.3152   -0.9651 C   0  0  0  0  0  0  0  0  0  0  0  0
    6.3468    0.8210   -1.1235 N   0  0  0  0  0  0  0  0  0  0  0  0
    1.5668    2.6624   -1.1196 H   0  0  0  0  0  0  0  0  0  0  0  0
    4.6396    5.0101   -5.0004 H   0  0  0  0  0  0  0  0  0  0  0  0
    0.3852    5.3994   -4.8578 H   0  0  0  0  0  0  0  0  0  0  0  0
    0.3195    3.9582   -2.8305 H   0  0  0  0  0  0  0  0  0  0  0  0
    4.2491    0.4728   -0.1337 H   0  0  0  0  0  0  0  0  0  0  0  0
    2.3490    0.0363    1.2075 H   0  0  0  0  0  0  0  0  0  0  0  0
    1.7265    1.6704    1.0510 H   0  0  0  0  0  0  0  0  0  0  0  0
    1.6899    0.5533   -0.3390 H   0  0  0  0  0  0  0  0  0  0  0  0
    4.5924    2.9927    1.1183 H   0  0  0  0  0  0  0  0  0  0  0  0
    8.0559    2.2223    3.4754 H   0  0  0  0  0  0  0  0  0  0  0  0
    4.5910   -3.0005    3.1553 H   0  0  0  0  0  0  0  0  0  0  0  0
    7.0733   -2.4862    2.6211 H   0  0  0  0  0  0  0  0  0  0  0  0
    7.2813    3.8696   -2.2550 H   0  0  0  0  0  0  0  0  0  0  0  0
    9.5374    2.8833   -1.9602 H   0  0  0  0  0  0  0  0  0  0  0  0
    9.7314    0.5362   -1.1201 H   0  0  0  0  0  0  0  0  0  0  0  0
    7.6346   -0.7201   -0.6193 H   0  0  0  0  0  0  0  0  0  0  0  0
  1  2  1  0  0  0  0
  2  3  2  0  0  0  0
  3  4  1  0  0  0  0
  4  5  2  0  0  0  0
  4  7  1  0  0  0  0
  5  6  1  0  0  0  0
  6  1  2  0  0  0  0
  6 30  1  0  0  0  0
  7  8  2  0  0  0  0
  7 31  1  0  0  0  0
  8  9  1  0  0  0  0
  8 24  1  0  0  0  0
  9 10  2  0  0  0  0
  9 32  1  0  0  0  0
 10  5  1  0  0  0  0
 10 33  1  0  0  0  0
 11  2  1  0  0  0  0
 11 25  2  0  0  0  0
 12 14  1  0  0  0  0
 12 34  1  6  0  0  0
 12 13  1  0  0  0  0
 12  1  1  0  0  0  0
 13 35  1  0  0  0  0
 13 36  1  0  0  0  0
 13 37  1  0  0  0  0
 14 15  1  0  0  0  0
 14 38  1  0  0  0  0
 15 16  2  0  0  0  0
 16 17  1  0  0  0  0
 16 21  1  0  0  0  0
 17 18  2  0  0  0  0
 18 19  1  0  0  0  0
 19 20  2  0  0  0  0
 19 39  1  0  0  0  0
 20 15  1  0  0  0  0
 21 22  2  0  0  0  0
 22 23  1  0  0  0  0
 22 40  1  0  0  0  0
 23 17  1  0  0  0  0
 23 41  1  0  0  0  0
 25 26  1  0  0  0  0
 25 42  1  0  0  0  0
 26 27  2  0  0  0  0
 26 43  1  0  0  0  0
 27 28  1  0  0  0  0
 27 44  1  0  0  0  0
 28 29  2  0  0  0  0
 28 45  1  0  0  0  0
 29 11  1  0  0  0  0
M  END
>  <Mol_ID>
2214

>  <Formula>
C21H16FN7

>  <MolWeight>
385.3970432

>  <Cat>
S7813

>  <Name>
AMG319

>  <Synonyms>
N/A

>  <Target>
PI3K

>  <Form>
free base

>  <CAS>
1608125-21-8

>  <URL>
http://selleckchem.com/products/amg319.html

$$$$
