Amiloride hydrochloride.cdx
 OpenBabel08302521223D

 23 23  0  0  0  0  0  0  0  0999 V2000
   -0.4495    1.2270    0.0487 C   0  0  0  0  0  0  0  0  0  0  0  0
   -1.2307    0.0702    0.0771 C   0  0  0  0  0  0  0  0  0  0  0  0
   -0.6655   -1.1516    0.0878 N   0  0  0  0  0  0  0  0  0  0  0  0
    0.6878   -1.2071    0.0668 C   0  0  0  0  0  0  0  0  0  0  0  0
    1.4580   -0.0302    0.0196 C   0  0  0  0  0  0  0  0  0  0  0  0
    0.9072    1.2193   -0.0011 N   0  0  0  0  0  0  0  0  0  0  0  0
   -2.6178    0.1133    0.1798 N   0  0  0  0  0  0  0  0  0  0  0  0
    2.9419   -0.1121   -0.1066 C   0  0  0  0  0  0  0  0  0  0  0  0
    3.6184    1.0962   -0.0482 N   0  0  0  0  0  0  0  0  0  0  0  0
    4.9638    1.2749   -0.1694 C   0  0  0  0  0  0  0  0  0  0  0  0
    5.7753    0.2199   -0.3590 N   0  0  0  0  0  0  0  0  0  0  0  0
    3.5040   -1.1956   -0.2835 O   0  0  0  0  0  0  0  0  0  0  0  0
    5.3877    2.4835   -0.0857 N   0  0  0  0  0  0  0  0  0  0  0  0
    1.2230   -2.4817    0.2322 N   0  0  0  0  0  0  0  0  0  0  0  0
   -0.9130    2.2081    0.0757 H   0  0  0  0  0  0  0  0  0  0  0  0
   -2.9610   -0.8446    0.1381 H   0  0  0  0  0  0  0  0  0  0  0  0
   -3.0570    0.7082   -0.5122 H   0  0  0  0  0  0  0  0  0  0  0  0
    3.0720    1.9408    0.0668 H   0  0  0  0  0  0  0  0  0  0  0  0
    6.7775    0.2798   -0.2881 H   0  0  0  0  0  0  0  0  0  0  0  0
    5.3590   -0.7088   -0.2809 H   0  0  0  0  0  0  0  0  0  0  0  0
    6.4035    2.4741   -0.2029 H   0  0  0  0  0  0  0  0  0  0  0  0
    2.0994   -2.6170   -0.2710 H   0  0  0  0  0  0  0  0  0  0  0  0
    0.5174   -3.1939    0.0887 H   0  0  0  0  0  0  0  0  0  0  0  0
  1  2  2  0  0  0  0
  1 15  1  0  0  0  0
  2  3  1  0  0  0  0
  2  7  1  0  0  0  0
  3  4  2  0  0  0  0
  4  5  1  0  0  0  0
  4 14  1  0  0  0  0
  5  6  2  0  0  0  0
  5  8  1  0  0  0  0
  6  1  1  0  0  0  0
  7 16  1  0  0  0  0
  7 17  1  0  0  0  0
  8  9  1  0  0  0  0
  8 12  2  0  0  0  0
  9 10  1  0  0  0  0
  9 18  1  0  0  0  0
 10 11  1  0  0  0  0
 10 13  2  0  0  0  0
 11 19  1  0  0  0  0
 11 20  1  0  0  0  0
 13 21  1  0  0  0  0
 14 22  1  0  0  0  0
 14 23  1  0  0  0  0
M  END
>  <Mol_ID>
450

>  <Formula>
C6H9Cl2N7O

>  <MolWeight>
266.08796

>  <Cat>
S1811

>  <Name>
Amiloride (MK-870) HCl

>  <Synonyms>
MK-870 HCl

>  <Target>
Calcium Channel,Serine Protease,Sodium Channel

>  <Form>
Hydrochloride

>  <CAS>
2016-88-8

>  <URL>
http://selleckchem.com/products/Amiloride-hydrochloride(Midamor).html

$$$$
