Amiloxate
 OpenBabel08302521293D

 38 38  0  0  0  0  0  0  0  0999 V2000
    1.4062   -0.4657    0.2516 C   0  0  0  0  0  0  0  0  0  0  0  0
    0.4250   -1.2224    0.8895 C   0  0  0  0  0  0  0  0  0  0  0  0
   -0.9290   -0.9022    0.7247 C   0  0  0  0  0  0  0  0  0  0  0  0
   -1.3197    0.1800   -0.0755 C   0  0  0  0  0  0  0  0  0  0  0  0
   -0.3277    0.9414   -0.7014 C   0  0  0  0  0  0  0  0  0  0  0  0
    1.0222    0.6217   -0.5342 C   0  0  0  0  0  0  0  0  0  0  0  0
   -2.7507    0.4207   -0.3013 C   0  0  0  0  0  0  0  0  0  0  0  0
   -3.2919    1.6331   -0.5042 C   0  0  0  0  0  0  0  0  0  0  0  0
   -4.7354    1.8681   -0.7058 C   0  0  0  0  0  0  0  0  0  0  0  0
   -5.2088    2.9981   -0.6899 O   0  0  0  0  0  0  0  0  0  0  0  0
   -5.4254    0.7127   -0.8497 O   0  0  0  0  0  0  0  0  0  0  0  0
   -6.8456    0.8152   -0.6772 C   0  0  0  0  0  0  0  0  0  0  0  0
   -7.5862    1.3300   -1.9119 C   0  0  0  0  0  0  0  0  0  0  0  0
   -7.3904    0.5058   -3.1968 C   0  0  0  0  0  0  0  0  0  0  0  0
   -7.9046   -0.9281   -3.0619 C   0  0  0  0  0  0  0  0  0  0  0  0
   -8.1195    1.1962   -4.3561 C   0  0  0  0  0  0  0  0  0  0  0  0
    2.7552   -0.6797    0.3074 O   0  0  0  0  0  0  0  0  0  0  0  0
    3.1942   -1.8179    1.0356 C   0  0  0  0  0  0  0  0  0  0  0  0
    0.6748   -2.0730    1.5153 H   0  0  0  0  0  0  0  0  0  0  0  0
   -1.6756   -1.5131    1.2289 H   0  0  0  0  0  0  0  0  0  0  0  0
   -0.5854    1.7778   -1.3451 H   0  0  0  0  0  0  0  0  0  0  0  0
    1.7804    1.2167   -1.0365 H   0  0  0  0  0  0  0  0  0  0  0  0
   -3.3788   -0.4671   -0.2864 H   0  0  0  0  0  0  0  0  0  0  0  0
   -2.6997    2.5410   -0.4765 H   0  0  0  0  0  0  0  0  0  0  0  0
   -7.2016   -0.1833   -0.4050 H   0  0  0  0  0  0  0  0  0  0  0  0
   -7.0625    1.4558    0.1867 H   0  0  0  0  0  0  0  0  0  0  0  0
   -8.6552    1.3840   -1.6712 H   0  0  0  0  0  0  0  0  0  0  0  0
   -7.2598    2.3568   -2.1152 H   0  0  0  0  0  0  0  0  0  0  0  0
   -6.3218    0.4709   -3.4389 H   0  0  0  0  0  0  0  0  0  0  0  0
   -8.9858   -0.9479   -2.8837 H   0  0  0  0  0  0  0  0  0  0  0  0
   -7.7064   -1.4937   -3.9792 H   0  0  0  0  0  0  0  0  0  0  0  0
   -7.4144   -1.4599   -2.2422 H   0  0  0  0  0  0  0  0  0  0  0  0
   -7.7620    2.2233   -4.4879 H   0  0  0  0  0  0  0  0  0  0  0  0
   -7.9532    0.6603   -5.2966 H   0  0  0  0  0  0  0  0  0  0  0  0
   -9.1997    1.2370   -4.1773 H   0  0  0  0  0  0  0  0  0  0  0  0
    2.9187   -1.7391    2.0923 H   0  0  0  0  0  0  0  0  0  0  0  0
    2.8089   -2.7431    0.5934 H   0  0  0  0  0  0  0  0  0  0  0  0
    4.2864   -1.8501    0.9782 H   0  0  0  0  0  0  0  0  0  0  0  0
  1  2  2  0  0  0  0
  1 17  1  0  0  0  0
  2  3  1  0  0  0  0
  2 19  1  0  0  0  0
  3  4  2  0  0  0  0
  3 20  1  0  0  0  0
  4  5  1  0  0  0  0
  4  7  1  0  0  0  0
  5  6  2  0  0  0  0
  5 21  1  0  0  0  0
  6  1  1  0  0  0  0
  6 22  1  0  0  0  0
  7  8  2  3  0  0  0
  7 23  1  0  0  0  0
  8  9  1  0  0  0  0
  8 24  1  0  0  0  0
  9 10  2  0  0  0  0
  9 11  1  0  0  0  0
 11 12  1  0  0  0  0
 12 13  1  0  0  0  0
 12 25  1  0  0  0  0
 12 26  1  0  0  0  0
 13 14  1  0  0  0  0
 13 27  1  0  0  0  0
 13 28  1  0  0  0  0
 14 15  1  0  0  0  0
 14 16  1  0  0  0  0
 14 29  1  0  0  0  0
 15 30  1  0  0  0  0
 15 31  1  0  0  0  0
 15 32  1  0  0  0  0
 16 33  1  0  0  0  0
 16 34  1  0  0  0  0
 16 35  1  0  0  0  0
 17 18  1  0  0  0  0
 18 36  1  0  0  0  0
 18 37  1  0  0  0  0
 18 38  1  0  0  0  0
M  END
>  <Mol_ID>
5472

>  <Formula>
C15H20O3

>  <MolWeight>
248.3175

>  <Cat>
S3218

>  <Name>
Amiloxate

>  <Synonyms>
Amiloxiate, Isoamyl Methoxycinnamate, Isopentyl 4-methoxycinnamate, Isoamyl 4-methoxycinnamate, Isoamyl p-methoxycinnamate, Isopentyl p-methoxycinnamate

>  <Target>
Anti-infection

>  <Form>
Free Base

>  <CAS>
71617-10-2

>  <URL>
https://www.selleckchem.com/products/amiloxate.html

$$$$
