Aminoguanidine (hydrochloride).cdx
 OpenBabel08302519503D

 11 10  0  0  0  0  0  0  0  0999 V2000
    0.9011   -0.1061    0.1192 N   0  0  0  0  0  0  0  0  0  0  0  0
    0.2819    0.8706    0.8396 C   0  0  0  0  0  0  0  0  0  0  0  0
   -1.0710    0.7912    0.8879 N   0  0  0  0  0  0  0  0  0  0  0  0
    0.9481    1.7982    1.4277 N   0  0  0  0  0  0  0  0  0  0  0  0
    0.1562   -1.0971   -0.5495 N   0  0  0  0  0  0  0  0  0  0  0  0
    1.8801    0.0734   -0.1056 H   0  0  0  0  0  0  0  0  0  0  0  0
   -1.5364    1.6440    1.1636 H   0  0  0  0  0  0  0  0  0  0  0  0
   -1.4245    0.4488   -0.0025 H   0  0  0  0  0  0  0  0  0  0  0  0
    0.3042    2.4035    1.9422 H   0  0  0  0  0  0  0  0  0  0  0  0
    0.7544   -1.9169   -0.7004 H   0  0  0  0  0  0  0  0  0  0  0  0
   -0.5592   -1.4392    0.1006 H   0  0  0  0  0  0  0  0  0  0  0  0
  1  2  1  0  0  0  0
  1  5  1  0  0  0  0
  1  6  1  0  0  0  0
  2  3  1  0  0  0  0
  2  4  2  0  0  0  0
  3  7  1  0  0  0  0
  3  8  1  0  0  0  0
  4  9  1  0  0  0  0
  5 10  1  0  0  0  0
  5 11  1  0  0  0  0
M  END
>  <Mol_ID>
1497

>  <Formula>
CH7ClN4

>  <MolWeight>
110.54608

>  <Cat>
S4548

>  <Name>
Aminoguanidine hydrochloride

>  <Synonyms>
Pimagedine, Guanyl hydrazine, Hydrazinecarboximidamide, Imino semicarbazide, Monoaminoguanidine

>  <Target>
NOS

>  <Form>
hydrochloride

>  <CAS>
1937-19-5

>  <URL>
http://selleckchem.com/products/aminoguanidine-hydrochloride.html

$$$$
