Aminopurvalanol A
 OpenBabel08302521323D

 54 56  0  0  0  0  0  0  0  0999 V2000
    3.4765   -0.8425    0.7395 C   0  0  0  0  0  0  0  0  0  0  0  0
    3.7846   -0.6392   -0.7576 C   0  0  1  0  0  0  0  0  0  0  0  0
    3.3592   -1.8304   -1.6667 C   0  0  0  0  0  0  0  0  0  0  0  0
    1.8640   -2.1549   -1.6717 C   0  0  0  0  0  0  0  0  0  0  0  0
    2.0847   -0.9778    1.0218 O   0  0  0  0  0  0  0  0  0  0  0  0
    3.8346   -1.6122   -3.1115 C   0  0  0  0  0  0  0  0  0  0  0  0
    3.2222    0.6116   -1.2692 N   0  0  0  0  0  0  0  0  0  0  0  0
    6.2240    5.1328   -1.3266 N   0  0  0  0  0  0  0  0  0  0  0  0
    5.5921    5.6813   -2.3423 C   0  0  0  0  0  0  0  0  0  0  0  0
    4.5389    4.9122   -2.7733 N   0  0  0  0  0  0  0  0  0  0  0  0
    4.4958    3.7930   -1.9828 C   0  0  0  0  0  0  0  0  0  0  0  0
    3.6341    2.7617   -2.0392 N   0  0  0  0  0  0  0  0  0  0  0  0
    3.9596    1.7721   -1.1937 C   0  0  0  0  0  0  0  0  0  0  0  0
    4.9517    1.8207   -0.2941 N   0  0  0  0  0  0  0  0  0  0  0  0
    5.7470    2.9174   -0.1752 C   0  0  0  0  0  0  0  0  0  0  0  0
    5.5642    3.9464   -1.1077 C   0  0  0  0  0  0  0  0  0  0  0  0
    3.6446    5.2665   -3.8666 C   0  0  0  0  0  0  0  0  0  0  0  0
    3.6825    4.2567   -5.0137 C   0  0  0  0  0  0  0  0  0  0  0  0
    2.2197    5.5137   -3.3745 C   0  0  0  0  0  0  0  0  0  0  0  0
    6.7221    2.9661    0.8329 N   0  0  0  0  0  0  0  0  0  0  0  0
    6.6544    2.3294    2.0869 C   0  0  0  0  0  0  0  0  0  0  0  0
    7.8358    1.9375    2.7287 C   0  0  0  0  0  0  0  0  0  0  0  0
    7.8014    1.1742    3.9035 C   0  0  0  0  0  0  0  0  0  0  0  0
    6.5708    0.9295    4.5177 C   0  0  0  0  0  0  0  0  0  0  0  0
    5.3862    1.3450    3.9161 C   0  0  0  0  0  0  0  0  0  0  0  0
    5.4317    2.0282    2.7026 C   0  0  0  0  0  0  0  0  0  0  0  0
    8.9916    0.8376    4.5646 N   0  0  0  0  0  0  0  0  0  0  0  0
    3.9733   -1.7477    1.1009 H   0  0  0  0  0  0  0  0  0  0  0  0
    3.8457   -0.0070    1.3365 H   0  0  0  0  0  0  0  0  0  0  0  0
    4.8813   -0.5995   -0.8402 H   0  0  0  0  0  0  0  0  0  0  0  0
    3.8800   -2.7239   -1.2947 H   0  0  0  0  0  0  0  0  0  0  0  0
    1.2550   -1.2736   -1.8925 H   0  0  0  0  0  0  0  0  0  0  0  0
    1.6361   -2.9157   -2.4266 H   0  0  0  0  0  0  0  0  0  0  0  0
    1.5442   -2.5706   -0.7125 H   0  0  0  0  0  0  0  0  0  0  0  0
    1.6568   -0.1808    0.6668 H   0  0  0  0  0  0  0  0  0  0  0  0
    4.9131   -1.4263   -3.1450 H   0  0  0  0  0  0  0  0  0  0  0  0
    3.6324   -2.4979   -3.7236 H   0  0  0  0  0  0  0  0  0  0  0  0
    3.3259   -0.7631   -3.5803 H   0  0  0  0  0  0  0  0  0  0  0  0
    2.2302    0.7584   -1.3459 H   0  0  0  0  0  0  0  0  0  0  0  0
    5.8488    6.6289   -2.8002 H   0  0  0  0  0  0  0  0  0  0  0  0
    4.0189    6.2187   -4.2664 H   0  0  0  0  0  0  0  0  0  0  0  0
    3.3011    3.2765   -4.7111 H   0  0  0  0  0  0  0  0  0  0  0  0
    3.0717    4.6063   -5.8535 H   0  0  0  0  0  0  0  0  0  0  0  0
    4.7059    4.1192   -5.3799 H   0  0  0  0  0  0  0  0  0  0  0  0
    2.2097    6.2676   -2.5794 H   0  0  0  0  0  0  0  0  0  0  0  0
    1.5870    5.8781   -4.1906 H   0  0  0  0  0  0  0  0  0  0  0  0
    1.7620    4.6028   -2.9759 H   0  0  0  0  0  0  0  0  0  0  0  0
    7.2855    3.8097    0.8050 H   0  0  0  0  0  0  0  0  0  0  0  0
    8.7921    2.1814    2.2740 H   0  0  0  0  0  0  0  0  0  0  0  0
    6.5241    0.4018    5.4658 H   0  0  0  0  0  0  0  0  0  0  0  0
    4.4291    1.1347    4.3855 H   0  0  0  0  0  0  0  0  0  0  0  0
    4.4949    2.3369    2.2450 H   0  0  0  0  0  0  0  0  0  0  0  0
    8.8919    0.0334    5.1768 H   0  0  0  0  0  0  0  0  0  0  0  0
    9.7843    0.7426    3.9370 H   0  0  0  0  0  0  0  0  0  0  0  0
  1  5  1  0  0  0  0
  1 28  1  0  0  0  0
  1 29  1  0  0  0  0
  2  1  1  0  0  0  0
  2  3  1  0  0  0  0
  2  7  1  0  0  0  0
  2 30  1  6  0  0  0
  3  4  1  0  0  0  0
  3  6  1  0  0  0  0
  3 31  1  0  0  0  0
  4 32  1  0  0  0  0
  4 33  1  0  0  0  0
  4 34  1  0  0  0  0
  5 35  1  0  0  0  0
  6 36  1  0  0  0  0
  6 37  1  0  0  0  0
  6 38  1  0  0  0  0
  7 13  1  0  0  0  0
  7 39  1  0  0  0  0
  8  9  2  0  0  0  0
  8 16  1  0  0  0  0
  9 10  1  0  0  0  0
  9 40  1  0  0  0  0
 10 11  1  0  0  0  0
 10 17  1  0  0  0  0
 11 12  1  0  0  0  0
 11 16  2  0  0  0  0
 12 13  2  0  0  0  0
 13 14  1  0  0  0  0
 14 15  2  0  0  0  0
 15 16  1  0  0  0  0
 15 20  1  0  0  0  0
 17 18  1  0  0  0  0
 17 19  1  0  0  0  0
 17 41  1  0  0  0  0
 18 42  1  0  0  0  0
 18 43  1  0  0  0  0
 18 44  1  0  0  0  0
 19 45  1  0  0  0  0
 19 46  1  0  0  0  0
 19 47  1  0  0  0  0
 20 21  1  0  0  0  0
 20 48  1  0  0  0  0
 21 22  2  0  0  0  0
 21 26  1  0  0  0  0
 22 23  1  0  0  0  0
 22 49  1  0  0  0  0
 23 24  2  0  0  0  0
 23 27  1  0  0  0  0
 24 25  1  0  0  0  0
 24 50  1  0  0  0  0
 25 26  2  0  0  0  0
 25 51  1  0  0  0  0
 26 52  1  0  0  0  0
 27 53  1  0  0  0  0
 27 54  1  0  0  0  0
M  END
>  <Mol_ID>
6176

>  <Formula>
C19H26ClN7O

>  <MolWeight>
403.90904

>  <Cat>
S0734

>  <Name>
Aminopurvalanol A

>  <Synonyms>
N/A

>  <Target>
CDK

>  <Form>
free base

>  <CAS>
220792-57-4

>  <URL>
http://www.selleckchem.com/products/aminopurvalanol-a.html

$$$$
