Aminosalicylate sodium.cdx
 OpenBabel08302522033D

 17 17  0  0  0  0  0  0  0  0999 V2000
    2.6768    1.0832   -0.4458 O   0  5  0  0  0  0  0  0  0  0  0  0
    2.2735   -0.0177    0.0456 C   0  0  0  0  0  0  0  0  0  0  0  0
    3.1312   -0.6443    1.1147 C   0  0  0  0  0  0  0  0  0  0  0  0
    1.2203   -0.6537   -0.2862 O   0  0  0  0  0  0  0  0  0  0  0  0
    4.3151   -0.0470    1.5576 C   0  0  0  0  0  0  0  0  0  0  0  0
    5.1078   -0.6446    2.5393 C   0  0  0  0  0  0  0  0  0  0  0  0
    4.7275   -1.8581    3.1165 C   0  0  0  0  0  0  0  0  0  0  0  0
    3.5776   -2.4935    2.6422 C   0  0  0  0  0  0  0  0  0  0  0  0
    2.7722   -1.8814    1.6766 C   0  0  0  0  0  0  0  0  0  0  0  0
    4.7629    1.1349    1.0267 O   0  0  0  0  0  0  0  0  0  0  0  0
    5.6047   -2.5372    3.9793 N   0  0  0  0  0  0  0  0  0  0  0  0
    6.0267   -0.1511    2.8369 H   0  0  0  0  0  0  0  0  0  0  0  0
    3.2964   -3.4738    3.0120 H   0  0  0  0  0  0  0  0  0  0  0  0
    1.8695   -2.3823    1.3230 H   0  0  0  0  0  0  0  0  0  0  0  0
    4.1377    1.3334    0.2770 H   0  0  0  0  0  0  0  0  0  0  0  0
    6.2074   -1.9064    4.4970 H   0  0  0  0  0  0  0  0  0  0  0  0
    5.1331   -3.2108    4.5721 H   0  0  0  0  0  0  0  0  0  0  0  0
  1  2  1  0  0  0  0
  2  3  1  0  0  0  0
  2  4  2  0  0  0  0
  3  5  2  0  0  0  0
  5  6  1  0  0  0  0
  5 10  1  0  0  0  0
  6  7  2  0  0  0  0
  6 12  1  0  0  0  0
  7  8  1  0  0  0  0
  7 11  1  0  0  0  0
  8  9  2  0  0  0  0
  8 13  1  0  0  0  0
  9  3  1  0  0  0  0
  9 14  1  0  0  0  0
 10 15  1  0  0  0  0
 11 16  1  0  0  0  0
 11 17  1  0  0  0  0
M  CHG  1   1  -1
M  END
>  <Mol_ID>
1229

>  <Formula>
C7H6NNaO3

>  <MolWeight>
175.11721

>  <Cat>
S4073

>  <Name>
Sodium 4-Aminosalicylate

>  <Synonyms>
N/A

>  <Target>
NF-¦ÊB

>  <Form>
Sodium Salt

>  <CAS>
6018-19-5

>  <URL>
http://selleckchem.com/products/aminosalicylate-sodium.html

$$$$
