Amisulpride.cdx
 OpenBabel08302522043D

 52 53  0  0  0  0  0  0  0  0999 V2000
    0.6175   -1.6587    0.3063 C   0  0  0  0  0  0  0  0  0  0  0  0
   -0.7754   -1.1868   -0.1071 C   0  0  3  0  0  0  0  0  0  0  0  0
   -0.8482    0.2047    0.4153 N   0  0  0  0  0  0  0  0  0  0  0  0
    0.5200    0.7479    0.3573 C   0  0  0  0  0  0  0  0  0  0  0  0
    1.4805   -0.4200    0.1844 C   0  0  0  0  0  0  0  0  0  0  0  0
   -1.4249    0.2277    1.7702 C   0  0  0  0  0  0  0  0  0  0  0  0
   -1.6123    1.6372    2.3275 C   0  0  0  0  0  0  0  0  0  0  0  0
   -0.9929   -1.1902   -1.6419 C   0  0  0  0  0  0  0  0  0  0  0  0
   -0.8186   -2.4939   -2.2649 N   0  0  0  0  0  0  0  0  0  0  0  0
   -1.7771   -3.4901   -2.1976 C   0  0  0  0  0  0  0  0  0  0  0  0
   -1.4040   -4.7777   -2.8524 C   0  0  0  0  0  0  0  0  0  0  0  0
   -2.8469   -3.3553   -1.6245 O   0  0  0  0  0  0  0  0  0  0  0  0
   -0.0961   -5.2351   -2.6145 C   0  0  0  0  0  0  0  0  0  0  0  0
    0.3566   -6.4568   -3.1282 C   0  0  0  0  0  0  0  0  0  0  0  0
   -0.5048   -7.2972   -3.8334 C   0  0  0  0  0  0  0  0  0  0  0  0
   -1.7998   -6.8166   -4.0961 C   0  0  0  0  0  0  0  0  0  0  0  0
   -2.2723   -5.5811   -3.6055 C   0  0  0  0  0  0  0  0  0  0  0  0
   -3.5977   -5.3801   -3.8761 O   0  0  0  0  0  0  0  0  0  0  0  0
   -3.9864   -4.0967   -4.3440 C   0  0  0  0  0  0  0  0  0  0  0  0
   -0.0814   -8.4723   -4.4740 N   0  0  0  0  0  0  0  0  0  0  0  0
    2.0289   -6.9375   -2.7356 S   0  0  0  0  0  0  0  0  0  0  0  0
    2.9758   -6.2753   -4.0923 C   0  0  0  0  0  0  0  0  0  0  0  0
    4.4608   -6.5127   -3.8989 C   0  0  0  0  0  0  0  0  0  0  0  0
    2.4038   -6.2186   -1.5315 O   0  0  0  0  0  0  0  0  0  0  0  0
    2.0971   -8.3883   -2.7798 O   0  0  0  0  0  0  0  0  0  0  0  0
    0.6061   -1.9895    1.3525 H   0  0  0  0  0  0  0  0  0  0  0  0
    1.0071   -2.4865   -0.2928 H   0  0  0  0  0  0  0  0  0  0  0  0
   -1.5379   -1.8381    0.3407 H   0  0  0  0  0  0  0  0  0  0  0  0
    0.8036    1.3440    1.2294 H   0  0  0  0  0  0  0  0  0  0  0  0
    0.5967    1.4165   -0.5085 H   0  0  0  0  0  0  0  0  0  0  0  0
    2.2751   -0.4119    0.9375 H   0  0  0  0  0  0  0  0  0  0  0  0
    1.9512   -0.3784   -0.8044 H   0  0  0  0  0  0  0  0  0  0  0  0
   -2.4235   -0.2268    1.7258 H   0  0  0  0  0  0  0  0  0  0  0  0
   -0.8309   -0.3643    2.4740 H   0  0  0  0  0  0  0  0  0  0  0  0
   -2.1363    2.2838    1.6157 H   0  0  0  0  0  0  0  0  0  0  0  0
   -2.2080    1.5979    3.2458 H   0  0  0  0  0  0  0  0  0  0  0  0
   -0.6594    2.1092    2.5845 H   0  0  0  0  0  0  0  0  0  0  0  0
   -2.0046   -0.8351   -1.8691 H   0  0  0  0  0  0  0  0  0  0  0  0
   -0.2841   -0.5187   -2.1408 H   0  0  0  0  0  0  0  0  0  0  0  0
    0.0529   -2.6583   -2.7467 H   0  0  0  0  0  0  0  0  0  0  0  0
    0.5667   -4.6530   -1.9751 H   0  0  0  0  0  0  0  0  0  0  0  0
   -2.4833   -7.4256   -4.6875 H   0  0  0  0  0  0  0  0  0  0  0  0
   -4.2191   -3.4244   -3.5166 H   0  0  0  0  0  0  0  0  0  0  0  0
   -3.2548   -3.6557   -5.0250 H   0  0  0  0  0  0  0  0  0  0  0  0
   -4.9253   -4.2254   -4.9006 H   0  0  0  0  0  0  0  0  0  0  0  0
   -0.8355   -9.1326   -4.6509 H   0  0  0  0  0  0  0  0  0  0  0  0
    0.6837   -8.9433   -3.9729 H   0  0  0  0  0  0  0  0  0  0  0  0
    2.6263   -6.7553   -5.0105 H   0  0  0  0  0  0  0  0  0  0  0  0
    2.7738   -5.2009   -4.1478 H   0  0  0  0  0  0  0  0  0  0  0  0
    4.6763   -7.5737   -3.7354 H   0  0  0  0  0  0  0  0  0  0  0  0
    5.0197   -6.1798   -4.7783 H   0  0  0  0  0  0  0  0  0  0  0  0
    4.8358   -5.9602   -3.0304 H   0  0  0  0  0  0  0  0  0  0  0  0
  1  2  1  0  0  0  0
  1 26  1  0  0  0  0
  1 27  1  0  0  0  0
  2  3  1  0  0  0  0
  2  8  1  0  0  0  0
  2 28  1  0  0  0  0
  3  4  1  0  0  0  0
  3  6  1  0  0  0  0
  4  5  1  0  0  0  0
  4 29  1  0  0  0  0
  4 30  1  0  0  0  0
  5  1  1  0  0  0  0
  5 31  1  0  0  0  0
  5 32  1  0  0  0  0
  6  7  1  0  0  0  0
  6 33  1  0  0  0  0
  6 34  1  0  0  0  0
  7 35  1  0  0  0  0
  7 36  1  0  0  0  0
  7 37  1  0  0  0  0
  8  9  1  0  0  0  0
  8 38  1  0  0  0  0
  8 39  1  0  0  0  0
  9 10  1  0  0  0  0
  9 40  1  0  0  0  0
 10 11  1  0  0  0  0
 10 12  2  0  0  0  0
 11 13  2  0  0  0  0
 13 14  1  0  0  0  0
 13 41  1  0  0  0  0
 14 15  2  0  0  0  0
 14 21  1  0  0  0  0
 15 16  1  0  0  0  0
 15 20  1  0  0  0  0
 16 17  2  0  0  0  0
 16 42  1  0  0  0  0
 17 11  1  0  0  0  0
 17 18  1  0  0  0  0
 18 19  1  0  0  0  0
 19 43  1  0  0  0  0
 19 44  1  0  0  0  0
 19 45  1  0  0  0  0
 20 46  1  0  0  0  0
 20 47  1  0  0  0  0
 21 22  1  0  0  0  0
 21 24  2  0  0  0  0
 21 25  2  0  0  0  0
 22 23  1  0  0  0  0
 22 48  1  0  0  0  0
 22 49  1  0  0  0  0
 23 50  1  0  0  0  0
 23 51  1  0  0  0  0
 23 52  1  0  0  0  0
M  END
>  <Mol_ID>
152

>  <Formula>
C17H27N3O4S

>  <MolWeight>
369.47898

>  <Cat>
S1280

>  <Name>
Amisulpride

>  <Synonyms>
DAN-2163

>  <Target>
Dopamine Receptor

>  <Form>
free base

>  <CAS>
71675-85-9

>  <URL>
http://selleckchem.com/products/Amisulpride.html

$$$$
