AMLODIPINE (amlodipine).cdx
 OpenBabel08302521363D

 53 54  0  0  0  0  0  0  0  0999 V2000
    0.6244   -0.8639    0.2920 N   0  0  0  0  0  0  0  0  0  0  0  0
   -0.7122   -1.1924    0.1001 C   0  0  0  0  0  0  0  0  0  0  0  0
   -1.6444   -0.2028    0.1332 C   0  0  0  0  0  0  0  0  0  0  0  0
   -1.1768    1.2506    0.3375 C   0  0  3  0  0  0  0  0  0  0  0  0
    0.3319    1.4567    0.0592 C   0  0  0  0  0  0  0  0  0  0  0  0
    1.1643    0.3968    0.1174 C   0  0  0  0  0  0  0  0  0  0  0  0
    2.6715    0.3830   -0.0065 C   0  0  0  0  0  0  0  0  0  0  0  0
    0.7943    2.8133   -0.3557 C   0  0  0  0  0  0  0  0  0  0  0  0
    1.9377    3.1019   -0.6740 O   0  0  0  0  0  0  0  0  0  0  0  0
   -0.2487    3.6814   -0.4281 O   0  0  0  0  0  0  0  0  0  0  0  0
    0.0979    4.9734   -0.9340 C   0  0  0  0  0  0  0  0  0  0  0  0
   -1.5301    1.7634    1.7459 C   0  0  0  0  0  0  0  0  0  0  0  0
   -1.0511    1.1163    2.8977 C   0  0  0  0  0  0  0  0  0  0  0  0
   -1.3371    1.6155    4.1696 C   0  0  0  0  0  0  0  0  0  0  0  0
   -2.1023    2.7702    4.3096 C   0  0  0  0  0  0  0  0  0  0  0  0
   -2.5908    3.4206    3.1788 C   0  0  0  0  0  0  0  0  0  0  0  0
   -2.3110    2.9190    1.9049 C   0  0  0  0  0  0  0  0  0  0  0  0
   -0.9257   -2.6777   -0.1840 C   0  0  0  0  0  0  0  0  0  0  0  0
    0.1813   -3.4734    0.3246 O   0  0  0  0  0  0  0  0  0  0  0  0
    0.0833   -3.6968    1.7382 C   0  0  0  0  0  0  0  0  0  0  0  0
    1.1345   -4.7092    2.2328 C   0  0  0  0  0  0  0  0  0  0  0  0
    2.5201   -4.3220    1.9596 N   0  0  0  0  0  0  0  0  0  0  0  0
   -3.1077   -0.4370   -0.0970 C   0  0  0  0  0  0  0  0  0  0  0  0
   -3.7880    0.7401   -0.2038 O   0  0  0  0  0  0  0  0  0  0  0  0
   -5.1782    0.6866   -0.5865 C   0  0  0  0  0  0  0  0  0  0  0  0
   -6.0976    0.9858    0.5886 C   0  0  0  0  0  0  0  0  0  0  0  0
   -3.6126   -1.5432   -0.2127 O   0  0  0  0  0  0  0  0  0  0  0  0
    1.2647   -1.6661    0.2397 H   0  0  0  0  0  0  0  0  0  0  0  0
   -1.7130    1.8449   -0.4103 H   0  0  0  0  0  0  0  0  0  0  0  0
    3.0964   -0.1792    0.8325 H   0  0  0  0  0  0  0  0  0  0  0  0
    2.9616   -0.1228   -0.9314 H   0  0  0  0  0  0  0  0  0  0  0  0
    3.1452    1.3611    0.0197 H   0  0  0  0  0  0  0  0  0  0  0  0
    0.9051    5.4207   -0.3465 H   0  0  0  0  0  0  0  0  0  0  0  0
    0.3803    4.8996   -1.9888 H   0  0  0  0  0  0  0  0  0  0  0  0
   -0.7838    5.6148   -0.8528 H   0  0  0  0  0  0  0  0  0  0  0  0
   -0.4367    0.2214    2.8145 H   0  0  0  0  0  0  0  0  0  0  0  0
   -0.9529    1.1073    5.0500 H   0  0  0  0  0  0  0  0  0  0  0  0
   -2.3125    3.1661    5.2997 H   0  0  0  0  0  0  0  0  0  0  0  0
   -3.1832    4.3251    3.2878 H   0  0  0  0  0  0  0  0  0  0  0  0
   -2.6952    3.4478    1.0354 H   0  0  0  0  0  0  0  0  0  0  0  0
   -1.8658   -3.0906    0.1834 H   0  0  0  0  0  0  0  0  0  0  0  0
   -0.8916   -2.8061   -1.2718 H   0  0  0  0  0  0  0  0  0  0  0  0
    0.2084   -2.7490    2.2723 H   0  0  0  0  0  0  0  0  0  0  0  0
   -0.9099   -4.1004    1.9642 H   0  0  0  0  0  0  0  0  0  0  0  0
    1.0179   -4.8276    3.3166 H   0  0  0  0  0  0  0  0  0  0  0  0
    0.9522   -5.6844    1.7698 H   0  0  0  0  0  0  0  0  0  0  0  0
    3.1420   -5.0524    2.3146 H   0  0  0  0  0  0  0  0  0  0  0  0
    2.6533   -4.3164    0.9442 H   0  0  0  0  0  0  0  0  0  0  0  0
   -5.3263    1.4544   -1.3551 H   0  0  0  0  0  0  0  0  0  0  0  0
   -5.4376   -0.2731   -1.0456 H   0  0  0  0  0  0  0  0  0  0  0  0
   -5.6371    0.7544    1.5525 H   0  0  0  0  0  0  0  0  0  0  0  0
   -6.3726    2.0474    0.5972 H   0  0  0  0  0  0  0  0  0  0  0  0
   -7.0341    0.4249    0.4935 H   0  0  0  0  0  0  0  0  0  0  0  0
  1  2  1  0  0  0  0
  1 28  1  0  0  0  0
  2  3  2  0  0  0  0
  2 18  1  0  0  0  0
  3  4  1  0  0  0  0
  3 23  1  0  0  0  0
  4  5  1  0  0  0  0
  4 12  1  0  0  0  0
  4 29  1  0  0  0  0
  5  6  2  0  0  0  0
  5  8  1  0  0  0  0
  6  1  1  0  0  0  0
  6  7  1  0  0  0  0
  7 30  1  0  0  0  0
  7 31  1  0  0  0  0
  7 32  1  0  0  0  0
  8  9  2  0  0  0  0
  8 10  1  0  0  0  0
 10 11  1  0  0  0  0
 11 33  1  0  0  0  0
 11 34  1  0  0  0  0
 11 35  1  0  0  0  0
 12 13  2  0  0  0  0
 13 14  1  0  0  0  0
 13 36  1  0  0  0  0
 14 15  2  0  0  0  0
 14 37  1  0  0  0  0
 15 16  1  0  0  0  0
 15 38  1  0  0  0  0
 16 17  2  0  0  0  0
 16 39  1  0  0  0  0
 17 12  1  0  0  0  0
 17 40  1  0  0  0  0
 18 19  1  0  0  0  0
 18 41  1  0  0  0  0
 18 42  1  0  0  0  0
 19 20  1  0  0  0  0
 20 21  1  0  0  0  0
 20 43  1  0  0  0  0
 20 44  1  0  0  0  0
 21 22  1  0  0  0  0
 21 45  1  0  0  0  0
 21 46  1  0  0  0  0
 22 47  1  0  0  0  0
 22 48  1  0  0  0  0
 23 24  1  0  0  0  0
 23 27  2  0  0  0  0
 24 25  1  0  0  0  0
 25 26  1  0  0  0  0
 25 49  1  0  0  0  0
 25 50  1  0  0  0  0
 26 51  1  0  0  0  0
 26 52  1  0  0  0  0
 26 53  1  0  0  0  0
M  END
>  <Mol_ID>
675

>  <Formula>
C20H25ClN2O5

>  <MolWeight>
408.8759

>  <Cat>
S1905

>  <Name>
Amlodipine

>  <Synonyms>
UK-48340

>  <Target>
Calcium Channel

>  <Form>
free base

>  <CAS>
88150-42-9

>  <URL>
http://selleckchem.com/products/Amlodipine(Norvasc).html

$$$$
