Ammonium formate
 OpenBabel08302520393D

  7  6  0  0  0  0  0  0  0  0999 V2000
    0.8971    0.0890   -0.0437 C   0  0  0  0  0  0  0  0  0  0  0  0
    0.2808    1.2377   -0.4515 O   0  0  0  0  0  0  0  0  0  0  0  0
    1.1438    2.4040   -0.2440 N   0  0  0  0  0  0  0  0  0  0  0  0
    0.3852   -1.0200   -0.0987 O   0  0  0  0  0  0  0  0  0  0  0  0
    1.9162    0.2711    0.3343 H   0  0  0  0  0  0  0  0  0  0  0  0
    1.2266    2.7531   -1.2012 H   0  0  0  0  0  0  0  0  0  0  0  0
    0.4913    3.0397    0.2218 H   0  0  0  0  0  0  0  0  0  0  0  0
  1  2  1  0  0  0  0
  1  4  2  0  0  0  0
  1  5  1  0  0  0  0
  2  3  1  0  0  0  0
  3  6  1  0  0  0  0
  3  7  1  0  0  0  0
M  END
>  <Mol_ID>
3619

>  <Formula>
CH3NO2

>  <MolWeight>
61.04002

>  <Cat>
S6262

>  <Name>
Ammonium formate

>  <Synonyms>
N/A

>  <Target>
Others

>  <Form>
free base

>  <CAS>
540-69-2

>  <URL>
http://www.selleck.cn/products/ammonium-formate.html

$$$$
