Ammonium sulfate
 OpenBabel08302521453D

 11  9  0  0  0  0  0  0  0  0999 V2000
    0.4371    0.3647   -1.0437 S   0  0  0  0  0  0  0  0  0  0  0  0
    0.3889   -0.9830   -0.5266 O   0  0  0  0  0  0  0  0  0  0  0  0
   -0.1370    1.4778   -0.3367 O   0  0  0  0  0  0  0  0  0  0  0  0
   -0.1995    0.3361   -2.5148 O   0  0  0  0  0  0  0  0  0  0  0  0
    1.9882    0.6748   -1.3232 O   0  0  0  0  0  0  0  0  0  0  0  0
    2.4213   -0.1965    1.6778 N   0  0  0  0  0  0  0  0  0  0  0  0
   -1.1764    0.3352   -2.4192 H   0  0  0  0  0  0  0  0  0  0  0  0
    2.4872   -0.1692   -1.2440 H   0  0  0  0  0  0  0  0  0  0  0  0
    1.8134    0.0315    2.4674 H   0  0  0  0  0  0  0  0  0  0  0  0
    1.8893   -0.8879    1.1441 H   0  0  0  0  0  0  0  0  0  0  0  0
    2.4542    0.6611    1.1250 H   0  0  0  0  0  0  0  0  0  0  0  0
  1  2  2  0  0  0  0
  1  3  2  0  0  0  0
  1  4  1  0  0  0  0
  1  5  1  0  0  0  0
  4  7  1  0  0  0  0
  5  8  1  0  0  0  0
  6  9  1  0  0  0  0
  6 10  1  0  0  0  0
  6 11  1  0  0  0  0
M  END
>  <Mol_ID>
9551

>  <Formula>
H5NO4S

>  <MolWeight>
115.109

>  <Cat>
E4018

>  <Name>
Ammonium sulfate

>  <Synonyms>
Mascagnite

>  <Target>
Others

>  <Form>
Ammonium

>  <CAS>
7783-20-2

>  <URL>
https://www.selleckchem.com/products/ammonium-sulfate.html

$$$$
