Amonafide.cdx
 OpenBabel08302519563D

 38 40  0  0  0  0  0  0  0  0999 V2000
    1.0025   -1.4406    0.0914 C   0  0  0  0  0  0  0  0  0  0  0  0
    2.3665   -1.1298   -0.0423 C   0  0  0  0  0  0  0  0  0  0  0  0
    2.8170    0.1937   -0.0327 C   0  0  0  0  0  0  0  0  0  0  0  0
    1.8727    1.2201   -0.0199 C   0  0  0  0  0  0  0  0  0  0  0  0
    0.5067    0.9309    0.1078 C   0  0  0  0  0  0  0  0  0  0  0  0
    0.0661   -0.3934    0.1973 C   0  0  0  0  0  0  0  0  0  0  0  0
   -1.2867   -0.6984    0.3824 C   0  0  0  0  0  0  0  0  0  0  0  0
   -1.7240   -2.0273    0.4226 C   0  0  0  0  0  0  0  0  0  0  0  0
   -0.8077   -3.0620    0.2625 C   0  0  0  0  0  0  0  0  0  0  0  0
    0.5479   -2.7706    0.1051 C   0  0  0  0  0  0  0  0  0  0  0  0
   -0.4895    2.0326    0.0765 C   0  0  0  0  0  0  0  0  0  0  0  0
   -1.8316    1.6665    0.1566 N   0  0  0  0  0  0  0  0  0  0  0  0
   -2.2712    0.3954    0.5112 C   0  0  0  0  0  0  0  0  0  0  0  0
    4.1648    0.4766   -0.2805 N   0  0  0  0  0  0  0  0  0  0  0  0
   -3.3959    0.1385    0.9346 O   0  0  0  0  0  0  0  0  0  0  0  0
   -2.8399    2.7118   -0.0225 C   0  0  0  0  0  0  0  0  0  0  0  0
   -2.9402    3.2094   -1.4886 C   0  0  0  0  0  0  0  0  0  0  0  0
   -3.0859    2.1553   -2.5164 N   0  0  0  0  0  0  0  0  0  0  0  0
   -4.3489    1.4236   -2.3887 C   0  0  0  0  0  0  0  0  0  0  0  0
   -3.0001    2.7363   -3.8613 C   0  0  0  0  0  0  0  0  0  0  0  0
   -0.1015    3.1949   -0.0060 O   0  0  0  0  0  0  0  0  0  0  0  0
    3.0911   -1.9347   -0.1500 H   0  0  0  0  0  0  0  0  0  0  0  0
    2.1950    2.2550   -0.1167 H   0  0  0  0  0  0  0  0  0  0  0  0
   -2.7800   -2.2539    0.5559 H   0  0  0  0  0  0  0  0  0  0  0  0
   -1.1492   -4.0941    0.2583 H   0  0  0  0  0  0  0  0  0  0  0  0
    1.2504   -3.5933   -0.0150 H   0  0  0  0  0  0  0  0  0  0  0  0
    4.4573    1.4005    0.0255 H   0  0  0  0  0  0  0  0  0  0  0  0
    4.8071   -0.2476    0.0270 H   0  0  0  0  0  0  0  0  0  0  0  0
   -3.8249    2.3613    0.3040 H   0  0  0  0  0  0  0  0  0  0  0  0
   -2.5756    3.5598    0.6206 H   0  0  0  0  0  0  0  0  0  0  0  0
   -3.7626    3.9330   -1.5614 H   0  0  0  0  0  0  0  0  0  0  0  0
   -2.0190    3.7656   -1.7032 H   0  0  0  0  0  0  0  0  0  0  0  0
   -5.2187    2.0829   -2.4917 H   0  0  0  0  0  0  0  0  0  0  0  0
   -4.4168    0.6458   -3.1582 H   0  0  0  0  0  0  0  0  0  0  0  0
   -4.4233    0.9085   -1.4283 H   0  0  0  0  0  0  0  0  0  0  0  0
   -3.9203    3.2590   -4.1486 H   0  0  0  0  0  0  0  0  0  0  0  0
   -2.1700    3.4467   -3.9438 H   0  0  0  0  0  0  0  0  0  0  0  0
   -2.8087    1.9463   -4.5961 H   0  0  0  0  0  0  0  0  0  0  0  0
  1  2  2  0  0  0  0
  2  3  1  0  0  0  0
  2 22  1  0  0  0  0
  3  4  2  0  0  0  0
  3 14  1  0  0  0  0
  4  5  1  0  0  0  0
  4 23  1  0  0  0  0
  5  6  2  0  0  0  0
  5 11  1  0  0  0  0
  6  1  1  0  0  0  0
  6  7  1  0  0  0  0
  7  8  2  0  0  0  0
  8  9  1  0  0  0  0
  8 24  1  0  0  0  0
  9 10  2  0  0  0  0
  9 25  1  0  0  0  0
 10  1  1  0  0  0  0
 10 26  1  0  0  0  0
 11 12  1  0  0  0  0
 11 21  2  0  0  0  0
 12 13  1  0  0  0  0
 12 16  1  0  0  0  0
 13  7  1  0  0  0  0
 13 15  2  0  0  0  0
 14 27  1  0  0  0  0
 14 28  1  0  0  0  0
 16 17  1  0  0  0  0
 16 29  1  0  0  0  0
 16 30  1  0  0  0  0
 17 18  1  0  0  0  0
 17 31  1  0  0  0  0
 17 32  1  0  0  0  0
 18 19  1  0  0  0  0
 18 20  1  0  0  0  0
 19 33  1  0  0  0  0
 19 34  1  0  0  0  0
 19 35  1  0  0  0  0
 20 36  1  0  0  0  0
 20 37  1  0  0  0  0
 20 38  1  0  0  0  0
M  END
>  <Mol_ID>
224

>  <Formula>
C16H17N3O2

>  <MolWeight>
283.32508

>  <Cat>
S1367

>  <Name>
Amonafide

>  <Synonyms>
NSC308847,AS1413

>  <Target>
Topoisomerase

>  <Form>
free base

>  <CAS>
69408-81-7

>  <URL>
http://selleckchem.com/products/Amonafide.html

$$$$
