Amoxicillin sodium.cdx
 OpenBabel08302521433D

 43 45  0  0  0  0  0  0  0  0999 V2000
   -4.2555   -2.8981    2.8674 C   0  0  0  0  0  0  0  0  0  0  0  0
   -3.4880   -2.1163    3.7253 C   0  0  0  0  0  0  0  0  0  0  0  0
   -2.5397   -1.2352    3.1947 C   0  0  0  0  0  0  0  0  0  0  0  0
   -2.3608   -1.1256    1.8050 C   0  0  0  0  0  0  0  0  0  0  0  0
   -3.1304   -1.9487    0.9627 C   0  0  0  0  0  0  0  0  0  0  0  0
   -4.0817   -2.8221    1.4928 C   0  0  0  0  0  0  0  0  0  0  0  0
   -5.1979   -3.7619    3.3422 O   0  0  0  0  0  0  0  0  0  0  0  0
   -1.3368   -0.1545    1.2343 C   0  0  2  0  0  0  0  0  0  0  0  0
   -1.8674    0.5777   -0.0276 C   0  0  0  0  0  0  0  0  0  0  0  0
   -1.1348    0.4041   -1.1801 N   0  0  0  0  0  0  0  0  0  0  0  0
   -2.9106    1.2379   -0.0063 O   0  0  0  0  0  0  0  0  0  0  0  0
   -1.7440    0.6263   -2.5238 C   0  0  1  0  0  0  0  0  0  0  0  0
   -0.8768    1.2127   -3.6490 C   0  0  2  0  0  0  0  0  0  0  0  0
   -1.2524    0.0590   -4.4744 N   0  0  0  0  0  0  0  0  0  0  0  0
   -1.8084   -0.6248   -3.4274 C   0  0  0  0  0  0  0  0  0  0  0  0
   -0.0589   -0.8583    0.9752 N   0  0  0  0  0  0  0  0  0  0  0  0
   -2.0470   -1.7973   -3.2398 O   0  0  0  0  0  0  0  0  0  0  0  0
    0.9443    1.0917   -3.5239 S   0  0  0  0  0  0  0  0  0  0  0  0
    1.0262    0.3625   -5.2522 C   0  0  0  0  0  0  0  0  0  0  0  0
   -0.2136   -0.5566   -5.3272 C   0  0  2  0  0  0  0  0  0  0  0  0
    2.3530   -0.3908   -5.3745 C   0  0  0  0  0  0  0  0  0  0  0  0
    0.9915    1.5419   -6.2385 C   0  0  0  0  0  0  0  0  0  0  0  0
   -0.6327   -0.8685   -6.7894 C   0  0  0  0  0  0  0  0  0  0  0  0
    0.2445   -1.4727   -7.4751 O   0  0  0  0  0  0  0  0  0  0  0  0
   -1.7778   -0.4701   -7.1463 O   0  5  0  0  0  0  0  0  0  0  0  0
   -3.6186   -2.1720    4.8010 H   0  0  0  0  0  0  0  0  0  0  0  0
   -1.9496   -0.6233    3.8733 H   0  0  0  0  0  0  0  0  0  0  0  0
   -3.0158   -1.9051   -0.1204 H   0  0  0  0  0  0  0  0  0  0  0  0
   -4.6874   -3.4319    0.8282 H   0  0  0  0  0  0  0  0  0  0  0  0
   -5.2074   -3.7058    4.3105 H   0  0  0  0  0  0  0  0  0  0  0  0
   -1.1378    0.6430    1.9622 H   0  0  0  0  0  0  0  0  0  0  0  0
   -0.2795   -0.1417   -1.0894 H   0  0  0  0  0  0  0  0  0  0  0  0
   -2.7214    1.1218   -2.4539 H   0  0  0  0  0  0  0  0  0  0  0  0
   -1.2400    2.1589   -4.0624 H   0  0  0  0  0  0  0  0  0  0  0  0
    0.2965   -1.1804    1.8751 H   0  0  0  0  0  0  0  0  0  0  0  0
   -0.2721   -1.7177    0.4642 H   0  0  0  0  0  0  0  0  0  0  0  0
    0.0276   -1.5304   -4.8755 H   0  0  0  0  0  0  0  0  0  0  0  0
    2.4738   -0.8270   -6.3713 H   0  0  0  0  0  0  0  0  0  0  0  0
    3.2089    0.2767   -5.2171 H   0  0  0  0  0  0  0  0  0  0  0  0
    2.4261   -1.2082   -4.6485 H   0  0  0  0  0  0  0  0  0  0  0  0
    1.7857    2.2678   -6.0262 H   0  0  0  0  0  0  0  0  0  0  0  0
    1.1433    1.2020   -7.2688 H   0  0  0  0  0  0  0  0  0  0  0  0
    0.0353    2.0769   -6.2132 H   0  0  0  0  0  0  0  0  0  0  0  0
  1  2  2  0  0  0  0
  1  7  1  0  0  0  0
  2  3  1  0  0  0  0
  2 26  1  0  0  0  0
  3  4  2  0  0  0  0
  3 27  1  0  0  0  0
  4  5  1  0  0  0  0
  5  6  2  0  0  0  0
  5 28  1  0  0  0  0
  6  1  1  0  0  0  0
  6 29  1  0  0  0  0
  7 30  1  0  0  0  0
  8 16  1  0  0  0  0
  8 31  1  1  0  0  0
  8  9  1  0  0  0  0
  8  4  1  0  0  0  0
  9 10  1  0  0  0  0
  9 11  2  0  0  0  0
 10 32  1  0  0  0  0
 12 10  1  0  0  0  0
 12 13  1  0  0  0  0
 12 33  1  1  0  0  0
 13 14  1  0  0  0  0
 13 18  1  0  0  0  0
 13 34  1  6  0  0  0
 14 15  1  0  0  0  0
 15 12  1  0  0  0  0
 15 17  2  0  0  0  0
 16 35  1  0  0  0  0
 16 36  1  0  0  0  0
 18 19  1  0  0  0  0
 19 20  1  0  0  0  0
 19 21  1  0  0  0  0
 19 22  1  0  0  0  0
 20 14  1  0  0  0  0
 20 37  1  1  0  0  0
 20 23  1  0  0  0  0
 21 38  1  0  0  0  0
 21 39  1  0  0  0  0
 21 40  1  0  0  0  0
 22 41  1  0  0  0  0
 22 42  1  0  0  0  0
 22 43  1  0  0  0  0
 23 24  2  0  0  0  0
 23 25  1  0  0  0  0
M  CHG  1  25  -1
M  END
>  <Mol_ID>
867

>  <Formula>
C16H18N3NaO5S

>  <MolWeight>
387.38599

>  <Cat>
S2565

>  <Name>
Amoxicillin Sodium

>  <Synonyms>
Clavulanate,Amoxycillin sodium

>  <Target>
Antibiotics,Bacterial

>  <Form>
Sodium Salt

>  <CAS>
34642-77-8

>  <URL>
http://selleckchem.com/products/amoxicillin-amox.html

$$$$
