Ampalex (CX-516)
 OpenBabel08302521273D

 33 35  0  0  0  0  0  0  0  0999 V2000
    1.2196   -0.0202   -0.0639 O   0  0  0  0  0  0  0  0  0  0  0  0
    3.1954   -1.0875    0.5041 N   0  0  0  0  0  0  0  0  0  0  0  0
    2.9582    3.7361   -3.0067 N   0  0  0  0  0  0  0  0  0  0  0  0
    5.1340    4.7086   -1.4985 N   0  0  0  0  0  0  0  0  0  0  0  0
    4.5632   -3.6495    0.5876 C   0  0  0  0  0  0  0  0  0  0  0  0
    5.2641   -2.3948    0.0899 C   0  0  0  0  0  0  0  0  0  0  0  0
    3.0593   -3.5520    0.3516 C   0  0  0  0  0  0  0  0  0  0  0  0
    4.6463   -1.1352    0.6778 C   0  0  0  0  0  0  0  0  0  0  0  0
    2.4750   -2.2786    0.9631 C   0  0  0  0  0  0  0  0  0  0  0  0
    2.4401    0.0136    0.0688 C   0  0  0  0  0  0  0  0  0  0  0  0
    3.1206    1.2848   -0.2965 C   0  0  0  0  0  0  0  0  0  0  0  0
    2.7267    1.9461   -1.4670 C   0  0  0  0  0  0  0  0  0  0  0  0
    4.1107    1.8524    0.5038 C   0  0  0  0  0  0  0  0  0  0  0  0
    3.3659    3.1084   -1.8856 C   0  0  0  0  0  0  0  0  0  0  0  0
    4.4506    3.6133   -1.1223 C   0  0  0  0  0  0  0  0  0  0  0  0
    4.8016    2.9763    0.0564 C   0  0  0  0  0  0  0  0  0  0  0  0
    3.6349    4.8553   -3.3513 C   0  0  0  0  0  0  0  0  0  0  0  0
    4.7066    5.3229   -2.6204 C   0  0  0  0  0  0  0  0  0  0  0  0
    4.9684   -4.5249    0.0689 H   0  0  0  0  0  0  0  0  0  0  0  0
    4.7637   -3.7838    1.6573 H   0  0  0  0  0  0  0  0  0  0  0  0
    6.3296   -2.4321    0.3435 H   0  0  0  0  0  0  0  0  0  0  0  0
    5.1939   -2.3484   -1.0037 H   0  0  0  0  0  0  0  0  0  0  0  0
    2.8645   -3.5572   -0.7281 H   0  0  0  0  0  0  0  0  0  0  0  0
    2.5617   -4.4314    0.7757 H   0  0  0  0  0  0  0  0  0  0  0  0
    4.8427   -1.0758    1.7558 H   0  0  0  0  0  0  0  0  0  0  0  0
    5.1433   -0.2942    0.1953 H   0  0  0  0  0  0  0  0  0  0  0  0
    1.4093   -2.2192    0.7257 H   0  0  0  0  0  0  0  0  0  0  0  0
    2.5627   -2.3088    2.0545 H   0  0  0  0  0  0  0  0  0  0  0  0
    1.9098    1.5491   -2.0658 H   0  0  0  0  0  0  0  0  0  0  0  0
    4.3762    1.4134    1.4600 H   0  0  0  0  0  0  0  0  0  0  0  0
    5.6302    3.3706    0.6442 H   0  0  0  0  0  0  0  0  0  0  0  0
    3.2846    5.3695   -4.2391 H   0  0  0  0  0  0  0  0  0  0  0  0
    5.2507    6.2147   -2.9110 H   0  0  0  0  0  0  0  0  0  0  0  0
  1 10  2  0  0  0  0
  2  8  1  0  0  0  0
  2  9  1  0  0  0  0
  2 10  1  0  0  0  0
  3 14  2  0  0  0  0
  3 17  1  0  0  0  0
  4 15  2  0  0  0  0
  4 18  1  0  0  0  0
  5  6  1  0  0  0  0
  5  7  1  0  0  0  0
  5 19  1  0  0  0  0
  5 20  1  0  0  0  0
  6  8  1  0  0  0  0
  6 21  1  0  0  0  0
  6 22  1  0  0  0  0
  7  9  1  0  0  0  0
  7 23  1  0  0  0  0
  7 24  1  0  0  0  0
  8 25  1  0  0  0  0
  8 26  1  0  0  0  0
  9 27  1  0  0  0  0
  9 28  1  0  0  0  0
 10 11  1  0  0  0  0
 11 12  2  0  0  0  0
 11 13  1  0  0  0  0
 12 14  1  0  0  0  0
 12 29  1  0  0  0  0
 13 16  2  0  0  0  0
 13 30  1  0  0  0  0
 14 15  1  0  0  0  0
 15 16  1  0  0  0  0
 16 31  1  0  0  0  0
 17 18  2  0  0  0  0
 17 32  1  0  0  0  0
 18 33  1  0  0  0  0
M  END
>  <Mol_ID>
5351

>  <Formula>
C14H15N3O

>  <MolWeight>
241.2884

>  <Cat>
S0165

>  <Name>
Ampalex (CX-516)

>  <Synonyms>
Ampakine CX 516, BDP-12, SPD 420

>  <Target>
GluR

>  <Form>
Free Base

>  <CAS>
154235-83-3

>  <URL>
https://www.selleckchem.com/products/cx-516.html

$$$$
