Ampicillin
 OpenBabel08302521353D

 43 45  0  0  1  0  0  0  0  0999 V2000
   14.1252   -7.6333    5.5302 C   0  0  0  0  0  0  0  0  0  0  0  0
   14.1348   -6.4735    6.2238 O   0  0  0  0  0  0  0  0  0  0  0  0
   15.1069   -8.3545    5.4493 O   0  0  0  0  0  0  0  0  0  0  0  0
   12.1996   -5.5016    3.3698 O   0  0  0  0  0  0  0  0  0  0  0  0
    9.3942   -6.9520    3.0062 N   0  0  0  0  0  0  0  0  0  0  0  0
    8.1042   -7.4344    2.9359 C   0  0  0  0  0  0  0  0  0  0  0  0
    7.8137   -8.3832    1.7334 C   0  0  2  0  0  0  0  0  0  0  0  0
    7.3044   -7.2679    3.8572 O   0  0  0  0  0  0  0  0  0  0  0  0
    8.0879   -9.7571    2.2146 N   0  0  0  0  0  0  0  0  0  0  0  0
   12.7145  -10.4872    4.5353 C   0  0  0  0  0  0  0  0  0  0  0  0
   12.3696   -9.5851    6.8584 C   0  0  0  0  0  0  0  0  0  0  0  0
   11.7802   -6.9103    5.1827 N   0  0  0  0  0  0  0  0  0  0  0  0
   10.3756   -7.3440    5.3747 C   0  0  1  0  0  0  0  0  0  0  0  0
   12.7732   -7.9629    4.8951 C   0  0  2  0  0  0  0  0  0  0  0  0
   11.4655   -6.0570    4.1543 C   0  0  0  0  0  0  0  0  0  0  0  0
    9.9544   -6.3678    4.2470 C   0  0  1  0  0  0  0  0  0  0  0  0
   10.3787   -9.1401    5.0176 S   0  0  0  0  0  0  0  0  0  0  0  0
   12.1902   -9.3082    5.3601 C   0  0  0  0  0  0  0  0  0  0  0  0
    8.5969   -8.0238    0.4722 C   0  0  0  0  0  0  0  0  0  0  0  0
    9.5082   -8.9094   -0.1288 C   0  0  0  0  0  0  0  0  0  0  0  0
    8.4428   -6.7470   -0.0991 C   0  0  0  0  0  0  0  0  0  0  0  0
   10.2814   -8.5139   -1.2222 C   0  0  0  0  0  0  0  0  0  0  0  0
    9.2201   -6.3519   -1.1911 C   0  0  0  0  0  0  0  0  0  0  0  0
   10.1477   -7.2310   -1.7438 C   0  0  0  0  0  0  0  0  0  0  0  0
   13.2716   -6.0140    6.1402 H   0  0  0  0  0  0  0  0  0  0  0  0
   10.0021   -7.0923    2.2030 H   0  0  0  0  0  0  0  0  0  0  0  0
    6.7459   -8.3075    1.4955 H   0  0  0  0  0  0  0  0  0  0  0  0
    7.5174   -9.9055    3.0511 H   0  0  0  0  0  0  0  0  0  0  0  0
    9.0476   -9.7867    2.5653 H   0  0  0  0  0  0  0  0  0  0  0  0
   13.7941  -10.6126    4.6711 H   0  0  0  0  0  0  0  0  0  0  0  0
   12.2400  -11.4301    4.8335 H   0  0  0  0  0  0  0  0  0  0  0  0
   12.5353  -10.3483    3.4624 H   0  0  0  0  0  0  0  0  0  0  0  0
   11.8265  -10.4853    7.1698 H   0  0  0  0  0  0  0  0  0  0  0  0
   13.4241   -9.7574    7.1025 H   0  0  0  0  0  0  0  0  0  0  0  0
   12.0236   -8.7504    7.4779 H   0  0  0  0  0  0  0  0  0  0  0  0
   10.0089   -7.0828    6.3728 H   0  0  0  0  0  0  0  0  0  0  0  0
   12.9432   -7.9740    3.8087 H   0  0  0  0  0  0  0  0  0  0  0  0
    9.3730   -5.5045    4.5907 H   0  0  0  0  0  0  0  0  0  0  0  0
    9.6298   -9.9236    0.2465 H   0  0  0  0  0  0  0  0  0  0  0  0
    7.7271   -6.0383    0.3148 H   0  0  0  0  0  0  0  0  0  0  0  0
   10.9884   -9.2112   -1.6651 H   0  0  0  0  0  0  0  0  0  0  0  0
    9.1052   -5.3548   -1.6095 H   0  0  0  0  0  0  0  0  0  0  0  0
   10.7591   -6.9211   -2.5874 H   0  0  0  0  0  0  0  0  0  0  0  0
  1  2  1  0  0  0  0
  1  3  2  0  0  0  0
  2 25  1  0  0  0  0
  4 15  2  0  0  0  0
  5  6  1  0  0  0  0
  5 26  1  0  0  0  0
  6  8  2  0  0  0  0
  7 19  1  0  0  0  0
  7 27  1  6  0  0  0
  7  9  1  0  0  0  0
  7  6  1  0  0  0  0
  9 28  1  0  0  0  0
  9 29  1  0  0  0  0
 10 18  1  0  0  0  0
 10 30  1  0  0  0  0
 10 31  1  0  0  0  0
 10 32  1  0  0  0  0
 11 18  1  0  0  0  0
 11 33  1  0  0  0  0
 11 34  1  0  0  0  0
 11 35  1  0  0  0  0
 12 13  1  0  0  0  0
 12 14  1  0  0  0  0
 12 15  1  0  0  0  0
 13 16  1  0  0  0  0
 13 17  1  0  0  0  0
 13 36  1  1  0  0  0
 14  1  1  0  0  0  0
 14 18  1  0  0  0  0
 14 37  1  6  0  0  0
 15 16  1  0  0  0  0
 16 38  1  1  0  0  0
 16  5  1  0  0  0  0
 17 18  1  0  0  0  0
 19 20  2  0  0  0  0
 19 21  1  0  0  0  0
 20 22  1  0  0  0  0
 20 39  1  0  0  0  0
 21 23  2  0  0  0  0
 21 40  1  0  0  0  0
 22 24  2  0  0  0  0
 22 41  1  0  0  0  0
 23 24  1  0  0  0  0
 23 42  1  0  0  0  0
 24 43  1  0  0  0  0
M  END
>  <Mol_ID>
7006

>  <Formula>
C16H19N3O4S

>  <MolWeight>
349.40476

>  <Cat>
E4353

>  <Name>
Ampicillin

>  <Synonyms>
Ampicillin

>  <Target>
Antibacterial

>  <Form>
free base

>  <CAS>
69-53-4

>  <URL>
https://www.selleckchem.com/products/ampicillin.html

$$$$
