Ampicillin sodium.cdx
 OpenBabel08302520143D

 42 44  0  0  0  0  0  0  0  0999 V2000
   -0.8235    0.3580    0.6627 N   0  0  0  0  0  0  0  0  0  0  0  0
    0.2160    1.3217    0.2515 C   0  0  2  0  0  0  0  0  0  0  0  0
    1.5224    0.5246    0.0365 C   0  0  0  0  0  0  0  0  0  0  0  0
    0.9385   -1.1733   -0.5033 S   0  0  0  0  0  0  0  0  0  0  0  0
   -0.4978   -1.0725    0.6383 C   0  0  2  0  0  0  0  0  0  0  0  0
   -1.9086   -1.3234    0.0680 C   0  0  1  0  0  0  0  0  0  0  0  0
   -1.9610    0.2073   -0.0778 C   0  0  0  0  0  0  0  0  0  0  0  0
    0.3584    2.5748    1.1564 C   0  0  0  0  0  0  0  0  0  0  0  0
    1.2574    3.3912    0.7981 O   0  0  0  0  0  0  0  0  0  0  0  0
   -0.4260    2.6489    2.1455 O   0  5  0  0  0  0  0  0  0  0  0  0
   -2.6117    0.9675   -0.7688 O   0  0  0  0  0  0  0  0  0  0  0  0
    2.3962    1.1027   -1.0815 C   0  0  0  0  0  0  0  0  0  0  0  0
    2.3676    0.3120    1.3021 C   0  0  0  0  0  0  0  0  0  0  0  0
   -2.0874   -3.4699   -1.1978 C   0  0  0  0  0  0  0  0  0  0  0  0
   -2.1827   -4.1160   -2.6024 C   0  0  1  0  0  0  0  0  0  0  0  0
   -2.1316   -4.1200   -0.1523 O   0  0  0  0  0  0  0  0  0  0  0  0
   -2.0054   -2.0950   -1.2008 N   0  0  0  0  0  0  0  0  0  0  0  0
   -1.0708   -5.1192   -2.8663 C   0  0  0  0  0  0  0  0  0  0  0  0
   -0.8673   -6.2458   -2.0515 C   0  0  0  0  0  0  0  0  0  0  0  0
    0.1707   -7.1436   -2.3174 C   0  0  0  0  0  0  0  0  0  0  0  0
    1.0170   -6.9323   -3.4031 C   0  0  0  0  0  0  0  0  0  0  0  0
    0.8296   -5.8210   -4.2207 C   0  0  0  0  0  0  0  0  0  0  0  0
   -0.2062   -4.9223   -3.9558 C   0  0  0  0  0  0  0  0  0  0  0  0
   -3.5207   -4.7237   -2.7552 N   0  0  0  0  0  0  0  0  0  0  0  0
   -0.1072    1.7226   -0.7210 H   0  0  0  0  0  0  0  0  0  0  0  0
   -0.3197   -1.4849    1.6351 H   0  0  0  0  0  0  0  0  0  0  0  0
   -2.6352   -1.6811    0.8080 H   0  0  0  0  0  0  0  0  0  0  0  0
    2.7627    2.1011   -0.8208 H   0  0  0  0  0  0  0  0  0  0  0  0
    3.2801    0.4809   -1.2662 H   0  0  0  0  0  0  0  0  0  0  0  0
    1.8450    1.1942   -2.0241 H   0  0  0  0  0  0  0  0  0  0  0  0
    3.1579   -0.4317    1.1337 H   0  0  0  0  0  0  0  0  0  0  0  0
    2.8713    1.2365    1.6039 H   0  0  0  0  0  0  0  0  0  0  0  0
    1.7675   -0.0284    2.1527 H   0  0  0  0  0  0  0  0  0  0  0  0
   -2.1200   -3.3175   -3.3507 H   0  0  0  0  0  0  0  0  0  0  0  0
   -1.9872   -1.5887   -2.0775 H   0  0  0  0  0  0  0  0  0  0  0  0
   -1.5010   -6.4218   -1.1838 H   0  0  0  0  0  0  0  0  0  0  0  0
    0.3258   -8.0001   -1.6666 H   0  0  0  0  0  0  0  0  0  0  0  0
    1.8289   -7.6254   -3.6044 H   0  0  0  0  0  0  0  0  0  0  0  0
    1.4970   -5.6450   -5.0604 H   0  0  0  0  0  0  0  0  0  0  0  0
   -0.3238   -4.0551   -4.6020 H   0  0  0  0  0  0  0  0  0  0  0  0
   -3.5419   -5.2507   -3.6242 H   0  0  0  0  0  0  0  0  0  0  0  0
   -3.6379   -5.4000   -1.9994 H   0  0  0  0  0  0  0  0  0  0  0  0
  1  2  1  0  0  0  0
  1  7  1  0  0  0  0
  1  5  1  0  0  0  0
  2  3  1  0  0  0  0
  2 25  1  6  0  0  0
  2  8  1  0  0  0  0
  3  4  1  0  0  0  0
  3 12  1  0  0  0  0
  3 13  1  0  0  0  0
  5  4  1  0  0  0  0
  5  6  1  0  0  0  0
  5 26  1  1  0  0  0
  6  7  1  0  0  0  0
  6 27  1  1  0  0  0
  6 17  1  0  0  0  0
  7 11  2  0  0  0  0
  8  9  2  0  0  0  0
  8 10  1  0  0  0  0
 12 28  1  0  0  0  0
 12 29  1  0  0  0  0
 12 30  1  0  0  0  0
 13 31  1  0  0  0  0
 13 32  1  0  0  0  0
 13 33  1  0  0  0  0
 14 15  1  0  0  0  0
 14 16  2  0  0  0  0
 14 17  1  0  0  0  0
 15 18  1  0  0  0  0
 15 24  1  0  0  0  0
 15 34  1  6  0  0  0
 17 35  1  0  0  0  0
 18 19  2  0  0  0  0
 18 23  1  0  0  0  0
 19 20  1  0  0  0  0
 19 36  1  0  0  0  0
 20 21  2  0  0  0  0
 20 37  1  0  0  0  0
 21 22  1  0  0  0  0
 21 38  1  0  0  0  0
 22 23  2  0  0  0  0
 22 39  1  0  0  0  0
 23 40  1  0  0  0  0
 24 41  1  0  0  0  0
 24 42  1  0  0  0  0
M  CHG  1  10  -1
M  END
>  <Mol_ID>
323

>  <Formula>
C16H18N3NaO4S

>  <MolWeight>
371.38659

>  <Cat>
S3170

>  <Name>
Ampicillin sodium

>  <Synonyms>
D-(-)-¦Á-Aminobenzylpenicillin sodium salt

>  <Target>
Antibiotics,Antibiotics for Mammalian Cell Culture,Selection Antibiotics for Transfected Cell

>  <Form>
Sodium

>  <CAS>
69-52-3

>  <URL>
http://selleckchem.com/products/ampicillin-sodium.html

$$$$
