Ampiroxicam.cdx
 OpenBabel08302522033D

 52 54  0  0  0  0  0  0  0  0999 V2000
    0.0213   -2.1170    0.4320 C   0  0  0  0  0  0  0  0  0  0  0  0
   -0.9256   -0.9906    0.1054 C   0  0  0  0  0  0  0  0  0  0  0  0
    1.3636   -2.0091    0.1987 C   0  0  0  0  0  0  0  0  0  0  0  0
   -0.6543   -3.1085    1.1084 O   0  0  0  0  0  0  0  0  0  0  0  0
   -0.4895    0.3367    0.0330 C   0  0  0  0  0  0  0  0  0  0  0  0
   -2.3052   -1.1994   -0.0561 C   0  0  0  0  0  0  0  0  0  0  0  0
    1.8221   -0.8109   -0.4993 N   0  0  0  0  0  0  0  0  0  0  0  0
    2.5174   -2.8976    0.6663 C   0  0  0  0  0  0  0  0  0  0  0  0
   -0.5365   -4.5073    0.8366 C   0  0  3  0  0  0  0  0  0  0  0  0
    1.2325    0.6079    0.2259 S   0  0  0  0  0  0  0  0  0  0  0  0
   -1.3491    1.4113   -0.2324 C   0  0  0  0  0  0  0  0  0  0  0  0
   -3.1877   -0.1362   -0.2964 C   0  0  0  0  0  0  0  0  0  0  0  0
    1.8411   -0.8229   -1.9795 C   0  0  0  0  0  0  0  0  0  0  0  0
    3.7240   -2.4914    0.1282 N   0  0  0  0  0  0  0  0  0  0  0  0
    2.3664   -3.8770    1.3822 O   0  0  0  0  0  0  0  0  0  0  0  0
   -1.5722   -5.2455    1.5396 O   0  0  0  0  0  0  0  0  0  0  0  0
   -0.4892   -4.8839   -0.6428 C   0  0  0  0  0  0  0  0  0  0  0  0
    1.6089    1.7267   -0.6100 O   0  0  0  0  0  0  0  0  0  0  0  0
    1.5268    0.5832    1.6434 O   0  0  0  0  0  0  0  0  0  0  0  0
   -2.7101    1.1690   -0.3878 C   0  0  0  0  0  0  0  0  0  0  0  0
    4.9702   -3.0906    0.2762 C   0  0  0  0  0  0  0  0  0  0  0  0
   -2.8595   -5.1259    1.1620 C   0  0  0  0  0  0  0  0  0  0  0  0
    5.4550   -3.5190    1.5028 C   0  0  0  0  0  0  0  0  0  0  0  0
    5.7104   -3.1127   -0.8541 N   0  0  0  0  0  0  0  0  0  0  0  0
   -3.6213   -5.8384    2.0421 O   0  0  0  0  0  0  0  0  0  0  0  0
   -3.2980   -4.4988    0.2096 O   0  0  0  0  0  0  0  0  0  0  0  0
    6.7630   -4.0063    1.5657 C   0  0  0  0  0  0  0  0  0  0  0  0
    6.9427   -3.6639   -0.7774 C   0  0  0  0  0  0  0  0  0  0  0  0
   -5.0385   -5.8759    1.7970 C   0  0  0  0  0  0  0  0  0  0  0  0
    7.5145   -4.1081    0.4008 C   0  0  0  0  0  0  0  0  0  0  0  0
   -5.7332   -4.6726    2.4106 C   0  0  0  0  0  0  0  0  0  0  0  0
   -2.7289   -2.1956    0.0196 H   0  0  0  0  0  0  0  0  0  0  0  0
    0.3739   -4.8738    1.3065 H   0  0  0  0  0  0  0  0  0  0  0  0
   -0.9645    2.4264   -0.3024 H   0  0  0  0  0  0  0  0  0  0  0  0
   -4.2540   -0.3307   -0.3919 H   0  0  0  0  0  0  0  0  0  0  0  0
    0.8494   -0.6670   -2.4074 H   0  0  0  0  0  0  0  0  0  0  0  0
    2.5263   -0.0470   -2.3391 H   0  0  0  0  0  0  0  0  0  0  0  0
    2.2324   -1.7782   -2.3455 H   0  0  0  0  0  0  0  0  0  0  0  0
    3.6912   -1.8373   -0.6386 H   0  0  0  0  0  0  0  0  0  0  0  0
    0.4611   -4.5826   -1.0923 H   0  0  0  0  0  0  0  0  0  0  0  0
   -0.6045   -5.9648   -0.7753 H   0  0  0  0  0  0  0  0  0  0  0  0
   -1.2759   -4.3892   -1.2190 H   0  0  0  0  0  0  0  0  0  0  0  0
   -3.3954    1.9918   -0.5700 H   0  0  0  0  0  0  0  0  0  0  0  0
    4.8689   -3.4097    2.4084 H   0  0  0  0  0  0  0  0  0  0  0  0
    7.1956   -4.2962    2.5195 H   0  0  0  0  0  0  0  0  0  0  0  0
    7.4765   -3.7393   -1.7210 H   0  0  0  0  0  0  0  0  0  0  0  0
   -5.2561   -5.9598    0.7253 H   0  0  0  0  0  0  0  0  0  0  0  0
   -5.4181   -6.7878    2.2718 H   0  0  0  0  0  0  0  0  0  0  0  0
    8.5209   -4.5131    0.4116 H   0  0  0  0  0  0  0  0  0  0  0  0
   -5.4134   -3.7449    1.9263 H   0  0  0  0  0  0  0  0  0  0  0  0
   -6.8198   -4.7585    2.3086 H   0  0  0  0  0  0  0  0  0  0  0  0
   -5.4883   -4.5819    3.4740 H   0  0  0  0  0  0  0  0  0  0  0  0
  1  2  1  0  0  0  0
  1  3  2  0  0  0  0
  1  4  1  0  0  0  0
  2  5  2  0  0  0  0
  2  6  1  0  0  0  0
  3  7  1  0  0  0  0
  3  8  1  0  0  0  0
  4  9  1  0  0  0  0
  5 10  1  0  0  0  0
  5 11  1  0  0  0  0
  6 12  2  0  0  0  0
  6 32  1  0  0  0  0
  7 13  1  0  0  0  0
  7 10  1  0  0  0  0
  8 14  1  0  0  0  0
  8 15  2  0  0  0  0
  9 16  1  0  0  0  0
  9 17  1  0  0  0  0
  9 33  1  0  0  0  0
 10 18  2  0  0  0  0
 10 19  2  0  0  0  0
 11 20  2  0  0  0  0
 11 34  1  0  0  0  0
 12 20  1  0  0  0  0
 12 35  1  0  0  0  0
 13 36  1  0  0  0  0
 13 37  1  0  0  0  0
 13 38  1  0  0  0  0
 14 21  1  0  0  0  0
 14 39  1  0  0  0  0
 16 22  1  0  0  0  0
 17 40  1  0  0  0  0
 17 41  1  0  0  0  0
 17 42  1  0  0  0  0
 20 43  1  0  0  0  0
 21 23  2  0  0  0  0
 21 24  1  0  0  0  0
 22 25  1  0  0  0  0
 22 26  2  0  0  0  0
 23 27  1  0  0  0  0
 23 44  1  0  0  0  0
 24 28  2  0  0  0  0
 25 29  1  0  0  0  0
 27 30  2  0  0  0  0
 27 45  1  0  0  0  0
 28 30  1  0  0  0  0
 28 46  1  0  0  0  0
 29 31  1  0  0  0  0
 29 47  1  0  0  0  0
 29 48  1  0  0  0  0
 30 49  1  0  0  0  0
 31 50  1  0  0  0  0
 31 51  1  0  0  0  0
 31 52  1  0  0  0  0
M  END
>  <Mol_ID>
1194

>  <Formula>
C20H21N3O7S

>  <MolWeight>
447.46164

>  <Cat>
S4011

>  <Name>
Ampiroxicam

>  <Synonyms>
CP 65703

>  <Target>
COX

>  <Form>
free base

>  <CAS>
99464-64-9

>  <URL>
http://selleckchem.com/products/ampiroxicam.html

$$$$
