Amprolium HCl.cdx
 OpenBabel08302521383D

 37 38  0  0  0  0  0  0  0  0999 V2000
    5.2114   -0.8526    2.5934 C   0  0  0  0  0  0  0  0  0  0  0  0
    5.8672    0.3301    2.9219 C   0  0  0  0  0  0  0  0  0  0  0  0
    5.5178    1.4887    2.2620 C   0  0  0  0  0  0  0  0  0  0  0  0
    4.5486    1.4394    1.2753 C   0  0  0  0  0  0  0  0  0  0  0  0
    3.9180    0.2861    0.9325 N   0  3  0  0  0  0  0  0  0  0  0  0
    4.2117   -0.8727    1.6032 C   0  0  0  0  0  0  0  0  0  0  0  0
    3.5377   -2.1887    1.3222 C   0  0  0  0  0  0  0  0  0  0  0  0
    2.8767    0.3507   -0.1332 C   0  0  0  0  0  0  0  0  0  0  0  0
    3.3772    0.8640   -1.4435 C   0  0  0  0  0  0  0  0  0  0  0  0
    3.2338    2.1944   -1.7901 C   0  0  0  0  0  0  0  0  0  0  0  0
    3.6160    2.7112   -2.9652 N   0  0  0  0  0  0  0  0  0  0  0  0
    4.1600    1.8582   -3.8466 C   0  0  0  0  0  0  0  0  0  0  0  0
    4.3894    0.5586   -3.5841 N   0  0  0  0  0  0  0  0  0  0  0  0
    4.0148    0.0861   -2.3865 C   0  0  0  0  0  0  0  0  0  0  0  0
    4.3952   -1.2277   -2.1337 N   0  0  0  0  0  0  0  0  0  0  0  0
    4.5781    2.4127   -5.1823 C   0  0  0  0  0  0  0  0  0  0  0  0
    3.7447    1.9139   -6.3648 C   0  0  0  0  0  0  0  0  0  0  0  0
    2.2712    2.2851   -6.2728 C   0  0  0  0  0  0  0  0  0  0  0  0
    5.4825   -1.7641    3.1209 H   0  0  0  0  0  0  0  0  0  0  0  0
    6.6373    0.3392    3.6795 H   0  0  0  0  0  0  0  0  0  0  0  0
    6.0055    2.4325    2.5063 H   0  0  0  0  0  0  0  0  0  0  0  0
    4.2491    2.3513    0.7708 H   0  0  0  0  0  0  0  0  0  0  0  0
    2.4727   -2.0773    1.1051 H   0  0  0  0  0  0  0  0  0  0  0  0
    4.0379   -2.6946    0.4905 H   0  0  0  0  0  0  0  0  0  0  0  0
    3.5943   -2.8414    2.2000 H   0  0  0  0  0  0  0  0  0  0  0  0
    2.4078   -0.6217   -0.2847 H   0  0  0  0  0  0  0  0  0  0  0  0
    2.0874    1.0018    0.2662 H   0  0  0  0  0  0  0  0  0  0  0  0
    2.8172    2.9316   -1.1075 H   0  0  0  0  0  0  0  0  0  0  0  0
    4.8819   -1.5364   -2.9752 H   0  0  0  0  0  0  0  0  0  0  0  0
    3.6317   -1.8701   -1.9484 H   0  0  0  0  0  0  0  0  0  0  0  0
    4.5400    3.5084   -5.1478 H   0  0  0  0  0  0  0  0  0  0  0  0
    5.6281    2.1422   -5.3440 H   0  0  0  0  0  0  0  0  0  0  0  0
    4.1560    2.3527   -7.2822 H   0  0  0  0  0  0  0  0  0  0  0  0
    3.8368    0.8261   -6.4653 H   0  0  0  0  0  0  0  0  0  0  0  0
    2.1413    3.3572   -6.0951 H   0  0  0  0  0  0  0  0  0  0  0  0
    1.7613    2.0333   -7.2089 H   0  0  0  0  0  0  0  0  0  0  0  0
    1.7744    1.7368   -5.4668 H   0  0  0  0  0  0  0  0  0  0  0  0
  1  2  2  0  0  0  0
  1 19  1  0  0  0  0
  2  3  1  0  0  0  0
  2 20  1  0  0  0  0
  3  4  2  0  0  0  0
  3 21  1  0  0  0  0
  4  5  1  0  0  0  0
  4 22  1  0  0  0  0
  5  6  2  0  0  0  0
  5  8  1  0  0  0  0
  6  1  1  0  0  0  0
  6  7  1  0  0  0  0
  7 23  1  0  0  0  0
  7 24  1  0  0  0  0
  7 25  1  0  0  0  0
  8  9  1  0  0  0  0
  8 26  1  0  0  0  0
  8 27  1  0  0  0  0
  9 10  2  0  0  0  0
 10 11  1  0  0  0  0
 10 28  1  0  0  0  0
 11 12  2  0  0  0  0
 12 13  1  0  0  0  0
 12 16  1  0  0  0  0
 13 14  2  0  0  0  0
 14  9  1  0  0  0  0
 14 15  1  0  0  0  0
 15 29  1  0  0  0  0
 15 30  1  0  0  0  0
 16 17  1  0  0  0  0
 16 31  1  0  0  0  0
 16 32  1  0  0  0  0
 17 18  1  0  0  0  0
 17 33  1  0  0  0  0
 17 34  1  0  0  0  0
 18 35  1  0  0  0  0
 18 36  1  0  0  0  0
 18 37  1  0  0  0  0
M  CHG  1   5   1
M  END
>  <Mol_ID>
7721

>  <Formula>
C14H20Cl2N4

>  <MolWeight>
315.2414

>  <Cat>
S4144

>  <Name>
Amprolium HCl

>  <Synonyms>
N/A

>  <Target>
Vitamin

>  <Form>
Hydrochloride

>  <CAS>
137-88-2

>  <URL>
http://selleckchem.com/products/amprolium-hcl.html

$$$$
