Amylmetacresol
 OpenBabel08302520383D

 31 31  0  0  0  0  0  0  0  0999 V2000
   -0.9845   -1.0375   -0.0683 C   0  0  0  0  0  0  0  0  0  0  0  0
   -0.6543   -0.0959   -1.0502 C   0  0  0  0  0  0  0  0  0  0  0  0
   -0.0596   -1.2460    0.9674 C   0  0  0  0  0  0  0  0  0  0  0  0
   -2.2748   -1.8248   -0.0836 C   0  0  0  0  0  0  0  0  0  0  0  0
    0.5196    0.6559   -0.9745 C   0  0  0  0  0  0  0  0  0  0  0  0
   -1.4390    0.1402   -2.1427 O   0  0  0  0  0  0  0  0  0  0  0  0
    1.1314   -0.5155    1.0352 C   0  0  0  0  0  0  0  0  0  0  0  0
   -3.1697   -1.6338    1.1515 C   0  0  0  0  0  0  0  0  0  0  0  0
    1.4290    0.4462    0.0668 C   0  0  0  0  0  0  0  0  0  0  0  0
   -3.6470   -0.1995    1.4083 C   0  0  0  0  0  0  0  0  0  0  0  0
    2.6932    1.2480    0.1267 C   0  0  0  0  0  0  0  0  0  0  0  0
   -4.5073    0.3738    0.2832 C   0  0  0  0  0  0  0  0  0  0  0  0
   -5.0006    1.7727    0.6233 C   0  0  0  0  0  0  0  0  0  0  0  0
   -0.2614   -1.9841    1.7418 H   0  0  0  0  0  0  0  0  0  0  0  0
   -2.8665   -1.6094   -0.9783 H   0  0  0  0  0  0  0  0  0  0  0  0
   -2.0121   -2.8889   -0.1638 H   0  0  0  0  0  0  0  0  0  0  0  0
    0.7280    1.3949   -1.7441 H   0  0  0  0  0  0  0  0  0  0  0  0
   -1.8040   -0.7127   -2.4272 H   0  0  0  0  0  0  0  0  0  0  0  0
    1.8228   -0.7037    1.8541 H   0  0  0  0  0  0  0  0  0  0  0  0
   -4.0478   -2.2842    1.0420 H   0  0  0  0  0  0  0  0  0  0  0  0
   -2.6439   -1.9870    2.0472 H   0  0  0  0  0  0  0  0  0  0  0  0
   -4.2336   -0.2014    2.3362 H   0  0  0  0  0  0  0  0  0  0  0  0
   -2.7863    0.4551    1.5909 H   0  0  0  0  0  0  0  0  0  0  0  0
    3.2491    1.1486   -0.8118 H   0  0  0  0  0  0  0  0  0  0  0  0
    2.4621    2.3048    0.2966 H   0  0  0  0  0  0  0  0  0  0  0  0
    3.3472    0.9089    0.9368 H   0  0  0  0  0  0  0  0  0  0  0  0
   -3.9365    0.4245   -0.6488 H   0  0  0  0  0  0  0  0  0  0  0  0
   -5.3692   -0.2780    0.1035 H   0  0  0  0  0  0  0  0  0  0  0  0
   -4.1602    2.4566    0.7848 H   0  0  0  0  0  0  0  0  0  0  0  0
   -5.6088    2.1714   -0.1956 H   0  0  0  0  0  0  0  0  0  0  0  0
   -5.6151    1.7643    1.5291 H   0  0  0  0  0  0  0  0  0  0  0  0
  1  2  2  0  0  0  0
  1  3  1  0  0  0  0
  1  4  1  0  0  0  0
  2  5  1  0  0  0  0
  2  6  1  0  0  0  0
  3  7  2  0  0  0  0
  3 14  1  0  0  0  0
  4  8  1  0  0  0  0
  4 15  1  0  0  0  0
  4 16  1  0  0  0  0
  5  9  2  0  0  0  0
  5 17  1  0  0  0  0
  6 18  1  0  0  0  0
  7  9  1  0  0  0  0
  7 19  1  0  0  0  0
  8 10  1  0  0  0  0
  8 20  1  0  0  0  0
  8 21  1  0  0  0  0
  9 11  1  0  0  0  0
 10 12  1  0  0  0  0
 10 22  1  0  0  0  0
 10 23  1  0  0  0  0
 11 24  1  0  0  0  0
 11 25  1  0  0  0  0
 11 26  1  0  0  0  0
 12 13  1  0  0  0  0
 12 27  1  0  0  0  0
 12 28  1  0  0  0  0
 13 29  1  0  0  0  0
 13 30  1  0  0  0  0
 13 31  1  0  0  0  0
M  END
>  <Mol_ID>
3470

>  <Formula>
C12H18O

>  <MolWeight>
178.27072

>  <Cat>
S6173

>  <Name>
Amylmetacresol

>  <Synonyms>
N/A

>  <Target>
Anti-infection

>  <Form>
free base

>  <CAS>
1300-94-3

>  <URL>
http://www.selleck.cn/products/amylmetacresol.html

$$$$
