ANA-12.cdx
 OpenBabel08302519593D

 50 53  0  0  0  0  0  0  0  0999 V2000
    1.6258   -0.1016    0.3512 C   0  0  0  0  0  0  0  0  0  0  0  0
    0.7269   -1.1088    0.7021 C   0  0  0  0  0  0  0  0  0  0  0  0
   -0.6501   -0.9274    0.5244 C   0  0  0  0  0  0  0  0  0  0  0  0
   -1.1388    0.2783    0.0044 C   0  0  0  0  0  0  0  0  0  0  0  0
   -0.2272    1.3347   -0.2010 C   0  0  0  0  0  0  0  0  0  0  0  0
    1.1485    1.1345   -0.0696 C   0  0  0  0  0  0  0  0  0  0  0  0
   -0.6727    2.6486   -0.4754 N   0  0  0  0  0  0  0  0  0  0  0  0
   -0.9573    3.4534    0.6413 C   0  0  0  0  0  0  0  0  0  0  0  0
   -1.9047    4.5116    0.3512 C   0  0  0  0  0  0  0  0  0  0  0  0
   -2.7846    5.2713    1.6096 S   0  0  0  0  0  0  0  0  0  0  0  0
   -4.1901    5.2198    0.6124 C   0  0  0  0  0  0  0  0  0  0  0  0
   -3.8227    5.0622   -0.7275 C   0  0  0  0  0  0  0  0  0  0  0  0
   -2.3979    4.9514   -0.8644 C   0  0  0  0  0  0  0  0  0  0  0  0
   -5.5299    5.2453    1.0233 C   0  0  0  0  0  0  0  0  0  0  0  0
   -6.5065    4.9657    0.0673 C   0  0  0  0  0  0  0  0  0  0  0  0
   -6.1684    4.7957   -1.2717 C   0  0  0  0  0  0  0  0  0  0  0  0
   -4.8403    4.9034   -1.6913 C   0  0  0  0  0  0  0  0  0  0  0  0
   -0.5673    3.1802    1.7801 O   0  0  0  0  0  0  0  0  0  0  0  0
   -2.5666    0.4236   -0.4321 C   0  0  0  0  0  0  0  0  0  0  0  0
   -2.8568    1.2821   -1.2621 O   0  0  0  0  0  0  0  0  0  0  0  0
   -3.4923   -0.4603    0.0804 N   0  0  0  0  0  0  0  0  0  0  0  0
   -4.8892   -0.4974   -0.3718 C   0  0  3  0  0  0  0  0  0  0  0  0
   -5.7841   -0.5817    0.8729 C   0  0  0  0  0  0  0  0  0  0  0  0
   -7.1108   -0.2924    0.7177 N   0  0  0  0  0  0  0  0  0  0  0  0
   -7.7948   -0.1989   -0.5526 C   0  0  0  0  0  0  0  0  0  0  0  0
   -7.7346   -1.5307   -1.2904 C   0  0  0  0  0  0  0  0  0  0  0  0
   -6.4322   -1.7367   -2.0672 C   0  0  0  0  0  0  0  0  0  0  0  0
   -5.1262   -1.7272   -1.2603 C   0  0  0  0  0  0  0  0  0  0  0  0
   -5.3703   -0.9686    1.9665 O   0  0  0  0  0  0  0  0  0  0  0  0
    2.6968   -0.2666    0.4325 H   0  0  0  0  0  0  0  0  0  0  0  0
    1.1042   -2.0505    1.0946 H   0  0  0  0  0  0  0  0  0  0  0  0
   -1.3139   -1.7487    0.7772 H   0  0  0  0  0  0  0  0  0  0  0  0
    1.8435    1.9392   -0.2996 H   0  0  0  0  0  0  0  0  0  0  0  0
   -1.4736    2.6450   -1.1103 H   0  0  0  0  0  0  0  0  0  0  0  0
   -1.9164    4.7621   -1.8165 H   0  0  0  0  0  0  0  0  0  0  0  0
   -5.7851    5.3572    2.0722 H   0  0  0  0  0  0  0  0  0  0  0  0
   -7.5387    4.8488    0.3846 H   0  0  0  0  0  0  0  0  0  0  0  0
   -6.9368    4.5399   -1.9964 H   0  0  0  0  0  0  0  0  0  0  0  0
   -4.5805    4.7312   -2.7329 H   0  0  0  0  0  0  0  0  0  0  0  0
   -3.2962   -0.9583    0.9430 H   0  0  0  0  0  0  0  0  0  0  0  0
   -5.1046    0.4276   -0.9145 H   0  0  0  0  0  0  0  0  0  0  0  0
   -7.6586   -0.4396    1.5574 H   0  0  0  0  0  0  0  0  0  0  0  0
   -7.3586    0.6075   -1.1439 H   0  0  0  0  0  0  0  0  0  0  0  0
   -8.8325    0.0709   -0.3364 H   0  0  0  0  0  0  0  0  0  0  0  0
   -8.5634   -1.5692   -2.0084 H   0  0  0  0  0  0  0  0  0  0  0  0
   -7.8832   -2.3636   -0.5915 H   0  0  0  0  0  0  0  0  0  0  0  0
   -6.3695   -0.9801   -2.8575 H   0  0  0  0  0  0  0  0  0  0  0  0
   -6.5019   -2.7070   -2.5789 H   0  0  0  0  0  0  0  0  0  0  0  0
   -4.3028   -1.8069   -1.9830 H   0  0  0  0  0  0  0  0  0  0  0  0
   -5.0799   -2.6396   -0.6510 H   0  0  0  0  0  0  0  0  0  0  0  0
  1  2  2  0  0  0  0
  1 30  1  0  0  0  0
  2  3  1  0  0  0  0
  2 31  1  0  0  0  0
  3  4  2  0  0  0  0
  3 32  1  0  0  0  0
  4  5  1  0  0  0  0
  4 19  1  0  0  0  0
  5  6  2  0  0  0  0
  5  7  1  0  0  0  0
  6  1  1  0  0  0  0
  6 33  1  0  0  0  0
  7  8  1  0  0  0  0
  7 34  1  0  0  0  0
  8  9  1  0  0  0  0
  8 18  2  0  0  0  0
  9 10  1  0  0  0  0
 10 11  1  0  0  0  0
 11 12  2  0  0  0  0
 11 14  1  0  0  0  0
 12 13  1  0  0  0  0
 13  9  2  0  0  0  0
 13 35  1  0  0  0  0
 14 15  2  0  0  0  0
 14 36  1  0  0  0  0
 15 16  1  0  0  0  0
 15 37  1  0  0  0  0
 16 17  2  0  0  0  0
 16 38  1  0  0  0  0
 17 12  1  0  0  0  0
 17 39  1  0  0  0  0
 19 20  2  0  0  0  0
 19 21  1  0  0  0  0
 21 22  1  0  0  0  0
 21 40  1  0  0  0  0
 22 23  1  0  0  0  0
 22 41  1  0  0  0  0
 23 24  1  0  0  0  0
 23 29  2  0  0  0  0
 24 25  1  0  0  0  0
 24 42  1  0  0  0  0
 25 26  1  0  0  0  0
 25 43  1  0  0  0  0
 25 44  1  0  0  0  0
 26 27  1  0  0  0  0
 26 45  1  0  0  0  0
 26 46  1  0  0  0  0
 27 28  1  0  0  0  0
 27 47  1  0  0  0  0
 27 48  1  0  0  0  0
 28 22  1  0  0  0  0
 28 49  1  0  0  0  0
 28 50  1  0  0  0  0
M  END
>  <Mol_ID>
2559

>  <Formula>
C22H21N3O3S

>  <MolWeight>
407.48544

>  <Cat>
S7745

>  <Name>
ANA-12

>  <Synonyms>
N/A

>  <Target>
Trk receptor

>  <Form>
free base

>  <CAS>
219766-25-3

>  <URL>
http://selleckchem.com/products/ana-12.html

$$$$
