Anavex 2-73 HCl
 OpenBabel08302521243D

 44 46  0  0  0  0  0  0  0  0999 V2000
    1.1281    0.0547    0.0855 O   0  0  0  0  0  0  0  0  0  0  0  0
   -1.5132   -2.3766   -2.3342 N   0  0  0  0  0  0  0  0  0  0  0  0
   -1.0646   -0.8594   -0.3107 C   0  0  3  0  0  0  0  0  0  0  0  0
    0.4014   -1.2184    0.1370 C   0  0  0  0  0  0  0  0  0  0  0  0
   -1.1523    0.6158    0.0846 C   0  0  0  0  0  0  0  0  0  0  0  0
   -1.5038   -1.0142   -1.7820 C   0  0  0  0  0  0  0  0  0  0  0  0
    0.2357    1.1271   -0.1947 C   0  0  0  0  0  0  0  0  0  0  0  0
    0.3261   -1.6236    1.6431 C   0  0  0  0  0  0  0  0  0  0  0  0
    1.2785   -2.1524   -0.7157 C   0  0  0  0  0  0  0  0  0  0  0  0
    1.0027   -0.8999    2.6418 C   0  0  0  0  0  0  0  0  0  0  0  0
    1.8518   -3.3388   -0.2178 C   0  0  0  0  0  0  0  0  0  0  0  0
   -0.4736   -2.7101    2.0556 C   0  0  0  0  0  0  0  0  0  0  0  0
    1.6634   -1.7726   -2.0190 C   0  0  0  0  0  0  0  0  0  0  0  0
   -2.3766   -3.2933   -1.5942 C   0  0  0  0  0  0  0  0  0  0  0  0
   -1.9113   -2.3519   -3.7436 C   0  0  0  0  0  0  0  0  0  0  0  0
    0.8475   -1.2223    3.9943 C   0  0  0  0  0  0  0  0  0  0  0  0
    2.7564   -4.0960   -0.9737 C   0  0  0  0  0  0  0  0  0  0  0  0
   -0.6247   -3.0336    3.4043 C   0  0  0  0  0  0  0  0  0  0  0  0
    2.5579   -2.5322   -2.7815 C   0  0  0  0  0  0  0  0  0  0  0  0
    0.0288   -2.2808    4.3751 C   0  0  0  0  0  0  0  0  0  0  0  0
    3.1126   -3.6910   -2.2539 C   0  0  0  0  0  0  0  0  0  0  0  0
   -1.8158   -1.3984    0.2790 H   0  0  0  0  0  0  0  0  0  0  0  0
   -1.9224    1.1897   -0.4387 H   0  0  0  0  0  0  0  0  0  0  0  0
   -1.3616    0.6963    1.1589 H   0  0  0  0  0  0  0  0  0  0  0  0
   -2.5201   -0.6002   -1.8691 H   0  0  0  0  0  0  0  0  0  0  0  0
   -0.8785   -0.3706   -2.4109 H   0  0  0  0  0  0  0  0  0  0  0  0
    0.3602    1.4102   -1.2446 H   0  0  0  0  0  0  0  0  0  0  0  0
    0.4991    1.9880    0.4260 H   0  0  0  0  0  0  0  0  0  0  0  0
    1.6477   -0.0666    2.3782 H   0  0  0  0  0  0  0  0  0  0  0  0
    1.6466   -3.6869    0.7900 H   0  0  0  0  0  0  0  0  0  0  0  0
   -0.9865   -3.3228    1.3191 H   0  0  0  0  0  0  0  0  0  0  0  0
    1.2895   -0.8488   -2.4507 H   0  0  0  0  0  0  0  0  0  0  0  0
   -3.3829   -2.8880   -1.4425 H   0  0  0  0  0  0  0  0  0  0  0  0
   -2.4705   -4.2533   -2.1150 H   0  0  0  0  0  0  0  0  0  0  0  0
   -1.9446   -3.5284   -0.6207 H   0  0  0  0  0  0  0  0  0  0  0  0
   -2.9590   -2.0555   -3.8703 H   0  0  0  0  0  0  0  0  0  0  0  0
   -1.2844   -1.6601   -4.3166 H   0  0  0  0  0  0  0  0  0  0  0  0
   -1.7745   -3.3413   -4.1937 H   0  0  0  0  0  0  0  0  0  0  0  0
    1.3666   -0.6380    4.7498 H   0  0  0  0  0  0  0  0  0  0  0  0
    3.1996   -4.9908   -0.5446 H   0  0  0  0  0  0  0  0  0  0  0  0
   -1.2535   -3.8702    3.6942 H   0  0  0  0  0  0  0  0  0  0  0  0
    2.8356   -2.2004   -3.7780 H   0  0  0  0  0  0  0  0  0  0  0  0
   -0.0975   -2.5225    5.4268 H   0  0  0  0  0  0  0  0  0  0  0  0
    3.8311   -4.2661   -2.8304 H   0  0  0  0  0  0  0  0  0  0  0  0
  1  4  1  0  0  0  0
  1  7  1  0  0  0  0
  2  6  1  0  0  0  0
  2 14  1  0  0  0  0
  2 15  1  0  0  0  0
  3  4  1  0  0  0  0
  3  5  1  0  0  0  0
  3  6  1  0  0  0  0
  3 22  1  0  0  0  0
  4  8  1  0  0  0  0
  4  9  1  0  0  0  0
  5  7  1  0  0  0  0
  5 23  1  0  0  0  0
  5 24  1  0  0  0  0
  6 25  1  0  0  0  0
  6 26  1  0  0  0  0
  7 27  1  0  0  0  0
  7 28  1  0  0  0  0
  8 10  2  0  0  0  0
  8 12  1  0  0  0  0
  9 11  2  0  0  0  0
  9 13  1  0  0  0  0
 10 16  1  0  0  0  0
 10 29  1  0  0  0  0
 11 17  1  0  0  0  0
 11 30  1  0  0  0  0
 12 18  2  0  0  0  0
 12 31  1  0  0  0  0
 13 19  2  0  0  0  0
 13 32  1  0  0  0  0
 14 33  1  0  0  0  0
 14 34  1  0  0  0  0
 14 35  1  0  0  0  0
 15 36  1  0  0  0  0
 15 37  1  0  0  0  0
 15 38  1  0  0  0  0
 16 20  2  0  0  0  0
 16 39  1  0  0  0  0
 17 21  2  0  0  0  0
 17 40  1  0  0  0  0
 18 20  1  0  0  0  0
 18 41  1  0  0  0  0
 19 21  1  0  0  0  0
 19 42  1  0  0  0  0
 20 43  1  0  0  0  0
 21 44  1  0  0  0  0
M  END
>  <Mol_ID>
4977

>  <Formula>
C19H24ClNO

>  <MolWeight>
317.85296

>  <Cat>
S0295

>  <Name>
Anavex 2-73 HCl

>  <Synonyms>
Blarcamesine hydrochloride, AVex-73 hydrochloride, AE-37 hydrochloride

>  <Target>
Sigma Receptor

>  <Form>
Hydrochloride

>  <CAS>
195615-84-0

>  <URL>
http://www.selleckchem.com/products/anavex-2-73.html

$$$$
