Andrograpanin
 OpenBabel08302521523D

 53 55  0  0  1  0  0  0  0  0999 V2000
    1.3096   -0.4096   -1.7391 C   0  0  0  0  0  0  0  0  0  0  0  0
    3.7944   -2.0126   -1.1218 C   0  0  0  0  0  0  0  0  0  0  0  0
    4.9435   -1.2208   -1.7709 C   0  0  0  0  0  0  0  0  0  0  0  0
   -0.2240    2.2086   -0.7550 C   0  0  0  0  0  0  0  0  0  0  0  0
   -1.3074    1.3123   -0.9449 O   0  0  0  0  0  0  0  0  0  0  0  0
   -0.4186    2.2798    1.7056 C   0  0  0  0  0  0  0  0  0  0  0  0
    1.7871   -3.7436    0.1027 C   0  0  0  0  0  0  0  0  0  0  0  0
    6.8055    1.0863   -2.0817 O   0  0  0  0  0  0  0  0  0  0  0  0
    2.0801   -0.0449   -0.4403 C   0  0  1  0  0  0  0  0  0  0  0  0
    1.1211    0.4274    0.7236 C   0  0  1  0  0  0  0  0  0  0  0  0
    2.8486   -1.3925   -0.0182 C   0  0  1  0  0  0  0  0  0  0  0  0
    3.1264    1.0836   -0.6840 C   0  0  0  0  0  0  0  0  0  0  0  0
    0.5417    1.8964    0.5544 C   0  0  1  0  0  0  0  0  0  0  0  0
    0.0966   -0.6518    1.0990 C   0  0  0  0  0  0  0  0  0  0  0  0
    1.8190   -2.4490    0.4764 C   0  0  0  0  0  0  0  0  0  0  0  0
    2.7852    2.5537   -0.4407 C   0  0  0  0  0  0  0  0  0  0  0  0
    1.7616    2.8365    0.6419 C   0  0  0  0  0  0  0  0  0  0  0  0
    0.7733   -1.9750    1.4636 C   0  0  0  0  0  0  0  0  0  0  0  0
    6.1355   -0.9056   -0.9365 C   0  0  0  0  0  0  0  0  0  0  0  0
    7.0113    0.2459   -1.2298 C   0  0  0  0  0  0  0  0  0  0  0  0
    6.6941   -1.5478    0.0826 C   0  0  0  0  0  0  0  0  0  0  0  0
    8.0832    0.2131   -0.3879 O   0  0  0  0  0  0  0  0  0  0  0  0
    7.9712   -0.9227    0.4680 C   0  0  0  0  0  0  0  0  0  0  0  0
    1.9945   -0.6457   -2.5574 H   0  0  0  0  0  0  0  0  0  0  0  0
    0.6636   -1.2840   -1.5983 H   0  0  0  0  0  0  0  0  0  0  0  0
    0.6742    0.3698   -2.1338 H   0  0  0  0  0  0  0  0  0  0  0  0
    4.2503   -2.9220   -0.7101 H   0  0  0  0  0  0  0  0  0  0  0  0
    3.1663   -2.3607   -1.9530 H   0  0  0  0  0  0  0  0  0  0  0  0
    5.3173   -1.8353   -2.6020 H   0  0  0  0  0  0  0  0  0  0  0  0
    4.5783   -0.3341   -2.2831 H   0  0  0  0  0  0  0  0  0  0  0  0
   -0.6336    3.2257   -0.7340 H   0  0  0  0  0  0  0  0  0  0  0  0
    0.4230    2.1953   -1.6344 H   0  0  0  0  0  0  0  0  0  0  0  0
   -1.4334    1.2093   -1.9038 H   0  0  0  0  0  0  0  0  0  0  0  0
    0.0530    2.1658    2.6857 H   0  0  0  0  0  0  0  0  0  0  0  0
   -0.7300    3.3290    1.6125 H   0  0  0  0  0  0  0  0  0  0  0  0
   -1.3364    1.6831    1.6879 H   0  0  0  0  0  0  0  0  0  0  0  0
    2.4904   -4.1895   -0.5906 H   0  0  0  0  0  0  0  0  0  0  0  0
    1.0388   -4.4280    0.4963 H   0  0  0  0  0  0  0  0  0  0  0  0
    1.7660    0.4923    1.6178 H   0  0  0  0  0  0  0  0  0  0  0  0
    3.4801   -1.1610    0.8517 H   0  0  0  0  0  0  0  0  0  0  0  0
    3.4472    1.0562   -1.7255 H   0  0  0  0  0  0  0  0  0  0  0  0
    4.0052    0.8742   -0.0623 H   0  0  0  0  0  0  0  0  0  0  0  0
   -0.6310   -0.8070    0.2975 H   0  0  0  0  0  0  0  0  0  0  0  0
   -0.4752   -0.3417    1.9820 H   0  0  0  0  0  0  0  0  0  0  0  0
    2.4523    3.0014   -1.3837 H   0  0  0  0  0  0  0  0  0  0  0  0
    3.7140    3.0845   -0.1903 H   0  0  0  0  0  0  0  0  0  0  0  0
    1.4503    3.8866    0.5670 H   0  0  0  0  0  0  0  0  0  0  0  0
    2.2416    2.7365    1.6250 H   0  0  0  0  0  0  0  0  0  0  0  0
   -0.0211   -2.7259    1.5782 H   0  0  0  0  0  0  0  0  0  0  0  0
    1.2472   -1.8842    2.4489 H   0  0  0  0  0  0  0  0  0  0  0  0
    6.3213   -2.4602    0.5242 H   0  0  0  0  0  0  0  0  0  0  0  0
    8.8180   -1.5932    0.2863 H   0  0  0  0  0  0  0  0  0  0  0  0
    7.9793   -0.5971    1.5086 H   0  0  0  0  0  0  0  0  0  0  0  0
  1 24  1  0  0  0  0
  1 25  1  0  0  0  0
  1 26  1  0  0  0  0
  2  3  1  0  0  0  0
  2 27  1  0  0  0  0
  2 28  1  0  0  0  0
  3 19  1  0  0  0  0
  3 29  1  0  0  0  0
  3 30  1  0  0  0  0
  4  5  1  0  0  0  0
  4 31  1  0  0  0  0
  4 32  1  0  0  0  0
  5 33  1  0  0  0  0
  6 34  1  0  0  0  0
  6 35  1  0  0  0  0
  6 36  1  0  0  0  0
  7 15  2  0  0  0  0
  7 37  1  0  0  0  0
  7 38  1  0  0  0  0
  8 20  2  0  0  0  0
  9  1  1  6  0  0  0
  9 10  1  0  0  0  0
  9 11  1  0  0  0  0
  9 12  1  0  0  0  0
 10 13  1  0  0  0  0
 10 14  1  0  0  0  0
 10 39  1  1  0  0  0
 11 15  1  0  0  0  0
 11 40  1  1  0  0  0
 11  2  1  0  0  0  0
 12 16  1  0  0  0  0
 12 41  1  0  0  0  0
 12 42  1  0  0  0  0
 13  4  1  6  0  0  0
 13  6  1  0  0  0  0
 13 17  1  0  0  0  0
 14 18  1  0  0  0  0
 14 43  1  0  0  0  0
 14 44  1  0  0  0  0
 15 18  1  0  0  0  0
 16 17  1  0  0  0  0
 16 45  1  0  0  0  0
 16 46  1  0  0  0  0
 17 47  1  0  0  0  0
 17 48  1  0  0  0  0
 18 49  1  0  0  0  0
 18 50  1  0  0  0  0
 19 20  1  0  0  0  0
 19 21  2  0  0  0  0
 20 22  1  0  0  0  0
 21 23  1  0  0  0  0
 21 51  1  0  0  0  0
 22 23  1  0  0  0  0
 23 52  1  0  0  0  0
 23 53  1  0  0  0  0
M  END
>  <Mol_ID>
9950

>  <Formula>
C20H30O3

>  <MolWeight>
318.4504

>  <Cat>
E5189

>  <Name>
Andrograpanin

>  <Synonyms>
N/A

>  <Target>
NOS

>  <Form>
free base

>  <CAS>
82209-74-3

>  <URL>
https://www.selleckchem.com/products/andrograpanin.html

$$$$
