Andrographolide.cdx
 OpenBabel08302521353D

 55 57  0  0  0  0  0  0  0  0999 V2000
   -2.5242   -0.9107    0.2875 C   0  0  1  0  0  0  0  0  0  0  0  0
   -1.3279   -1.7319   -0.2751 C   0  0  2  0  0  0  0  0  0  0  0  0
   -0.0251   -0.9007    0.1101 C   0  0  2  0  0  0  0  0  0  0  0  0
    0.0523    0.5334   -0.5419 C   0  0  1  0  0  0  0  0  0  0  0  0
   -1.2765    1.2910   -0.2464 C   0  0  0  0  0  0  0  0  0  0  0  0
   -2.5881    0.5111   -0.2633 C   0  0  0  0  0  0  0  0  0  0  0  0
    1.3201   -1.6529    0.0290 C   0  0  0  0  0  0  0  0  0  0  0  0
    2.5029   -0.8216    0.5543 C   0  0  0  0  0  0  0  0  0  0  0  0
    2.5498    0.5587   -0.0553 C   0  0  0  0  0  0  0  0  0  0  0  0
    1.2572    1.3624    0.1146 C   0  0  1  0  0  0  0  0  0  0  0  0
   -3.7827   -1.5510    0.0399 O   0  0  0  0  0  0  0  0  0  0  0  0
    0.3472    0.4912   -2.0671 C   0  0  0  0  0  0  0  0  0  0  0  0
   -1.5833   -2.0339   -1.7753 C   0  0  0  0  0  0  0  0  0  0  0  0
    1.2725    2.8349   -0.4236 C   0  0  0  0  0  0  0  0  0  0  0  0
   -0.5160   -2.7343   -2.3937 O   0  0  0  0  0  0  0  0  0  0  0  0
    3.6462    0.9616   -0.7217 C   0  0  0  0  0  0  0  0  0  0  0  0
    2.2961    3.7869    0.1160 C   0  0  0  0  0  0  0  0  0  0  0  0
    2.3686    4.2648    1.3607 C   0  0  0  0  0  0  0  0  0  0  0  0
    3.4032    5.2839    1.7090 C   0  0  0  0  0  0  0  0  0  0  0  0
    3.0233    5.8706    2.8774 O   0  0  0  0  0  0  0  0  0  0  0  0
    1.7102    5.4262    3.2178 C   0  0  0  0  0  0  0  0  0  0  0  0
    1.5459    4.0684    2.5697 C   0  0  3  0  0  0  0  0  0  0  0  0
    0.1903    3.7543    2.3144 O   0  0  0  0  0  0  0  0  0  0  0  0
    4.3948    5.5549    1.0693 O   0  0  0  0  0  0  0  0  0  0  0  0
   -1.3210   -3.1233    0.4116 C   0  0  0  0  0  0  0  0  0  0  0  0
   -2.4299   -0.8563    1.3792 H   0  0  0  0  0  0  0  0  0  0  0  0
   -0.1404   -0.7110    1.1922 H   0  0  0  0  0  0  0  0  0  0  0  0
   -1.3929    2.1249   -0.9504 H   0  0  0  0  0  0  0  0  0  0  0  0
   -1.2011    1.7480    0.7498 H   0  0  0  0  0  0  0  0  0  0  0  0
   -3.0029    0.5143   -1.2760 H   0  0  0  0  0  0  0  0  0  0  0  0
   -3.3245    1.0702    0.3329 H   0  0  0  0  0  0  0  0  0  0  0  0
    1.5250   -1.9755   -0.9922 H   0  0  0  0  0  0  0  0  0  0  0  0
    1.2786   -2.5589    0.6481 H   0  0  0  0  0  0  0  0  0  0  0  0
    3.4283   -1.3745    0.3512 H   0  0  0  0  0  0  0  0  0  0  0  0
    2.4393   -0.7238    1.6457 H   0  0  0  0  0  0  0  0  0  0  0  0
    1.0741    1.4203    1.1969 H   0  0  0  0  0  0  0  0  0  0  0  0
   -4.0731   -1.3508   -0.8527 H   0  0  0  0  0  0  0  0  0  0  0  0
    0.3064    1.4854   -2.5178 H   0  0  0  0  0  0  0  0  0  0  0  0
    1.3378    0.0771   -2.2831 H   0  0  0  0  0  0  0  0  0  0  0  0
   -0.3523   -0.0810   -2.6551 H   0  0  0  0  0  0  0  0  0  0  0  0
   -2.4653   -2.6750   -1.8850 H   0  0  0  0  0  0  0  0  0  0  0  0
   -1.8464   -1.1494   -2.3577 H   0  0  0  0  0  0  0  0  0  0  0  0
    1.4112    2.8357   -1.5083 H   0  0  0  0  0  0  0  0  0  0  0  0
    0.2984    3.3029   -0.2668 H   0  0  0  0  0  0  0  0  0  0  0  0
    0.1024   -2.0917   -2.7769 H   0  0  0  0  0  0  0  0  0  0  0  0
    3.7164    1.9233   -1.2179 H   0  0  0  0  0  0  0  0  0  0  0  0
    4.5214    0.3271   -0.8140 H   0  0  0  0  0  0  0  0  0  0  0  0
    3.0188    4.1410   -0.6219 H   0  0  0  0  0  0  0  0  0  0  0  0
    1.6077    5.3619    4.3049 H   0  0  0  0  0  0  0  0  0  0  0  0
    0.9749    6.1581    2.8573 H   0  0  0  0  0  0  0  0  0  0  0  0
    1.9885    3.2813    3.1896 H   0  0  0  0  0  0  0  0  0  0  0  0
   -0.1459    4.3727    1.6430 H   0  0  0  0  0  0  0  0  0  0  0  0
   -1.2528   -3.0419    1.4990 H   0  0  0  0  0  0  0  0  0  0  0  0
   -2.2396   -3.6799    0.1805 H   0  0  0  0  0  0  0  0  0  0  0  0
   -0.4921   -3.7459    0.0570 H   0  0  0  0  0  0  0  0  0  0  0  0
  1  2  1  0  0  0  0
  1 11  1  0  0  0  0
  1 26  1  1  0  0  0
  2  3  1  0  0  0  0
  2 13  1  6  0  0  0
  2 25  1  0  0  0  0
  3  4  1  0  0  0  0
  3  7  1  0  0  0  0
  3 27  1  1  0  0  0
  4  5  1  0  0  0  0
  4 12  1  6  0  0  0
  5  6  1  0  0  0  0
  5 28  1  0  0  0  0
  5 29  1  0  0  0  0
  6  1  1  0  0  0  0
  6 30  1  0  0  0  0
  6 31  1  0  0  0  0
  7  8  1  0  0  0  0
  7 32  1  0  0  0  0
  7 33  1  0  0  0  0
  8  9  1  0  0  0  0
  8 34  1  0  0  0  0
  8 35  1  0  0  0  0
  9 10  1  0  0  0  0
  9 16  2  0  0  0  0
 10  4  1  0  0  0  0
 10 36  1  1  0  0  0
 10 14  1  0  0  0  0
 11 37  1  0  0  0  0
 12 38  1  0  0  0  0
 12 39  1  0  0  0  0
 12 40  1  0  0  0  0
 13 15  1  0  0  0  0
 13 41  1  0  0  0  0
 13 42  1  0  0  0  0
 14 17  1  0  0  0  0
 14 43  1  0  0  0  0
 14 44  1  0  0  0  0
 15 45  1  0  0  0  0
 16 46  1  0  0  0  0
 16 47  1  0  0  0  0
 17 18  2  0  0  0  0
 17 48  1  0  0  0  0
 18 19  1  0  0  0  0
 19 20  1  0  0  0  0
 19 24  2  0  0  0  0
 20 21  1  0  0  0  0
 21 22  1  0  0  0  0
 21 49  1  0  0  0  0
 21 50  1  0  0  0  0
 22 18  1  0  0  0  0
 22 23  1  0  0  0  0
 22 51  1  0  0  0  0
 23 52  1  0  0  0  0
 25 53  1  0  0  0  0
 25 54  1  0  0  0  0
 25 55  1  0  0  0  0
M  END
>  <Mol_ID>
657

>  <Formula>
C20H30O5

>  <MolWeight>
350.4492

>  <Cat>
S2261

>  <Name>
Andrographolide

>  <Synonyms>
N/A

>  <Target>
NF-¦ÊB

>  <Form>
free base

>  <CAS>
5508-58-7

>  <URL>
http://selleckchem.com/products/Andrographolide.html

$$$$
