¦Á-Angelica lactone
 OpenBabel08302521363D

 13 13  0  0  0  0  0  0  0  0999 V2000
    0.9366   -0.0536    0.1460 C   0  0  0  0  0  0  0  0  0  0  0  0
   -1.1509   -0.3401    4.3479 O   0  0  0  0  0  0  0  0  0  0  0  0
   -0.2238    0.1470    2.3092 O   0  0  0  0  0  0  0  0  0  0  0  0
    0.4970   -0.6587    1.4314 C   0  0  0  0  0  0  0  0  0  0  0  0
   -0.4998   -0.6851    3.3691 C   0  0  0  0  0  0  0  0  0  0  0  0
    0.7043   -1.9010    1.8486 C   0  0  0  0  0  0  0  0  0  0  0  0
    0.1015   -2.0602    3.1875 C   0  0  0  0  0  0  0  0  0  0  0  0
    0.5135    0.9482    0.0193 H   0  0  0  0  0  0  0  0  0  0  0  0
    0.6112   -0.6632   -0.7025 H   0  0  0  0  0  0  0  0  0  0  0  0
    2.0269    0.0362    0.1194 H   0  0  0  0  0  0  0  0  0  0  0  0
    1.2329   -2.6723    1.3090 H   0  0  0  0  0  0  0  0  0  0  0  0
    0.8622   -2.2459    3.9487 H   0  0  0  0  0  0  0  0  0  0  0  0
   -0.6790   -2.8234    3.1916 H   0  0  0  0  0  0  0  0  0  0  0  0
  1  4  1  0  0  0  0
  1  8  1  0  0  0  0
  1  9  1  0  0  0  0
  1 10  1  0  0  0  0
  2  5  2  0  0  0  0
  3  4  1  0  0  0  0
  3  5  1  0  0  0  0
  4  6  2  0  0  0  0
  5  7  1  0  0  0  0
  6  7  1  0  0  0  0
  6 11  1  0  0  0  0
  7 12  1  0  0  0  0
  7 13  1  0  0  0  0
M  END
>  <Mol_ID>
7089

>  <Formula>
C5H6O2

>  <MolWeight>
98.09994

>  <Cat>
E4106

>  <Name>
¦Á-Angelica lactone

>  <Synonyms>
Alpha-Angelica Lactone

>  <Target>
Others

>  <Form>
free base

>  <CAS>
591-12-8

>  <URL>
https://www.selleckchem.com/products/alpha-angelica-lactone.html

$$$$
