Angoline
 OpenBabel08302521553D

 49 53  0  0  0  0  0  0  0  0999 V2000
    0.7743    0.4980   -0.5924 O   0  0  0  0  0  0  0  0  0  0  0  0
    0.2025    0.0409   -1.8091 C   0  0  0  0  0  0  0  0  0  0  0  0
    0.6920   -2.3085   -0.0137 O   0  0  0  0  0  0  0  0  0  0  0  0
    0.2631   -1.6104    1.1517 C   0  0  0  0  0  0  0  0  0  0  0  0
    2.4775    1.9084   -2.3278 C   0  0  0  0  0  0  0  0  0  0  0  0
    2.0439   -4.7899   -0.6369 O   0  0  0  0  0  0  0  0  0  0  0  0
    0.7254   -4.9717   -0.1519 C   0  0  0  0  0  0  0  0  0  0  0  0
    2.7607   -1.0855   -0.6056 C   0  0  0  0  0  0  0  0  0  0  0  0
    4.1294   -1.1635   -1.0143 C   0  0  0  0  0  0  0  0  0  0  0  0
    2.1834    0.3188   -0.3977 C   0  0  3  0  0  0  0  0  0  0  0  0
    2.0171   -2.2869   -0.3691 C   0  0  0  0  0  0  0  0  0  0  0  0
    4.9598    0.0703   -1.1054 C   0  0  0  0  0  0  0  0  0  0  0  0
    4.6572   -2.4268   -1.3238 C   0  0  0  0  0  0  0  0  0  0  0  0
    2.9235    1.4242   -1.0222 N   0  0  0  0  0  0  0  0  0  0  0  0
    2.5906   -3.5342   -0.6938 C   0  0  0  0  0  0  0  0  0  0  0  0
    4.3390    1.3306   -1.0029 C   0  0  0  0  0  0  0  0  0  0  0  0
    6.3522    0.0620   -1.3226 C   0  0  0  0  0  0  0  0  0  0  0  0
    3.8980   -3.5829   -1.1786 C   0  0  0  0  0  0  0  0  0  0  0  0
    5.1056    2.5386   -1.0361 C   0  0  0  0  0  0  0  0  0  0  0  0
    7.0934    1.2439   -1.4709 C   0  0  0  0  0  0  0  0  0  0  0  0
    6.4849    2.4986   -1.3428 C   0  0  0  0  0  0  0  0  0  0  0  0
    4.4949    3.7998   -0.8220 C   0  0  0  0  0  0  0  0  0  0  0  0
    7.2079    3.6950   -1.5221 C   0  0  0  0  0  0  0  0  0  0  0  0
    5.2215    4.9451   -1.0265 C   0  0  0  0  0  0  0  0  0  0  0  0
    6.5381    4.8958   -1.3848 C   0  0  0  0  0  0  0  0  0  0  0  0
    4.7367    6.2102   -0.9394 O   0  0  0  0  0  0  0  0  0  0  0  0
    7.0593    6.1388   -1.5845 O   0  0  0  0  0  0  0  0  0  0  0  0
    5.8984    6.9634   -1.3340 C   0  0  0  0  0  0  0  0  0  0  0  0
    0.1802    0.8379   -2.5534 H   0  0  0  0  0  0  0  0  0  0  0  0
    0.7004   -0.8327   -2.2327 H   0  0  0  0  0  0  0  0  0  0  0  0
   -0.8420   -0.2126   -1.6090 H   0  0  0  0  0  0  0  0  0  0  0  0
    1.0549   -1.0799    1.6843 H   0  0  0  0  0  0  0  0  0  0  0  0
   -0.5310   -0.9147    0.8599 H   0  0  0  0  0  0  0  0  0  0  0  0
   -0.2004   -2.3247    1.8385 H   0  0  0  0  0  0  0  0  0  0  0  0
    3.1499    2.6408   -2.7879 H   0  0  0  0  0  0  0  0  0  0  0  0
    2.3822    1.0856   -3.0431 H   0  0  0  0  0  0  0  0  0  0  0  0
    1.5253    2.4346   -2.2128 H   0  0  0  0  0  0  0  0  0  0  0  0
    0.6553   -4.7020    0.9060 H   0  0  0  0  0  0  0  0  0  0  0  0
   -0.0081   -4.4431   -0.7669 H   0  0  0  0  0  0  0  0  0  0  0  0
    0.4914   -6.0385   -0.2324 H   0  0  0  0  0  0  0  0  0  0  0  0
    2.3169    0.4893    0.6803 H   0  0  0  0  0  0  0  0  0  0  0  0
    5.6669   -2.5481   -1.7051 H   0  0  0  0  0  0  0  0  0  0  0  0
    6.9021   -0.8707   -1.4121 H   0  0  0  0  0  0  0  0  0  0  0  0
    4.3334   -4.5431   -1.4507 H   0  0  0  0  0  0  0  0  0  0  0  0
    8.1571    1.1721   -1.6903 H   0  0  0  0  0  0  0  0  0  0  0  0
    3.4488    3.8758   -0.5354 H   0  0  0  0  0  0  0  0  0  0  0  0
    8.2585    3.6904   -1.7962 H   0  0  0  0  0  0  0  0  0  0  0  0
    5.6552    7.5223   -2.2458 H   0  0  0  0  0  0  0  0  0  0  0  0
    6.1362    7.6754   -0.5367 H   0  0  0  0  0  0  0  0  0  0  0  0
  1  2  1  0  0  0  0
  1 10  1  0  0  0  0
  2 29  1  0  0  0  0
  2 30  1  0  0  0  0
  2 31  1  0  0  0  0
  3  4  1  0  0  0  0
  3 11  1  0  0  0  0
  4 32  1  0  0  0  0
  4 33  1  0  0  0  0
  4 34  1  0  0  0  0
  5 14  1  0  0  0  0
  5 35  1  0  0  0  0
  5 36  1  0  0  0  0
  5 37  1  0  0  0  0
  6  7  1  0  0  0  0
  6 15  1  0  0  0  0
  7 38  1  0  0  0  0
  7 39  1  0  0  0  0
  7 40  1  0  0  0  0
  8  9  2  0  0  0  0
  8 10  1  0  0  0  0
  8 11  1  0  0  0  0
  9 12  1  0  0  0  0
  9 13  1  0  0  0  0
 10 14  1  0  0  0  0
 10 41  1  0  0  0  0
 11 15  2  0  0  0  0
 12 16  2  0  0  0  0
 12 17  1  0  0  0  0
 13 18  2  0  0  0  0
 13 42  1  0  0  0  0
 14 16  1  0  0  0  0
 15 18  1  0  0  0  0
 16 19  1  0  0  0  0
 17 20  2  0  0  0  0
 17 43  1  0  0  0  0
 18 44  1  0  0  0  0
 19 21  2  0  0  0  0
 19 22  1  0  0  0  0
 20 21  1  0  0  0  0
 20 45  1  0  0  0  0
 21 23  1  0  0  0  0
 22 24  2  0  0  0  0
 22 46  1  0  0  0  0
 23 25  2  0  0  0  0
 23 47  1  0  0  0  0
 24 25  1  0  0  0  0
 24 26  1  0  0  0  0
 25 27  1  0  0  0  0
 26 28  1  0  0  0  0
 27 28  1  0  0  0  0
 28 48  1  0  0  0  0
 28 49  1  0  0  0  0
M  END
>  <Mol_ID>
10044

>  <Formula>
C22H21NO5

>  <MolWeight>
379.40584

>  <Cat>
E5594

>  <Name>
Angoline

>  <Synonyms>
N/A

>  <Target>
STAT, Interleukins

>  <Form>
free base

>  <CAS>
21080-31-9

>  <URL>
https://www.selleckchem.com/products/angoline.html

$$$$
