¦Â-Anhydroicaritin
 OpenBabel08302521323D

 47 50  0  0  0  0  0  0  0  0999 V2000
    1.3583    0.7912    0.0010 C   0  0  0  0  0  0  0  0  0  0  0  0
    0.6209   -0.3984    0.0472 C   0  0  0  0  0  0  0  0  0  0  0  0
    1.3269   -1.7282    0.0453 C   0  0  0  0  0  0  0  0  0  0  0  0
    2.8138   -1.5558    0.3246 C   0  0  0  0  0  0  0  0  0  0  0  0
    3.3832   -0.3762   -0.4731 C   0  0  0  0  0  0  0  0  0  0  0  0
    2.7258    0.8453   -0.0848 O   0  0  0  0  0  0  0  0  0  0  0  0
   -0.7856   -0.3302    0.0525 C   0  0  0  0  0  0  0  0  0  0  0  0
   -1.4372    0.9102    0.0628 C   0  0  0  0  0  0  0  0  0  0  0  0
   -2.9160    0.9201    0.0558 C   0  0  0  0  0  0  0  0  0  0  0  0
   -3.5947   -0.3944    0.0007 C   0  0  0  0  0  0  0  0  0  0  0  0
   -2.8471   -1.5090   -0.0107 C   0  0  0  0  0  0  0  0  0  0  0  0
   -1.4670   -1.5298    0.0302 O   0  0  0  0  0  0  0  0  0  0  0  0
   -0.6785    2.0870    0.0667 C   0  0  0  0  0  0  0  0  0  0  0  0
    0.7141    2.0268    0.0362 C   0  0  0  0  0  0  0  0  0  0  0  0
   -3.6232    1.9222    0.0759 O   0  0  0  0  0  0  0  0  0  0  0  0
    4.8690   -0.2057   -0.1231 C   0  0  0  0  0  0  0  0  0  0  0  0
    3.2692   -0.5557   -1.9965 C   0  0  0  0  0  0  0  0  0  0  0  0
   -3.4760   -2.8355   -0.0820 C   0  0  0  0  0  0  0  0  0  0  0  0
   -3.7383   -3.4274   -1.3237 C   0  0  0  0  0  0  0  0  0  0  0  0
   -4.4223   -4.6474   -1.4027 C   0  0  0  0  0  0  0  0  0  0  0  0
   -4.8490   -5.2892   -0.2398 C   0  0  0  0  0  0  0  0  0  0  0  0
   -4.5705   -4.7085    1.0002 C   0  0  0  0  0  0  0  0  0  0  0  0
   -3.8891   -3.4902    1.0827 C   0  0  0  0  0  0  0  0  0  0  0  0
   -5.5436   -6.4661   -0.1788 O   0  0  0  0  0  0  0  0  0  0  0  0
   -5.8876   -7.0748   -1.4174 C   0  0  0  0  0  0  0  0  0  0  0  0
   -1.2821    3.3115    0.0834 O   0  0  0  0  0  0  0  0  0  0  0  0
   -4.9757   -0.3901   -0.0413 O   0  0  0  0  0  0  0  0  0  0  0  0
    1.1823   -2.2069   -0.9302 H   0  0  0  0  0  0  0  0  0  0  0  0
    0.8998   -2.3887    0.8089 H   0  0  0  0  0  0  0  0  0  0  0  0
    3.3483   -2.4872    0.1059 H   0  0  0  0  0  0  0  0  0  0  0  0
    2.9396   -1.3549    1.3983 H   0  0  0  0  0  0  0  0  0  0  0  0
    1.3147    2.9321    0.0201 H   0  0  0  0  0  0  0  0  0  0  0  0
    5.4488   -1.0946   -0.3950 H   0  0  0  0  0  0  0  0  0  0  0  0
    5.2980    0.6577   -0.6451 H   0  0  0  0  0  0  0  0  0  0  0  0
    5.0038   -0.0172    0.9478 H   0  0  0  0  0  0  0  0  0  0  0  0
    2.2296   -0.5653   -2.3388 H   0  0  0  0  0  0  0  0  0  0  0  0
    3.7438    0.2832   -2.5191 H   0  0  0  0  0  0  0  0  0  0  0  0
    3.7469   -1.4841   -2.3254 H   0  0  0  0  0  0  0  0  0  0  0  0
   -3.4361   -2.9290   -2.2419 H   0  0  0  0  0  0  0  0  0  0  0  0
   -4.6193   -5.0574   -2.3872 H   0  0  0  0  0  0  0  0  0  0  0  0
   -4.9049   -5.1995    1.9108 H   0  0  0  0  0  0  0  0  0  0  0  0
   -3.7087   -3.0462    2.0584 H   0  0  0  0  0  0  0  0  0  0  0  0
   -6.5343   -6.4233   -2.0148 H   0  0  0  0  0  0  0  0  0  0  0  0
   -4.9907   -7.3619   -1.9759 H   0  0  0  0  0  0  0  0  0  0  0  0
   -6.4489   -7.9882   -1.1977 H   0  0  0  0  0  0  0  0  0  0  0  0
   -0.6162    4.0175    0.0867 H   0  0  0  0  0  0  0  0  0  0  0  0
   -5.2178    0.5624   -0.0144 H   0  0  0  0  0  0  0  0  0  0  0  0
  1  2  2  0  0  0  0
  1  6  1  0  0  0  0
  2  3  1  0  0  0  0
  2  7  1  0  0  0  0
  3  4  1  0  0  0  0
  3 28  1  0  0  0  0
  3 29  1  0  0  0  0
  4  5  1  0  0  0  0
  4 30  1  0  0  0  0
  4 31  1  0  0  0  0
  5  6  1  0  0  0  0
  5 16  1  0  0  0  0
  5 17  1  0  0  0  0
  7  8  2  0  0  0  0
  7 12  1  0  0  0  0
  8  9  1  0  0  0  0
  9 10  1  0  0  0  0
  9 15  2  0  0  0  0
 10 11  2  0  0  0  0
 10 27  1  0  0  0  0
 11 12  1  0  0  0  0
 11 18  1  0  0  0  0
 13 14  2  0  0  0  0
 13  8  1  0  0  0  0
 13 26  1  0  0  0  0
 14  1  1  0  0  0  0
 14 32  1  0  0  0  0
 16 33  1  0  0  0  0
 16 34  1  0  0  0  0
 16 35  1  0  0  0  0
 17 36  1  0  0  0  0
 17 37  1  0  0  0  0
 17 38  1  0  0  0  0
 18 19  2  0  0  0  0
 18 23  1  0  0  0  0
 19 20  1  0  0  0  0
 19 39  1  0  0  0  0
 20 21  2  0  0  0  0
 20 40  1  0  0  0  0
 21 22  1  0  0  0  0
 21 24  1  0  0  0  0
 22 23  2  0  0  0  0
 22 41  1  0  0  0  0
 23 42  1  0  0  0  0
 24 25  1  0  0  0  0
 25 43  1  0  0  0  0
 25 44  1  0  0  0  0
 25 45  1  0  0  0  0
 26 46  1  0  0  0  0
 27 47  1  0  0  0  0
M  END
>  <Mol_ID>
6135

>  <Formula>
C21H20O6

>  <MolWeight>
368.3799

>  <Cat>
E0246

>  <Name>
¦Â-Anhydroicaritin

>  <Target>
Others

>  <Form>
free base

>  <CAS>
38226-86-7

>  <URL>
http://www.selleckchem.com/products/beta-anhydroicaritin.html

$$$$
