Anisodamine Hydrobromide
 OpenBabel08302521223D

 47 48  0  0  0  0  0  0  0  0999 V2000
    0.2032   -1.1636    0.2539 C   0  0  2  0  0  0  0  0  0  0  0  0
    0.4875   -0.0811    1.2091 N   0  0  0  0  0  0  0  0  0  0  0  0
    1.0505   -0.7868   -0.9586 C   0  0  0  0  0  0  0  0  0  0  0  0
   -1.3037   -1.2275   -0.0931 C   0  0  0  0  0  0  0  0  0  0  0  0
    0.3333    1.1085    0.3557 C   0  0  1  0  0  0  0  0  0  0  0  0
   -0.3033   -0.0858    2.4601 C   0  0  0  0  0  0  0  0  0  0  0  0
    1.1204    0.7478   -0.9196 C   0  0  1  0  0  0  0  0  0  0  0  0
   -1.9526    0.1454   -0.4162 C   0  0  1  0  0  0  0  0  0  0  0  0
   -1.1626    1.3821    0.0583 C   0  0  0  0  0  0  0  0  0  0  0  0
   -2.2821    0.2824   -1.7538 O   0  0  0  0  0  0  0  0  0  0  0  0
   -3.5731    0.1968   -2.1861 C   0  0  0  0  0  0  0  0  0  0  0  0
   -3.9756    0.7761   -3.5152 C   0  0  1  0  0  0  0  0  0  0  0  0
   -4.4221   -0.3737   -1.5061 O   0  0  0  0  0  0  0  0  0  0  0  0
   -4.2161   -0.3566   -4.4857 C   0  0  0  0  0  0  0  0  0  0  0  0
   -5.2074    1.6938   -3.3618 C   0  0  0  0  0  0  0  0  0  0  0  0
   -5.1786   -1.3564   -4.2250 C   0  0  0  0  0  0  0  0  0  0  0  0
   -3.4355   -0.4458   -5.6500 C   0  0  0  0  0  0  0  0  0  0  0  0
   -5.5669    2.2557   -4.5949 O   0  0  0  0  0  0  0  0  0  0  0  0
   -5.3366   -2.4264   -5.1074 C   0  0  0  0  0  0  0  0  0  0  0  0
   -3.6071   -1.5140   -6.5319 C   0  0  0  0  0  0  0  0  0  0  0  0
   -4.5496   -2.5039   -6.2597 C   0  0  0  0  0  0  0  0  0  0  0  0
    2.4704    1.1180   -0.7698 O   0  0  0  0  0  0  0  0  0  0  0  0
    3.6343   -0.3537    2.2931 Br  0  0  0  0  0  0  0  0  0  0  0  0
    0.5114   -2.1630    0.6365 H   0  0  0  0  0  0  0  0  0  0  0  0
    0.7390   -1.2434   -1.9207 H   0  0  0  0  0  0  0  0  0  0  0  0
    2.0724   -1.1748   -0.7381 H   0  0  0  0  0  0  0  0  0  0  0  0
   -1.7995   -1.6355    0.8119 H   0  0  0  0  0  0  0  0  0  0  0  0
   -1.5132   -1.9782   -0.8886 H   0  0  0  0  0  0  0  0  0  0  0  0
    0.7424    2.0315    0.8252 H   0  0  0  0  0  0  0  0  0  0  0  0
   -1.3984   -0.0282    2.2910 H   0  0  0  0  0  0  0  0  0  0  0  0
   -0.1048   -1.0169    3.0254 H   0  0  0  0  0  0  0  0  0  0  0  0
   -0.0191    0.7842    3.0860 H   0  0  0  0  0  0  0  0  0  0  0  0
    0.7126    1.2286   -1.8345 H   0  0  0  0  0  0  0  0  0  0  0  0
   -2.9006    0.1617    0.1647 H   0  0  0  0  0  0  0  0  0  0  0  0
   -1.2842    2.2246   -0.6591 H   0  0  0  0  0  0  0  0  0  0  0  0
   -1.6208    1.7478    0.9988 H   0  0  0  0  0  0  0  0  0  0  0  0
   -3.1319    1.4022   -3.8863 H   0  0  0  0  0  0  0  0  0  0  0  0
   -6.0784    1.1218   -2.9743 H   0  0  0  0  0  0  0  0  0  0  0  0
   -5.0081    2.5007   -2.6174 H   0  0  0  0  0  0  0  0  0  0  0  0
   -5.7942   -1.3213   -3.3358 H   0  0  0  0  0  0  0  0  0  0  0  0
   -2.6917    0.3083   -5.8728 H   0  0  0  0  0  0  0  0  0  0  0  0
   -4.9754    3.0409   -4.7332 H   0  0  0  0  0  0  0  0  0  0  0  0
   -6.0635   -3.1966   -4.8921 H   0  0  0  0  0  0  0  0  0  0  0  0
   -2.9996   -1.5772   -7.4246 H   0  0  0  0  0  0  0  0  0  0  0  0
   -4.6708   -3.3381   -6.9364 H   0  0  0  0  0  0  0  0  0  0  0  0
    2.5005    2.1098   -0.7410 H   0  0  0  0  0  0  0  0  0  0  0  0
    3.8830   -0.5884    0.8038 H   0  0  0  0  0  0  0  0  0  0  0  0
  1  2  1  0  0  0  0
  1  3  1  0  0  0  0
  1  4  1  0  0  0  0
  1 24  1  1  0  0  0
  2  6  1  0  0  0  0
  3  7  1  0  0  0  0
  3 25  1  0  0  0  0
  3 26  1  0  0  0  0
  4  8  1  0  0  0  0
  4 27  1  0  0  0  0
  4 28  1  0  0  0  0
  5  2  1  0  0  0  0
  5  9  1  0  0  0  0
  5  7  1  0  0  0  0
  5 29  1  1  0  0  0
  6 30  1  0  0  0  0
  6 31  1  0  0  0  0
  6 32  1  0  0  0  0
  7 33  1  6  0  0  0
  7 22  1  0  0  0  0
  8  9  1  0  0  0  0
  8 34  1  1  0  0  0
  8 10  1  0  0  0  0
  9 35  1  0  0  0  0
  9 36  1  0  0  0  0
 10 11  1  0  0  0  0
 11 12  1  0  0  0  0
 11 13  2  0  0  0  0
 12 14  1  0  0  0  0
 12 15  1  0  0  0  0
 12 37  1  6  0  0  0
 14 16  2  0  0  0  0
 14 17  1  0  0  0  0
 15 18  1  0  0  0  0
 15 38  1  0  0  0  0
 15 39  1  0  0  0  0
 16 19  1  0  0  0  0
 16 40  1  0  0  0  0
 17 20  2  0  0  0  0
 17 41  1  0  0  0  0
 18 42  1  0  0  0  0
 19 21  2  0  0  0  0
 19 43  1  0  0  0  0
 20 21  1  0  0  0  0
 20 44  1  0  0  0  0
 21 45  1  0  0  0  0
 22 46  1  0  0  0  0
 23 47  1  0  0  0  0
M  END
>  <Mol_ID>
4654

>  <Formula>
C17H24BrNO4

>  <MolWeight>
386.28076

>  <Cat>
S9560

>  <Name>
Anisodamine Hydrobromide

>  <Synonyms>
6-Hydroxyhyoscyamine

>  <Target>
AChR,Adrenergic Receptor,Anti-infection,Immunology & Inflammation related

>  <Form>
Hydrobromide

>  <CAS>
55449-49-5

>  <URL>
http://www.selleckchem.com/products/anisodamine-hydrobromide.html

$$$$
