Anisotropine Methylbromide
 OpenBabel08302519573D

 53 53  0  0  0  0  0  0  0  0999 V2000
    1.2953   -0.7534   -0.7505 C   0  0  0  0  0  0  0  0  0  0  0  0
    1.3309    0.7602   -0.7192 C   0  0  0  0  0  0  0  0  0  0  0  0
    0.3981    1.1780    0.4249 C   0  0  1  0  0  0  0  0  0  0  0  0
   -1.0088    1.3448   -0.1444 C   0  0  0  0  0  0  0  0  0  0  0  0
   -1.7444    0.0182   -0.4445 C   0  0  2  0  0  0  0  0  0  0  0  0
   -1.0196   -1.3200   -0.1238 C   0  0  0  0  0  0  0  0  0  0  0  0
    0.3961   -1.1676    0.4155 C   0  0  2  0  0  0  0  0  0  0  0  0
    0.3963    0.0036    1.4171 N   0  3  0  0  0  0  0  0  0  0  0  0
   -2.1722   -0.0157   -1.8361 O   0  0  0  0  0  0  0  0  0  0  0  0
   -3.3414    0.6316   -2.2163 C   0  0  0  0  0  0  0  0  0  0  0  0
   -3.6635    0.5315   -3.7303 C   0  0  0  0  0  0  0  0  0  0  0  0
   -4.0330    1.2479   -1.4409 O   0  0  0  0  0  0  0  0  0  0  0  0
   -3.0214    1.7184   -4.4812 C   0  0  0  0  0  0  0  0  0  0  0  0
   -3.2544    1.8535   -5.9923 C   0  0  0  0  0  0  0  0  0  0  0  0
   -4.7085    1.9839   -6.4215 C   0  0  0  0  0  0  0  0  0  0  0  0
   -3.3636   -0.8713   -4.2860 C   0  0  0  0  0  0  0  0  0  0  0  0
   -4.1594   -1.9881   -3.5928 C   0  0  0  0  0  0  0  0  0  0  0  0
   -3.8492   -3.3662   -4.1656 C   0  0  0  0  0  0  0  0  0  0  0  0
    1.6673   -0.0064    2.2804 C   0  0  0  0  0  0  0  0  0  0  0  0
   -0.7222   -0.0066    2.4667 C   0  0  0  0  0  0  0  0  0  0  0  0
    5.1109   -0.3498    0.5613 Br  0  5  0  0  0  0  0  0  0  0  0  0
    0.9105   -1.1126   -1.7147 H   0  0  0  0  0  0  0  0  0  0  0  0
    2.2947   -1.1825   -0.6594 H   0  0  0  0  0  0  0  0  0  0  0  0
    1.0156    1.1723   -1.6864 H   0  0  0  0  0  0  0  0  0  0  0  0
    2.3492    1.1214   -0.5555 H   0  0  0  0  0  0  0  0  0  0  0  0
    0.7444    2.0841    0.9326 H   0  0  0  0  0  0  0  0  0  0  0  0
   -0.9923    1.9814   -1.0356 H   0  0  0  0  0  0  0  0  0  0  0  0
   -1.6023    1.9082    0.5875 H   0  0  0  0  0  0  0  0  0  0  0  0
   -2.6191    0.0255    0.2228 H   0  0  0  0  0  0  0  0  0  0  0  0
   -1.5761   -1.8572    0.6536 H   0  0  0  0  0  0  0  0  0  0  0  0
   -1.0379   -1.9932   -0.9929 H   0  0  0  0  0  0  0  0  0  0  0  0
    0.7506   -2.0760    0.9164 H   0  0  0  0  0  0  0  0  0  0  0  0
   -4.7365    0.6838   -3.8698 H   0  0  0  0  0  0  0  0  0  0  0  0
   -3.3604    2.6516   -4.0056 H   0  0  0  0  0  0  0  0  0  0  0  0
   -1.9377    1.6784   -4.3251 H   0  0  0  0  0  0  0  0  0  0  0  0
   -2.7274    2.7577   -6.3255 H   0  0  0  0  0  0  0  0  0  0  0  0
   -2.7888    1.0200   -6.5289 H   0  0  0  0  0  0  0  0  0  0  0  0
   -5.2604    2.6625   -5.7636 H   0  0  0  0  0  0  0  0  0  0  0  0
   -4.7677    2.3798   -7.4426 H   0  0  0  0  0  0  0  0  0  0  0  0
   -5.2040    1.0100   -6.4312 H   0  0  0  0  0  0  0  0  0  0  0  0
   -3.5859   -0.8806   -5.3579 H   0  0  0  0  0  0  0  0  0  0  0  0
   -2.3053   -1.1079   -4.1599 H   0  0  0  0  0  0  0  0  0  0  0  0
   -3.9085   -2.0090   -2.5271 H   0  0  0  0  0  0  0  0  0  0  0  0
   -5.2371   -1.7958   -3.6595 H   0  0  0  0  0  0  0  0  0  0  0  0
   -2.8334   -3.6833   -3.9032 H   0  0  0  0  0  0  0  0  0  0  0  0
   -4.5485   -4.1048   -3.7572 H   0  0  0  0  0  0  0  0  0  0  0  0
   -3.9269   -3.3868   -5.2568 H   0  0  0  0  0  0  0  0  0  0  0  0
    1.6280    0.8664    2.9434 H   0  0  0  0  0  0  0  0  0  0  0  0
    1.6597   -0.9253    2.8777 H   0  0  0  0  0  0  0  0  0  0  0  0
    2.5309    0.0471    1.6433 H   0  0  0  0  0  0  0  0  0  0  0  0
   -1.7151    0.0589    2.0281 H   0  0  0  0  0  0  0  0  0  0  0  0
   -0.6546   -0.9438    3.0262 H   0  0  0  0  0  0  0  0  0  0  0  0
   -0.5904    0.8576    3.1236 H   0  0  0  0  0  0  0  0  0  0  0  0
  1  2  1  0  0  0  0
  1 22  1  0  0  0  0
  1 23  1  0  0  0  0
  2 24  1  0  0  0  0
  2 25  1  0  0  0  0
  3  2  1  0  0  0  0
  3  4  1  0  0  0  0
  3  8  1  0  0  0  0
  3 26  1  1  0  0  0
  4  5  1  0  0  0  0
  4 27  1  0  0  0  0
  4 28  1  0  0  0  0
  5  6  1  0  0  0  0
  5 29  1  1  0  0  0
  5  9  1  0  0  0  0
  6 30  1  0  0  0  0
  6 31  1  0  0  0  0
  7  6  1  0  0  0  0
  7  1  1  0  0  0  0
  7  8  1  0  0  0  0
  7 32  1  1  0  0  0
  8 19  1  0  0  0  0
  8 20  1  0  0  0  0
  9 10  1  0  0  0  0
 10 11  1  0  0  0  0
 10 12  2  0  0  0  0
 11 13  1  0  0  0  0
 11 16  1  0  0  0  0
 11 33  1  0  0  0  0
 13 14  1  0  0  0  0
 13 34  1  0  0  0  0
 13 35  1  0  0  0  0
 14 15  1  0  0  0  0
 14 36  1  0  0  0  0
 14 37  1  0  0  0  0
 15 38  1  0  0  0  0
 15 39  1  0  0  0  0
 15 40  1  0  0  0  0
 16 17  1  0  0  0  0
 16 41  1  0  0  0  0
 16 42  1  0  0  0  0
 17 18  1  0  0  0  0
 17 43  1  0  0  0  0
 17 44  1  0  0  0  0
 18 45  1  0  0  0  0
 18 46  1  0  0  0  0
 18 47  1  0  0  0  0
 19 48  1  0  0  0  0
 19 49  1  0  0  0  0
 19 50  1  0  0  0  0
 20 51  1  0  0  0  0
 20 52  1  0  0  0  0
 20 53  1  0  0  0  0
M  CHG  2   8   1  21  -1
M  END
>  <Mol_ID>
2275

>  <Formula>
C17H32BrNO2

>  <MolWeight>
362.34548

>  <Cat>
S4305

>  <Name>
Anisotropine Methylbromide

>  <Synonyms>
N/A

>  <Target>
Others

>  <Form>
methylbromide

>  <CAS>
80-50-2

>  <URL>
http://www.selleckchem.com/products/anisotropine-methylbromide.html

$$$$
