Anisomycin.cdx
 OpenBabel08302519593D

 38 39  0  0  0  0  0  0  0  0999 V2000
    2.2602   -4.0691   -2.7514 C   0  0  0  0  0  0  0  0  0  0  0  0
    1.9764   -4.5194   -1.4558 C   0  0  0  0  0  0  0  0  0  0  0  0
    0.8787   -5.3713   -1.2805 C   0  0  0  0  0  0  0  0  0  0  0  0
    0.0404   -5.6939   -2.3593 C   0  0  0  0  0  0  0  0  0  0  0  0
    0.2780   -5.1530   -3.6234 C   0  0  0  0  0  0  0  0  0  0  0  0
    1.4070   -4.3617   -3.8172 C   0  0  0  0  0  0  0  0  0  0  0  0
   -0.5041   -5.3108   -4.7330 O   0  0  0  0  0  0  0  0  0  0  0  0
   -1.7216   -6.0234   -4.5659 C   0  0  0  0  0  0  0  0  0  0  0  0
    2.8026   -4.0463   -0.2679 C   0  0  0  0  0  0  0  0  0  0  0  0
    2.6418   -2.5270    0.0094 C   0  0  1  0  0  0  0  0  0  0  0  0
    3.3439   -1.9656    1.2614 C   0  0  2  0  0  0  0  0  0  0  0  0
    4.6412   -1.3563    0.7333 C   0  0  1  0  0  0  0  0  0  0  0  0
    4.3408   -0.9856   -0.7139 C   0  0  0  0  0  0  0  0  0  0  0  0
    3.1419   -1.7114   -1.1190 N   0  0  0  0  0  0  0  0  0  0  0  0
    3.6404   -2.9076    2.3064 O   0  0  0  0  0  0  0  0  0  0  0  0
    1.4108   -3.0065    2.8048 O   0  0  0  0  0  0  0  0  0  0  0  0
    2.5768   -3.2820    3.0569 C   0  0  0  0  0  0  0  0  0  0  0  0
    3.0069   -4.0999    4.2354 C   0  0  0  0  0  0  0  0  0  0  0  0
    5.0160   -0.1973    1.4911 O   0  0  0  0  0  0  0  0  0  0  0  0
    3.1275   -3.4413   -2.9406 H   0  0  0  0  0  0  0  0  0  0  0  0
    0.6465   -5.7774   -0.2982 H   0  0  0  0  0  0  0  0  0  0  0  0
   -0.8014   -6.3510   -2.1720 H   0  0  0  0  0  0  0  0  0  0  0  0
    1.6156   -3.9460   -4.7992 H   0  0  0  0  0  0  0  0  0  0  0  0
   -1.5201   -7.0898   -4.4233 H   0  0  0  0  0  0  0  0  0  0  0  0
   -2.3244   -5.6207   -3.7460 H   0  0  0  0  0  0  0  0  0  0  0  0
   -2.3048   -5.9096   -5.4859 H   0  0  0  0  0  0  0  0  0  0  0  0
    2.4745   -4.6056    0.6178 H   0  0  0  0  0  0  0  0  0  0  0  0
    3.8551   -4.3150   -0.4244 H   0  0  0  0  0  0  0  0  0  0  0  0
    1.5673   -2.3325    0.1149 H   0  0  0  0  0  0  0  0  0  0  0  0
    2.7375   -1.1517    1.6877 H   0  0  0  0  0  0  0  0  0  0  0  0
    5.4705   -2.0706    0.7918 H   0  0  0  0  0  0  0  0  0  0  0  0
    5.1760   -1.2711   -1.3608 H   0  0  0  0  0  0  0  0  0  0  0  0
    4.1899    0.0893   -0.8430 H   0  0  0  0  0  0  0  0  0  0  0  0
    2.4131   -1.0707   -1.4377 H   0  0  0  0  0  0  0  0  0  0  0  0
    3.3403   -5.0855    3.9066 H   0  0  0  0  0  0  0  0  0  0  0  0
    3.8048   -3.5829    4.7772 H   0  0  0  0  0  0  0  0  0  0  0  0
    2.1611   -4.2180    4.9188 H   0  0  0  0  0  0  0  0  0  0  0  0
    4.2865    0.4431    1.4418 H   0  0  0  0  0  0  0  0  0  0  0  0
  1  2  2  0  0  0  0
  1 20  1  0  0  0  0
  2  3  1  0  0  0  0
  2  9  1  0  0  0  0
  3  4  2  0  0  0  0
  3 21  1  0  0  0  0
  4  5  1  0  0  0  0
  4 22  1  0  0  0  0
  5  6  2  0  0  0  0
  5  7  1  0  0  0  0
  6  1  1  0  0  0  0
  6 23  1  0  0  0  0
  7  8  1  0  0  0  0
  8 24  1  0  0  0  0
  8 25  1  0  0  0  0
  8 26  1  0  0  0  0
  9 27  1  0  0  0  0
  9 28  1  0  0  0  0
 10 11  1  0  0  0  0
 10 29  1  1  0  0  0
 10  9  1  0  0  0  0
 11 12  1  0  0  0  0
 11 15  1  0  0  0  0
 11 30  1  1  0  0  0
 12 13  1  0  0  0  0
 12 19  1  0  0  0  0
 12 31  1  1  0  0  0
 13 14  1  0  0  0  0
 13 32  1  0  0  0  0
 13 33  1  0  0  0  0
 14 10  1  0  0  0  0
 14 34  1  0  0  0  0
 15 17  1  0  0  0  0
 16 17  2  0  0  0  0
 17 18  1  0  0  0  0
 18 35  1  0  0  0  0
 18 36  1  0  0  0  0
 18 37  1  0  0  0  0
 19 38  1  0  0  0  0
M  END
>  <Mol_ID>
2586

>  <Formula>
C14H19NO4

>  <MolWeight>
265.30496

>  <Cat>
S7409

>  <Name>
Anisomycin

>  <Synonyms>
Flagecidin, Wuningmeisu C

>  <Target>
Apoptosis related,Autophagy,JNK

>  <Form>
free base

>  <CAS>
22862-76-6

>  <URL>
http://selleckchem.com/products/anisomycin.html

$$$$
