Anserine
 OpenBabel08302521383D

 33 33  0  0  0  0  0  0  0  0999 V2000
    1.9513    3.4357    4.3734 N   0  0  0  0  0  0  0  0  0  0  0  0
    1.3025    2.2767    4.9924 C   0  0  0  0  0  0  0  0  0  0  0  0
    0.9130    1.2032    3.9710 C   0  0  0  0  0  0  0  0  0  0  0  0
    0.2794   -0.0051    4.6475 C   0  0  0  0  0  0  0  0  0  0  0  0
   -0.1293   -0.9867    3.7644 N   0  0  0  0  0  0  0  0  0  0  0  0
    0.0991   -0.0904    5.8589 O   0  0  0  0  0  0  0  0  0  0  0  0
   -0.5644   -2.3035    4.2664 C   0  0  2  0  0  0  0  0  0  0  0  0
    0.6612   -3.2171    4.4490 C   0  0  0  0  0  0  0  0  0  0  0  0
   -1.5648   -2.9623    3.2946 C   0  0  0  0  0  0  0  0  0  0  0  0
   -2.8946   -2.2762    3.2485 C   0  0  0  0  0  0  0  0  0  0  0  0
    0.3769   -4.4321    4.9768 O   0  0  0  0  0  0  0  0  0  0  0  0
    1.8047   -2.9144    4.1278 O   0  0  0  0  0  0  0  0  0  0  0  0
   -3.7966   -2.3777    2.2124 N   0  0  0  0  0  0  0  0  0  0  0  0
   -4.8415   -1.5369    2.4839 C   0  0  0  0  0  0  0  0  0  0  0  0
   -4.7258   -0.9980    3.6740 N   0  0  0  0  0  0  0  0  0  0  0  0
   -3.5358   -1.4585    4.1645 C   0  0  0  0  0  0  0  0  0  0  0  0
   -3.7331   -3.2599    1.0732 C   0  0  0  0  0  0  0  0  0  0  0  0
    2.8190    3.1562    3.9197 H   0  0  0  0  0  0  0  0  0  0  0  0
    1.3530    3.8364    3.6535 H   0  0  0  0  0  0  0  0  0  0  0  0
    1.9852    1.8562    5.7386 H   0  0  0  0  0  0  0  0  0  0  0  0
    0.4147    2.6204    5.5292 H   0  0  0  0  0  0  0  0  0  0  0  0
    0.2055    1.6166    3.2412 H   0  0  0  0  0  0  0  0  0  0  0  0
    1.7998    0.8570    3.4318 H   0  0  0  0  0  0  0  0  0  0  0  0
    0.2761   -0.9555    2.8395 H   0  0  0  0  0  0  0  0  0  0  0  0
   -1.0034   -2.1721    5.2617 H   0  0  0  0  0  0  0  0  0  0  0  0
   -1.1221   -2.9838    2.2915 H   0  0  0  0  0  0  0  0  0  0  0  0
   -1.7480   -4.0052    3.5730 H   0  0  0  0  0  0  0  0  0  0  0  0
   -0.5489   -4.5639    5.2618 H   0  0  0  0  0  0  0  0  0  0  0  0
   -5.6629   -1.3713    1.7978 H   0  0  0  0  0  0  0  0  0  0  0  0
   -3.1965   -1.1635    5.1505 H   0  0  0  0  0  0  0  0  0  0  0  0
   -2.7407   -3.2032    0.6279 H   0  0  0  0  0  0  0  0  0  0  0  0
   -3.9435   -4.2735    1.4221 H   0  0  0  0  0  0  0  0  0  0  0  0
   -4.4831   -2.9583    0.3378 H   0  0  0  0  0  0  0  0  0  0  0  0
  1  2  1  0  0  0  0
  1 18  1  0  0  0  0
  1 19  1  0  0  0  0
  2  3  1  0  0  0  0
  2 20  1  0  0  0  0
  2 21  1  0  0  0  0
  3  4  1  0  0  0  0
  3 22  1  0  0  0  0
  3 23  1  0  0  0  0
  4  5  1  0  0  0  0
  4  6  2  0  0  0  0
  5 24  1  0  0  0  0
  7  5  1  0  0  0  0
  7  9  1  0  0  0  0
  7  8  1  0  0  0  0
  7 25  1  1  0  0  0
  8 11  1  0  0  0  0
  8 12  2  0  0  0  0
  9 10  1  0  0  0  0
  9 26  1  0  0  0  0
  9 27  1  0  0  0  0
 10 13  1  0  0  0  0
 11 28  1  0  0  0  0
 13 14  1  0  0  0  0
 13 17  1  0  0  0  0
 14 15  2  0  0  0  0
 14 29  1  0  0  0  0
 15 16  1  0  0  0  0
 16 10  2  0  0  0  0
 16 30  1  0  0  0  0
 17 31  1  0  0  0  0
 17 32  1  0  0  0  0
 17 33  1  0  0  0  0
M  END
>  <Mol_ID>
7909

>  <Formula>
C10H16N4O3

>  <MolWeight>
240.25904

>  <Cat>
S6141

>  <Name>
Anserine

>  <Synonyms>
¦Â-alanyl-N-methylhistidine

>  <Target>
Others

>  <Form>
free base

>  <CAS>
584-85-0

>  <URL>
http://www.selleck.cn/products/anserine.html

$$$$
