Ansofaxine hydrochloride
 OpenBabel08302521323D

 59 61  0  0  0  0  0  0  0  0999 V2000
    0.9842    0.0282   -0.0748 C   0  0  3  0  0  0  0  0  0  0  0  0
    0.6223    1.0599   -1.2048 C   0  0  0  0  0  0  0  0  0  0  0  0
    0.6351   -1.3961   -0.5794 C   0  0  0  0  0  0  0  0  0  0  0  0
    0.4287    0.3798    1.3755 C   0  0  0  0  0  0  0  0  0  0  0  0
    1.0655    2.4477   -0.9748 N   0  0  0  0  0  0  0  0  0  0  0  0
    1.6132   -2.1310   -1.2736 C   0  0  0  0  0  0  0  0  0  0  0  0
   -0.6034   -2.0213   -0.3506 C   0  0  0  0  0  0  0  0  0  0  0  0
   -1.0027    0.5246    1.2841 O   0  0  0  0  0  0  0  0  0  0  0  0
    0.9620    1.7006    1.9933 C   0  0  0  0  0  0  0  0  0  0  0  0
    0.7276   -0.7199    2.4321 C   0  0  0  0  0  0  0  0  0  0  0  0
    2.5138    2.6211   -0.9916 C   0  0  0  0  0  0  0  0  0  0  0  0
    0.4517    3.3992   -1.9002 C   0  0  0  0  0  0  0  0  0  0  0  0
    1.4075   -3.4733   -1.6173 C   0  0  0  0  0  0  0  0  0  0  0  0
   -0.8020   -3.3748   -0.6634 C   0  0  0  0  0  0  0  0  0  0  0  0
    2.4404    1.6705    2.3711 C   0  0  0  0  0  0  0  0  0  0  0  0
    2.1940   -0.8049    2.8591 C   0  0  0  0  0  0  0  0  0  0  0  0
    0.2260   -4.1096   -1.2494 C   0  0  0  0  0  0  0  0  0  0  0  0
    2.7670    0.5309    3.3222 C   0  0  0  0  0  0  0  0  0  0  0  0
   -0.0222   -5.4816   -1.4734 O   0  0  0  0  0  0  0  0  0  0  0  0
    1.0125   -6.4021   -1.3625 C   0  0  0  0  0  0  0  0  0  0  0  0
    2.1871   -6.1903   -1.1015 O   0  0  0  0  0  0  0  0  0  0  0  0
    0.5092   -7.7634   -1.6712 C   0  0  0  0  0  0  0  0  0  0  0  0
   -0.7578   -8.1981   -1.2709 C   0  0  0  0  0  0  0  0  0  0  0  0
    1.3610   -8.6435   -2.3454 C   0  0  0  0  0  0  0  0  0  0  0  0
   -1.1739   -9.5017   -1.5676 C   0  0  0  0  0  0  0  0  0  0  0  0
    0.9411   -9.9339   -2.6503 C   0  0  0  0  0  0  0  0  0  0  0  0
   -0.3319  -10.3770   -2.2686 C   0  0  0  0  0  0  0  0  0  0  0  0
   -0.7723  -11.7687   -2.6191 C   0  0  0  0  0  0  0  0  0  0  0  0
    2.0760    0.0161    0.0232 H   0  0  0  0  0  0  0  0  0  0  0  0
    1.0373    0.7154   -2.1633 H   0  0  0  0  0  0  0  0  0  0  0  0
   -0.4688    1.0467   -1.3311 H   0  0  0  0  0  0  0  0  0  0  0  0
    2.5658   -1.6727   -1.5301 H   0  0  0  0  0  0  0  0  0  0  0  0
   -1.4200   -1.4815    0.1218 H   0  0  0  0  0  0  0  0  0  0  0  0
   -1.3333    0.8106    2.1518 H   0  0  0  0  0  0  0  0  0  0  0  0
    0.7380    2.5663    1.3685 H   0  0  0  0  0  0  0  0  0  0  0  0
    0.3911    1.9097    2.9098 H   0  0  0  0  0  0  0  0  0  0  0  0
    0.1172   -0.5227    3.3244 H   0  0  0  0  0  0  0  0  0  0  0  0
    0.3956   -1.7061    2.0961 H   0  0  0  0  0  0  0  0  0  0  0  0
    2.9220    2.6735   -2.0019 H   0  0  0  0  0  0  0  0  0  0  0  0
    2.7696    3.5454   -0.4602 H   0  0  0  0  0  0  0  0  0  0  0  0
    3.0441    1.8145   -0.4844 H   0  0  0  0  0  0  0  0  0  0  0  0
    0.8100    3.2669   -2.9276 H   0  0  0  0  0  0  0  0  0  0  0  0
   -0.6401    3.3170   -1.8994 H   0  0  0  0  0  0  0  0  0  0  0  0
    0.6854    4.4251   -1.5884 H   0  0  0  0  0  0  0  0  0  0  0  0
    2.1944   -4.0097   -2.1389 H   0  0  0  0  0  0  0  0  0  0  0  0
   -1.7497   -3.8500   -0.4226 H   0  0  0  0  0  0  0  0  0  0  0  0
    3.0755    1.5672    1.4929 H   0  0  0  0  0  0  0  0  0  0  0  0
    2.7154    2.6254    2.8348 H   0  0  0  0  0  0  0  0  0  0  0  0
    2.7986   -1.1987    2.0347 H   0  0  0  0  0  0  0  0  0  0  0  0
    2.2834   -1.5236    3.6828 H   0  0  0  0  0  0  0  0  0  0  0  0
    3.8563    0.4453    3.4225 H   0  0  0  0  0  0  0  0  0  0  0  0
    2.3803    0.7739    4.3186 H   0  0  0  0  0  0  0  0  0  0  0  0
   -1.4201   -7.5399   -0.7154 H   0  0  0  0  0  0  0  0  0  0  0  0
    2.3604   -8.3209   -2.6422 H   0  0  0  0  0  0  0  0  0  0  0  0
   -2.1592   -9.8308   -1.2433 H   0  0  0  0  0  0  0  0  0  0  0  0
    1.6115  -10.6057   -3.1907 H   0  0  0  0  0  0  0  0  0  0  0  0
   -0.7970  -11.8909   -3.7073 H   0  0  0  0  0  0  0  0  0  0  0  0
   -0.0812  -12.5037   -2.1929 H   0  0  0  0  0  0  0  0  0  0  0  0
   -1.7737  -11.9843   -2.2324 H   0  0  0  0  0  0  0  0  0  0  0  0
  1  2  1  0  0  0  0
  1  3  1  0  0  0  0
  1  4  1  0  0  0  0
  1 29  1  0  0  0  0
  2  5  1  0  0  0  0
  2 30  1  0  0  0  0
  2 31  1  0  0  0  0
  3  6  2  0  0  0  0
  3  7  1  0  0  0  0
  4  8  1  0  0  0  0
  4  9  1  0  0  0  0
  4 10  1  0  0  0  0
  5 11  1  0  0  0  0
  5 12  1  0  0  0  0
  6 13  1  0  0  0  0
  6 32  1  0  0  0  0
  7 14  2  0  0  0  0
  7 33  1  0  0  0  0
  8 34  1  0  0  0  0
  9 15  1  0  0  0  0
  9 35  1  0  0  0  0
  9 36  1  0  0  0  0
 10 16  1  0  0  0  0
 10 37  1  0  0  0  0
 10 38  1  0  0  0  0
 11 39  1  0  0  0  0
 11 40  1  0  0  0  0
 11 41  1  0  0  0  0
 12 42  1  0  0  0  0
 12 43  1  0  0  0  0
 12 44  1  0  0  0  0
 13 17  2  0  0  0  0
 13 45  1  0  0  0  0
 14 17  1  0  0  0  0
 14 46  1  0  0  0  0
 15 18  1  0  0  0  0
 15 47  1  0  0  0  0
 15 48  1  0  0  0  0
 16 18  1  0  0  0  0
 16 49  1  0  0  0  0
 16 50  1  0  0  0  0
 17 19  1  0  0  0  0
 18 51  1  0  0  0  0
 18 52  1  0  0  0  0
 19 20  1  0  0  0  0
 20 21  2  0  0  0  0
 20 22  1  0  0  0  0
 22 23  2  0  0  0  0
 22 24  1  0  0  0  0
 23 25  1  0  0  0  0
 23 53  1  0  0  0  0
 24 26  2  0  0  0  0
 24 54  1  0  0  0  0
 25 27  2  0  0  0  0
 25 55  1  0  0  0  0
 26 27  1  0  0  0  0
 26 56  1  0  0  0  0
 27 28  1  0  0  0  0
 28 57  1  0  0  0  0
 28 58  1  0  0  0  0
 28 59  1  0  0  0  0
M  END
>  <Mol_ID>
6157

>  <Formula>
C24H32ClNO3

>  <MolWeight>
417.96878

>  <Cat>
S0318

>  <Name>
Ansofaxine hydrochloride

>  <Synonyms>
LY03005, LPM570065

>  <Target>
5-HT Receptor,Dopamine Receptor

>  <Form>
hydrochloride

>  <CAS>
916918-84-8

>  <URL>
http://www.selleckchem.com/products/ansofaxine-hydrochloride.html

$$$$
