Antazoline Phosphate
 OpenBabel08302521353D

 47 48  0  0  0  0  0  0  0  0999 V2000
   -0.0039    0.1790    2.8501 N   0  0  0  0  0  0  0  0  0  0  0  0
   -0.7769   -1.0189    2.8395 C   0  0  0  0  0  0  0  0  0  0  0  0
   -0.5049    1.4410    2.1971 C   0  0  0  0  0  0  0  0  0  0  0  0
    1.4908    0.0196    2.8679 C   0  0  0  0  0  0  0  0  0  0  0  0
   -2.1164   -1.0833    2.3777 C   0  0  0  0  0  0  0  0  0  0  0  0
   -0.2416   -2.2712    3.1996 C   0  0  0  0  0  0  0  0  0  0  0  0
   -0.1328    2.7734    2.7785 C   0  0  0  0  0  0  0  0  0  0  0  0
    2.1315   -0.0388    4.2484 C   0  0  0  0  0  0  0  0  0  0  0  0
   -2.7908   -2.3031    2.1445 C   0  0  0  0  0  0  0  0  0  0  0  0
   -0.9444   -3.4858    3.0612 C   0  0  0  0  0  0  0  0  0  0  0  0
    0.0626    3.8734    1.9021 C   0  0  0  0  0  0  0  0  0  0  0  0
   -0.1790    2.9907    4.1455 C   0  0  0  0  0  0  0  0  0  0  0  0
    2.6615    1.0977    4.8064 N   0  0  0  0  0  0  0  0  0  0  0  0
    2.2817   -1.1550    4.9106 N   0  0  0  0  0  0  0  0  0  0  0  0
   -2.2086   -3.5022    2.5044 C   0  0  0  0  0  0  0  0  0  0  0  0
    0.1780    5.1632    2.4076 C   0  0  0  0  0  0  0  0  0  0  0  0
   -0.0458    4.2811    4.6452 C   0  0  0  0  0  0  0  0  0  0  0  0
    3.3693    0.7096    5.9981 C   0  0  0  0  0  0  0  0  0  0  0  0
    2.8833   -0.7276    6.1937 C   0  0  0  0  0  0  0  0  0  0  0  0
    0.1144    5.3674    3.7801 C   0  0  0  0  0  0  0  0  0  0  0  0
    1.0207   -0.0759   -0.0617 P   0  0  0  0  0  0  0  0  0  0  0  0
    0.8623   -1.3182   -1.1023 O   0  0  0  0  0  0  0  0  0  0  0  0
    0.9183    1.1390   -1.1393 O   0  0  0  0  0  0  0  0  0  0  0  0
   -0.7093   -0.0759   -0.0617 O   0  0  0  0  0  0  0  0  0  0  0  0
    2.5691   -0.0759   -0.0617 O   0  0  0  0  0  0  0  0  0  0  0  0
   -0.0843    1.5267    1.2049 H   0  0  0  0  0  0  0  0  0  0  0  0
   -1.5896    1.4568    2.0829 H   0  0  0  0  0  0  0  0  0  0  0  0
    1.8112   -0.8836    2.3303 H   0  0  0  0  0  0  0  0  0  0  0  0
    1.9650    0.8594    2.3452 H   0  0  0  0  0  0  0  0  0  0  0  0
   -2.6579   -0.1995    2.0482 H   0  0  0  0  0  0  0  0  0  0  0  0
    0.7618   -2.3739    3.5977 H   0  0  0  0  0  0  0  0  0  0  0  0
   -3.7657   -2.2986    1.6568 H   0  0  0  0  0  0  0  0  0  0  0  0
   -0.4794   -4.4152    3.3806 H   0  0  0  0  0  0  0  0  0  0  0  0
    0.0757    3.7343    0.8176 H   0  0  0  0  0  0  0  0  0  0  0  0
   -0.3613    2.1524    4.8127 H   0  0  0  0  0  0  0  0  0  0  0  0
    2.0566    1.9102    4.8493 H   0  0  0  0  0  0  0  0  0  0  0  0
   -2.7404   -4.4473    2.3538 H   0  0  0  0  0  0  0  0  0  0  0  0
    0.2900    6.0079    1.7347 H   0  0  0  0  0  0  0  0  0  0  0  0
   -0.1061    4.4469    5.7154 H   0  0  0  0  0  0  0  0  0  0  0  0
    3.1467    1.3510    6.8540 H   0  0  0  0  0  0  0  0  0  0  0  0
    4.4465    0.7294    5.7970 H   0  0  0  0  0  0  0  0  0  0  0  0
    3.7070   -1.3940    6.4719 H   0  0  0  0  0  0  0  0  0  0  0  0
    2.1149   -0.7745    6.9694 H   0  0  0  0  0  0  0  0  0  0  0  0
    0.1643    6.3753    4.1786 H   0  0  0  0  0  0  0  0  0  0  0  0
    0.7271   -2.1645   -0.6428 H   0  0  0  0  0  0  0  0  0  0  0  0
    1.6632    1.0052   -1.7555 H   0  0  0  0  0  0  0  0  0  0  0  0
   -0.9930   -0.5223    0.7364 H   0  0  0  0  0  0  0  0  0  0  0  0
  1  2  1  0  0  0  0
  1  3  1  0  0  0  0
  1  4  1  0  0  0  0
  2  5  2  0  0  0  0
  2  6  1  0  0  0  0
  3  7  1  0  0  0  0
  3 26  1  0  0  0  0
  3 27  1  0  0  0  0
  4  8  1  0  0  0  0
  4 28  1  0  0  0  0
  4 29  1  0  0  0  0
  5  9  1  0  0  0  0
  5 30  1  0  0  0  0
  6 10  2  0  0  0  0
  6 31  1  0  0  0  0
  7 11  2  0  0  0  0
  7 12  1  0  0  0  0
  8 13  1  0  0  0  0
  8 14  2  0  0  0  0
  9 15  2  0  0  0  0
  9 32  1  0  0  0  0
 10 15  1  0  0  0  0
 10 33  1  0  0  0  0
 11 16  1  0  0  0  0
 11 34  1  0  0  0  0
 12 17  2  0  0  0  0
 12 35  1  0  0  0  0
 13 18  1  0  0  0  0
 13 36  1  0  0  0  0
 14 19  1  0  0  0  0
 15 37  1  0  0  0  0
 16 20  2  0  0  0  0
 16 38  1  0  0  0  0
 17 20  1  0  0  0  0
 17 39  1  0  0  0  0
 18 19  1  0  0  0  0
 18 40  1  0  0  0  0
 18 41  1  0  0  0  0
 19 42  1  0  0  0  0
 19 43  1  0  0  0  0
 20 44  1  0  0  0  0
 21 22  1  0  0  0  0
 21 23  1  0  0  0  0
 21 24  1  0  0  0  0
 21 25  2  0  0  0  0
 22 45  1  0  0  0  0
 23 46  1  0  0  0  0
 24 47  1  0  0  0  0
M  END
>  <Mol_ID>
6798

>  <Formula>
C17H22N3O4P

>  <MolWeight>
363.348041

>  <Cat>
E0164

>  <Name>
Antazoline Phosphate

>  <Synonyms>
N/A

>  <Target>
Histamine Receptor

>  <Form>
Phosphate

>  <CAS>
154-68-7

>  <URL>
http://www.selleckchem.com/products/antazoline-phosphate.html

$$$$
