ANTABUSE (disulfiram).cdx
 OpenBabel08302520403D

 36 35  0  0  0  0  0  0  0  0999 V2000
    1.9915    1.4712   -2.3529 C   0  0  0  0  0  0  0  0  0  0  0  0
    1.4691    1.2665   -0.9366 C   0  0  0  0  0  0  0  0  0  0  0  0
    1.2252    2.5088   -0.1859 N   0  0  0  0  0  0  0  0  0  0  0  0
    0.4334    3.5377   -0.7139 C   0  0  0  0  0  0  0  0  0  0  0  0
    1.0845    5.1598   -0.4069 S   0  0  0  0  0  0  0  0  0  0  0  0
    2.6438    5.1727   -1.7529 S   0  0  0  0  0  0  0  0  0  0  0  0
    3.5838    6.6401   -1.4280 C   0  0  0  0  0  0  0  0  0  0  0  0
    4.0344    7.2458   -2.6100 N   0  0  0  0  0  0  0  0  0  0  0  0
    3.0735    7.6865   -3.6274 C   0  0  0  0  0  0  0  0  0  0  0  0
    1.1487    2.3324    1.2703 C   0  0  0  0  0  0  0  0  0  0  0  0
    2.4423    2.7036    1.9720 C   0  0  0  0  0  0  0  0  0  0  0  0
   -1.0081    3.3248   -1.5462 S   0  0  0  0  0  0  0  0  0  0  0  0
    4.0647    7.1129    0.1089 S   0  0  0  0  0  0  0  0  0  0  0  0
    5.4270    7.6672   -2.7852 C   0  0  0  0  0  0  0  0  0  0  0  0
    6.3776    6.4762   -2.8856 C   0  0  0  0  0  0  0  0  0  0  0  0
    2.9826    6.7670   -4.8343 C   0  0  0  0  0  0  0  0  0  0  0  0
    1.2453    1.9315   -3.0053 H   0  0  0  0  0  0  0  0  0  0  0  0
    2.2596    0.5066   -2.7960 H   0  0  0  0  0  0  0  0  0  0  0  0
    2.8833    2.1042   -2.3593 H   0  0  0  0  0  0  0  0  0  0  0  0
    0.5534    0.6664   -0.9450 H   0  0  0  0  0  0  0  0  0  0  0  0
    2.2347    0.7036   -0.3881 H   0  0  0  0  0  0  0  0  0  0  0  0
    2.0851    7.7867   -3.1682 H   0  0  0  0  0  0  0  0  0  0  0  0
    3.3630    8.6935   -3.9514 H   0  0  0  0  0  0  0  0  0  0  0  0
    0.3252    2.9317    1.6769 H   0  0  0  0  0  0  0  0  0  0  0  0
    0.8997    1.2839    1.4810 H   0  0  0  0  0  0  0  0  0  0  0  0
    2.6027    3.7852    1.9479 H   0  0  0  0  0  0  0  0  0  0  0  0
    2.3993    2.3966    3.0224 H   0  0  0  0  0  0  0  0  0  0  0  0
    3.3052    2.2219    1.5048 H   0  0  0  0  0  0  0  0  0  0  0  0
    5.5187    8.2570   -3.7084 H   0  0  0  0  0  0  0  0  0  0  0  0
    5.7273    8.3200   -1.9584 H   0  0  0  0  0  0  0  0  0  0  0  0
    6.0695    5.7970   -3.6875 H   0  0  0  0  0  0  0  0  0  0  0  0
    7.3957    6.8164   -3.0971 H   0  0  0  0  0  0  0  0  0  0  0  0
    6.4003    5.9030   -1.9540 H   0  0  0  0  0  0  0  0  0  0  0  0
    2.5240    5.8099   -4.5748 H   0  0  0  0  0  0  0  0  0  0  0  0
    2.3583    7.2265   -5.6081 H   0  0  0  0  0  0  0  0  0  0  0  0
    3.9679    6.5621   -5.2629 H   0  0  0  0  0  0  0  0  0  0  0  0
  1  2  1  0  0  0  0
  1 17  1  0  0  0  0
  1 18  1  0  0  0  0
  1 19  1  0  0  0  0
  2  3  1  0  0  0  0
  2 20  1  0  0  0  0
  2 21  1  0  0  0  0
  3  4  1  0  0  0  0
  3 10  1  0  0  0  0
  4  5  1  0  0  0  0
  4 12  2  0  0  0  0
  5  6  1  0  0  0  0
  6  7  1  0  0  0  0
  7  8  1  0  0  0  0
  7 13  2  0  0  0  0
  8  9  1  0  0  0  0
  8 14  1  0  0  0  0
  9 16  1  0  0  0  0
  9 22  1  0  0  0  0
  9 23  1  0  0  0  0
 10 11  1  0  0  0  0
 10 24  1  0  0  0  0
 10 25  1  0  0  0  0
 11 26  1  0  0  0  0
 11 27  1  0  0  0  0
 11 28  1  0  0  0  0
 14 15  1  0  0  0  0
 14 29  1  0  0  0  0
 14 30  1  0  0  0  0
 15 31  1  0  0  0  0
 15 32  1  0  0  0  0
 15 33  1  0  0  0  0
 16 34  1  0  0  0  0
 16 35  1  0  0  0  0
 16 36  1  0  0  0  0
M  END
>  <Mol_ID>
388

>  <Formula>
C10H20N2S4

>  <MolWeight>
296.5392

>  <Cat>
S1680

>  <Name>
Disulfiram (NSC 190940)

>  <Synonyms>
NSC 190940, Tetraethylthiuram disulfide, TETD

>  <Target>
Apoptosis related,COVID-19,Dehydrogenase,Pyroptosis

>  <Form>
free base

>  <CAS>
97-77-8

>  <URL>
http://selleckchem.com/products/Disulfiram(Antabuse).html

$$$$
