Antimalarial agent 1
 OpenBabel08302521343D

 44 44  0  0  0  0  0  0  0  0999 V2000
    1.5632    0.9875    0.8721 N   0  0  0  0  0  0  0  0  0  0  0  0
    1.6571    4.7953   -4.3854 C   0  0  0  0  0  0  0  0  0  0  0  0
    0.4842    4.8371   -5.3650 C   0  0  0  0  0  0  0  0  0  0  0  0
    1.9652    6.1959   -3.8453 C   0  0  0  0  0  0  0  0  0  0  0  0
   -2.5497    3.1014    0.9961 N   0  0  0  0  0  0  0  0  0  0  0  0
    3.3648    2.3038   -3.7961 C   0  0  0  0  0  0  0  0  0  0  0  0
    4.6774    3.0162   -3.4772 C   0  0  0  0  0  0  0  0  0  0  0  0
    3.5508    0.7822   -3.7190 C   0  0  0  0  0  0  0  0  0  0  0  0
    0.0366    3.3998   -1.3851 C   0  0  0  0  0  0  0  0  0  0  0  0
    0.9638    2.4404   -0.9838 C   0  0  0  0  0  0  0  0  0  0  0  0
    0.2856    4.1207   -2.4836 N   0  0  0  0  0  0  0  0  0  0  0  0
   -1.0964    3.6458   -0.7259 N   0  0  0  0  0  0  0  0  0  0  0  0
    2.0617    2.1167   -1.7333 N   0  0  0  0  0  0  0  0  0  0  0  0
    0.6439    1.8393    0.2299 C   0  0  0  0  0  0  0  0  0  0  0  0
    1.3906    3.8423   -3.2340 C   0  0  0  0  0  0  0  0  0  0  0  0
   -1.3384    2.9254    0.3628 C   0  0  0  0  0  0  0  0  0  0  0  0
    2.2389    2.7837   -2.9000 C   0  0  0  0  0  0  0  0  0  0  0  0
   -0.4894    2.0647    0.9101 N   0  0  0  0  0  0  0  0  0  0  0  0
    0.8143   -1.9721   -1.3788 P   0  0  0  0  0  0  0  0  0  0  0  0
   -0.2832   -1.0204   -2.0931 O   0  0  0  0  0  0  0  0  0  0  0  0
    0.4374   -1.6469    0.1621 O   0  0  0  0  0  0  0  0  0  0  0  0
   -0.1699   -1.1116   -3.5350 O   0  0  0  0  0  0  0  0  0  0  0  0
   -0.8429   -2.2224    0.5271 O   0  0  0  0  0  0  0  0  0  0  0  0
    1.0754    0.5347    1.6393 H   0  0  0  0  0  0  0  0  0  0  0  0
    1.9521    0.3336    0.2007 H   0  0  0  0  0  0  0  0  0  0  0  0
    2.5357    4.4833   -4.9543 H   0  0  0  0  0  0  0  0  0  0  0  0
   -0.4324    5.2064   -4.8921 H   0  0  0  0  0  0  0  0  0  0  0  0
    0.7133    5.4980   -6.2085 H   0  0  0  0  0  0  0  0  0  0  0  0
    0.2767    3.8396   -5.7675 H   0  0  0  0  0  0  0  0  0  0  0  0
    2.8080    6.1683   -3.1450 H   0  0  0  0  0  0  0  0  0  0  0  0
    2.2330    6.8745   -4.6625 H   0  0  0  0  0  0  0  0  0  0  0  0
    1.1081    6.6287   -3.3173 H   0  0  0  0  0  0  0  0  0  0  0  0
   -2.9271    4.0172    0.8005 H   0  0  0  0  0  0  0  0  0  0  0  0
   -2.4947    2.8032    1.9593 H   0  0  0  0  0  0  0  0  0  0  0  0
    3.0972    2.5042   -4.8398 H   0  0  0  0  0  0  0  0  0  0  0  0
    5.0266    2.7807   -2.4663 H   0  0  0  0  0  0  0  0  0  0  0  0
    5.4581    2.7134   -4.1838 H   0  0  0  0  0  0  0  0  0  0  0  0
    4.5711    4.1038   -3.5479 H   0  0  0  0  0  0  0  0  0  0  0  0
    2.6144    0.2632   -3.9531 H   0  0  0  0  0  0  0  0  0  0  0  0
    4.3051    0.4505   -4.4405 H   0  0  0  0  0  0  0  0  0  0  0  0
    3.8757    0.4590   -2.7241 H   0  0  0  0  0  0  0  0  0  0  0  0
    1.9202   -1.0965   -1.5123 H   0  0  0  0  0  0  0  0  0  0  0  0
   -0.9385   -1.6965   -3.6533 H   0  0  0  0  0  0  0  0  0  0  0  0
   -0.4964   -2.8240    1.2071 H   0  0  0  0  0  0  0  0  0  0  0  0
  1 14  1  0  0  0  0
  1 24  1  0  0  0  0
  1 25  1  0  0  0  0
  2  3  1  0  0  0  0
  2  4  1  0  0  0  0
  2 15  1  0  0  0  0
  2 26  1  0  0  0  0
  3 27  1  0  0  0  0
  3 28  1  0  0  0  0
  3 29  1  0  0  0  0
  4 30  1  0  0  0  0
  4 31  1  0  0  0  0
  4 32  1  0  0  0  0
  5 16  1  0  0  0  0
  5 33  1  0  0  0  0
  5 34  1  0  0  0  0
  6  7  1  0  0  0  0
  6  8  1  0  0  0  0
  6 17  1  0  0  0  0
  6 35  1  0  0  0  0
  7 36  1  0  0  0  0
  7 37  1  0  0  0  0
  7 38  1  0  0  0  0
  8 39  1  0  0  0  0
  8 40  1  0  0  0  0
  8 41  1  0  0  0  0
  9 10  1  0  0  0  0
  9 11  2  0  0  0  0
  9 12  1  0  0  0  0
 10 13  2  0  0  0  0
 10 14  1  0  0  0  0
 11 15  1  0  0  0  0
 12 16  2  0  0  0  0
 13 17  1  0  0  0  0
 14 18  2  0  0  0  0
 15 17  2  0  0  0  0
 16 18  1  0  0  0  0
 19 20  1  0  0  0  0
 19 21  1  0  0  0  0
 19 42  1  0  0  0  0
 20 22  1  0  0  0  0
 21 23  1  0  0  0  0
 22 43  1  0  0  0  0
 23 44  1  0  0  0  0
M  END
>  <Mol_ID>
6505

>  <Formula>
C12H21N6O4P

>  <MolWeight>
344.306701

>  <Cat>
E2812

>  <Name>
Antimalarial agent 1

>  <Target>
Anti-infection

>  <Form>
Phosphate

>  <CAS>
84176-65-8

>  <URL>
http://www.selleckchem.com/products/antimalarial-agent-1.html

$$$$
