Apcin
 OpenBabel08302521263D

 41 42  0  0  0  0  0  0  0  0999 V2000
    0.7554   -0.1837    0.0688 C   0  0  0  0  0  0  0  0  0  0  0  0
   -0.0366    0.7845   -0.4559 N   0  0  0  0  0  0  0  0  0  0  0  0
    0.4184   -1.1481    0.7261 O   0  0  0  0  0  0  0  0  0  0  0  0
    2.0176    0.1026   -0.3203 O   0  0  0  0  0  0  0  0  0  0  0  0
   -1.3796    1.0602   -0.0397 C   0  0  3  0  0  0  0  0  0  0  0  0
   -1.3331    2.1692    1.0113 C   0  0  0  0  0  0  0  0  0  0  0  0
   -2.0162    1.5470   -1.2375 N   0  0  0  0  0  0  0  0  0  0  0  0
   -3.3903    1.3255   -1.2969 C   0  0  0  0  0  0  0  0  0  0  0  0
   -4.1264    1.2850   -0.1801 N   0  0  0  0  0  0  0  0  0  0  0  0
   -5.4454    1.0439   -0.3189 C   0  0  0  0  0  0  0  0  0  0  0  0
   -6.0545    0.8461   -1.5331 C   0  0  0  0  0  0  0  0  0  0  0  0
   -5.2196    0.9173   -2.6155 C   0  0  0  0  0  0  0  0  0  0  0  0
   -3.8943    1.1495   -2.5243 N   0  0  0  0  0  0  0  0  0  0  0  0
    2.8903   -1.0037   -0.5753 C   0  0  0  0  0  0  0  0  0  0  0  0
    3.7601   -0.5340   -1.7383 C   0  0  0  0  0  0  0  0  0  0  0  0
    6.0063   -1.6361   -1.8822 C   0  0  0  0  0  0  0  0  0  0  0  0
    6.5990   -2.6051   -2.5523 N   0  0  0  0  0  0  0  0  0  0  0  0
    5.6257   -3.1896   -3.3171 C   0  0  0  0  0  0  0  0  0  0  0  0
    4.4293   -2.5462   -3.1360 C   0  0  0  0  0  0  0  0  0  0  0  0
    4.6718   -1.5346   -2.2405 N   0  0  0  0  0  0  0  0  0  0  0  0
    3.1718   -2.8760   -3.7158 N   0  3  0  0  0  0  0  0  0  0  0  0
    3.1199   -3.9357   -4.3488 O   0  0  0  0  0  0  0  0  0  0  0  0
    2.2264   -2.1000   -3.5369 O   0  5  0  0  0  0  0  0  0  0  0  0
    6.6661   -0.7963   -0.8460 C   0  0  0  0  0  0  0  0  0  0  0  0
    0.4482    1.5180   -0.9483 H   0  0  0  0  0  0  0  0  0  0  0  0
   -1.8291    0.1434    0.3601 H   0  0  0  0  0  0  0  0  0  0  0  0
   -0.8211    3.0582    0.6188 H   0  0  0  0  0  0  0  0  0  0  0  0
   -2.3323    2.4834    1.3234 H   0  0  0  0  0  0  0  0  0  0  0  0
   -0.7810    1.8436    1.8990 H   0  0  0  0  0  0  0  0  0  0  0  0
   -1.6547    1.1526   -2.0963 H   0  0  0  0  0  0  0  0  0  0  0  0
   -6.0106    1.0133    0.6084 H   0  0  0  0  0  0  0  0  0  0  0  0
   -7.1147    0.6510   -1.6222 H   0  0  0  0  0  0  0  0  0  0  0  0
   -5.5963    0.7824   -3.6262 H   0  0  0  0  0  0  0  0  0  0  0  0
    3.4999   -1.2175    0.3104 H   0  0  0  0  0  0  0  0  0  0  0  0
    2.3237   -1.9038   -0.8393 H   0  0  0  0  0  0  0  0  0  0  0  0
    3.1470   -0.1607   -2.5666 H   0  0  0  0  0  0  0  0  0  0  0  0
    4.3383    0.3477   -1.4337 H   0  0  0  0  0  0  0  0  0  0  0  0
    5.8382   -4.0498   -3.9403 H   0  0  0  0  0  0  0  0  0  0  0  0
    6.9276    0.1881   -1.2448 H   0  0  0  0  0  0  0  0  0  0  0  0
    6.0189   -0.6662    0.0265 H   0  0  0  0  0  0  0  0  0  0  0  0
    7.5849   -1.2819   -0.5019 H   0  0  0  0  0  0  0  0  0  0  0  0
  1  2  1  0  0  0  0
  1  3  2  0  0  0  0
  1  4  1  0  0  0  0
  2  5  1  0  0  0  0
  2 25  1  0  0  0  0
  4 14  1  0  0  0  0
  5  6  1  0  0  0  0
  5  7  1  0  0  0  0
  5 26  1  0  0  0  0
  6 27  1  0  0  0  0
  6 28  1  0  0  0  0
  6 29  1  0  0  0  0
  7  8  1  0  0  0  0
  7 30  1  0  0  0  0
  8  9  2  0  0  0  0
  8 13  1  0  0  0  0
  9 10  1  0  0  0  0
 10 11  2  0  0  0  0
 10 31  1  0  0  0  0
 11 12  1  0  0  0  0
 11 32  1  0  0  0  0
 12 13  2  0  0  0  0
 12 33  1  0  0  0  0
 14 15  1  0  0  0  0
 14 34  1  0  0  0  0
 14 35  1  0  0  0  0
 15 20  1  0  0  0  0
 15 36  1  0  0  0  0
 15 37  1  0  0  0  0
 16 17  2  0  0  0  0
 16 20  1  0  0  0  0
 16 24  1  0  0  0  0
 17 18  1  0  0  0  0
 18 19  2  0  0  0  0
 18 38  1  0  0  0  0
 19 20  1  0  0  0  0
 19 21  1  0  0  0  0
 21 22  2  0  0  0  0
 21 23  1  0  0  0  0
 24 39  1  0  0  0  0
 24 40  1  0  0  0  0
 24 41  1  0  0  0  0
M  CHG  2  21   1  23  -1
M  END
>  <Mol_ID>
5241

>  <Formula>
C13H14Cl3N7O4

>  <MolWeight>
438.65376

>  <Cat>
S9605

>  <Name>
Apcin

>  <Synonyms>
N/A

>  <Target>
APC,CDK,E3 Ligase

>  <Form>
free base

>  <CAS>
300815-04-7

>  <URL>
http://www.selleckchem.com/products/apcin.html

$$$$
