APD597
 OpenBabel08302521273D

 62 64  0  0  0  0  0  0  0  0999 V2000
    4.2320   -2.4100    4.1713 S   0  0  0  0  0  0  0  0  0  0  0  0
   -3.8792    3.6643    6.7686 O   0  0  0  0  0  0  0  0  0  0  0  0
   -7.1096    7.9115    9.9832 O   0  0  0  0  0  0  0  0  0  0  0  0
   -7.1519    8.7109    7.8529 O   0  0  0  0  0  0  0  0  0  0  0  0
   -3.2595    1.2931    4.9336 O   0  0  0  0  0  0  0  0  0  0  0  0
    5.2346   -2.2057    5.2037 O   0  0  0  0  0  0  0  0  0  0  0  0
    4.4019   -1.8168    2.8568 O   0  0  0  0  0  0  0  0  0  0  0  0
   -5.7385    6.9335    8.3258 N   0  0  0  0  0  0  0  0  0  0  0  0
   -2.1164    2.9208    8.0734 N   0  0  0  0  0  0  0  0  0  0  0  0
   -1.1341   -0.3057    5.6347 N   0  0  0  0  0  0  0  0  0  0  0  0
   -0.7432    1.0607    7.5082 N   0  0  0  0  0  0  0  0  0  0  0  0
    1.6949   -2.6992    4.9239 N   0  0  0  0  0  0  0  0  0  0  0  0
   -3.6496    4.9613    7.4199 C   0  0  0  0  0  0  0  0  0  0  0  0
   -4.1768    5.0397    8.8670 C   0  0  0  0  0  0  0  0  0  0  0  0
   -4.1223    6.1314    6.5427 C   0  0  0  0  0  0  0  0  0  0  0  0
   -5.5382    5.7170    9.0983 C   0  0  0  0  0  0  0  0  0  0  0  0
   -5.4340    6.8295    6.9077 C   0  0  0  0  0  0  0  0  0  0  0  0
   -6.7117    7.9049    8.6697 C   0  0  0  0  0  0  0  0  0  0  0  0
   -2.8624    2.7215    6.9633 C   0  0  0  0  0  0  0  0  0  0  0  0
   -7.9420    9.0396   10.3979 C   0  0  0  0  0  0  0  0  0  0  0  0
   -2.6258    1.6414    6.0936 C   0  0  0  0  0  0  0  0  0  0  0  0
   -1.5060    0.8260    6.4257 C   0  0  0  0  0  0  0  0  0  0  0  0
   -9.4385    8.7394   10.2654 C   0  0  0  0  0  0  0  0  0  0  0  0
   -7.6019    9.3901   11.8476 C   0  0  0  0  0  0  0  0  0  0  0  0
   -1.0984    2.0784    8.2818 C   0  0  0  0  0  0  0  0  0  0  0  0
    0.1720   -0.8583    5.4859 C   0  0  0  0  0  0  0  0  0  0  0  0
    0.4576   -2.2293    5.2776 C   0  0  0  0  0  0  0  0  0  0  0  0
    1.2811    0.0100    5.4261 C   0  0  0  0  0  0  0  0  0  0  0  0
    2.6874   -1.7891    4.8118 C   0  0  0  0  0  0  0  0  0  0  0  0
   -4.5122    1.8478    4.5695 C   0  0  0  0  0  0  0  0  0  0  0  0
    2.5544   -0.4457    5.0900 C   0  0  0  0  0  0  0  0  0  0  0  0
   -0.5312   -3.3382    5.4853 C   0  0  0  0  0  0  0  0  0  0  0  0
    4.0157   -4.1468    3.9721 C   0  0  0  0  0  0  0  0  0  0  0  0
   -1.8955   -0.9712    5.6126 H   0  0  0  0  0  0  0  0  0  0  0  0
   -2.5588    5.1041    7.4583 H   0  0  0  0  0  0  0  0  0  0  0  0
   -4.2072    4.0407    9.3160 H   0  0  0  0  0  0  0  0  0  0  0  0
   -3.4373    5.6158    9.4404 H   0  0  0  0  0  0  0  0  0  0  0  0
   -3.3417    6.9048    6.5960 H   0  0  0  0  0  0  0  0  0  0  0  0
   -4.1689    5.8292    5.4894 H   0  0  0  0  0  0  0  0  0  0  0  0
   -6.3474    5.0272    8.8344 H   0  0  0  0  0  0  0  0  0  0  0  0
   -5.6452    5.9413   10.1660 H   0  0  0  0  0  0  0  0  0  0  0  0
   -5.3949    7.8446    6.4896 H   0  0  0  0  0  0  0  0  0  0  0  0
   -6.2805    6.3254    6.4296 H   0  0  0  0  0  0  0  0  0  0  0  0
   -7.7134    9.9296    9.7976 H   0  0  0  0  0  0  0  0  0  0  0  0
   -9.6754    7.7020   10.5142 H   0  0  0  0  0  0  0  0  0  0  0  0
  -10.0419    9.3994   10.9030 H   0  0  0  0  0  0  0  0  0  0  0  0
   -9.7734    8.9175    9.2372 H   0  0  0  0  0  0  0  0  0  0  0  0
   -6.6440    9.9202   11.8846 H   0  0  0  0  0  0  0  0  0  0  0  0
   -8.3527   10.0517   12.2969 H   0  0  0  0  0  0  0  0  0  0  0  0
   -7.5019    8.4959   12.4695 H   0  0  0  0  0  0  0  0  0  0  0  0
   -0.4916    2.2546    9.1640 H   0  0  0  0  0  0  0  0  0  0  0  0
    1.1491    1.0743    5.6000 H   0  0  0  0  0  0  0  0  0  0  0  0
   -4.6151    1.7267    3.4840 H   0  0  0  0  0  0  0  0  0  0  0  0
   -5.3230    1.2799    5.0356 H   0  0  0  0  0  0  0  0  0  0  0  0
   -4.6125    2.9140    4.7639 H   0  0  0  0  0  0  0  0  0  0  0  0
    3.3956    0.2324    5.0042 H   0  0  0  0  0  0  0  0  0  0  0  0
   -0.6062   -3.9425    4.5750 H   0  0  0  0  0  0  0  0  0  0  0  0
   -0.1682   -3.9906    6.2896 H   0  0  0  0  0  0  0  0  0  0  0  0
   -1.5284   -2.9964    5.7616 H   0  0  0  0  0  0  0  0  0  0  0  0
    4.9577   -4.5575    3.5682 H   0  0  0  0  0  0  0  0  0  0  0  0
    3.8182   -4.6070    4.9355 H   0  0  0  0  0  0  0  0  0  0  0  0
    3.2144   -4.3434    3.2595 H   0  0  0  0  0  0  0  0  0  0  0  0
  1  6  2  0  0  0  0
  1  7  2  0  0  0  0
  1 29  1  0  0  0  0
  1 33  1  0  0  0  0
  2 13  1  0  0  0  0
  2 19  1  0  0  0  0
  3 18  1  0  0  0  0
  3 20  1  0  0  0  0
  4 18  2  0  0  0  0
  5 21  1  0  0  0  0
  5 30  1  0  0  0  0
  8 16  1  0  0  0  0
  8 17  1  0  0  0  0
  8 18  1  0  0  0  0
  9 19  2  0  0  0  0
  9 25  1  0  0  0  0
 10 22  1  0  0  0  0
 10 26  1  0  0  0  0
 10 34  1  0  0  0  0
 11 22  1  0  0  0  0
 11 25  2  0  0  0  0
 12 27  2  0  0  0  0
 12 29  1  0  0  0  0
 13 14  1  0  0  0  0
 13 15  1  0  0  0  0
 13 35  1  0  0  0  0
 14 16  1  0  0  0  0
 14 36  1  0  0  0  0
 14 37  1  0  0  0  0
 15 17  1  0  0  0  0
 15 38  1  0  0  0  0
 15 39  1  0  0  0  0
 16 40  1  0  0  0  0
 16 41  1  0  0  0  0
 17 42  1  0  0  0  0
 17 43  1  0  0  0  0
 19 21  1  0  0  0  0
 20 23  1  0  0  0  0
 20 24  1  0  0  0  0
 20 44  1  0  0  0  0
 21 22  2  0  0  0  0
 23 45  1  0  0  0  0
 23 46  1  0  0  0  0
 23 47  1  0  0  0  0
 24 48  1  0  0  0  0
 24 49  1  0  0  0  0
 24 50  1  0  0  0  0
 25 51  1  0  0  0  0
 26 27  1  0  0  0  0
 26 28  2  0  0  0  0
 27 32  1  0  0  0  0
 28 31  1  0  0  0  0
 28 52  1  0  0  0  0
 29 31  2  0  0  0  0
 30 53  1  0  0  0  0
 30 54  1  0  0  0  0
 30 55  1  0  0  0  0
 31 56  1  0  0  0  0
 32 57  1  0  0  0  0
 32 58  1  0  0  0  0
 32 59  1  0  0  0  0
 33 60  1  0  0  0  0
 33 61  1  0  0  0  0
 33 62  1  0  0  0  0
M  END
>  <Mol_ID>
5338

>  <Formula>
C21H29N5O6S

>  <MolWeight>
479.54986

>  <Cat>
S0110

>  <Name>
APD597

>  <Synonyms>
JNJ-38431055

>  <Target>
GPR,P450 (e.g. CYP17)

>  <Form>
Free Base

>  <CAS>
897732-93-3

>  <URL>
https://www.selleckchem.com/products/apd597.html

$$$$
