APD668
 OpenBabel08302521233D

 57 60  0  0  0  0  0  0  0  0999 V2000
    0.6972   -0.9231   -1.6668 N   0  0  0  0  0  0  0  0  0  0  0  0
    0.7689   -1.1726   -0.2356 C   0  0  0  0  0  0  0  0  0  0  0  0
   -0.6316   -1.2126    0.3536 C   0  0  0  0  0  0  0  0  0  0  0  0
   -1.3914    0.0876    0.0392 C   0  0  0  0  0  0  0  0  0  0  0  0
   -1.3840    0.3580   -1.4775 C   0  0  0  0  0  0  0  0  0  0  0  0
    0.0355    0.3184   -2.0483 C   0  0  0  0  0  0  0  0  0  0  0  0
    1.1064   -1.9092   -2.5485 C   0  0  0  0  0  0  0  0  0  0  0  0
    1.5494   -2.9955   -2.1831 O   0  0  0  0  0  0  0  0  0  0  0  0
    0.9783   -1.5561   -3.8587 O   0  0  0  0  0  0  0  0  0  0  0  0
   -2.7621   -0.0156    0.4722 O   0  0  0  0  0  0  0  0  0  0  0  0
   -2.1035    0.5717    3.9406 C   0  0  0  0  0  0  0  0  0  0  0  0
   -3.0963    0.0083    4.6401 N   0  0  0  0  0  0  0  0  0  0  0  0
   -4.0486   -0.5272    3.8501 C   0  0  0  0  0  0  0  0  0  0  0  0
   -4.0100   -0.5673    2.4663 C   0  0  0  0  0  0  0  0  0  0  0  0
   -2.9136    0.0297    1.8473 C   0  0  0  0  0  0  0  0  0  0  0  0
   -1.9624    0.6196    2.6049 N   0  0  0  0  0  0  0  0  0  0  0  0
   -5.8463   -1.7397    3.1490 N   0  0  0  0  0  0  0  0  0  0  0  0
   -5.1965   -1.2131    4.2355 N   0  0  0  0  0  0  0  0  0  0  0  0
   -5.1499   -1.2969    2.0984 C   0  0  0  0  0  0  0  0  0  0  0  0
   -5.6801   -1.4769    5.5447 C   0  0  0  0  0  0  0  0  0  0  0  0
   -5.4097   -0.6238    6.6179 C   0  0  0  0  0  0  0  0  0  0  0  0
   -5.8369   -0.9363    7.9083 C   0  0  0  0  0  0  0  0  0  0  0  0
   -6.5516   -2.1148    8.1283 C   0  0  0  0  0  0  0  0  0  0  0  0
   -6.8502   -2.9723    7.0666 C   0  0  0  0  0  0  0  0  0  0  0  0
   -6.4353   -2.6418    5.7715 C   0  0  0  0  0  0  0  0  0  0  0  0
   -6.9925   -2.5790    9.7873 S   0  0  0  0  0  0  0  0  0  0  0  0
   -7.0933   -4.0257    9.8136 O   0  0  0  0  0  0  0  0  0  0  0  0
   -6.0930   -1.8813   10.6839 O   0  0  0  0  0  0  0  0  0  0  0  0
   -8.6193   -1.9118   10.0102 C   0  0  0  0  0  0  0  0  0  0  0  0
   -4.8184    0.5647    6.4448 F   0  0  0  0  0  0  0  0  0  0  0  0
    0.3090   -3.5246   -5.1183 C   0  0  0  0  0  0  0  0  0  0  0  0
    1.4342   -2.5420   -4.8097 C   0  0  0  0  0  0  0  0  0  0  0  0
    1.8795   -1.8179   -6.0747 C   0  0  0  0  0  0  0  0  0  0  0  0
    1.3528   -0.3616    0.2158 H   0  0  0  0  0  0  0  0  0  0  0  0
    1.2917   -2.1091   -0.0171 H   0  0  0  0  0  0  0  0  0  0  0  0
   -0.5653   -1.3748    1.4348 H   0  0  0  0  0  0  0  0  0  0  0  0
   -1.1904   -2.0685   -0.0470 H   0  0  0  0  0  0  0  0  0  0  0  0
   -0.8992    0.9469    0.5147 H   0  0  0  0  0  0  0  0  0  0  0  0
   -2.0123   -0.3830   -1.9876 H   0  0  0  0  0  0  0  0  0  0  0  0
   -1.8413    1.3345   -1.6795 H   0  0  0  0  0  0  0  0  0  0  0  0
    0.0102    0.4454   -3.1342 H   0  0  0  0  0  0  0  0  0  0  0  0
    0.6297    1.1431   -1.6362 H   0  0  0  0  0  0  0  0  0  0  0  0
   -1.3130    1.0361    4.5230 H   0  0  0  0  0  0  0  0  0  0  0  0
   -5.4846   -1.5566    1.1020 H   0  0  0  0  0  0  0  0  0  0  0  0
   -5.5972   -0.2567    8.7216 H   0  0  0  0  0  0  0  0  0  0  0  0
   -7.3783   -3.9099    7.2370 H   0  0  0  0  0  0  0  0  0  0  0  0
   -6.6542   -3.3327    4.9586 H   0  0  0  0  0  0  0  0  0  0  0  0
   -8.5773   -0.8253    9.9236 H   0  0  0  0  0  0  0  0  0  0  0  0
   -9.2897   -2.3389    9.2625 H   0  0  0  0  0  0  0  0  0  0  0  0
   -8.9603   -2.1893   11.0108 H   0  0  0  0  0  0  0  0  0  0  0  0
   -0.5695   -3.0059   -5.5170 H   0  0  0  0  0  0  0  0  0  0  0  0
    0.6319   -4.2756   -5.8465 H   0  0  0  0  0  0  0  0  0  0  0  0
   -0.0162   -4.0446   -4.2115 H   0  0  0  0  0  0  0  0  0  0  0  0
    2.3040   -3.0825   -4.4161 H   0  0  0  0  0  0  0  0  0  0  0  0
    2.6908   -1.1180   -5.8466 H   0  0  0  0  0  0  0  0  0  0  0  0
    2.2380   -2.5272   -6.8278 H   0  0  0  0  0  0  0  0  0  0  0  0
    1.0633   -1.2295   -6.5071 H   0  0  0  0  0  0  0  0  0  0  0  0
  1  2  1  0  0  0  0
  1  6  1  0  0  0  0
  1  7  1  0  0  0  0
  2  3  1  0  0  0  0
  2 34  1  0  0  0  0
  2 35  1  0  0  0  0
  3  4  1  0  0  0  0
  3 36  1  0  0  0  0
  3 37  1  0  0  0  0
  4  5  1  0  0  0  0
  4 10  1  0  0  0  0
  4 38  1  0  0  0  0
  5  6  1  0  0  0  0
  5 39  1  0  0  0  0
  5 40  1  0  0  0  0
  6 41  1  0  0  0  0
  6 42  1  0  0  0  0
  7  8  2  0  0  0  0
  7  9  1  0  0  0  0
  9 32  1  0  0  0  0
 10 15  1  0  0  0  0
 11 12  2  0  0  0  0
 11 16  1  0  0  0  0
 11 43  1  0  0  0  0
 12 13  1  0  0  0  0
 13 14  2  0  0  0  0
 13 18  1  0  0  0  0
 14 15  1  0  0  0  0
 14 19  1  0  0  0  0
 15 16  2  0  0  0  0
 17 18  1  0  0  0  0
 17 19  2  0  0  0  0
 18 20  1  0  0  0  0
 19 44  1  0  0  0  0
 20 21  2  0  0  0  0
 20 25  1  0  0  0  0
 21 22  1  0  0  0  0
 21 30  1  0  0  0  0
 22 23  2  0  0  0  0
 22 45  1  0  0  0  0
 23 24  1  0  0  0  0
 23 26  1  0  0  0  0
 24 25  2  0  0  0  0
 24 46  1  0  0  0  0
 25 47  1  0  0  0  0
 26 27  2  0  0  0  0
 26 28  2  0  0  0  0
 26 29  1  0  0  0  0
 29 48  1  0  0  0  0
 29 49  1  0  0  0  0
 29 50  1  0  0  0  0
 31 32  1  0  0  0  0
 31 51  1  0  0  0  0
 31 52  1  0  0  0  0
 31 53  1  0  0  0  0
 32 33  1  0  0  0  0
 32 54  1  0  0  0  0
 33 55  1  0  0  0  0
 33 56  1  0  0  0  0
 33 57  1  0  0  0  0
M  END
>  <Mol_ID>
4790

>  <Formula>
C21H24FN5O5S

>  <MolWeight>
477.5091632

>  <Cat>
S6746

>  <Name>
APD668

>  <Synonyms>
JNJ28630368

>  <Target>
GPR

>  <Form>
Free Base

>  <CAS>
832714-46-2

>  <URL>
http://www.selleck.cn/products/apd668.html

$$$$
