Apigenin.cdx
 OpenBabel08302521353D

 30 32  0  0  0  0  0  0  0  0999 V2000
    1.8927    1.0579   -0.0051 C   0  0  0  0  0  0  0  0  0  0  0  0
    0.5216    1.3354   -0.0039 C   0  0  0  0  0  0  0  0  0  0  0  0
   -0.4178    0.2931    0.0087 C   0  0  0  0  0  0  0  0  0  0  0  0
    0.0362   -1.0303    0.0239 C   0  0  0  0  0  0  0  0  0  0  0  0
    1.4040   -1.3112    0.0314 C   0  0  0  0  0  0  0  0  0  0  0  0
    2.3196   -0.2662    0.0113 C   0  0  0  0  0  0  0  0  0  0  0  0
   -1.8825    0.5200   -0.0032 C   0  0  0  0  0  0  0  0  0  0  0  0
   -2.7352   -0.6804   -0.0572 C   0  0  0  0  0  0  0  0  0  0  0  0
   -2.1624   -1.8887   -0.0441 C   0  0  0  0  0  0  0  0  0  0  0  0
   -0.8046   -2.1179    0.0221 O   0  0  0  0  0  0  0  0  0  0  0  0
    3.6448   -0.5864    0.0013 O   0  0  0  0  0  0  0  0  0  0  0  0
    0.1172    2.6398   -0.0258 O   0  0  0  0  0  0  0  0  0  0  0  0
   -2.4161    1.6215    0.0226 O   0  0  0  0  0  0  0  0  0  0  0  0
   -2.9785   -3.1046   -0.1051 C   0  0  0  0  0  0  0  0  0  0  0  0
   -3.3175   -3.6662   -1.3441 C   0  0  0  0  0  0  0  0  0  0  0  0
   -4.0783   -4.8373   -1.4052 C   0  0  0  0  0  0  0  0  0  0  0  0
   -4.4999   -5.4403   -0.2247 C   0  0  0  0  0  0  0  0  0  0  0  0
   -4.1860   -4.8860    1.0110 C   0  0  0  0  0  0  0  0  0  0  0  0
   -3.4250   -3.7168    1.0727 C   0  0  0  0  0  0  0  0  0  0  0  0
   -5.2282   -6.5930   -0.2359 O   0  0  0  0  0  0  0  0  0  0  0  0
    2.6164    1.8658   -0.0226 H   0  0  0  0  0  0  0  0  0  0  0  0
    1.7534   -2.3401    0.0446 H   0  0  0  0  0  0  0  0  0  0  0  0
   -3.8049   -0.5225   -0.1059 H   0  0  0  0  0  0  0  0  0  0  0  0
    4.1743    0.2270   -0.0440 H   0  0  0  0  0  0  0  0  0  0  0  0
    0.8784    3.2397   -0.0048 H   0  0  0  0  0  0  0  0  0  0  0  0
   -2.9847   -3.1980   -2.2679 H   0  0  0  0  0  0  0  0  0  0  0  0
   -4.3255   -5.2603   -2.3738 H   0  0  0  0  0  0  0  0  0  0  0  0
   -4.5267   -5.3662    1.9240 H   0  0  0  0  0  0  0  0  0  0  0  0
   -3.1782   -3.2929    2.0432 H   0  0  0  0  0  0  0  0  0  0  0  0
   -5.3318   -6.8870   -1.1557 H   0  0  0  0  0  0  0  0  0  0  0  0
  1  2  2  0  0  0  0
  1 21  1  0  0  0  0
  2  3  1  0  0  0  0
  2 12  1  0  0  0  0
  3  4  2  0  0  0  0
  3  7  1  0  0  0  0
  4  5  1  0  0  0  0
  5  6  2  0  0  0  0
  5 22  1  0  0  0  0
  6  1  1  0  0  0  0
  6 11  1  0  0  0  0
  7  8  1  0  0  0  0
  7 13  2  0  0  0  0
  8  9  2  0  0  0  0
  8 23  1  0  0  0  0
  9 10  1  0  0  0  0
  9 14  1  0  0  0  0
 10  4  1  0  0  0  0
 11 24  1  0  0  0  0
 12 25  1  0  0  0  0
 14 15  2  0  0  0  0
 15 16  1  0  0  0  0
 15 26  1  0  0  0  0
 16 17  2  0  0  0  0
 16 27  1  0  0  0  0
 17 18  1  0  0  0  0
 17 20  1  0  0  0  0
 18 19  2  0  0  0  0
 18 28  1  0  0  0  0
 19 14  1  0  0  0  0
 19 29  1  0  0  0  0
 20 30  1  0  0  0  0
M  END
>  <Mol_ID>
658

>  <Formula>
C15H10O5

>  <MolWeight>
270.2369

>  <Cat>
S2262

>  <Name>
Apigenin (LY 080400)

>  <Synonyms>
NSC 83244

>  <Target>
P450 (e.g. CYP17)

>  <Form>
free base

>  <CAS>
520-36-5

>  <URL>
http://selleckchem.com/products/Apigenin.html

$$$$
