Apilimod (STA-5326)
 OpenBabel08302520403D

 57 60  0  0  0  0  0  0  0  0999 V2000
    1.2442    0.5579    0.2289 N   0  0  0  0  0  0  0  0  0  0  0  0
    1.1195   -0.7772    0.3261 C   0  0  0  0  0  0  0  0  0  0  0  0
   -1.0648    0.8718    0.7053 N   0  0  0  0  0  0  0  0  0  0  0  0
    0.1626    1.3177    0.4376 C   0  0  0  0  0  0  0  0  0  0  0  0
   -0.1187   -1.3142    0.6257 C   0  0  0  0  0  0  0  0  0  0  0  0
   -1.2060   -0.4636    0.7826 C   0  0  0  0  0  0  0  0  0  0  0  0
    2.2335   -1.5501    0.0948 N   0  0  0  0  0  0  0  0  0  0  0  0
   -3.6860   -0.4452    0.8039 N   0  0  0  0  0  0  0  0  0  0  0  0
   -2.4749   -1.0600    1.0388 N   0  0  0  0  0  0  0  0  0  0  0  0
   -1.9769    5.5776    2.1053 N   0  0  0  0  0  0  0  0  0  0  0  0
    4.6498   -2.8907    0.8139 O   0  0  0  0  0  0  0  0  0  0  0  0
    0.3433    2.6571    0.1386 O   0  0  0  0  0  0  0  0  0  0  0  0
   -3.7719    0.3227   -0.2381 C   0  0  0  0  0  0  0  0  0  0  0  0
   -1.1932    5.9828    1.0789 C   0  0  0  0  0  0  0  0  0  0  0  0
   -6.2462    0.7663   -0.0126 C   0  0  0  0  0  0  0  0  0  0  0  0
   -5.0287    0.9734   -0.6697 C   0  0  0  0  0  0  0  0  0  0  0  0
   -0.3386    4.9496    0.3799 C   0  0  0  0  0  0  0  0  0  0  0  0
   -0.4690    3.5249    0.9382 C   0  0  0  0  0  0  0  0  0  0  0  0
   -7.4177    1.3740   -0.4964 C   0  0  0  0  0  0  0  0  0  0  0  0
    2.3012   -3.0157    0.0756 C   0  0  0  0  0  0  0  0  0  0  0  0
    3.5428   -0.9085   -0.1334 C   0  0  0  0  0  0  0  0  0  0  0  0
   -6.1332    2.3925   -2.2888 C   0  0  0  0  0  0  0  0  0  0  0  0
   -2.8117    6.4887    2.6572 C   0  0  0  0  0  0  0  0  0  0  0  0
    3.3712   -3.4950    1.0722 C   0  0  0  0  0  0  0  0  0  0  0  0
    4.5517   -1.4562    0.8889 C   0  0  0  0  0  0  0  0  0  0  0  0
   -4.9752    1.7841   -1.8091 C   0  0  0  0  0  0  0  0  0  0  0  0
   -7.3469    2.1920   -1.6338 C   0  0  0  0  0  0  0  0  0  0  0  0
   -1.1999    7.3012    0.6217 C   0  0  0  0  0  0  0  0  0  0  0  0
   -8.7343    1.1960    0.1995 C   0  0  0  0  0  0  0  0  0  0  0  0
   -2.9091    7.8007    2.2328 C   0  0  0  0  0  0  0  0  0  0  0  0
   -2.0771    8.2173    1.2037 C   0  0  0  0  0  0  0  0  0  0  0  0
   -0.2714   -2.3790    0.7027 H   0  0  0  0  0  0  0  0  0  0  0  0
   -2.4883   -2.0584    0.8428 H   0  0  0  0  0  0  0  0  0  0  0  0
   -2.9093    0.5051   -0.8990 H   0  0  0  0  0  0  0  0  0  0  0  0
   -6.2826    0.1276    0.8684 H   0  0  0  0  0  0  0  0  0  0  0  0
    0.7128    5.2618    0.4138 H   0  0  0  0  0  0  0  0  0  0  0  0
   -0.6197    4.9351   -0.6817 H   0  0  0  0  0  0  0  0  0  0  0  0
   -1.5231    3.2246    0.9124 H   0  0  0  0  0  0  0  0  0  0  0  0
   -0.1048    3.4943    1.9723 H   0  0  0  0  0  0  0  0  0  0  0  0
    2.5876   -3.3308   -0.9372 H   0  0  0  0  0  0  0  0  0  0  0  0
    1.3573   -3.5106    0.3067 H   0  0  0  0  0  0  0  0  0  0  0  0
    3.8772   -1.1638   -1.1461 H   0  0  0  0  0  0  0  0  0  0  0  0
    3.5271    0.1843   -0.0631 H   0  0  0  0  0  0  0  0  0  0  0  0
   -6.0902    3.0239   -3.1727 H   0  0  0  0  0  0  0  0  0  0  0  0
   -3.4273    6.1146    3.4703 H   0  0  0  0  0  0  0  0  0  0  0  0
    3.0734   -3.2703    2.1037 H   0  0  0  0  0  0  0  0  0  0  0  0
    3.4965   -4.5791    0.9889 H   0  0  0  0  0  0  0  0  0  0  0  0
    5.5464   -1.0474    0.6891 H   0  0  0  0  0  0  0  0  0  0  0  0
    4.2692   -1.1729    1.9099 H   0  0  0  0  0  0  0  0  0  0  0  0
   -4.0352    1.9457   -2.3316 H   0  0  0  0  0  0  0  0  0  0  0  0
   -8.2426    2.6771   -2.0134 H   0  0  0  0  0  0  0  0  0  0  0  0
   -0.5505    7.6126   -0.1892 H   0  0  0  0  0  0  0  0  0  0  0  0
   -9.0115    2.1206    0.7162 H   0  0  0  0  0  0  0  0  0  0  0  0
   -9.5175    0.9458   -0.5251 H   0  0  0  0  0  0  0  0  0  0  0  0
   -8.6956    0.3863    0.9352 H   0  0  0  0  0  0  0  0  0  0  0  0
   -3.6187    8.4798    2.6923 H   0  0  0  0  0  0  0  0  0  0  0  0
   -2.1173    9.2413    0.8454 H   0  0  0  0  0  0  0  0  0  0  0  0
  2  1  2  0  0  0  0
  3  4  2  0  0  0  0
  4  1  1  0  0  0  0
  5  2  1  0  0  0  0
  5  6  2  0  0  0  0
  5 32  1  0  0  0  0
  6  3  1  0  0  0  0
  7  2  1  0  0  0  0
  8  9  1  0  0  0  0
  9  6  1  0  0  0  0
  9 33  1  0  0  0  0
 10 14  2  0  0  0  0
 11 25  1  0  0  0  0
 11 24  1  0  0  0  0
 12  4  1  0  0  0  0
 13  8  2  0  0  0  0
 13 34  1  0  0  0  0
 14 17  1  0  0  0  0
 15 16  2  0  0  0  0
 15 35  1  0  0  0  0
 16 13  1  0  0  0  0
 17 18  1  0  0  0  0
 17 36  1  0  0  0  0
 17 37  1  0  0  0  0
 18 12  1  0  0  0  0
 18 38  1  0  0  0  0
 18 39  1  0  0  0  0
 19 15  1  0  0  0  0
 19 27  2  0  0  0  0
 20  7  1  0  0  0  0
 20 40  1  0  0  0  0
 20 41  1  0  0  0  0
 21  7  1  0  0  0  0
 21 42  1  0  0  0  0
 21 43  1  0  0  0  0
 22 26  2  0  0  0  0
 22 44  1  0  0  0  0
 23 10  1  0  0  0  0
 23 30  2  0  0  0  0
 23 45  1  0  0  0  0
 24 20  1  0  0  0  0
 24 46  1  0  0  0  0
 24 47  1  0  0  0  0
 25 21  1  0  0  0  0
 25 48  1  0  0  0  0
 25 49  1  0  0  0  0
 26 16  1  0  0  0  0
 26 50  1  0  0  0  0
 27 22  1  0  0  0  0
 27 51  1  0  0  0  0
 28 14  1  0  0  0  0
 28 52  1  0  0  0  0
 29 19  1  0  0  0  0
 29 53  1  0  0  0  0
 29 54  1  0  0  0  0
 29 55  1  0  0  0  0
 30 31  1  0  0  0  0
 30 56  1  0  0  0  0
 31 28  2  0  0  0  0
 31 57  1  0  0  0  0
M  END
>  <Mol_ID>
3734

>  <Formula>
C23H26N6O2

>  <MolWeight>
418.49154

>  <Cat>
S6414

>  <Name>
Apilimod (STA-5326)

>  <Synonyms>
STA-5326

>  <Target>
Interleukins,PIKfyve

>  <Form>
Free Base

>  <CAS>
541550-19-0

>  <URL>
http://www.selleck.cn/products/apilimod.html

$$$$
