Apocynin (acetovanillone).cdx
 OpenBabel08302522003D

 22 22  0  0  0  0  0  0  0  0999 V2000
    0.9070   -0.0321    0.0129 C   0  0  0  0  0  0  0  0  0  0  0  0
    0.1429   -1.2018    0.0096 C   0  0  0  0  0  0  0  0  0  0  0  0
    0.2483    1.2001    0.0109 C   0  0  0  0  0  0  0  0  0  0  0  0
    2.2764    0.0413    0.0186 O   0  0  0  0  0  0  0  0  0  0  0  0
   -1.2656   -1.1393   -0.0026 C   0  0  0  0  0  0  0  0  0  0  0  0
   -1.1368    1.2822   -0.0019 C   0  0  0  0  0  0  0  0  0  0  0  0
    0.9557    2.3703    0.0229 O   0  0  0  0  0  0  0  0  0  0  0  0
    2.9795   -1.1974    0.0204 C   0  0  0  0  0  0  0  0  0  0  0  0
   -1.8954    0.1111   -0.0100 C   0  0  0  0  0  0  0  0  0  0  0  0
   -2.0208   -2.4330   -0.0068 C   0  0  0  0  0  0  0  0  0  0  0  0
   -3.5303   -2.4555   -0.0168 C   0  0  0  0  0  0  0  0  0  0  0  0
   -1.3929   -3.4946   -0.0011 O   0  0  0  0  0  0  0  0  0  0  0  0
    0.6175   -2.1784    0.0139 H   0  0  0  0  0  0  0  0  0  0  0  0
   -1.6232    2.2536   -0.0048 H   0  0  0  0  0  0  0  0  0  0  0  0
    1.8946    2.1023    0.0418 H   0  0  0  0  0  0  0  0  0  0  0  0
    2.7700   -1.7654    0.9328 H   0  0  0  0  0  0  0  0  0  0  0  0
    2.7501   -1.7848   -0.8749 H   0  0  0  0  0  0  0  0  0  0  0  0
    4.0508   -0.9743    0.0048 H   0  0  0  0  0  0  0  0  0  0  0  0
   -2.9725    0.2246   -0.0208 H   0  0  0  0  0  0  0  0  0  0  0  0
   -3.8690   -2.9841   -0.9122 H   0  0  0  0  0  0  0  0  0  0  0  0
   -3.8808   -2.9788    0.8772 H   0  0  0  0  0  0  0  0  0  0  0  0
   -3.9960   -1.4725   -0.0228 H   0  0  0  0  0  0  0  0  0  0  0  0
  1  2  2  0  0  0  0
  1  3  1  0  0  0  0
  1  4  1  0  0  0  0
  2  5  1  0  0  0  0
  2 13  1  0  0  0  0
  3  6  2  0  0  0  0
  3  7  1  0  0  0  0
  4  8  1  0  0  0  0
  5  9  2  0  0  0  0
  5 10  1  0  0  0  0
  6  9  1  0  0  0  0
  6 14  1  0  0  0  0
  7 15  1  0  0  0  0
  8 16  1  0  0  0  0
  8 17  1  0  0  0  0
  8 18  1  0  0  0  0
  9 19  1  0  0  0  0
 10 11  1  0  0  0  0
 10 12  2  0  0  0  0
 11 20  1  0  0  0  0
 11 21  1  0  0  0  0
 11 22  1  0  0  0  0
M  END
>  <Mol_ID>
1046

>  <Formula>
C9H10O3

>  <MolWeight>
166.1739

>  <Cat>
S2425

>  <Name>
Apocynin (NSC 2146)

>  <Synonyms>
Acetovanillone, NSC 209524

>  <Target>
NADPH-oxidase

>  <Form>
free base

>  <CAS>
498-02-2

>  <URL>
http://selleckchem.com/products/apocynin-acetovanillone.html

$$$$
