Apoptosis Activator II.cdx
 OpenBabel08302522033D

 29 31  0  0  0  0  0  0  0  0999 V2000
   -0.3894    0.5969    0.0655 C   0  0  0  0  0  0  0  0  0  0  0  0
   -0.5639   -0.7721   -0.1385 C   0  0  0  0  0  0  0  0  0  0  0  0
   -1.8271   -1.2808   -0.3747 C   0  0  0  0  0  0  0  0  0  0  0  0
   -2.9084   -0.3889   -0.3550 C   0  0  0  0  0  0  0  0  0  0  0  0
   -2.7182    0.9845   -0.1061 C   0  0  0  0  0  0  0  0  0  0  0  0
   -1.4379    1.4976    0.0965 C   0  0  0  0  0  0  0  0  0  0  0  0
    1.0421    0.8367    0.2387 C   0  0  0  0  0  0  0  0  0  0  0  0
    1.7061   -0.5623    0.1585 C   0  0  0  0  0  0  0  0  0  0  0  0
    0.6662   -1.4491   -0.0642 N   0  0  0  0  0  0  0  0  0  0  0  0
    1.5907    1.9017    0.3954 O   0  0  0  0  0  0  0  0  0  0  0  0
    2.8930   -0.7773    0.2779 O   0  0  0  0  0  0  0  0  0  0  0  0
    0.8409   -2.8818   -0.1383 C   0  0  0  0  0  0  0  0  0  0  0  0
    0.6752   -3.5944    1.1874 C   0  0  0  0  0  0  0  0  0  0  0  0
   -0.3253   -4.5637    1.3580 C   0  0  0  0  0  0  0  0  0  0  0  0
   -0.4021   -5.3096    2.5377 C   0  0  0  0  0  0  0  0  0  0  0  0
    0.5129   -5.0910    3.5654 C   0  0  0  0  0  0  0  0  0  0  0  0
    1.4932   -4.1121    3.4227 C   0  0  0  0  0  0  0  0  0  0  0  0
    1.5742   -3.3683    2.2425 C   0  0  0  0  0  0  0  0  0  0  0  0
   -1.9981   -2.3326   -0.5720 H   0  0  0  0  0  0  0  0  0  0  0  0
   -3.9164   -0.7630   -0.5280 H   0  0  0  0  0  0  0  0  0  0  0  0
   -3.5789    1.6495   -0.0707 H   0  0  0  0  0  0  0  0  0  0  0  0
   -1.2672    2.5535    0.2815 H   0  0  0  0  0  0  0  0  0  0  0  0
    0.1548   -3.2883   -0.8905 H   0  0  0  0  0  0  0  0  0  0  0  0
    1.8537   -3.0928   -0.5044 H   0  0  0  0  0  0  0  0  0  0  0  0
   -1.0385   -4.7692    0.5634 H   0  0  0  0  0  0  0  0  0  0  0  0
   -1.1640   -6.0771    2.6489 H   0  0  0  0  0  0  0  0  0  0  0  0
    0.4686   -5.6879    4.4728 H   0  0  0  0  0  0  0  0  0  0  0  0
    2.2105   -3.9409    4.2215 H   0  0  0  0  0  0  0  0  0  0  0  0
    2.3692   -2.6312    2.1442 H   0  0  0  0  0  0  0  0  0  0  0  0
  1  2  1  0  0  0  0
  1  7  1  0  0  0  0
  2  3  2  0  0  0  0
  3  4  1  0  0  0  0
  3 19  1  0  0  0  0
  4  5  2  0  0  0  0
  4 20  1  0  0  0  0
  5  6  1  0  0  0  0
  5 21  1  0  0  0  0
  6  1  2  0  0  0  0
  6 22  1  0  0  0  0
  7  8  1  0  0  0  0
  7 10  2  0  0  0  0
  8  9  1  0  0  0  0
  8 11  2  0  0  0  0
  9  2  1  0  0  0  0
  9 12  1  0  0  0  0
 12 13  1  0  0  0  0
 12 23  1  0  0  0  0
 12 24  1  0  0  0  0
 13 14  2  0  0  0  0
 14 15  1  0  0  0  0
 14 25  1  0  0  0  0
 15 16  2  0  0  0  0
 15 26  1  0  0  0  0
 16 17  1  0  0  0  0
 16 27  1  0  0  0  0
 17 18  2  0  0  0  0
 17 28  1  0  0  0  0
 18 13  1  0  0  0  0
 18 29  1  0  0  0  0
M  END
>  <Mol_ID>
1173

>  <Formula>
C15H9Cl2NO2

>  <MolWeight>
306.14346

>  <Cat>
S2927

>  <Name>
Apoptosis Activator 2

>  <Synonyms>
N/A

>  <Target>
Caspase

>  <Form>
free base

>  <CAS>
79183-19-0

>  <URL>
http://selleckchem.com/products/apoptosis-activator-2.html

$$$$
