APR-246 (PRIMA-1MET).cdx
 OpenBabel08302520003D

 31 32  0  0  0  0  0  0  0  0999 V2000
    0.8302    1.6365   -0.2058 C   0  0  0  0  0  0  0  0  0  0  0  0
   -0.7095    1.6356   -0.2467 C   0  0  0  0  0  0  0  0  0  0  0  0
   -1.2519    0.2608   -0.0719 N   0  0  3  0  0  0  0  0  0  0  0  0
   -0.7816   -0.3260    1.2584 C   0  0  3  0  0  0  0  0  0  0  0  0
    0.7544   -0.3137    1.2444 C   0  0  0  0  0  0  0  0  0  0  0  0
    1.3492    0.2060   -0.0493 C   0  0  3  0  0  0  0  0  0  0  0  0
    0.7818   -0.6989   -1.1496 C   0  0  0  0  0  0  0  0  0  0  0  0
   -0.7450   -0.5316   -1.2178 C   0  0  0  0  0  0  0  0  0  0  0  0
    1.4512   -0.6998    2.1819 O   0  0  0  0  0  0  0  0  0  0  0  0
   -1.2530    0.5437    2.4557 C   0  0  0  0  0  0  0  0  0  0  0  0
   -1.2231   -1.7984    1.5027 C   0  0  0  0  0  0  0  0  0  0  0  0
   -2.6473   -1.9379    1.5482 O   0  0  0  0  0  0  0  0  0  0  0  0
   -2.6313    0.9082    2.3602 O   0  0  0  0  0  0  0  0  0  0  0  0
   -3.0272   -3.1734    2.1481 C   0  0  0  0  0  0  0  0  0  0  0  0
    1.2276    2.0816   -1.1243 H   0  0  0  0  0  0  0  0  0  0  0  0
    1.1722    2.2532    0.6354 H   0  0  0  0  0  0  0  0  0  0  0  0
   -1.1144    2.3236    0.5035 H   0  0  0  0  0  0  0  0  0  0  0  0
   -1.0524    2.0496   -1.2046 H   0  0  0  0  0  0  0  0  0  0  0  0
    2.4424    0.1648   -0.0082 H   0  0  0  0  0  0  0  0  0  0  0  0
    1.2351   -0.4509   -2.1151 H   0  0  0  0  0  0  0  0  0  0  0  0
    1.0248   -1.7469   -0.9308 H   0  0  0  0  0  0  0  0  0  0  0  0
   -1.2417   -1.5053   -1.2743 H   0  0  0  0  0  0  0  0  0  0  0  0
   -1.0108   -0.0285   -2.1583 H   0  0  0  0  0  0  0  0  0  0  0  0
   -1.1053    0.0213    3.4075 H   0  0  0  0  0  0  0  0  0  0  0  0
   -0.6771    1.4736    2.5279 H   0  0  0  0  0  0  0  0  0  0  0  0
   -0.8401   -2.4662    0.7225 H   0  0  0  0  0  0  0  0  0  0  0  0
   -0.7935   -2.1518    2.4501 H   0  0  0  0  0  0  0  0  0  0  0  0
   -2.9577    0.5125    1.5257 H   0  0  0  0  0  0  0  0  0  0  0  0
   -2.4586   -4.0080    1.7252 H   0  0  0  0  0  0  0  0  0  0  0  0
   -2.8674   -3.1260    3.2303 H   0  0  0  0  0  0  0  0  0  0  0  0
   -4.0906   -3.3419    1.9604 H   0  0  0  0  0  0  0  0  0  0  0  0
  1  2  1  0  0  0  0
  1 15  1  0  0  0  0
  1 16  1  0  0  0  0
  2  3  1  0  0  0  0
  2 17  1  0  0  0  0
  2 18  1  0  0  0  0
  3  4  1  0  0  0  0
  4  5  1  0  0  0  0
  4 10  1  0  0  0  0
  4 11  1  0  0  0  0
  5  6  1  0  0  0  0
  5  9  2  0  0  0  0
  6  1  1  0  0  0  0
  6  7  1  0  0  0  0
  6 19  1  0  0  0  0
  7  8  1  0  0  0  0
  7 20  1  0  0  0  0
  7 21  1  0  0  0  0
  8  3  1  0  0  0  0
  8 22  1  0  0  0  0
  8 23  1  0  0  0  0
 10 13  1  0  0  0  0
 10 24  1  0  0  0  0
 10 25  1  0  0  0  0
 11 12  1  0  0  0  0
 11 26  1  0  0  0  0
 11 27  1  0  0  0  0
 12 14  1  0  0  0  0
 13 28  1  0  0  0  0
 14 29  1  0  0  0  0
 14 30  1  0  0  0  0
 14 31  1  0  0  0  0
M  END
>  <Mol_ID>
2716

>  <Formula>
C10H17NO3

>  <MolWeight>
199.24688

>  <Cat>
S7724

>  <Name>
Eprenetapopt (APR-246)

>  <Synonyms>
PRIMA-1MET

>  <Target>
Apoptosis related,Autophagy,p53

>  <Form>
free base

>  <CAS>
5291-32-7

>  <URL>
http://selleckchem.com/products/apr-246-prima-1met.html

$$$$
