Apraclonidine HCl
 OpenBabel08302521223D

 25 26  0  0  0  0  0  0  0  0999 V2000
    0.2583   -1.3701   -0.4979 C   0  0  0  0  0  0  0  0  0  0  0  0
   -0.3148   -0.2951   -0.9736 N   0  0  0  0  0  0  0  0  0  0  0  0
    0.8393    0.5337   -1.4424 C   0  0  0  0  0  0  0  0  0  0  0  0
    2.0865   -0.0810   -0.8019 C   0  0  0  0  0  0  0  0  0  0  0  0
    1.6178   -1.4216   -0.5744 N   0  0  0  0  0  0  0  0  0  0  0  0
   -0.4138   -2.4333    0.0126 N   0  0  0  0  0  0  0  0  0  0  0  0
    0.0153   -3.2419    1.0812 C   0  0  0  0  0  0  0  0  0  0  0  0
    0.7768   -2.7432    2.1439 C   0  0  0  0  0  0  0  0  0  0  0  0
    1.2388   -3.5916    3.1536 C   0  0  0  0  0  0  0  0  0  0  0  0
    0.8899   -4.9423    3.1641 C   0  0  0  0  0  0  0  0  0  0  0  0
    0.1238   -5.4409    2.1089 C   0  0  0  0  0  0  0  0  0  0  0  0
   -0.3378   -4.5942    1.0949 C   0  0  0  0  0  0  0  0  0  0  0  0
    1.4906   -5.8156    4.0754 N   0  0  0  0  0  0  0  0  0  0  0  0
    0.7111    1.5796   -1.1497 H   0  0  0  0  0  0  0  0  0  0  0  0
    0.8928    0.4759   -2.5358 H   0  0  0  0  0  0  0  0  0  0  0  0
    2.9664   -0.0412   -1.4481 H   0  0  0  0  0  0  0  0  0  0  0  0
    2.3111    0.4041    0.1547 H   0  0  0  0  0  0  0  0  0  0  0  0
    2.1072   -2.0031    0.0907 H   0  0  0  0  0  0  0  0  0  0  0  0
   -1.4186   -2.2977    0.0043 H   0  0  0  0  0  0  0  0  0  0  0  0
    1.0344   -1.6877    2.1881 H   0  0  0  0  0  0  0  0  0  0  0  0
    1.8806   -3.1850    3.9304 H   0  0  0  0  0  0  0  0  0  0  0  0
   -0.1088   -6.5008    2.0536 H   0  0  0  0  0  0  0  0  0  0  0  0
   -0.9280   -5.0099    0.2824 H   0  0  0  0  0  0  0  0  0  0  0  0
    0.9753   -6.6778    4.2224 H   0  0  0  0  0  0  0  0  0  0  0  0
    1.7699   -5.3768    4.9470 H   0  0  0  0  0  0  0  0  0  0  0  0
  1  2  2  0  0  0  0
  1  5  1  0  0  0  0
  1  6  1  0  0  0  0
  2  3  1  0  0  0  0
  3  4  1  0  0  0  0
  3 14  1  0  0  0  0
  3 15  1  0  0  0  0
  4  5  1  0  0  0  0
  4 16  1  0  0  0  0
  4 17  1  0  0  0  0
  5 18  1  0  0  0  0
  6  7  1  0  0  0  0
  6 19  1  0  0  0  0
  7  8  2  0  0  0  0
  7 12  1  0  0  0  0
  8  9  1  0  0  0  0
  8 20  1  0  0  0  0
  9 10  2  0  0  0  0
  9 21  1  0  0  0  0
 10 11  1  0  0  0  0
 10 13  1  0  0  0  0
 11 12  2  0  0  0  0
 11 22  1  0  0  0  0
 12 23  1  0  0  0  0
 13 24  1  0  0  0  0
 13 25  1  0  0  0  0
M  END
>  <Mol_ID>
4732

>  <Formula>
C9H11Cl3N4

>  <MolWeight>
281.56944

>  <Cat>
S6583

>  <Name>
Apraclonidine HCl

>  <Synonyms>
Iopidine HCl,ALO 2145

>  <Target>
Adrenergic Receptor

>  <Form>
Hydrochloride

>  <CAS>
73218-79-8

>  <URL>
http://www.selleck.cn/products/apraclonidine-hcl.html

$$$$
