Apremilast (CC-10004).cdx
 OpenBabel08302520413D

 56 58  0  0  0  0  0  0  0  0999 V2000
   -2.6070    0.9869    0.3800 C   0  0  0  0  0  0  0  0  0  0  0  0
   -2.7540   -0.3533   -0.0408 C   0  0  0  0  0  0  0  0  0  0  0  0
   -1.6448   -1.1689   -0.3092 C   0  0  0  0  0  0  0  0  0  0  0  0
   -0.3993   -0.5770   -0.1382 C   0  0  0  0  0  0  0  0  0  0  0  0
   -0.2601    0.7323    0.2962 C   0  0  0  0  0  0  0  0  0  0  0  0
   -1.3439    1.5455    0.5589 C   0  0  0  0  0  0  0  0  0  0  0  0
   -1.7416   -2.5213   -0.7197 N   0  0  0  0  0  0  0  0  0  0  0  0
   -2.9046   -3.2545   -0.8794 C   0  0  0  0  0  0  0  0  0  0  0  0
   -2.6793   -4.6881   -1.2894 C   0  0  0  0  0  0  0  0  0  0  0  0
   -4.0509   -2.8467   -0.7139 O   0  0  0  0  0  0  0  0  0  0  0  0
    0.9533   -1.0898   -0.3679 C   0  0  0  0  0  0  0  0  0  0  0  0
    1.8307   -0.0862   -0.0444 N   0  0  0  0  0  0  0  0  0  0  0  0
    1.1633    1.0332    0.3757 C   0  0  0  0  0  0  0  0  0  0  0  0
    1.6165    2.1054    0.7439 O   0  0  0  0  0  0  0  0  0  0  0  0
    1.1812   -2.2045   -0.8063 O   0  0  0  0  0  0  0  0  0  0  0  0
    3.2818   -0.0922   -0.2325 C   0  0  1  0  0  0  0  0  0  0  0  0
    4.0240   -0.7485    0.9346 C   0  0  0  0  0  0  0  0  0  0  0  0
    3.7480   -0.6853   -1.5651 C   0  0  0  0  0  0  0  0  0  0  0  0
    3.0972    0.2358   -2.9457 S   0  0  0  0  0  0  0  0  0  0  0  0
    3.6142    1.5876   -2.8648 O   0  0  0  0  0  0  0  0  0  0  0  0
    3.8696   -0.5464   -4.3384 C   0  0  0  0  0  0  0  0  0  0  0  0
    4.9934   -0.0142    1.6489 C   0  0  0  0  0  0  0  0  0  0  0  0
    5.7759   -0.5986    2.6645 C   0  0  0  0  0  0  0  0  0  0  0  0
    5.5250   -1.9274    3.0387 C   0  0  0  0  0  0  0  0  0  0  0  0
    4.5491   -2.6543    2.3408 C   0  0  0  0  0  0  0  0  0  0  0  0
    3.8208   -2.0843    1.2919 C   0  0  0  0  0  0  0  0  0  0  0  0
    6.1321   -2.6743    4.0148 O   0  0  0  0  0  0  0  0  0  0  0  0
    7.1037   -2.0547    4.8451 C   0  0  0  0  0  0  0  0  0  0  0  0
    6.7625    0.0992    3.3127 O   0  0  0  0  0  0  0  0  0  0  0  0
    7.4092    1.1446    2.5848 C   0  0  0  0  0  0  0  0  0  0  0  0
    8.8334    1.2899    3.0968 C   0  0  0  0  0  0  0  0  0  0  0  0
    1.6711   -0.0046   -3.0486 O   0  0  0  0  0  0  0  0  0  0  0  0
   -3.4983    1.5867    0.5583 H   0  0  0  0  0  0  0  0  0  0  0  0
   -3.7704   -0.7198   -0.1579 H   0  0  0  0  0  0  0  0  0  0  0  0
   -1.2151    2.5749    0.8770 H   0  0  0  0  0  0  0  0  0  0  0  0
   -0.8536   -2.9875   -0.9040 H   0  0  0  0  0  0  0  0  0  0  0  0
   -3.1554   -5.3413   -0.5514 H   0  0  0  0  0  0  0  0  0  0  0  0
   -3.1408   -4.8530   -2.2675 H   0  0  0  0  0  0  0  0  0  0  0  0
   -1.6201   -4.9465   -1.3495 H   0  0  0  0  0  0  0  0  0  0  0  0
    3.5856    0.9636   -0.2358 H   0  0  0  0  0  0  0  0  0  0  0  0
    4.8400   -0.6195   -1.6441 H   0  0  0  0  0  0  0  0  0  0  0  0
    3.4627   -1.7323   -1.6945 H   0  0  0  0  0  0  0  0  0  0  0  0
    3.6201   -1.6089   -4.3307 H   0  0  0  0  0  0  0  0  0  0  0  0
    3.4863   -0.0785   -5.2475 H   0  0  0  0  0  0  0  0  0  0  0  0
    4.9485   -0.3994   -4.2665 H   0  0  0  0  0  0  0  0  0  0  0  0
    5.1340    1.0361    1.4025 H   0  0  0  0  0  0  0  0  0  0  0  0
    4.3614   -3.6912    2.6160 H   0  0  0  0  0  0  0  0  0  0  0  0
    3.0993   -2.7059    0.7670 H   0  0  0  0  0  0  0  0  0  0  0  0
    7.9760   -1.7393    4.2651 H   0  0  0  0  0  0  0  0  0  0  0  0
    6.6703   -1.2315    5.4221 H   0  0  0  0  0  0  0  0  0  0  0  0
    7.4559   -2.8032    5.5622 H   0  0  0  0  0  0  0  0  0  0  0  0
    7.4563    0.9260    1.5116 H   0  0  0  0  0  0  0  0  0  0  0  0
    6.8630    2.0788    2.7517 H   0  0  0  0  0  0  0  0  0  0  0  0
    9.3841    0.3496    2.9842 H   0  0  0  0  0  0  0  0  0  0  0  0
    9.3624    2.0722    2.5443 H   0  0  0  0  0  0  0  0  0  0  0  0
    8.8455    1.5423    4.1620 H   0  0  0  0  0  0  0  0  0  0  0  0
  1  2  2  0  0  0  0
  1 33  1  0  0  0  0
  2  3  1  0  0  0  0
  2 34  1  0  0  0  0
  3  7  1  0  0  0  0
  3  4  2  0  0  0  0
  4  5  1  0  0  0  0
  4 11  1  0  0  0  0
  5  6  2  0  0  0  0
  6  1  1  0  0  0  0
  6 35  1  0  0  0  0
  7  8  1  0  0  0  0
  7 36  1  0  0  0  0
  8  9  1  0  0  0  0
  8 10  2  0  0  0  0
  9 37  1  0  0  0  0
  9 38  1  0  0  0  0
  9 39  1  0  0  0  0
 11 12  1  0  0  0  0
 11 15  2  0  0  0  0
 12 13  1  0  0  0  0
 12 16  1  0  0  0  0
 13  5  1  0  0  0  0
 13 14  2  0  0  0  0
 16 17  1  0  0  0  0
 16 18  1  0  0  0  0
 16 40  1  6  0  0  0
 17 22  2  0  0  0  0
 18 19  1  0  0  0  0
 18 41  1  0  0  0  0
 18 42  1  0  0  0  0
 19 20  2  0  0  0  0
 19 21  1  0  0  0  0
 19 32  2  0  0  0  0
 21 43  1  0  0  0  0
 21 44  1  0  0  0  0
 21 45  1  0  0  0  0
 22 23  1  0  0  0  0
 22 46  1  0  0  0  0
 23 24  2  0  0  0  0
 23 29  1  0  0  0  0
 24 25  1  0  0  0  0
 24 27  1  0  0  0  0
 25 26  2  0  0  0  0
 25 47  1  0  0  0  0
 26 17  1  0  0  0  0
 26 48  1  0  0  0  0
 27 28  1  0  0  0  0
 28 49  1  0  0  0  0
 28 50  1  0  0  0  0
 28 51  1  0  0  0  0
 29 30  1  0  0  0  0
 30 31  1  0  0  0  0
 30 52  1  0  0  0  0
 30 53  1  0  0  0  0
 31 54  1  0  0  0  0
 31 55  1  0  0  0  0
 31 56  1  0  0  0  0
M  END
>  <Mol_ID>
3991

>  <Formula>
C22H24N2O7S

>  <MolWeight>
460.50016

>  <Cat>
S8034

>  <Name>
Apremilast (CC-10004)

>  <Synonyms>
CC-10004

>  <Target>
PDE,TNF-alpha

>  <Form>
free base

>  <CAS>
608141-41-9

>  <URL>
http://selleckchem.com/products/apremilast-cc-10004.html

$$$$
