AR-42.cdx
 OpenBabel08302519513D

 43 44  0  0  0  0  0  0  0  0999 V2000
    1.3699   -0.2409    0.0743 C   0  0  0  0  0  0  0  0  0  0  0  0
    0.4737   -1.3025   -0.0397 C   0  0  0  0  0  0  0  0  0  0  0  0
   -0.9005   -1.0596   -0.0968 C   0  0  0  0  0  0  0  0  0  0  0  0
   -1.3931    0.2521   -0.0445 C   0  0  0  0  0  0  0  0  0  0  0  0
   -0.4777    1.3117    0.0832 C   0  0  0  0  0  0  0  0  0  0  0  0
    0.8941    1.0655    0.1411 C   0  0  0  0  0  0  0  0  0  0  0  0
   -2.8895    0.5220   -0.1890 C   0  0  1  0  0  0  0  0  0  0  0  0
   -3.3899    1.3261    1.0297 C   0  0  0  0  0  0  0  0  0  0  0  0
   -3.2036    1.2440   -1.5368 C   0  0  0  0  0  0  0  0  0  0  0  0
   -2.7683    0.4018   -2.7468 C   0  0  0  0  0  0  0  0  0  0  0  0
   -4.6979    1.5587   -1.6976 C   0  0  0  0  0  0  0  0  0  0  0  0
   -3.7268    0.5230    2.1154 N   0  0  0  0  0  0  0  0  0  0  0  0
   -3.4356    2.5539    1.0114 O   0  0  0  0  0  0  0  0  0  0  0  0
   -4.2926    0.9521    3.3366 C   0  0  0  0  0  0  0  0  0  0  0  0
   -4.7679    2.2480    3.5456 C   0  0  0  0  0  0  0  0  0  0  0  0
   -5.3239    2.6217    4.7727 C   0  0  0  0  0  0  0  0  0  0  0  0
   -5.4240    1.6928    5.8102 C   0  0  0  0  0  0  0  0  0  0  0  0
   -4.9428    0.3957    5.6197 C   0  0  0  0  0  0  0  0  0  0  0  0
   -4.3925    0.0245    4.3832 C   0  0  0  0  0  0  0  0  0  0  0  0
   -6.0093    2.0748    7.1252 C   0  0  0  0  0  0  0  0  0  0  0  0
   -6.9417    3.0880    7.0993 N   0  0  0  0  0  0  0  0  0  0  0  0
   -5.6967    1.4936    8.1614 O   0  0  0  0  0  0  0  0  0  0  0  0
   -7.5742    3.3811    8.3282 O   0  0  0  0  0  0  0  0  0  0  0  0
    2.4396   -0.4308    0.1047 H   0  0  0  0  0  0  0  0  0  0  0  0
    0.8488   -2.3208   -0.0992 H   0  0  0  0  0  0  0  0  0  0  0  0
   -1.5775   -1.9028   -0.2118 H   0  0  0  0  0  0  0  0  0  0  0  0
   -0.8269    2.3429    0.1231 H   0  0  0  0  0  0  0  0  0  0  0  0
    1.5903    1.8963    0.2268 H   0  0  0  0  0  0  0  0  0  0  0  0
   -3.4305   -0.4349   -0.1905 H   0  0  0  0  0  0  0  0  0  0  0  0
   -2.6613    2.1978   -1.5780 H   0  0  0  0  0  0  0  0  0  0  0  0
   -3.2925   -0.5603   -2.7647 H   0  0  0  0  0  0  0  0  0  0  0  0
   -2.9936    0.9246   -3.6827 H   0  0  0  0  0  0  0  0  0  0  0  0
   -1.6926    0.2035   -2.7426 H   0  0  0  0  0  0  0  0  0  0  0  0
   -5.0769    2.1925   -0.8916 H   0  0  0  0  0  0  0  0  0  0  0  0
   -4.8729    2.0987   -2.6353 H   0  0  0  0  0  0  0  0  0  0  0  0
   -5.2966    0.6423   -1.7203 H   0  0  0  0  0  0  0  0  0  0  0  0
   -3.4661   -0.4538    2.0581 H   0  0  0  0  0  0  0  0  0  0  0  0
   -4.7227    3.0062    2.7696 H   0  0  0  0  0  0  0  0  0  0  0  0
   -5.6438    3.6527    4.8976 H   0  0  0  0  0  0  0  0  0  0  0  0
   -4.9979   -0.3356    6.4274 H   0  0  0  0  0  0  0  0  0  0  0  0
   -4.0307   -0.9940    4.2625 H   0  0  0  0  0  0  0  0  0  0  0  0
   -7.4388    3.3651    6.2602 H   0  0  0  0  0  0  0  0  0  0  0  0
   -7.0886    2.8023    8.9549 H   0  0  0  0  0  0  0  0  0  0  0  0
  1  2  2  0  0  0  0
  1 24  1  0  0  0  0
  2  3  1  0  0  0  0
  2 25  1  0  0  0  0
  3  4  2  0  0  0  0
  3 26  1  0  0  0  0
  4  5  1  0  0  0  0
  4  7  1  0  0  0  0
  5  6  2  0  0  0  0
  5 27  1  0  0  0  0
  6  1  1  0  0  0  0
  6 28  1  0  0  0  0
  7  8  1  0  0  0  0
  7  9  1  0  0  0  0
  7 29  1  6  0  0  0
  8 12  1  0  0  0  0
  8 13  2  0  0  0  0
  9 10  1  0  0  0  0
  9 11  1  0  0  0  0
  9 30  1  0  0  0  0
 10 31  1  0  0  0  0
 10 32  1  0  0  0  0
 10 33  1  0  0  0  0
 11 34  1  0  0  0  0
 11 35  1  0  0  0  0
 11 36  1  0  0  0  0
 12 14  1  0  0  0  0
 12 37  1  0  0  0  0
 14 15  2  0  0  0  0
 15 16  1  0  0  0  0
 15 38  1  0  0  0  0
 16 17  2  0  0  0  0
 16 39  1  0  0  0  0
 17 18  1  0  0  0  0
 17 20  1  0  0  0  0
 18 19  2  0  0  0  0
 18 40  1  0  0  0  0
 19 14  1  0  0  0  0
 19 41  1  0  0  0  0
 20 21  1  0  0  0  0
 20 22  2  0  0  0  0
 21 23  1  0  0  0  0
 21 42  1  0  0  0  0
 23 43  1  0  0  0  0
M  END
>  <Mol_ID>
24

>  <Formula>
C18H20N2O3

>  <MolWeight>
312.363

>  <Cat>
S2244

>  <Name>
AR-42

>  <Synonyms>
HDAC-42

>  <Target>
HDAC

>  <Form>
free base

>  <CAS>
935881-37-1

>  <URL>
http://selleckchem.com/products/AR-42-HDAC-42.html

$$$$
