AR-C155858
 OpenBabel08302521383D

 59 62  0  0  1  0  0  0  0  0999 V2000
    2.1688    1.0859    0.0477 C   0  0  0  0  0  0  0  0  0  0  0  0
    0.8245    1.4859    0.1661 N   0  0  0  0  0  0  0  0  0  0  0  0
   -0.1299    0.4742    0.1990 C   0  0  0  0  0  0  0  0  0  0  0  0
    0.1121   -0.8326   -0.1371 C   0  0  0  0  0  0  0  0  0  0  0  0
    1.4516   -1.0972   -0.6321 C   0  0  0  0  0  0  0  0  0  0  0  0
    2.4019   -0.2811   -0.0490 N   0  0  0  0  0  0  0  0  0  0  0  0
   -1.0764   -1.6645   -0.0597 C   0  0  0  0  0  0  0  0  0  0  0  0
   -2.1946   -0.8486    0.2075 C   0  0  0  0  0  0  0  0  0  0  0  0
   -1.7413    0.7829    0.5315 S   0  0  0  0  0  0  0  0  0  0  0  0
    3.0879    1.9060   -0.0003 O   0  0  0  0  0  0  0  0  0  0  0  0
    1.6745   -1.8610   -1.5633 O   0  0  0  0  0  0  0  0  0  0  0  0
    0.5279    2.9205    0.1181 C   0  0  0  0  0  0  0  0  0  0  0  0
    0.4679    3.6308    1.4817 C   0  0  0  0  0  0  0  0  0  0  0  0
    1.7852    3.5469    2.2516 C   0  0  0  0  0  0  0  0  0  0  0  0
    0.0994    5.1014    1.2581 C   0  0  0  0  0  0  0  0  0  0  0  0
    3.7778   -0.7514   -0.0660 C   0  0  0  0  0  0  0  0  0  0  0  0
   -1.2330   -3.0925   -0.4065 C   0  0  0  0  0  0  0  0  0  0  0  0
   -2.3413   -3.5332   -0.7209 O   0  0  0  0  0  0  0  0  0  0  0  0
    1.1126   -3.7559    0.0709 O   0  0  0  0  0  0  0  0  0  0  0  0
   -0.1704   -3.9569   -0.4656 N   0  0  0  0  0  0  0  0  0  0  0  0
   -0.1624   -5.0264   -1.4372 C   0  0  0  0  0  0  0  0  0  0  0  0
    1.2771   -5.1935   -1.8378 C   0  0  1  0  0  0  0  0  0  0  0  0
    2.0147   -4.6330   -0.6347 C   0  0  0  0  0  0  0  0  0  0  0  0
    1.6176   -6.5497   -2.1027 O   0  0  0  0  0  0  0  0  0  0  0  0
   -3.6862   -1.1369    0.0874 C   0  0  0  0  0  0  0  0  0  0  0  0
   -5.6158   -2.9436    2.6251 N   0  0  0  0  0  0  0  0  0  0  0  0
   -5.2867   -1.8972    3.3878 N   0  0  0  0  0  0  0  0  0  0  0  0
   -4.5512   -1.1223    2.5822 C   0  0  0  0  0  0  0  0  0  0  0  0
   -4.3715   -1.7079    1.2922 C   0  0  0  0  0  0  0  0  0  0  0  0
   -5.1351   -2.8669    1.3500 C   0  0  0  0  0  0  0  0  0  0  0  0
   -5.4980   -3.8776    0.3266 C   0  0  0  0  0  0  0  0  0  0  0  0
   -4.0853    0.1935    3.0842 C   0  0  0  0  0  0  0  0  0  0  0  0
    1.2833    3.4072   -0.5131 H   0  0  0  0  0  0  0  0  0  0  0  0
   -0.4176    3.0620   -0.4203 H   0  0  0  0  0  0  0  0  0  0  0  0
   -0.3136    3.1722    2.0981 H   0  0  0  0  0  0  0  0  0  0  0  0
    2.6217    3.9187    1.6507 H   0  0  0  0  0  0  0  0  0  0  0  0
    1.7413    4.1463    3.1670 H   0  0  0  0  0  0  0  0  0  0  0  0
    2.0010    2.5158    2.5486 H   0  0  0  0  0  0  0  0  0  0  0  0
   -0.8902    5.1884    0.7974 H   0  0  0  0  0  0  0  0  0  0  0  0
    0.0775    5.6509    2.2047 H   0  0  0  0  0  0  0  0  0  0  0  0
    0.8223    5.5948    0.5986 H   0  0  0  0  0  0  0  0  0  0  0  0
    3.8726   -1.5160    0.7148 H   0  0  0  0  0  0  0  0  0  0  0  0
    4.0150   -1.2180   -1.0262 H   0  0  0  0  0  0  0  0  0  0  0  0
    4.4988    0.0408    0.1427 H   0  0  0  0  0  0  0  0  0  0  0  0
   -0.5926   -5.9209   -0.9766 H   0  0  0  0  0  0  0  0  0  0  0  0
   -0.7876   -4.7618   -2.2983 H   0  0  0  0  0  0  0  0  0  0  0  0
    1.4974   -4.6011   -2.7333 H   0  0  0  0  0  0  0  0  0  0  0  0
    2.8993   -4.0682   -0.9499 H   0  0  0  0  0  0  0  0  0  0  0  0
    2.3502   -5.4178    0.0496 H   0  0  0  0  0  0  0  0  0  0  0  0
    1.3666   -7.0856   -1.3297 H   0  0  0  0  0  0  0  0  0  0  0  0
   -4.2130   -0.2096   -0.1792 H   0  0  0  0  0  0  0  0  0  0  0  0
   -3.8553   -1.7813   -0.7823 H   0  0  0  0  0  0  0  0  0  0  0  0
   -6.2089   -3.6609    3.0282 H   0  0  0  0  0  0  0  0  0  0  0  0
   -6.0562   -3.4069   -0.4895 H   0  0  0  0  0  0  0  0  0  0  0  0
   -4.6095   -4.3540   -0.0917 H   0  0  0  0  0  0  0  0  0  0  0  0
   -6.1284   -4.6685    0.7473 H   0  0  0  0  0  0  0  0  0  0  0  0
   -3.0153    0.1604    3.3068 H   0  0  0  0  0  0  0  0  0  0  0  0
   -4.2772    0.9780    2.3457 H   0  0  0  0  0  0  0  0  0  0  0  0
   -4.6096    0.4794    4.0025 H   0  0  0  0  0  0  0  0  0  0  0  0
  1  2  1  0  0  0  0
  1  6  1  0  0  0  0
  1 10  2  0  0  0  0
  2  3  1  0  0  0  0
  2 12  1  0  0  0  0
  3  4  2  0  0  0  0
  4  5  1  0  0  0  0
  5  6  1  0  0  0  0
  5 11  2  0  0  0  0
  6 16  1  0  0  0  0
  7  8  2  0  0  0  0
  7  4  1  0  0  0  0
  7 17  1  0  0  0  0
  8  9  1  0  0  0  0
  8 25  1  0  0  0  0
  9  3  1  0  0  0  0
 12 13  1  0  0  0  0
 12 33  1  0  0  0  0
 12 34  1  0  0  0  0
 13 14  1  0  0  0  0
 13 15  1  0  0  0  0
 13 35  1  0  0  0  0
 14 36  1  0  0  0  0
 14 37  1  0  0  0  0
 14 38  1  0  0  0  0
 15 39  1  0  0  0  0
 15 40  1  0  0  0  0
 15 41  1  0  0  0  0
 16 42  1  0  0  0  0
 16 43  1  0  0  0  0
 16 44  1  0  0  0  0
 17 18  2  0  0  0  0
 17 20  1  0  0  0  0
 19 20  1  0  0  0  0
 19 23  1  0  0  0  0
 20 21  1  0  0  0  0
 21 22  1  0  0  0  0
 21 45  1  0  0  0  0
 21 46  1  0  0  0  0
 22 23  1  0  0  0  0
 22 24  1  0  0  0  0
 22 47  1  6  0  0  0
 23 48  1  0  0  0  0
 23 49  1  0  0  0  0
 24 50  1  0  0  0  0
 25 29  1  0  0  0  0
 25 51  1  0  0  0  0
 25 52  1  0  0  0  0
 26 27  1  0  0  0  0
 26 30  1  0  0  0  0
 26 53  1  0  0  0  0
 27 28  2  0  0  0  0
 28 29  1  0  0  0  0
 28 32  1  0  0  0  0
 29 30  2  0  0  0  0
 30 31  1  0  0  0  0
 31 54  1  0  0  0  0
 31 55  1  0  0  0  0
 31 56  1  0  0  0  0
 32 57  1  0  0  0  0
 32 58  1  0  0  0  0
 32 59  1  0  0  0  0
M  END
>  <Mol_ID>
7682

>  <Formula>
C21H27N5O5S

>  <MolWeight>
461.53458

>  <Cat>
S7919

>  <Name>
AR-C155858

>  <Target>
MCT

>  <Form>
free base

>  <CAS>
496791-37-8

>  <URL>
https://www.selleckchem.com/products/ar-c155858.html

$$$$
