AR7
 OpenBabel08302520403D

 30 32  0  0  0  0  0  0  0  0999 V2000
    1.1237    1.4729    0.1447 O   0  0  0  0  0  0  0  0  0  0  0  0
    1.2445   -1.4476    0.0878 N   0  0  0  0  0  0  0  0  0  0  0  0
    2.3470   -0.7628    0.0465 C   0  0  0  0  0  0  0  0  0  0  0  0
    3.6617   -1.4719    0.0140 C   0  0  0  0  0  0  0  0  0  0  0  0
    2.3426    0.7673    0.0043 C   0  0  0  0  0  0  0  0  0  0  0  0
    0.0482   -0.7138    0.0608 C   0  0  0  0  0  0  0  0  0  0  0  0
    0.0080    0.6845    0.0794 C   0  0  0  0  0  0  0  0  0  0  0  0
    4.8030   -0.8682   -0.5256 C   0  0  0  0  0  0  0  0  0  0  0  0
    3.7415   -2.7880    0.4850 C   0  0  0  0  0  0  0  0  0  0  0  0
    6.0778   -2.9052   -0.1641 C   0  0  0  0  0  0  0  0  0  0  0  0
    6.0010   -1.5832   -0.6171 C   0  0  0  0  0  0  0  0  0  0  0  0
    4.9436   -3.4983    0.4006 C   0  0  0  0  0  0  0  0  0  0  0  0
   -1.1591   -1.4187    0.0089 C   0  0  0  0  0  0  0  0  0  0  0  0
   -1.2123    1.3625    0.0448 C   0  0  0  0  0  0  0  0  0  0  0  0
   -2.3816   -0.7450   -0.0268 C   0  0  0  0  0  0  0  0  0  0  0  0
   -2.4077    0.6471   -0.0093 C   0  0  0  0  0  0  0  0  0  0  0  0
    7.3556   -3.6743   -0.3290 C   0  0  0  0  0  0  0  0  0  0  0  0
    2.7760    1.0831   -0.9509 H   0  0  0  0  0  0  0  0  0  0  0  0
    3.0058    1.1203    0.8027 H   0  0  0  0  0  0  0  0  0  0  0  0
    4.7864    0.1439   -0.9167 H   0  0  0  0  0  0  0  0  0  0  0  0
    2.8652   -3.2736    0.9105 H   0  0  0  0  0  0  0  0  0  0  0  0
    6.8720   -1.1080   -1.0633 H   0  0  0  0  0  0  0  0  0  0  0  0
    4.9791   -4.5231    0.7640 H   0  0  0  0  0  0  0  0  0  0  0  0
   -1.1375   -2.5053   -0.0070 H   0  0  0  0  0  0  0  0  0  0  0  0
   -1.2289    2.4491    0.0570 H   0  0  0  0  0  0  0  0  0  0  0  0
   -3.3095   -1.3091   -0.0655 H   0  0  0  0  0  0  0  0  0  0  0  0
   -3.3570    1.1754   -0.0373 H   0  0  0  0  0  0  0  0  0  0  0  0
    7.5791   -3.7979   -1.3940 H   0  0  0  0  0  0  0  0  0  0  0  0
    8.1841   -3.1449    0.1522 H   0  0  0  0  0  0  0  0  0  0  0  0
    7.2872   -4.6710    0.1182 H   0  0  0  0  0  0  0  0  0  0  0  0
  1  5  1  0  0  0  0
  1  7  1  0  0  0  0
  2  3  2  0  0  0  0
  2  6  1  0  0  0  0
  3  4  1  0  0  0  0
  3  5  1  0  0  0  0
  4  8  2  0  0  0  0
  4  9  1  0  0  0  0
  5 18  1  0  0  0  0
  5 19  1  0  0  0  0
  6  7  2  0  0  0  0
  6 13  1  0  0  0  0
  7 14  1  0  0  0  0
  8 11  1  0  0  0  0
  8 20  1  0  0  0  0
  9 12  2  0  0  0  0
  9 21  1  0  0  0  0
 10 11  2  0  0  0  0
 10 12  1  0  0  0  0
 10 17  1  0  0  0  0
 11 22  1  0  0  0  0
 12 23  1  0  0  0  0
 13 15  2  0  0  0  0
 13 24  1  0  0  0  0
 14 16  2  0  0  0  0
 14 25  1  0  0  0  0
 15 16  1  0  0  0  0
 15 26  1  0  0  0  0
 16 27  1  0  0  0  0
 17 28  1  0  0  0  0
 17 29  1  0  0  0  0
 17 30  1  0  0  0  0
M  END
>  <Mol_ID>
3853

>  <Formula>
C15H12ClNO

>  <MolWeight>
257.71488

>  <Cat>
S6605

>  <Name>
AR7

>  <Synonyms>
N/A

>  <Target>
Retinoid Receptor

>  <Form>
free base

>  <CAS>
80306-38-3

>  <URL>
http://www.selleck.cn/products/ar7.html

$$$$
