Arabinose
 OpenBabel08302521353D

 20 19  0  0  0  0  0  0  0  0999 V2000
    0.9971   -0.0360   -0.0156 C   0  0  2  0  0  0  0  0  0  0  0  0
    0.4913   -1.0824   -1.0401 C   0  0  1  0  0  0  0  0  0  0  0  0
    0.4395   -0.2415    1.4065 C   0  0  1  0  0  0  0  0  0  0  0  0
    0.6821    1.2864   -0.5011 O   0  0  0  0  0  0  0  0  0  0  0  0
   -1.0390   -1.1137   -1.1980 C   0  0  0  0  0  0  0  0  0  0  0  0
    1.0632   -0.7790   -2.3208 O   0  0  0  0  0  0  0  0  0  0  0  0
    0.9035   -1.5840    1.9531 C   0  0  0  0  0  0  0  0  0  0  0  0
    0.8891    0.7878    2.2894 O   0  0  0  0  0  0  0  0  0  0  0  0
   -1.5463    0.2159   -1.3311 O   0  0  0  0  0  0  0  0  0  0  0  0
    1.9183   -1.7265    2.6268 O   0  0  0  0  0  0  0  0  0  0  0  0
    2.0930   -0.0637    0.0123 H   0  0  0  0  0  0  0  0  0  0  0  0
    0.8447   -2.0832   -0.7725 H   0  0  0  0  0  0  0  0  0  0  0  0
   -0.6522   -0.2059    1.4285 H   0  0  0  0  0  0  0  0  0  0  0  0
   -0.2681    1.2818   -0.7494 H   0  0  0  0  0  0  0  0  0  0  0  0
   -1.3237   -1.6792   -2.0901 H   0  0  0  0  0  0  0  0  0  0  0  0
   -1.5091   -1.5653   -0.3187 H   0  0  0  0  0  0  0  0  0  0  0  0
    0.8751    0.1685   -2.4790 H   0  0  0  0  0  0  0  0  0  0  0  0
    0.2864   -2.4526    1.6679 H   0  0  0  0  0  0  0  0  0  0  0  0
    1.8478    0.6530    2.4199 H   0  0  0  0  0  0  0  0  0  0  0  0
   -2.5197    0.1529   -1.3448 H   0  0  0  0  0  0  0  0  0  0  0  0
  1  2  1  0  0  0  0
  1  3  1  0  0  0  0
  1  4  1  0  0  0  0
  1 11  1  1  0  0  0
  2  5  1  0  0  0  0
  2  6  1  0  0  0  0
  2 12  1  1  0  0  0
  3  7  1  0  0  0  0
  3  8  1  0  0  0  0
  3 13  1  6  0  0  0
  4 14  1  0  0  0  0
  5  9  1  0  0  0  0
  5 15  1  0  0  0  0
  5 16  1  0  0  0  0
  6 17  1  0  0  0  0
  7 10  2  0  0  0  0
  7 18  1  0  0  0  0
  8 19  1  0  0  0  0
  9 20  1  0  0  0  0
M  END
>  <Mol_ID>
6997

>  <Formula>
C5H10O5

>  <MolWeight>
150.1299

>  <Cat>
E4114

>  <Name>
Arabinose

>  <Synonyms>
DL-Arabinose

>  <Target>
Others

>  <Form>
free base

>  <CAS>
147-81-9

>  <URL>
https://www.selleckchem.com/products/arabinose.html

$$$$
