Arborine
 OpenBabel08302521553D

 33 35  0  0  0  0  0  0  0  0999 V2000
    1.5355   -0.0722   -0.2181 C   0  0  0  0  0  0  0  0  0  0  0  0
   -0.8049   -0.9207   -5.0408 O   0  0  0  0  0  0  0  0  0  0  0  0
    0.1136    2.1507   -1.6668 C   0  0  0  0  0  0  0  0  0  0  0  0
    0.5719   -1.6441   -1.8233 C   0  0  0  0  0  0  0  0  0  0  0  0
    0.0758   -1.8840   -3.1099 C   0  0  0  0  0  0  0  0  0  0  0  0
    0.6586   -0.3116   -1.3635 N   0  0  0  0  0  0  0  0  0  0  0  0
    0.9527   -2.7631   -1.0608 C   0  0  0  0  0  0  0  0  0  0  0  0
   -0.4113   -0.7265   -3.8956 C   0  0  0  0  0  0  0  0  0  0  0  0
    0.0494   -3.1716   -3.6625 C   0  0  0  0  0  0  0  0  0  0  0  0
    0.1162    0.6966   -2.1528 C   0  0  0  0  0  0  0  0  0  0  0  0
    0.9083   -4.0553   -1.5982 C   0  0  0  0  0  0  0  0  0  0  0  0
   -0.4157    0.5210   -3.3265 N   0  0  0  0  0  0  0  0  0  0  0  0
    0.4788   -4.2584   -2.9055 C   0  0  0  0  0  0  0  0  0  0  0  0
    1.3929    2.9049   -1.9763 C   0  0  0  0  0  0  0  0  0  0  0  0
    2.1348    2.6530   -3.1399 C   0  0  0  0  0  0  0  0  0  0  0  0
    1.8329    3.9157   -1.1082 C   0  0  0  0  0  0  0  0  0  0  0  0
    3.3190    3.3441   -3.3963 C   0  0  0  0  0  0  0  0  0  0  0  0
    3.0163    4.6115   -1.3693 C   0  0  0  0  0  0  0  0  0  0  0  0
    3.7657    4.3161   -2.5057 C   0  0  0  0  0  0  0  0  0  0  0  0
    1.0675   -0.4372    0.7055 H   0  0  0  0  0  0  0  0  0  0  0  0
    1.7621    0.9849   -0.0616 H   0  0  0  0  0  0  0  0  0  0  0  0
    2.5029   -0.5670   -0.3512 H   0  0  0  0  0  0  0  0  0  0  0  0
   -0.7239    2.6875   -2.1352 H   0  0  0  0  0  0  0  0  0  0  0  0
   -0.0780    2.1528   -0.5874 H   0  0  0  0  0  0  0  0  0  0  0  0
    1.2851   -2.6595   -0.0330 H   0  0  0  0  0  0  0  0  0  0  0  0
   -0.3031   -3.3254   -4.6790 H   0  0  0  0  0  0  0  0  0  0  0  0
    1.2164   -4.9041   -0.9917 H   0  0  0  0  0  0  0  0  0  0  0  0
    0.4660   -5.2582   -3.3310 H   0  0  0  0  0  0  0  0  0  0  0  0
    1.7976    1.9187   -3.8697 H   0  0  0  0  0  0  0  0  0  0  0  0
    1.2573    4.1700   -0.2217 H   0  0  0  0  0  0  0  0  0  0  0  0
    3.8874    3.1255   -4.2962 H   0  0  0  0  0  0  0  0  0  0  0  0
    3.3506    5.3897   -0.6876 H   0  0  0  0  0  0  0  0  0  0  0  0
    4.6884    4.8532   -2.7063 H   0  0  0  0  0  0  0  0  0  0  0  0
  1  6  1  0  0  0  0
  1 20  1  0  0  0  0
  1 21  1  0  0  0  0
  1 22  1  0  0  0  0
  2  8  2  0  0  0  0
  3 10  1  0  0  0  0
  3 14  1  0  0  0  0
  3 23  1  0  0  0  0
  3 24  1  0  0  0  0
  4  5  2  0  0  0  0
  4  6  1  0  0  0  0
  4  7  1  0  0  0  0
  5  8  1  0  0  0  0
  5  9  1  0  0  0  0
  6 10  1  0  0  0  0
  7 11  2  0  0  0  0
  7 25  1  0  0  0  0
  8 12  1  0  0  0  0
  9 13  2  0  0  0  0
  9 26  1  0  0  0  0
 10 12  2  0  0  0  0
 11 13  1  0  0  0  0
 11 27  1  0  0  0  0
 13 28  1  0  0  0  0
 14 15  2  0  0  0  0
 14 16  1  0  0  0  0
 15 17  1  0  0  0  0
 15 29  1  0  0  0  0
 16 18  2  0  0  0  0
 16 30  1  0  0  0  0
 17 19  2  0  0  0  0
 17 31  1  0  0  0  0
 18 19  1  0  0  0  0
 18 32  1  0  0  0  0
 19 33  1  0  0  0  0
M  END
>  <Mol_ID>
10042

>  <Formula>
C16H14N2O

>  <MolWeight>
250.29516

>  <Cat>
E5590

>  <Name>
Arborine

>  <Synonyms>
N/A

>  <Target>
Bacterial

>  <Form>
free base

>  <CAS>
6873-15-0

>  <URL>
https://www.selleckchem.com/products/arborine.html

$$$$
