Arbutin.cdx
 OpenBabel08302521353D

 35 36  0  0  0  0  0  0  0  0999 V2000
   -1.3054    1.3680   -0.1843 C   0  0  2  0  0  0  0  0  0  0  0  0
   -1.3727   -0.0951    0.2643 C   0  0  2  0  0  0  0  0  0  0  0  0
   -0.0882   -0.8125   -0.1816 C   0  0  1  0  0  0  0  0  0  0  0  0
    1.1753   -0.0664    0.2780 C   0  0  2  0  0  0  0  0  0  0  0  0
    1.0831    1.4067   -0.1737 C   0  0  1  0  0  0  0  0  0  0  0  0
   -0.1228    1.9885    0.3317 O   0  0  0  0  0  0  0  0  0  0  0  0
    2.3320   -0.7062   -0.2844 O   0  0  0  0  0  0  0  0  0  0  0  0
    1.5861    4.0485   -1.0988 C   0  0  0  0  0  0  0  0  0  0  0  0
    2.4159    3.3854   -0.1874 C   0  0  0  0  0  0  0  0  0  0  0  0
    2.2105    2.1341    0.3277 O   0  0  0  0  0  0  0  0  0  0  0  0
    1.9184    5.3211   -1.5666 C   0  0  0  0  0  0  0  0  0  0  0  0
    3.0797    5.9422   -1.1061 C   0  0  0  0  0  0  0  0  0  0  0  0
    3.9005    5.3074   -0.1903 C   0  0  0  0  0  0  0  0  0  0  0  0
    3.5658    4.0307    0.2753 C   0  0  0  0  0  0  0  0  0  0  0  0
   -2.4941    2.1829    0.3295 C   0  0  0  0  0  0  0  0  0  0  0  0
   -0.0499   -2.1689    0.2809 O   0  0  0  0  0  0  0  0  0  0  0  0
    3.4511    7.1756   -1.5560 O   0  0  0  0  0  0  0  0  0  0  0  0
   -2.3577    3.5370   -0.1118 O   0  0  0  0  0  0  0  0  0  0  0  0
   -2.5385   -0.7248   -0.2676 O   0  0  0  0  0  0  0  0  0  0  0  0
   -1.2904    1.4427   -1.2804 H   0  0  0  0  0  0  0  0  0  0  0  0
   -1.4507   -0.1539    1.3566 H   0  0  0  0  0  0  0  0  0  0  0  0
   -0.0801   -0.8965   -1.2755 H   0  0  0  0  0  0  0  0  0  0  0  0
    1.2714   -0.1285    1.3696 H   0  0  0  0  0  0  0  0  0  0  0  0
    1.1033    1.4235   -1.2729 H   0  0  0  0  0  0  0  0  0  0  0  0
    2.0676   -1.5972   -0.5828 H   0  0  0  0  0  0  0  0  0  0  0  0
    0.6685    3.6065   -1.4687 H   0  0  0  0  0  0  0  0  0  0  0  0
    1.2663    5.8189   -2.2670 H   0  0  0  0  0  0  0  0  0  0  0  0
    4.7956    5.8030    0.1755 H   0  0  0  0  0  0  0  0  0  0  0  0
    4.2148    3.5336    0.9932 H   0  0  0  0  0  0  0  0  0  0  0  0
   -3.4451    1.7957   -0.0455 H   0  0  0  0  0  0  0  0  0  0  0  0
   -2.5199    2.1984    1.4241 H   0  0  0  0  0  0  0  0  0  0  0  0
   -0.0120   -2.1637    1.2554 H   0  0  0  0  0  0  0  0  0  0  0  0
    2.8444    7.4349   -2.2721 H   0  0  0  0  0  0  0  0  0  0  0  0
   -1.4922    3.8364    0.2301 H   0  0  0  0  0  0  0  0  0  0  0  0
   -2.3135   -1.1574   -1.1106 H   0  0  0  0  0  0  0  0  0  0  0  0
  1  2  1  0  0  0  0
  1 15  1  0  0  0  0
  1 20  1  6  0  0  0
  2  3  1  0  0  0  0
  2 19  1  0  0  0  0
  2 21  1  1  0  0  0
  3  4  1  0  0  0  0
  3 16  1  0  0  0  0
  3 22  1  6  0  0  0
  4  5  1  0  0  0  0
  4  7  1  0  0  0  0
  4 23  1  1  0  0  0
  5  6  1  0  0  0  0
  5 10  1  0  0  0  0
  5 24  1  6  0  0  0
  6  1  1  0  0  0  0
  7 25  1  0  0  0  0
  8  9  2  0  0  0  0
  8 11  1  0  0  0  0
  8 26  1  0  0  0  0
  9 10  1  0  0  0  0
 11 12  2  0  0  0  0
 11 27  1  0  0  0  0
 12 13  1  0  0  0  0
 12 17  1  0  0  0  0
 13 14  2  0  0  0  0
 13 28  1  0  0  0  0
 14  9  1  0  0  0  0
 14 29  1  0  0  0  0
 15 18  1  0  0  0  0
 15 30  1  0  0  0  0
 15 31  1  0  0  0  0
 16 32  1  0  0  0  0
 17 33  1  0  0  0  0
 18 34  1  0  0  0  0
 19 35  1  0  0  0  0
M  END
>  <Mol_ID>
659

>  <Formula>
C12H16O7

>  <MolWeight>
272.25124

>  <Cat>
S2263

>  <Name>
Arbutin

>  <Synonyms>
Uva,p-Arbutin, ¦Â-Arbutin

>  <Target>
Tyrosinase

>  <Form>
free base

>  <CAS>
497-76-7

>  <URL>
http://selleckchem.com/products/Arbutin(Uva,-p-Arbutin).html

$$$$
