Arecaidine hydrochloride
 OpenBabel08302521323D

 21 21  0  0  0  0  0  0  0  0999 V2000
   -1.4118   -0.3640    0.0428 C   0  0  0  0  0  0  0  0  0  0  0  0
   -1.0136    1.0805    0.0532 C   0  0  0  0  0  0  0  0  0  0  0  0
   -0.5122   -1.3594   -0.0048 C   0  0  0  0  0  0  0  0  0  0  0  0
   -2.8458   -0.7547    0.0083 C   0  0  0  0  0  0  0  0  0  0  0  0
    0.3902    1.4149   -0.1711 N   0  0  0  0  0  0  0  0  0  0  0  0
    0.9573   -1.1059   -0.0510 C   0  0  0  0  0  0  0  0  0  0  0  0
   -3.7012    0.1880    0.4515 O   0  0  0  0  0  0  0  0  0  0  0  0
   -3.2381   -1.8380   -0.3944 O   0  0  0  0  0  0  0  0  0  0  0  0
    1.3816    0.3667    0.0716 C   0  0  0  0  0  0  0  0  0  0  0  0
    0.6278    2.1883   -1.3797 C   0  0  0  0  0  0  0  0  0  0  0  0
   -1.2700    1.4906    1.0355 H   0  0  0  0  0  0  0  0  0  0  0  0
   -1.6456    1.6133   -0.6685 H   0  0  0  0  0  0  0  0  0  0  0  0
   -0.8324   -2.4003   -0.0352 H   0  0  0  0  0  0  0  0  0  0  0  0
    1.3361   -1.5170   -0.9945 H   0  0  0  0  0  0  0  0  0  0  0  0
    1.4342   -1.6778    0.7557 H   0  0  0  0  0  0  0  0  0  0  0  0
   -3.3148    0.9756    0.8684 H   0  0  0  0  0  0  0  0  0  0  0  0
    2.2668    0.5096   -0.5650 H   0  0  0  0  0  0  0  0  0  0  0  0
    1.7569    0.5201    1.0917 H   0  0  0  0  0  0  0  0  0  0  0  0
    0.4392    1.6072   -2.2872 H   0  0  0  0  0  0  0  0  0  0  0  0
   -0.0103    3.0798   -1.3937 H   0  0  0  0  0  0  0  0  0  0  0  0
    1.6587    2.5616   -1.4066 H   0  0  0  0  0  0  0  0  0  0  0  0
  1  2  1  0  0  0  0
  1  3  2  0  0  0  0
  1  4  1  0  0  0  0
  2  5  1  0  0  0  0
  2 11  1  0  0  0  0
  2 12  1  0  0  0  0
  3  6  1  0  0  0  0
  3 13  1  0  0  0  0
  4  7  1  0  0  0  0
  4  8  2  0  0  0  0
  5  9  1  0  0  0  0
  5 10  1  0  0  0  0
  6  9  1  0  0  0  0
  6 14  1  0  0  0  0
  6 15  1  0  0  0  0
  7 16  1  0  0  0  0
  9 17  1  0  0  0  0
  9 18  1  0  0  0  0
 10 19  1  0  0  0  0
 10 20  1  0  0  0  0
 10 21  1  0  0  0  0
M  END
>  <Mol_ID>
6308

>  <Formula>
C7H12ClNO2

>  <MolWeight>
177.62868

>  <Cat>
E0599

>  <Name>
Arecaidine hydrochloride

>  <Synonyms>
N/A

>  <Target>
GABA Receptor

>  <Form>
hydrochloride

>  <CAS>
6018-28-6

>  <URL>
http://www.selleckchem.com/products/arecaidine-hydrochloide.html

$$$$
