Arecoline hydrobromide.cdx
 OpenBabel08302522033D

 26 25  0  0  0  0  0  0  0  0999 V2000
    0.3835    1.0912   -0.6408 N   0  0  0  0  0  0  0  0  0  0  0  0
    1.2350    0.5038    0.3986 C   0  0  0  0  0  0  0  0  0  0  0  0
    0.9159   -0.9942    0.4897 C   0  0  0  0  0  0  0  0  0  0  0  0
   -0.5718   -1.2515    0.5015 C   0  0  0  0  0  0  0  0  0  0  0  0
   -1.4803   -0.2918    0.2232 C   0  0  0  0  0  0  0  0  0  0  0  0
   -1.0227    1.0979   -0.1840 C   0  0  0  0  0  0  0  0  0  0  0  0
    0.8115    2.4350   -1.0517 C   0  0  0  0  0  0  0  0  0  0  0  0
   -2.9380   -0.5902    0.2667 C   0  0  0  0  0  0  0  0  0  0  0  0
   -3.3652   -1.8555    0.5155 O   0  0  0  0  0  0  0  0  0  0  0  0
   -4.6854   -2.2437    0.4668 C   0  0  0  0  0  0  0  0  0  0  0  0
   -3.7517    0.3026    0.0396 O   0  0  0  0  0  0  0  0  0  0  0  0
    1.7270   -0.5840   -3.3124 Br  0  0  0  0  0  0  0  0  0  0  0  0
    2.3164    0.6153    0.1623 H   0  0  0  0  0  0  0  0  0  0  0  0
    1.0377    1.0009    1.3739 H   0  0  0  0  0  0  0  0  0  0  0  0
    1.3316   -1.5408   -0.3824 H   0  0  0  0  0  0  0  0  0  0  0  0
    1.3913   -1.3918    1.4106 H   0  0  0  0  0  0  0  0  0  0  0  0
   -0.8984   -2.2636    0.7288 H   0  0  0  0  0  0  0  0  0  0  0  0
   -1.1799    1.7918    0.6788 H   0  0  0  0  0  0  0  0  0  0  0  0
   -1.6542    1.4502   -1.0265 H   0  0  0  0  0  0  0  0  0  0  0  0
    0.4234    2.6307   -2.0757 H   0  0  0  0  0  0  0  0  0  0  0  0
    0.4301    3.2234   -0.3671 H   0  0  0  0  0  0  0  0  0  0  0  0
    1.9178    2.5069   -1.1091 H   0  0  0  0  0  0  0  0  0  0  0  0
   -5.2818   -1.6798    1.2134 H   0  0  0  0  0  0  0  0  0  0  0  0
   -5.0968   -2.0649   -0.5537 H   0  0  0  0  0  0  0  0  0  0  0  0
   -4.7583   -3.3284    0.6881 H   0  0  0  0  0  0  0  0  0  0  0  0
    2.7867   -0.6714   -2.2124 H   0  0  0  0  0  0  0  0  0  0  0  0
  1  2  1  0  0  0  0
  1  7  1  0  0  0  0
  2  3  1  0  0  0  0
  2 13  1  0  0  0  0
  2 14  1  0  0  0  0
  3  4  1  0  0  0  0
  3 15  1  0  0  0  0
  3 16  1  0  0  0  0
  4  5  2  0  0  0  0
  4 17  1  0  0  0  0
  5  6  1  0  0  0  0
  5  8  1  0  0  0  0
  6  1  1  0  0  0  0
  6 18  1  0  0  0  0
  6 19  1  0  0  0  0
  7 20  1  0  0  0  0
  7 21  1  0  0  0  0
  7 22  1  0  0  0  0
  8  9  1  0  0  0  0
  8 11  2  0  0  0  0
  9 10  1  0  0  0  0
 10 23  1  0  0  0  0
 10 24  1  0  0  0  0
 10 25  1  0  0  0  0
 12 26  1  0  0  0  0
M  END
>  <Mol_ID>
1182

>  <Formula>
C8H14BrNO2

>  <MolWeight>
236.10626

>  <Cat>
S2614

>  <Name>
Arecoline HBr

>  <Synonyms>
NSC-31750

>  <Target>
AChR

>  <Form>
HBr

>  <CAS>
300-08-3

>  <URL>
https://www.selleckchem.com/products/arecoline-hbr.html

$$$$
