Arecaidine
 OpenBabel08302521533D

 21 21  0  0  0  0  0  0  0  0999 V2000
    1.0170   -0.1789    0.0036 C   0  0  0  0  0  0  0  0  0  0  0  0
    0.3858    0.9364    0.4300 O   0  0  0  0  0  0  0  0  0  0  0  0
    0.3959   -1.1530   -0.3865 O   0  0  0  0  0  0  0  0  0  0  0  0
    5.0709    1.9635   -1.3374 C   0  0  0  0  0  0  0  0  0  0  0  0
    2.5011   -0.1110    0.0457 C   0  0  0  0  0  0  0  0  0  0  0  0
    3.2079    1.2099    0.0507 C   0  0  0  0  0  0  0  0  0  0  0  0
    3.1623   -1.2793    0.0109 C   0  0  0  0  0  0  0  0  0  0  0  0
    4.6541    1.2292   -0.1546 N   0  0  0  0  0  0  0  0  0  0  0  0
    4.6499   -1.3572   -0.0217 C   0  0  0  0  0  0  0  0  0  0  0  0
    5.3929   -0.0136    0.0653 C   0  0  0  0  0  0  0  0  0  0  0  0
    0.9344    1.6260    0.8371 H   0  0  0  0  0  0  0  0  0  0  0  0
    4.7691    1.4610   -2.2610 H   0  0  0  0  0  0  0  0  0  0  0  0
    4.6451    2.9742   -1.3310 H   0  0  0  0  0  0  0  0  0  0  0  0
    6.1589    2.0989   -1.3489 H   0  0  0  0  0  0  0  0  0  0  0  0
    3.0321    1.6805    1.0252 H   0  0  0  0  0  0  0  0  0  0  0  0
    2.7162    1.8586   -0.6878 H   0  0  0  0  0  0  0  0  0  0  0  0
    2.6214   -2.2256   -0.0167 H   0  0  0  0  0  0  0  0  0  0  0  0
    4.9372   -1.8686   -0.9478 H   0  0  0  0  0  0  0  0  0  0  0  0
    4.9809   -1.9956    0.8076 H   0  0  0  0  0  0  0  0  0  0  0  0
    6.2611   -0.0749   -0.6066 H   0  0  0  0  0  0  0  0  0  0  0  0
    5.8361    0.0577    1.0676 H   0  0  0  0  0  0  0  0  0  0  0  0
  1  2  1  0  0  0  0
  1  3  2  0  0  0  0
  1  5  1  0  0  0  0
  2 11  1  0  0  0  0
  4  8  1  0  0  0  0
  4 12  1  0  0  0  0
  4 13  1  0  0  0  0
  4 14  1  0  0  0  0
  5  6  1  0  0  0  0
  5  7  2  0  0  0  0
  6  8  1  0  0  0  0
  6 15  1  0  0  0  0
  6 16  1  0  0  0  0
  7  9  1  0  0  0  0
  7 17  1  0  0  0  0
  8 10  1  0  0  0  0
  9 10  1  0  0  0  0
  9 18  1  0  0  0  0
  9 19  1  0  0  0  0
 10 20  1  0  0  0  0
 10 21  1  0  0  0  0
M  END
>  <Mol_ID>
9973

>  <Formula>
C7H11NO2

>  <MolWeight>
141.16774

>  <Cat>
E5300

>  <Name>
Arecaidine

>  <Synonyms>
NA

>  <Target>
GABA uptake, L-[3H]proline uptake

>  <Form>
Free Base

>  <CAS>
499-04-7

>  <URL>
https://www.selleckchem.com/products/arecaidine.html

$$$$
