Argireline
 OpenBabel08302520403D

 39 41  0  0  0  0  0  0  0  0999 V2000
    0.8792   -0.0412   -0.1556 N   0  0  0  0  0  0  0  0  0  0  0  0
    0.0515    0.7841   -0.9020 C   0  0  0  0  0  0  0  0  0  0  0  0
   -1.2572    1.0907   -0.4852 C   0  0  0  0  0  0  0  0  0  0  0  0
   -2.1369    1.8447   -1.2718 C   0  0  0  0  0  0  0  0  0  0  0  0
   -1.7182    2.3406   -2.4977 C   0  0  0  0  0  0  0  0  0  0  0  0
   -0.4152    2.1036   -2.9162 C   0  0  0  0  0  0  0  0  0  0  0  0
    0.4549    1.3417   -2.1239 C   0  0  0  0  0  0  0  0  0  0  0  0
    0.3023   -1.1083    0.6857 C   0  0  0  0  0  0  0  0  0  0  0  0
    0.7450   -2.4865    0.2056 C   0  0  0  0  0  0  0  0  0  0  0  0
    0.8210   -3.5069    1.0293 N   0  0  0  0  0  0  0  0  0  0  0  0
    1.2351   -4.6434    0.1542 C   0  0  0  0  0  0  0  0  0  0  0  0
    0.9993   -4.1827   -1.2878 C   0  0  0  0  0  0  0  0  0  0  0  0
    1.0148   -2.7556   -1.1206 N   0  0  0  0  0  0  0  0  0  0  0  0
    2.3500    0.0688   -0.1552 C   0  0  0  0  0  0  0  0  0  0  0  0
    2.8636    0.9212    0.9862 C   0  0  0  0  0  0  0  0  0  0  0  0
    3.7290    0.3730    1.9489 C   0  0  0  0  0  0  0  0  0  0  0  0
    4.1937    1.1468    3.0152 C   0  0  0  0  0  0  0  0  0  0  0  0
    3.8103    2.4810    3.1274 C   0  0  0  0  0  0  0  0  0  0  0  0
    2.9852    3.0495    2.1594 C   0  0  0  0  0  0  0  0  0  0  0  0
    2.5205    2.2773    1.0920 C   0  0  0  0  0  0  0  0  0  0  0  0
   -1.6204    0.7648    0.4860 H   0  0  0  0  0  0  0  0  0  0  0  0
   -3.1464    2.0396   -0.9183 H   0  0  0  0  0  0  0  0  0  0  0  0
   -2.4001    2.9134   -3.1199 H   0  0  0  0  0  0  0  0  0  0  0  0
   -0.0705    2.4977   -3.8686 H   0  0  0  0  0  0  0  0  0  0  0  0
    1.4499    1.1640   -2.5183 H   0  0  0  0  0  0  0  0  0  0  0  0
    0.5900   -0.9728    1.7330 H   0  0  0  0  0  0  0  0  0  0  0  0
   -0.7926   -1.1449    0.6477 H   0  0  0  0  0  0  0  0  0  0  0  0
    0.6535   -5.5395    0.3891 H   0  0  0  0  0  0  0  0  0  0  0  0
    2.2942   -4.8533    0.3375 H   0  0  0  0  0  0  0  0  0  0  0  0
    1.7806   -4.5373   -1.9695 H   0  0  0  0  0  0  0  0  0  0  0  0
    0.0213   -4.5161   -1.6501 H   0  0  0  0  0  0  0  0  0  0  0  0
    0.5593   -2.1549   -1.7984 H   0  0  0  0  0  0  0  0  0  0  0  0
    2.7929   -0.9307   -0.0663 H   0  0  0  0  0  0  0  0  0  0  0  0
    2.7548    0.4587   -1.0932 H   0  0  0  0  0  0  0  0  0  0  0  0
    4.0427   -0.6665    1.8786 H   0  0  0  0  0  0  0  0  0  0  0  0
    4.8485    0.7051    3.7619 H   0  0  0  0  0  0  0  0  0  0  0  0
    4.1538    3.0774    3.9681 H   0  0  0  0  0  0  0  0  0  0  0  0
    2.6938    4.0933    2.2378 H   0  0  0  0  0  0  0  0  0  0  0  0
    1.8746    2.7348    0.3467 H   0  0  0  0  0  0  0  0  0  0  0  0
  1  2  1  0  0  0  0
  1  8  1  0  0  0  0
  1 14  1  0  0  0  0
  2  3  2  0  0  0  0
  2  7  1  0  0  0  0
  3  4  1  0  0  0  0
  3 21  1  0  0  0  0
  4  5  2  0  0  0  0
  4 22  1  0  0  0  0
  5  6  1  0  0  0  0
  5 23  1  0  0  0  0
  6  7  2  0  0  0  0
  6 24  1  0  0  0  0
  7 25  1  0  0  0  0
  8  9  1  0  0  0  0
  8 26  1  0  0  0  0
  8 27  1  0  0  0  0
  9 10  2  0  0  0  0
  9 13  1  0  0  0  0
 10 11  1  0  0  0  0
 11 12  1  0  0  0  0
 11 28  1  0  0  0  0
 11 29  1  0  0  0  0
 12 13  1  0  0  0  0
 12 30  1  0  0  0  0
 12 31  1  0  0  0  0
 13 32  1  0  0  0  0
 14 15  1  0  0  0  0
 14 33  1  0  0  0  0
 14 34  1  0  0  0  0
 15 16  2  0  0  0  0
 15 20  1  0  0  0  0
 16 17  1  0  0  0  0
 16 35  1  0  0  0  0
 17 18  2  0  0  0  0
 17 36  1  0  0  0  0
 18 19  1  0  0  0  0
 18 37  1  0  0  0  0
 19 20  2  0  0  0  0
 19 38  1  0  0  0  0
 20 39  1  0  0  0  0
M  END
>  <Mol_ID>
3720

>  <Formula>
C17H19N3

>  <MolWeight>
265.35286

>  <Cat>
S5946

>  <Name>
Argireline

>  <Synonyms>
N/A

>  <Target>
Others

>  <Form>
Free Base

>  <CAS>
91-75-8

>  <URL>
http://www.selleck.cn/products/argireline.html

$$$$
