Aristolochic acid B
 OpenBabel08302521493D

 32 35  0  0  0  0  0  0  0  0999 V2000
    1.0957    0.2880    0.5821 C   0  0  0  0  0  0  0  0  0  0  0  0
    0.4343    1.3526    0.0880 O   0  0  0  0  0  0  0  0  0  0  0  0
    0.5959   -0.5219    1.3440 O   0  0  0  0  0  0  0  0  0  0  0  0
    1.1332   -2.4051   -0.7107 N   0  3  0  0  0  0  0  0  0  0  0  0
    0.8244   -1.6430   -1.6404 O   0  5  0  0  0  0  0  0  0  0  0  0
    0.4034   -3.2738   -0.2159 O   0  0  0  0  0  0  0  0  0  0  0  0
    4.6006   -1.1489    0.0599 C   0  0  0  0  0  0  0  0  0  0  0  0
    3.1694   -1.0970   -0.0048 C   0  0  0  0  0  0  0  0  0  0  0  0
    5.2571    0.1005    0.0679 C   0  0  0  0  0  0  0  0  0  0  0  0
    5.2924   -2.4252    0.1049 C   0  0  0  0  0  0  0  0  0  0  0  0
    2.5254    0.1954    0.1860 C   0  0  0  0  0  0  0  0  0  0  0  0
    2.5224   -2.3476   -0.2539 C   0  0  0  0  0  0  0  0  0  0  0  0
    4.6051    1.3119    0.1361 C   0  0  0  0  0  0  0  0  0  0  0  0
    6.6090    0.3029   -0.0178 O   0  0  0  0  0  0  0  0  0  0  0  0
    4.5677   -3.6254   -0.0810 C   0  0  0  0  0  0  0  0  0  0  0  0
    6.6804   -2.5887    0.3724 C   0  0  0  0  0  0  0  0  0  0  0  0
    3.2468    1.3937    0.2490 C   0  0  0  0  0  0  0  0  0  0  0  0
    3.1979   -3.5736   -0.2986 C   0  0  0  0  0  0  0  0  0  0  0  0
    5.4403    2.3837    0.1343 O   0  0  0  0  0  0  0  0  0  0  0  0
    6.7151    1.7356    0.0098 C   0  0  0  0  0  0  0  0  0  0  0  0
    5.2077   -4.8784   -0.0626 C   0  0  0  0  0  0  0  0  0  0  0  0
    7.3072   -3.8390    0.4195 C   0  0  0  0  0  0  0  0  0  0  0  0
    6.5714   -4.9866    0.1879 C   0  0  0  0  0  0  0  0  0  0  0  0
    0.8889    1.8495   -0.6171 H   0  0  0  0  0  0  0  0  0  0  0  0
    7.3117   -1.7346    0.5933 H   0  0  0  0  0  0  0  0  0  0  0  0
    2.7821    2.3568    0.4353 H   0  0  0  0  0  0  0  0  0  0  0  0
    2.6459   -4.4896   -0.5066 H   0  0  0  0  0  0  0  0  0  0  0  0
    7.1964    2.0722   -0.9158 H   0  0  0  0  0  0  0  0  0  0  0  0
    7.3444    2.0253    0.8588 H   0  0  0  0  0  0  0  0  0  0  0  0
    4.6417   -5.7937   -0.2292 H   0  0  0  0  0  0  0  0  0  0  0  0
    8.3686   -3.9032    0.6448 H   0  0  0  0  0  0  0  0  0  0  0  0
    7.0501   -5.9617    0.2161 H   0  0  0  0  0  0  0  0  0  0  0  0
  1  2  1  0  0  0  0
  1  3  2  0  0  0  0
  1 11  1  0  0  0  0
  2 24  1  0  0  0  0
  4  5  1  0  0  0  0
  4  6  2  0  0  0  0
  4 12  1  0  0  0  0
  7  8  1  0  0  0  0
  7  9  2  0  0  0  0
  7 10  1  0  0  0  0
  8 11  2  0  0  0  0
  8 12  1  0  0  0  0
  9 13  1  0  0  0  0
  9 14  1  0  0  0  0
 10 15  2  0  0  0  0
 10 16  1  0  0  0  0
 11 17  1  0  0  0  0
 12 18  2  0  0  0  0
 13 17  2  0  0  0  0
 13 19  1  0  0  0  0
 14 20  1  0  0  0  0
 15 18  1  0  0  0  0
 15 21  1  0  0  0  0
 16 22  2  0  0  0  0
 16 25  1  0  0  0  0
 17 26  1  0  0  0  0
 18 27  1  0  0  0  0
 19 20  1  0  0  0  0
 20 28  1  0  0  0  0
 20 29  1  0  0  0  0
 21 23  2  0  0  0  0
 21 30  1  0  0  0  0
 22 23  1  0  0  0  0
 22 31  1  0  0  0  0
 23 32  1  0  0  0  0
M  CHG  2   4   1   5  -1
M  END
>  <Mol_ID>
9820

>  <Formula>
C16H9NO6

>  <MolWeight>
311.24576

>  <Cat>
E2415

>  <Name>
Aristolochic acid B

>  <Synonyms>
NA

>  <Target>
DNA damage, DNA repair

>  <Form>
Free Base

>  <CAS>
475-80-9

>  <URL>
https://www.selleckchem.com/products/aristolochic-acid-b.html

$$$$
