Aristolactam I
 OpenBabel08302521463D

 33 37  0  0  0  0  0  0  0  0999 V2000
    4.2775    0.3881   -2.1490 O   0  0  0  0  0  0  0  0  0  0  0  0
   -1.0704    3.6212    1.8645 O   0  0  0  0  0  0  0  0  0  0  0  0
   -2.2793    3.8335    2.5812 C   0  0  0  0  0  0  0  0  0  0  0  0
    1.7344    4.4783   -2.0206 C   0  0  0  0  0  0  0  0  0  0  0  0
    2.3164    3.2817   -1.7112 C   0  0  0  0  0  0  0  0  0  0  0  0
    0.6331    4.8615   -1.1712 C   0  0  0  0  0  0  0  0  0  0  0  0
    2.3294    5.0808   -3.1438 C   0  0  0  0  0  0  0  0  0  0  0  0
    2.0395    2.5411   -0.5953 C   0  0  0  0  0  0  0  0  0  0  0  0
    3.2660    2.5926   -2.4667 C   0  0  0  0  0  0  0  0  0  0  0  0
    0.3075    4.0711   -0.0126 C   0  0  0  0  0  0  0  0  0  0  0  0
   -0.2016    5.9461   -1.4930 C   0  0  0  0  0  0  0  0  0  0  0  0
    3.2981    4.4409   -3.9096 C   0  0  0  0  0  0  0  0  0  0  0  0
    2.0815    6.3407   -3.6114 O   0  0  0  0  0  0  0  0  0  0  0  0
    1.0803    2.9330    0.3199 C   0  0  0  0  0  0  0  0  0  0  0  0
    2.8284    1.4046   -0.6415 N   0  0  0  0  0  0  0  0  0  0  0  0
    3.7643    3.1600   -3.6375 C   0  0  0  0  0  0  0  0  0  0  0  0
    3.5743    1.3327   -1.8221 C   0  0  0  0  0  0  0  0  0  0  0  0
   -0.8297    4.4091    0.7626 C   0  0  0  0  0  0  0  0  0  0  0  0
   -1.3462    6.2299   -0.7476 C   0  0  0  0  0  0  0  0  0  0  0  0
    3.7501    5.2208   -4.9336 O   0  0  0  0  0  0  0  0  0  0  0  0
    3.0712    6.4589   -4.6557 C   0  0  0  0  0  0  0  0  0  0  0  0
   -1.6594    5.4656    0.3702 C   0  0  0  0  0  0  0  0  0  0  0  0
   -2.3158    4.8400    3.0103 H   0  0  0  0  0  0  0  0  0  0  0  0
   -3.1504    3.6388    1.9465 H   0  0  0  0  0  0  0  0  0  0  0  0
   -2.3055    3.1196    3.4099 H   0  0  0  0  0  0  0  0  0  0  0  0
   -0.0045    6.5601   -2.3676 H   0  0  0  0  0  0  0  0  0  0  0  0
    0.8931    2.3344    1.2039 H   0  0  0  0  0  0  0  0  0  0  0  0
    2.8403    0.6719    0.0483 H   0  0  0  0  0  0  0  0  0  0  0  0
    4.4915    2.6476   -4.2586 H   0  0  0  0  0  0  0  0  0  0  0  0
   -2.0052    7.0362   -1.0586 H   0  0  0  0  0  0  0  0  0  0  0  0
    3.8136    7.2078   -4.3581 H   0  0  0  0  0  0  0  0  0  0  0  0
    2.5732    6.8001   -5.5686 H   0  0  0  0  0  0  0  0  0  0  0  0
   -2.5688    5.7117    0.9085 H   0  0  0  0  0  0  0  0  0  0  0  0
  1 17  2  0  0  0  0
  2  3  1  0  0  0  0
  2 18  1  0  0  0  0
  3 23  1  0  0  0  0
  3 24  1  0  0  0  0
  3 25  1  0  0  0  0
  4  5  2  0  0  0  0
  4  6  1  0  0  0  0
  4  7  1  0  0  0  0
  5  8  1  0  0  0  0
  5  9  1  0  0  0  0
  6 10  1  0  0  0  0
  6 11  2  0  0  0  0
  7 12  2  0  0  0  0
  7 13  1  0  0  0  0
  8 14  2  0  0  0  0
  8 15  1  0  0  0  0
  9 16  2  0  0  0  0
  9 17  1  0  0  0  0
 10 14  1  0  0  0  0
 10 18  2  0  0  0  0
 11 19  1  0  0  0  0
 11 26  1  0  0  0  0
 12 16  1  0  0  0  0
 12 20  1  0  0  0  0
 13 21  1  0  0  0  0
 14 27  1  0  0  0  0
 15 17  1  0  0  0  0
 15 28  1  0  0  0  0
 16 29  1  0  0  0  0
 18 22  1  0  0  0  0
 19 22  2  0  0  0  0
 19 30  1  0  0  0  0
 20 21  1  0  0  0  0
 21 31  1  0  0  0  0
 21 32  1  0  0  0  0
 22 33  1  0  0  0  0
M  END
>  <Mol_ID>
9733

>  <Formula>
C17H11NO4

>  <MolWeight>
293.27354

>  <Cat>
E0933

>  <Name>
Aristolactam I

>  <Synonyms>
NA

>  <Target>
DNA adducts

>  <Form>
Free Base

>  <CAS>
13395-02-3

>  <URL>
https://www.selleckchem.com/products/aristolactam.html

$$$$
