Aristolochic acid D
 OpenBabel08302521493D

 37 40  0  0  0  0  0  0  0  0999 V2000
    1.0943   -0.0824   -0.4379 N   0  3  0  0  0  0  0  0  0  0  0  0
    0.7165    0.5113   -1.4630 O   0  5  0  0  0  0  0  0  0  0  0  0
    0.4032   -0.8334    0.2581 O   0  0  0  0  0  0  0  0  0  0  0  0
    1.1066    2.6406    0.8692 C   0  0  0  0  0  0  0  0  0  0  0  0
    0.3937    3.7443    0.5501 O   0  0  0  0  0  0  0  0  0  0  0  0
    0.6854    1.7815    1.6143 O   0  0  0  0  0  0  0  0  0  0  0  0
    4.5372   -3.5811   -0.3959 O   0  0  0  0  0  0  0  0  0  0  0  0
    5.1920   -4.8417   -0.4586 C   0  0  0  0  0  0  0  0  0  0  0  0
    8.7286   -1.2956    0.3522 O   0  0  0  0  0  0  0  0  0  0  0  0
    4.5733    1.2721   -0.0034 C   0  0  0  0  0  0  0  0  0  0  0  0
    3.1415    1.2986    0.0660 C   0  0  0  0  0  0  0  0  0  0  0  0
    5.3056    0.0109   -0.0088 C   0  0  0  0  0  0  0  0  0  0  0  0
    5.2035    2.5340   -0.0634 C   0  0  0  0  0  0  0  0  0  0  0  0
    2.5127    0.0296   -0.1187 C   0  0  0  0  0  0  0  0  0  0  0  0
    2.4910    2.5825    0.3204 C   0  0  0  0  0  0  0  0  0  0  0  0
    4.6101   -1.2183   -0.1442 C   0  0  0  0  0  0  0  0  0  0  0  0
    6.7078   -0.0974    0.1575 C   0  0  0  0  0  0  0  0  0  0  0  0
    4.5404    3.7338    0.0648 C   0  0  0  0  0  0  0  0  0  0  0  0
    6.5361    2.7604   -0.2864 O   0  0  0  0  0  0  0  0  0  0  0  0
    3.2173   -1.1783   -0.2352 C   0  0  0  0  0  0  0  0  0  0  0  0
    3.1976    3.7906    0.3099 C   0  0  0  0  0  0  0  0  0  0  0  0
    5.3101   -2.4598   -0.1934 C   0  0  0  0  0  0  0  0  0  0  0  0
    7.3786   -1.3161    0.1529 C   0  0  0  0  0  0  0  0  0  0  0  0
    5.3535    4.8200   -0.0199 O   0  0  0  0  0  0  0  0  0  0  0  0
    6.6237    4.1935   -0.2538 C   0  0  0  0  0  0  0  0  0  0  0  0
    6.6953   -2.5003   -0.0387 C   0  0  0  0  0  0  0  0  0  0  0  0
    0.7733    4.3412   -0.1174 H   0  0  0  0  0  0  0  0  0  0  0  0
    5.9382   -4.8666   -1.2598 H   0  0  0  0  0  0  0  0  0  0  0  0
    5.6384   -5.0962    0.5080 H   0  0  0  0  0  0  0  0  0  0  0  0
    4.4371   -5.5995   -0.6891 H   0  0  0  0  0  0  0  0  0  0  0  0
    9.0637   -2.2071    0.3705 H   0  0  0  0  0  0  0  0  0  0  0  0
    7.3234    0.7782    0.3431 H   0  0  0  0  0  0  0  0  0  0  0  0
    2.6595   -2.1021   -0.3944 H   0  0  0  0  0  0  0  0  0  0  0  0
    2.7489    4.7504    0.5425 H   0  0  0  0  0  0  0  0  0  0  0  0
    7.0231    4.5444   -1.2125 H   0  0  0  0  0  0  0  0  0  0  0  0
    7.3159    4.4854    0.5432 H   0  0  0  0  0  0  0  0  0  0  0  0
    7.2435   -3.4332   -0.0523 H   0  0  0  0  0  0  0  0  0  0  0  0
  1  2  1  0  0  0  0
  1  3  2  0  0  0  0
  1 14  1  0  0  0  0
  4  5  1  0  0  0  0
  4  6  2  0  0  0  0
  4 15  1  0  0  0  0
  5 27  1  0  0  0  0
  7  8  1  0  0  0  0
  7 22  1  0  0  0  0
  8 28  1  0  0  0  0
  8 29  1  0  0  0  0
  8 30  1  0  0  0  0
  9 23  1  0  0  0  0
  9 31  1  0  0  0  0
 10 11  1  0  0  0  0
 10 12  2  0  0  0  0
 10 13  1  0  0  0  0
 11 14  2  0  0  0  0
 11 15  1  0  0  0  0
 12 16  1  0  0  0  0
 12 17  1  0  0  0  0
 13 18  2  0  0  0  0
 13 19  1  0  0  0  0
 14 20  1  0  0  0  0
 15 21  2  0  0  0  0
 16 20  2  0  0  0  0
 16 22  1  0  0  0  0
 17 23  2  0  0  0  0
 17 32  1  0  0  0  0
 18 21  1  0  0  0  0
 18 24  1  0  0  0  0
 19 25  1  0  0  0  0
 20 33  1  0  0  0  0
 21 34  1  0  0  0  0
 22 26  2  0  0  0  0
 23 26  1  0  0  0  0
 24 25  1  0  0  0  0
 25 35  1  0  0  0  0
 25 36  1  0  0  0  0
 26 37  1  0  0  0  0
M  CHG  2   1   1   2  -1
M  END
>  <Mol_ID>
9796

>  <Formula>
C17H11NO8

>  <MolWeight>
357.27114

>  <Cat>
E2330

>  <Name>
Aristolochic acid D

>  <Synonyms>
NA

>  <Target>
N/A

>  <Form>
Free Base

>  <CAS>
17413-38-6

>  <URL>
https://www.selleckchem.com/products/aristolochic-acid-d.html

$$$$
