ARN-19702
 OpenBabel08302521323D

 52 55  0  0  0  0  0  0  0  0999 V2000
    2.0435    0.2632   -0.2361 C   0  0  0  0  0  0  0  0  0  0  0  0
    1.8830   -0.5375    0.8867 C   0  0  0  0  0  0  0  0  0  0  0  0
    0.6071   -0.9612    1.2694 C   0  0  0  0  0  0  0  0  0  0  0  0
   -0.5189   -0.5705    0.5055 C   0  0  0  0  0  0  0  0  0  0  0  0
   -0.3130    0.2351   -0.6167 C   0  0  0  0  0  0  0  0  0  0  0  0
    0.9596    0.6690   -1.0100 C   0  0  0  0  0  0  0  0  0  0  0  0
   -1.8300   -0.9082    0.7549 N   0  0  0  0  0  0  0  0  0  0  0  0
   -2.6427   -0.3903   -0.1440 C   0  0  0  0  0  0  0  0  0  0  0  0
   -1.8299    0.5528   -1.3445 S   0  0  0  0  0  0  0  0  0  0  0  0
    3.2746    0.6582   -0.5884 F   0  0  0  0  0  0  0  0  0  0  0  0
   -3.9907   -0.5683   -0.1136 N   0  0  0  0  0  0  0  0  0  0  0  0
   -4.9213   -0.0481   -1.1127 C   0  0  0  0  0  0  0  0  0  0  0  0
   -6.0414    0.7674   -0.4286 C   0  0  1  0  0  0  0  0  0  0  0  0
   -6.6937   -0.0018    0.6677 N   0  0  0  0  0  0  0  0  0  0  0  0
   -5.7609   -0.6752    1.5982 C   0  0  0  0  0  0  0  0  0  0  0  0
   -4.6029   -1.4167    0.9047 C   0  0  0  0  0  0  0  0  0  0  0  0
   -5.5287    2.1275    0.0645 C   0  0  0  0  0  0  0  0  0  0  0  0
   -8.0809    0.1480    0.8070 C   0  0  0  0  0  0  0  0  0  0  0  0
   -8.8469   -0.3904    1.9699 C   0  0  0  0  0  0  0  0  0  0  0  0
   -8.7247    0.7447   -0.0506 O   0  0  0  0  0  0  0  0  0  0  0  0
   -8.2733   -0.3005    3.2542 C   0  0  0  0  0  0  0  0  0  0  0  0
   -8.9195   -0.7967    4.3890 C   0  0  0  0  0  0  0  0  0  0  0  0
  -10.2123   -1.2825    4.2861 C   0  0  0  0  0  0  0  0  0  0  0  0
  -10.8432   -1.2945    3.0457 C   0  0  0  0  0  0  0  0  0  0  0  0
  -10.1651   -0.8830    1.8767 C   0  0  0  0  0  0  0  0  0  0  0  0
  -11.0774   -1.1195    0.3491 S   0  0  0  0  0  0  0  0  0  0  0  0
  -10.0838   -2.2484   -0.6081 C   0  0  0  0  0  0  0  0  0  0  0  0
  -10.7571   -2.6206   -1.9163 C   0  0  0  0  0  0  0  0  0  0  0  0
  -12.2693   -1.8745    0.7009 O   0  0  0  0  0  0  0  0  0  0  0  0
  -11.2412    0.1477   -0.3259 O   0  0  0  0  0  0  0  0  0  0  0  0
    2.7553   -0.8316    1.4622 H   0  0  0  0  0  0  0  0  0  0  0  0
    0.4664   -1.5852    2.1453 H   0  0  0  0  0  0  0  0  0  0  0  0
    1.1034    1.2942   -1.8819 H   0  0  0  0  0  0  0  0  0  0  0  0
   -5.3755   -0.9021   -1.6320 H   0  0  0  0  0  0  0  0  0  0  0  0
   -4.4516    0.5639   -1.8882 H   0  0  0  0  0  0  0  0  0  0  0  0
   -6.7828    0.9799   -1.2073 H   0  0  0  0  0  0  0  0  0  0  0  0
   -6.2901   -1.4019    2.2157 H   0  0  0  0  0  0  0  0  0  0  0  0
   -5.3475    0.1056    2.2503 H   0  0  0  0  0  0  0  0  0  0  0  0
   -4.9953   -2.3203    0.4232 H   0  0  0  0  0  0  0  0  0  0  0  0
   -3.8975   -1.7475    1.6758 H   0  0  0  0  0  0  0  0  0  0  0  0
   -5.0716    2.6891   -0.7583 H   0  0  0  0  0  0  0  0  0  0  0  0
   -6.3501    2.7317    0.4639 H   0  0  0  0  0  0  0  0  0  0  0  0
   -4.7791    2.0257    0.8559 H   0  0  0  0  0  0  0  0  0  0  0  0
   -7.3089    0.1747    3.4067 H   0  0  0  0  0  0  0  0  0  0  0  0
   -8.4206   -0.7761    5.3552 H   0  0  0  0  0  0  0  0  0  0  0  0
  -10.7406   -1.6351    5.1686 H   0  0  0  0  0  0  0  0  0  0  0  0
  -11.8749   -1.6415    3.0002 H   0  0  0  0  0  0  0  0  0  0  0  0
   -9.1067   -1.8059   -0.7974 H   0  0  0  0  0  0  0  0  0  0  0  0
   -9.9567   -3.1488    0.0037 H   0  0  0  0  0  0  0  0  0  0  0  0
  -10.9557   -1.7337   -2.5254 H   0  0  0  0  0  0  0  0  0  0  0  0
  -10.1185   -3.2980   -2.4921 H   0  0  0  0  0  0  0  0  0  0  0  0
  -11.7126   -3.1277   -1.7430 H   0  0  0  0  0  0  0  0  0  0  0  0
  1  2  2  0  0  0  0
  1 10  1  0  0  0  0
  2  3  1  0  0  0  0
  2 31  1  0  0  0  0
  3  4  2  0  0  0  0
  3 32  1  0  0  0  0
  4  5  1  0  0  0  0
  4  7  1  0  0  0  0
  5  6  2  0  0  0  0
  6  1  1  0  0  0  0
  6 33  1  0  0  0  0
  7  8  2  0  0  0  0
  8  9  1  0  0  0  0
  8 11  1  0  0  0  0
  9  5  1  0  0  0  0
 11 12  1  0  0  0  0
 12 13  1  0  0  0  0
 12 34  1  0  0  0  0
 12 35  1  0  0  0  0
 13 14  1  0  0  0  0
 13 17  1  0  0  0  0
 13 36  1  6  0  0  0
 14 15  1  0  0  0  0
 14 18  1  0  0  0  0
 15 16  1  0  0  0  0
 15 37  1  0  0  0  0
 15 38  1  0  0  0  0
 16 11  1  0  0  0  0
 16 39  1  0  0  0  0
 16 40  1  0  0  0  0
 17 41  1  0  0  0  0
 17 42  1  0  0  0  0
 17 43  1  0  0  0  0
 18 19  1  0  0  0  0
 18 20  2  0  0  0  0
 19 21  2  0  0  0  0
 21 22  1  0  0  0  0
 21 44  1  0  0  0  0
 22 23  2  0  0  0  0
 22 45  1  0  0  0  0
 23 24  1  0  0  0  0
 23 46  1  0  0  0  0
 24 25  2  0  0  0  0
 24 47  1  0  0  0  0
 25 19  1  0  0  0  0
 25 26  1  0  0  0  0
 26 27  1  0  0  0  0
 26 29  2  0  0  0  0
 26 30  2  0  0  0  0
 27 28  1  0  0  0  0
 27 48  1  0  0  0  0
 27 49  1  0  0  0  0
 28 50  1  0  0  0  0
 28 51  1  0  0  0  0
 28 52  1  0  0  0  0
M  END
>  <Mol_ID>
6276

>  <Formula>
C21H22FN3O3S2

>  <MolWeight>
447.5460832

>  <Cat>
E0454

>  <Name>
ARN-19702

>  <Target>
Others

>  <Form>
free base

>  <CAS>
1971937-18-4

>  <URL>
http://www.selleckchem.com/products/arn-19702.html

$$$$
