ARN-3236
 OpenBabel08302521263D

 40 43  0  0  0  0  0  0  0  0999 V2000
    0.0746   -1.6458    0.3350 S   0  0  0  0  0  0  0  0  0  0  0  0
    4.3177   -1.7081   -3.8973 O   0  0  0  0  0  0  0  0  0  0  0  0
   -0.4635   -2.1340   -4.8124 O   0  0  0  0  0  0  0  0  0  0  0  0
    5.5977    1.7737   -1.8588 N   0  0  0  0  0  0  0  0  0  0  0  0
    5.1248    2.9158    0.1759 N   0  0  0  0  0  0  0  0  0  0  0  0
    3.6694    1.2197   -0.8703 C   0  0  0  0  0  0  0  0  0  0  0  0
    3.7430    0.5685   -2.1654 C   0  0  0  0  0  0  0  0  0  0  0  0
    2.7742    1.3018    0.2395 C   0  0  0  0  0  0  0  0  0  0  0  0
    4.8086    2.0189   -0.7752 C   0  0  0  0  0  0  0  0  0  0  0  0
    2.7336   -0.1835   -2.9268 C   0  0  0  0  0  0  0  0  0  0  0  0
    4.9620    0.9226   -2.7185 C   0  0  0  0  0  0  0  0  0  0  0  0
    1.5865    0.4541    0.3807 C   0  0  0  0  0  0  0  0  0  0  0  0
    3.0137   -1.2896   -3.7589 C   0  0  0  0  0  0  0  0  0  0  0  0
    3.0488    2.2494    1.2397 C   0  0  0  0  0  0  0  0  0  0  0  0
    1.4024    0.2579   -2.8433 C   0  0  0  0  0  0  0  0  0  0  0  0
    4.1962    3.0172    1.1455 C   0  0  0  0  0  0  0  0  0  0  0  0
    1.9545   -1.9686   -4.3936 C   0  0  0  0  0  0  0  0  0  0  0  0
    0.3629   -0.4311   -3.4665 C   0  0  0  0  0  0  0  0  0  0  0  0
    0.6337   -1.5456   -4.2477 C   0  0  0  0  0  0  0  0  0  0  0  0
    0.2987    0.8474    0.8869 C   0  0  0  0  0  0  0  0  0  0  0  0
    1.6035   -0.9038    0.1174 C   0  0  0  0  0  0  0  0  0  0  0  0
   -0.6151   -0.1835    0.8840 C   0  0  0  0  0  0  0  0  0  0  0  0
    4.6315   -2.3682   -5.1243 C   0  0  0  0  0  0  0  0  0  0  0  0
   -0.2156   -3.1565   -5.7689 C   0  0  0  0  0  0  0  0  0  0  0  0
    6.4898    2.2227   -2.0084 H   0  0  0  0  0  0  0  0  0  0  0  0
    5.4170    0.6715   -3.6663 H   0  0  0  0  0  0  0  0  0  0  0  0
    2.3861    2.3879    2.0877 H   0  0  0  0  0  0  0  0  0  0  0  0
    1.1493    1.1393   -2.2593 H   0  0  0  0  0  0  0  0  0  0  0  0
    4.4078    3.7719    1.9006 H   0  0  0  0  0  0  0  0  0  0  0  0
    2.1643   -2.8497   -4.9845 H   0  0  0  0  0  0  0  0  0  0  0  0
   -0.6616   -0.0970   -3.3267 H   0  0  0  0  0  0  0  0  0  0  0  0
    0.0464    1.8477    1.2154 H   0  0  0  0  0  0  0  0  0  0  0  0
    2.4278   -1.5057   -0.2441 H   0  0  0  0  0  0  0  0  0  0  0  0
   -1.6540   -0.1483    1.1808 H   0  0  0  0  0  0  0  0  0  0  0  0
    4.2379   -3.3903   -5.1330 H   0  0  0  0  0  0  0  0  0  0  0  0
    4.2702   -1.8024   -5.9915 H   0  0  0  0  0  0  0  0  0  0  0  0
    5.7202   -2.4414   -5.2052 H   0  0  0  0  0  0  0  0  0  0  0  0
    0.4371   -2.7991   -6.5731 H   0  0  0  0  0  0  0  0  0  0  0  0
    0.2021   -4.0472   -5.2880 H   0  0  0  0  0  0  0  0  0  0  0  0
   -1.1728   -3.4348   -6.2185 H   0  0  0  0  0  0  0  0  0  0  0  0
  1 21  1  0  0  0  0
  1 22  1  0  0  0  0
  2 13  1  0  0  0  0
  2 23  1  0  0  0  0
  3 19  1  0  0  0  0
  3 24  1  0  0  0  0
  4  9  1  0  0  0  0
  4 11  1  0  0  0  0
  4 25  1  0  0  0  0
  5  9  2  0  0  0  0
  5 16  1  0  0  0  0
  6  7  1  0  0  0  0
  6  8  2  0  0  0  0
  6  9  1  0  0  0  0
  7 10  1  0  0  0  0
  7 11  2  0  0  0  0
  8 12  1  0  0  0  0
  8 14  1  0  0  0  0
 10 13  2  0  0  0  0
 10 15  1  0  0  0  0
 11 26  1  0  0  0  0
 12 20  1  0  0  0  0
 12 21  2  0  0  0  0
 13 17  1  0  0  0  0
 14 16  2  0  0  0  0
 14 27  1  0  0  0  0
 15 18  2  0  0  0  0
 15 28  1  0  0  0  0
 16 29  1  0  0  0  0
 17 19  2  0  0  0  0
 17 30  1  0  0  0  0
 18 19  1  0  0  0  0
 18 31  1  0  0  0  0
 20 22  2  0  0  0  0
 20 32  1  0  0  0  0
 21 33  1  0  0  0  0
 22 34  1  0  0  0  0
 23 35  1  0  0  0  0
 23 36  1  0  0  0  0
 23 37  1  0  0  0  0
 24 38  1  0  0  0  0
 24 39  1  0  0  0  0
 24 40  1  0  0  0  0
M  END
>  <Mol_ID>
5216

>  <Formula>
C19H16N2O2S

>  <MolWeight>
336.40754

>  <Cat>
S8543

>  <Name>
ARN-3236

>  <Synonyms>
N/A

>  <Target>
Apoptosis related,SIK

>  <Form>
free base

>  <CAS>
1613710-01-2

>  <URL>
http://www.selleckchem.com/products/arn-3236.html

$$$$
