ARP 100
 OpenBabel08302521313D

 45 46  0  0  0  0  0  0  0  0999 V2000
    1.0551   -0.2424    0.1715 S   0  0  0  0  0  0  0  0  0  0  0  0
   -0.5293    1.4543   -0.8370 O   0  0  0  0  0  0  0  0  0  0  0  0
    1.0278   -0.8167   -1.1499 O   0  0  0  0  0  0  0  0  0  0  0  0
    0.3180   -0.8484    1.2756 O   0  0  0  0  0  0  0  0  0  0  0  0
    2.3896    2.6164    2.3871 O   0  0  0  0  0  0  0  0  0  0  0  0
   -0.0694    0.4974    3.7584 O   0  0  0  0  0  0  0  0  0  0  0  0
    0.5831    1.4445    0.1150 N   0  0  0  0  0  0  0  0  0  0  0  0
    1.1807    1.0982    3.5327 N   0  0  0  0  0  0  0  0  0  0  0  0
    2.7753   -0.1937    0.6509 C   0  0  0  0  0  0  0  0  0  0  0  0
   -1.0959    2.7565   -1.0543 C   0  0  0  0  0  0  0  0  0  0  0  0
    0.2666    2.0272    1.4504 C   0  0  0  0  0  0  0  0  0  0  0  0
    5.4446    0.1383    1.5148 C   0  0  0  0  0  0  0  0  0  0  0  0
    3.1929   -0.7743    1.8460 C   0  0  0  0  0  0  0  0  0  0  0  0
    3.6886    0.4491   -0.1760 C   0  0  0  0  0  0  0  0  0  0  0  0
    4.5084   -0.5824    2.2823 C   0  0  0  0  0  0  0  0  0  0  0  0
    5.0125    0.6021    0.2545 C   0  0  0  0  0  0  0  0  0  0  0  0
    6.8189    0.4134    2.0144 C   0  0  0  0  0  0  0  0  0  0  0  0
   -0.1858    3.6589   -1.8793 C   0  0  0  0  0  0  0  0  0  0  0  0
   -2.4474    2.5175   -1.7183 C   0  0  0  0  0  0  0  0  0  0  0  0
    1.3564    1.9549    2.4868 C   0  0  0  0  0  0  0  0  0  0  0  0
    7.4840   -0.4678    2.8876 C   0  0  0  0  0  0  0  0  0  0  0  0
    7.5144    1.5824    1.6455 C   0  0  0  0  0  0  0  0  0  0  0  0
    8.7807   -0.2084    3.3485 C   0  0  0  0  0  0  0  0  0  0  0  0
    8.8167    1.8380    2.0916 C   0  0  0  0  0  0  0  0  0  0  0  0
    9.4516    0.9388    2.9401 C   0  0  0  0  0  0  0  0  0  0  0  0
   -0.0545   -0.2742    3.1457 H   0  0  0  0  0  0  0  0  0  0  0  0
    1.8260    1.1528    4.3149 H   0  0  0  0  0  0  0  0  0  0  0  0
   -1.3239    3.2497   -0.1059 H   0  0  0  0  0  0  0  0  0  0  0  0
    0.0842    3.1017    1.3356 H   0  0  0  0  0  0  0  0  0  0  0  0
   -0.6792    1.6007    1.7972 H   0  0  0  0  0  0  0  0  0  0  0  0
    2.5031   -1.3387    2.4703 H   0  0  0  0  0  0  0  0  0  0  0  0
    3.3830    0.8463   -1.1421 H   0  0  0  0  0  0  0  0  0  0  0  0
    4.7825   -0.9790    3.2579 H   0  0  0  0  0  0  0  0  0  0  0  0
    5.7072    1.1106   -0.4119 H   0  0  0  0  0  0  0  0  0  0  0  0
    0.4914    3.0948   -2.5265 H   0  0  0  0  0  0  0  0  0  0  0  0
   -0.7574    4.3694   -2.4863 H   0  0  0  0  0  0  0  0  0  0  0  0
    0.4396    4.2587   -1.2064 H   0  0  0  0  0  0  0  0  0  0  0  0
   -3.1391    2.0983   -0.9765 H   0  0  0  0  0  0  0  0  0  0  0  0
   -2.8885    3.4438   -2.0965 H   0  0  0  0  0  0  0  0  0  0  0  0
   -2.3782    1.7850   -2.5284 H   0  0  0  0  0  0  0  0  0  0  0  0
    7.0064   -1.3865    3.2184 H   0  0  0  0  0  0  0  0  0  0  0  0
    7.0440    2.3279    1.0077 H   0  0  0  0  0  0  0  0  0  0  0  0
    9.2662   -0.9103    4.0216 H   0  0  0  0  0  0  0  0  0  0  0  0
    9.3298    2.7429    1.7757 H   0  0  0  0  0  0  0  0  0  0  0  0
   10.4640    1.1325    3.2839 H   0  0  0  0  0  0  0  0  0  0  0  0
  1  3  2  0  0  0  0
  1  4  2  0  0  0  0
  1  7  1  0  0  0  0
  1  9  1  0  0  0  0
  2  7  1  0  0  0  0
  2 10  1  0  0  0  0
  5 20  2  0  0  0  0
  6  8  1  0  0  0  0
  6 26  1  0  0  0  0
  7 11  1  0  0  0  0
  8 20  1  0  0  0  0
  8 27  1  0  0  0  0
  9 13  2  0  0  0  0
  9 14  1  0  0  0  0
 10 18  1  0  0  0  0
 10 19  1  0  0  0  0
 10 28  1  0  0  0  0
 11 20  1  0  0  0  0
 11 29  1  0  0  0  0
 11 30  1  0  0  0  0
 12 15  2  0  0  0  0
 12 16  1  0  0  0  0
 12 17  1  0  0  0  0
 13 15  1  0  0  0  0
 13 31  1  0  0  0  0
 14 16  2  0  0  0  0
 14 32  1  0  0  0  0
 15 33  1  0  0  0  0
 16 34  1  0  0  0  0
 17 21  2  0  0  0  0
 17 22  1  0  0  0  0
 18 35  1  0  0  0  0
 18 36  1  0  0  0  0
 18 37  1  0  0  0  0
 19 38  1  0  0  0  0
 19 39  1  0  0  0  0
 19 40  1  0  0  0  0
 21 23  1  0  0  0  0
 21 41  1  0  0  0  0
 22 24  2  0  0  0  0
 22 42  1  0  0  0  0
 23 25  2  0  0  0  0
 23 43  1  0  0  0  0
 24 25  1  0  0  0  0
 24 44  1  0  0  0  0
 25 45  1  0  0  0  0
M  END
>  <Mol_ID>
5944

>  <Formula>
C17H20N2O5S

>  <MolWeight>
364.4161

>  <Cat>
S9909

>  <Name>
ARP 100

>  <Synonyms>
MMP-2 Inhibitor III, Compound 10a

>  <Target>
MMP

>  <Form>
Free Base

>  <CAS>
704888-90-4

>  <URL>
http://www.selleckchem.com/products/arp-100.html

$$$$
