ARQ-197.cdx
 OpenBabel08302521303D

 47 52  0  0  0  0  0  0  0  0999 V2000
   -0.0206    0.8082   -0.0017 N   0  0  0  0  0  0  0  0  0  0  0  0
    1.1094    0.0839   -0.1971 C   0  0  0  0  0  0  0  0  0  0  0  0
    0.7858   -1.3876   -0.0735 C   0  0  2  0  0  0  0  0  0  0  0  0
   -0.7466   -1.4171    0.0353 C   0  0  1  0  0  0  0  0  0  0  0  0
   -1.1267    0.0402    0.1633 C   0  0  0  0  0  0  0  0  0  0  0  0
   -2.2400    0.4864    0.3960 O   0  0  0  0  0  0  0  0  0  0  0  0
    2.1982    0.5720   -0.4582 O   0  0  0  0  0  0  0  0  0  0  0  0
   -1.4151   -2.0908   -1.1364 C   0  0  0  0  0  0  0  0  0  0  0  0
   -2.2197   -3.2127   -1.0330 C   0  0  0  0  0  0  0  0  0  0  0  0
   -2.6223   -3.5800   -2.2863 N   0  0  0  0  0  0  0  0  0  0  0  0
   -2.0938   -2.7274   -3.2255 C   0  0  0  0  0  0  0  0  0  0  0  0
   -1.3412   -1.7694   -2.5398 C   0  0  0  0  0  0  0  0  0  0  0  0
   -2.2301   -2.7419   -4.6182 C   0  0  0  0  0  0  0  0  0  0  0  0
   -1.5744   -1.7473   -5.3467 C   0  0  0  0  0  0  0  0  0  0  0  0
   -0.8184   -0.7757   -4.7011 C   0  0  0  0  0  0  0  0  0  0  0  0
   -0.6931   -0.7735   -3.3042 C   0  0  0  0  0  0  0  0  0  0  0  0
    1.5084   -2.0313    1.0809 C   0  0  0  0  0  0  0  0  0  0  0  0
    1.4415   -1.7150    2.4875 C   0  0  0  0  0  0  0  0  0  0  0  0
    2.3415   -2.5569    3.1187 C   0  0  0  0  0  0  0  0  0  0  0  0
    2.9063   -3.3710    2.1749 N   0  0  0  0  0  0  0  0  0  0  0  0
    2.4126   -3.0802    0.9443 C   0  0  0  0  0  0  0  0  0  0  0  0
    0.7391   -0.8089    3.3084 C   0  0  0  0  0  0  0  0  0  0  0  0
    0.9890   -0.8012    4.6956 C   0  0  0  0  0  0  0  0  0  0  0  0
    1.9263   -1.6627    5.2736 C   0  0  0  0  0  0  0  0  0  0  0  0
    2.6420   -2.5607    4.4830 C   0  0  0  0  0  0  0  0  0  0  0  0
    3.6603   -3.5412    4.9907 C   0  0  0  0  0  0  0  0  0  0  0  0
    4.6274   -3.9487    3.8537 C   0  0  0  0  0  0  0  0  0  0  0  0
    3.8965   -4.3630    2.5603 C   0  0  0  0  0  0  0  0  0  0  0  0
   -0.0400    1.8147   -0.0053 H   0  0  0  0  0  0  0  0  0  0  0  0
    1.1204   -1.8662   -1.0035 H   0  0  0  0  0  0  0  0  0  0  0  0
   -1.0659   -1.9144    0.9606 H   0  0  0  0  0  0  0  0  0  0  0  0
   -2.5299   -3.7854   -0.1695 H   0  0  0  0  0  0  0  0  0  0  0  0
   -3.2132   -4.3709   -2.5007 H   0  0  0  0  0  0  0  0  0  0  0  0
   -2.8203   -3.5009   -5.1224 H   0  0  0  0  0  0  0  0  0  0  0  0
   -1.6598   -1.7340   -6.4307 H   0  0  0  0  0  0  0  0  0  0  0  0
   -0.3153   -0.0096   -5.2863 H   0  0  0  0  0  0  0  0  0  0  0  0
   -0.0926   -0.0027   -2.8367 H   0  0  0  0  0  0  0  0  0  0  0  0
    2.7467   -3.6128    0.0628 H   0  0  0  0  0  0  0  0  0  0  0  0
    0.0074   -0.1196    2.9012 H   0  0  0  0  0  0  0  0  0  0  0  0
    0.4441   -0.1052    5.3303 H   0  0  0  0  0  0  0  0  0  0  0  0
    2.1003   -1.6239    6.3465 H   0  0  0  0  0  0  0  0  0  0  0  0
    4.2361   -3.1009    5.8122 H   0  0  0  0  0  0  0  0  0  0  0  0
    3.1415   -4.4275    5.3736 H   0  0  0  0  0  0  0  0  0  0  0  0
    5.2778   -3.0928    3.6258 H   0  0  0  0  0  0  0  0  0  0  0  0
    5.2788   -4.7624    4.1912 H   0  0  0  0  0  0  0  0  0  0  0  0
    4.6055   -4.4733    1.7338 H   0  0  0  0  0  0  0  0  0  0  0  0
    3.3585   -5.3068    2.7019 H   0  0  0  0  0  0  0  0  0  0  0  0
  1  2  1  0  0  0  0
  1 29  1  0  0  0  0
  2  3  1  0  0  0  0
  2  7  2  0  0  0  0
  3  4  1  0  0  0  0
  3 17  1  0  0  0  0
  3 30  1  6  0  0  0
  4  5  1  0  0  0  0
  4 31  1  1  0  0  0
  4  8  1  0  0  0  0
  5  1  1  0  0  0  0
  5  6  2  0  0  0  0
  8  9  2  0  0  0  0
  9 10  1  0  0  0  0
  9 32  1  0  0  0  0
 10 11  1  0  0  0  0
 10 33  1  0  0  0  0
 11 12  2  0  0  0  0
 11 13  1  0  0  0  0
 12  8  1  0  0  0  0
 13 14  2  0  0  0  0
 13 34  1  0  0  0  0
 14 15  1  0  0  0  0
 14 35  1  0  0  0  0
 15 16  2  0  0  0  0
 15 36  1  0  0  0  0
 16 12  1  0  0  0  0
 16 37  1  0  0  0  0
 17 18  1  0  0  0  0
 18 19  2  0  0  0  0
 18 22  1  0  0  0  0
 19 20  1  0  0  0  0
 20 21  1  0  0  0  0
 21 17  2  0  0  0  0
 21 38  1  0  0  0  0
 22 23  2  0  0  0  0
 22 39  1  0  0  0  0
 23 24  1  0  0  0  0
 23 40  1  0  0  0  0
 24 25  2  0  0  0  0
 24 41  1  0  0  0  0
 25 19  1  0  0  0  0
 25 26  1  0  0  0  0
 26 27  1  0  0  0  0
 26 42  1  0  0  0  0
 26 43  1  0  0  0  0
 27 28  1  0  0  0  0
 27 44  1  0  0  0  0
 27 45  1  0  0  0  0
 28 20  1  0  0  0  0
 28 46  1  0  0  0  0
 28 47  1  0  0  0  0
M  END
>  <Mol_ID>
537

>  <Formula>
C23H19N3O2

>  <MolWeight>
369.41586

>  <Cat>
S2753

>  <Name>
Tivantinib (ARQ 197)

>  <Synonyms>
N/A

>  <Target>
Apoptosis related,c-Met

>  <Form>
free base

>  <CAS>
905854-02-6

>  <URL>
http://selleckchem.com/products/arq-197.html

$$$$
