ARQ 531.cdx
 OpenBabel08302520433D

 57 61  0  0  0  0  0  0  0  0999 V2000
   -1.8491   -0.8077   -0.0682 C   0  0  0  0  0  0  0  0  0  0  0  0
   -2.0443    0.5219   -0.0679 N   0  0  0  0  0  0  0  0  0  0  0  0
   -0.9818    1.3633   -0.0448 C   0  0  0  0  0  0  0  0  0  0  0  0
    0.3090    0.7776   -0.0578 C   0  0  0  0  0  0  0  0  0  0  0  0
    0.3506   -0.6116   -0.0681 C   0  0  0  0  0  0  0  0  0  0  0  0
   -0.6822   -1.4621   -0.0683 N   0  0  0  0  0  0  0  0  0  0  0  0
    1.6820    1.2241   -0.0502 C   0  0  0  0  0  0  0  0  0  0  0  0
    2.4741    0.0834   -0.0800 C   0  0  0  0  0  0  0  0  0  0  0  0
    1.6539   -1.0116   -0.0735 N   0  0  0  0  0  0  0  0  0  0  0  0
   -1.1961    2.7392    0.0224 N   0  0  0  0  0  0  0  0  0  0  0  0
   -2.4083    3.3396   -0.5544 C   0  0  1  0  0  0  0  0  0  0  0  0
   -2.5731    3.0500   -2.0569 C   0  0  0  0  0  0  0  0  0  0  0  0
   -3.7334    3.7001   -2.5998 O   0  0  0  0  0  0  0  0  0  0  0  0
   -4.9375    3.2338   -1.9638 C   0  0  1  0  0  0  0  0  0  0  0  0
   -4.9213    3.6265   -0.4856 C   0  0  0  0  0  0  0  0  0  0  0  0
   -3.6984    3.0393    0.2261 C   0  0  0  0  0  0  0  0  0  0  0  0
    2.1722    2.6014   -0.0684 C   0  0  0  0  0  0  0  0  0  0  0  0
    1.5246    3.5018   -0.5976 O   0  0  0  0  0  0  0  0  0  0  0  0
    3.4749    2.9319    0.5885 C   0  0  0  0  0  0  0  0  0  0  0  0
   -6.1308    3.8634   -2.6931 C   0  0  0  0  0  0  0  0  0  0  0  0
   -6.1178    3.4861   -4.0699 O   0  0  0  0  0  0  0  0  0  0  0  0
    3.8540    2.3225    1.7932 C   0  0  0  0  0  0  0  0  0  0  0  0
    5.0177    2.7281    2.4606 C   0  0  0  0  0  0  0  0  0  0  0  0
    5.8338    3.7189    1.9156 C   0  0  0  0  0  0  0  0  0  0  0  0
    5.4582    4.3293    0.7139 C   0  0  0  0  0  0  0  0  0  0  0  0
    4.2801    3.9444    0.0544 C   0  0  0  0  0  0  0  0  0  0  0  0
    6.9610    4.2408    2.5163 O   0  0  0  0  0  0  0  0  0  0  0  0
    7.7063    3.4945    3.3998 C   0  0  0  0  0  0  0  0  0  0  0  0
    7.9760    2.1341    3.2424 C   0  0  0  0  0  0  0  0  0  0  0  0
    8.7696    1.4645    4.1766 C   0  0  0  0  0  0  0  0  0  0  0  0
    9.3382    2.1637    5.2412 C   0  0  0  0  0  0  0  0  0  0  0  0
    9.1144    3.5330    5.3732 C   0  0  0  0  0  0  0  0  0  0  0  0
    8.3000    4.1971    4.4539 C   0  0  0  0  0  0  0  0  0  0  0  0
   -2.7451   -1.4203   -0.0669 H   0  0  0  0  0  0  0  0  0  0  0  0
    3.5503   -0.0438   -0.1167 H   0  0  0  0  0  0  0  0  0  0  0  0
    1.9402   -1.9813   -0.0879 H   0  0  0  0  0  0  0  0  0  0  0  0
   -0.3435    3.2464   -0.2366 H   0  0  0  0  0  0  0  0  0  0  0  0
   -2.2717    4.4265   -0.4660 H   0  0  0  0  0  0  0  0  0  0  0  0
   -1.7024    3.4320   -2.6019 H   0  0  0  0  0  0  0  0  0  0  0  0
   -2.6403    1.9787   -2.2724 H   0  0  0  0  0  0  0  0  0  0  0  0
   -4.9869    2.1437   -2.0843 H   0  0  0  0  0  0  0  0  0  0  0  0
   -5.8380    3.2878    0.0109 H   0  0  0  0  0  0  0  0  0  0  0  0
   -4.8833    4.7196   -0.3952 H   0  0  0  0  0  0  0  0  0  0  0  0
   -3.8699    1.9658    0.3380 H   0  0  0  0  0  0  0  0  0  0  0  0
   -3.6303    3.4455    1.2419 H   0  0  0  0  0  0  0  0  0  0  0  0
   -7.0786    3.5309   -2.2591 H   0  0  0  0  0  0  0  0  0  0  0  0
   -6.0885    4.9568   -2.6563 H   0  0  0  0  0  0  0  0  0  0  0  0
   -5.2208    3.7084   -4.3866 H   0  0  0  0  0  0  0  0  0  0  0  0
    3.2321    1.5577    2.2519 H   0  0  0  0  0  0  0  0  0  0  0  0
    5.2499    2.2731    3.4202 H   0  0  0  0  0  0  0  0  0  0  0  0
    6.0691    5.1279    0.2988 H   0  0  0  0  0  0  0  0  0  0  0  0
    3.9949    4.4503   -0.8659 H   0  0  0  0  0  0  0  0  0  0  0  0
    7.5791    1.5819    2.3964 H   0  0  0  0  0  0  0  0  0  0  0  0
    8.9537    0.3993    4.0674 H   0  0  0  0  0  0  0  0  0  0  0  0
    9.9667    1.6419    5.9588 H   0  0  0  0  0  0  0  0  0  0  0  0
    9.5785    4.0829    6.1891 H   0  0  0  0  0  0  0  0  0  0  0  0
    8.1353    5.2666    4.5570 H   0  0  0  0  0  0  0  0  0  0  0  0
  1  2  2  0  0  0  0
  1 34  1  0  0  0  0
  2  3  1  0  0  0  0
  3  4  2  0  0  0  0
  3 10  1  0  0  0  0
  4  5  1  0  0  0  0
  4  7  1  0  0  0  0
  5  6  2  0  0  0  0
  6  1  1  0  0  0  0
  7  8  2  0  0  0  0
  7 17  1  0  0  0  0
  8  9  1  0  0  0  0
  8 35  1  0  0  0  0
  9  5  1  0  0  0  0
  9 36  1  0  0  0  0
 10 37  1  0  0  0  0
 11 10  1  0  0  0  0
 11 12  1  0  0  0  0
 11 38  1  1  0  0  0
 12 13  1  0  0  0  0
 12 39  1  0  0  0  0
 12 40  1  0  0  0  0
 13 14  1  0  0  0  0
 14 15  1  0  0  0  0
 14 41  1  6  0  0  0
 14 20  1  0  0  0  0
 15 16  1  0  0  0  0
 15 42  1  0  0  0  0
 15 43  1  0  0  0  0
 16 11  1  0  0  0  0
 16 44  1  0  0  0  0
 16 45  1  0  0  0  0
 17 18  2  0  0  0  0
 17 19  1  0  0  0  0
 19 22  2  0  0  0  0
 20 21  1  0  0  0  0
 20 46  1  0  0  0  0
 20 47  1  0  0  0  0
 21 48  1  0  0  0  0
 22 23  1  0  0  0  0
 22 49  1  0  0  0  0
 23 24  2  0  0  0  0
 23 50  1  0  0  0  0
 24 25  1  0  0  0  0
 24 27  1  0  0  0  0
 25 26  2  0  0  0  0
 25 51  1  0  0  0  0
 26 19  1  0  0  0  0
 26 52  1  0  0  0  0
 27 28  1  0  0  0  0
 28 29  2  0  0  0  0
 29 30  1  0  0  0  0
 29 53  1  0  0  0  0
 30 31  2  0  0  0  0
 30 54  1  0  0  0  0
 31 32  1  0  0  0  0
 31 55  1  0  0  0  0
 32 33  2  0  0  0  0
 32 56  1  0  0  0  0
 33 28  1  0  0  0  0
 33 57  1  0  0  0  0
M  END
>  <Mol_ID>
4219

>  <Formula>
C25H23ClN4O4

>  <MolWeight>
478.92752

>  <Cat>
S8711

>  <Name>
Nemtabrutinib (ARQ 531)

>  <Synonyms>
MK-1026

>  <Target>
BTK

>  <Form>
free base

>  <CAS>
2095393-15-8

>  <URL>
https://www.selleckchem.com/products/arq531.html

$$$$
