ARS-1620
 OpenBabel08302521353D

 47 50  0  0  0  0  0  0  0  0999 V2000
    1.0959   -0.2900   -0.4018 F   0  0  0  0  0  0  0  0  0  0  0  0
   10.2673   -3.2411    2.2336 C   0  0  0  0  0  0  0  0  0  0  0  0
   10.8959   -2.2115    3.1056 C   0  0  0  0  0  0  0  0  0  0  0  0
   10.9755   -4.0431    1.6284 O   0  0  0  0  0  0  0  0  0  0  0  0
   12.1665   -1.8341    2.8914 C   0  0  0  0  0  0  0  0  0  0  0  0
    3.8518    3.5508   -1.3118 F   0  0  0  0  0  0  0  0  0  0  0  0
    0.2014    1.5435    1.1606 O   0  0  0  0  0  0  0  0  0  0  0  0
    4.5560   -1.2116    0.0981 C   0  0  0  0  0  0  0  0  0  0  0  0
    5.2790   -2.4196    0.2694 C   0  0  0  0  0  0  0  0  0  0  0  0
    3.1784   -1.3306   -0.0981 C   0  0  0  0  0  0  0  0  0  0  0  0
    5.1218    0.0833    0.0889 C   0  0  0  0  0  0  0  0  0  0  0  0
    4.6598   -3.6075    0.1563 N   0  0  0  0  0  0  0  0  0  0  0  0
    2.4215   -0.1557   -0.2045 C   0  0  0  0  0  0  0  0  0  0  0  0
    2.5676   -2.5232   -0.1770 N   0  0  0  0  0  0  0  0  0  0  0  0
    4.3353    1.2288    0.0669 C   0  0  0  0  0  0  0  0  0  0  0  0
    3.3407   -3.6042   -0.0598 C   0  0  0  0  0  0  0  0  0  0  0  0
    2.9510    1.1449   -0.0776 C   0  0  0  0  0  0  0  0  0  0  0  0
    6.6258   -2.4414    0.5840 N   0  0  0  0  0  0  0  0  0  0  0  0
    7.4675   -3.5574    0.1198 C   0  0  0  0  0  0  0  0  0  0  0  0
    7.2348   -1.5108    1.5426 C   0  0  0  0  0  0  0  0  0  0  0  0
    8.2225   -4.2299    1.2832 C   0  0  0  0  0  0  0  0  0  0  0  0
    7.9741   -2.2340    2.6744 C   0  0  0  0  0  0  0  0  0  0  0  0
    8.8888   -3.2463    2.1495 N   0  0  0  0  0  0  0  0  0  0  0  0
    2.1206    2.3785   -0.1435 C   0  0  0  0  0  0  0  0  0  0  0  0
    2.6159    3.5379   -0.7871 C   0  0  0  0  0  0  0  0  0  0  0  0
    0.8248    2.4982    0.3980 C   0  0  0  0  0  0  0  0  0  0  0  0
    1.8773    4.7133   -0.9096 C   0  0  0  0  0  0  0  0  0  0  0  0
    0.0570    3.6583    0.2304 C   0  0  0  0  0  0  0  0  0  0  0  0
    0.5799    4.7663   -0.4253 C   0  0  0  0  0  0  0  0  0  0  0  0
   10.3496   -1.8016    3.9397 H   0  0  0  0  0  0  0  0  0  0  0  0
   12.6446   -1.0992    3.5282 H   0  0  0  0  0  0  0  0  0  0  0  0
   12.7538   -2.2569    2.0812 H   0  0  0  0  0  0  0  0  0  0  0  0
    0.6925    0.7081    1.1261 H   0  0  0  0  0  0  0  0  0  0  0  0
    6.1981    0.2230    0.0988 H   0  0  0  0  0  0  0  0  0  0  0  0
    4.8418    2.1892    0.1506 H   0  0  0  0  0  0  0  0  0  0  0  0
    2.8553   -4.5689   -0.1507 H   0  0  0  0  0  0  0  0  0  0  0  0
    6.9048   -4.3208   -0.4303 H   0  0  0  0  0  0  0  0  0  0  0  0
    8.1947   -3.1418   -0.5886 H   0  0  0  0  0  0  0  0  0  0  0  0
    7.9459   -0.8792    0.9960 H   0  0  0  0  0  0  0  0  0  0  0  0
    6.4979   -0.8616    2.0267 H   0  0  0  0  0  0  0  0  0  0  0  0
    7.5174   -4.7818    1.9153 H   0  0  0  0  0  0  0  0  0  0  0  0
    8.9391   -4.9520    0.8799 H   0  0  0  0  0  0  0  0  0  0  0  0
    7.2570   -2.7499    3.3228 H   0  0  0  0  0  0  0  0  0  0  0  0
    8.4797   -1.4803    3.2791 H   0  0  0  0  0  0  0  0  0  0  0  0
    2.3261    5.5726   -1.3965 H   0  0  0  0  0  0  0  0  0  0  0  0
   -0.9568    3.6898    0.6234 H   0  0  0  0  0  0  0  0  0  0  0  0
   -0.0174    5.6652   -0.5469 H   0  0  0  0  0  0  0  0  0  0  0  0
  1 13  1  0  0  0  0
  2  3  1  0  0  0  0
  2  4  2  0  0  0  0
  2 23  1  0  0  0  0
  3  5  2  0  0  0  0
  3 30  1  0  0  0  0
  5 31  1  0  0  0  0
  5 32  1  0  0  0  0
  6 25  1  0  0  0  0
  7 26  1  0  0  0  0
  7 33  1  0  0  0  0
  8  9  1  0  0  0  0
  8 10  1  0  0  0  0
  8 11  2  0  0  0  0
  9 12  2  0  0  0  0
  9 18  1  0  0  0  0
 10 13  2  0  0  0  0
 10 14  1  0  0  0  0
 11 15  1  0  0  0  0
 11 34  1  0  0  0  0
 12 16  1  0  0  0  0
 13 17  1  0  0  0  0
 14 16  2  0  0  0  0
 15 17  2  0  0  0  0
 15 35  1  0  0  0  0
 16 36  1  0  0  0  0
 17 24  1  0  0  0  0
 18 19  1  0  0  0  0
 18 20  1  0  0  0  0
 19 21  1  0  0  0  0
 19 37  1  0  0  0  0
 19 38  1  0  0  0  0
 20 22  1  0  0  0  0
 20 39  1  0  0  0  0
 20 40  1  0  0  0  0
 21 23  1  0  0  0  0
 21 41  1  0  0  0  0
 21 42  1  0  0  0  0
 22 23  1  0  0  0  0
 22 43  1  0  0  0  0
 22 44  1  0  0  0  0
 24 25  2  0  0  0  0
 24 26  1  0  0  0  0
 25 27  1  0  0  0  0
 26 28  2  0  0  0  0
 27 29  2  0  0  0  0
 27 45  1  0  0  0  0
 28 29  1  0  0  0  0
 28 46  1  0  0  0  0
 29 47  1  0  0  0  0
M  END
>  <Mol_ID>
6726

>  <Formula>
C21H17ClF2N4O2

>  <MolWeight>
430.8350864

>  <Cat>
S8707

>  <Name>
ARS-1620

>  <Synonyms>
N/A

>  <Target>
Ras

>  <Form>
Free base

>  <CAS>
1698055-85-4

>  <URL>
http://www.selleckchem.com/products/ars-1620.html

$$$$
