ART812
 OpenBabel08302521353D

 47 49  0  0  1  0  0  0  0  0999 V2000
    2.8009    0.3090    1.3046 C   0  0  0  0  0  0  0  0  0  0  0  0
    1.8616   -0.0774    2.2772 N   0  0  0  0  0  0  0  0  0  0  0  0
    3.9519    0.6815    1.5794 O   0  0  0  0  0  0  0  0  0  0  0  0
    0.5796   -0.6918    1.9247 C   0  0  0  0  0  0  0  0  0  0  0  0
    4.9638    1.2367   -2.4785 O   0  0  0  0  0  0  0  0  0  0  0  0
    4.0210   -1.8687    0.2746 O   0  0  0  0  0  0  0  0  0  0  0  0
    4.9987   -1.7479   -2.1568 O   0  0  0  0  0  0  0  0  0  0  0  0
    3.7317    5.9771   -1.6881 C   0  0  0  0  0  0  0  0  0  0  0  0
    5.0672    5.7533   -1.5593 F   0  0  0  0  0  0  0  0  0  0  0  0
    3.5633    6.5554   -2.9091 F   0  0  0  0  0  0  0  0  0  0  0  0
    3.4256    6.9380   -0.7718 F   0  0  0  0  0  0  0  0  0  0  0  0
   -0.7572    3.7187   -1.5155 C   0  0  0  0  0  0  0  0  0  0  0  0
    2.9118    0.3168    7.7939 F   0  0  0  0  0  0  0  0  0  0  0  0
    3.1968    1.1116   -0.9422 N   0  0  0  0  0  0  0  0  0  0  0  0
    2.4880    0.0826   -0.2001 C   0  0  1  0  0  0  0  0  0  0  0  0
    4.1551    0.6076   -1.8122 C   0  0  0  0  0  0  0  0  0  0  0  0
    3.1237   -1.2446   -0.6606 C   0  0  1  0  0  0  0  0  0  0  0  0
    3.8945   -0.8949   -1.9420 C   0  0  2  0  0  0  0  0  0  0  0  0
    2.6504    2.3967   -1.0864 C   0  0  0  0  0  0  0  0  0  0  0  0
    3.4692    3.4943   -1.2995 C   0  0  0  0  0  0  0  0  0  0  0  0
    1.2993    2.4930   -1.0694 N   0  0  0  0  0  0  0  0  0  0  0  0
    2.8876    4.7455   -1.5170 C   0  0  0  0  0  0  0  0  0  0  0  0
    0.7361    3.6888   -1.3682 C   0  0  0  0  0  0  0  0  0  0  0  0
    1.4928    4.8331   -1.5807 C   0  0  0  0  0  0  0  0  0  0  0  0
    2.1392    0.0482    3.7026 C   0  0  0  0  0  0  0  0  0  0  0  0
    3.1239    0.9132    4.2135 C   0  0  0  0  0  0  0  0  0  0  0  0
    1.4077   -0.7011    4.6495 C   0  0  0  0  0  0  0  0  0  0  0  0
    3.3874    1.0039    5.5890 C   0  0  0  0  0  0  0  0  0  0  0  0
    1.6692   -0.6156    6.0240 C   0  0  0  0  0  0  0  0  0  0  0  0
    2.6597    0.2360    6.4820 C   0  0  0  0  0  0  0  0  0  0  0  0
    0.5755   -1.7391    2.2411 H   0  0  0  0  0  0  0  0  0  0  0  0
   -0.2275   -0.1346    2.4130 H   0  0  0  0  0  0  0  0  0  0  0  0
    0.3679   -0.6926    0.8596 H   0  0  0  0  0  0  0  0  0  0  0  0
    4.5494   -1.1792    0.7259 H   0  0  0  0  0  0  0  0  0  0  0  0
    5.3820   -1.9385   -1.2797 H   0  0  0  0  0  0  0  0  0  0  0  0
   -1.0636    3.0417   -2.3205 H   0  0  0  0  0  0  0  0  0  0  0  0
   -1.2341    3.4016   -0.5840 H   0  0  0  0  0  0  0  0  0  0  0  0
   -1.1212    4.7207   -1.7655 H   0  0  0  0  0  0  0  0  0  0  0  0
    1.4369    0.1347   -0.4768 H   0  0  0  0  0  0  0  0  0  0  0  0
    2.3462   -1.9856   -0.8776 H   0  0  0  0  0  0  0  0  0  0  0  0
    3.2243   -0.9969   -2.8053 H   0  0  0  0  0  0  0  0  0  0  0  0
    4.5512    3.3886   -1.2675 H   0  0  0  0  0  0  0  0  0  0  0  0
    1.0116    5.7837   -1.7985 H   0  0  0  0  0  0  0  0  0  0  0  0
    3.7041    1.5680    3.5698 H   0  0  0  0  0  0  0  0  0  0  0  0
    0.6330   -1.4010    4.3539 H   0  0  0  0  0  0  0  0  0  0  0  0
    4.1558    1.6759    5.9598 H   0  0  0  0  0  0  0  0  0  0  0  0
    1.1075   -1.2154    6.7332 H   0  0  0  0  0  0  0  0  0  0  0  0
  1  2  1  0  0  0  0
  1  3  2  0  0  0  0
  2  4  1  0  0  0  0
  2 25  1  0  0  0  0
  4 31  1  0  0  0  0
  4 32  1  0  0  0  0
  4 33  1  0  0  0  0
  5 16  2  0  0  0  0
  6 34  1  0  0  0  0
  7 35  1  0  0  0  0
  8  9  1  0  0  0  0
  8 10  1  0  0  0  0
  8 11  1  0  0  0  0
  8 22  1  0  0  0  0
 12 23  1  0  0  0  0
 12 36  1  0  0  0  0
 12 37  1  0  0  0  0
 12 38  1  0  0  0  0
 13 30  1  0  0  0  0
 14 15  1  0  0  0  0
 14 16  1  0  0  0  0
 14 19  1  0  0  0  0
 15 17  1  0  0  0  0
 15 39  1  6  0  0  0
 15  1  1  0  0  0  0
 16 18  1  0  0  0  0
 17  6  1  0  0  0  0
 17 18  1  0  0  0  0
 17 40  1  6  0  0  0
 18  7  1  0  0  0  0
 18 41  1  6  0  0  0
 19 20  2  0  0  0  0
 19 21  1  0  0  0  0
 20 22  1  0  0  0  0
 20 42  1  0  0  0  0
 21 23  2  0  0  0  0
 22 24  2  0  0  0  0
 23 24  1  0  0  0  0
 24 43  1  0  0  0  0
 25 26  2  0  0  0  0
 25 27  1  0  0  0  0
 26 28  1  0  0  0  0
 26 44  1  0  0  0  0
 27 29  2  0  0  0  0
 27 45  1  0  0  0  0
 28 30  2  0  0  0  0
 28 46  1  0  0  0  0
 29 30  1  0  0  0  0
 29 47  1  0  0  0  0
M  END
>  <Mol_ID>
6946

>  <Formula>
C19H16ClF4N3O4

>  <MolWeight>
461.7946528

>  <Cat>
E1529

>  <Name>
ART812

>  <Target>
DNA/RNA Synthesis inhibitor

>  <Form>
free base

>  <CAS>
2607138-82-7

>  <URL>
https://www.selleckchem.com/products/art812.html

$$$$
