Artesunate.cdx
 OpenBabel08302520412D

 55 58  0  0  0  0  0  0  0  0999 V2000
   11.5918    3.4838    0.0000 C   0  0  2  0  0  0  0  0  0  0  0  0
   10.2242    3.1843    0.0000 C   0  0  1  0  0  0  0  0  0  0  0  0
    9.7998    1.8501    0.0000 C   0  0  1  0  0  0  0  0  0  0  0  0
   10.7430    0.8155    0.0000 C   0  0  0  0  0  0  0  0  0  0  0  0
   12.1106    1.1150    0.0000 C   0  0  0  0  0  0  0  0  0  0  0  0
   12.5350    2.4491    0.0000 C   0  0  1  0  0  0  0  0  0  0  0  0
   12.2103    4.7397    0.0000 C   0  0  0  0  0  0  0  0  0  0  0  0
   11.6140    6.0064    0.0000 C   0  0  0  0  0  0  0  0  0  0  0  0
   10.2519    6.3299    0.0000 C   0  0  1  0  0  0  0  0  0  0  0  0
    9.1497    5.4667    0.0000 O   0  0  0  0  0  0  0  0  0  0  0  0
    9.1374    4.0667    0.0000 C   0  0  1  0  0  0  0  0  0  0  0  0
   13.9026    2.7487    0.0000 C   0  0  0  0  0  0  0  0  0  0  0  0
    7.7698    3.7672    0.0000 O   0  0  0  0  0  0  0  0  0  0  0  0
    7.3454    2.4331    0.0000 C   0  0  1  0  0  0  0  0  0  0  0  0
    8.2886    1.3985    0.0000 C   0  0  2  0  0  0  0  0  0  0  0  0
   11.1951    5.2953    0.0000 O   0  0  0  0  0  0  0  0  0  0  0  0
   11.2589    4.1274    0.0000 O   0  0  0  0  0  0  0  0  0  0  0  0
    9.9535    7.6927    0.0000 C   0  0  0  0  0  0  0  0  0  0  0  0
    8.2239    0.0000    0.0000 C   0  0  0  0  0  0  0  0  0  0  0  0
    5.9778    2.1336    0.0000 O   0  0  0  0  0  0  0  0  0  0  0  0
    4.6102    1.8341    0.0000 C   0  0  0  0  0  0  0  0  0  0  0  0
    4.1873    0.5046    0.0000 O   0  0  0  0  0  0  0  0  0  0  0  0
    3.6703    2.8651    0.0000 C   0  0  0  0  0  0  0  0  0  0  0  0
    2.3027    2.5656    0.0000 C   0  0  0  0  0  0  0  0  0  0  0  0
    1.3628    3.5967    0.0000 C   0  0  0  0  0  0  0  0  0  0  0  0
    0.0000    3.2982    0.0000 O   0  0  0  0  0  0  0  0  0  0  0  0
    1.7858    4.9261    0.0000 O   0  0  0  0  0  0  0  0  0  0  0  0
   10.9321    4.3262    0.0000 H   0  0  0  0  0  0  0  0  0  0  0  0
   10.8450    2.0790    0.0000 H   0  0  0  0  0  0  0  0  0  0  0  0
   10.4186   -0.2042    0.0000 H   0  0  0  0  0  0  0  0  0  0  0  0
   11.4639    0.0248    0.0000 H   0  0  0  0  0  0  0  0  0  0  0  0
   12.8315    0.3243    0.0000 H   0  0  0  0  0  0  0  0  0  0  0  0
   13.1558    1.3439    0.0000 H   0  0  0  0  0  0  0  0  0  0  0  0
   13.2559    1.6584    0.0000 H   0  0  0  0  0  0  0  0  0  0  0  0
   13.2803    4.7303    0.0000 H   0  0  0  0  0  0  0  0  0  0  0  0
   12.7875    5.6406    0.0000 H   0  0  0  0  0  0  0  0  0  0  0  0
   12.2885    6.8371    0.0000 H   0  0  0  0  0  0  0  0  0  0  0  0
   11.2695    7.0194    0.0000 H   0  0  0  0  0  0  0  0  0  0  0  0
   10.1055    4.5225    0.0000 H   0  0  0  0  0  0  0  0  0  0  0  0
   14.6235    1.9580    0.0000 H   0  0  0  0  0  0  0  0  0  0  0  0
   14.2269    3.7684    0.0000 H   0  0  0  0  0  0  0  0  0  0  0  0
   14.9478    2.9777    0.0000 H   0  0  0  0  0  0  0  0  0  0  0  0
    6.6245    3.2238    0.0000 H   0  0  0  0  0  0  0  0  0  0  0  0
    7.2822    1.0351    0.0000 H   0  0  0  0  0  0  0  0  0  0  0  0
   10.7443    8.4135    0.0000 H   0  0  0  0  0  0  0  0  0  0  0  0
    8.9339    8.0171    0.0000 H   0  0  0  0  0  0  0  0  0  0  0  0
    9.7246    8.7379    0.0000 H   0  0  0  0  0  0  0  0  0  0  0  0
    7.2735   -0.4916    0.0000 H   0  0  0  0  0  0  0  0  0  0  0  0
    9.1248   -0.5773    0.0000 H   0  0  0  0  0  0  0  0  0  0  0  0
    8.1745   -1.0689    0.0000 H   0  0  0  0  0  0  0  0  0  0  0  0
    3.9947    3.8847    0.0000 H   0  0  0  0  0  0  0  0  0  0  0  0
    2.9494    3.6558    0.0000 H   0  0  0  0  0  0  0  0  0  0  0  0
    1.9783    1.5460    0.0000 H   0  0  0  0  0  0  0  0  0  0  0  0
    1.2575    2.3367    0.0000 H   0  0  0  0  0  0  0  0  0  0  0  0
   -0.6313    3.9906    0.0000 H   0  0  0  0  0  0  0  0  0  0  0  0
  1  2  1  0  0  0  0
  1  7  1  0  0  0  0
  1 28  1  6  0  0  0
  2  3  1  0  0  0  0
  2 17  1  6  0  0  0
  3  4  1  0  0  0  0
  3 29  1  6  0  0  0
  4  5  1  0  0  0  0
  4 30  1  0  0  0  0
  4 31  1  0  0  0  0
  5  6  1  0  0  0  0
  5 32  1  0  0  0  0
  5 33  1  0  0  0  0
  6  1  1  0  0  0  0
  6 12  1  0  0  0  0
  6 34  1  1  0  0  0
  7  8  1  0  0  0  0
  7 35  1  0  0  0  0
  7 36  1  0  0  0  0
  8  9  1  0  0  0  0
  8 37  1  0  0  0  0
  8 38  1  0  0  0  0
  9 10  1  0  0  0  0
  9 16  1  0  0  0  0
  9 18  1  1  0  0  0
 11 10  1  0  0  0  0
 11  2  1  0  0  0  0
 11 13  1  0  0  0  0
 11 39  1  1  0  0  0
 12 40  1  0  0  0  0
 12 41  1  0  0  0  0
 12 42  1  0  0  0  0
 13 14  1  0  0  0  0
 14 15  1  0  0  0  0
 14 20  1  0  0  0  0
 14 43  1  6  0  0  0
 15  3  1  0  0  0  0
 15 19  1  0  0  0  0
 15 44  1  6  0  0  0
 16 17  1  0  0  0  0
 18 45  1  0  0  0  0
 18 46  1  0  0  0  0
 18 47  1  0  0  0  0
 19 48  1  0  0  0  0
 19 49  1  0  0  0  0
 19 50  1  0  0  0  0
 20 21  1  0  0  0  0
 21 22  2  0  0  0  0
 21 23  1  0  0  0  0
 23 24  1  0  0  0  0
 23 51  1  0  0  0  0
 23 52  1  0  0  0  0
 24 25  1  0  0  0  0
 24 53  1  0  0  0  0
 24 54  1  0  0  0  0
 25 26  1  0  0  0  0
 25 27  2  0  0  0  0
 26 55  1  0  0  0  0
M  END
>  <Mol_ID>
371

>  <Formula>
C19H28O8

>  <MolWeight>
384.42082

>  <Cat>
S2265

>  <Name>
Artesunate (WR-256283)

>  <Synonyms>
WR-256283

>  <Target>
ADC Cytotoxin,STAT

>  <Form>
free base

>  <CAS>
88495-63-0

>  <URL>
http://selleckchem.com/products/Artesunate.html

$$$$
