Artemether.cdx
 OpenBabel08302520392D

 47 50  0  0  0  0  0  0  0  0999 V2000
    4.4620    6.4729    0.0000 C   0  0  2  0  0  0  0  0  0  0  0  0
    4.4620    5.0729    0.0000 C   0  0  1  0  0  0  0  0  0  0  0  0
    5.6745    4.3729    0.0000 C   0  0  1  0  0  0  0  0  0  0  0  0
    6.8869    5.0729    0.0000 C   0  0  0  0  0  0  0  0  0  0  0  0
    6.8869    6.4729    0.0000 C   0  0  0  0  0  0  0  0  0  0  0  0
    5.6745    7.1729    0.0000 C   0  0  1  0  0  0  0  0  0  0  0  0
    3.3675    7.3458    0.0000 C   0  0  0  0  0  0  0  0  0  0  0  0
    2.0026    7.0342    0.0000 C   0  0  0  0  0  0  0  0  0  0  0  0
    1.3951    5.7729    0.0000 C   0  0  1  0  0  0  0  0  0  0  0  0
    2.0026    4.5115    0.0000 O   0  0  0  0  0  0  0  0  0  0  0  0
    3.3675    4.2000    0.0000 C   0  0  1  0  0  0  0  0  0  0  0  0
    5.6745    8.5729    0.0000 C   0  0  0  0  0  0  0  0  0  0  0  0
    3.3675    2.8000    0.0000 O   0  0  0  0  0  0  0  0  0  0  0  0
    4.5799    2.1000    0.0000 C   0  0  1  0  0  0  0  0  0  0  0  0
    5.7923    2.8000    0.0000 C   0  0  2  0  0  0  0  0  0  0  0  0
    2.6076    6.4729    0.0000 O   0  0  0  0  0  0  0  0  0  0  0  0
    3.7620    6.2853    0.0000 O   0  0  0  0  0  0  0  0  0  0  0  0
    0.0000    5.7729    0.0000 C   0  0  0  0  0  0  0  0  0  0  0  0
    7.1446    2.4377    0.0000 C   0  0  0  0  0  0  0  0  0  0  0  0
    4.5799    0.7000    0.0000 O   0  0  0  0  0  0  0  0  0  0  0  0
    3.3675    0.0000    0.0000 C   0  0  0  0  0  0  0  0  0  0  0  0
    3.4980    6.0087    0.0000 H   0  0  0  0  0  0  0  0  0  0  0  0
    5.6745    5.4429    0.0000 H   0  0  0  0  0  0  0  0  0  0  0  0
    7.8136    4.5379    0.0000 H   0  0  0  0  0  0  0  0  0  0  0  0
    7.8135    5.6079    0.0000 H   0  0  0  0  0  0  0  0  0  0  0  0
    7.8136    7.0079    0.0000 H   0  0  0  0  0  0  0  0  0  0  0  0
    6.8869    7.5429    0.0000 H   0  0  0  0  0  0  0  0  0  0  0  0
    6.6012    7.7079    0.0000 H   0  0  0  0  0  0  0  0  0  0  0  0
    3.6056    8.3890    0.0000 H   0  0  0  0  0  0  0  0  0  0  0  0
    2.6109    8.1024    0.0000 H   0  0  0  0  0  0  0  0  0  0  0  0
    1.3355    7.8708    0.0000 H   0  0  0  0  0  0  0  0  0  0  0  0
    0.9393    6.9144    0.0000 H   0  0  0  0  0  0  0  0  0  0  0  0
    3.1294    5.2432    0.0000 H   0  0  0  0  0  0  0  0  0  0  0  0
    6.6011    9.1079    0.0000 H   0  0  0  0  0  0  0  0  0  0  0  0
    4.7479    9.1079    0.0000 H   0  0  0  0  0  0  0  0  0  0  0  0
    5.6745    9.6429    0.0000 H   0  0  0  0  0  0  0  0  0  0  0  0
    3.6532    1.5650    0.0000 H   0  0  0  0  0  0  0  0  0  0  0  0
    5.9320    1.7392    0.0000 H   0  0  0  0  0  0  0  0  0  0  0  0
   -0.5350    6.6995    0.0000 H   0  0  0  0  0  0  0  0  0  0  0  0
   -0.5350    4.8463    0.0000 H   0  0  0  0  0  0  0  0  0  0  0  0
   -1.0700    5.7729    0.0000 H   0  0  0  0  0  0  0  0  0  0  0  0
    7.4216    1.4042    0.0000 H   0  0  0  0  0  0  0  0  0  0  0  0
    7.9012    3.1943    0.0000 H   0  0  0  0  0  0  0  0  0  0  0  0
    8.1781    2.1608    0.0000 H   0  0  0  0  0  0  0  0  0  0  0  0
    2.4408    0.5350    0.0000 H   0  0  0  0  0  0  0  0  0  0  0  0
    3.3675   -1.0700    0.0000 H   0  0  0  0  0  0  0  0  0  0  0  0
    2.4409   -0.5350    0.0000 H   0  0  0  0  0  0  0  0  0  0  0  0
  1  2  1  0  0  0  0
  1  7  1  0  0  0  0
  1 22  1  6  0  0  0
  2  3  1  0  0  0  0
  2 17  1  6  0  0  0
  3  4  1  0  0  0  0
  3 23  1  6  0  0  0
  4  5  1  0  0  0  0
  4 24  1  0  0  0  0
  4 25  1  0  0  0  0
  5  6  1  0  0  0  0
  5 26  1  0  0  0  0
  5 27  1  0  0  0  0
  6  1  1  0  0  0  0
  6 12  1  0  0  0  0
  6 28  1  1  0  0  0
  7  8  1  0  0  0  0
  7 29  1  0  0  0  0
  7 30  1  0  0  0  0
  8  9  1  0  0  0  0
  8 31  1  0  0  0  0
  8 32  1  0  0  0  0
  9 10  1  0  0  0  0
  9 16  1  0  0  0  0
  9 18  1  1  0  0  0
 11 10  1  0  0  0  0
 11  2  1  0  0  0  0
 11 13  1  0  0  0  0
 11 33  1  1  0  0  0
 12 34  1  0  0  0  0
 12 35  1  0  0  0  0
 12 36  1  0  0  0  0
 13 14  1  0  0  0  0
 14 15  1  0  0  0  0
 14 20  1  0  0  0  0
 14 37  1  6  0  0  0
 15  3  1  0  0  0  0
 15 19  1  0  0  0  0
 15 38  1  6  0  0  0
 16 17  1  0  0  0  0
 18 39  1  0  0  0  0
 18 40  1  0  0  0  0
 18 41  1  0  0  0  0
 19 42  1  0  0  0  0
 19 43  1  0  0  0  0
 19 44  1  0  0  0  0
 20 21  1  0  0  0  0
 21 45  1  0  0  0  0
 21 46  1  0  0  0  0
 21 47  1  0  0  0  0
M  END
>  <Mol_ID>
351

>  <Formula>
C16H26O5

>  <MolWeight>
298.37464

>  <Cat>
S2264

>  <Name>
Artemether

>  <Synonyms>
SM-224, CGP 56696

>  <Target>
ADC Cytotoxin,Anti-infection

>  <Form>
free base

>  <CAS>
71963-77-4

>  <URL>
http://selleckchem.com/products/Artemether(SM-224).html

$$$$
