Articaine hydrochloride.cdx
 OpenBabel08302521533D

 39 39  0  0  0  0  0  0  0  0999 V2000
   -0.7035    1.0327   -0.1262 C   0  0  0  0  0  0  0  0  0  0  0  0
    0.6301    1.2852    0.1758 C   0  0  0  0  0  0  0  0  0  0  0  0
    1.3151    0.1228    0.6783 C   0  0  0  0  0  0  0  0  0  0  0  0
    0.4444   -0.9359    0.8336 C   0  0  0  0  0  0  0  0  0  0  0  0
   -1.1434   -0.5598    0.3454 S   0  0  0  0  0  0  0  0  0  0  0  0
   -1.6457    1.8682   -0.8605 C   0  0  0  0  0  0  0  0  0  0  0  0
   -1.3425    2.7343   -1.6763 O   0  0  0  0  0  0  0  0  0  0  0  0
   -2.9415    1.5329   -0.5797 O   0  0  0  0  0  0  0  0  0  0  0  0
    1.2829    2.4979   -0.0092 N   0  0  0  0  0  0  0  0  0  0  0  0
    0.7276    3.7177    0.3388 C   0  0  0  0  0  0  0  0  0  0  0  0
    1.6228    4.9227   -0.0063 C   0  0  3  0  0  0  0  0  0  0  0  0
    2.7244    5.0593    1.0464 C   0  0  0  0  0  0  0  0  0  0  0  0
    2.2664    4.7802   -1.3367 N   0  0  0  0  0  0  0  0  0  0  0  0
    1.3120    4.6133   -2.4462 C   0  0  0  0  0  0  0  0  0  0  0  0
    0.2778    5.7277   -2.6419 C   0  0  0  0  0  0  0  0  0  0  0  0
    0.9008    7.0619   -3.0195 C   0  0  0  0  0  0  0  0  0  0  0  0
   -0.3260    3.8579    0.9593 O   0  0  0  0  0  0  0  0  0  0  0  0
    2.7602    0.0859    1.0647 C   0  0  0  0  0  0  0  0  0  0  0  0
   -3.9111    2.2916   -1.3024 C   0  0  0  0  0  0  0  0  0  0  0  0
    0.6634   -1.9155    1.2324 H   0  0  0  0  0  0  0  0  0  0  0  0
    2.2779    2.4983   -0.1981 H   0  0  0  0  0  0  0  0  0  0  0  0
    1.0034    5.8255    0.0218 H   0  0  0  0  0  0  0  0  0  0  0  0
    3.4348    4.2258    1.0064 H   0  0  0  0  0  0  0  0  0  0  0  0
    3.2872    5.9884    0.9034 H   0  0  0  0  0  0  0  0  0  0  0  0
    2.2997    5.0752    2.0563 H   0  0  0  0  0  0  0  0  0  0  0  0
    2.8228    5.6169   -1.5121 H   0  0  0  0  0  0  0  0  0  0  0  0
    1.8986    4.5149   -3.3674 H   0  0  0  0  0  0  0  0  0  0  0  0
    0.7963    3.6559   -2.3481 H   0  0  0  0  0  0  0  0  0  0  0  0
   -0.4081    5.4262   -3.4441 H   0  0  0  0  0  0  0  0  0  0  0  0
   -0.3427    5.8471   -1.7470 H   0  0  0  0  0  0  0  0  0  0  0  0
    1.4009    6.9892   -3.9908 H   0  0  0  0  0  0  0  0  0  0  0  0
    0.1269    7.8323   -3.0952 H   0  0  0  0  0  0  0  0  0  0  0  0
    1.6342    7.3924   -2.2784 H   0  0  0  0  0  0  0  0  0  0  0  0
    3.3932    0.3250    0.2057 H   0  0  0  0  0  0  0  0  0  0  0  0
    2.9579    0.8176    1.8560 H   0  0  0  0  0  0  0  0  0  0  0  0
    3.0503   -0.8992    1.4392 H   0  0  0  0  0  0  0  0  0  0  0  0
   -4.0300    3.2771   -0.8420 H   0  0  0  0  0  0  0  0  0  0  0  0
   -3.6484    2.3913   -2.3611 H   0  0  0  0  0  0  0  0  0  0  0  0
   -4.8667    1.7614   -1.2452 H   0  0  0  0  0  0  0  0  0  0  0  0
  1  2  2  0  0  0  0
  1  5  1  0  0  0  0
  1  6  1  0  0  0  0
  2  3  1  0  0  0  0
  2  9  1  0  0  0  0
  3  4  2  0  0  0  0
  3 18  1  0  0  0  0
  4  5  1  0  0  0  0
  4 20  1  0  0  0  0
  6  7  2  0  0  0  0
  6  8  1  0  0  0  0
  8 19  1  0  0  0  0
  9 10  1  0  0  0  0
  9 21  1  0  0  0  0
 10 11  1  0  0  0  0
 10 17  2  0  0  0  0
 11 12  1  0  0  0  0
 11 13  1  0  0  0  0
 11 22  1  0  0  0  0
 12 23  1  0  0  0  0
 12 24  1  0  0  0  0
 12 25  1  0  0  0  0
 13 14  1  0  0  0  0
 13 26  1  0  0  0  0
 14 15  1  0  0  0  0
 14 27  1  0  0  0  0
 14 28  1  0  0  0  0
 15 16  1  0  0  0  0
 15 29  1  0  0  0  0
 15 30  1  0  0  0  0
 16 31  1  0  0  0  0
 16 32  1  0  0  0  0
 16 33  1  0  0  0  0
 18 34  1  0  0  0  0
 18 35  1  0  0  0  0
 18 36  1  0  0  0  0
 19 37  1  0  0  0  0
 19 38  1  0  0  0  0
 19 39  1  0  0  0  0
M  END
>  <Mol_ID>
986

>  <Formula>
C13H21ClN2O3S

>  <MolWeight>
320.83544

>  <Cat>
S3150

>  <Name>
Articaine HCl

>  <Synonyms>
Ultracaine

>  <Target>
NF-¦ÊB

>  <Form>
Hydrochloride

>  <CAS>
23964-57-0

>  <URL>
http://selleckchem.com/products/articaine-hydrochloride.html

$$$$
