AS-703026.cdx
 OpenBabel08302520003D

 38 39  0  0  0  0  0  0  0  0999 V2000
   -0.0503   -1.0267    2.0727 C   0  0  0  0  0  0  0  0  0  0  0  0
   -0.9015    0.0748    2.0892 C   0  0  0  0  0  0  0  0  0  0  0  0
   -0.5802    1.2263    1.3739 C   0  0  0  0  0  0  0  0  0  0  0  0
    0.6148    1.2812    0.6555 C   0  0  0  0  0  0  0  0  0  0  0  0
    1.5209    0.2089    0.6761 C   0  0  0  0  0  0  0  0  0  0  0  0
    1.1459   -0.9553    1.3584 C   0  0  0  0  0  0  0  0  0  0  0  0
   -2.6665    0.0139    3.1834 I   0  0  0  0  0  0  0  0  0  0  0  0
    1.9615   -2.0219    1.3609 F   0  0  0  0  0  0  0  0  0  0  0  0
    2.7510    0.2606   -0.0379 N   0  0  0  0  0  0  0  0  0  0  0  0
    3.4762    1.4521   -0.2982 C   0  0  0  0  0  0  0  0  0  0  0  0
    3.5315    2.4805    0.6513 C   0  0  0  0  0  0  0  0  0  0  0  0
    4.0858    3.7006    0.4589 N   0  0  0  0  0  0  0  0  0  0  0  0
    4.6646    3.9161   -0.7348 C   0  0  0  0  0  0  0  0  0  0  0  0
    4.7665    2.9446   -1.7123 C   0  0  0  0  0  0  0  0  0  0  0  0
    4.1952    1.6876   -1.4770 C   0  0  0  0  0  0  0  0  0  0  0  0
    4.3599    0.6784   -2.5534 C   0  0  0  0  0  0  0  0  0  0  0  0
    4.5350   -0.6259   -2.1480 N   0  0  0  0  0  0  0  0  0  0  0  0
    4.3651    1.0206   -3.7292 O   0  0  0  0  0  0  0  0  0  0  0  0
    4.6345   -1.7113   -3.1075 C   0  0  0  0  0  0  0  0  0  0  0  0
    3.2542   -2.2276   -3.5413 C   0  0  1  0  0  0  0  0  0  0  0  0
    3.3743   -3.3616   -4.5663 C   0  0  0  0  0  0  0  0  0  0  0  0
    4.0454   -4.4793   -3.9771 O   0  0  0  0  0  0  0  0  0  0  0  0
    2.5646   -2.7203   -2.3790 O   0  0  0  0  0  0  0  0  0  0  0  0
   -0.2868   -1.9399    2.6097 H   0  0  0  0  0  0  0  0  0  0  0  0
   -1.2418    2.0900    1.3614 H   0  0  0  0  0  0  0  0  0  0  0  0
    0.8313    2.1800    0.0817 H   0  0  0  0  0  0  0  0  0  0  0  0
    2.6627   -0.3480   -0.8590 H   0  0  0  0  0  0  0  0  0  0  0  0
    3.0810    2.3552    1.6339 H   0  0  0  0  0  0  0  0  0  0  0  0
    5.0627    4.9156   -0.8850 H   0  0  0  0  0  0  0  0  0  0  0  0
    5.2765    3.1652   -2.6457 H   0  0  0  0  0  0  0  0  0  0  0  0
    4.5624   -0.8575   -1.1591 H   0  0  0  0  0  0  0  0  0  0  0  0
    5.2004   -1.3677   -3.9802 H   0  0  0  0  0  0  0  0  0  0  0  0
    5.2061   -2.5002   -2.6082 H   0  0  0  0  0  0  0  0  0  0  0  0
    2.6525   -1.4140   -3.9600 H   0  0  0  0  0  0  0  0  0  0  0  0
    2.3765   -3.7152   -4.8518 H   0  0  0  0  0  0  0  0  0  0  0  0
    3.9054   -3.0528   -5.4713 H   0  0  0  0  0  0  0  0  0  0  0  0
    5.0020   -4.3534   -4.1092 H   0  0  0  0  0  0  0  0  0  0  0  0
    2.8431   -3.6541   -2.2822 H   0  0  0  0  0  0  0  0  0  0  0  0
  1  2  2  0  0  0  0
  1 24  1  0  0  0  0
  2  3  1  0  0  0  0
  2  7  1  0  0  0  0
  3  4  2  0  0  0  0
  3 25  1  0  0  0  0
  4  5  1  0  0  0  0
  4 26  1  0  0  0  0
  5  6  2  0  0  0  0
  5  9  1  0  0  0  0
  6  1  1  0  0  0  0
  6  8  1  0  0  0  0
  9 10  1  0  0  0  0
  9 27  1  0  0  0  0
 10 11  2  0  0  0  0
 11 12  1  0  0  0  0
 11 28  1  0  0  0  0
 12 13  2  0  0  0  0
 13 14  1  0  0  0  0
 13 29  1  0  0  0  0
 14 15  2  0  0  0  0
 14 30  1  0  0  0  0
 15 10  1  0  0  0  0
 15 16  1  0  0  0  0
 16 17  1  0  0  0  0
 16 18  2  0  0  0  0
 17 19  1  0  0  0  0
 17 31  1  0  0  0  0
 19 20  1  0  0  0  0
 19 32  1  0  0  0  0
 19 33  1  0  0  0  0
 20 21  1  0  0  0  0
 20 23  1  0  0  0  0
 20 34  1  6  0  0  0
 21 22  1  0  0  0  0
 21 35  1  0  0  0  0
 21 36  1  0  0  0  0
 22 37  1  0  0  0  0
 23 38  1  0  0  0  0
M  END
>  <Mol_ID>
278

>  <Formula>
C15H15FIN3O3

>  <MolWeight>
431.2007732

>  <Cat>
S1475

>  <Name>
Pimasertib (AS-703026)

>  <Synonyms>
MSC1936369B, SAR 245509

>  <Target>
MEK

>  <Form>
free base

>  <CAS>
1236699-92-5

>  <URL>
http://selleckchem.com/products/AS703026.html

$$$$
