AS1269574
 OpenBabel08302521323D

 32 33  0  0  0  0  0  0  0  0999 V2000
    0.8129   -0.2082   -0.1912 N   0  0  0  0  0  0  0  0  0  0  0  0
    0.1818    0.0938    1.0991 C   0  0  0  0  0  0  0  0  0  0  0  0
   -1.0676   -0.7813    1.2798 C   0  0  0  0  0  0  0  0  0  0  0  0
   -0.7372   -2.1502    1.0258 O   0  0  0  0  0  0  0  0  0  0  0  0
    0.2666   -0.1750   -5.0313 C   0  0  0  0  0  0  0  0  0  0  0  0
   -5.8386    5.9250   -1.8821 Br  0  0  0  0  0  0  0  0  0  0  0  0
   -2.4311    2.6887   -2.2239 C   0  0  0  0  0  0  0  0  0  0  0  0
   -2.3831    3.6985   -1.2444 C   0  0  0  0  0  0  0  0  0  0  0  0
   -3.5368    2.6804   -3.0961 C   0  0  0  0  0  0  0  0  0  0  0  0
   -3.3904    4.6646   -1.1441 C   0  0  0  0  0  0  0  0  0  0  0  0
   -4.5548    3.6347   -2.9923 C   0  0  0  0  0  0  0  0  0  0  0  0
   -4.4733    4.6252   -2.0180 C   0  0  0  0  0  0  0  0  0  0  0  0
   -1.3591    1.6844   -2.3419 C   0  0  0  0  0  0  0  0  0  0  0  0
   -0.7636    1.2694   -1.2055 N   0  0  0  0  0  0  0  0  0  0  0  0
   -1.0548    1.2447   -3.5761 N   0  0  0  0  0  0  0  0  0  0  0  0
    0.2230    0.3703   -1.3257 C   0  0  0  0  0  0  0  0  0  0  0  0
   -0.0473    0.3561   -3.6680 C   0  0  0  0  0  0  0  0  0  0  0  0
    0.6397   -0.0915   -2.5585 C   0  0  0  0  0  0  0  0  0  0  0  0
    1.8172   -0.0525   -0.1922 H   0  0  0  0  0  0  0  0  0  0  0  0
    0.9037   -0.1770    1.8784 H   0  0  0  0  0  0  0  0  0  0  0  0
   -0.0441    1.1591    1.2269 H   0  0  0  0  0  0  0  0  0  0  0  0
   -1.4546   -0.7013    2.2997 H   0  0  0  0  0  0  0  0  0  0  0  0
   -1.8650   -0.4977    0.5853 H   0  0  0  0  0  0  0  0  0  0  0  0
   -0.2279   -2.1179    0.1923 H   0  0  0  0  0  0  0  0  0  0  0  0
   -0.6160   -0.6739   -5.4453 H   0  0  0  0  0  0  0  0  0  0  0  0
    0.5585    0.6446   -5.6940 H   0  0  0  0  0  0  0  0  0  0  0  0
    1.0843   -0.9028   -5.0032 H   0  0  0  0  0  0  0  0  0  0  0  0
   -1.5387    3.7455   -0.5578 H   0  0  0  0  0  0  0  0  0  0  0  0
   -3.6105    1.9137   -3.8662 H   0  0  0  0  0  0  0  0  0  0  0  0
   -3.3165    5.4399   -0.3864 H   0  0  0  0  0  0  0  0  0  0  0  0
   -5.3994    3.5937   -3.6751 H   0  0  0  0  0  0  0  0  0  0  0  0
    1.4301   -0.8262   -2.6407 H   0  0  0  0  0  0  0  0  0  0  0  0
  1  2  1  0  0  0  0
  1 16  1  0  0  0  0
  1 19  1  0  0  0  0
  2  3  1  0  0  0  0
  2 20  1  0  0  0  0
  2 21  1  0  0  0  0
  3  4  1  0  0  0  0
  3 22  1  0  0  0  0
  3 23  1  0  0  0  0
  4 24  1  0  0  0  0
  5 17  1  0  0  0  0
  5 25  1  0  0  0  0
  5 26  1  0  0  0  0
  5 27  1  0  0  0  0
  6 12  1  0  0  0  0
  7  8  2  0  0  0  0
  7  9  1  0  0  0  0
  7 13  1  0  0  0  0
  8 10  1  0  0  0  0
  8 28  1  0  0  0  0
  9 11  2  0  0  0  0
  9 29  1  0  0  0  0
 10 12  2  0  0  0  0
 10 30  1  0  0  0  0
 11 12  1  0  0  0  0
 11 31  1  0  0  0  0
 13 14  2  0  0  0  0
 13 15  1  0  0  0  0
 14 16  1  0  0  0  0
 15 17  2  0  0  0  0
 16 18  2  0  0  0  0
 17 18  1  0  0  0  0
 18 32  1  0  0  0  0
M  END
>  <Mol_ID>
6256

>  <Formula>
C13H14BrN3O

>  <MolWeight>
308.17376

>  <Cat>
E0347

>  <Name>
AS1269574

>  <Synonyms>
N/A

>  <Target>
GPR

>  <Form>
free base

>  <CAS>
330981-72-1

>  <URL>
http://www.selleckchem.com/products/as1269574.html

$$$$
