AS1517499.cdx
 OpenBabel08302520433D

 48 50  0  0  0  0  0  0  0  0999 V2000
   -4.3560   -4.1688    2.4955 C   0  0  0  0  0  0  0  0  0  0  0  0
   -3.4652   -3.9001    1.4623 C   0  0  0  0  0  0  0  0  0  0  0  0
   -2.9784   -2.6001    1.2902 C   0  0  0  0  0  0  0  0  0  0  0  0
   -3.3814   -1.5647    2.1474 C   0  0  0  0  0  0  0  0  0  0  0  0
   -4.2453   -1.8718    3.2108 C   0  0  0  0  0  0  0  0  0  0  0  0
   -4.7419   -3.1658    3.3745 C   0  0  0  0  0  0  0  0  0  0  0  0
   -4.8763   -5.4142    2.6849 O   0  0  0  0  0  0  0  0  0  0  0  0
   -2.8869   -0.1490    1.9387 C   0  0  0  0  0  0  0  0  0  0  0  0
   -4.0309    0.8574    1.7118 C   0  0  0  0  0  0  0  0  0  0  0  0
   -3.4972    2.1962    1.5104 N   0  0  0  0  0  0  0  0  0  0  0  0
   -4.4331    3.2097    1.3655 C   0  0  0  0  0  0  0  0  0  0  0  0
   -4.0689    4.2206    0.5772 N   0  0  0  0  0  0  0  0  0  0  0  0
   -4.9094    5.2774    0.5244 C   0  0  0  0  0  0  0  0  0  0  0  0
   -6.0910    5.3650    1.2299 C   0  0  0  0  0  0  0  0  0  0  0  0
   -6.4153    4.2445    1.9819 C   0  0  0  0  0  0  0  0  0  0  0  0
   -5.5899    3.1721    2.0443 N   0  0  0  0  0  0  0  0  0  0  0  0
   -7.5581    4.2404    2.8178 N   0  0  0  0  0  0  0  0  0  0  0  0
   -8.0821    2.9046    3.0943 C   0  0  0  0  0  0  0  0  0  0  0  0
   -9.2632    3.0290    4.0308 C   0  0  0  0  0  0  0  0  0  0  0  0
   -6.8910    6.6065    1.0970 C   0  0  0  0  0  0  0  0  0  0  0  0
   -8.1115    6.6617    1.7080 N   0  0  0  0  0  0  0  0  0  0  0  0
   -6.4784    7.5613    0.4514 O   0  0  0  0  0  0  0  0  0  0  0  0
  -10.5541    3.2574    3.5312 C   0  0  0  0  0  0  0  0  0  0  0  0
  -11.6448    3.3419    4.3994 C   0  0  0  0  0  0  0  0  0  0  0  0
  -11.4547    3.2129    5.7741 C   0  0  0  0  0  0  0  0  0  0  0  0
  -10.1730    3.0150    6.2844 C   0  0  0  0  0  0  0  0  0  0  0  0
   -9.0810    2.9289    5.4182 C   0  0  0  0  0  0  0  0  0  0  0  0
   -3.1429   -4.6828    0.7817 H   0  0  0  0  0  0  0  0  0  0  0  0
   -2.2837   -2.4026    0.4766 H   0  0  0  0  0  0  0  0  0  0  0  0
   -4.5455   -1.1038    3.9209 H   0  0  0  0  0  0  0  0  0  0  0  0
   -5.4296   -3.3905    4.1848 H   0  0  0  0  0  0  0  0  0  0  0  0
   -4.5157   -6.0088    2.0073 H   0  0  0  0  0  0  0  0  0  0  0  0
   -2.2865    0.1458    2.8091 H   0  0  0  0  0  0  0  0  0  0  0  0
   -2.2061   -0.1155    1.0784 H   0  0  0  0  0  0  0  0  0  0  0  0
   -4.6212    0.5534    0.8384 H   0  0  0  0  0  0  0  0  0  0  0  0
   -4.6955    0.8479    2.5848 H   0  0  0  0  0  0  0  0  0  0  0  0
   -2.8322    2.3049    0.7514 H   0  0  0  0  0  0  0  0  0  0  0  0
   -4.5815    6.0878   -0.1257 H   0  0  0  0  0  0  0  0  0  0  0  0
   -7.2710    4.6852    3.6906 H   0  0  0  0  0  0  0  0  0  0  0  0
   -8.4158    2.4323    2.1602 H   0  0  0  0  0  0  0  0  0  0  0  0
   -7.3347    2.2452    3.5492 H   0  0  0  0  0  0  0  0  0  0  0  0
   -8.6734    7.4941    1.6124 H   0  0  0  0  0  0  0  0  0  0  0  0
   -8.4875    5.8565    2.2051 H   0  0  0  0  0  0  0  0  0  0  0  0
  -10.7176    3.3612    2.4607 H   0  0  0  0  0  0  0  0  0  0  0  0
  -12.6443    3.5023    4.0033 H   0  0  0  0  0  0  0  0  0  0  0  0
  -12.3058    3.2674    6.4486 H   0  0  0  0  0  0  0  0  0  0  0  0
  -10.0248    2.9211    7.3571 H   0  0  0  0  0  0  0  0  0  0  0  0
   -8.0880    2.7703    5.8325 H   0  0  0  0  0  0  0  0  0  0  0  0
  1  2  2  0  0  0  0
  1  7  1  0  0  0  0
  2  3  1  0  0  0  0
  2 28  1  0  0  0  0
  3  4  2  0  0  0  0
  3 29  1  0  0  0  0
  4  5  1  0  0  0  0
  4  8  1  0  0  0  0
  5  6  2  0  0  0  0
  5 30  1  0  0  0  0
  6  1  1  0  0  0  0
  6 31  1  0  0  0  0
  7 32  1  0  0  0  0
  8  9  1  0  0  0  0
  8 33  1  0  0  0  0
  8 34  1  0  0  0  0
  9 10  1  0  0  0  0
  9 35  1  0  0  0  0
  9 36  1  0  0  0  0
 10 11  1  0  0  0  0
 10 37  1  0  0  0  0
 11 12  2  0  0  0  0
 12 13  1  0  0  0  0
 13 14  2  0  0  0  0
 13 38  1  0  0  0  0
 14 15  1  0  0  0  0
 14 20  1  0  0  0  0
 15 16  2  0  0  0  0
 15 17  1  0  0  0  0
 16 11  1  0  0  0  0
 17 18  1  0  0  0  0
 17 39  1  0  0  0  0
 18 19  1  0  0  0  0
 18 40  1  0  0  0  0
 18 41  1  0  0  0  0
 19 23  2  0  0  0  0
 20 21  1  0  0  0  0
 20 22  2  0  0  0  0
 21 42  1  0  0  0  0
 21 43  1  0  0  0  0
 23 24  1  0  0  0  0
 23 44  1  0  0  0  0
 24 25  2  0  0  0  0
 24 45  1  0  0  0  0
 25 26  1  0  0  0  0
 25 46  1  0  0  0  0
 26 27  2  0  0  0  0
 26 47  1  0  0  0  0
 27 19  1  0  0  0  0
 27 48  1  0  0  0  0
M  END
>  <Mol_ID>
4207

>  <Formula>
C20H20ClN5O2

>  <MolWeight>
397.8581

>  <Cat>
S8685

>  <Name>
AS1517499

>  <Synonyms>
N/A

>  <Target>
STAT

>  <Form>
free base

>  <CAS>
919486-40-1

>  <URL>
http://selleckchem.com/products/as1517499.html

$$$$
