AS1842856.cdx
 OpenBabel08302520413D

 47 49  0  0  0  0  0  0  0  0999 V2000
    2.4461   -0.6336   -0.0561 C   0  0  0  0  0  0  0  0  0  0  0  0
    2.4404    0.7674   -0.1096 C   0  0  0  0  0  0  0  0  0  0  0  0
    1.1909    1.3985   -0.1549 C   0  0  0  0  0  0  0  0  0  0  0  0
   -0.0296    0.6952   -0.0641 C   0  0  0  0  0  0  0  0  0  0  0  0
    0.0316   -0.7190   -0.0040 C   0  0  0  0  0  0  0  0  0  0  0  0
    1.2700   -1.4002   -0.0210 C   0  0  0  0  0  0  0  0  0  0  0  0
   -1.2848    1.3504   -0.0204 N   0  0  0  0  0  0  0  0  0  0  0  0
   -2.4419    0.5896    0.0134 C   0  0  0  0  0  0  0  0  0  0  0  0
   -2.5298   -0.7502    0.0267 C   0  0  0  0  0  0  0  0  0  0  0  0
   -1.2471   -1.4962    0.0057 C   0  0  0  0  0  0  0  0  0  0  0  0
    3.6333   -1.2694   -0.0208 F   0  0  0  0  0  0  0  0  0  0  0  0
    3.6533    1.4690   -0.1893 N   0  0  0  0  0  0  0  0  0  0  0  0
    3.7786    2.8486    0.2937 C   0  0  0  0  0  0  0  0  0  0  0  0
    1.3718   -2.7880    0.2392 N   0  0  0  0  0  0  0  0  0  0  0  0
   -1.2296   -2.7210   -0.0487 O   0  0  0  0  0  0  0  0  0  0  0  0
   -1.3576    2.8239   -0.0039 C   0  0  0  0  0  0  0  0  0  0  0  0
   -1.4017    3.3813   -1.4193 C   0  0  0  0  0  0  0  0  0  0  0  0
   -3.8388   -1.4358    0.0431 C   0  0  0  0  0  0  0  0  0  0  0  0
   -4.0478   -2.6347    0.0796 O   0  0  0  0  0  0  0  0  0  0  0  0
   -4.8912   -0.5900    0.0081 O   0  0  0  0  0  0  0  0  0  0  0  0
    5.2045    3.3570    0.0158 C   0  0  0  0  0  0  0  0  0  0  0  0
    5.3816    4.7984    0.4955 C   0  0  0  0  0  0  0  0  0  0  0  0
    5.0283    4.9517    1.9727 C   0  0  0  0  0  0  0  0  0  0  0  0
    3.6370    4.4067    2.2774 C   0  0  0  0  0  0  0  0  0  0  0  0
    3.4785    2.9645    1.7971 C   0  0  0  0  0  0  0  0  0  0  0  0
    1.1821    2.4754   -0.2623 H   0  0  0  0  0  0  0  0  0  0  0  0
   -3.3444    1.1981    0.0228 H   0  0  0  0  0  0  0  0  0  0  0  0
    4.4479    0.8675    0.0338 H   0  0  0  0  0  0  0  0  0  0  0  0
    3.0925    3.4923   -0.2691 H   0  0  0  0  0  0  0  0  0  0  0  0
    0.5105   -3.2945    0.0091 H   0  0  0  0  0  0  0  0  0  0  0  0
    2.2133   -3.2180   -0.1342 H   0  0  0  0  0  0  0  0  0  0  0  0
   -2.2653    3.1435    0.5250 H   0  0  0  0  0  0  0  0  0  0  0  0
   -0.5393    3.2718    0.5706 H   0  0  0  0  0  0  0  0  0  0  0  0
   -2.3007    3.0404   -1.9436 H   0  0  0  0  0  0  0  0  0  0  0  0
   -1.4186    4.4753   -1.3949 H   0  0  0  0  0  0  0  0  0  0  0  0
   -0.5342    3.0668   -2.0075 H   0  0  0  0  0  0  0  0  0  0  0  0
   -5.6583   -1.2023    0.0140 H   0  0  0  0  0  0  0  0  0  0  0  0
    5.9397    2.7152    0.5197 H   0  0  0  0  0  0  0  0  0  0  0  0
    5.4243    3.2996   -1.0569 H   0  0  0  0  0  0  0  0  0  0  0  0
    6.4154    5.1219    0.3296 H   0  0  0  0  0  0  0  0  0  0  0  0
    4.7411    5.4602   -0.1007 H   0  0  0  0  0  0  0  0  0  0  0  0
    5.7687    4.4196    2.5825 H   0  0  0  0  0  0  0  0  0  0  0  0
    5.0807    6.0087    2.2579 H   0  0  0  0  0  0  0  0  0  0  0  0
    3.4451    4.4624    3.3548 H   0  0  0  0  0  0  0  0  0  0  0  0
    2.8838    5.0367    1.7872 H   0  0  0  0  0  0  0  0  0  0  0  0
    2.4587    2.6349    2.0223 H   0  0  0  0  0  0  0  0  0  0  0  0
    4.1488    2.3092    2.3683 H   0  0  0  0  0  0  0  0  0  0  0  0
  1  2  2  0  0  0  0
  1 11  1  0  0  0  0
  2  3  1  0  0  0  0
  2 12  1  0  0  0  0
  3  4  2  0  0  0  0
  3 26  1  0  0  0  0
  4  5  1  0  0  0  0
  4  7  1  0  0  0  0
  5  6  2  0  0  0  0
  6  1  1  0  0  0  0
  6 14  1  0  0  0  0
  7  8  1  0  0  0  0
  7 16  1  0  0  0  0
  8  9  2  0  0  0  0
  8 27  1  0  0  0  0
  9 10  1  0  0  0  0
  9 18  1  0  0  0  0
 10  5  1  0  0  0  0
 10 15  2  0  0  0  0
 12 13  1  0  0  0  0
 12 28  1  0  0  0  0
 13 21  1  0  0  0  0
 13 29  1  0  0  0  0
 14 30  1  0  0  0  0
 14 31  1  0  0  0  0
 16 17  1  0  0  0  0
 16 32  1  0  0  0  0
 16 33  1  0  0  0  0
 17 34  1  0  0  0  0
 17 35  1  0  0  0  0
 17 36  1  0  0  0  0
 18 19  2  0  0  0  0
 18 20  1  0  0  0  0
 20 37  1  0  0  0  0
 21 22  1  0  0  0  0
 21 38  1  0  0  0  0
 21 39  1  0  0  0  0
 22 23  1  0  0  0  0
 22 40  1  0  0  0  0
 22 41  1  0  0  0  0
 23 24  1  0  0  0  0
 23 42  1  0  0  0  0
 23 43  1  0  0  0  0
 24 25  1  0  0  0  0
 24 44  1  0  0  0  0
 24 45  1  0  0  0  0
 25 13  1  0  0  0  0
 25 46  1  0  0  0  0
 25 47  1  0  0  0  0
M  END
>  <Mol_ID>
3928

>  <Formula>
C18H22FN3O3

>  <MolWeight>
347.3839832

>  <Cat>
S8222

>  <Name>
AS1842856

>  <Synonyms>
N/A

>  <Target>
Autophagy,FOX

>  <Form>
free base

>  <CAS>
836620-48-5

>  <URL>
http://selleckchem.com/products/as1842856.html

$$$$
