AS252424.cdx
 OpenBabel08302521423D

 29 31  0  0  0  0  0  0  0  0999 V2000
    0.9620    0.4316    0.3183 C   0  0  0  0  0  0  0  0  0  0  0  0
    0.3197   -0.0296    1.4578 C   0  0  0  0  0  0  0  0  0  0  0  0
   -0.8411   -0.7898    1.3253 C   0  0  0  0  0  0  0  0  0  0  0  0
   -1.3845   -1.0792    0.0594 C   0  0  0  0  0  0  0  0  0  0  0  0
   -0.6928   -0.6237   -1.0762 C   0  0  0  0  0  0  0  0  0  0  0  0
    0.4755    0.1318   -0.9476 C   0  0  0  0  0  0  0  0  0  0  0  0
    2.0635    1.1834    0.4378 F   0  0  0  0  0  0  0  0  0  0  0  0
   -1.4191   -1.1973    2.4986 O   0  0  0  0  0  0  0  0  0  0  0  0
   -3.0488   -2.5966    0.8807 O   0  0  0  0  0  0  0  0  0  0  0  0
   -2.6659   -1.7547   -0.1159 C   0  0  0  0  0  0  0  0  0  0  0  0
   -3.6466   -1.7175   -1.0797 C   0  0  0  0  0  0  0  0  0  0  0  0
   -4.6854   -2.5633   -0.6240 C   0  0  0  0  0  0  0  0  0  0  0  0
   -4.2909   -3.1162    0.5883 C   0  0  0  0  0  0  0  0  0  0  0  0
   -4.9914   -4.0508    1.4028 C   0  0  0  0  0  0  0  0  0  0  0  0
   -4.5308   -4.5514    2.5571 C   0  0  0  0  0  0  0  0  0  0  0  0
   -3.0671   -4.2090    3.4061 S   0  0  0  0  0  0  0  0  0  0  0  0
   -3.4227   -5.3585    4.6685 C   0  0  0  0  0  0  0  0  0  0  0  0
   -4.6204   -5.9483    4.4278 N   0  0  0  0  0  0  0  0  0  0  0  0
   -5.2987   -5.5849    3.3048 C   0  0  0  0  0  0  0  0  0  0  0  0
   -6.3714   -6.0529    2.9592 O   0  0  0  0  0  0  0  0  0  0  0  0
   -2.6926   -5.5900    5.6183 O   0  0  0  0  0  0  0  0  0  0  0  0
    0.7128    0.2127    2.4394 H   0  0  0  0  0  0  0  0  0  0  0  0
   -1.0621   -0.8448   -2.0753 H   0  0  0  0  0  0  0  0  0  0  0  0
    0.9973    0.4996   -1.8250 H   0  0  0  0  0  0  0  0  0  0  0  0
   -2.1163   -1.8465    2.2776 H   0  0  0  0  0  0  0  0  0  0  0  0
   -3.6313   -1.1235   -1.9832 H   0  0  0  0  0  0  0  0  0  0  0  0
   -5.6249   -2.7538   -1.1258 H   0  0  0  0  0  0  0  0  0  0  0  0
   -5.9581   -4.3883    1.0346 H   0  0  0  0  0  0  0  0  0  0  0  0
   -4.9709   -6.6548    5.0496 H   0  0  0  0  0  0  0  0  0  0  0  0
  1  2  2  0  0  0  0
  1  7  1  0  0  0  0
  2  3  1  0  0  0  0
  2 22  1  0  0  0  0
  3  4  2  0  0  0  0
  3  8  1  0  0  0  0
  4  5  1  0  0  0  0
  5  6  2  0  0  0  0
  5 23  1  0  0  0  0
  6  1  1  0  0  0  0
  6 24  1  0  0  0  0
  8 25  1  0  0  0  0
  9 10  1  0  0  0  0
 10 11  2  0  0  0  0
 10  4  1  0  0  0  0
 11 12  1  0  0  0  0
 11 26  1  0  0  0  0
 12 13  2  0  0  0  0
 12 27  1  0  0  0  0
 13  9  1  0  0  0  0
 13 14  1  0  0  0  0
 14 15  2  0  0  0  0
 14 28  1  0  0  0  0
 15 16  1  0  0  0  0
 16 17  1  0  0  0  0
 17 18  1  0  0  0  0
 17 21  2  0  0  0  0
 18 19  1  0  0  0  0
 18 29  1  0  0  0  0
 19 15  1  0  0  0  0
 19 20  2  0  0  0  0
M  END
>  <Mol_ID>
833

>  <Formula>
C14H8FNO4S

>  <MolWeight>
305.2810232

>  <Cat>
S2671

>  <Name>
AS-252424

>  <Synonyms>
N/A

>  <Target>
PI3K

>  <Form>
free base

>  <CAS>
900515-16-4

>  <URL>
http://selleckchem.com/products/as-252424.html

$$$$
