AS2863619
 OpenBabel08302521233D

 37 41  0  0  0  0  0  0  0  0999 V2000
    0.0642    1.0248   -0.0349 O   0  0  0  0  0  0  0  0  0  0  0  0
    1.0304   -3.1759    1.0123 N   0  0  0  0  0  0  0  0  0  0  0  0
   -0.2894   -3.4819   -0.7801 N   0  0  0  0  0  0  0  0  0  0  0  0
    4.4406   -2.6486    4.5771 N   0  0  0  0  0  0  0  0  0  0  0  0
    3.3103   -1.0305    5.5789 N   0  0  0  0  0  0  0  0  0  0  0  0
    1.0061   -6.9501   -0.6869 N   0  0  0  0  0  0  0  0  0  0  0  0
    0.7418   -0.1570    0.2388 N   0  0  0  0  0  0  0  0  0  0  0  0
   -1.2221    0.7757   -0.4933 N   0  0  0  0  0  0  0  0  0  0  0  0
   -2.4474   -1.2132   -0.8859 N   0  0  0  0  0  0  0  0  0  0  0  0
    1.5572   -2.5774    2.2033 C   0  0  0  0  0  0  0  0  0  0  0  0
    1.1736   -4.5117    0.6312 C   0  0  0  0  0  0  0  0  0  0  0  0
    0.1903   -2.5871    0.0654 C   0  0  0  0  0  0  0  0  0  0  0  0
    3.2828   -2.3982    3.8867 C   0  0  0  0  0  0  0  0  0  0  0  0
    2.7997   -2.9896    2.7093 C   0  0  0  0  0  0  0  0  0  0  0  0
    0.3747   -4.6473   -0.5040 C   0  0  0  0  0  0  0  0  0  0  0  0
    2.5455   -1.3957    4.5016 C   0  0  0  0  0  0  0  0  0  0  0  0
    0.8250   -1.5831    2.8772 C   0  0  0  0  0  0  0  0  0  0  0  0
    1.3160   -0.9499    4.0256 C   0  0  0  0  0  0  0  0  0  0  0  0
    1.8307   -5.6268    1.1726 C   0  0  0  0  0  0  0  0  0  0  0  0
   -0.1159   -1.1270   -0.0878 C   0  0  0  0  0  0  0  0  0  0  0  0
    4.4333   -1.8144    5.5956 C   0  0  0  0  0  0  0  0  0  0  0  0
    0.3247   -5.8798   -1.1678 C   0  0  0  0  0  0  0  0  0  0  0  0
    1.7122   -6.8089    0.4540 C   0  0  0  0  0  0  0  0  0  0  0  0
   -1.3268   -0.5503   -0.5448 C   0  0  0  0  0  0  0  0  0  0  0  0
    5.4726   -1.6816    6.6418 C   0  0  0  0  0  0  0  0  0  0  0  0
    3.0810   -0.3066    6.2461 H   0  0  0  0  0  0  0  0  0  0  0  0
   -3.3166   -0.7120   -1.0251 H   0  0  0  0  0  0  0  0  0  0  0  0
   -2.5122   -2.2259   -0.8326 H   0  0  0  0  0  0  0  0  0  0  0  0
    3.4373   -3.7108    2.2144 H   0  0  0  0  0  0  0  0  0  0  0  0
   -0.1617   -1.2729    2.5399 H   0  0  0  0  0  0  0  0  0  0  0  0
    0.7566   -0.1606    4.5161 H   0  0  0  0  0  0  0  0  0  0  0  0
    2.3892   -5.6061    2.0993 H   0  0  0  0  0  0  0  0  0  0  0  0
   -0.2502   -6.0332   -2.0719 H   0  0  0  0  0  0  0  0  0  0  0  0
    2.2038   -7.7152    0.8017 H   0  0  0  0  0  0  0  0  0  0  0  0
    5.9245   -0.6857    6.6067 H   0  0  0  0  0  0  0  0  0  0  0  0
    5.0430   -1.8369    7.6362 H   0  0  0  0  0  0  0  0  0  0  0  0
    6.2646   -2.4220    6.4928 H   0  0  0  0  0  0  0  0  0  0  0  0
  1  7  1  0  0  0  0
  1  8  1  0  0  0  0
  2 10  1  0  0  0  0
  2 11  1  0  0  0  0
  2 12  1  0  0  0  0
  3 12  2  0  0  0  0
  3 15  1  0  0  0  0
  4 13  1  0  0  0  0
  4 21  2  0  0  0  0
  5 16  1  0  0  0  0
  5 26  1  0  0  0  0
  6 22  2  0  0  0  0
  6 23  1  0  0  0  0
  7 20  2  0  0  0  0
  8 24  2  0  0  0  0
  9 24  1  0  0  0  0
  9 27  1  0  0  0  0
  9 28  1  0  0  0  0
 10 14  1  0  0  0  0
 10 17  2  0  0  0  0
 11 15  2  0  0  0  0
 11 19  1  0  0  0  0
 12 20  1  0  0  0  0
 13 14  2  0  0  0  0
 13 16  1  0  0  0  0
 14 29  1  0  0  0  0
 15 22  1  0  0  0  0
 16 18  2  0  0  0  0
 17 18  1  0  0  0  0
 17 30  1  0  0  0  0
 18 31  1  0  0  0  0
 19 23  2  0  0  0  0
 19 32  1  0  0  0  0
 20 24  1  0  0  0  0
 21 25  1  0  0  0  0
 21  5  1  0  0  0  0
 22 33  1  0  0  0  0
 23 34  1  0  0  0  0
 25 35  1  0  0  0  0
 25 36  1  0  0  0  0
 25 37  1  0  0  0  0
M  END
>  <Mol_ID>
4900

>  <Formula>
C16H14Cl2N8O

>  <MolWeight>
405.24136

>  <Cat>
S8903

>  <Name>
AS2863619

>  <Synonyms>
N/A

>  <Target>
CDK

>  <Form>
Free Base

>  <CAS>
2241300-51-4

>  <URL>
http://www.selleckchem.com/products/as2863619.html

$$$$
