AS604850.cdx
 OpenBabel08302521423D

 24 26  0  0  0  0  0  0  0  0999 V2000
   -0.1293   -0.8030   -0.0080 C   0  0  0  0  0  0  0  0  0  0  0  0
   -0.4000    0.5468   -0.0164 C   0  0  0  0  0  0  0  0  0  0  0  0
    0.6071    1.4875   -0.0143 C   0  0  0  0  0  0  0  0  0  0  0  0
    1.9284    1.0259    0.0047 C   0  0  0  0  0  0  0  0  0  0  0  0
    2.2100   -0.3568    0.0210 C   0  0  0  0  0  0  0  0  0  0  0  0
    1.1626   -1.2877    0.0091 C   0  0  0  0  0  0  0  0  0  0  0  0
   -1.2590   -1.5604   -0.0120 O   0  0  0  0  0  0  0  0  0  0  0  0
   -2.2529   -0.5261    0.0018 C   0  0  0  0  0  0  0  0  0  0  0  0
   -1.7333    0.8109   -0.0231 O   0  0  0  0  0  0  0  0  0  0  0  0
   -3.0662   -0.6937   -1.0696 F   0  0  0  0  0  0  0  0  0  0  0  0
   -3.0100   -0.6732    1.1173 F   0  0  0  0  0  0  0  0  0  0  0  0
    3.5983   -0.8230    0.0706 C   0  0  0  0  0  0  0  0  0  0  0  0
    4.3600   -1.1135   -0.9916 C   0  0  0  0  0  0  0  0  0  0  0  0
    3.9444   -1.0169   -2.6614 S   0  0  0  0  0  0  0  0  0  0  0  0
    5.5193   -1.5965   -3.1677 C   0  0  0  0  0  0  0  0  0  0  0  0
    6.2934   -1.8356   -2.0784 N   0  0  0  0  0  0  0  0  0  0  0  0
    5.7581   -1.5981   -0.8476 C   0  0  0  0  0  0  0  0  0  0  0  0
    6.3440   -1.7615    0.2101 O   0  0  0  0  0  0  0  0  0  0  0  0
    5.8542   -1.7543   -4.3291 O   0  0  0  0  0  0  0  0  0  0  0  0
    0.3833    2.5489   -0.0228 H   0  0  0  0  0  0  0  0  0  0  0  0
    2.7405    1.7508    0.0114 H   0  0  0  0  0  0  0  0  0  0  0  0
    1.3488   -2.3564    0.0202 H   0  0  0  0  0  0  0  0  0  0  0  0
    4.0021   -0.9391    1.0756 H   0  0  0  0  0  0  0  0  0  0  0  0
    7.2365   -2.1718   -2.1808 H   0  0  0  0  0  0  0  0  0  0  0  0
  1  2  1  0  0  0  0
  1  7  1  0  0  0  0
  2  3  2  0  0  0  0
  3  4  1  0  0  0  0
  3 20  1  0  0  0  0
  4  5  2  0  0  0  0
  4 21  1  0  0  0  0
  5  6  1  0  0  0  0
  5 12  1  0  0  0  0
  6  1  2  0  0  0  0
  6 22  1  0  0  0  0
  7  8  1  0  0  0  0
  8  9  1  0  0  0  0
  8 10  1  0  0  0  0
  8 11  1  0  0  0  0
  9  2  1  0  0  0  0
 12 13  2  0  0  0  0
 12 23  1  0  0  0  0
 13 14  1  0  0  0  0
 14 15  1  0  0  0  0
 15 16  1  0  0  0  0
 15 19  2  0  0  0  0
 16 17  1  0  0  0  0
 16 24  1  0  0  0  0
 17 13  1  0  0  0  0
 17 18  2  0  0  0  0
M  END
>  <Mol_ID>
834

>  <Formula>
C11H5F2NO4S

>  <MolWeight>
285.2235064

>  <Cat>
S2681

>  <Name>
AS-604850

>  <Synonyms>
N/A

>  <Target>
PI3K

>  <Form>
free base

>  <CAS>
648449-76-7

>  <URL>
http://selleckchem.com/products/as-604850.html

$$$$
