Asaraldehyde.cdx
 OpenBabel08302521393D

 26 26  0  0  0  0  0  0  0  0999 V2000
    1.3945   -0.2252   -0.0456 C   0  0  0  0  0  0  0  0  0  0  0  0
    0.5416   -1.3375   -0.0422 C   0  0  0  0  0  0  0  0  0  0  0  0
   -0.8526   -1.1371    0.0145 C   0  0  0  0  0  0  0  0  0  0  0  0
   -1.4170    0.1404    0.0690 C   0  0  0  0  0  0  0  0  0  0  0  0
   -0.5501    1.2391    0.1258 C   0  0  0  0  0  0  0  0  0  0  0  0
    0.8356    1.0547    0.0909 C   0  0  0  0  0  0  0  0  0  0  0  0
    2.7423   -0.4067   -0.1949 O   0  0  0  0  0  0  0  0  0  0  0  0
    0.8597   -2.6610   -0.1914 O   0  0  0  0  0  0  0  0  0  0  0  0
    2.1421   -3.1356    0.1902 C   0  0  0  0  0  0  0  0  0  0  0  0
    3.4723    0.6746   -0.7749 C   0  0  0  0  0  0  0  0  0  0  0  0
   -2.7576    0.4057    0.0611 O   0  0  0  0  0  0  0  0  0  0  0  0
   -3.6469   -0.6994   -0.0527 C   0  0  0  0  0  0  0  0  0  0  0  0
   -1.0823    2.6203    0.1676 C   0  0  0  0  0  0  0  0  0  0  0  0
   -0.3382    3.5964    0.1688 O   0  0  0  0  0  0  0  0  0  0  0  0
   -1.4786   -2.0255   -0.0072 H   0  0  0  0  0  0  0  0  0  0  0  0
    1.4720    1.9382    0.1457 H   0  0  0  0  0  0  0  0  0  0  0  0
    2.9651   -2.6250   -0.3089 H   0  0  0  0  0  0  0  0  0  0  0  0
    2.2570   -3.1233    1.2785 H   0  0  0  0  0  0  0  0  0  0  0  0
    2.2015   -4.1804   -0.1355 H   0  0  0  0  0  0  0  0  0  0  0  0
    2.8923    1.2340   -1.5185 H   0  0  0  0  0  0  0  0  0  0  0  0
    3.8360    1.3411    0.0131 H   0  0  0  0  0  0  0  0  0  0  0  0
    4.3381    0.2550   -1.2958 H   0  0  0  0  0  0  0  0  0  0  0  0
   -3.4349   -1.3011   -0.9426 H   0  0  0  0  0  0  0  0  0  0  0  0
   -3.6186   -1.3091    0.8557 H   0  0  0  0  0  0  0  0  0  0  0  0
   -4.6607   -0.3016   -0.1609 H   0  0  0  0  0  0  0  0  0  0  0  0
   -2.1758    2.7444    0.1888 H   0  0  0  0  0  0  0  0  0  0  0  0
  1  2  2  0  0  0  0
  1  7  1  0  0  0  0
  2  3  1  0  0  0  0
  2  8  1  0  0  0  0
  3  4  2  0  0  0  0
  3 15  1  0  0  0  0
  4  5  1  0  0  0  0
  4 11  1  0  0  0  0
  5  6  2  0  0  0  0
  5 13  1  0  0  0  0
  6  1  1  0  0  0  0
  6 16  1  0  0  0  0
  7 10  1  0  0  0  0
  8  9  1  0  0  0  0
  9 17  1  0  0  0  0
  9 18  1  0  0  0  0
  9 19  1  0  0  0  0
 10 20  1  0  0  0  0
 10 21  1  0  0  0  0
 10 22  1  0  0  0  0
 11 12  1  0  0  0  0
 12 23  1  0  0  0  0
 12 24  1  0  0  0  0
 12 25  1  0  0  0  0
 13 14  2  0  0  0  0
 13 26  1  0  0  0  0
M  END
>  <Mol_ID>
787

>  <Formula>
C10H12O4

>  <MolWeight>
196.19988

>  <Cat>
S2531

>  <Name>
Asaraldehyde

>  <Synonyms>
Asaronaldehyde

>  <Target>
COX

>  <Form>
free base

>  <CAS>
4460-86-0

>  <URL>
http://selleckchem.com/products/Asaraldehyde-Asaronaldehyde.html

$$$$
