Asatone
 OpenBabel08302522052D

 64 66  0  0  0  0  0  0  0  0999 V2000
    6.3697    1.9247    0.0000 C   0  0  0  0  0  0  0  0  0  0  0  0
    7.6627    1.3881    0.0000 C   0  0  0  0  0  0  0  0  0  0  0  0
    7.8446    0.0000    0.0000 C   0  0  0  0  0  0  0  0  0  0  0  0
    5.5985    1.8324    0.0000 O   0  0  0  0  0  0  0  0  0  0  0  0
    5.0952    0.5260    0.0000 C   0  0  0  0  0  0  0  0  0  0  0  0
    6.4310    7.1165    0.0000 O   0  0  0  0  0  0  0  0  0  0  0  0
    7.7466    7.5955    0.0000 C   0  0  0  0  0  0  0  0  0  0  0  0
    4.8725    6.2167    0.0000 O   0  0  0  0  0  0  0  0  0  0  0  0
    4.6293    7.5955    0.0000 C   0  0  0  0  0  0  0  0  0  0  0  0
    2.2675    3.4206    0.0000 O   0  0  0  0  0  0  0  0  0  0  0  0
    9.6880    4.5254    0.0000 O   0  0  0  0  0  0  0  0  0  0  0  0
   10.3880    3.3130    0.0000 C   0  0  0  0  0  0  0  0  0  0  0  0
    1.7742    5.3265    0.0000 O   0  0  0  0  0  0  0  0  0  0  0  0
    1.1999    6.6034    0.0000 C   0  0  0  0  0  0  0  0  0  0  0  0
    3.8168    6.4257    0.0000 O   0  0  0  0  0  0  0  0  0  0  0  0
    3.0676    7.6085    0.0000 C   0  0  0  0  0  0  0  0  0  0  0  0
    2.1099    2.8664    0.0000 C   0  0  0  0  0  0  0  0  0  0  0  0
    1.4000    1.6597    0.0000 C   0  0  0  0  0  0  0  0  0  0  0  0
    0.0000    1.6712    0.0000 C   0  0  0  0  0  0  0  0  0  0  0  0
    8.2880    6.9503    0.0000 O   0  0  0  0  0  0  0  0  0  0  0  0
    6.1880    3.3130    0.0000 C   0  0  2  0  0  0  0  0  0  0  0  0
    5.4880    4.5254    0.0000 C   0  0  2  0  0  0  0  0  0  0  0  0
    4.7187    2.9214    0.0000 C   0  0  2  0  0  0  0  0  0  0  0  0
    7.5880    3.3130    0.0000 C   0  0  0  0  0  0  0  0  0  0  0  0
    4.1372    4.0494    0.0000 C   0  0  2  0  0  0  0  0  0  0  0  0
    6.1880    5.7377    0.0000 C   0  0  0  0  0  0  0  0  0  0  0  0
    3.4688    4.1398    0.0000 C   0  0  0  0  0  0  0  0  0  0  0  0
    4.0936    1.6978    0.0000 C   0  0  0  0  0  0  0  0  0  0  0  0
    8.2880    4.5254    0.0000 C   0  0  0  0  0  0  0  0  0  0  0  0
    3.1672    5.1856    0.0000 C   0  0  0  0  0  0  0  0  0  0  0  0
    3.5099    2.8549    0.0000 C   0  0  0  0  0  0  0  0  0  0  0  0
    7.5880    5.7377    0.0000 C   0  0  0  0  0  0  0  0  0  0  0  0
    5.5203    1.2739    0.0000 H   0  0  0  0  0  0  0  0  0  0  0  0
    5.3815    2.3349    0.0000 H   0  0  0  0  0  0  0  0  0  0  0  0
    8.4818    2.0158    0.0000 H   0  0  0  0  0  0  0  0  0  0  0  0
    7.0255   -0.6278    0.0000 H   0  0  0  0  0  0  0  0  0  0  0  0
    8.7978   -0.3955    0.0000 H   0  0  0  0  0  0  0  0  0  0  0  0
    4.0382    0.3599    0.0000 H   0  0  0  0  0  0  0  0  0  0  0  0
    5.7676   -0.3064    0.0000 H   0  0  0  0  0  0  0  0  0  0  0  0
    4.7105   -0.4725    0.0000 H   0  0  0  0  0  0  0  0  0  0  0  0
    8.5663    6.9078    0.0000 H   0  0  0  0  0  0  0  0  0  0  0  0
    7.9323    8.6493    0.0000 H   0  0  0  0  0  0  0  0  0  0  0  0
    8.7520    7.9616    0.0000 H   0  0  0  0  0  0  0  0  0  0  0  0
    5.4489    8.2833    0.0000 H   0  0  0  0  0  0  0  0  0  0  0  0
    3.6238    7.9614    0.0000 H   0  0  0  0  0  0  0  0  0  0  0  0
    4.4434    8.6492    0.0000 H   0  0  0  0  0  0  0  0  0  0  0  0
    9.8530    2.3863    0.0000 H   0  0  0  0  0  0  0  0  0  0  0  0
   11.4580    3.3130    0.0000 H   0  0  0  0  0  0  0  0  0  0  0  0
   10.9230    2.3864    0.0000 H   0  0  0  0  0  0  0  0  0  0  0  0
    1.8256    7.4714    0.0000 H   0  0  0  0  0  0  0  0  0  0  0  0
    0.1353    6.7112    0.0000 H   0  0  0  0  0  0  0  0  0  0  0  0
    0.7610    7.5792    0.0000 H   0  0  0  0  0  0  0  0  0  0  0  0
    3.5641    8.5563    0.0000 H   0  0  0  0  0  0  0  0  0  0  0  0
    1.9985    7.5646    0.0000 H   0  0  0  0  0  0  0  0  0  0  0  0
    2.4950    8.5124    0.0000 H   0  0  0  0  0  0  0  0  0  0  0  0
    1.5825    3.7974    0.0000 H   0  0  0  0  0  0  0  0  0  0  0  0
    2.6525    3.7886    0.0000 H   0  0  0  0  0  0  0  0  0  0  0  0
    1.9087    0.7618    0.0000 H   0  0  0  0  0  0  0  0  0  0  0  0
   -0.5086    2.5691    0.0000 H   0  0  0  0  0  0  0  0  0  0  0  0
   -0.5233    0.7817    0.0000 H   0  0  0  0  0  0  0  0  0  0  0  0
    6.5580    4.5254    0.0000 H   0  0  0  0  0  0  0  0  0  0  0  0
    8.1040    2.4193    0.0000 H   0  0  0  0  0  0  0  0  0  0  0  0
    4.8371    3.2401    0.0000 H   0  0  0  0  0  0  0  0  0  0  0  0
    4.0910    0.6658    0.0000 H   0  0  0  0  0  0  0  0  0  0  0  0
  1  2  1  0  0  0  0
  1 33  1  0  0  0  0
  1 34  1  0  0  0  0
  2  3  2  0  0  0  0
  2 35  1  0  0  0  0
  3 36  1  0  0  0  0
  3 37  1  0  0  0  0
  4  5  1  0  0  0  0
  5 38  1  0  0  0  0
  5 39  1  0  0  0  0
  5 40  1  0  0  0  0
  6  7  1  0  0  0  0
  6 26  1  0  0  0  0
  7 41  1  0  0  0  0
  7 42  1  0  0  0  0
  7 43  1  0  0  0  0
  8  9  1  0  0  0  0
  8 26  1  0  0  0  0
  9 44  1  0  0  0  0
  9 45  1  0  0  0  0
  9 46  1  0  0  0  0
 10 27  2  0  0  0  0
 11 12  1  0  0  0  0
 11 29  1  0  0  0  0
 12 47  1  0  0  0  0
 12 48  1  0  0  0  0
 12 49  1  0  0  0  0
 13 14  1  0  0  0  0
 13 30  1  0  0  0  0
 14 50  1  0  0  0  0
 14 51  1  0  0  0  0
 14 52  1  0  0  0  0
 15 16  1  0  0  0  0
 15 30  1  0  0  0  0
 16 53  1  0  0  0  0
 16 54  1  0  0  0  0
 16 55  1  0  0  0  0
 17 18  1  0  0  0  0
 17 31  1  0  0  0  0
 17 56  1  0  0  0  0
 17 57  1  0  0  0  0
 18 19  2  0  0  0  0
 18 58  1  0  0  0  0
 19 59  1  0  0  0  0
 19 60  1  0  0  0  0
 20 32  2  0  0  0  0
 21  1  1  1  0  0  0
 21 22  1  0  0  0  0
 21 23  1  0  0  0  0
 21 24  1  0  0  0  0
 22 25  1  0  0  0  0
 22 26  1  0  0  0  0
 22 61  1  1  0  0  0
 23  4  1  1  0  0  0
 23 27  1  0  0  0  0
 23 28  1  0  0  0  0
 24 29  2  0  0  0  0
 24 62  1  0  0  0  0
 25 30  1  0  0  0  0
 25 31  1  0  0  0  0
 25 63  1  6  0  0  0
 26 32  1  0  0  0  0
 27 30  1  0  0  0  0
 28 31  2  0  0  0  0
 28 64  1  0  0  0  0
 29 32  1  0  0  0  0
M  END
>  <Mol_ID>
10035

>  <Formula>
C24H32O8

>  <MolWeight>
448.50608

>  <Cat>
E5579

>  <Name>
Asatone

>  <Synonyms>
N/A

>  <Target>
NF-¦ÊB, p38 MAPK, ERK, JNK

>  <Form>
free base

>  <CAS>
38451-63-7

>  <URL>
https://www.selleckchem.com/products/asatone.html

$$$$
