Asciminib(ABL001).cdx
 OpenBabel08302520433D

 49 52  0  0  0  0  0  0  0  0999 V2000
   -0.6528    1.3697   -0.0328 C   0  0  0  0  0  0  0  0  0  0  0  0
    0.7534    1.3493   -0.2157 C   0  0  0  0  0  0  0  0  0  0  0  0
    1.4225    0.1189   -0.3401 C   0  0  0  0  0  0  0  0  0  0  0  0
    0.7414   -1.0748   -0.1482 C   0  0  0  0  0  0  0  0  0  0  0  0
   -0.6226   -0.9766    0.0879 C   0  0  0  0  0  0  0  0  0  0  0  0
   -1.3177    0.2017    0.1329 N   0  0  0  0  0  0  0  0  0  0  0  0
   -1.3658    2.5622    0.0253 N   0  0  0  0  0  0  0  0  0  0  0  0
    1.5951    2.5396   -0.1010 C   0  0  0  0  0  0  0  0  0  0  0  0
    1.4289   -2.4080   -0.1469 C   0  0  0  0  0  0  0  0  0  0  0  0
    0.7427   -3.3967   -0.3611 O   0  0  0  0  0  0  0  0  0  0  0  0
    2.7953   -2.3761    0.1242 N   0  0  0  0  0  0  0  0  0  0  0  0
    3.6816   -3.4699    0.2251 C   0  0  0  0  0  0  0  0  0  0  0  0
    3.3266   -4.7987   -0.0050 C   0  0  0  0  0  0  0  0  0  0  0  0
    4.2485   -5.8369    0.2049 C   0  0  0  0  0  0  0  0  0  0  0  0
    5.5491   -5.5568    0.6214 C   0  0  0  0  0  0  0  0  0  0  0  0
    5.9196   -4.2246    0.8185 C   0  0  0  0  0  0  0  0  0  0  0  0
    4.9996   -3.1896    0.6116 C   0  0  0  0  0  0  0  0  0  0  0  0
    6.5258   -6.4680    0.8954 O   0  0  0  0  0  0  0  0  0  0  0  0
    6.3503   -7.7688    0.3624 C   0  0  0  0  0  0  0  0  0  0  0  0
    7.5454   -8.4034    0.4524 F   0  0  0  0  0  0  0  0  0  0  0  0
    5.4858   -8.4573    1.1432 F   0  0  0  0  0  0  0  0  0  0  0  0
   -1.1837    3.5923   -1.0115 C   0  0  0  0  0  0  0  0  0  0  0  0
   -2.1155    4.6969   -0.5055 C   0  0  1  0  0  0  0  0  0  0  0  0
   -3.3435    3.9011   -0.0947 C   0  0  0  0  0  0  0  0  0  0  0  0
   -2.7741    2.5727    0.4497 C   0  0  0  0  0  0  0  0  0  0  0  0
    2.6077    2.8597   -0.9664 N   0  0  0  0  0  0  0  0  0  0  0  0
    3.2411    4.0032   -0.6625 N   0  0  0  0  0  0  0  0  0  0  0  0
    2.6069    4.4323    0.4344 C   0  0  0  0  0  0  0  0  0  0  0  0
    1.5979    3.5504    0.8414 C   0  0  0  0  0  0  0  0  0  0  0  0
   -1.5568    5.3395    0.6462 O   0  0  0  0  0  0  0  0  0  0  0  0
    2.4885    0.1213   -0.5388 H   0  0  0  0  0  0  0  0  0  0  0  0
   -1.2247   -1.8679    0.2696 H   0  0  0  0  0  0  0  0  0  0  0  0
    3.1998   -1.4912    0.3975 H   0  0  0  0  0  0  0  0  0  0  0  0
    2.3228   -5.0668   -0.3240 H   0  0  0  0  0  0  0  0  0  0  0  0
    3.8971   -6.8578    0.0651 H   0  0  0  0  0  0  0  0  0  0  0  0
    6.9311   -3.9911    1.1456 H   0  0  0  0  0  0  0  0  0  0  0  0
    5.3338   -2.1687    0.7827 H   0  0  0  0  0  0  0  0  0  0  0  0
    6.0265   -7.7777   -0.6833 H   0  0  0  0  0  0  0  0  0  0  0  0
   -1.5128    3.2161   -1.9873 H   0  0  0  0  0  0  0  0  0  0  0  0
   -0.1711    3.9792   -1.0995 H   0  0  0  0  0  0  0  0  0  0  0  0
   -2.3184    5.4629   -1.2579 H   0  0  0  0  0  0  0  0  0  0  0  0
   -3.9562    4.4161    0.6519 H   0  0  0  0  0  0  0  0  0  0  0  0
   -3.9624    3.7014   -0.9773 H   0  0  0  0  0  0  0  0  0  0  0  0
   -3.3605    1.7377    0.0523 H   0  0  0  0  0  0  0  0  0  0  0  0
   -2.8288    2.5608    1.5443 H   0  0  0  0  0  0  0  0  0  0  0  0
    2.9131    2.3526   -1.7912 H   0  0  0  0  0  0  0  0  0  0  0  0
    2.9043    5.3661    0.8874 H   0  0  0  0  0  0  0  0  0  0  0  0
    0.9299    3.6420    1.6864 H   0  0  0  0  0  0  0  0  0  0  0  0
   -1.2094    4.6177    1.2055 H   0  0  0  0  0  0  0  0  0  0  0  0
  1  2  1  0  0  0  0
  1  7  1  0  0  0  0
  2  3  2  0  0  0  0
  2  8  1  0  0  0  0
  3  4  1  0  0  0  0
  3 31  1  0  0  0  0
  4  5  2  0  0  0  0
  4  9  1  0  0  0  0
  5  6  1  0  0  0  0
  5 32  1  0  0  0  0
  6  1  2  0  0  0  0
  7 22  1  0  0  0  0
  8 26  1  0  0  0  0
  9 10  2  0  0  0  0
  9 11  1  0  0  0  0
 11 12  1  0  0  0  0
 11 33  1  0  0  0  0
 12 13  2  0  0  0  0
 13 14  1  0  0  0  0
 13 34  1  0  0  0  0
 14 15  2  0  0  0  0
 14 35  1  0  0  0  0
 15 16  1  0  0  0  0
 15 18  1  0  0  0  0
 16 17  2  0  0  0  0
 16 36  1  0  0  0  0
 17 12  1  0  0  0  0
 17 37  1  0  0  0  0
 18 19  1  0  0  0  0
 19 20  1  0  0  0  0
 19 21  1  0  0  0  0
 19 38  1  0  0  0  0
 22 23  1  0  0  0  0
 22 39  1  0  0  0  0
 22 40  1  0  0  0  0
 23 24  1  0  0  0  0
 23 30  1  0  0  0  0
 23 41  1  6  0  0  0
 24 25  1  0  0  0  0
 24 42  1  0  0  0  0
 24 43  1  0  0  0  0
 25  7  1  0  0  0  0
 25 44  1  0  0  0  0
 25 45  1  0  0  0  0
 26 27  1  0  0  0  0
 26 46  1  0  0  0  0
 27 28  2  0  0  0  0
 28 29  1  0  0  0  0
 28 47  1  0  0  0  0
 29  8  2  0  0  0  0
 29 48  1  0  0  0  0
 30 49  1  0  0  0  0
M  END
>  <Mol_ID>
4205

>  <Formula>
C20H18ClF2N5O3

>  <MolWeight>
449.8384264

>  <Cat>
S8555

>  <Name>
Asciminib (ABL001)

>  <Synonyms>
N/A

>  <Target>
Bcr-Abl

>  <Form>
free base

>  <CAS>
1492952-76-7

>  <URL>
http://selleckchem.com/products/asciminib-abl001.html

$$$$
