Ascorbic acid.cdx
 OpenBabel08302521593D

 20 20  0  0  0  0  0  0  0  0999 V2000
    2.4242   -0.4129    0.1068 O   0  0  0  0  0  0  0  0  0  0  0  0
    1.1258    0.0067    0.0387 C   0  0  0  0  0  0  0  0  0  0  0  0
    0.8134    1.4604   -0.0102 C   0  0  1  0  0  0  0  0  0  0  0  0
    1.2649    2.2122   -1.2790 C   0  0  1  0  0  0  0  0  0  0  0  0
    0.8447    3.5914   -1.1874 O   0  0  0  0  0  0  0  0  0  0  0  0
    2.7778    2.2149   -1.5072 C   0  0  0  0  0  0  0  0  0  0  0  0
   -0.6341    1.4835    0.0010 O   0  0  0  0  0  0  0  0  0  0  0  0
   -1.1194    0.2067   -0.0090 C   0  0  0  0  0  0  0  0  0  0  0  0
   -2.2998   -0.0921   -0.0506 O   0  0  0  0  0  0  0  0  0  0  0  0
    0.0191   -0.7347    0.0342 C   0  0  0  0  0  0  0  0  0  0  0  0
   -0.1125   -2.0918    0.0764 O   0  0  0  0  0  0  0  0  0  0  0  0
    3.4531    2.8575   -0.4283 O   0  0  0  0  0  0  0  0  0  0  0  0
    2.4863   -1.3800    0.1229 H   0  0  0  0  0  0  0  0  0  0  0  0
    1.1442    1.9772    0.8976 H   0  0  0  0  0  0  0  0  0  0  0  0
    0.7658    1.7962   -2.1622 H   0  0  0  0  0  0  0  0  0  0  0  0
   -0.1099    3.5752   -0.9792 H   0  0  0  0  0  0  0  0  0  0  0  0
    3.1816    1.2068   -1.6270 H   0  0  0  0  0  0  0  0  0  0  0  0
    3.0211    2.7765   -2.4155 H   0  0  0  0  0  0  0  0  0  0  0  0
    0.7557   -2.5071    0.1710 H   0  0  0  0  0  0  0  0  0  0  0  0
    3.0985    3.7676   -0.4087 H   0  0  0  0  0  0  0  0  0  0  0  0
  1  2  1  0  0  0  0
  1 13  1  0  0  0  0
  2  3  1  0  0  0  0
  2 10  2  0  0  0  0
  3  7  1  0  0  0  0
  3 14  1  1  0  0  0
  3  4  1  0  0  0  0
  4  5  1  0  0  0  0
  4  6  1  0  0  0  0
  4 15  1  6  0  0  0
  5 16  1  0  0  0  0
  6 12  1  0  0  0  0
  6 17  1  0  0  0  0
  6 18  1  0  0  0  0
  7  8  1  0  0  0  0
  8  9  2  0  0  0  0
  8 10  1  0  0  0  0
 10 11  1  0  0  0  0
 11 19  1  0  0  0  0
 12 20  1  0  0  0  0
M  END
>  <Mol_ID>
1011

>  <Formula>
C6H8O6

>  <MolWeight>
176.12412

>  <Cat>
S3114

>  <Name>
Vitamin C

>  <Synonyms>
L-Ascorbic acid

>  <Target>
Vitamin

>  <Form>
free base

>  <CAS>
50-81-7

>  <URL>
http://selleckchem.com/products/vitamin-c-ascorbic-acid.html

$$$$
