Asenapine maleate.cdx
 OpenBabel08302522043D

 48 50  0  0  0  0  0  0  0  0999 V2000
    9.0686    3.2045    0.9920 C   0  0  0  0  0  0  0  0  0  0  0  0
    9.5738    2.1904    0.1908 C   0  0  0  0  0  0  0  0  0  0  0  0
   10.0203    2.5230   -1.2226 C   0  0  2  0  0  0  0  0  0  0  0  0
   11.3789    3.2137   -1.0997 C   0  0  1  0  0  0  0  0  0  0  0  0
   11.5053    4.3972   -0.1373 C   0  0  0  0  0  0  0  0  0  0  0  0
   10.2936    5.0718    0.1728 C   0  0  0  0  0  0  0  0  0  0  0  0
    9.0887    4.5109    0.5757 O   0  0  0  0  0  0  0  0  0  0  0  0
    8.4663    2.8942    2.2172 C   0  0  0  0  0  0  0  0  0  0  0  0
    8.4966    1.5852    2.7139 C   0  0  0  0  0  0  0  0  0  0  0  0
    9.1805    0.5985    2.0170 C   0  0  0  0  0  0  0  0  0  0  0  0
    9.7225    0.9017    0.7736 C   0  0  0  0  0  0  0  0  0  0  0  0
   12.6659    5.1688   -0.3729 C   0  0  0  0  0  0  0  0  0  0  0  0
   12.5225    6.5131   -0.7237 C   0  0  0  0  0  0  0  0  0  0  0  0
   11.2716    7.1240   -0.6678 C   0  0  0  0  0  0  0  0  0  0  0  0
   10.1840    6.4296   -0.1416 C   0  0  0  0  0  0  0  0  0  0  0  0
   10.1914    2.2340   -2.7360 C   0  0  0  0  0  0  0  0  0  0  0  0
   11.5834    1.6378   -2.8155 N   0  0  0  0  0  0  0  0  0  0  0  0
   12.3082    2.0914   -1.5589 C   0  0  0  0  0  0  0  0  0  0  0  0
   11.4718    0.1798   -2.9109 C   0  0  0  0  0  0  0  0  0  0  0  0
  -32.1390   -1.6817    2.2628 C   0  0  0  0  0  0  0  0  0  0  0  0
  -31.7532   -1.0593    3.2311 O   0  0  0  0  0  0  0  0  0  0  0  0
  -32.8119   -2.8491    2.3656 O   0  0  0  0  0  0  0  0  0  0  0  0
  -31.8792   -1.3826    0.8579 C   0  0  0  0  0  0  0  0  0  0  0  0
  -31.9267   -0.1507    0.3283 C   0  0  0  0  0  0  0  0  0  0  0  0
  -32.3968    1.0495    1.0504 C   0  0  0  0  0  0  0  0  0  0  0  0
  -33.2661    1.0481    1.9002 O   0  0  0  0  0  0  0  0  0  0  0  0
  -31.8244    2.1692    0.5699 O   0  0  0  0  0  0  0  0  0  0  0  0
   10.0118    1.4355   -1.2523 H   0  0  0  0  0  0  0  0  0  0  0  0
   11.4614    3.8825   -1.9790 H   0  0  0  0  0  0  0  0  0  0  0  0
    7.9686    3.6683    2.7951 H   0  0  0  0  0  0  0  0  0  0  0  0
    8.0108    1.3369    3.6535 H   0  0  0  0  0  0  0  0  0  0  0  0
    9.2727   -0.4080    2.4157 H   0  0  0  0  0  0  0  0  0  0  0  0
   10.2530    0.1112    0.2427 H   0  0  0  0  0  0  0  0  0  0  0  0
   13.6184    4.6832   -0.5764 H   0  0  0  0  0  0  0  0  0  0  0  0
   13.3681    7.0543   -1.1415 H   0  0  0  0  0  0  0  0  0  0  0  0
   11.1368    8.1325   -1.0503 H   0  0  0  0  0  0  0  0  0  0  0  0
    9.2170    6.9212   -0.0652 H   0  0  0  0  0  0  0  0  0  0  0  0
    9.3989    1.6230   -3.1843 H   0  0  0  0  0  0  0  0  0  0  0  0
   10.1861    3.1694   -3.3147 H   0  0  0  0  0  0  0  0  0  0  0  0
   12.3743    1.2976   -0.8036 H   0  0  0  0  0  0  0  0  0  0  0  0
   13.3185    2.4336   -1.7986 H   0  0  0  0  0  0  0  0  0  0  0  0
   10.7084   -0.2426   -2.2459 H   0  0  0  0  0  0  0  0  0  0  0  0
   12.4216   -0.3156   -2.6920 H   0  0  0  0  0  0  0  0  0  0  0  0
   11.1881   -0.0852   -3.9345 H   0  0  0  0  0  0  0  0  0  0  0  0
  -32.9361   -2.9593    3.3307 H   0  0  0  0  0  0  0  0  0  0  0  0
  -31.6116   -2.2290    0.2517 H   0  0  0  0  0  0  0  0  0  0  0  0
  -31.6798   -0.0146   -0.7168 H   0  0  0  0  0  0  0  0  0  0  0  0
  -31.1137    2.0300   -0.0795 H   0  0  0  0  0  0  0  0  0  0  0  0
  1  2  2  0  0  0  0
  1  8  1  0  0  0  0
  2  3  1  0  0  0  0
  3  4  1  0  0  0  0
  3 16  1  0  0  0  0
  3 28  1  1  0  0  0
  4  5  1  0  0  0  0
  4 18  1  0  0  0  0
  4 29  1  6  0  0  0
  5  6  2  0  0  0  0
  5 12  1  0  0  0  0
  6  7  1  0  0  0  0
  7  1  1  0  0  0  0
  8  9  2  0  0  0  0
  8 30  1  0  0  0  0
  9 10  1  0  0  0  0
  9 31  1  0  0  0  0
 10 11  2  0  0  0  0
 10 32  1  0  0  0  0
 11  2  1  0  0  0  0
 11 33  1  0  0  0  0
 12 13  2  0  0  0  0
 12 34  1  0  0  0  0
 13 14  1  0  0  0  0
 13 35  1  0  0  0  0
 14 15  2  0  0  0  0
 14 36  1  0  0  0  0
 15  6  1  0  0  0  0
 15 37  1  0  0  0  0
 16 17  1  0  0  0  0
 16 38  1  0  0  0  0
 16 39  1  0  0  0  0
 17 18  1  0  0  0  0
 17 19  1  0  0  0  0
 18 40  1  0  0  0  0
 18 41  1  0  0  0  0
 19 42  1  0  0  0  0
 19 43  1  0  0  0  0
 19 44  1  0  0  0  0
 20 23  1  0  0  0  0
 20 21  2  0  0  0  0
 20 22  1  0  0  0  0
 22 45  1  0  0  0  0
 23 24  2  0  0  0  0
 23 46  1  0  0  0  0
 24 25  1  0  0  0  0
 24 47  1  0  0  0  0
 25 26  2  0  0  0  0
 25 27  1  0  0  0  0
 27 48  1  0  0  0  0
M  END
>  <Mol_ID>
154

>  <Formula>
C21H20ClNO5

>  <MolWeight>
401.8402

>  <Cat>
S1283

>  <Name>
Asenapine maleate

>  <Synonyms>
Org 5222

>  <Target>
5-HT Receptor,Adrenergic Receptor

>  <Form>
Maleate

>  <CAS>
85650-56-2

>  <URL>
http://selleckchem.com/products/Asenapine.html

$$$$
