Asimadoline hydrochloride
 OpenBabel08302521313D

 61 64  0  0  0  0  0  0  0  0999 V2000
    0.8036    5.5598   -2.6777 C   0  0  0  0  0  0  0  0  0  0  0  0
    0.0585    4.6259   -3.6881 C   0  0  0  0  0  0  0  0  0  0  0  0
   -0.6958    3.5061   -3.2713 N   0  0  0  0  0  0  0  0  0  0  0  0
    0.1218    4.8721   -4.9024 O   0  0  0  0  0  0  0  0  0  0  0  0
   -1.0794    3.1276   -1.8672 C   0  0  2  0  0  0  0  0  0  0  0  0
   -1.2342    2.6753   -4.3542 C   0  0  0  0  0  0  0  0  0  0  0  0
    0.1168    2.4861   -1.0678 C   0  0  0  0  0  0  0  0  0  0  0  0
    4.1922    0.9999   -0.6897 O   0  0  0  0  0  0  0  0  0  0  0  0
   -0.0000    6.8293   -2.3625 C   0  0  0  0  0  0  0  0  0  0  0  0
   -0.6674    6.9536   -1.1320 C   0  0  0  0  0  0  0  0  0  0  0  0
    0.0113    7.9355   -3.2288 C   0  0  0  0  0  0  0  0  0  0  0  0
   -1.2431    8.1670   -0.7499 C   0  0  0  0  0  0  0  0  0  0  0  0
   -0.5460    9.1547   -2.8340 C   0  0  0  0  0  0  0  0  0  0  0  0
   -1.1576    9.2747   -1.5885 C   0  0  0  0  0  0  0  0  0  0  0  0
    2.2878    5.9286   -3.0124 C   0  0  0  0  0  0  0  0  0  0  0  0
    2.8572    5.8611   -4.2951 C   0  0  0  0  0  0  0  0  0  0  0  0
    3.1021    6.4649   -1.9883 C   0  0  0  0  0  0  0  0  0  0  0  0
    4.1759    6.2882   -4.5360 C   0  0  0  0  0  0  0  0  0  0  0  0
    4.4202    6.8914   -2.2296 C   0  0  0  0  0  0  0  0  0  0  0  0
    4.9585    6.8015   -3.5052 C   0  0  0  0  0  0  0  0  0  0  0  0
   -2.4190    2.3606   -1.7397 C   0  0  0  0  0  0  0  0  0  0  0  0
   -2.5417    1.1221   -1.0798 C   0  0  0  0  0  0  0  0  0  0  0  0
   -3.5869    2.8885   -2.3176 C   0  0  0  0  0  0  0  0  0  0  0  0
   -3.7519    0.4182   -1.0479 C   0  0  0  0  0  0  0  0  0  0  0  0
   -4.7938    2.1838   -2.2997 C   0  0  0  0  0  0  0  0  0  0  0  0
   -4.8767    0.9384   -1.6761 C   0  0  0  0  0  0  0  0  0  0  0  0
    0.6276    1.1254   -1.3797 N   0  0  0  0  0  0  0  0  0  0  0  0
    1.2429    0.9709   -2.7065 C   0  0  0  0  0  0  0  0  0  0  0  0
    1.7599    0.8004   -0.4815 C   0  0  0  0  0  0  0  0  0  0  0  0
    2.7140    1.3621   -2.5922 C   0  0  0  0  0  0  0  0  0  0  0  0
    2.9512    1.5352   -1.0992 C   0  0  2  0  0  0  0  0  0  0  0  0
    0.8960    5.0122   -1.7411 H   0  0  0  0  0  0  0  0  0  0  0  0
   -1.2707    4.0812   -1.3595 H   0  0  0  0  0  0  0  0  0  0  0  0
   -2.1557    3.1289   -4.7299 H   0  0  0  0  0  0  0  0  0  0  0  0
   -0.5193    2.6102   -5.1823 H   0  0  0  0  0  0  0  0  0  0  0  0
   -1.4277    1.6528   -4.0120 H   0  0  0  0  0  0  0  0  0  0  0  0
    0.9466    3.1892   -1.0918 H   0  0  0  0  0  0  0  0  0  0  0  0
   -0.2060    2.4635   -0.0158 H   0  0  0  0  0  0  0  0  0  0  0  0
    4.7593    1.7555   -0.4551 H   0  0  0  0  0  0  0  0  0  0  0  0
   -0.7123    6.1213   -0.4353 H   0  0  0  0  0  0  0  0  0  0  0  0
    0.5042    7.8728   -4.1980 H   0  0  0  0  0  0  0  0  0  0  0  0
   -1.7340    8.2557    0.2159 H   0  0  0  0  0  0  0  0  0  0  0  0
   -0.4779   10.0187   -3.4902 H   0  0  0  0  0  0  0  0  0  0  0  0
   -1.5601   10.2324   -1.2691 H   0  0  0  0  0  0  0  0  0  0  0  0
    2.2907    5.5114   -5.1528 H   0  0  0  0  0  0  0  0  0  0  0  0
    2.7000    6.6014   -0.9870 H   0  0  0  0  0  0  0  0  0  0  0  0
    4.5791    6.2382   -5.5464 H   0  0  0  0  0  0  0  0  0  0  0  0
    5.0105    7.3211   -1.4233 H   0  0  0  0  0  0  0  0  0  0  0  0
    5.9740    7.1421   -3.7074 H   0  0  0  0  0  0  0  0  0  0  0  0
   -1.6951    0.6525   -0.5878 H   0  0  0  0  0  0  0  0  0  0  0  0
   -3.5612    3.8564   -2.8180 H   0  0  0  0  0  0  0  0  0  0  0  0
   -3.8049   -0.5471   -0.5489 H   0  0  0  0  0  0  0  0  0  0  0  0
   -5.6725    2.5862   -2.8012 H   0  0  0  0  0  0  0  0  0  0  0  0
   -5.8059    0.3817   -1.6815 H   0  0  0  0  0  0  0  0  0  0  0  0
    1.1757   -0.0900   -2.9837 H   0  0  0  0  0  0  0  0  0  0  0  0
    0.7586    1.5048   -3.5150 H   0  0  0  0  0  0  0  0  0  0  0  0
    1.9344   -0.2840   -0.4835 H   0  0  0  0  0  0  0  0  0  0  0  0
    1.5865    1.0812    0.5632 H   0  0  0  0  0  0  0  0  0  0  0  0
    2.9029    2.3046   -3.1193 H   0  0  0  0  0  0  0  0  0  0  0  0
    3.3571    0.5940   -3.0311 H   0  0  0  0  0  0  0  0  0  0  0  0
    2.9297    2.5993   -0.8365 H   0  0  0  0  0  0  0  0  0  0  0  0
  1  2  1  0  0  0  0
  1  9  1  0  0  0  0
  1 15  1  0  0  0  0
  1 32  1  0  0  0  0
  2  3  1  0  0  0  0
  2  4  2  0  0  0  0
  3  6  1  0  0  0  0
  5 21  1  0  0  0  0
  5 33  1  1  0  0  0
  5  7  1  0  0  0  0
  5  3  1  0  0  0  0
  6 34  1  0  0  0  0
  6 35  1  0  0  0  0
  6 36  1  0  0  0  0
  7 27  1  0  0  0  0
  7 37  1  0  0  0  0
  7 38  1  0  0  0  0
  8 39  1  0  0  0  0
  9 10  2  0  0  0  0
  9 11  1  0  0  0  0
 10 12  1  0  0  0  0
 10 40  1  0  0  0  0
 11 13  2  0  0  0  0
 11 41  1  0  0  0  0
 12 14  2  0  0  0  0
 12 42  1  0  0  0  0
 13 14  1  0  0  0  0
 13 43  1  0  0  0  0
 14 44  1  0  0  0  0
 15 16  2  0  0  0  0
 15 17  1  0  0  0  0
 16 18  1  0  0  0  0
 16 45  1  0  0  0  0
 17 19  2  0  0  0  0
 17 46  1  0  0  0  0
 18 20  2  0  0  0  0
 18 47  1  0  0  0  0
 19 20  1  0  0  0  0
 19 48  1  0  0  0  0
 20 49  1  0  0  0  0
 21 22  2  0  0  0  0
 21 23  1  0  0  0  0
 22 24  1  0  0  0  0
 22 50  1  0  0  0  0
 23 25  2  0  0  0  0
 23 51  1  0  0  0  0
 24 26  2  0  0  0  0
 24 52  1  0  0  0  0
 25 26  1  0  0  0  0
 25 53  1  0  0  0  0
 26 54  1  0  0  0  0
 27 28  1  0  0  0  0
 27 29  1  0  0  0  0
 28 30  1  0  0  0  0
 28 55  1  0  0  0  0
 28 56  1  0  0  0  0
 29 31  1  0  0  0  0
 29 57  1  0  0  0  0
 29 58  1  0  0  0  0
 30 31  1  0  0  0  0
 30 59  1  0  0  0  0
 30 60  1  0  0  0  0
 31  8  1  0  0  0  0
 31 61  1  1  0  0  0
M  END
>  <Mol_ID>
6094

>  <Formula>
C27H31ClN2O2

>  <MolWeight>
451.00024

>  <Cat>
S0009

>  <Name>
Asimadoline hydrochloride

>  <Synonyms>
EMD-61753 hydrochloride

>  <Target>
Opioid Receptor

>  <Form>
hydrochloride

>  <CAS>
185951-07-9

>  <URL>
http://www.selleckchem.com/products/asimadoline.html

$$$$
