ASK1-IN-2
 OpenBabel08302521353D

 44 47  0  0  0  0  0  0  0  0999 V2000
    4.9837   -1.4145   -0.2468 N   0  0  0  0  0  0  0  0  0  0  0  0
    5.2571   -0.0627   -0.1815 C   0  0  0  0  0  0  0  0  0  0  0  0
    6.6336    0.0589   -0.2614 C   0  0  0  0  0  0  0  0  0  0  0  0
    7.1988   -1.2498   -0.2082 C   0  0  0  0  0  0  0  0  0  0  0  0
    8.5154   -1.7493   -0.1584 C   0  0  0  0  0  0  0  0  0  0  0  0
    8.7178   -3.1284   -0.0161 C   0  0  0  0  0  0  0  0  0  0  0  0
    7.6346   -3.9930    0.0549 C   0  0  0  0  0  0  0  0  0  0  0  0
    6.3216   -3.5350   -0.0301 C   0  0  0  0  0  0  0  0  0  0  0  0
    6.1367   -2.1533   -0.1593 C   0  0  0  0  0  0  0  0  0  0  0  0
    4.1878    0.8928   -0.0218 C   0  0  0  0  0  0  0  0  0  0  0  0
    3.0234    0.5107    0.0841 O   0  0  0  0  0  0  0  0  0  0  0  0
    4.5632    2.2185   -0.0195 N   0  0  0  0  0  0  0  0  0  0  0  0
    3.6538    3.2698    0.1248 C   0  0  0  0  0  0  0  0  0  0  0  0
    2.5879    3.1980    1.0153 C   0  0  0  0  0  0  0  0  0  0  0  0
    1.6776    4.2468    1.0549 C   0  0  0  0  0  0  0  0  0  0  0  0
    1.8447    5.3129    0.1822 C   0  0  0  0  0  0  0  0  0  0  0  0
    2.9576    5.3259   -0.6533 C   0  0  0  0  0  0  0  0  0  0  0  0
    3.8910    4.3410   -0.6563 N   0  0  0  0  0  0  0  0  0  0  0  0
    2.5987    7.9471   -3.1056 N   0  0  0  0  0  0  0  0  0  0  0  0
    2.1138    7.1126   -2.1343 N   0  0  0  0  0  0  0  0  0  0  0  0
    3.1103    6.3816   -1.6552 C   0  0  0  0  0  0  0  0  0  0  0  0
    4.2687    6.7892   -2.2844 N   0  0  0  0  0  0  0  0  0  0  0  0
    3.8876    7.7305   -3.1924 C   0  0  0  0  0  0  0  0  0  0  0  0
    5.6323    6.3379   -2.0463 C   0  0  0  0  0  0  0  0  0  0  0  0
    6.0299    5.2466   -3.0396 C   0  0  0  0  0  0  0  0  0  0  0  0
    6.6530    7.4818   -2.0586 C   0  0  0  0  0  0  0  0  0  0  0  0
    7.8543   -5.3051    0.2239 F   0  0  0  0  0  0  0  0  0  0  0  0
    4.0435   -1.7932   -0.2532 H   0  0  0  0  0  0  0  0  0  0  0  0
    7.1956    0.9825   -0.2616 H   0  0  0  0  0  0  0  0  0  0  0  0
    9.3649   -1.0739   -0.1989 H   0  0  0  0  0  0  0  0  0  0  0  0
    9.7248   -3.5296    0.0515 H   0  0  0  0  0  0  0  0  0  0  0  0
    5.4879   -4.2265    0.0255 H   0  0  0  0  0  0  0  0  0  0  0  0
    5.4138    2.4623   -0.5060 H   0  0  0  0  0  0  0  0  0  0  0  0
    2.4568    2.3475    1.6773 H   0  0  0  0  0  0  0  0  0  0  0  0
    0.8295    4.2168    1.7330 H   0  0  0  0  0  0  0  0  0  0  0  0
    1.1108    6.1129    0.1417 H   0  0  0  0  0  0  0  0  0  0  0  0
    4.5605    8.2316   -3.8772 H   0  0  0  0  0  0  0  0  0  0  0  0
    5.6646    5.9277   -1.0323 H   0  0  0  0  0  0  0  0  0  0  0  0
    6.0710    5.6345   -4.0632 H   0  0  0  0  0  0  0  0  0  0  0  0
    7.0153    4.8386   -2.7912 H   0  0  0  0  0  0  0  0  0  0  0  0
    5.3136    4.4181   -3.0316 H   0  0  0  0  0  0  0  0  0  0  0  0
    6.3870    8.2476   -1.3217 H   0  0  0  0  0  0  0  0  0  0  0  0
    7.6520    7.1077   -1.8089 H   0  0  0  0  0  0  0  0  0  0  0  0
    6.7181    7.9659   -3.0385 H   0  0  0  0  0  0  0  0  0  0  0  0
  1  2  1  0  0  0  0
  1  9  1  0  0  0  0
  1 28  1  0  0  0  0
  2  3  2  0  0  0  0
  2 10  1  0  0  0  0
  3  4  1  0  0  0  0
  3 29  1  0  0  0  0
  4  5  1  0  0  0  0
  4  9  2  0  0  0  0
  5  6  2  0  0  0  0
  5 30  1  0  0  0  0
  6  7  1  0  0  0  0
  6 31  1  0  0  0  0
  7  8  2  0  0  0  0
  7 27  1  0  0  0  0
  8  9  1  0  0  0  0
  8 32  1  0  0  0  0
 10 11  2  0  0  0  0
 10 12  1  0  0  0  0
 12 13  1  0  0  0  0
 12 33  1  0  0  0  0
 13 14  2  0  0  0  0
 13 18  1  0  0  0  0
 14 15  1  0  0  0  0
 14 34  1  0  0  0  0
 15 16  2  0  0  0  0
 15 35  1  0  0  0  0
 16 17  1  0  0  0  0
 16 36  1  0  0  0  0
 17 18  2  0  0  0  0
 17 21  1  0  0  0  0
 19 20  1  0  0  0  0
 19 23  2  0  0  0  0
 20 21  2  0  0  0  0
 21 22  1  0  0  0  0
 22 23  1  0  0  0  0
 22 24  1  0  0  0  0
 23 37  1  0  0  0  0
 24 25  1  0  0  0  0
 24 26  1  0  0  0  0
 24 38  1  0  0  0  0
 25 39  1  0  0  0  0
 25 40  1  0  0  0  0
 25 41  1  0  0  0  0
 26 42  1  0  0  0  0
 26 43  1  0  0  0  0
 26 44  1  0  0  0  0
M  END
>  <Mol_ID>
6845

>  <Formula>
C19H17FN6O

>  <MolWeight>
364.3762832

>  <Cat>
E2379

>  <Name>
ASK1-IN-2

>  <Target>
ASK

>  <Form>
Free base

>  <CAS>
2541792-70-3

>  <URL>
http://www.selleckchem.com/products/ask1-in-2.html

$$$$
