ASN007
 OpenBabel08302521353D

 58 61  0  0  0  0  0  0  0  0999 V2000
   -2.0769  -15.0255   -3.0049 C   0  0  0  0  0  0  0  0  0  0  0  0
   -4.4748   -9.1580   -2.8957 C   0  0  0  0  0  0  0  0  0  0  0  0
   -4.5448   -8.7605   -1.5817 N   0  0  0  0  0  0  0  0  0  0  0  0
   -5.0435   -8.5660   -3.8127 O   0  0  0  0  0  0  0  0  0  0  0  0
   -5.4015   -7.6702   -1.1481 C   0  0  2  0  0  0  0  0  0  0  0  0
   -4.7535   -6.8691    0.0169 C   0  0  0  0  0  0  0  0  0  0  0  0
   -4.5326   -7.6342    1.2554 N   0  0  0  0  0  0  0  0  0  0  0  0
   -2.5216  -13.6888   -8.4381 N   0  0  0  0  0  0  0  0  0  0  0  0
   -8.5965  -10.9017    0.7514 F   0  0  0  0  0  0  0  0  0  0  0  0
   -2.8277  -12.2066   -4.0069 N   0  0  0  0  0  0  0  0  0  0  0  0
   -3.6855  -11.1565   -4.2521 C   0  0  0  0  0  0  0  0  0  0  0  0
   -2.2449  -11.9230   -2.7912 C   0  0  0  0  0  0  0  0  0  0  0  0
   -3.6730  -10.3628   -3.1195 C   0  0  0  0  0  0  0  0  0  0  0  0
   -2.7769  -10.8743   -2.1997 N   0  0  0  0  0  0  0  0  0  0  0  0
   -2.5652  -13.3018   -4.8866 C   0  0  0  0  0  0  0  0  0  0  0  0
   -2.7356  -13.0456   -6.2139 N   0  0  0  0  0  0  0  0  0  0  0  0
   -2.1537  -14.5421   -4.4175 C   0  0  0  0  0  0  0  0  0  0  0  0
   -2.4124  -14.0052   -7.0932 C   0  0  0  0  0  0  0  0  0  0  0  0
   -1.8523  -15.4504   -5.4153 C   0  0  0  0  0  0  0  0  0  0  0  0
   -1.9605  -15.2085   -6.7307 N   0  0  0  0  0  0  0  0  0  0  0  0
   -1.6320  -14.3843   -9.3732 C   0  0  0  0  0  0  0  0  0  0  0  0
   -0.1616  -14.0078   -9.1498 C   0  0  0  0  0  0  0  0  0  0  0  0
   -2.0418  -14.0317  -10.8115 C   0  0  0  0  0  0  0  0  0  0  0  0
    0.7132  -14.6089  -10.2395 C   0  0  0  0  0  0  0  0  0  0  0  0
   -1.0547  -14.6215  -11.8103 C   0  0  0  0  0  0  0  0  0  0  0  0
    0.2729  -14.1830  -11.5274 O   0  0  0  0  0  0  0  0  0  0  0  0
   -6.8144   -8.1325   -0.8036 C   0  0  0  0  0  0  0  0  0  0  0  0
   -7.9062   -7.2836   -1.0721 C   0  0  0  0  0  0  0  0  0  0  0  0
   -7.0685   -9.3653   -0.1836 C   0  0  0  0  0  0  0  0  0  0  0  0
   -9.2082   -7.6517   -0.7273 C   0  0  0  0  0  0  0  0  0  0  0  0
   -8.3723   -9.7238    0.1549 C   0  0  0  0  0  0  0  0  0  0  0  0
   -9.4425   -8.8773   -0.1079 C   0  0  0  0  0  0  0  0  0  0  0  0
   -2.5816  -15.9949   -2.9180 H   0  0  0  0  0  0  0  0  0  0  0  0
   -1.0319  -15.1479   -2.7027 H   0  0  0  0  0  0  0  0  0  0  0  0
   -2.5832  -14.3766   -2.2894 H   0  0  0  0  0  0  0  0  0  0  0  0
   -4.0727   -9.3275   -0.8836 H   0  0  0  0  0  0  0  0  0  0  0  0
   -5.4835   -6.9794   -1.9981 H   0  0  0  0  0  0  0  0  0  0  0  0
   -3.7788   -6.4947   -0.3164 H   0  0  0  0  0  0  0  0  0  0  0  0
   -5.3713   -5.9944    0.2545 H   0  0  0  0  0  0  0  0  0  0  0  0
   -4.0762   -7.0260    1.9363 H   0  0  0  0  0  0  0  0  0  0  0  0
   -5.4417   -7.8611    1.6632 H   0  0  0  0  0  0  0  0  0  0  0  0
   -2.5744  -12.6804   -8.5217 H   0  0  0  0  0  0  0  0  0  0  0  0
   -4.2724  -11.0950   -5.1594 H   0  0  0  0  0  0  0  0  0  0  0  0
   -1.4134  -12.4899   -2.3952 H   0  0  0  0  0  0  0  0  0  0  0  0
   -1.5126  -16.4562   -5.1771 H   0  0  0  0  0  0  0  0  0  0  0  0
   -1.7507  -15.4683   -9.2604 H   0  0  0  0  0  0  0  0  0  0  0  0
   -0.0596  -12.9149   -9.1645 H   0  0  0  0  0  0  0  0  0  0  0  0
    0.1918  -14.3530   -8.1726 H   0  0  0  0  0  0  0  0  0  0  0  0
   -3.0528  -14.3965  -11.0257 H   0  0  0  0  0  0  0  0  0  0  0  0
   -2.0597  -12.9399  -10.9273 H   0  0  0  0  0  0  0  0  0  0  0  0
    1.7477  -14.2742  -10.1133 H   0  0  0  0  0  0  0  0  0  0  0  0
    0.7144  -15.7045  -10.1970 H   0  0  0  0  0  0  0  0  0  0  0  0
   -1.0839  -15.7175  -11.8085 H   0  0  0  0  0  0  0  0  0  0  0  0
   -1.3032  -14.2892  -12.8235 H   0  0  0  0  0  0  0  0  0  0  0  0
   -7.7438   -6.3232   -1.5593 H   0  0  0  0  0  0  0  0  0  0  0  0
   -6.2648  -10.0572    0.0483 H   0  0  0  0  0  0  0  0  0  0  0  0
  -10.0393   -6.9856   -0.9419 H   0  0  0  0  0  0  0  0  0  0  0  0
  -10.4477   -9.1787    0.1691 H   0  0  0  0  0  0  0  0  0  0  0  0
  1 17  1  0  0  0  0
  1 33  1  0  0  0  0
  1 34  1  0  0  0  0
  1 35  1  0  0  0  0
  2  3  1  0  0  0  0
  2  4  2  0  0  0  0
  2 13  1  0  0  0  0
  3 36  1  0  0  0  0
  5 27  1  0  0  0  0
  5 37  1  6  0  0  0
  5  6  1  0  0  0  0
  5  3  1  0  0  0  0
  6  7  1  0  0  0  0
  6 38  1  0  0  0  0
  6 39  1  0  0  0  0
  7 40  1  0  0  0  0
  7 41  1  0  0  0  0
  8 18  1  0  0  0  0
  8 21  1  0  0  0  0
  8 42  1  0  0  0  0
  9 31  1  0  0  0  0
 10 11  1  0  0  0  0
 10 12  1  0  0  0  0
 10 15  1  0  0  0  0
 11 13  2  0  0  0  0
 11 43  1  0  0  0  0
 12 14  2  0  0  0  0
 12 44  1  0  0  0  0
 13 14  1  0  0  0  0
 15 16  2  0  0  0  0
 15 17  1  0  0  0  0
 16 18  1  0  0  0  0
 17 19  2  0  0  0  0
 18 20  2  0  0  0  0
 19 20  1  0  0  0  0
 19 45  1  0  0  0  0
 21 22  1  0  0  0  0
 21 23  1  0  0  0  0
 21 46  1  0  0  0  0
 22 24  1  0  0  0  0
 22 47  1  0  0  0  0
 22 48  1  0  0  0  0
 23 25  1  0  0  0  0
 23 49  1  0  0  0  0
 23 50  1  0  0  0  0
 24 26  1  0  0  0  0
 24 51  1  0  0  0  0
 24 52  1  0  0  0  0
 25 26  1  0  0  0  0
 25 53  1  0  0  0  0
 25 54  1  0  0  0  0
 27 28  2  0  0  0  0
 27 29  1  0  0  0  0
 28 30  1  0  0  0  0
 28 55  1  0  0  0  0
 29 31  2  0  0  0  0
 29 56  1  0  0  0  0
 30 32  2  0  0  0  0
 30 57  1  0  0  0  0
 31 32  1  0  0  0  0
 32 58  1  0  0  0  0
M  END
>  <Mol_ID>
6901

>  <Formula>
C22H25ClFN7O2

>  <MolWeight>
473.9310032

>  <Cat>
S9975

>  <Name>
ASN007

>  <Synonyms>
ERAS 007,ERK-IN-3

>  <Target>
ERK

>  <Form>
Free base

>  <CAS>
2055597-12-9

>  <URL>
https://www.selleckchem.com/products/asn007.html

$$$$
