ASP015K.cdx
 OpenBabel08302519593D

 46 50  0  0  0  0  0  0  0  0999 V2000
    2.1475   -1.4716    1.6000 C   0  0  0  0  0  0  0  0  0  0  0  0
    0.9017   -1.3874    0.9455 C   0  0  0  0  0  0  0  0  0  0  0  0
    0.1080   -2.5797    0.7575 C   0  0  0  0  0  0  0  0  0  0  0  0
    0.8760   -3.7333    1.0400 C   0  0  0  0  0  0  0  0  0  0  0  0
    2.0865   -3.6844    1.7550 C   0  0  0  0  0  0  0  0  0  0  0  0
    2.7342   -2.5636    2.1035 N   0  0  0  0  0  0  0  0  0  0  0  0
    2.7500   -0.2461    1.5925 N   0  0  0  0  0  0  0  0  0  0  0  0
    1.9868    0.6415    0.9071 C   0  0  0  0  0  0  0  0  0  0  0  0
    0.8079   -0.0138    0.5450 C   0  0  0  0  0  0  0  0  0  0  0  0
    0.7512   -4.9594    0.2261 C   0  0  0  0  0  0  0  0  0  0  0  0
    0.5937   -4.7202   -1.1236 N   0  0  0  0  0  0  0  0  0  0  0  0
    0.9595   -6.0721    0.6943 O   0  0  0  0  0  0  0  0  0  0  0  0
   -1.1697   -2.5564    0.1505 N   0  0  0  0  0  0  0  0  0  0  0  0
   -5.2960   -4.2324   -0.0186 C   0  0  2  0  0  0  0  0  0  0  0  0
   -5.8984   -2.8174   -0.0006 C   0  0  0  0  0  0  0  0  0  0  0  0
   -4.7664   -1.7900    0.1027 C   0  0  3  0  0  0  0  0  0  0  0  0
   -3.9869   -2.0450    1.4054 C   0  0  0  0  0  0  0  0  0  0  0  0
   -3.3026   -3.4251    1.3749 C   0  0  3  0  0  0  0  0  0  0  0  0
   -4.4557   -4.4760    1.2525 C   0  0  0  0  0  0  0  0  0  0  0  0
   -4.3432   -4.3887   -1.2152 C   0  0  0  0  0  0  0  0  0  0  0  0
   -2.3161   -3.5510    0.1701 C   0  0  1  0  0  0  0  0  0  0  0  0
   -3.1886   -3.3528   -1.1274 C   0  0  3  0  0  0  0  0  0  0  0  0
   -6.3466   -5.1859   -0.0970 O   0  0  0  0  0  0  0  0  0  0  0  0
   -3.8519   -1.9554   -1.1245 C   0  0  0  0  0  0  0  0  0  0  0  0
    2.6531   -4.5922    1.9528 H   0  0  0  0  0  0  0  0  0  0  0  0
    3.6959   -0.0812    1.9680 H   0  0  0  0  0  0  0  0  0  0  0  0
    2.3313    1.6488    0.7178 H   0  0  0  0  0  0  0  0  0  0  0  0
    0.0165    0.4406   -0.0302 H   0  0  0  0  0  0  0  0  0  0  0  0
   -0.2857   -4.2347   -1.2881 H   0  0  0  0  0  0  0  0  0  0  0  0
    1.2381   -3.9949   -1.4434 H   0  0  0  0  0  0  0  0  0  0  0  0
   -1.4933   -1.5910    0.0755 H   0  0  0  0  0  0  0  0  0  0  0  0
   -6.4957   -2.6396   -0.9054 H   0  0  0  0  0  0  0  0  0  0  0  0
   -6.6055   -2.7098    0.8337 H   0  0  0  0  0  0  0  0  0  0  0  0
   -5.1938   -0.7805    0.1166 H   0  0  0  0  0  0  0  0  0  0  0  0
   -3.2517   -1.2542    1.5763 H   0  0  0  0  0  0  0  0  0  0  0  0
   -4.6875   -2.0097    2.2527 H   0  0  0  0  0  0  0  0  0  0  0  0
   -2.7685   -3.5978    2.3161 H   0  0  0  0  0  0  0  0  0  0  0  0
   -5.1136   -4.4332    2.1324 H   0  0  0  0  0  0  0  0  0  0  0  0
   -4.0559   -5.4979    1.2395 H   0  0  0  0  0  0  0  0  0  0  0  0
   -3.9531   -5.4141   -1.2521 H   0  0  0  0  0  0  0  0  0  0  0  0
   -4.9070   -4.2589   -2.1502 H   0  0  0  0  0  0  0  0  0  0  0  0
   -1.9140   -4.5709    0.1617 H   0  0  0  0  0  0  0  0  0  0  0  0
   -2.5559   -3.4576   -2.0164 H   0  0  0  0  0  0  0  0  0  0  0  0
   -7.0403   -4.8409   -0.6899 H   0  0  0  0  0  0  0  0  0  0  0  0
   -3.1000   -1.1625   -1.1453 H   0  0  0  0  0  0  0  0  0  0  0  0
   -4.4465   -1.8346   -2.0401 H   0  0  0  0  0  0  0  0  0  0  0  0
  1  2  2  0  0  0  0
  1  7  1  0  0  0  0
  2  3  1  0  0  0  0
  3  4  2  0  0  0  0
  3 13  1  0  0  0  0
  4  5  1  0  0  0  0
  4 10  1  0  0  0  0
  5  6  2  0  0  0  0
  5 25  1  0  0  0  0
  6  1  1  0  0  0  0
  7  8  1  0  0  0  0
  7 26  1  0  0  0  0
  8  9  2  0  0  0  0
  8 27  1  0  0  0  0
  9  2  1  0  0  0  0
  9 28  1  0  0  0  0
 10 11  1  0  0  0  0
 10 12  2  0  0  0  0
 11 29  1  0  0  0  0
 11 30  1  0  0  0  0
 13 31  1  0  0  0  0
 14 15  1  0  0  0  0
 14 20  1  0  0  0  0
 14 23  1  6  0  0  0
 15 16  1  0  0  0  0
 15 32  1  0  0  0  0
 15 33  1  0  0  0  0
 16 17  1  0  0  0  0
 16 34  1  0  0  0  0
 17 18  1  0  0  0  0
 17 35  1  0  0  0  0
 17 36  1  0  0  0  0
 18 19  1  0  0  0  0
 18 21  1  0  0  0  0
 18 37  1  0  0  0  0
 19 14  1  0  0  0  0
 19 38  1  0  0  0  0
 19 39  1  0  0  0  0
 20 22  1  0  0  0  0
 20 40  1  0  0  0  0
 20 41  1  0  0  0  0
 21 13  1  0  0  0  0
 21 42  1  6  0  0  0
 22 21  1  0  0  0  0
 22 24  1  0  0  0  0
 22 43  1  0  0  0  0
 23 44  1  0  0  0  0
 24 16  1  0  0  0  0
 24 45  1  0  0  0  0
 24 46  1  0  0  0  0
M  END
>  <Mol_ID>
2618

>  <Formula>
C18H22N4O2

>  <MolWeight>
326.39288

>  <Cat>
S7650

>  <Name>
Peficitinib (ASP015K)

>  <Synonyms>
JNJ-54781532

>  <Target>
JAK

>  <Form>
free base

>  <CAS>
944118-01-8

>  <URL>
http://selleckchem.com/products/peficitinb-asp015k-jnj-54781532.html

$$$$
