ASP5878
 OpenBabel08302521223D

 48 50  0  0  0  0  0  0  0  0999 V2000
   -2.6080    2.2538    1.5679 F   0  0  0  0  0  0  0  0  0  0  0  0
    1.8907    3.4401    0.8738 F   0  0  0  0  0  0  0  0  0  0  0  0
   -0.6131    2.9574   -1.1666 O   0  0  0  0  0  0  0  0  0  0  0  0
    1.9514    4.9589    3.0468 O   0  0  0  0  0  0  0  0  0  0  0  0
   -2.6176    3.9128    3.9697 O   0  0  0  0  0  0  0  0  0  0  0  0
   -1.6131    4.4051  -10.9554 O   0  0  0  0  0  0  0  0  0  0  0  0
    0.3314    2.7003   -9.4923 N   0  0  0  0  0  0  0  0  0  0  0  0
    0.9227    1.5599   -6.2470 N   0  0  0  0  0  0  0  0  0  0  0  0
    0.2012    3.8932   -8.8745 N   0  0  0  0  0  0  0  0  0  0  0  0
    0.5077    0.9412   -4.0486 N   0  0  0  0  0  0  0  0  0  0  0  0
    0.2840    3.2138   -4.6516 N   0  0  0  0  0  0  0  0  0  0  0  0
   -0.3696    2.8474    1.1884 C   0  0  0  0  0  0  0  0  0  0  0  0
    0.0864    2.6311  -10.9219 C   0  0  0  0  0  0  0  0  0  0  0  0
   -0.3426    2.0607   -0.0875 C   0  0  0  0  0  0  0  0  0  0  0  0
    0.7076    2.2364   -7.3929 C   0  0  0  0  0  0  0  0  0  0  0  0
    0.6548    1.6774   -8.6472 C   0  0  0  0  0  0  0  0  0  0  0  0
   -1.5273    2.9437    1.9624 C   0  0  0  0  0  0  0  0  0  0  0  0
    0.7682    3.5430    1.6042 C   0  0  0  0  0  0  0  0  0  0  0  0
    0.7702    4.3318    2.7590 C   0  0  0  0  0  0  0  0  0  0  0  0
   -1.5570    3.7257    3.1236 C   0  0  0  0  0  0  0  0  0  0  0  0
   -1.3425    3.0415  -11.2747 C   0  0  0  0  0  0  0  0  0  0  0  0
   -0.4009    4.4185    3.5126 C   0  0  0  0  0  0  0  0  0  0  0  0
    0.4439    3.6070   -7.5924 C   0  0  0  0  0  0  0  0  0  0  0  0
   -0.2143    2.5467   -2.3974 C   0  0  0  0  0  0  0  0  0  0  0  0
    0.5795    1.9411   -4.9463 C   0  0  0  0  0  0  0  0  0  0  0  0
    0.0935    1.2676   -2.8035 C   0  0  0  0  0  0  0  0  0  0  0  0
   -0.1021    3.4886   -3.3893 C   0  0  0  0  0  0  0  0  0  0  0  0
    1.9709    5.8286    4.1717 C   0  0  0  0  0  0  0  0  0  0  0  0
   -3.8456    3.2810    3.6308 C   0  0  0  0  0  0  0  0  0  0  0  0
   -1.2295    4.5653  -10.0612 H   0  0  0  0  0  0  0  0  0  0  0  0
    1.0750    0.5598   -6.2453 H   0  0  0  0  0  0  0  0  0  0  0  0
    0.8160    3.3004  -11.3904 H   0  0  0  0  0  0  0  0  0  0  0  0
    0.2806    1.6048  -11.2492 H   0  0  0  0  0  0  0  0  0  0  0  0
    0.6457    1.5925   -0.1915 H   0  0  0  0  0  0  0  0  0  0  0  0
   -1.0977    1.2655   -0.0716 H   0  0  0  0  0  0  0  0  0  0  0  0
    0.7783    0.6629   -8.9962 H   0  0  0  0  0  0  0  0  0  0  0  0
   -1.4992    2.9314  -12.3522 H   0  0  0  0  0  0  0  0  0  0  0  0
   -2.0775    2.4158  -10.7582 H   0  0  0  0  0  0  0  0  0  0  0  0
   -0.4513    5.0195    4.4153 H   0  0  0  0  0  0  0  0  0  0  0  0
    0.4043    4.4051   -6.8634 H   0  0  0  0  0  0  0  0  0  0  0  0
    0.0087    0.4140   -2.1388 H   0  0  0  0  0  0  0  0  0  0  0  0
   -0.3306    4.5353   -3.1966 H   0  0  0  0  0  0  0  0  0  0  0  0
    1.2400    6.6367    4.0621 H   0  0  0  0  0  0  0  0  0  0  0  0
    1.8091    5.2715    5.1003 H   0  0  0  0  0  0  0  0  0  0  0  0
    2.9642    6.2845    4.2244 H   0  0  0  0  0  0  0  0  0  0  0  0
   -4.2067    3.6107    2.6515 H   0  0  0  0  0  0  0  0  0  0  0  0
   -3.7509    2.1916    3.6807 H   0  0  0  0  0  0  0  0  0  0  0  0
   -4.5900    3.5835    4.3738 H   0  0  0  0  0  0  0  0  0  0  0  0
  1 17  1  0  0  0  0
  2 18  1  0  0  0  0
  3 14  1  0  0  0  0
  3 24  1  0  0  0  0
  4 19  1  0  0  0  0
  4 28  1  0  0  0  0
  5 20  1  0  0  0  0
  5 29  1  0  0  0  0
  6 21  1  0  0  0  0
  6 30  1  0  0  0  0
  7  9  1  0  0  0  0
  7 13  1  0  0  0  0
  7 16  1  0  0  0  0
  8 15  1  0  0  0  0
  8 25  1  0  0  0  0
  8 31  1  0  0  0  0
  9 23  2  0  0  0  0
 10 25  2  0  0  0  0
 10 26  1  0  0  0  0
 11 25  1  0  0  0  0
 11 27  2  0  0  0  0
 12 14  1  0  0  0  0
 12 17  2  0  0  0  0
 12 18  1  0  0  0  0
 13 21  1  0  0  0  0
 13 32  1  0  0  0  0
 13 33  1  0  0  0  0
 14 34  1  0  0  0  0
 14 35  1  0  0  0  0
 15 16  2  0  0  0  0
 15 23  1  0  0  0  0
 16 36  1  0  0  0  0
 17 20  1  0  0  0  0
 18 19  2  0  0  0  0
 19 22  1  0  0  0  0
 20 22  2  0  0  0  0
 21 37  1  0  0  0  0
 21 38  1  0  0  0  0
 22 39  1  0  0  0  0
 23 40  1  0  0  0  0
 24 26  2  0  0  0  0
 24 27  1  0  0  0  0
 26 41  1  0  0  0  0
 27 42  1  0  0  0  0
 28 43  1  0  0  0  0
 28 44  1  0  0  0  0
 28 45  1  0  0  0  0
 29 46  1  0  0  0  0
 29 47  1  0  0  0  0
 29 48  1  0  0  0  0
M  END
>  <Mol_ID>
4718

>  <Formula>
C18H19F2N5O4

>  <MolWeight>
407.3713664

>  <Cat>
S6539

>  <Name>
ASP5878

>  <Synonyms>
N/A

>  <Target>
FGFR

>  <Form>
Free Base

>  <CAS>
1453208-66-6

>  <URL>
http://www.selleck.cn/products/asp5878.html

$$$$
