ASP7663
 OpenBabel08302521353D

 33 34  0  0  0  0  0  0  0  0999 V2000
    0.8169   -0.1864   -0.3430 C   0  0  0  0  0  0  0  0  0  0  0  0
    0.4080   -0.5603    1.0170 C   0  0  0  0  0  0  0  0  0  0  0  0
    1.3817   -1.2414    1.6559 O   0  0  0  0  0  0  0  0  0  0  0  0
   -0.6562   -0.2820    1.5380 O   0  0  0  0  0  0  0  0  0  0  0  0
   -0.0907    1.3569   -4.8706 C   0  0  0  0  0  0  0  0  0  0  0  0
   -0.0390    2.8855   -5.0487 C   0  0  0  0  0  0  0  0  0  0  0  0
    1.0868    3.5285   -4.2354 C   0  0  0  0  0  0  0  0  0  0  0  0
    0.1469    3.2181   -6.5321 C   0  0  0  0  0  0  0  0  0  0  0  0
   -2.9938    1.4449   -4.6835 F   0  0  0  0  0  0  0  0  0  0  0  0
    1.9071    0.5541   -2.8363 O   0  0  0  0  0  0  0  0  0  0  0  0
   -1.4281    0.2034   -1.6147 C   0  0  0  0  0  0  0  0  0  0  0  0
   -1.5793    0.7216   -2.9134 C   0  0  0  0  0  0  0  0  0  0  0  0
    0.0163    0.1279   -1.3722 C   0  0  0  0  0  0  0  0  0  0  0  0
   -2.5463   -0.1572   -0.8768 C   0  0  0  0  0  0  0  0  0  0  0  0
   -0.3163    0.9238   -3.5076 N   0  0  0  0  0  0  0  0  0  0  0  0
   -2.8371    0.9308   -3.4570 C   0  0  0  0  0  0  0  0  0  0  0  0
    0.7036    0.5558   -2.6418 C   0  0  0  0  0  0  0  0  0  0  0  0
   -3.8185    0.0411   -1.4325 C   0  0  0  0  0  0  0  0  0  0  0  0
   -3.9635    0.5922   -2.7126 C   0  0  0  0  0  0  0  0  0  0  0  0
    1.8914   -0.1228   -0.4891 H   0  0  0  0  0  0  0  0  0  0  0  0
    2.1760   -1.4481    1.1289 H   0  0  0  0  0  0  0  0  0  0  0  0
    0.8623    0.9262   -5.2021 H   0  0  0  0  0  0  0  0  0  0  0  0
   -0.8608    0.9166   -5.5134 H   0  0  0  0  0  0  0  0  0  0  0  0
   -0.9886    3.3233   -4.7170 H   0  0  0  0  0  0  0  0  0  0  0  0
    2.0483    3.0418   -4.4310 H   0  0  0  0  0  0  0  0  0  0  0  0
    1.1921    4.5904   -4.4831 H   0  0  0  0  0  0  0  0  0  0  0  0
    0.8816    3.4642   -3.1622 H   0  0  0  0  0  0  0  0  0  0  0  0
   -0.6964    2.8453   -7.1227 H   0  0  0  0  0  0  0  0  0  0  0  0
    0.2105    4.3003   -6.6879 H   0  0  0  0  0  0  0  0  0  0  0  0
    1.0637    2.7668   -6.9280 H   0  0  0  0  0  0  0  0  0  0  0  0
   -2.4672   -0.5963    0.1122 H   0  0  0  0  0  0  0  0  0  0  0  0
   -4.7041   -0.2381   -0.8626 H   0  0  0  0  0  0  0  0  0  0  0  0
   -4.9522    0.7488   -3.1360 H   0  0  0  0  0  0  0  0  0  0  0  0
  1  2  1  0  0  0  0
  1 13  2  0  0  0  0
  1 20  1  0  0  0  0
  2  3  1  0  0  0  0
  2  4  2  0  0  0  0
  3 21  1  0  0  0  0
  5  6  1  0  0  0  0
  5 15  1  0  0  0  0
  5 22  1  0  0  0  0
  5 23  1  0  0  0  0
  6  7  1  0  0  0  0
  6  8  1  0  0  0  0
  6 24  1  0  0  0  0
  7 25  1  0  0  0  0
  7 26  1  0  0  0  0
  7 27  1  0  0  0  0
  8 28  1  0  0  0  0
  8 29  1  0  0  0  0
  8 30  1  0  0  0  0
  9 16  1  0  0  0  0
 10 17  2  0  0  0  0
 11 12  2  0  0  0  0
 11 13  1  0  0  0  0
 11 14  1  0  0  0  0
 12 15  1  0  0  0  0
 12 16  1  0  0  0  0
 13 17  1  0  0  0  0
 14 18  2  0  0  0  0
 14 31  1  0  0  0  0
 15 17  1  0  0  0  0
 16 19  2  0  0  0  0
 18 19  1  0  0  0  0
 18 32  1  0  0  0  0
 19 33  1  0  0  0  0
M  END
>  <Mol_ID>
6890

>  <Formula>
C14H14FNO3

>  <MolWeight>
263.2642632

>  <Cat>
S0447

>  <Name>
ASP7663

>  <Synonyms>
N/A

>  <Target>
Others

>  <Form>
Free base

>  <CAS>
1190217-35-6

>  <URL>
http://www.selleckchem.com/products/asp7663.html

$$$$
