Aspartic acid (calcium)
 OpenBabel08302521453D

 16 15  0  0  0  0  0  0  0  0999 V2000
    1.0632   -0.0052   -0.0709 C   0  0  1  0  0  0  0  0  0  0  0  0
    0.4844   -1.1577    0.7398 C   0  0  0  0  0  0  0  0  0  0  0  0
    0.6931   -0.1736   -1.5468 C   0  0  0  0  0  0  0  0  0  0  0  0
    0.5215    1.2857    0.4513 N   0  0  0  0  0  0  0  0  0  0  0  0
    0.9848   -1.1796    2.1596 C   0  0  0  0  0  0  0  0  0  0  0  0
    1.5309   -0.9731   -2.2401 O   0  0  0  0  0  0  0  0  0  0  0  0
   -0.2763    0.3700   -2.0624 O   0  0  0  0  0  0  0  0  0  0  0  0
    1.0992    0.0369    2.7369 O   0  0  0  0  0  0  0  0  0  0  0  0
    1.2156   -2.2152    2.7659 O   0  0  0  0  0  0  0  0  0  0  0  0
    2.1543    0.0426    0.0184 H   0  0  0  0  0  0  0  0  0  0  0  0
   -0.6119   -1.1360    0.7534 H   0  0  0  0  0  0  0  0  0  0  0  0
    0.7813   -2.1080    0.2764 H   0  0  0  0  0  0  0  0  0  0  0  0
    0.8784    2.0369   -0.1547 H   0  0  0  0  0  0  0  0  0  0  0  0
   -0.4853    1.3022    0.2237 H   0  0  0  0  0  0  0  0  0  0  0  0
    2.2880   -1.3316   -1.7376 H   0  0  0  0  0  0  0  0  0  0  0  0
    0.8523    0.7739    2.1195 H   0  0  0  0  0  0  0  0  0  0  0  0
  1  4  1  0  0  0  0
  1 10  1  1  0  0  0
  1  3  1  0  0  0  0
  1  2  1  0  0  0  0
  2  5  1  0  0  0  0
  2 11  1  0  0  0  0
  2 12  1  0  0  0  0
  3  6  1  0  0  0  0
  3  7  2  0  0  0  0
  4 13  1  0  0  0  0
  4 14  1  0  0  0  0
  5  8  1  0  0  0  0
  5  9  2  0  0  0  0
  6 15  1  0  0  0  0
  8 16  1  0  0  0  0
M  END
>  <Mol_ID>
9524

>  <Formula>
C4H7CaNO4

>  <MolWeight>
173.18068

>  <Cat>
E4390

>  <Name>
Aspartic acid (calcium)

>  <Target>
Others

>  <Form>
Calcium

>  <CAS>
21059-46-1

>  <URL>
https://www.selleckchem.com/products/aspartic-acid-calcium.html

$$$$
