aspirin.cdx
 OpenBabel08302522033D

 21 21  0  0  0  0  0  0  0  0999 V2000
    1.4762   -0.1969   -0.0183 C   0  0  0  0  0  0  0  0  0  0  0  0
    0.7115   -1.3629   -0.0815 C   0  0  0  0  0  0  0  0  0  0  0  0
   -0.6683   -1.2779   -0.2460 C   0  0  0  0  0  0  0  0  0  0  0  0
   -1.2931   -0.0314   -0.3081 C   0  0  0  0  0  0  0  0  0  0  0  0
   -0.5361    1.1400   -0.2099 C   0  0  0  0  0  0  0  0  0  0  0  0
    0.8649    1.0672   -0.1010 C   0  0  0  0  0  0  0  0  0  0  0  0
    1.7015    2.3002   -0.0938 C   0  0  0  0  0  0  0  0  0  0  0  0
    1.3226    3.4557   -0.0845 O   0  0  0  0  0  0  0  0  0  0  0  0
    3.0201    2.0197   -0.1505 O   0  0  0  0  0  0  0  0  0  0  0  0
   -1.1389    2.4285   -0.1734 O   0  0  0  0  0  0  0  0  0  0  0  0
   -2.5023    2.7342   -0.1318 C   0  0  0  0  0  0  0  0  0  0  0  0
   -2.6707    4.2053    0.1112 C   0  0  0  0  0  0  0  0  0  0  0  0
   -3.4347    1.9493   -0.2109 O   0  0  0  0  0  0  0  0  0  0  0  0
    2.5539   -0.2878    0.0985 H   0  0  0  0  0  0  0  0  0  0  0  0
    1.1935   -2.3353   -0.0097 H   0  0  0  0  0  0  0  0  0  0  0  0
   -1.2641   -2.1845   -0.3168 H   0  0  0  0  0  0  0  0  0  0  0  0
   -2.3707   -0.0140   -0.4308 H   0  0  0  0  0  0  0  0  0  0  0  0
    3.4466    2.9018   -0.1959 H   0  0  0  0  0  0  0  0  0  0  0  0
   -3.6564    4.5149   -0.2476 H   0  0  0  0  0  0  0  0  0  0  0  0
   -2.5939    4.4062    1.1823 H   0  0  0  0  0  0  0  0  0  0  0  0
   -1.9179    4.7761   -0.4379 H   0  0  0  0  0  0  0  0  0  0  0  0
  1  2  2  0  0  0  0
  1 14  1  0  0  0  0
  2  3  1  0  0  0  0
  2 15  1  0  0  0  0
  3  4  2  0  0  0  0
  3 16  1  0  0  0  0
  4  5  1  0  0  0  0
  4 17  1  0  0  0  0
  5  6  2  0  0  0  0
  5 10  1  0  0  0  0
  6  1  1  0  0  0  0
  6  7  1  0  0  0  0
  7  8  2  0  0  0  0
  7  9  1  0  0  0  0
  9 18  1  0  0  0  0
 10 11  1  0  0  0  0
 11 12  1  0  0  0  0
 11 13  2  0  0  0  0
 12 19  1  0  0  0  0
 12 20  1  0  0  0  0
 12 21  1  0  0  0  0
M  END
>  <Mol_ID>
1166

>  <Formula>
C9H8O4

>  <MolWeight>
180.15742

>  <Cat>
S3017

>  <Name>
Aspirin (NSC 27223)

>  <Synonyms>
Acetylsalicylic acid, ASA

>  <Target>
Autophagy,COX,Mitophagy

>  <Form>
free base

>  <CAS>
50-78-2

>  <URL>
http://selleckchem.com/products/aspirin-acetylsalicylic-acid.html

$$$$
