AT-001
 OpenBabel08302521353D

 39 42  0  0  0  0  0  0  0  0999 V2000
    1.2476    1.5275    0.0045 C   0  0  0  0  0  0  0  0  0  0  0  0
   -0.0159    0.7698    0.0215 C   0  0  0  0  0  0  0  0  0  0  0  0
    0.0219   -0.6062    0.0157 C   0  0  0  0  0  0  0  0  0  0  0  0
    1.3307   -1.2641    0.0369 C   0  0  0  0  0  0  0  0  0  0  0  0
    2.4527   -0.6084    0.0148 N   0  0  0  0  0  0  0  0  0  0  0  0
    2.4183    0.7712   -0.0166 N   0  0  0  0  0  0  0  0  0  0  0  0
   -1.1927    1.4601    0.0256 N   0  0  0  0  0  0  0  0  0  0  0  0
   -1.0990   -1.3776    0.0097 N   0  0  0  0  0  0  0  0  0  0  0  0
   -2.2640   -0.6856    0.0018 C   0  0  0  0  0  0  0  0  0  0  0  0
   -2.3099    0.7000    0.0136 C   0  0  0  0  0  0  0  0  0  0  0  0
    1.3454   -3.3863   -1.2929 C   0  0  0  0  0  0  0  0  0  0  0  0
    1.3719   -2.7747    0.0728 C   0  0  0  0  0  0  0  0  0  0  0  0
    1.2343   -2.8052   -2.3608 O   0  0  0  0  0  0  0  0  0  0  0  0
    1.4522   -4.7288   -1.2509 O   0  0  0  0  0  0  0  0  0  0  0  0
    3.7042    1.4626   -0.1170 C   0  0  0  0  0  0  0  0  0  0  0  0
    3.9326    3.1582    2.1080 S   0  0  0  0  0  0  0  0  0  0  0  0
    4.2923    1.7158    1.2397 C   0  0  0  0  0  0  0  0  0  0  0  0
    5.1538    0.9107    1.8266 N   0  0  0  0  0  0  0  0  0  0  0  0
    5.5624    1.4447    3.0297 C   0  0  0  0  0  0  0  0  0  0  0  0
    5.0031    2.6763    3.3666 C   0  0  0  0  0  0  0  0  0  0  0  0
    6.4909    0.8520    3.9060 C   0  0  0  0  0  0  0  0  0  0  0  0
    6.8559    1.4981    5.0980 C   0  0  0  0  0  0  0  0  0  0  0  0
    6.2680    2.7298    5.4145 C   0  0  0  0  0  0  0  0  0  0  0  0
    5.3359    3.3364    4.5614 C   0  0  0  0  0  0  0  0  0  0  0  0
    7.8793    0.8733    6.0125 C   0  0  0  0  0  0  0  0  0  0  0  0
    8.3761   -0.3079    5.5498 F   0  0  0  0  0  0  0  0  0  0  0  0
    8.9600    1.6785    6.2084 F   0  0  0  0  0  0  0  0  0  0  0  0
    7.3803    0.6075    7.2509 F   0  0  0  0  0  0  0  0  0  0  0  0
    1.2367    2.7563   -0.0048 O   0  0  0  0  0  0  0  0  0  0  0  0
   -3.1723   -1.2792   -0.0132 H   0  0  0  0  0  0  0  0  0  0  0  0
   -3.2505    1.2406    0.0122 H   0  0  0  0  0  0  0  0  0  0  0  0
    2.2953   -3.0847    0.5758 H   0  0  0  0  0  0  0  0  0  0  0  0
    0.5263   -3.1655    0.6481 H   0  0  0  0  0  0  0  0  0  0  0  0
    1.4361   -5.0059   -2.1911 H   0  0  0  0  0  0  0  0  0  0  0  0
    4.3859    0.8315   -0.6993 H   0  0  0  0  0  0  0  0  0  0  0  0
    3.5827    2.3991   -0.6733 H   0  0  0  0  0  0  0  0  0  0  0  0
    6.9230   -0.1062    3.6297 H   0  0  0  0  0  0  0  0  0  0  0  0
    6.5412    3.2385    6.3402 H   0  0  0  0  0  0  0  0  0  0  0  0
    4.8918    4.2960    4.8115 H   0  0  0  0  0  0  0  0  0  0  0  0
  1  2  1  0  0  0  0
  1  6  1  0  0  0  0
  1 29  2  0  0  0  0
  2  3  2  0  0  0  0
  3  4  1  0  0  0  0
  4  5  2  0  0  0  0
  4 12  1  0  0  0  0
  5  6  1  0  0  0  0
  6 15  1  0  0  0  0
  7 10  2  0  0  0  0
  7  2  1  0  0  0  0
  8  9  2  0  0  0  0
  8  3  1  0  0  0  0
  9 10  1  0  0  0  0
  9 30  1  0  0  0  0
 10 31  1  0  0  0  0
 11 12  1  0  0  0  0
 11 13  2  0  0  0  0
 11 14  1  0  0  0  0
 12 32  1  0  0  0  0
 12 33  1  0  0  0  0
 14 34  1  0  0  0  0
 15 17  1  0  0  0  0
 15 35  1  0  0  0  0
 15 36  1  0  0  0  0
 16 17  1  0  0  0  0
 16 20  1  0  0  0  0
 17 18  2  0  0  0  0
 18 19  1  0  0  0  0
 19 20  2  0  0  0  0
 21 22  2  0  0  0  0
 21 19  1  0  0  0  0
 21 37  1  0  0  0  0
 22 23  1  0  0  0  0
 22 25  1  0  0  0  0
 23 24  2  0  0  0  0
 23 38  1  0  0  0  0
 24 20  1  0  0  0  0
 24 39  1  0  0  0  0
 25 26  1  0  0  0  0
 25 27  1  0  0  0  0
 25 28  1  0  0  0  0
M  END
>  <Mol_ID>
6648

>  <Formula>
C17H10F3N5O3S

>  <MolWeight>
421.3532096

>  <Cat>
S0878

>  <Name>
AT-001

>  <Synonyms>
Aldose reductase-IN-1

>  <Target>
Aldose Reductase

>  <Form>
Free base

>  <CAS>
1355612-71-3

>  <URL>
http://www.selleckchem.com/products/at-001.html

$$$$
