AT-56
 OpenBabel08302521303D

 57 61  0  0  0  0  0  0  0  0999 V2000
    0.7520    1.3395   -0.3095 N   0  0  0  0  0  0  0  0  0  0  0  0
    1.5265    0.2114    0.2498 C   0  0  0  0  0  0  0  0  0  0  0  0
    0.8100   -1.1518    0.1874 C   0  0  0  0  0  0  0  0  0  0  0  0
   -0.6612   -1.1516    0.6111 C   0  0  0  0  0  0  0  0  0  0  0  0
   -1.3967    0.1595    0.3705 C   0  0  0  0  0  0  0  0  0  0  0  0
   -0.5071    1.4150    0.4465 C   0  0  0  0  0  0  0  0  0  0  0  0
    0.6026    1.1808   -1.7645 C   0  0  0  0  0  0  0  0  0  0  0  0
   -0.2346    2.2271   -2.5167 C   0  0  0  0  0  0  0  0  0  0  0  0
    0.2690    3.6617   -2.4072 C   0  0  0  0  0  0  0  0  0  0  0  0
   -0.5420    4.5844   -3.3269 C   0  0  0  0  0  0  0  0  0  0  0  0
   -0.5685    6.9297   -2.4258 N   0  0  0  0  0  0  0  0  0  0  0  0
    0.1081    8.0763   -2.5629 N   0  0  0  0  0  0  0  0  0  0  0  0
    1.0269    7.8264   -3.4855 N   0  0  0  0  0  0  0  0  0  0  0  0
    0.9368    6.5298   -3.9324 N   0  0  0  0  0  0  0  0  0  0  0  0
   -0.0494    5.9796   -3.2570 C   0  0  0  0  0  0  0  0  0  0  0  0
   -2.8929   -2.1722    3.0535 C   0  0  0  0  0  0  0  0  0  0  0  0
   -2.6544   -2.2241    1.6654 C   0  0  0  0  0  0  0  0  0  0  0  0
   -1.2549   -2.2360    1.1836 C   0  0  0  0  0  0  0  0  0  0  0  0
   -0.4244   -3.3982    1.5715 C   0  0  0  0  0  0  0  0  0  0  0  0
   -0.0851   -3.5501    2.9305 C   0  0  0  0  0  0  0  0  0  0  0  0
   -0.5879   -2.6360    3.9838 C   0  0  0  0  0  0  0  0  0  0  0  0
   -1.7962   -2.0436    4.0378 C   0  0  0  0  0  0  0  0  0  0  0  0
   -3.7217   -2.3847    0.7695 C   0  0  0  0  0  0  0  0  0  0  0  0
   -5.0303   -2.4699    1.2482 C   0  0  0  0  0  0  0  0  0  0  0  0
   -5.2771   -2.3803    2.6174 C   0  0  0  0  0  0  0  0  0  0  0  0
   -4.2156   -2.2234    3.5137 C   0  0  0  0  0  0  0  0  0  0  0  0
    0.8061   -4.5712    3.2809 C   0  0  0  0  0  0  0  0  0  0  0  0
    1.2935   -5.4568    2.3145 C   0  0  0  0  0  0  0  0  0  0  0  0
    0.8912   -5.3418    0.9842 C   0  0  0  0  0  0  0  0  0  0  0  0
    0.0308   -4.3131    0.6097 C   0  0  0  0  0  0  0  0  0  0  0  0
    2.4955    0.1308   -0.2602 H   0  0  0  0  0  0  0  0  0  0  0  0
    1.7747    0.4348    1.2968 H   0  0  0  0  0  0  0  0  0  0  0  0
    0.8612   -1.5393   -0.8375 H   0  0  0  0  0  0  0  0  0  0  0  0
    1.4069   -1.8325    0.8047 H   0  0  0  0  0  0  0  0  0  0  0  0
   -1.8710    0.1137   -0.6152 H   0  0  0  0  0  0  0  0  0  0  0  0
   -2.1933    0.2995    1.1096 H   0  0  0  0  0  0  0  0  0  0  0  0
   -0.2603    1.6068    1.4994 H   0  0  0  0  0  0  0  0  0  0  0  0
   -1.0817    2.2953    0.1364 H   0  0  0  0  0  0  0  0  0  0  0  0
    1.6071    1.1893   -2.2086 H   0  0  0  0  0  0  0  0  0  0  0  0
    0.1707    0.2048   -2.0117 H   0  0  0  0  0  0  0  0  0  0  0  0
   -0.2324    1.9347   -3.5757 H   0  0  0  0  0  0  0  0  0  0  0  0
   -1.2816    2.1811   -2.1918 H   0  0  0  0  0  0  0  0  0  0  0  0
    0.1913    4.0121   -1.3715 H   0  0  0  0  0  0  0  0  0  0  0  0
    1.3282    3.7072   -2.6837 H   0  0  0  0  0  0  0  0  0  0  0  0
   -0.4677    4.2356   -4.3648 H   0  0  0  0  0  0  0  0  0  0  0  0
   -1.6056    4.5463   -3.0593 H   0  0  0  0  0  0  0  0  0  0  0  0
   -1.3347    6.8747   -1.7673 H   0  0  0  0  0  0  0  0  0  0  0  0
    0.1163   -2.4396    4.7904 H   0  0  0  0  0  0  0  0  0  0  0  0
   -2.0187   -1.3973    4.8839 H   0  0  0  0  0  0  0  0  0  0  0  0
   -3.5339   -2.4806   -0.2966 H   0  0  0  0  0  0  0  0  0  0  0  0
   -5.8544   -2.6254    0.5573 H   0  0  0  0  0  0  0  0  0  0  0  0
   -6.2955   -2.4520    2.9916 H   0  0  0  0  0  0  0  0  0  0  0  0
   -4.4289   -2.1704    4.5787 H   0  0  0  0  0  0  0  0  0  0  0  0
    1.1258   -4.6895    4.3136 H   0  0  0  0  0  0  0  0  0  0  0  0
    1.9852   -6.2441    2.6029 H   0  0  0  0  0  0  0  0  0  0  0  0
    1.2591   -6.0426    0.2395 H   0  0  0  0  0  0  0  0  0  0  0  0
   -0.2729   -4.2126   -0.4293 H   0  0  0  0  0  0  0  0  0  0  0  0
  1  2  1  0  0  0  0
  1  6  1  0  0  0  0
  1  7  1  0  0  0  0
  2  3  1  0  0  0  0
  2 31  1  0  0  0  0
  2 32  1  0  0  0  0
  3  4  1  0  0  0  0
  3 33  1  0  0  0  0
  3 34  1  0  0  0  0
  4  5  1  0  0  0  0
  4 18  2  0  0  0  0
  5  6  1  0  0  0  0
  5 35  1  0  0  0  0
  5 36  1  0  0  0  0
  6 37  1  0  0  0  0
  6 38  1  0  0  0  0
  7  8  1  0  0  0  0
  7 39  1  0  0  0  0
  7 40  1  0  0  0  0
  8  9  1  0  0  0  0
  8 41  1  0  0  0  0
  8 42  1  0  0  0  0
  9 10  1  0  0  0  0
  9 43  1  0  0  0  0
  9 44  1  0  0  0  0
 10 15  1  0  0  0  0
 10 45  1  0  0  0  0
 10 46  1  0  0  0  0
 11 12  1  0  0  0  0
 11 15  1  0  0  0  0
 11 47  1  0  0  0  0
 12 13  2  0  0  0  0
 13 14  1  0  0  0  0
 14 15  2  0  0  0  0
 16 17  2  0  0  0  0
 16 22  1  0  0  0  0
 16 26  1  0  0  0  0
 17 18  1  0  0  0  0
 17 23  1  0  0  0  0
 18 19  1  0  0  0  0
 19 20  2  0  0  0  0
 19 30  1  0  0  0  0
 20 21  1  0  0  0  0
 20 27  1  0  0  0  0
 21 22  2  0  0  0  0
 21 48  1  0  0  0  0
 22 49  1  0  0  0  0
 23 24  2  0  0  0  0
 23 50  1  0  0  0  0
 24 25  1  0  0  0  0
 24 51  1  0  0  0  0
 25 26  2  0  0  0  0
 25 52  1  0  0  0  0
 26 53  1  0  0  0  0
 27 28  2  0  0  0  0
 27 54  1  0  0  0  0
 28 29  1  0  0  0  0
 28 55  1  0  0  0  0
 29 30  2  0  0  0  0
 29 56  1  0  0  0  0
 30 57  1  0  0  0  0
M  END
>  <Mol_ID>
5732

>  <Formula>
C25H27N5

>  <MolWeight>
397.51538

>  <Cat>
S9678

>  <Name>
AT-56

>  <Synonyms>
N/A

>  <Target>
PGDS

>  <Form>
Free Base

>  <CAS>
162640-98-4

>  <URL>
http://www.selleckchem.com/products/at-56.html

$$$$
