AT13387.cdx
 OpenBabel08302521293D

 61 64  0  0  0  0  0  0  0  0999 V2000
    1.0139    0.1100    0.1406 C   0  0  0  0  0  0  0  0  0  0  0  0
    0.8397   -0.6911    1.0626 O   0  0  0  0  0  0  0  0  0  0  0  0
    0.2702    2.2670   -1.0409 C   0  0  0  0  0  0  0  0  0  0  0  0
    0.3294    1.3166    0.0714 N   0  0  0  0  0  0  0  0  0  0  0  0
   -0.6703    1.6431    1.0977 C   0  0  0  0  0  0  0  0  0  0  0  0
   -1.1810    2.9885    0.6798 C   0  0  0  0  0  0  0  0  0  0  0  0
   -2.0319    3.8559    1.3389 C   0  0  0  0  0  0  0  0  0  0  0  0
   -2.3103    5.1023    0.7476 C   0  0  0  0  0  0  0  0  0  0  0  0
   -1.7231    5.4481   -0.4906 C   0  0  0  0  0  0  0  0  0  0  0  0
   -0.8914    4.5578   -1.1588 C   0  0  0  0  0  0  0  0  0  0  0  0
   -0.6428    3.3367   -0.5599 C   0  0  0  0  0  0  0  0  0  0  0  0
   -3.2512    6.0792    1.4194 C   0  0  0  0  0  0  0  0  0  0  0  0
   -4.3865    6.4527    0.5645 N   0  0  0  0  0  0  0  0  0  0  0  0
   -5.2343    5.2942    0.2187 C   0  0  0  0  0  0  0  0  0  0  0  0
   -6.4506    5.7067   -0.6419 C   0  0  0  0  0  0  0  0  0  0  0  0
   -7.2942    6.7674   -0.0561 N   0  0  0  0  0  0  0  0  0  0  0  0
   -6.4330    7.8906    0.3649 C   0  0  0  0  0  0  0  0  0  0  0  0
   -5.2028    7.4930    1.2145 C   0  0  0  0  0  0  0  0  0  0  0  0
   -8.1015    6.2591    1.0485 C   0  0  0  0  0  0  0  0  0  0  0  0
    1.9370   -0.3046   -0.9595 C   0  0  0  0  0  0  0  0  0  0  0  0
    2.0707   -1.6547   -1.2920 C   0  0  0  0  0  0  0  0  0  0  0  0
    2.8374   -2.0380   -2.3922 C   0  0  0  0  0  0  0  0  0  0  0  0
    3.4609   -1.0716   -3.1868 C   0  0  0  0  0  0  0  0  0  0  0  0
    3.3688    0.2872   -2.8743 C   0  0  0  0  0  0  0  0  0  0  0  0
    2.6768    0.6258   -1.6977 C   0  0  0  0  0  0  0  0  0  0  0  0
    3.8913    1.4119   -3.7590 C   0  0  0  0  0  0  0  0  0  0  0  0
    2.7318    2.2458   -4.3323 C   0  0  0  0  0  0  0  0  0  0  0  0
    4.8710    2.3213   -3.0106 C   0  0  0  0  0  0  0  0  0  0  0  0
    4.1660   -1.5444   -4.2554 O   0  0  0  0  0  0  0  0  0  0  0  0
    1.4840   -2.6602   -0.5698 O   0  0  0  0  0  0  0  0  0  0  0  0
    1.2349    2.7425   -1.1953 H   0  0  0  0  0  0  0  0  0  0  0  0
   -0.0952    1.7665   -1.9404 H   0  0  0  0  0  0  0  0  0  0  0  0
   -1.4658    0.8905    1.0699 H   0  0  0  0  0  0  0  0  0  0  0  0
   -0.1929    1.6619    2.0821 H   0  0  0  0  0  0  0  0  0  0  0  0
   -2.4691    3.5811    2.2938 H   0  0  0  0  0  0  0  0  0  0  0  0
   -1.9365    6.4181   -0.9369 H   0  0  0  0  0  0  0  0  0  0  0  0
   -0.4367    4.8276   -2.1061 H   0  0  0  0  0  0  0  0  0  0  0  0
   -2.6587    6.9737    1.6555 H   0  0  0  0  0  0  0  0  0  0  0  0
   -3.6000    5.6728    2.3771 H   0  0  0  0  0  0  0  0  0  0  0  0
   -4.6632    4.5635   -0.3658 H   0  0  0  0  0  0  0  0  0  0  0  0
   -5.5772    4.7824    1.1269 H   0  0  0  0  0  0  0  0  0  0  0  0
   -6.0834    6.0637   -1.6140 H   0  0  0  0  0  0  0  0  0  0  0  0
   -7.0574    4.8208   -0.8668 H   0  0  0  0  0  0  0  0  0  0  0  0
   -6.0773    8.3996   -0.5409 H   0  0  0  0  0  0  0  0  0  0  0  0
   -7.0256    8.6374    0.9075 H   0  0  0  0  0  0  0  0  0  0  0  0
   -5.5356    7.1566    2.2050 H   0  0  0  0  0  0  0  0  0  0  0  0
   -4.5919    8.3910    1.3678 H   0  0  0  0  0  0  0  0  0  0  0  0
   -7.5066    5.8849    1.8885 H   0  0  0  0  0  0  0  0  0  0  0  0
   -8.7636    7.0472    1.4276 H   0  0  0  0  0  0  0  0  0  0  0  0
   -8.7511    5.4482    0.7045 H   0  0  0  0  0  0  0  0  0  0  0  0
    2.9441   -3.0918   -2.6350 H   0  0  0  0  0  0  0  0  0  0  0  0
    2.7311    1.6489   -1.3579 H   0  0  0  0  0  0  0  0  0  0  0  0
    4.4272    0.9970   -4.6180 H   0  0  0  0  0  0  0  0  0  0  0  0
    2.1619    2.7575   -3.5484 H   0  0  0  0  0  0  0  0  0  0  0  0
    3.1094    3.0157   -5.0144 H   0  0  0  0  0  0  0  0  0  0  0  0
    2.0308    1.6171   -4.8930 H   0  0  0  0  0  0  0  0  0  0  0  0
    5.6872    1.7383   -2.5728 H   0  0  0  0  0  0  0  0  0  0  0  0
    5.3042    3.0605   -3.6907 H   0  0  0  0  0  0  0  0  0  0  0  0
    4.3831    2.8766   -2.2002 H   0  0  0  0  0  0  0  0  0  0  0  0
    4.8513   -0.9022   -4.4954 H   0  0  0  0  0  0  0  0  0  0  0  0
    1.1315   -2.2654    0.2595 H   0  0  0  0  0  0  0  0  0  0  0  0
  1  2  2  0  0  0  0
  1  4  1  0  0  0  0
  1 20  1  0  0  0  0
  3  4  1  0  0  0  0
  3 11  1  0  0  0  0
  3 31  1  0  0  0  0
  3 32  1  0  0  0  0
  4  5  1  0  0  0  0
  5  6  1  0  0  0  0
  5 33  1  0  0  0  0
  5 34  1  0  0  0  0
  6  7  2  0  0  0  0
  6 11  1  0  0  0  0
  7  8  1  0  0  0  0
  7 35  1  0  0  0  0
  8  9  2  0  0  0  0
  8 12  1  0  0  0  0
  9 10  1  0  0  0  0
  9 36  1  0  0  0  0
 10 11  2  0  0  0  0
 10 37  1  0  0  0  0
 12 13  1  0  0  0  0
 12 38  1  0  0  0  0
 12 39  1  0  0  0  0
 13 14  1  0  0  0  0
 13 18  1  0  0  0  0
 14 15  1  0  0  0  0
 14 40  1  0  0  0  0
 14 41  1  0  0  0  0
 15 16  1  0  0  0  0
 15 42  1  0  0  0  0
 15 43  1  0  0  0  0
 16 17  1  0  0  0  0
 16 19  1  0  0  0  0
 17 18  1  0  0  0  0
 17 44  1  0  0  0  0
 17 45  1  0  0  0  0
 18 46  1  0  0  0  0
 18 47  1  0  0  0  0
 19 48  1  0  0  0  0
 19 49  1  0  0  0  0
 19 50  1  0  0  0  0
 20 21  2  0  0  0  0
 20 25  1  0  0  0  0
 21 22  1  0  0  0  0
 21 30  1  0  0  0  0
 22 23  2  0  0  0  0
 22 51  1  0  0  0  0
 23 24  1  0  0  0  0
 23 29  1  0  0  0  0
 24 25  2  0  0  0  0
 24 26  1  0  0  0  0
 25 52  1  0  0  0  0
 26 27  1  0  0  0  0
 26 28  1  0  0  0  0
 26 53  1  0  0  0  0
 27 54  1  0  0  0  0
 27 55  1  0  0  0  0
 27 56  1  0  0  0  0
 28 57  1  0  0  0  0
 28 58  1  0  0  0  0
 28 59  1  0  0  0  0
 29 60  1  0  0  0  0
 30 61  1  0  0  0  0
M  END
>  <Mol_ID>
525

>  <Formula>
C24H31N3O3

>  <MolWeight>
409.52124

>  <Cat>
S1163

>  <Name>
Onalespib (AT13387)

>  <Synonyms>
N/A

>  <Target>
HSP (HSP90)

>  <Form>
free base

>  <CAS>
912999-49-6

>  <URL>
http://selleckchem.com/products/at13387.html

$$$$
