AT13148.cdx
 OpenBabel08302519583D

 38 40  0  0  0  0  0  0  0  0999 V2000
    0.1737    0.9256    1.1339 C   0  0  0  0  0  0  0  0  0  0  0  0
   -0.6058   -0.2060    1.4072 C   0  0  0  0  0  0  0  0  0  0  0  0
   -0.6490   -1.2814    0.5126 C   0  0  0  0  0  0  0  0  0  0  0  0
    0.0792   -1.1870   -0.6781 C   0  0  0  0  0  0  0  0  0  0  0  0
    0.8568   -0.0560   -0.9533 C   0  0  0  0  0  0  0  0  0  0  0  0
    0.9278    1.0185   -0.0480 C   0  0  0  0  0  0  0  0  0  0  0  0
   -1.3987   -2.4827    0.8481 C   0  0  0  0  0  0  0  0  0  0  0  0
   -1.9559   -3.3650   -0.0530 C   0  0  0  0  0  0  0  0  0  0  0  0
   -2.5389   -4.3535    0.6858 N   0  0  0  0  0  0  0  0  0  0  0  0
   -2.4051   -4.1852    2.0095 N   0  0  0  0  0  0  0  0  0  0  0  0
   -1.7062   -3.0508    2.1086 C   0  0  0  0  0  0  0  0  0  0  0  0
    1.8390    2.2280   -0.3491 C   0  0  1  0  0  0  0  0  0  0  0  0
    1.4888    2.9391   -1.6762 C   0  0  0  0  0  0  0  0  0  0  0  0
    1.6785    3.2292    0.6775 O   0  0  0  0  0  0  0  0  0  0  0  0
    3.3458    1.7604   -0.2757 C   0  0  0  0  0  0  0  0  0  0  0  0
    3.7642    1.1521    1.0034 N   0  0  0  0  0  0  0  0  0  0  0  0
    0.1588    2.9936   -2.1424 C   0  0  0  0  0  0  0  0  0  0  0  0
   -0.1654    3.6174   -3.3519 C   0  0  0  0  0  0  0  0  0  0  0  0
    0.8261    4.2262   -4.1128 C   0  0  0  0  0  0  0  0  0  0  0  0
    2.1379    4.2295   -3.6546 C   0  0  0  0  0  0  0  0  0  0  0  0
    2.4631    3.6023   -2.4475 C   0  0  0  0  0  0  0  0  0  0  0  0
    0.2056    1.7179    1.8784 H   0  0  0  0  0  0  0  0  0  0  0  0
   -1.1667   -0.2356    2.3385 H   0  0  0  0  0  0  0  0  0  0  0  0
    0.0830   -2.0041   -1.3948 H   0  0  0  0  0  0  0  0  0  0  0  0
    1.4250   -0.0284   -1.8812 H   0  0  0  0  0  0  0  0  0  0  0  0
   -1.9987   -3.3774   -1.1327 H   0  0  0  0  0  0  0  0  0  0  0  0
   -3.0334   -5.1743    0.3540 H   0  0  0  0  0  0  0  0  0  0  0  0
   -1.4411   -2.6880    3.0928 H   0  0  0  0  0  0  0  0  0  0  0  0
    0.7838    3.5900    0.5594 H   0  0  0  0  0  0  0  0  0  0  0  0
    3.5697    1.0558   -1.0852 H   0  0  0  0  0  0  0  0  0  0  0  0
    4.0031    2.6273   -0.4001 H   0  0  0  0  0  0  0  0  0  0  0  0
    4.7792    1.0801    1.0224 H   0  0  0  0  0  0  0  0  0  0  0  0
    3.5019    1.8035    1.7462 H   0  0  0  0  0  0  0  0  0  0  0  0
   -0.6494    2.5350   -1.5751 H   0  0  0  0  0  0  0  0  0  0  0  0
   -1.1954    3.6230   -3.7001 H   0  0  0  0  0  0  0  0  0  0  0  0
    0.5771    4.7049   -5.0559 H   0  0  0  0  0  0  0  0  0  0  0  0
    2.9147    4.7210   -4.2355 H   0  0  0  0  0  0  0  0  0  0  0  0
    3.5007    3.6555   -2.1311 H   0  0  0  0  0  0  0  0  0  0  0  0
  1  2  2  0  0  0  0
  1 22  1  0  0  0  0
  2  3  1  0  0  0  0
  2 23  1  0  0  0  0
  3  4  2  0  0  0  0
  3  7  1  0  0  0  0
  4  5  1  0  0  0  0
  4 24  1  0  0  0  0
  5  6  2  0  0  0  0
  5 25  1  0  0  0  0
  6  1  1  0  0  0  0
  6 12  1  0  0  0  0
  7  8  2  0  0  0  0
  8  9  1  0  0  0  0
  8 26  1  0  0  0  0
  9 10  1  0  0  0  0
  9 27  1  0  0  0  0
 10 11  2  0  0  0  0
 11  7  1  0  0  0  0
 11 28  1  0  0  0  0
 12 13  1  0  0  0  0
 12 14  1  1  0  0  0
 12 15  1  0  0  0  0
 13 17  2  0  0  0  0
 14 29  1  0  0  0  0
 15 16  1  0  0  0  0
 15 30  1  0  0  0  0
 15 31  1  0  0  0  0
 16 32  1  0  0  0  0
 16 33  1  0  0  0  0
 17 18  1  0  0  0  0
 17 34  1  0  0  0  0
 18 19  2  0  0  0  0
 18 35  1  0  0  0  0
 19 20  1  0  0  0  0
 19 36  1  0  0  0  0
 20 21  2  0  0  0  0
 20 37  1  0  0  0  0
 21 13  1  0  0  0  0
 21 38  1  0  0  0  0
M  END
>  <Mol_ID>
2517

>  <Formula>
C17H16ClN3O

>  <MolWeight>
313.78144

>  <Cat>
S7563

>  <Name>
AT13148

>  <Synonyms>
N/A

>  <Target>
Akt,PKA,ROCK,S6 Kinase

>  <Form>
free base

>  <CAS>
1056901-62-2

>  <URL>
http://selleckchem.com/products/at13148.html

$$$$
