AT7519 HCl.cdx
 OpenBabel08302519593D

 42 44  0  0  0  0  0  0  0  0999 V2000
   -0.6125    1.0391    2.0069 C   0  0  0  0  0  0  0  0  0  0  0  0
   -1.5060   -0.0060    1.7317 C   0  0  0  0  0  0  0  0  0  0  0  0
   -1.0217   -1.2967    1.4987 C   0  0  0  0  0  0  0  0  0  0  0  0
    0.3647   -1.5246    1.5620 C   0  0  0  0  0  0  0  0  0  0  0  0
    1.2551   -0.4766    1.8345 C   0  0  0  0  0  0  0  0  0  0  0  0
    0.7634    0.8049    2.0534 C   0  0  0  0  0  0  0  0  0  0  0  0
   -1.9225   -2.4725    1.2816 C   0  0  0  0  0  0  0  0  0  0  0  0
   -3.1487   -2.2498    0.6520 N   0  0  0  0  0  0  0  0  0  0  0  0
   -1.5020   -3.5669    1.6506 O   0  0  0  0  0  0  0  0  0  0  0  0
   -4.1127   -3.2511    0.4688 C   0  0  0  0  0  0  0  0  0  0  0  0
   -4.1099   -4.4872    1.0729 C   0  0  0  0  0  0  0  0  0  0  0  0
   -5.2019   -5.1556    0.6301 N   0  0  0  0  0  0  0  0  0  0  0  0
   -5.9579   -4.4538   -0.2280 N   0  0  0  0  0  0  0  0  0  0  0  0
   -5.3116   -3.2686   -0.3416 C   0  0  0  0  0  0  0  0  0  0  0  0
   -5.8541   -2.2238   -1.2374 C   0  0  0  0  0  0  0  0  0  0  0  0
   -5.3261   -1.1202   -1.3465 O   0  0  0  0  0  0  0  0  0  0  0  0
   -7.0008   -2.6078   -1.9353 N   0  0  0  0  0  0  0  0  0  0  0  0
   -7.6810   -1.7471   -2.9039 C   0  0  0  0  0  0  0  0  0  0  0  0
   -9.2011   -1.9846   -2.9736 C   0  0  0  0  0  0  0  0  0  0  0  0
   -9.6401   -3.0597   -3.9687 C   0  0  0  0  0  0  0  0  0  0  0  0
   -9.0190   -2.8726   -5.2757 N   0  0  0  0  0  0  0  0  0  0  0  0
   -7.5640   -2.9459   -5.1597 C   0  0  0  0  0  0  0  0  0  0  0  0
   -7.0367   -1.8035   -4.2966 C   0  0  0  0  0  0  0  0  0  0  0  0
   -0.9907    2.0397    2.2033 H   0  0  0  0  0  0  0  0  0  0  0  0
   -2.5717    0.1995    1.7477 H   0  0  0  0  0  0  0  0  0  0  0  0
    0.7624   -2.5299    1.4238 H   0  0  0  0  0  0  0  0  0  0  0  0
    2.3240   -0.6729    1.8868 H   0  0  0  0  0  0  0  0  0  0  0  0
    1.4503    1.6201    2.2731 H   0  0  0  0  0  0  0  0  0  0  0  0
   -3.3388   -1.3568    0.2090 H   0  0  0  0  0  0  0  0  0  0  0  0
   -3.4292   -4.9464    1.7770 H   0  0  0  0  0  0  0  0  0  0  0  0
   -5.4939   -6.0948    0.8810 H   0  0  0  0  0  0  0  0  0  0  0  0
   -7.2844   -3.5759   -1.7975 H   0  0  0  0  0  0  0  0  0  0  0  0
   -7.5374   -0.7279   -2.5234 H   0  0  0  0  0  0  0  0  0  0  0  0
   -9.6068   -2.2191   -1.9826 H   0  0  0  0  0  0  0  0  0  0  0  0
   -9.6711   -1.0412   -3.2861 H   0  0  0  0  0  0  0  0  0  0  0  0
   -9.4218   -4.0619   -3.5835 H   0  0  0  0  0  0  0  0  0  0  0  0
  -10.7287   -3.0011   -4.0951 H   0  0  0  0  0  0  0  0  0  0  0  0
   -9.3473   -3.5923   -5.9203 H   0  0  0  0  0  0  0  0  0  0  0  0
   -7.1287   -2.8656   -6.1621 H   0  0  0  0  0  0  0  0  0  0  0  0
   -7.2599   -3.9186   -4.7565 H   0  0  0  0  0  0  0  0  0  0  0  0
   -7.2569   -0.8597   -4.8133 H   0  0  0  0  0  0  0  0  0  0  0  0
   -5.9459   -1.8731   -4.2221 H   0  0  0  0  0  0  0  0  0  0  0  0
  1  2  2  0  0  0  0
  1 24  1  0  0  0  0
  2  3  1  0  0  0  0
  2 25  1  0  0  0  0
  3  4  2  0  0  0  0
  3  7  1  0  0  0  0
  4  5  1  0  0  0  0
  4 26  1  0  0  0  0
  5  6  2  0  0  0  0
  5 27  1  0  0  0  0
  6  1  1  0  0  0  0
  6 28  1  0  0  0  0
  7  8  1  0  0  0  0
  7  9  2  0  0  0  0
  8 10  1  0  0  0  0
  8 29  1  0  0  0  0
 10 11  2  0  0  0  0
 11 12  1  0  0  0  0
 11 30  1  0  0  0  0
 12 13  1  0  0  0  0
 12 31  1  0  0  0  0
 13 14  2  0  0  0  0
 14 10  1  0  0  0  0
 14 15  1  0  0  0  0
 15 16  2  0  0  0  0
 15 17  1  0  0  0  0
 17 18  1  0  0  0  0
 17 32  1  0  0  0  0
 18 19  1  0  0  0  0
 18 33  1  0  0  0  0
 19 20  1  0  0  0  0
 19 34  1  0  0  0  0
 19 35  1  0  0  0  0
 20 21  1  0  0  0  0
 20 36  1  0  0  0  0
 20 37  1  0  0  0  0
 21 22  1  0  0  0  0
 21 38  1  0  0  0  0
 22 23  1  0  0  0  0
 22 39  1  0  0  0  0
 22 40  1  0  0  0  0
 23 18  1  0  0  0  0
 23 41  1  0  0  0  0
 23 42  1  0  0  0  0
M  END
>  <Mol_ID>
2595

>  <Formula>
C16H18Cl3N5O2

>  <MolWeight>
418.70542

>  <Cat>
S7808

>  <Name>
AT7519 HCl

>  <Synonyms>
N/A

>  <Target>
CDK

>  <Form>
Hydrochloride

>  <CAS>
902135-91-5

>  <URL>
http://selleckchem.com/products/at7519-hcl.html

$$$$
