AT7867.cdx
 OpenBabel08302520293D

 44 47  0  0  0  0  0  0  0  0999 V2000
    1.5101   -0.2924    0.0170 C   0  0  0  0  0  0  0  0  0  0  0  0
    0.6667   -0.8209    0.9887 C   0  0  0  0  0  0  0  0  0  0  0  0
   -0.7107   -0.5748    0.9368 C   0  0  0  0  0  0  0  0  0  0  0  0
   -1.2962    0.1808   -0.0954 C   0  0  0  0  0  0  0  0  0  0  0  0
   -0.4085    0.7063   -1.0608 C   0  0  0  0  0  0  0  0  0  0  0  0
    0.9696    0.4775   -1.0036 C   0  0  0  0  0  0  0  0  0  0  0  0
   -2.8306    0.4337   -0.2049 C   0  0  0  0  0  0  0  0  0  0  0  0
   -3.1336    1.9722   -0.1522 C   0  0  0  0  0  0  0  0  0  0  0  0
   -3.6764   -0.2542    0.9239 C   0  0  0  0  0  0  0  0  0  0  0  0
   -3.8589   -1.7644    0.7924 C   0  0  0  0  0  0  0  0  0  0  0  0
   -4.3782   -2.1407   -0.5131 N   0  0  0  0  0  0  0  0  0  0  0  0
   -3.5070   -1.6659   -1.5806 C   0  0  0  0  0  0  0  0  0  0  0  0
   -3.3709   -0.1477   -1.5551 C   0  0  0  0  0  0  0  0  0  0  0  0
   -3.1785    2.7553   -1.3208 C   0  0  0  0  0  0  0  0  0  0  0  0
   -3.5630    4.1008   -1.2896 C   0  0  0  0  0  0  0  0  0  0  0  0
   -3.9079    4.7169   -0.0851 C   0  0  0  0  0  0  0  0  0  0  0  0
   -3.8406    3.9654    1.0891 C   0  0  0  0  0  0  0  0  0  0  0  0
   -3.4379    2.6235    1.0580 C   0  0  0  0  0  0  0  0  0  0  0  0
   -4.2912    6.1142   -0.0667 C   0  0  0  0  0  0  0  0  0  0  0  0
   -5.1747    6.6968    0.8176 C   0  0  0  0  0  0  0  0  0  0  0  0
   -5.2353    8.0176    0.4837 N   0  0  0  0  0  0  0  0  0  0  0  0
   -4.4597    8.3433   -0.5641 N   0  0  0  0  0  0  0  0  0  0  0  0
   -3.8862    7.1853   -0.8953 C   0  0  0  0  0  0  0  0  0  0  0  0
    2.5810   -0.4781    0.0612 H   0  0  0  0  0  0  0  0  0  0  0  0
    1.0812   -1.4250    1.7915 H   0  0  0  0  0  0  0  0  0  0  0  0
   -1.3049   -1.0032    1.7392 H   0  0  0  0  0  0  0  0  0  0  0  0
   -0.7803    1.3145   -1.8815 H   0  0  0  0  0  0  0  0  0  0  0  0
    1.6256    0.9060   -1.7597 H   0  0  0  0  0  0  0  0  0  0  0  0
   -3.2635   -0.0442    1.9186 H   0  0  0  0  0  0  0  0  0  0  0  0
   -4.6862    0.1836    0.9249 H   0  0  0  0  0  0  0  0  0  0  0  0
   -2.9319   -2.3069    0.9993 H   0  0  0  0  0  0  0  0  0  0  0  0
   -4.5785   -2.0864    1.5552 H   0  0  0  0  0  0  0  0  0  0  0  0
   -4.4500   -3.1568   -0.5648 H   0  0  0  0  0  0  0  0  0  0  0  0
   -3.9597   -1.9530   -2.5367 H   0  0  0  0  0  0  0  0  0  0  0  0
   -2.5262   -2.1517   -1.5350 H   0  0  0  0  0  0  0  0  0  0  0  0
   -4.3673    0.2741   -1.7554 H   0  0  0  0  0  0  0  0  0  0  0  0
   -2.7453    0.1437   -2.4072 H   0  0  0  0  0  0  0  0  0  0  0  0
   -2.9369    2.3333   -2.2925 H   0  0  0  0  0  0  0  0  0  0  0  0
   -3.6114    4.6483   -2.2280 H   0  0  0  0  0  0  0  0  0  0  0  0
   -4.0933    4.4102    2.0485 H   0  0  0  0  0  0  0  0  0  0  0  0
   -3.4001    2.0977    2.0079 H   0  0  0  0  0  0  0  0  0  0  0  0
   -5.7599    6.3011    1.6349 H   0  0  0  0  0  0  0  0  0  0  0  0
   -5.7797    8.7531    0.9233 H   0  0  0  0  0  0  0  0  0  0  0  0
   -3.1857    7.1670   -1.7222 H   0  0  0  0  0  0  0  0  0  0  0  0
  1  2  2  0  0  0  0
  1 24  1  0  0  0  0
  2  3  1  0  0  0  0
  2 25  1  0  0  0  0
  3  4  2  0  0  0  0
  3 26  1  0  0  0  0
  4  5  1  0  0  0  0
  4  7  1  0  0  0  0
  5  6  2  0  0  0  0
  5 27  1  0  0  0  0
  6  1  1  0  0  0  0
  6 28  1  0  0  0  0
  7  8  1  0  0  0  0
  7  9  1  0  0  0  0
  8 14  2  0  0  0  0
  9 10  1  0  0  0  0
  9 29  1  0  0  0  0
  9 30  1  0  0  0  0
 10 11  1  0  0  0  0
 10 31  1  0  0  0  0
 10 32  1  0  0  0  0
 11 12  1  0  0  0  0
 11 33  1  0  0  0  0
 12 13  1  0  0  0  0
 12 34  1  0  0  0  0
 12 35  1  0  0  0  0
 13  7  1  0  0  0  0
 13 36  1  0  0  0  0
 13 37  1  0  0  0  0
 14 15  1  0  0  0  0
 14 38  1  0  0  0  0
 15 16  2  0  0  0  0
 15 39  1  0  0  0  0
 16 17  1  0  0  0  0
 16 19  1  0  0  0  0
 17 18  2  0  0  0  0
 17 40  1  0  0  0  0
 18  8  1  0  0  0  0
 18 41  1  0  0  0  0
 19 20  2  0  0  0  0
 20 21  1  0  0  0  0
 20 42  1  0  0  0  0
 21 22  1  0  0  0  0
 21 43  1  0  0  0  0
 22 23  2  0  0  0  0
 23 19  1  0  0  0  0
 23 44  1  0  0  0  0
M  END
>  <Mol_ID>
325

>  <Formula>
C20H20ClN3

>  <MolWeight>
337.8459

>  <Cat>
S1558

>  <Name>
AT7867

>  <Synonyms>
N/A

>  <Target>
Akt,S6 Kinase

>  <Form>
free base

>  <CAS>
857531-00-1

>  <URL>
http://selleckchem.com/products/AT7867.html

$$$$
