AT9283.cdx
 OpenBabel08302521353D

 51 55  0  0  0  0  0  0  0  0999 V2000
    7.1699   -3.1943   -0.7323 N   0  0  0  0  0  0  0  0  0  0  0  0
    6.5825   -4.4270   -0.8159 C   0  0  0  0  0  0  0  0  0  0  0  0
    7.2153   -5.4499   -1.0931 O   0  0  0  0  0  0  0  0  0  0  0  0
    5.2276   -4.4940   -0.6782 N   0  0  0  0  0  0  0  0  0  0  0  0
    3.2869   -1.6793    0.2596 N   0  0  0  0  0  0  0  0  0  0  0  0
    2.4946   -2.1361   -0.7332 N   0  0  0  0  0  0  0  0  0  0  0  0
    3.0769   -3.2914   -1.0819 C   0  0  0  0  0  0  0  0  0  0  0  0
    4.3258   -3.4747   -0.4328 C   0  0  0  0  0  0  0  0  0  0  0  0
    4.4224   -2.4184    0.4421 C   0  0  0  0  0  0  0  0  0  0  0  0
    2.5557   -4.1881   -2.1492 C   0  0  0  0  0  0  0  0  0  0  0  0
    1.7171   -3.7817   -3.1548 N   0  0  0  0  0  0  0  0  0  0  0  0
    1.6682   -4.7864   -4.0901 C   0  0  0  0  0  0  0  0  0  0  0  0
    2.3777   -5.8292   -3.5050 C   0  0  0  0  0  0  0  0  0  0  0  0
    2.9294   -5.4428   -2.3119 N   0  0  0  0  0  0  0  0  0  0  0  0
    2.5128   -7.0458   -4.1862 C   0  0  0  0  0  0  0  0  0  0  0  0
    2.0195   -7.1527   -5.4984 C   0  0  0  0  0  0  0  0  0  0  0  0
    1.3300   -6.0689   -6.0675 C   0  0  0  0  0  0  0  0  0  0  0  0
    1.1182   -4.8694   -5.3696 C   0  0  0  0  0  0  0  0  0  0  0  0
    2.3627   -8.3798   -6.3198 C   0  0  0  0  0  0  0  0  0  0  0  0
   -1.0384   -9.8431   -4.8440 O   0  0  0  0  0  0  0  0  0  0  0  0
   -0.9808   -8.9239   -5.9402 C   0  0  0  0  0  0  0  0  0  0  0  0
    0.1331   -9.2927   -6.9342 C   0  0  0  0  0  0  0  0  0  0  0  0
    1.4514   -9.5111   -6.3288 N   0  0  0  0  0  0  0  0  0  0  0  0
    1.3584  -10.2875   -5.0848 C   0  0  0  0  0  0  0  0  0  0  0  0
    0.2162   -9.8597   -4.1509 C   0  0  0  0  0  0  0  0  0  0  0  0
    8.5511   -2.9884   -1.0319 C   0  0  0  0  0  0  0  0  0  0  0  0
    9.5342   -2.9570    0.1013 C   0  0  0  0  0  0  0  0  0  0  0  0
    9.2582   -1.7066   -0.6841 C   0  0  0  0  0  0  0  0  0  0  0  0
    6.5773   -2.3846   -0.6407 H   0  0  0  0  0  0  0  0  0  0  0  0
    4.8378   -5.3182   -1.1377 H   0  0  0  0  0  0  0  0  0  0  0  0
    2.9986   -0.8468    0.7603 H   0  0  0  0  0  0  0  0  0  0  0  0
    5.1543   -2.1507    1.1900 H   0  0  0  0  0  0  0  0  0  0  0  0
    1.3619   -2.8414   -3.2500 H   0  0  0  0  0  0  0  0  0  0  0  0
    3.0659   -7.8544   -3.7192 H   0  0  0  0  0  0  0  0  0  0  0  0
    0.9751   -6.1391   -7.0958 H   0  0  0  0  0  0  0  0  0  0  0  0
    0.6076   -4.0314   -5.8328 H   0  0  0  0  0  0  0  0  0  0  0  0
    2.5274   -8.0548   -7.3628 H   0  0  0  0  0  0  0  0  0  0  0  0
    3.3549   -8.7295   -6.0095 H   0  0  0  0  0  0  0  0  0  0  0  0
   -0.8582   -7.9093   -5.5501 H   0  0  0  0  0  0  0  0  0  0  0  0
   -1.9485   -8.9642   -6.4508 H   0  0  0  0  0  0  0  0  0  0  0  0
   -0.1507  -10.2428   -7.4068 H   0  0  0  0  0  0  0  0  0  0  0  0
    0.1806   -8.5607   -7.7454 H   0  0  0  0  0  0  0  0  0  0  0  0
    1.1680  -11.3270   -5.3812 H   0  0  0  0  0  0  0  0  0  0  0  0
    2.3105  -10.3009   -4.5485 H   0  0  0  0  0  0  0  0  0  0  0  0
    0.1284  -10.5775   -3.3304 H   0  0  0  0  0  0  0  0  0  0  0  0
    0.3916   -8.8748   -3.7032 H   0  0  0  0  0  0  0  0  0  0  0  0
    8.8665   -3.4685   -1.9575 H   0  0  0  0  0  0  0  0  0  0  0  0
    9.1380   -3.0315    1.1067 H   0  0  0  0  0  0  0  0  0  0  0  0
   10.4706   -3.4798   -0.0490 H   0  0  0  0  0  0  0  0  0  0  0  0
   10.0407   -1.3587   -1.3504 H   0  0  0  0  0  0  0  0  0  0  0  0
    8.6985   -0.9148   -0.2055 H   0  0  0  0  0  0  0  0  0  0  0  0
  1  2  1  0  0  0  0
  1 26  1  0  0  0  0
  1 29  1  0  0  0  0
  2  3  2  0  0  0  0
  2  4  1  0  0  0  0
  4  8  1  0  0  0  0
  4 30  1  0  0  0  0
  5  6  1  0  0  0  0
  5  9  1  0  0  0  0
  5 31  1  0  0  0  0
  6  7  2  0  0  0  0
  7  8  1  0  0  0  0
  7 10  1  0  0  0  0
  8  9  2  0  0  0  0
  9 32  1  0  0  0  0
 10 11  1  0  0  0  0
 10 14  2  0  0  0  0
 11 12  1  0  0  0  0
 11 33  1  0  0  0  0
 12 13  2  0  0  0  0
 12 18  1  0  0  0  0
 13 14  1  0  0  0  0
 13 15  1  0  0  0  0
 15 16  2  0  0  0  0
 15 34  1  0  0  0  0
 16 17  1  0  0  0  0
 16 19  1  0  0  0  0
 17 18  2  0  0  0  0
 17 35  1  0  0  0  0
 18 36  1  0  0  0  0
 19 23  1  0  0  0  0
 19 37  1  0  0  0  0
 19 38  1  0  0  0  0
 20 21  1  0  0  0  0
 20 25  1  0  0  0  0
 21 22  1  0  0  0  0
 21 39  1  0  0  0  0
 21 40  1  0  0  0  0
 22 23  1  0  0  0  0
 22 41  1  0  0  0  0
 22 42  1  0  0  0  0
 23 24  1  0  0  0  0
 24 25  1  0  0  0  0
 24 43  1  0  0  0  0
 24 44  1  0  0  0  0
 25 45  1  0  0  0  0
 25 46  1  0  0  0  0
 26 27  1  0  0  0  0
 26 28  1  0  0  0  0
 26 47  1  0  0  0  0
 27 28  1  0  0  0  0
 27 48  1  0  0  0  0
 27 49  1  0  0  0  0
 28 50  1  0  0  0  0
 28 51  1  0  0  0  0
M  END
>  <Mol_ID>
79

>  <Formula>
C19H23N7O2

>  <MolWeight>
381.43162

>  <Cat>
S1134

>  <Name>
AT9283

>  <Synonyms>
N/A

>  <Target>
Aurora Kinase,Bcr-Abl,JAK

>  <Form>
free base

>  <CAS>
896466-04-9

>  <URL>
http://selleckchem.com/products/AT9283.html

$$$$
