Atomoxetine hydrochloride.cdx
 OpenBabel08302521333D

 40 41  0  0  0  0  0  0  0  0999 V2000
    1.0020    1.2452    4.1436 C   0  0  0  0  0  0  0  0  0  0  0  0
    0.5069    0.7605    2.7686 C   0  0  0  0  0  0  0  0  0  0  0  0
    0.8713    1.6950    1.5991 C   0  0  2  0  0  0  0  0  0  0  0  0
    0.4190    2.5339    4.5414 N   0  0  0  0  0  0  0  0  0  0  0  0
    0.1174    1.3127    0.3292 C   0  0  0  0  0  0  0  0  0  0  0  0
    0.7250    0.5894   -0.7090 C   0  0  0  0  0  0  0  0  0  0  0  0
    0.0583    0.3829   -1.9169 C   0  0  0  0  0  0  0  0  0  0  0  0
   -1.2372    0.8639   -2.0889 C   0  0  0  0  0  0  0  0  0  0  0  0
   -1.8745    1.5353   -1.0478 C   0  0  0  0  0  0  0  0  0  0  0  0
   -1.2026    1.7583    0.1546 C   0  0  0  0  0  0  0  0  0  0  0  0
    2.2998    1.6923    1.3927 O   0  0  0  0  0  0  0  0  0  0  0  0
    2.8451    2.6937    0.6141 C   0  0  0  0  0  0  0  0  0  0  0  0
    4.1164    2.4614    0.0628 C   0  0  0  0  0  0  0  0  0  0  0  0
    4.7400    3.4841   -0.6811 C   0  0  0  0  0  0  0  0  0  0  0  0
    4.0967    4.6943   -0.9207 C   0  0  0  0  0  0  0  0  0  0  0  0
    2.8185    4.8953   -0.4293 C   0  0  0  0  0  0  0  0  0  0  0  0
    2.2039    3.9069    0.3463 C   0  0  0  0  0  0  0  0  0  0  0  0
    4.8251    1.1391    0.1357 C   0  0  0  0  0  0  0  0  0  0  0  0
    0.8576    2.9199    5.8802 C   0  0  0  0  0  0  0  0  0  0  0  0
    2.0957    1.3035    4.1477 H   0  0  0  0  0  0  0  0  0  0  0  0
    0.7079    0.4874    4.8815 H   0  0  0  0  0  0  0  0  0  0  0  0
    0.9313   -0.2357    2.5898 H   0  0  0  0  0  0  0  0  0  0  0  0
   -0.5832    0.6339    2.8224 H   0  0  0  0  0  0  0  0  0  0  0  0
    0.5480    2.6960    1.8960 H   0  0  0  0  0  0  0  0  0  0  0  0
    0.7301    3.2621    3.8998 H   0  0  0  0  0  0  0  0  0  0  0  0
    1.7434    0.2217   -0.6030 H   0  0  0  0  0  0  0  0  0  0  0  0
    0.5605   -0.1356   -2.7293 H   0  0  0  0  0  0  0  0  0  0  0  0
   -1.7482    0.7190   -3.0366 H   0  0  0  0  0  0  0  0  0  0  0  0
   -2.8882    1.9032   -1.1783 H   0  0  0  0  0  0  0  0  0  0  0  0
   -1.7058    2.3055    0.9494 H   0  0  0  0  0  0  0  0  0  0  0  0
    5.7327    3.3275   -1.0952 H   0  0  0  0  0  0  0  0  0  0  0  0
    4.5824    5.4661   -1.5129 H   0  0  0  0  0  0  0  0  0  0  0  0
    2.2866    5.8173   -0.6436 H   0  0  0  0  0  0  0  0  0  0  0  0
    1.2043    4.1317    0.7001 H   0  0  0  0  0  0  0  0  0  0  0  0
    4.9504    0.7421   -0.8800 H   0  0  0  0  0  0  0  0  0  0  0  0
    5.8156    1.2586    0.5859 H   0  0  0  0  0  0  0  0  0  0  0  0
    4.2747    0.3910    0.7107 H   0  0  0  0  0  0  0  0  0  0  0  0
    1.9391    3.0888    5.9093 H   0  0  0  0  0  0  0  0  0  0  0  0
    0.3663    3.8562    6.1660 H   0  0  0  0  0  0  0  0  0  0  0  0
    0.5894    2.1665    6.6271 H   0  0  0  0  0  0  0  0  0  0  0  0
  1  2  1  0  0  0  0
  1  4  1  0  0  0  0
  1 20  1  0  0  0  0
  1 21  1  0  0  0  0
  2 22  1  0  0  0  0
  2 23  1  0  0  0  0
  3 11  1  0  0  0  0
  3 24  1  1  0  0  0
  3  5  1  0  0  0  0
  3  2  1  0  0  0  0
  4 19  1  0  0  0  0
  4 25  1  0  0  0  0
  5  6  2  0  0  0  0
  5 10  1  0  0  0  0
  6  7  1  0  0  0  0
  6 26  1  0  0  0  0
  7  8  2  0  0  0  0
  7 27  1  0  0  0  0
  8  9  1  0  0  0  0
  8 28  1  0  0  0  0
  9 10  2  0  0  0  0
  9 29  1  0  0  0  0
 10 30  1  0  0  0  0
 11 12  1  0  0  0  0
 12 13  2  0  0  0  0
 12 17  1  0  0  0  0
 13 14  1  0  0  0  0
 13 18  1  0  0  0  0
 14 15  2  0  0  0  0
 14 31  1  0  0  0  0
 15 16  1  0  0  0  0
 15 32  1  0  0  0  0
 16 17  2  0  0  0  0
 16 33  1  0  0  0  0
 17 34  1  0  0  0  0
 18 35  1  0  0  0  0
 18 36  1  0  0  0  0
 18 37  1  0  0  0  0
 19 38  1  0  0  0  0
 19 39  1  0  0  0  0
 19 40  1  0  0  0  0
M  END
>  <Mol_ID>
613

>  <Formula>
C17H22ClNO

>  <MolWeight>
291.81568

>  <Cat>
S3175

>  <Name>
Atomoxetine HCl

>  <Synonyms>
LY 139603 HCl

>  <Target>
5-HT Receptor

>  <Form>
HCl

>  <CAS>
82248-59-7

>  <URL>
http://selleckchem.com/products/atomoxetine-hydrochloride.html

$$$$
