Atractylodin
 OpenBabel08302521313D

 24 24  0  0  0  0  0  0  0  0999 V2000
   -1.0788    0.1142   -0.0122 O   0  0  0  0  0  0  0  0  0  0  0  0
   -0.2153    1.1908   -0.0127 C   0  0  0  0  0  0  0  0  0  0  0  0
    1.0786    0.6799   -0.0037 C   0  0  0  0  0  0  0  0  0  0  0  0
    0.9955   -0.7320    0.0003 C   0  0  0  0  0  0  0  0  0  0  0  0
   -0.3427   -1.0253   -0.0051 C   0  0  0  0  0  0  0  0  0  0  0  0
   -0.6210    2.5551   -0.0195 C   0  0  0  0  0  0  0  0  0  0  0  0
   -1.9131    2.9103   -0.0275 C   0  0  0  0  0  0  0  0  0  0  0  0
   -4.5564   11.9017    1.0363 C   0  0  0  0  0  0  0  0  0  0  0  0
   -4.1633   10.4610    1.0070 C   0  0  0  0  0  0  0  0  0  0  0  0
   -2.3037    4.3792   -0.0438 C   0  0  0  0  0  0  0  0  0  0  0  0
   -3.7553    9.8368   -0.1041 C   0  0  0  0  0  0  0  0  0  0  0  0
   -3.3646    8.3680   -0.0879 C   0  0  0  0  0  0  0  0  0  0  0  0
   -2.6388    5.6392   -0.0577 C   0  0  0  0  0  0  0  0  0  0  0  0
   -3.0295    7.1080   -0.0739 C   0  0  0  0  0  0  0  0  0  0  0  0
    1.9828    1.2737   -0.0017 H   0  0  0  0  0  0  0  0  0  0  0  0
    1.8088   -1.4437    0.0064 H   0  0  0  0  0  0  0  0  0  0  0  0
   -0.9071   -1.9475   -0.0058 H   0  0  0  0  0  0  0  0  0  0  0  0
    0.1541    3.3158   -0.0212 H   0  0  0  0  0  0  0  0  0  0  0  0
   -2.7247    2.1892   -0.0270 H   0  0  0  0  0  0  0  0  0  0  0  0
   -5.5940   11.9996    1.3694 H   0  0  0  0  0  0  0  0  0  0  0  0
   -3.9154   12.4503    1.7329 H   0  0  0  0  0  0  0  0  0  0  0  0
   -4.4696   12.3728    0.0515 H   0  0  0  0  0  0  0  0  0  0  0  0
   -4.2210    9.9174    1.9471 H   0  0  0  0  0  0  0  0  0  0  0  0
   -3.6831   10.3404   -1.0632 H   0  0  0  0  0  0  0  0  0  0  0  0
  1  2  1  0  0  0  0
  1  5  1  0  0  0  0
  2  3  2  0  0  0  0
  2  6  1  0  0  0  0
  3  4  1  0  0  0  0
  3 15  1  0  0  0  0
  4  5  2  0  0  0  0
  4 16  1  0  0  0  0
  5 17  1  0  0  0  0
  6  7  2  0  0  0  0
  6 18  1  0  0  0  0
  7 10  1  0  0  0  0
  7 19  1  0  0  0  0
  8  9  1  0  0  0  0
  8 20  1  0  0  0  0
  8 21  1  0  0  0  0
  8 22  1  0  0  0  0
  9 11  2  0  0  0  0
  9 23  1  0  0  0  0
 10 13  3  0  0  0  0
 11 12  1  0  0  0  0
 11 24  1  0  0  0  0
 12 14  3  0  0  0  0
 13 14  1  0  0  0  0
M  END
>  <Mol_ID>
5819

>  <Formula>
C13H10O

>  <MolWeight>
182.2179

>  <Cat>
E0008

>  <Name>
Atractylodin

>  <Synonyms>
Atractydin

>  <Target>
Interleukins

>  <Form>
Free Base

>  <CAS>
55290-63-6

>  <URL>
http://www.selleckchem.com/products/atractylodin.html

$$$$
