Atraric acid
 OpenBabel08302521363D

 26 26  0  0  0  0  0  0  0  0999 V2000
    1.1565    0.0740   -0.0556 C   0  0  0  0  0  0  0  0  0  0  0  0
    0.5290    1.2671   -0.0207 O   0  0  0  0  0  0  0  0  0  0  0  0
    0.5638   -1.0002   -0.0933 O   0  0  0  0  0  0  0  0  0  0  0  0
   -0.9003    1.1822   -0.0324 C   0  0  0  0  0  0  0  0  0  0  0  0
    2.6581   -2.3247   -0.0511 O   0  0  0  0  0  0  0  0  0  0  0  0
    2.9773    2.7422   -0.0261 C   0  0  0  0  0  0  0  0  0  0  0  0
    5.4218   -2.5802   -0.0273 C   0  0  0  0  0  0  0  0  0  0  0  0
    6.8505   -0.0339   -0.0086 O   0  0  0  0  0  0  0  0  0  0  0  0
    2.6602    0.1355   -0.0380 C   0  0  0  0  0  0  0  0  0  0  0  0
    3.3367   -1.1229   -0.0389 C   0  0  0  0  0  0  0  0  0  0  0  0
    3.4473    1.3108   -0.0238 C   0  0  0  0  0  0  0  0  0  0  0  0
    4.7426   -1.2374   -0.0269 C   0  0  0  0  0  0  0  0  0  0  0  0
    4.8551    1.1795   -0.0157 C   0  0  0  0  0  0  0  0  0  0  0  0
    5.4854   -0.0610   -0.0170 C   0  0  0  0  0  0  0  0  0  0  0  0
   -1.2500    0.7074   -0.9543 H   0  0  0  0  0  0  0  0  0  0  0  0
   -1.2596    0.6340    0.8451 H   0  0  0  0  0  0  0  0  0  0  0  0
   -1.3054    2.1975    0.0079 H   0  0  0  0  0  0  0  0  0  0  0  0
    1.6905   -2.1554   -0.0715 H   0  0  0  0  0  0  0  0  0  0  0  0
    3.3964    3.2617    0.8443 H   0  0  0  0  0  0  0  0  0  0  0  0
    3.3409    3.2413   -0.9320 H   0  0  0  0  0  0  0  0  0  0  0  0
    1.9065    2.8983    0.0125 H   0  0  0  0  0  0  0  0  0  0  0  0
    6.0509   -2.6803   -0.9186 H   0  0  0  0  0  0  0  0  0  0  0  0
    6.0440   -2.6838    0.8678 H   0  0  0  0  0  0  0  0  0  0  0  0
    4.7235   -3.4213   -0.0313 H   0  0  0  0  0  0  0  0  0  0  0  0
    7.1963   -0.9416   -0.0122 H   0  0  0  0  0  0  0  0  0  0  0  0
    5.4834    2.0707   -0.0094 H   0  0  0  0  0  0  0  0  0  0  0  0
  1  2  1  0  0  0  0
  1  3  2  0  0  0  0
  1  9  1  0  0  0  0
  2  4  1  0  0  0  0
  4 15  1  0  0  0  0
  4 16  1  0  0  0  0
  4 17  1  0  0  0  0
  5 10  1  0  0  0  0
  5 18  1  0  0  0  0
  6 11  1  0  0  0  0
  6 19  1  0  0  0  0
  6 20  1  0  0  0  0
  6 21  1  0  0  0  0
  7 12  1  0  0  0  0
  7 22  1  0  0  0  0
  7 23  1  0  0  0  0
  7 24  1  0  0  0  0
  8 14  1  0  0  0  0
  8 25  1  0  0  0  0
  9 10  2  0  0  0  0
  9 11  1  0  0  0  0
 10 12  1  0  0  0  0
 11 13  2  0  0  0  0
 12 14  2  0  0  0  0
 13 14  1  0  0  0  0
 13 26  1  0  0  0  0
M  END
>  <Mol_ID>
7295

>  <Formula>
C10H12O4

>  <MolWeight>
196.19988

>  <Cat>
E4323

>  <Name>
Atraric acid

>  <Synonyms>
Atraric acid

>  <Target>
Androgen Receptor;phosphatase

>  <Form>
free base

>  <CAS>
4707-47-5

>  <URL>
https://www.selleckchem.com/products/atraric-acid.html

$$$$
