Atuveciclib (BAY-1143572)
 OpenBabel08302521043D

 45 47  0  0  0  0  0  0  0  0999 V2000
   -1.0937   -3.1089    0.6819 C   0  0  0  0  0  0  0  0  0  0  0  0
   -0.2395   -3.0377   -0.3998 C   0  0  0  0  0  0  0  0  0  0  0  0
   -0.4533   -2.1137   -1.4148 C   0  0  0  0  0  0  0  0  0  0  0  0
   -1.5513   -1.2387   -1.3692 C   0  0  0  0  0  0  0  0  0  0  0  0
   -2.4418   -1.2699   -0.2690 C   0  0  0  0  0  0  0  0  0  0  0  0
   -2.1754   -2.2320    0.7446 C   0  0  0  0  0  0  0  0  0  0  0  0
    0.8101   -3.8641   -0.4711 F   0  0  0  0  0  0  0  0  0  0  0  0
   -1.7624   -0.2926   -2.3492 O   0  0  0  0  0  0  0  0  0  0  0  0
   -3.6365   -0.4031   -0.0983 C   0  0  0  0  0  0  0  0  0  0  0  0
   -4.2896    0.0581   -1.1696 N   0  0  0  0  0  0  0  0  0  0  0  0
   -5.4609    0.6444   -0.9242 C   0  0  0  0  0  0  0  0  0  0  0  0
   -5.9802    0.8014    0.2936 N   0  0  0  0  0  0  0  0  0  0  0  0
   -5.2354    0.3533    1.2881 C   0  0  0  0  0  0  0  0  0  0  0  0
   -4.0717   -0.2613    1.1614 N   0  0  0  0  0  0  0  0  0  0  0  0
   -6.1723    1.1322   -2.0223 N   0  0  0  0  0  0  0  0  0  0  0  0
   -7.5619    1.1528   -2.2304 C   0  0  0  0  0  0  0  0  0  0  0  0
   -8.4551    0.3691   -1.4821 C   0  0  0  0  0  0  0  0  0  0  0  0
   -9.8457    0.4178   -1.6931 C   0  0  0  0  0  0  0  0  0  0  0  0
  -10.3382    1.2714   -2.6854 C   0  0  0  0  0  0  0  0  0  0  0  0
   -9.4699    2.0816   -3.4151 C   0  0  0  0  0  0  0  0  0  0  0  0
   -8.0929    2.0201   -3.1900 C   0  0  0  0  0  0  0  0  0  0  0  0
  -10.7565   -0.4768   -0.8902 C   0  0  0  0  0  0  0  0  0  0  0  0
  -11.9009    0.4637    0.1335 S   0  0  3  0  0  0  0  0  0  0  0  0
  -12.7462    1.2712   -0.7252 O   0  0  0  0  0  0  0  0  0  0  0  0
  -12.4953   -0.5297    1.1617 N   0  0  0  0  0  0  0  0  0  0  0  0
  -10.8585    1.5741    1.0616 C   0  0  0  0  0  0  0  0  0  0  0  0
   -1.1811   -0.5638   -3.6240 C   0  0  0  0  0  0  0  0  0  0  0  0
   -0.9193   -3.8333    1.4693 H   0  0  0  0  0  0  0  0  0  0  0  0
    0.2744   -2.0994   -2.2173 H   0  0  0  0  0  0  0  0  0  0  0  0
   -2.8358   -2.3061    1.6086 H   0  0  0  0  0  0  0  0  0  0  0  0
   -5.6213    0.4843    2.2929 H   0  0  0  0  0  0  0  0  0  0  0  0
   -5.6111    1.0696   -2.8590 H   0  0  0  0  0  0  0  0  0  0  0  0
   -8.0606   -0.3192   -0.7371 H   0  0  0  0  0  0  0  0  0  0  0  0
  -11.4064    1.3285   -2.8929 H   0  0  0  0  0  0  0  0  0  0  0  0
   -9.8689    2.7681   -4.1581 H   0  0  0  0  0  0  0  0  0  0  0  0
   -7.4367    2.6745   -3.7588 H   0  0  0  0  0  0  0  0  0  0  0  0
  -11.3471   -1.1155   -1.5545 H   0  0  0  0  0  0  0  0  0  0  0  0
  -10.1829   -1.1209   -0.2139 H   0  0  0  0  0  0  0  0  0  0  0  0
  -13.2142   -1.1136    0.7279 H   0  0  0  0  0  0  0  0  0  0  0  0
  -10.1558    0.9903    1.6591 H   0  0  0  0  0  0  0  0  0  0  0  0
  -10.3271    2.2352    0.3761 H   0  0  0  0  0  0  0  0  0  0  0  0
  -11.5006    2.1739    1.7113 H   0  0  0  0  0  0  0  0  0  0  0  0
   -0.0892   -0.4914   -3.5903 H   0  0  0  0  0  0  0  0  0  0  0  0
   -1.4987   -1.5419   -4.0011 H   0  0  0  0  0  0  0  0  0  0  0  0
   -1.5317    0.1980   -4.3275 H   0  0  0  0  0  0  0  0  0  0  0  0
  1  2  2  0  0  0  0
  1 28  1  0  0  0  0
  2  3  1  0  0  0  0
  2  7  1  0  0  0  0
  3  4  2  0  0  0  0
  3 29  1  0  0  0  0
  4  5  1  0  0  0  0
  4  8  1  0  0  0  0
  5  6  2  0  0  0  0
  5  9  1  0  0  0  0
  6  1  1  0  0  0  0
  6 30  1  0  0  0  0
  8 27  1  0  0  0  0
  9 10  2  0  0  0  0
 10 11  1  0  0  0  0
 11 12  2  0  0  0  0
 11 15  1  0  0  0  0
 12 13  1  0  0  0  0
 13 14  2  0  0  0  0
 13 31  1  0  0  0  0
 14  9  1  0  0  0  0
 15 16  1  0  0  0  0
 15 32  1  0  0  0  0
 16 17  2  0  0  0  0
 17 18  1  0  0  0  0
 17 33  1  0  0  0  0
 18 19  2  0  0  0  0
 18 22  1  0  0  0  0
 19 20  1  0  0  0  0
 19 34  1  0  0  0  0
 20 21  2  0  0  0  0
 20 35  1  0  0  0  0
 21 16  1  0  0  0  0
 21 36  1  0  0  0  0
 22 23  1  0  0  0  0
 22 37  1  0  0  0  0
 22 38  1  0  0  0  0
 23 24  2  0  0  0  0
 23 25  2  0  0  0  0
 23 26  1  0  0  0  0
 25 39  1  0  0  0  0
 26 40  1  0  0  0  0
 26 41  1  0  0  0  0
 26 42  1  0  0  0  0
 27 43  1  0  0  0  0
 27 44  1  0  0  0  0
 27 45  1  0  0  0  0
M  END
>  <Mol_ID>
4305

>  <Formula>
C18H18FN5O2S

>  <MolWeight>
387.4312232

>  <Cat>
S8727

>  <Name>
Atuveciclib (BAY-1143572)

>  <Synonyms>
N/A

>  <Target>
CDK

>  <Form>
Free Base

>  <CAS>
1414943-88-6

>  <URL>
http://www.selleckchem.com/products/atuveciclib-bay-1143572.html

$$$$
