Aurora kinase Inhibitor II
 OpenBabel08302521323D

 50 53  0  0  0  0  0  0  0  0999 V2000
    1.0266   -0.2442   -0.1369 N   0  0  0  0  0  0  0  0  0  0  0  0
    3.9085   -4.2076   -0.1205 O   0  0  0  0  0  0  0  0  0  0  0  0
    4.8540   -5.2421   -0.1293 C   0  0  0  0  0  0  0  0  0  0  0  0
    2.4726   -6.1060    2.2244 O   0  0  0  0  0  0  0  0  0  0  0  0
    3.5344   -6.9638    1.9061 C   0  0  0  0  0  0  0  0  0  0  0  0
   -2.1064    3.5860   -2.8526 N   0  0  0  0  0  0  0  0  0  0  0  0
   -1.8671    4.9316   -3.0664 C   0  0  0  0  0  0  0  0  0  0  0  0
   -0.8557    5.5511   -2.7612 O   0  0  0  0  0  0  0  0  0  0  0  0
    1.1389   -2.3192    1.1389 C   0  0  0  0  0  0  0  0  0  0  0  0
    0.5453   -3.1059    2.1137 C   0  0  0  0  0  0  0  0  0  0  0  0
    0.5106   -1.0892    0.8800 C   0  0  0  0  0  0  0  0  0  0  0  0
    2.2769   -2.8177    0.4652 C   0  0  0  0  0  0  0  0  0  0  0  0
    1.1095   -4.3477    2.3644 C   0  0  0  0  0  0  0  0  0  0  0  0
   -0.5388   -2.7226    2.7975 N   0  0  0  0  0  0  0  0  0  0  0  0
   -0.5870   -0.6951    1.5531 N   0  0  0  0  0  0  0  0  0  0  0  0
    2.8591   -4.0805    0.7292 C   0  0  0  0  0  0  0  0  0  0  0  0
    2.2567   -4.8697    1.7062 C   0  0  0  0  0  0  0  0  0  0  0  0
   -1.0503   -1.5275    2.4875 C   0  0  0  0  0  0  0  0  0  0  0  0
    0.2843    0.7194   -0.8450 C   0  0  0  0  0  0  0  0  0  0  0  0
    0.8012    1.9894   -1.0936 C   0  0  0  0  0  0  0  0  0  0  0  0
   -0.9983    0.4207   -1.3228 C   0  0  0  0  0  0  0  0  0  0  0  0
    0.0348    2.9583   -1.7610 C   0  0  0  0  0  0  0  0  0  0  0  0
   -1.7523    1.3731   -2.0115 C   0  0  0  0  0  0  0  0  0  0  0  0
   -1.2529    2.6624   -2.2112 C   0  0  0  0  0  0  0  0  0  0  0  0
   -2.9598    5.6751   -3.7585 C   0  0  0  0  0  0  0  0  0  0  0  0
   -4.3158    5.3736   -3.5781 C   0  0  0  0  0  0  0  0  0  0  0  0
   -2.5922    6.7276   -4.6060 C   0  0  0  0  0  0  0  0  0  0  0  0
   -5.2882    6.0931   -4.2810 C   0  0  0  0  0  0  0  0  0  0  0  0
   -3.5648    7.4427   -5.3055 C   0  0  0  0  0  0  0  0  0  0  0  0
   -4.9113    7.1173   -5.1504 C   0  0  0  0  0  0  0  0  0  0  0  0
    1.9792    0.0313    0.0689 H   0  0  0  0  0  0  0  0  0  0  0  0
    5.3764   -5.3198    0.8239 H   0  0  0  0  0  0  0  0  0  0  0  0
    4.4098   -6.1735   -0.4770 H   0  0  0  0  0  0  0  0  0  0  0  0
    5.6149   -4.9790   -0.8724 H   0  0  0  0  0  0  0  0  0  0  0  0
    3.4688   -7.3048    0.8739 H   0  0  0  0  0  0  0  0  0  0  0  0
    4.4946   -6.5254    2.1764 H   0  0  0  0  0  0  0  0  0  0  0  0
    3.4262   -7.8593    2.5275 H   0  0  0  0  0  0  0  0  0  0  0  0
   -2.9794    3.2094   -3.1936 H   0  0  0  0  0  0  0  0  0  0  0  0
    2.7254   -2.2073   -0.3206 H   0  0  0  0  0  0  0  0  0  0  0  0
    0.6200   -4.9674    3.1184 H   0  0  0  0  0  0  0  0  0  0  0  0
   -1.9229   -1.2050    3.0444 H   0  0  0  0  0  0  0  0  0  0  0  0
    1.7957    2.2630   -0.7469 H   0  0  0  0  0  0  0  0  0  0  0  0
   -1.4182   -0.5678   -1.1571 H   0  0  0  0  0  0  0  0  0  0  0  0
    0.4785    3.9369   -1.9110 H   0  0  0  0  0  0  0  0  0  0  0  0
   -2.7396    1.0895   -2.3622 H   0  0  0  0  0  0  0  0  0  0  0  0
   -4.6375    4.6086   -2.8778 H   0  0  0  0  0  0  0  0  0  0  0  0
   -1.5423    6.9897   -4.7261 H   0  0  0  0  0  0  0  0  0  0  0  0
   -6.3425    5.8625   -4.1451 H   0  0  0  0  0  0  0  0  0  0  0  0
   -3.2697    8.2524   -5.9674 H   0  0  0  0  0  0  0  0  0  0  0  0
   -5.6680    7.6729   -5.6994 H   0  0  0  0  0  0  0  0  0  0  0  0
  1 11  1  0  0  0  0
  1 19  1  0  0  0  0
  1 31  1  0  0  0  0
  2  3  1  0  0  0  0
  2 16  1  0  0  0  0
  3 32  1  0  0  0  0
  3 33  1  0  0  0  0
  3 34  1  0  0  0  0
  4  5  1  0  0  0  0
  4 17  1  0  0  0  0
  5 35  1  0  0  0  0
  5 36  1  0  0  0  0
  5 37  1  0  0  0  0
  6  7  1  0  0  0  0
  6 24  1  0  0  0  0
  6 38  1  0  0  0  0
  7  8  2  0  0  0  0
  7 25  1  0  0  0  0
  9 10  1  0  0  0  0
  9 11  1  0  0  0  0
  9 12  2  0  0  0  0
 10 13  2  0  0  0  0
 10 14  1  0  0  0  0
 11 15  2  0  0  0  0
 12 16  1  0  0  0  0
 12 39  1  0  0  0  0
 13 17  1  0  0  0  0
 13 40  1  0  0  0  0
 14 18  2  0  0  0  0
 15 18  1  0  0  0  0
 16 17  2  0  0  0  0
 18 41  1  0  0  0  0
 19 20  2  0  0  0  0
 19 21  1  0  0  0  0
 20 22  1  0  0  0  0
 20 42  1  0  0  0  0
 21 23  2  0  0  0  0
 21 43  1  0  0  0  0
 22 24  2  0  0  0  0
 22 44  1  0  0  0  0
 23 24  1  0  0  0  0
 23 45  1  0  0  0  0
 25 26  2  0  0  0  0
 25 27  1  0  0  0  0
 26 28  1  0  0  0  0
 26 46  1  0  0  0  0
 27 29  2  0  0  0  0
 27 47  1  0  0  0  0
 28 30  2  0  0  0  0
 28 48  1  0  0  0  0
 29 30  1  0  0  0  0
 29 49  1  0  0  0  0
 30 50  1  0  0  0  0
M  END
>  <Mol_ID>
6253

>  <Formula>
C23H20N4O3

>  <MolWeight>
400.4299

>  <Cat>
E0342

>  <Name>
Aurora kinase Inhibitor II

>  <Target>
Aurora Kinase

>  <Form>
free base

>  <CAS>
331770-21-9

>  <URL>
http://www.selleckchem.com/products/aurora-kinase-inhibitor-ii.html

$$$$
