Autophinib.cdx
 OpenBabel08302520433D

 35 37  0  0  0  0  0  0  0  0999 V2000
    1.1315   -0.7272    0.0435 C   0  0  0  0  0  0  0  0  0  0  0  0
   -0.0629   -1.4252    0.0936 C   0  0  0  0  0  0  0  0  0  0  0  0
   -1.2205   -0.6808    0.1011 C   0  0  0  0  0  0  0  0  0  0  0  0
   -1.2372    0.6595    0.0838 N   0  0  0  0  0  0  0  0  0  0  0  0
   -0.0324    1.2507    0.0400 C   0  0  0  0  0  0  0  0  0  0  0  0
    1.1445    0.6160    0.0393 N   0  0  0  0  0  0  0  0  0  0  0  0
    2.3357   -1.4545   -0.0426 N   0  0  0  0  0  0  0  0  0  0  0  0
    0.0461    2.6340   -0.0254 O   0  0  0  0  0  0  0  0  0  0  0  0
   -0.8414    3.2808   -0.8558 C   0  0  0  0  0  0  0  0  0  0  0  0
   -1.2048    4.5784   -0.4809 C   0  0  0  0  0  0  0  0  0  0  0  0
   -2.1096    5.3071   -1.2589 C   0  0  0  0  0  0  0  0  0  0  0  0
   -2.6398    4.7306   -2.4210 C   0  0  0  0  0  0  0  0  0  0  0  0
   -2.2418    3.4503   -2.8254 C   0  0  0  0  0  0  0  0  0  0  0  0
   -1.3277    2.7378   -2.0502 C   0  0  0  0  0  0  0  0  0  0  0  0
   -3.6221    5.4680   -3.2227 N   0  3  0  0  0  0  0  0  0  0  0  0
   -3.9466    6.6035   -2.8382 O   0  0  0  0  0  0  0  0  0  0  0  0
   -4.0793    4.9131   -4.2314 O   0  5  0  0  0  0  0  0  0  0  0  0
    3.5442   -1.0358   -0.4765 C   0  0  0  0  0  0  0  0  0  0  0  0
    4.0026    0.2984   -0.5611 C   0  0  0  0  0  0  0  0  0  0  0  0
    5.2290    0.2325   -1.1805 C   0  0  0  0  0  0  0  0  0  0  0  0
    5.4607   -1.0991   -1.3708 N   0  0  0  0  0  0  0  0  0  0  0  0
    4.4639   -1.8887   -0.9379 N   0  0  0  0  0  0  0  0  0  0  0  0
    6.1636    1.2883   -1.6192 C   0  0  0  0  0  0  0  0  0  0  0  0
   -0.1020   -2.5062    0.0898 H   0  0  0  0  0  0  0  0  0  0  0  0
   -2.1960   -1.1581    0.1001 H   0  0  0  0  0  0  0  0  0  0  0  0
    2.2031   -2.4526   -0.1316 H   0  0  0  0  0  0  0  0  0  0  0  0
   -0.7915    5.0189    0.4240 H   0  0  0  0  0  0  0  0  0  0  0  0
   -2.3931    6.3092   -0.9437 H   0  0  0  0  0  0  0  0  0  0  0  0
   -2.6361    2.9912   -3.7304 H   0  0  0  0  0  0  0  0  0  0  0  0
   -1.0162    1.7507   -2.3838 H   0  0  0  0  0  0  0  0  0  0  0  0
    3.4926    1.2001   -0.2554 H   0  0  0  0  0  0  0  0  0  0  0  0
    6.2654   -1.5385   -1.8049 H   0  0  0  0  0  0  0  0  0  0  0  0
    7.1549    1.1391   -1.1818 H   0  0  0  0  0  0  0  0  0  0  0  0
    6.2580    1.2862   -2.7098 H   0  0  0  0  0  0  0  0  0  0  0  0
    5.8031    2.2771   -1.3160 H   0  0  0  0  0  0  0  0  0  0  0  0
  1  2  2  0  0  0  0
  1  7  1  0  0  0  0
  2  3  1  0  0  0  0
  2 24  1  0  0  0  0
  3  4  2  0  0  0  0
  3 25  1  0  0  0  0
  4  5  1  0  0  0  0
  5  6  2  0  0  0  0
  5  8  1  0  0  0  0
  6  1  1  0  0  0  0
  7 18  1  0  0  0  0
  7 26  1  0  0  0  0
  8  9  1  0  0  0  0
  9 10  2  0  0  0  0
 10 11  1  0  0  0  0
 10 27  1  0  0  0  0
 11 12  2  0  0  0  0
 11 28  1  0  0  0  0
 12 13  1  0  0  0  0
 12 15  1  0  0  0  0
 13 14  2  0  0  0  0
 13 29  1  0  0  0  0
 14  9  1  0  0  0  0
 14 30  1  0  0  0  0
 15 16  2  0  0  0  0
 15 17  1  0  0  0  0
 18 19  1  0  0  0  0
 19 20  2  0  0  0  0
 19 31  1  0  0  0  0
 20 21  1  0  0  0  0
 20 23  1  0  0  0  0
 21 22  1  0  0  0  0
 21 32  1  0  0  0  0
 22 18  2  0  0  0  0
 23 33  1  0  0  0  0
 23 34  1  0  0  0  0
 23 35  1  0  0  0  0
M  CHG  2  15   1  17  -1
M  END
>  <Mol_ID>
4150

>  <Formula>
C14H11ClN6O3

>  <MolWeight>
346.72854

>  <Cat>
S8596

>  <Name>
Autophinib

>  <Synonyms>
N/A

>  <Target>
Autophagy,PI3K

>  <Form>
free base

>  <CAS>
1644443-47-9

>  <URL>
http://selleckchem.com/products/autophinib.html

$$$$
