Auxinole
 OpenBabel08302521323D

 43 45  0  0  0  0  0  0  0  0999 V2000
    0.5863   -0.0678   -0.0022 C   0  0  3  0  0  0  0  0  0  0  0  0
    0.3375   -1.4931   -0.5096 C   0  0  0  0  0  0  0  0  0  0  0  0
   -0.1769    0.1976    1.2921 C   0  0  0  0  0  0  0  0  0  0  0  0
    0.3266    1.0148   -1.0316 C   0  0  0  0  0  0  0  0  0  0  0  0
    0.9700   -2.5070    0.4174 C   0  0  0  0  0  0  0  0  0  0  0  0
   -1.4986    0.4660    1.1471 O   0  0  0  0  0  0  0  0  0  0  0  0
    0.3565    0.1890    2.3945 O   0  0  0  0  0  0  0  0  0  0  0  0
    0.8677    2.3406   -0.9399 C   0  0  0  0  0  0  0  0  0  0  0  0
   -0.4083    0.9722   -2.2015 C   0  0  0  0  0  0  0  0  0  0  0  0
    0.2749   -2.9408    1.3413 O   0  0  0  0  0  0  0  0  0  0  0  0
    2.3872   -3.0262    0.2694 C   0  0  0  0  0  0  0  0  0  0  0  0
    0.4659    3.0444   -2.0713 C   0  0  0  0  0  0  0  0  0  0  0  0
    1.6775    2.9969    0.0124 C   0  0  0  0  0  0  0  0  0  0  0  0
   -0.3049    2.1929   -2.8206 N   0  0  0  0  0  0  0  0  0  0  0  0
    3.3086   -2.7859   -0.7712 C   0  0  0  0  0  0  0  0  0  0  0  0
    2.7892   -3.8902    1.3159 C   0  0  0  0  0  0  0  0  0  0  0  0
    0.8464    4.3761   -2.3070 C   0  0  0  0  0  0  0  0  0  0  0  0
    2.0636    4.3205   -0.2055 C   0  0  0  0  0  0  0  0  0  0  0  0
    3.1270   -1.8511   -1.9315 C   0  0  0  0  0  0  0  0  0  0  0  0
    4.5328   -3.5016   -0.7752 C   0  0  0  0  0  0  0  0  0  0  0  0
    4.0268   -4.5414    1.3198 C   0  0  0  0  0  0  0  0  0  0  0  0
    1.6559    4.9979   -1.3494 C   0  0  0  0  0  0  0  0  0  0  0  0
    4.9038   -4.3673    0.2580 C   0  0  0  0  0  0  0  0  0  0  0  0
    6.2262   -5.0733    0.2062 C   0  0  0  0  0  0  0  0  0  0  0  0
    1.6480    0.0116    0.2659 H   0  0  0  0  0  0  0  0  0  0  0  0
   -0.7397   -1.7089   -0.5344 H   0  0  0  0  0  0  0  0  0  0  0  0
    0.6635   -1.6606   -1.5366 H   0  0  0  0  0  0  0  0  0  0  0  0
   -1.7864    0.5250    0.2160 H   0  0  0  0  0  0  0  0  0  0  0  0
   -0.9760    0.1771   -2.6678 H   0  0  0  0  0  0  0  0  0  0  0  0
    2.0012    2.4821    0.9160 H   0  0  0  0  0  0  0  0  0  0  0  0
   -0.7261    2.4369   -3.7086 H   0  0  0  0  0  0  0  0  0  0  0  0
    2.1249   -4.0727    2.1617 H   0  0  0  0  0  0  0  0  0  0  0  0
    0.5284    4.9085   -3.1960 H   0  0  0  0  0  0  0  0  0  0  0  0
    2.6894    4.8235    0.5281 H   0  0  0  0  0  0  0  0  0  0  0  0
    4.1004   -1.5416   -2.3329 H   0  0  0  0  0  0  0  0  0  0  0  0
    2.5717   -2.3391   -2.7373 H   0  0  0  0  0  0  0  0  0  0  0  0
    2.6493   -0.9188   -1.6357 H   0  0  0  0  0  0  0  0  0  0  0  0
    5.2264   -3.3717   -1.6077 H   0  0  0  0  0  0  0  0  0  0  0  0
    4.2829   -5.1900    2.1546 H   0  0  0  0  0  0  0  0  0  0  0  0
    1.9701    6.0281   -1.5029 H   0  0  0  0  0  0  0  0  0  0  0  0
    6.2650   -5.7408   -0.6610 H   0  0  0  0  0  0  0  0  0  0  0  0
    7.0383   -4.3427    0.1313 H   0  0  0  0  0  0  0  0  0  0  0  0
    6.3996   -5.6752    1.1040 H   0  0  0  0  0  0  0  0  0  0  0  0
  1  2  1  0  0  0  0
  1  3  1  0  0  0  0
  1  4  1  0  0  0  0
  1 25  1  0  0  0  0
  2  5  1  0  0  0  0
  2 26  1  0  0  0  0
  2 27  1  0  0  0  0
  3  6  1  0  0  0  0
  3  7  2  0  0  0  0
  4  8  1  0  0  0  0
  4  9  2  0  0  0  0
  5 10  2  0  0  0  0
  5 11  1  0  0  0  0
  6 28  1  0  0  0  0
  8 12  2  0  0  0  0
  8 13  1  0  0  0  0
  9 14  1  0  0  0  0
  9 29  1  0  0  0  0
 11 15  2  0  0  0  0
 11 16  1  0  0  0  0
 12 14  1  0  0  0  0
 12 17  1  0  0  0  0
 13 18  2  0  0  0  0
 13 30  1  0  0  0  0
 14 31  1  0  0  0  0
 15 19  1  0  0  0  0
 15 20  1  0  0  0  0
 16 21  2  0  0  0  0
 16 32  1  0  0  0  0
 17 22  2  0  0  0  0
 17 33  1  0  0  0  0
 18 22  1  0  0  0  0
 18 34  1  0  0  0  0
 19 35  1  0  0  0  0
 19 36  1  0  0  0  0
 19 37  1  0  0  0  0
 20 23  2  0  0  0  0
 20 38  1  0  0  0  0
 21 23  1  0  0  0  0
 21 39  1  0  0  0  0
 22 40  1  0  0  0  0
 23 24  1  0  0  0  0
 24 41  1  0  0  0  0
 24 42  1  0  0  0  0
 24 43  1  0  0  0  0
M  END
>  <Mol_ID>
6238

>  <Formula>
C20H19NO3

>  <MolWeight>
321.36976

>  <Cat>
S6960

>  <Name>
Auxinole

>  <Synonyms>
N/A

>  <Target>
Others

>  <Form>
free base

>  <CAS>
86445-22-9

>  <URL>
http://www.selleckchem.com/products/auxinole.html

$$$$
