AVAGE (tazarotene).cdx
 OpenBabel08302520303D

 46 48  0  0  0  0  0  0  0  0999 V2000
   -2.5316    0.6467   -0.3741 C   0  0  0  0  0  0  0  0  0  0  0  0
   -2.3857   -0.6714    0.3591 C   0  0  0  0  0  0  0  0  0  0  0  0
   -1.1537   -1.5060   -0.0809 C   0  0  0  0  0  0  0  0  0  0  0  0
    0.1669   -0.7186   -0.0261 C   0  0  0  0  0  0  0  0  0  0  0  0
    0.2145    0.6875    0.0446 C   0  0  0  0  0  0  0  0  0  0  0  0
   -1.2048    1.7724    0.1025 S   0  0  0  0  0  0  0  0  0  0  0  0
    1.4075   -1.4155   -0.0743 C   0  0  0  0  0  0  0  0  0  0  0  0
    2.6418   -0.7516   -0.0120 C   0  0  0  0  0  0  0  0  0  0  0  0
    2.6611    0.6333    0.0711 C   0  0  0  0  0  0  0  0  0  0  0  0
    1.4585    1.3434    0.0967 C   0  0  0  0  0  0  0  0  0  0  0  0
   -1.1211   -2.7302    0.8688 C   0  0  0  0  0  0  0  0  0  0  0  0
    3.8809   -1.4843   -0.0283 C   0  0  0  0  0  0  0  0  0  0  0  0
    4.9139   -2.0991   -0.0496 C   0  0  0  0  0  0  0  0  0  0  0  0
    6.1070   -2.8953   -0.1223 C   0  0  0  0  0  0  0  0  0  0  0  0
    7.2722   -2.2240   -0.2816 N   0  0  0  0  0  0  0  0  0  0  0  0
    8.3986   -2.9745   -0.4660 C   0  0  0  0  0  0  0  0  0  0  0  0
    8.4086   -4.3631   -0.5079 C   0  0  0  0  0  0  0  0  0  0  0  0
    7.1917   -5.0191   -0.2986 C   0  0  0  0  0  0  0  0  0  0  0  0
    6.0254   -4.2792   -0.1006 C   0  0  0  0  0  0  0  0  0  0  0  0
   -1.3718   -2.0237   -1.5207 C   0  0  0  0  0  0  0  0  0  0  0  0
    9.6107   -5.1787   -0.8079 C   0  0  0  0  0  0  0  0  0  0  0  0
    9.5725   -6.3999   -0.8563 O   0  0  0  0  0  0  0  0  0  0  0  0
   10.7030   -4.4142   -1.0512 O   0  0  0  0  0  0  0  0  0  0  0  0
   11.8793   -5.1423   -1.4581 C   0  0  0  0  0  0  0  0  0  0  0  0
   12.6143   -5.7108   -0.2566 C   0  0  0  0  0  0  0  0  0  0  0  0
   -2.5376    0.5211   -1.4602 H   0  0  0  0  0  0  0  0  0  0  0  0
   -3.4833    1.1167   -0.1034 H   0  0  0  0  0  0  0  0  0  0  0  0
   -2.3532   -0.4855    1.4425 H   0  0  0  0  0  0  0  0  0  0  0  0
   -3.2999   -1.2575    0.1897 H   0  0  0  0  0  0  0  0  0  0  0  0
    1.4173   -2.4990   -0.1627 H   0  0  0  0  0  0  0  0  0  0  0  0
    3.6026    1.1751    0.1146 H   0  0  0  0  0  0  0  0  0  0  0  0
    1.5011    2.4302    0.1589 H   0  0  0  0  0  0  0  0  0  0  0  0
   -2.0887   -3.2471    0.8762 H   0  0  0  0  0  0  0  0  0  0  0  0
   -0.3746   -3.4740    0.5730 H   0  0  0  0  0  0  0  0  0  0  0  0
   -0.8988   -2.4256    1.8982 H   0  0  0  0  0  0  0  0  0  0  0  0
    9.3076   -2.3926   -0.5969 H   0  0  0  0  0  0  0  0  0  0  0  0
    7.1428   -6.1060   -0.3144 H   0  0  0  0  0  0  0  0  0  0  0  0
    5.0737   -4.7815    0.0364 H   0  0  0  0  0  0  0  0  0  0  0  0
   -1.3913   -1.2093   -2.2525 H   0  0  0  0  0  0  0  0  0  0  0  0
   -0.5747   -2.7095   -1.8291 H   0  0  0  0  0  0  0  0  0  0  0  0
   -2.3201   -2.5685   -1.6034 H   0  0  0  0  0  0  0  0  0  0  0  0
   11.6234   -5.9311   -2.1767 H   0  0  0  0  0  0  0  0  0  0  0  0
   12.5308   -4.4357   -1.9833 H   0  0  0  0  0  0  0  0  0  0  0  0
   12.0002   -6.4468    0.2716 H   0  0  0  0  0  0  0  0  0  0  0  0
   13.5441   -6.1986   -0.5650 H   0  0  0  0  0  0  0  0  0  0  0  0
   12.8513   -4.9184    0.4599 H   0  0  0  0  0  0  0  0  0  0  0  0
  1  2  1  0  0  0  0
  1 26  1  0  0  0  0
  1 27  1  0  0  0  0
  2  3  1  0  0  0  0
  2 28  1  0  0  0  0
  2 29  1  0  0  0  0
  3  4  1  0  0  0  0
  3 11  1  0  0  0  0
  3 20  1  0  0  0  0
  4  5  2  0  0  0  0
  4  7  1  0  0  0  0
  5  6  1  0  0  0  0
  6  1  1  0  0  0  0
  7  8  2  0  0  0  0
  7 30  1  0  0  0  0
  8  9  1  0  0  0  0
  8 12  1  0  0  0  0
  9 10  2  0  0  0  0
  9 31  1  0  0  0  0
 10  5  1  0  0  0  0
 10 32  1  0  0  0  0
 11 33  1  0  0  0  0
 11 34  1  0  0  0  0
 11 35  1  0  0  0  0
 12 13  3  0  0  0  0
 13 14  1  0  0  0  0
 14 15  2  0  0  0  0
 15 16  1  0  0  0  0
 16 17  2  0  0  0  0
 16 36  1  0  0  0  0
 17 18  1  0  0  0  0
 17 21  1  0  0  0  0
 18 19  2  0  0  0  0
 18 37  1  0  0  0  0
 19 14  1  0  0  0  0
 19 38  1  0  0  0  0
 20 39  1  0  0  0  0
 20 40  1  0  0  0  0
 20 41  1  0  0  0  0
 21 22  2  0  0  0  0
 21 23  1  0  0  0  0
 23 24  1  0  0  0  0
 24 25  1  0  0  0  0
 24 42  1  0  0  0  0
 24 43  1  0  0  0  0
 25 44  1  0  0  0  0
 25 45  1  0  0  0  0
 25 46  1  0  0  0  0
M  END
>  <Mol_ID>
330

>  <Formula>
C21H21NO2S

>  <MolWeight>
351.46194

>  <Cat>
S1569

>  <Name>
Tazarotene

>  <Synonyms>
AGN190168

>  <Target>
Retinoid Receptor

>  <Form>
free base

>  <CAS>
118292-40-3

>  <URL>
http://selleckchem.com/products/Tazarotene(Avage).html

$$$$
