Avanafil.cdx
 OpenBabel08302522033D

 60 63  0  0  0  0  0  0  0  0999 V2000
    0.8947    0.2014    0.2192 C   0  0  0  0  0  0  0  0  0  0  0  0
    0.2670    1.2047   -0.4824 N   0  0  0  0  0  0  0  0  0  0  0  0
   -1.1886    1.2403   -0.5503 C   0  0  0  0  0  0  0  0  0  0  0  0
   -0.8362    3.3404   -1.7763 N   0  0  0  0  0  0  0  0  0  0  0  0
   -1.7256    2.4919   -1.2087 C   0  0  0  0  0  0  0  0  0  0  0  0
   -3.0609    2.6783   -1.1980 N   0  0  0  0  0  0  0  0  0  0  0  0
   -3.5139    3.8067   -1.7740 C   0  0  0  0  0  0  0  0  0  0  0  0
   -2.6933    4.7418   -2.3575 C   0  0  0  0  0  0  0  0  0  0  0  0
   -1.3495    4.4536   -2.3328 C   0  0  0  0  0  0  0  0  0  0  0  0
    0.2727   -0.5862    0.9225 O   0  0  0  0  0  0  0  0  0  0  0  0
    2.3535    0.0714    0.0441 C   0  0  0  0  0  0  0  0  0  0  0  0
    3.0166   -1.1338   -0.1056 C   0  0  0  0  0  0  0  0  0  0  0  0
    4.3683   -1.1822   -0.1131 N   0  0  0  0  0  0  0  0  0  0  0  0
    5.0881   -0.0488   -0.0391 C   0  0  0  0  0  0  0  0  0  0  0  0
    4.5079    1.1565    0.0282 N   0  0  0  0  0  0  0  0  0  0  0  0
    3.1568    1.1878    0.0868 C   0  0  0  0  0  0  0  0  0  0  0  0
    7.0729    2.0397   -1.2511 C   0  0  0  0  0  0  0  0  0  0  0  0
    7.4467    0.9076   -0.2879 C   0  0  1  0  0  0  0  0  0  0  0  0
    6.4466   -0.1434   -0.0806 N   0  0  0  0  0  0  0  0  0  0  0  0
    7.0824   -1.4205    0.2319 C   0  0  0  0  0  0  0  0  0  0  0  0
    8.5747   -1.1804   -0.0187 C   0  0  0  0  0  0  0  0  0  0  0  0
    8.6028    0.0790   -0.8701 C   0  0  0  0  0  0  0  0  0  0  0  0
    6.2594    3.0217   -0.6121 O   0  0  0  0  0  0  0  0  0  0  0  0
    2.4399   -2.3760   -0.2659 N   0  0  0  0  0  0  0  0  0  0  0  0
    1.1921   -2.5726   -0.9864 C   0  0  0  0  0  0  0  0  0  0  0  0
    0.5358   -4.6311   -2.2959 C   0  0  0  0  0  0  0  0  0  0  0  0
    1.3640   -3.5129   -2.1536 C   0  0  0  0  0  0  0  0  0  0  0  0
    2.2995   -3.2350   -3.1596 C   0  0  0  0  0  0  0  0  0  0  0  0
    2.4238   -4.0737   -4.2704 C   0  0  0  0  0  0  0  0  0  0  0  0
    0.6622   -5.4689   -3.4048 C   0  0  0  0  0  0  0  0  0  0  0  0
    1.6187   -5.2069   -4.3877 C   0  0  0  0  0  0  0  0  0  0  0  0
    1.6681   -6.1237   -5.4003 O   0  0  0  0  0  0  0  0  0  0  0  0
    2.7169   -5.9643   -6.3465 C   0  0  0  0  0  0  0  0  0  0  0  0
    0.7497    1.8140   -1.1342 H   0  0  0  0  0  0  0  0  0  0  0  0
   -1.5137    0.3666   -1.1265 H   0  0  0  0  0  0  0  0  0  0  0  0
   -1.5936    1.1523    0.4635 H   0  0  0  0  0  0  0  0  0  0  0  0
   -4.5915    3.9417   -1.7470 H   0  0  0  0  0  0  0  0  0  0  0  0
   -3.0801    5.6457   -2.8061 H   0  0  0  0  0  0  0  0  0  0  0  0
   -0.6224    5.1318   -2.7700 H   0  0  0  0  0  0  0  0  0  0  0  0
    2.7373    2.1847    0.1886 H   0  0  0  0  0  0  0  0  0  0  0  0
    7.9754    2.5610   -1.5833 H   0  0  0  0  0  0  0  0  0  0  0  0
    6.5488    1.6711   -2.1389 H   0  0  0  0  0  0  0  0  0  0  0  0
    7.7311    1.3259    0.6866 H   0  0  0  0  0  0  0  0  0  0  0  0
    6.7176   -2.2242   -0.4151 H   0  0  0  0  0  0  0  0  0  0  0  0
    6.9215   -1.7034    1.2801 H   0  0  0  0  0  0  0  0  0  0  0  0
    9.0493   -2.0329   -0.5142 H   0  0  0  0  0  0  0  0  0  0  0  0
    9.1003   -1.0059    0.9273 H   0  0  0  0  0  0  0  0  0  0  0  0
    8.3971   -0.1854   -1.9169 H   0  0  0  0  0  0  0  0  0  0  0  0
    9.5655    0.5956   -0.8315 H   0  0  0  0  0  0  0  0  0  0  0  0
    5.5110    2.5134   -0.2302 H   0  0  0  0  0  0  0  0  0  0  0  0
    3.1535   -3.0831   -0.4253 H   0  0  0  0  0  0  0  0  0  0  0  0
    0.4552   -2.9794   -0.2851 H   0  0  0  0  0  0  0  0  0  0  0  0
    0.7759   -1.6527   -1.4100 H   0  0  0  0  0  0  0  0  0  0  0  0
   -0.2322   -4.8488   -1.5515 H   0  0  0  0  0  0  0  0  0  0  0  0
    2.9343   -2.3534   -3.0864 H   0  0  0  0  0  0  0  0  0  0  0  0
    3.1581   -3.8104   -5.0247 H   0  0  0  0  0  0  0  0  0  0  0  0
    0.0096   -6.3339   -3.5030 H   0  0  0  0  0  0  0  0  0  0  0  0
    2.5166   -5.1078   -6.9987 H   0  0  0  0  0  0  0  0  0  0  0  0
    3.6931   -5.8699   -5.8594 H   0  0  0  0  0  0  0  0  0  0  0  0
    2.7473   -6.8646   -6.9666 H   0  0  0  0  0  0  0  0  0  0  0  0
  1  2  1  0  0  0  0
  1 10  2  0  0  0  0
  2  3  1  0  0  0  0
  2 34  1  0  0  0  0
  3  5  1  0  0  0  0
  3 35  1  0  0  0  0
  3 36  1  0  0  0  0
  4  5  2  0  0  0  0
  4  9  1  0  0  0  0
  5  6  1  0  0  0  0
  6  7  2  0  0  0  0
  7  8  1  0  0  0  0
  7 37  1  0  0  0  0
  8  9  2  0  0  0  0
  8 38  1  0  0  0  0
  9 39  1  0  0  0  0
 11  1  1  0  0  0  0
 11 12  1  0  0  0  0
 11 16  2  0  0  0  0
 12 24  1  0  0  0  0
 12 13  2  0  0  0  0
 13 14  1  0  0  0  0
 14 19  1  0  0  0  0
 14 15  2  0  0  0  0
 15 16  1  0  0  0  0
 16 40  1  0  0  0  0
 17 23  1  0  0  0  0
 17 41  1  0  0  0  0
 17 42  1  0  0  0  0
 18 19  1  0  0  0  0
 18 43  1  1  0  0  0
 18 17  1  0  0  0  0
 19 20  1  0  0  0  0
 20 21  1  0  0  0  0
 20 44  1  0  0  0  0
 20 45  1  0  0  0  0
 21 22  1  0  0  0  0
 21 46  1  0  0  0  0
 21 47  1  0  0  0  0
 22 18  1  0  0  0  0
 22 48  1  0  0  0  0
 22 49  1  0  0  0  0
 23 50  1  0  0  0  0
 24 25  1  0  0  0  0
 24 51  1  0  0  0  0
 25 27  1  0  0  0  0
 25 52  1  0  0  0  0
 25 53  1  0  0  0  0
 26 27  2  0  0  0  0
 26 30  1  0  0  0  0
 26 54  1  0  0  0  0
 27 28  1  0  0  0  0
 28 29  2  0  0  0  0
 28 55  1  0  0  0  0
 29 31  1  0  0  0  0
 29 56  1  0  0  0  0
 30 31  2  0  0  0  0
 30 57  1  0  0  0  0
 31 32  1  0  0  0  0
 32 33  1  0  0  0  0
 33 58  1  0  0  0  0
 33 59  1  0  0  0  0
 33 60  1  0  0  0  0
M  END
>  <Mol_ID>
1199

>  <Formula>
C23H26ClN7O3

>  <MolWeight>
483.95064

>  <Cat>
S4019

>  <Name>
Avanafil

>  <Synonyms>
N/A

>  <Target>
PDE

>  <Form>
free base

>  <CAS>
330784-47-9

>  <URL>
http://selleckchem.com/products/avanafil.html

$$$$
