Avapritinib (BLU-285)
 OpenBabel08302521343D

 64 69  0  0  0  0  0  0  0  0999 V2000
   12.5293   -7.3900   -0.5946 C   0  0  0  0  0  0  0  0  0  0  0  0
    4.0530   -7.9734  -10.2259 C   0  0  1  0  0  0  0  0  0  0  0  0
    2.6805   -8.6935  -10.1488 C   0  0  0  0  0  0  0  0  0  0  0  0
    3.8398   -6.9104  -11.2394 N   0  0  0  0  0  0  0  0  0  0  0  0
    8.0209  -11.4572  -12.3722 F   0  0  0  0  0  0  0  0  0  0  0  0
    6.3362   -4.2299   -0.6697 C   0  0  0  0  0  0  0  0  0  0  0  0
    5.1430   -3.9687   -1.4103 C   0  0  0  0  0  0  0  0  0  0  0  0
    6.4860   -3.6266    0.5347 N   0  0  0  0  0  0  0  0  0  0  0  0
    7.4750   -4.9513   -0.9513 C   0  0  0  0  0  0  0  0  0  0  0  0
    4.2965   -3.1220   -0.9076 N   0  0  0  0  0  0  0  0  0  0  0  0
    7.6955   -3.9873    1.0696 C   0  0  0  0  0  0  0  0  0  0  0  0
    5.5876   -2.7959    1.0860 N   0  0  0  0  0  0  0  0  0  0  0  0
    8.3379   -4.8009    0.1634 C   0  0  0  0  0  0  0  0  0  0  0  0
    4.5504   -2.5859    0.3351 C   0  0  0  0  0  0  0  0  0  0  0  0
    4.9214   -4.5581   -2.6291 N   0  0  0  0  0  0  0  0  0  0  0  0
    4.7168   -6.0059   -2.7701 C   0  0  0  0  0  0  0  0  0  0  0  0
    4.5645   -3.7709   -3.8124 C   0  0  0  0  0  0  0  0  0  0  0  0
    5.4858   -6.5477   -3.9945 C   0  0  0  0  0  0  0  0  0  0  0  0
    5.3977   -4.2798   -5.0118 C   0  0  0  0  0  0  0  0  0  0  0  0
    5.1964   -5.7239   -5.1668 N   0  0  0  0  0  0  0  0  0  0  0  0
    9.6535   -5.4110    0.2693 C   0  0  0  0  0  0  0  0  0  0  0  0
   10.5378   -5.3036    1.3594 C   0  0  0  0  0  0  0  0  0  0  0  0
   10.3117   -6.2113   -0.6370 C   0  0  0  0  0  0  0  0  0  0  0  0
   11.6685   -5.9922    1.1679 N   0  0  0  0  0  0  0  0  0  0  0  0
   11.5003   -6.5374   -0.0519 N   0  0  0  0  0  0  0  0  0  0  0  0
    4.9682   -6.2795   -6.3951 C   0  0  0  0  0  0  0  0  0  0  0  0
    4.8201   -7.6084   -6.4997 N   0  0  0  0  0  0  0  0  0  0  0  0
    4.8539   -5.4679   -7.4522 N   0  0  0  0  0  0  0  0  0  0  0  0
    4.5458   -8.1199   -7.7222 C   0  0  0  0  0  0  0  0  0  0  0  0
    4.5897   -6.0240   -8.6536 C   0  0  0  0  0  0  0  0  0  0  0  0
    4.3997   -7.3721   -8.8726 C   0  0  0  0  0  0  0  0  0  0  0  0
    5.1611   -8.9252  -10.7349 C   0  0  0  0  0  0  0  0  0  0  0  0
    6.2799   -8.4144  -11.4281 C   0  0  0  0  0  0  0  0  0  0  0  0
    5.0911  -10.3233  -10.5577 C   0  0  0  0  0  0  0  0  0  0  0  0
    7.2420   -9.2659  -11.9805 C   0  0  0  0  0  0  0  0  0  0  0  0
    6.0573  -11.1735  -11.1035 C   0  0  0  0  0  0  0  0  0  0  0  0
    7.1150  -10.6382  -11.8225 C   0  0  0  0  0  0  0  0  0  0  0  0
   13.4767   -6.8453   -0.5794 H   0  0  0  0  0  0  0  0  0  0  0  0
   12.5907   -8.2877    0.0257 H   0  0  0  0  0  0  0  0  0  0  0  0
   12.2725   -7.6615   -1.6214 H   0  0  0  0  0  0  0  0  0  0  0  0
    1.8699   -7.9984   -9.8974 H   0  0  0  0  0  0  0  0  0  0  0  0
    2.4271   -9.1647  -11.1082 H   0  0  0  0  0  0  0  0  0  0  0  0
    2.6557   -9.4794   -9.3860 H   0  0  0  0  0  0  0  0  0  0  0  0
    3.6162   -7.3495  -12.1313 H   0  0  0  0  0  0  0  0  0  0  0  0
    3.0164   -6.3638  -10.9886 H   0  0  0  0  0  0  0  0  0  0  0  0
    7.6681   -5.5031   -1.8605 H   0  0  0  0  0  0  0  0  0  0  0  0
    7.9879   -3.6112    2.0396 H   0  0  0  0  0  0  0  0  0  0  0  0
    3.7716   -1.9076    0.7238 H   0  0  0  0  0  0  0  0  0  0  0  0
    5.0363   -6.5432   -1.8702 H   0  0  0  0  0  0  0  0  0  0  0  0
    3.6444   -6.2007   -2.8963 H   0  0  0  0  0  0  0  0  0  0  0  0
    3.4954   -3.8782   -4.0241 H   0  0  0  0  0  0  0  0  0  0  0  0
    4.7752   -2.7081   -3.6577 H   0  0  0  0  0  0  0  0  0  0  0  0
    6.5644   -6.5088   -3.7947 H   0  0  0  0  0  0  0  0  0  0  0  0
    5.2230   -7.6028   -4.1252 H   0  0  0  0  0  0  0  0  0  0  0  0
    6.4638   -4.0922   -4.8208 H   0  0  0  0  0  0  0  0  0  0  0  0
    5.1241   -3.6965   -5.8975 H   0  0  0  0  0  0  0  0  0  0  0  0
   10.4089   -4.7587    2.2853 H   0  0  0  0  0  0  0  0  0  0  0  0
   10.0416   -6.5741   -1.6175 H   0  0  0  0  0  0  0  0  0  0  0  0
    4.4395   -9.2010   -7.7273 H   0  0  0  0  0  0  0  0  0  0  0  0
    4.5271   -5.2966   -9.4579 H   0  0  0  0  0  0  0  0  0  0  0  0
    6.3935   -7.3401  -11.5694 H   0  0  0  0  0  0  0  0  0  0  0  0
    4.2766  -10.7864  -10.0077 H   0  0  0  0  0  0  0  0  0  0  0  0
    8.0792   -8.8658  -12.5431 H   0  0  0  0  0  0  0  0  0  0  0  0
    5.9804  -12.2495  -10.9830 H   0  0  0  0  0  0  0  0  0  0  0  0
  1 25  1  0  0  0  0
  1 38  1  0  0  0  0
  1 39  1  0  0  0  0
  1 40  1  0  0  0  0
  2  3  1  1  0  0  0
  2  4  1  0  0  0  0
  2 31  1  0  0  0  0
  2 32  1  0  0  0  0
  3 41  1  0  0  0  0
  3 42  1  0  0  0  0
  3 43  1  0  0  0  0
  4 44  1  0  0  0  0
  4 45  1  0  0  0  0
  5 37  1  0  0  0  0
  6  7  1  0  0  0  0
  6  8  1  0  0  0  0
  6  9  2  0  0  0  0
  7 10  2  0  0  0  0
  7 15  1  0  0  0  0
  8 11  1  0  0  0  0
  8 12  1  0  0  0  0
  9 13  1  0  0  0  0
  9 46  1  0  0  0  0
 10 14  1  0  0  0  0
 11 13  2  0  0  0  0
 11 47  1  0  0  0  0
 12 14  2  0  0  0  0
 13 21  1  0  0  0  0
 14 48  1  0  0  0  0
 15 16  1  0  0  0  0
 15 17  1  0  0  0  0
 16 18  1  0  0  0  0
 16 49  1  0  0  0  0
 16 50  1  0  0  0  0
 17 19  1  0  0  0  0
 17 51  1  0  0  0  0
 17 52  1  0  0  0  0
 18 20  1  0  0  0  0
 18 53  1  0  0  0  0
 18 54  1  0  0  0  0
 19 20  1  0  0  0  0
 19 55  1  0  0  0  0
 19 56  1  0  0  0  0
 20 26  1  0  0  0  0
 21 22  1  0  0  0  0
 21 23  2  0  0  0  0
 22 24  2  0  0  0  0
 22 57  1  0  0  0  0
 23 25  1  0  0  0  0
 23 58  1  0  0  0  0
 24 25  1  0  0  0  0
 26 27  2  0  0  0  0
 26 28  1  0  0  0  0
 27 29  1  0  0  0  0
 28 30  2  0  0  0  0
 29 31  2  0  0  0  0
 29 59  1  0  0  0  0
 30 31  1  0  0  0  0
 30 60  1  0  0  0  0
 32 33  2  0  0  0  0
 32 34  1  0  0  0  0
 33 35  1  0  0  0  0
 33 61  1  0  0  0  0
 34 36  2  0  0  0  0
 34 62  1  0  0  0  0
 35 37  2  0  0  0  0
 35 63  1  0  0  0  0
 36 37  1  0  0  0  0
 36 64  1  0  0  0  0
M  END
>  <Mol_ID>
6572

>  <Formula>
C26H27FN10

>  <MolWeight>
498.5579832

>  <Cat>
S8553

>  <Name>
Avapritinib (BLU-285)

>  <Synonyms>
N/A

>  <Target>
c-Kit,PDGFR

>  <Form>
free base

>  <CAS>
1703793-34-3

>  <URL>
http://www.selleckchem.com/products/blu-285.html

$$$$
