AVC (sulfanilamide).cdx
 OpenBabel08302521353D

 19 19  0  0  0  0  0  0  0  0999 V2000
    0.9277   -0.0154   -0.0100 C   0  0  0  0  0  0  0  0  0  0  0  0
    0.2313    1.1975   -0.0365 C   0  0  0  0  0  0  0  0  0  0  0  0
   -1.1637    1.2195    0.0096 C   0  0  0  0  0  0  0  0  0  0  0  0
   -1.8717    0.0138    0.0407 C   0  0  0  0  0  0  0  0  0  0  0  0
   -1.1963   -1.2038    0.0146 C   0  0  0  0  0  0  0  0  0  0  0  0
    0.2018   -1.2107   -0.0331 C   0  0  0  0  0  0  0  0  0  0  0  0
    2.3150   -0.0258   -0.1964 N   0  0  0  0  0  0  0  0  0  0  0  0
   -3.6318    0.0457    0.0383 S   0  0  0  0  0  0  0  0  0  0  0  0
   -4.0212   -0.7786   -1.3711 N   0  0  0  0  0  0  0  0  0  0  0  0
   -4.1234   -0.7509    1.1398 O   0  0  0  0  0  0  0  0  0  0  0  0
   -4.0834    1.4034   -0.1924 O   0  0  0  0  0  0  0  0  0  0  0  0
    0.7719    2.1386   -0.0975 H   0  0  0  0  0  0  0  0  0  0  0  0
   -1.6833    2.1749    0.0009 H   0  0  0  0  0  0  0  0  0  0  0  0
   -1.7452   -2.1424    0.0085 H   0  0  0  0  0  0  0  0  0  0  0  0
    0.7231   -2.1634   -0.0922 H   0  0  0  0  0  0  0  0  0  0  0  0
    2.7684   -0.8703    0.1391 H   0  0  0  0  0  0  0  0  0  0  0  0
    2.7795    0.8149    0.1342 H   0  0  0  0  0  0  0  0  0  0  0  0
   -4.8415   -1.3625   -1.2027 H   0  0  0  0  0  0  0  0  0  0  0  0
   -4.1467   -0.1219   -2.1440 H   0  0  0  0  0  0  0  0  0  0  0  0
  1  2  2  0  0  0  0
  1  7  1  0  0  0  0
  2  3  1  0  0  0  0
  2 12  1  0  0  0  0
  3  4  2  0  0  0  0
  3 13  1  0  0  0  0
  4  5  1  0  0  0  0
  4  8  1  0  0  0  0
  5  6  2  0  0  0  0
  5 14  1  0  0  0  0
  6  1  1  0  0  0  0
  6 15  1  0  0  0  0
  7 16  1  0  0  0  0
  7 17  1  0  0  0  0
  8  9  1  0  0  0  0
  8 10  2  0  0  0  0
  8 11  2  0  0  0  0
  9 18  1  0  0  0  0
  9 19  1  0  0  0  0
M  END
>  <Mol_ID>
636

>  <Formula>
C6H8N2O2S

>  <MolWeight>
172.20492

>  <Cat>
S1685

>  <Name>
Sulfanilamide

>  <Synonyms>
N/A

>  <Target>
Bacterial

>  <Form>
free base

>  <CAS>
63-74-1

>  <URL>
http://selleckchem.com/products/Sulfanilamide.html

$$$$
