AX 20017
 OpenBabel08302521323D

 34 36  0  0  0  0  0  0  0  0999 V2000
    0.0055    0.3651   -0.0734 C   0  0  0  0  0  0  0  0  0  0  0  0
    0.4066   -0.9550    0.0096 C   0  0  0  0  0  0  0  0  0  0  0  0
   -0.7245   -1.8704    0.1127 C   0  0  0  0  0  0  0  0  0  0  0  0
   -1.9069   -1.1577   -0.0287 C   0  0  0  0  0  0  0  0  0  0  0  0
   -1.6772    0.5323   -0.0689 S   0  0  0  0  0  0  0  0  0  0  0  0
    1.8696   -1.3177    0.0117 C   0  0  0  0  0  0  0  0  0  0  0  0
    2.7502   -0.1294    0.4252 C   0  0  0  0  0  0  0  0  0  0  0  0
    2.3664    1.1458   -0.3349 C   0  0  0  0  0  0  0  0  0  0  0  0
    0.9127    1.5566   -0.0660 C   0  0  0  0  0  0  0  0  0  0  0  0
   -0.5603   -3.2790    0.4749 C   0  0  0  0  0  0  0  0  0  0  0  0
    0.3108   -3.6871    1.2413 O   0  0  0  0  0  0  0  0  0  0  0  0
   -1.4113   -4.1738   -0.0981 N   0  0  0  0  0  0  0  0  0  0  0  0
   -3.2531   -1.4582   -0.0193 N   0  0  0  0  0  0  0  0  0  0  0  0
   -3.8309   -2.3448   -0.8991 C   0  0  0  0  0  0  0  0  0  0  0  0
   -3.2516   -3.0034   -1.7537 O   0  0  0  0  0  0  0  0  0  0  0  0
   -5.3116   -2.4640   -0.6943 C   0  0  0  0  0  0  0  0  0  0  0  0
   -5.9318   -3.8250   -0.9282 C   0  0  0  0  0  0  0  0  0  0  0  0
   -6.3441   -2.6615   -1.7766 C   0  0  0  0  0  0  0  0  0  0  0  0
    2.1439   -1.6350   -1.0030 H   0  0  0  0  0  0  0  0  0  0  0  0
    2.0818   -2.1545    0.6813 H   0  0  0  0  0  0  0  0  0  0  0  0
    3.8026   -0.3724    0.2400 H   0  0  0  0  0  0  0  0  0  0  0  0
    2.6453    0.0458    1.5037 H   0  0  0  0  0  0  0  0  0  0  0  0
    3.0348    1.9659   -0.0484 H   0  0  0  0  0  0  0  0  0  0  0  0
    2.5077    0.9784   -1.4102 H   0  0  0  0  0  0  0  0  0  0  0  0
    0.8535    2.0311    0.9219 H   0  0  0  0  0  0  0  0  0  0  0  0
    0.5983    2.2997   -0.8074 H   0  0  0  0  0  0  0  0  0  0  0  0
   -1.9729   -3.9180   -0.9050 H   0  0  0  0  0  0  0  0  0  0  0  0
   -1.2016   -5.1522    0.0543 H   0  0  0  0  0  0  0  0  0  0  0  0
   -3.8488   -0.6923    0.2682 H   0  0  0  0  0  0  0  0  0  0  0  0
   -5.6868   -1.9021    0.1575 H   0  0  0  0  0  0  0  0  0  0  0  0
   -5.3381   -4.5927   -1.4147 H   0  0  0  0  0  0  0  0  0  0  0  0
   -6.5940   -4.1947   -0.1571 H   0  0  0  0  0  0  0  0  0  0  0  0
   -7.3487   -2.2781   -1.6123 H   0  0  0  0  0  0  0  0  0  0  0  0
   -6.0442   -2.6557   -2.8188 H   0  0  0  0  0  0  0  0  0  0  0  0
  1  2  2  0  0  0  0
  1  5  1  0  0  0  0
  2  3  1  0  0  0  0
  3  4  2  0  0  0  0
  3 10  1  0  0  0  0
  4  5  1  0  0  0  0
  4 13  1  0  0  0  0
  6  7  1  0  0  0  0
  6  2  1  0  0  0  0
  6 19  1  0  0  0  0
  6 20  1  0  0  0  0
  7  8  1  0  0  0  0
  7 21  1  0  0  0  0
  7 22  1  0  0  0  0
  8  9  1  0  0  0  0
  8 23  1  0  0  0  0
  8 24  1  0  0  0  0
  9  1  1  0  0  0  0
  9 25  1  0  0  0  0
  9 26  1  0  0  0  0
 10 11  2  0  0  0  0
 10 12  1  0  0  0  0
 12 27  1  0  0  0  0
 12 28  1  0  0  0  0
 13 14  1  0  0  0  0
 13 29  1  0  0  0  0
 14 15  2  0  0  0  0
 14 16  1  0  0  0  0
 16 17  1  0  0  0  0
 16 18  1  0  0  0  0
 16 30  1  0  0  0  0
 17 18  1  0  0  0  0
 17 31  1  0  0  0  0
 17 32  1  0  0  0  0
 18 33  1  0  0  0  0
 18 34  1  0  0  0  0
M  END
>  <Mol_ID>
6313

>  <Formula>
C13H16N2O2S

>  <MolWeight>
264.34334

>  <Cat>
E0626

>  <Name>
AX 20017

>  <Target>
Anti-infection

>  <Form>
free base

>  <CAS>
329221-38-7

>  <URL>
http://www.selleckchem.com/products/ax-20017.html

$$$$
