AZ-33
 OpenBabel08302521243D

 62 64  0  0  0  0  0  0  0  0999 V2000
   -1.1020   -7.6132   -0.3419 S   0  0  0  0  0  0  0  0  0  0  0  0
    2.9936    1.2920   -2.6460 O   0  0  0  0  0  0  0  0  0  0  0  0
    8.3395    3.9493    7.2395 O   0  0  0  0  0  0  0  0  0  0  0  0
    5.5301    6.8549    8.0159 O   0  0  0  0  0  0  0  0  0  0  0  0
    7.9491    3.9404    5.0451 O   0  0  0  0  0  0  0  0  0  0  0  0
    7.6337    6.1437    8.3101 O   0  0  0  0  0  0  0  0  0  0  0  0
    0.2187   -2.6767   -1.3215 O   0  0  0  0  0  0  0  0  0  0  0  0
    1.5470    1.2610   -0.8758 N   0  0  0  0  0  0  0  0  0  0  0  0
    2.3216   -3.6605   -1.1991 N   0  0  0  0  0  0  0  0  0  0  0  0
    0.9693   -9.1129   -0.6535 N   0  0  0  0  0  0  0  0  0  0  0  0
    4.6127    3.2297    0.2778 C   0  0  0  0  0  0  0  0  0  0  0  0
    3.2707    3.8378   -0.1543 C   0  0  0  0  0  0  0  0  0  0  0  0
    5.0539    3.8926    1.5727 C   0  0  0  0  0  0  0  0  0  0  0  0
    2.6833    3.3674   -1.4846 C   0  0  0  0  0  0  0  0  0  0  0  0
    5.6202    5.2818    3.9751 C   0  0  0  0  0  0  0  0  0  0  0  0
    5.9742    6.0517    5.2331 C   0  0  0  0  0  0  0  0  0  0  0  0
    4.7048    3.3470    2.8128 C   0  0  0  0  0  0  0  0  0  0  0  0
    5.7111    5.1292    1.5482 C   0  0  0  0  0  0  0  0  0  0  0  0
    6.4069    5.2206    6.4571 C   0  0  0  0  0  0  0  0  0  0  0  0
    4.9808    4.0349    4.0017 C   0  0  0  0  0  0  0  0  0  0  0  0
    5.9552    5.8325    2.7318 C   0  0  0  0  0  0  0  0  0  0  0  0
    2.4497    1.8787   -1.7142 C   0  0  0  0  0  0  0  0  0  0  0  0
    1.0546   -0.0960   -1.1471 C   0  0  0  0  0  0  0  0  0  0  0  0
    2.1090   -1.2175   -1.1007 C   0  0  0  0  0  0  0  0  0  0  0  0
    7.6450    4.3527    6.1617 C   0  0  0  0  0  0  0  0  0  0  0  0
    6.6103    6.1320    7.6436 C   0  0  0  0  0  0  0  0  0  0  0  0
    1.4394   -2.5856   -1.2239 C   0  0  0  0  0  0  0  0  0  0  0  0
    1.9666   -5.0394   -1.1241 C   0  0  0  0  0  0  0  0  0  0  0  0
    0.3935   -6.8388   -0.7085 C   0  0  0  0  0  0  0  0  0  0  0  0
    0.6603   -5.4629   -0.8508 C   0  0  0  0  0  0  0  0  0  0  0  0
    1.3850   -7.8040   -0.8479 C   0  0  0  0  0  0  0  0  0  0  0  0
    2.9678   -6.0018   -1.2924 C   0  0  0  0  0  0  0  0  0  0  0  0
    2.6893   -7.3769   -1.1609 C   0  0  0  0  0  0  0  0  0  0  0  0
   -0.3160   -9.1377   -0.3692 C   0  0  0  0  0  0  0  0  0  0  0  0
   -1.0945  -10.3768   -0.0937 C   0  0  0  0  0  0  0  0  0  0  0  0
    8.1919    4.4706    8.0539 H   0  0  0  0  0  0  0  0  0  0  0  0
    4.7074    6.7179    7.5099 H   0  0  0  0  0  0  0  0  0  0  0  0
    0.8899    1.8759   -0.4096 H   0  0  0  0  0  0  0  0  0  0  0  0
    3.3129   -3.4540   -1.2740 H   0  0  0  0  0  0  0  0  0  0  0  0
    4.5245    2.1472    0.4235 H   0  0  0  0  0  0  0  0  0  0  0  0
    5.3826    3.3850   -0.4889 H   0  0  0  0  0  0  0  0  0  0  0  0
    3.4120    4.9250   -0.2478 H   0  0  0  0  0  0  0  0  0  0  0  0
    2.5317    3.7035    0.6448 H   0  0  0  0  0  0  0  0  0  0  0  0
    3.3256    3.7234   -2.2990 H   0  0  0  0  0  0  0  0  0  0  0  0
    1.7174    3.8731   -1.6232 H   0  0  0  0  0  0  0  0  0  0  0  0
    6.7782    6.7651    5.0036 H   0  0  0  0  0  0  0  0  0  0  0  0
    5.1004    6.6581    5.4739 H   0  0  0  0  0  0  0  0  0  0  0  0
    4.2153    2.3777    2.8682 H   0  0  0  0  0  0  0  0  0  0  0  0
    6.0317    5.5630    0.6039 H   0  0  0  0  0  0  0  0  0  0  0  0
    5.6130    4.5174    6.7490 H   0  0  0  0  0  0  0  0  0  0  0  0
    4.7075    3.5593    4.9378 H   0  0  0  0  0  0  0  0  0  0  0  0
    6.4275    6.8110    2.6714 H   0  0  0  0  0  0  0  0  0  0  0  0
    0.5580   -0.0841   -2.1265 H   0  0  0  0  0  0  0  0  0  0  0  0
    0.2752   -0.2859   -0.3967 H   0  0  0  0  0  0  0  0  0  0  0  0
    2.6517   -1.1751   -0.1501 H   0  0  0  0  0  0  0  0  0  0  0  0
    2.8275   -1.1084   -1.9156 H   0  0  0  0  0  0  0  0  0  0  0  0
   -0.1557   -4.7676   -0.7081 H   0  0  0  0  0  0  0  0  0  0  0  0
    3.9919   -5.7146   -1.5302 H   0  0  0  0  0  0  0  0  0  0  0  0
    3.4716   -8.1224   -1.2910 H   0  0  0  0  0  0  0  0  0  0  0  0
   -1.8029  -10.2344    0.7280 H   0  0  0  0  0  0  0  0  0  0  0  0
   -1.6500  -10.6822   -0.9859 H   0  0  0  0  0  0  0  0  0  0  0  0
   -0.4210  -11.1928    0.1850 H   0  0  0  0  0  0  0  0  0  0  0  0
  1 29  1  0  0  0  0
  1 34  1  0  0  0  0
  2 22  2  0  0  0  0
  3 25  1  0  0  0  0
  3 36  1  0  0  0  0
  4 26  1  0  0  0  0
  4 37  1  0  0  0  0
  5 25  2  0  0  0  0
  6 26  2  0  0  0  0
  7 27  2  0  0  0  0
  8 22  1  0  0  0  0
  8 23  1  0  0  0  0
  8 38  1  0  0  0  0
  9 27  1  0  0  0  0
  9 28  1  0  0  0  0
  9 39  1  0  0  0  0
 10 31  1  0  0  0  0
 10 34  2  0  0  0  0
 11 12  1  0  0  0  0
 11 13  1  0  0  0  0
 11 40  1  0  0  0  0
 11 41  1  0  0  0  0
 12 14  1  0  0  0  0
 12 42  1  0  0  0  0
 12 43  1  0  0  0  0
 13 17  2  0  0  0  0
 13 18  1  0  0  0  0
 14 22  1  0  0  0  0
 14 44  1  0  0  0  0
 14 45  1  0  0  0  0
 15 16  1  0  0  0  0
 15 20  2  0  0  0  0
 15 21  1  0  0  0  0
 16 19  1  0  0  0  0
 16 46  1  0  0  0  0
 16 47  1  0  0  0  0
 17 20  1  0  0  0  0
 17 48  1  0  0  0  0
 18 21  2  0  0  0  0
 18 49  1  0  0  0  0
 19 25  1  0  0  0  0
 19 26  1  0  0  0  0
 19 50  1  0  0  0  0
 20 51  1  0  0  0  0
 21 52  1  0  0  0  0
 23 24  1  0  0  0  0
 23 53  1  0  0  0  0
 23 54  1  0  0  0  0
 24 27  1  0  0  0  0
 24 55  1  0  0  0  0
 24 56  1  0  0  0  0
 28 30  1  0  0  0  0
 28 32  2  0  0  0  0
 29 30  2  0  0  0  0
 29 31  1  0  0  0  0
 30 57  1  0  0  0  0
 31 33  2  0  0  0  0
 32 33  1  0  0  0  0
 32 58  1  0  0  0  0
 33 59  1  0  0  0  0
 34 35  1  0  0  0  0
 35 60  1  0  0  0  0
 35 61  1  0  0  0  0
 35 62  1  0  0  0  0
M  END
>  <Mol_ID>
4964

>  <Formula>
C25H27N3O6S

>  <MolWeight>
497.56338

>  <Cat>
S0108

>  <Name>
AZ-33

>  <Synonyms>
LDHA Inhibitor 33

>  <Target>
Decarboxylase,LDH

>  <Form>
Free Base

>  <CAS>
1370290-34-8

>  <URL>
http://www.selleckchem.com/products/az-33.html

$$$$
