AZ1495
 OpenBabel08302521343D

 59 63  0  0  0  0  0  0  0  0999 V2000
    1.5276    4.7032    1.3453 C   0  0  0  0  0  0  0  0  0  0  0  0
    2.2685    5.6924    0.8249 N   0  0  0  0  0  0  0  0  0  0  0  0
    1.5407    6.4627    0.0052 C   0  0  0  0  0  0  0  0  0  0  0  0
    0.1992    6.3201   -0.3167 C   0  0  0  0  0  0  0  0  0  0  0  0
   -0.4767    5.2427    0.2897 C   0  0  0  0  0  0  0  0  0  0  0  0
    0.2218    4.4483    1.1379 N   0  0  0  0  0  0  0  0  0  0  0  0
    2.0341    7.5449   -0.6650 N   0  0  0  0  0  0  0  0  0  0  0  0
   -0.1177    7.3674   -1.2510 C   0  0  0  0  0  0  0  0  0  0  0  0
    1.0422    8.1035   -1.4253 C   0  0  0  0  0  0  0  0  0  0  0  0
   -1.8444    5.0156    0.0656 N   0  0  0  0  0  0  0  0  0  0  0  0
   -2.6094    7.9736   -4.1433 C   0  0  0  0  0  0  0  0  0  0  0  0
   -1.3159    7.5505   -3.4624 C   0  0  0  0  0  0  0  0  0  0  0  0
   -1.4421    7.6218   -1.9330 C   0  0  0  0  0  0  0  0  0  0  0  0
   -2.0531    8.9603   -1.4946 C   0  0  0  0  0  0  0  0  0  0  0  0
   -3.3056    9.2750   -2.2981 C   0  0  0  0  0  0  0  0  0  0  0  0
   -3.0206    9.2634   -3.6951 O   0  0  0  0  0  0  0  0  0  0  0  0
   -2.2781    3.6247    0.2499 C   0  0  1  0  0  0  0  0  0  0  0  0
   -3.1602    3.5113    1.4962 C   0  0  0  0  0  0  0  0  0  0  0  0
   -4.5921    3.9681    1.2667 C   0  0  0  0  0  0  0  0  0  0  0  0
   -5.2765    3.2169    0.1162 C   0  0  1  0  0  0  0  0  0  0  0  0
   -4.4470    3.4390   -1.1643 C   0  0  0  0  0  0  0  0  0  0  0  0
   -2.9507    3.1514   -1.0498 C   0  0  0  0  0  0  0  0  0  0  0  0
   -5.7387    1.8461    0.3757 N   0  0  0  0  0  0  0  0  0  0  0  0
   -6.7332    1.7079    1.4517 C   0  0  0  0  0  0  0  0  0  0  0  0
   -6.1174    1.2714    2.7878 C   0  0  0  0  0  0  0  0  0  0  0  0
   -5.4733    0.0014    2.6485 O   0  0  0  0  0  0  0  0  0  0  0  0
   -4.4230    0.0652    1.6782 C   0  0  0  0  0  0  0  0  0  0  0  0
   -4.8780    0.6627    0.3267 C   0  0  0  0  0  0  0  0  0  0  0  0
    2.0423    4.0241    2.0184 H   0  0  0  0  0  0  0  0  0  0  0  0
    2.9917    7.8579   -0.5989 H   0  0  0  0  0  0  0  0  0  0  0  0
    1.2492    8.9705   -2.0360 H   0  0  0  0  0  0  0  0  0  0  0  0
   -2.3358    5.6568    0.6851 H   0  0  0  0  0  0  0  0  0  0  0  0
   -2.4537    8.0319   -5.2256 H   0  0  0  0  0  0  0  0  0  0  0  0
   -3.4132    7.2505   -3.9645 H   0  0  0  0  0  0  0  0  0  0  0  0
   -0.5123    8.2166   -3.7998 H   0  0  0  0  0  0  0  0  0  0  0  0
   -1.0438    6.5351   -3.7753 H   0  0  0  0  0  0  0  0  0  0  0  0
   -2.1533    6.8391   -1.6438 H   0  0  0  0  0  0  0  0  0  0  0  0
   -2.2903    8.9408   -0.4240 H   0  0  0  0  0  0  0  0  0  0  0  0
   -1.3257    9.7674   -1.6490 H   0  0  0  0  0  0  0  0  0  0  0  0
   -4.1114    8.5637   -2.0823 H   0  0  0  0  0  0  0  0  0  0  0  0
   -3.6706   10.2744   -2.0402 H   0  0  0  0  0  0  0  0  0  0  0  0
   -1.4172    2.9591    0.3930 H   0  0  0  0  0  0  0  0  0  0  0  0
   -3.1636    2.4755    1.8191 H   0  0  0  0  0  0  0  0  0  0  0  0
   -2.7280    4.0751    2.3315 H   0  0  0  0  0  0  0  0  0  0  0  0
   -5.1729    3.8958    2.1903 H   0  0  0  0  0  0  0  0  0  0  0  0
   -4.5863    5.0404    1.0268 H   0  0  0  0  0  0  0  0  0  0  0  0
   -6.2075    3.7707   -0.0790 H   0  0  0  0  0  0  0  0  0  0  0  0
   -4.8736    2.8750   -2.0028 H   0  0  0  0  0  0  0  0  0  0  0  0
   -4.5539    4.4975   -1.4455 H   0  0  0  0  0  0  0  0  0  0  0  0
   -2.4443    3.5977   -1.9169 H   0  0  0  0  0  0  0  0  0  0  0  0
   -2.7793    2.0779   -1.1581 H   0  0  0  0  0  0  0  0  0  0  0  0
   -7.4392    0.9275    1.1369 H   0  0  0  0  0  0  0  0  0  0  0  0
   -7.3257    2.6209    1.5757 H   0  0  0  0  0  0  0  0  0  0  0  0
   -5.4005    1.9993    3.1803 H   0  0  0  0  0  0  0  0  0  0  0  0
   -6.9073    1.1604    3.5368 H   0  0  0  0  0  0  0  0  0  0  0  0
   -4.0736   -0.9594    1.5185 H   0  0  0  0  0  0  0  0  0  0  0  0
   -3.5790    0.6033    2.1154 H   0  0  0  0  0  0  0  0  0  0  0  0
   -5.4876   -0.1187   -0.1490 H   0  0  0  0  0  0  0  0  0  0  0  0
   -4.0233    0.7722   -0.3363 H   0  0  0  0  0  0  0  0  0  0  0  0
  1  2  2  0  0  0  0
  1  6  1  0  0  0  0
  1 29  1  0  0  0  0
  2  3  1  0  0  0  0
  3  4  2  0  0  0  0
  4  5  1  0  0  0  0
  5  6  2  0  0  0  0
  5 10  1  0  0  0  0
  7  9  1  0  0  0  0
  7  3  1  0  0  0  0
  7 30  1  0  0  0  0
  8  9  2  0  0  0  0
  8  4  1  0  0  0  0
  8 13  1  0  0  0  0
  9 31  1  0  0  0  0
 10 32  1  0  0  0  0
 11 12  1  0  0  0  0
 11 16  1  0  0  0  0
 11 33  1  0  0  0  0
 11 34  1  0  0  0  0
 12 13  1  0  0  0  0
 12 35  1  0  0  0  0
 12 36  1  0  0  0  0
 13 14  1  0  0  0  0
 13 37  1  0  0  0  0
 14 15  1  0  0  0  0
 14 38  1  0  0  0  0
 14 39  1  0  0  0  0
 15 16  1  0  0  0  0
 15 40  1  0  0  0  0
 15 41  1  0  0  0  0
 17 18  1  0  0  0  0
 17 22  1  0  0  0  0
 17 42  1  1  0  0  0
 17 10  1  0  0  0  0
 18 19  1  0  0  0  0
 18 43  1  0  0  0  0
 18 44  1  0  0  0  0
 19 45  1  0  0  0  0
 19 46  1  0  0  0  0
 20 19  1  0  0  0  0
 20 21  1  0  0  0  0
 20 23  1  0  0  0  0
 20 47  1  6  0  0  0
 21 22  1  0  0  0  0
 21 48  1  0  0  0  0
 21 49  1  0  0  0  0
 22 50  1  0  0  0  0
 22 51  1  0  0  0  0
 23 24  1  0  0  0  0
 23 28  1  0  0  0  0
 24 25  1  0  0  0  0
 24 52  1  0  0  0  0
 24 53  1  0  0  0  0
 25 26  1  0  0  0  0
 25 54  1  0  0  0  0
 25 55  1  0  0  0  0
 26 27  1  0  0  0  0
 27 28  1  0  0  0  0
 27 56  1  0  0  0  0
 27 57  1  0  0  0  0
 28 58  1  0  0  0  0
 28 59  1  0  0  0  0
M  END
>  <Mol_ID>
6483

>  <Formula>
C21H31N5O2

>  <MolWeight>
385.50314

>  <Cat>
E2647

>  <Name>
AZ1495

>  <Target>
IRAK

>  <Form>
free base

>  <CAS>
2196204-23-4

>  <URL>
http://www.selleckchem.com/products/az1495.html

$$$$
