AZ191.cdx
 OpenBabel08302519583D

 59 63  0  0  0  0  0  0  0  0999 V2000
   -1.9819    9.9841    3.7385 C   0  0  0  0  0  0  0  0  0  0  0  0
   -2.9950   10.8025    3.3897 N   0  0  0  0  0  0  0  0  0  0  0  0
   -3.8171   10.4363    2.3827 C   0  0  0  0  0  0  0  0  0  0  0  0
   -3.6043    9.2229    1.7293 C   0  0  0  0  0  0  0  0  0  0  0  0
   -2.5625    8.3665    2.0858 C   0  0  0  0  0  0  0  0  0  0  0  0
   -1.7130    8.7653    3.1353 C   0  0  0  0  0  0  0  0  0  0  0  0
   -4.2680    8.6311    0.6779 N   0  0  0  0  0  0  0  0  0  0  0  0
   -3.6840    7.4346    0.3575 C   0  0  0  0  0  0  0  0  0  0  0  0
   -2.6187    7.2230    1.2176 C   0  0  0  0  0  0  0  0  0  0  0  0
   -1.7059    6.0898    1.1252 C   0  0  0  0  0  0  0  0  0  0  0  0
   -5.4001    9.2041   -0.0195 C   0  0  0  0  0  0  0  0  0  0  0  0
   -0.5021    6.2876    1.6894 N   0  0  0  0  0  0  0  0  0  0  0  0
    0.4390    5.3486    1.5443 C   0  0  0  0  0  0  0  0  0  0  0  0
    0.2364    4.1979    0.8898 N   0  0  0  0  0  0  0  0  0  0  0  0
   -0.9949    4.0106    0.3674 C   0  0  0  0  0  0  0  0  0  0  0  0
   -2.0172    4.9250    0.4650 C   0  0  0  0  0  0  0  0  0  0  0  0
    1.7199    5.5776    2.0734 N   0  0  0  0  0  0  0  0  0  0  0  0
    2.3361    6.8446    2.2133 C   0  0  0  0  0  0  0  0  0  0  0  0
    2.0042    7.8740    1.3087 C   0  0  0  0  0  0  0  0  0  0  0  0
    2.6218    9.1260    1.3408 C   0  0  0  0  0  0  0  0  0  0  0  0
    3.6194    9.4065    2.2668 C   0  0  0  0  0  0  0  0  0  0  0  0
    3.9471    8.3908    3.1746 C   0  0  0  0  0  0  0  0  0  0  0  0
    3.3510    7.1118    3.1458 C   0  0  0  0  0  0  0  0  0  0  0  0
    3.9159    6.2858    4.0828 O   0  0  0  0  0  0  0  0  0  0  0  0
    3.4154    4.9771    4.2786 C   0  0  0  0  0  0  0  0  0  0  0  0
    4.3593   10.5783    2.2482 N   0  0  0  0  0  0  0  0  0  0  0  0
    4.5081   11.3113    0.9834 C   0  0  0  0  0  0  0  0  0  0  0  0
    5.7977   12.1547    1.0523 C   0  0  0  0  0  0  0  0  0  0  0  0
    5.7870   13.1101    2.1838 N   0  0  0  0  0  0  0  0  0  0  0  0
    5.5463   12.3747    3.4522 C   0  0  0  0  0  0  0  0  0  0  0  0
    4.2820   11.4732    3.4173 C   0  0  0  0  0  0  0  0  0  0  0  0
    7.0563   13.8318    2.2370 C   0  0  0  0  0  0  0  0  0  0  0  0
   -1.3532   10.3430    4.5486 H   0  0  0  0  0  0  0  0  0  0  0  0
   -4.6121   11.1277    2.1296 H   0  0  0  0  0  0  0  0  0  0  0  0
   -0.8746    8.1540    3.4616 H   0  0  0  0  0  0  0  0  0  0  0  0
   -4.0567    6.8468   -0.4719 H   0  0  0  0  0  0  0  0  0  0  0  0
   -6.2169    9.3279    0.6955 H   0  0  0  0  0  0  0  0  0  0  0  0
   -5.0973   10.1663   -0.4378 H   0  0  0  0  0  0  0  0  0  0  0  0
   -5.7104    8.5319   -0.8240 H   0  0  0  0  0  0  0  0  0  0  0  0
   -1.1368    3.0675   -0.1548 H   0  0  0  0  0  0  0  0  0  0  0  0
   -2.9857    4.7322    0.0302 H   0  0  0  0  0  0  0  0  0  0  0  0
    2.3338    4.8989    1.6373 H   0  0  0  0  0  0  0  0  0  0  0  0
    1.2547    7.7138    0.5370 H   0  0  0  0  0  0  0  0  0  0  0  0
    2.3058    9.8706    0.6167 H   0  0  0  0  0  0  0  0  0  0  0  0
    4.7436    8.5704    3.8941 H   0  0  0  0  0  0  0  0  0  0  0  0
    2.3923    4.9961    4.6645 H   0  0  0  0  0  0  0  0  0  0  0  0
    3.5094    4.3683    3.3761 H   0  0  0  0  0  0  0  0  0  0  0  0
    4.0462    4.5009    5.0370 H   0  0  0  0  0  0  0  0  0  0  0  0
    3.6386   11.9571    0.8053 H   0  0  0  0  0  0  0  0  0  0  0  0
    4.6021   10.6201    0.1370 H   0  0  0  0  0  0  0  0  0  0  0  0
    5.9060   12.6989    0.1076 H   0  0  0  0  0  0  0  0  0  0  0  0
    6.6557   11.4732    1.1422 H   0  0  0  0  0  0  0  0  0  0  0  0
    6.4118   11.7396    3.6853 H   0  0  0  0  0  0  0  0  0  0  0  0
    5.4366   13.0947    4.2721 H   0  0  0  0  0  0  0  0  0  0  0  0
    3.3828   12.0995    3.3453 H   0  0  0  0  0  0  0  0  0  0  0  0
    4.2201   10.9166    4.3595 H   0  0  0  0  0  0  0  0  0  0  0  0
    7.0446   14.5712    3.0469 H   0  0  0  0  0  0  0  0  0  0  0  0
    7.9110   13.1624    2.3923 H   0  0  0  0  0  0  0  0  0  0  0  0
    7.2205   14.3849    1.3047 H   0  0  0  0  0  0  0  0  0  0  0  0
  1  2  2  0  0  0  0
  1 33  1  0  0  0  0
  2  3  1  0  0  0  0
  3  4  2  0  0  0  0
  3 34  1  0  0  0  0
  4  5  1  0  0  0  0
  4  7  1  0  0  0  0
  5  6  2  0  0  0  0
  6  1  1  0  0  0  0
  6 35  1  0  0  0  0
  7  8  1  0  0  0  0
  7 11  1  0  0  0  0
  8  9  2  0  0  0  0
  8 36  1  0  0  0  0
  9  5  1  0  0  0  0
  9 10  1  0  0  0  0
 10 12  2  0  0  0  0
 11 37  1  0  0  0  0
 11 38  1  0  0  0  0
 11 39  1  0  0  0  0
 12 13  1  0  0  0  0
 13 14  2  0  0  0  0
 13 17  1  0  0  0  0
 14 15  1  0  0  0  0
 15 16  2  0  0  0  0
 15 40  1  0  0  0  0
 16 10  1  0  0  0  0
 16 41  1  0  0  0  0
 17 18  1  0  0  0  0
 17 42  1  0  0  0  0
 18 19  2  0  0  0  0
 19 20  1  0  0  0  0
 19 43  1  0  0  0  0
 20 21  2  0  0  0  0
 20 44  1  0  0  0  0
 21 22  1  0  0  0  0
 21 26  1  0  0  0  0
 22 23  2  0  0  0  0
 22 45  1  0  0  0  0
 23 18  1  0  0  0  0
 23 24  1  0  0  0  0
 24 25  1  0  0  0  0
 25 46  1  0  0  0  0
 25 47  1  0  0  0  0
 25 48  1  0  0  0  0
 26 27  1  0  0  0  0
 27 28  1  0  0  0  0
 27 49  1  0  0  0  0
 27 50  1  0  0  0  0
 28 29  1  0  0  0  0
 28 51  1  0  0  0  0
 28 52  1  0  0  0  0
 29 30  1  0  0  0  0
 29 32  1  0  0  0  0
 30 31  1  0  0  0  0
 30 53  1  0  0  0  0
 30 54  1  0  0  0  0
 31 26  1  0  0  0  0
 31 55  1  0  0  0  0
 31 56  1  0  0  0  0
 32 57  1  0  0  0  0
 32 58  1  0  0  0  0
 32 59  1  0  0  0  0
M  END
>  <Mol_ID>
2330

>  <Formula>
C24H27N7O

>  <MolWeight>
429.51748

>  <Cat>
S7338

>  <Name>
AZ191

>  <Synonyms>
N/A

>  <Target>
DYRK

>  <Form>
free base

>  <CAS>
1594092-37-1

>  <URL>
http://selleckchem.com/products/az191.html

$$$$
