AZ20.cdx
 OpenBabel08302519583D

 53 57  0  0  0  0  0  0  0  0999 V2000
   -0.2975   -1.3749   -0.0579 C   0  0  0  0  0  0  0  0  0  0  0  0
    0.9184   -0.7188   -0.1036 C   0  0  0  0  0  0  0  0  0  0  0  0
    0.9499    0.6192   -0.1633 N   0  0  0  0  0  0  0  0  0  0  0  0
   -0.2162    1.2863   -0.1105 C   0  0  0  0  0  0  0  0  0  0  0  0
   -1.4263    0.7046   -0.0753 N   0  0  0  0  0  0  0  0  0  0  0  0
   -1.4775   -0.6371   -0.0482 C   0  0  0  0  0  0  0  0  0  0  0  0
    2.2367   -1.4343   -0.0306 C   0  0  0  0  0  0  0  0  0  0  0  0
    2.9271   -2.0440   -1.6131 S   0  0  0  0  0  0  0  0  0  0  0  0
    3.0553   -0.5962   -2.6288 C   0  0  0  0  0  0  0  0  0  0  0  0
    4.2694   -2.5350   -1.3653 O   0  0  0  0  0  0  0  0  0  0  0  0
    1.9193   -2.9203   -2.1810 O   0  0  0  0  0  0  0  0  0  0  0  0
    2.6007   -2.2840    1.1654 C   0  0  0  0  0  0  0  0  0  0  0  0
    3.3139   -0.9837    0.9382 C   0  0  0  0  0  0  0  0  0  0  0  0
   -2.6990   -1.2850   -0.0293 N   0  0  0  0  0  0  0  0  0  0  0  0
   -3.9759   -0.7273   -0.5515 C   0  0  1  0  0  0  0  0  0  0  0  0
   -4.9705   -0.4408    0.5941 C   0  0  0  0  0  0  0  0  0  0  0  0
   -5.1680   -1.5943    1.4280 O   0  0  0  0  0  0  0  0  0  0  0  0
   -3.9219   -1.9882    2.0153 C   0  0  0  0  0  0  0  0  0  0  0  0
   -2.8952   -2.3826    0.9416 C   0  0  0  0  0  0  0  0  0  0  0  0
   -0.1331    2.7490   -0.0297 C   0  0  0  0  0  0  0  0  0  0  0  0
   -1.0960    3.6053   -0.6056 C   0  0  0  0  0  0  0  0  0  0  0  0
   -0.9796    4.9936   -0.5302 C   0  0  0  0  0  0  0  0  0  0  0  0
    0.0991    5.5926    0.1217 C   0  0  0  0  0  0  0  0  0  0  0  0
    1.0456    4.7499    0.7108 C   0  0  0  0  0  0  0  0  0  0  0  0
    0.9526    3.3569    0.6611 C   0  0  0  0  0  0  0  0  0  0  0  0
    2.1870    5.0651    1.4175 N   0  0  0  0  0  0  0  0  0  0  0  0
    2.8098    3.9289    1.8497 C   0  0  0  0  0  0  0  0  0  0  0  0
    2.0675    2.8629    1.4078 C   0  0  0  0  0  0  0  0  0  0  0  0
   -3.8698    0.4825   -1.4726 C   0  0  0  0  0  0  0  0  0  0  0  0
   -0.3192   -2.4607   -0.0576 H   0  0  0  0  0  0  0  0  0  0  0  0
    3.6770    0.1409   -2.1172 H   0  0  0  0  0  0  0  0  0  0  0  0
    3.5262   -0.8857   -3.5712 H   0  0  0  0  0  0  0  0  0  0  0  0
    2.0582   -0.1986   -2.8226 H   0  0  0  0  0  0  0  0  0  0  0  0
    1.9162   -2.3256    2.0055 H   0  0  0  0  0  0  0  0  0  0  0  0
    3.1613   -3.2000    1.0146 H   0  0  0  0  0  0  0  0  0  0  0  0
    4.3568   -1.0174    0.6418 H   0  0  0  0  0  0  0  0  0  0  0  0
    3.1014   -0.1776    1.6281 H   0  0  0  0  0  0  0  0  0  0  0  0
   -4.4075   -1.5393   -1.1533 H   0  0  0  0  0  0  0  0  0  0  0  0
   -4.6411    0.3975    1.2189 H   0  0  0  0  0  0  0  0  0  0  0  0
   -5.9504   -0.1798    0.1786 H   0  0  0  0  0  0  0  0  0  0  0  0
   -3.5483   -1.1711    2.6439 H   0  0  0  0  0  0  0  0  0  0  0  0
   -4.1213   -2.8448    2.6674 H   0  0  0  0  0  0  0  0  0  0  0  0
   -3.2651   -3.2545    0.3895 H   0  0  0  0  0  0  0  0  0  0  0  0
   -1.9720   -2.6827    1.4490 H   0  0  0  0  0  0  0  0  0  0  0  0
   -1.9475    3.1751   -1.1313 H   0  0  0  0  0  0  0  0  0  0  0  0
   -1.7413    5.6227   -0.9871 H   0  0  0  0  0  0  0  0  0  0  0  0
    0.1899    6.6718    0.1785 H   0  0  0  0  0  0  0  0  0  0  0  0
    2.5055    6.0061    1.6009 H   0  0  0  0  0  0  0  0  0  0  0  0
    3.7174    3.9687    2.4337 H   0  0  0  0  0  0  0  0  0  0  0  0
    2.2988    1.8280    1.6018 H   0  0  0  0  0  0  0  0  0  0  0  0
   -3.1018    0.3473   -2.2400 H   0  0  0  0  0  0  0  0  0  0  0  0
   -4.8241    0.6492   -1.9854 H   0  0  0  0  0  0  0  0  0  0  0  0
   -3.6577    1.3997   -0.9137 H   0  0  0  0  0  0  0  0  0  0  0  0
  1  2  2  0  0  0  0
  1 30  1  0  0  0  0
  2  3  1  0  0  0  0
  2  7  1  0  0  0  0
  3  4  2  0  0  0  0
  4  5  1  0  0  0  0
  4 20  1  0  0  0  0
  5  6  2  0  0  0  0
  6  1  1  0  0  0  0
  6 14  1  0  0  0  0
  7  8  1  0  0  0  0
  7 12  1  0  0  0  0
  8  9  1  0  0  0  0
  8 10  2  0  0  0  0
  8 11  2  0  0  0  0
  9 31  1  0  0  0  0
  9 32  1  0  0  0  0
  9 33  1  0  0  0  0
 12 13  1  0  0  0  0
 12 34  1  0  0  0  0
 12 35  1  0  0  0  0
 13  7  1  0  0  0  0
 13 36  1  0  0  0  0
 13 37  1  0  0  0  0
 14 15  1  0  0  0  0
 15 16  1  0  0  0  0
 15 29  1  0  0  0  0
 15 38  1  6  0  0  0
 16 17  1  0  0  0  0
 16 39  1  0  0  0  0
 16 40  1  0  0  0  0
 17 18  1  0  0  0  0
 18 19  1  0  0  0  0
 18 41  1  0  0  0  0
 18 42  1  0  0  0  0
 19 14  1  0  0  0  0
 19 43  1  0  0  0  0
 19 44  1  0  0  0  0
 20 21  2  0  0  0  0
 21 22  1  0  0  0  0
 21 45  1  0  0  0  0
 22 23  2  0  0  0  0
 22 46  1  0  0  0  0
 23 24  1  0  0  0  0
 23 47  1  0  0  0  0
 24 25  2  0  0  0  0
 24 26  1  0  0  0  0
 25 20  1  0  0  0  0
 26 27  1  0  0  0  0
 26 48  1  0  0  0  0
 27 28  2  0  0  0  0
 27 49  1  0  0  0  0
 28 25  1  0  0  0  0
 28 50  1  0  0  0  0
 29 51  1  0  0  0  0
 29 52  1  0  0  0  0
 29 53  1  0  0  0  0
M  END
>  <Mol_ID>
2346

>  <Formula>
C21H24N4O3S

>  <MolWeight>
412.50526

>  <Cat>
S7050

>  <Name>
AZ20

>  <Synonyms>
N/A

>  <Target>
ATM/ATR

>  <Form>
free base

>  <CAS>
1233339-22-4

>  <URL>
http://selleckchem.com/products/az20.html

$$$$
