AZ31
 OpenBabel08302521043D

 59 62  0  0  0  0  0  0  0  0999 V2000
   -2.6956   -6.9982   -4.6557 C   0  0  0  0  0  0  0  0  0  0  0  0
   -2.6294   -8.3753   -4.4346 C   0  0  0  0  0  0  0  0  0  0  0  0
   -2.7167   -8.8918   -3.1467 C   0  0  0  0  0  0  0  0  0  0  0  0
   -2.8505   -8.0770   -2.0380 C   0  0  0  0  0  0  0  0  0  0  0  0
   -2.8678   -6.6631   -2.1617 C   0  0  0  0  0  0  0  0  0  0  0  0
   -2.7907   -6.1623   -3.5074 C   0  0  0  0  0  0  0  0  0  0  0  0
   -2.9705   -8.7271   -0.8827 N   0  0  0  0  0  0  0  0  0  0  0  0
   -3.1324   -7.9962    0.2344 C   0  0  0  0  0  0  0  0  0  0  0  0
   -3.1524   -6.6097    0.2770 C   0  0  0  0  0  0  0  0  0  0  0  0
   -2.9889   -5.8892   -0.9294 C   0  0  0  0  0  0  0  0  0  0  0  0
   -2.6988   -6.4699   -6.0409 C   0  0  0  0  0  0  0  0  0  0  0  0
   -2.9345   -4.4626   -0.9508 N   0  0  0  0  0  0  0  0  0  0  0  0
   -3.4567   -6.0893    1.6280 C   0  0  0  0  0  0  0  0  0  0  0  0
   -4.3802   -5.0945    1.7407 N   0  0  0  0  0  0  0  0  0  0  0  0
   -2.9742   -6.6090    2.6281 O   0  0  0  0  0  0  0  0  0  0  0  0
   -1.7818   -3.7793   -0.2796 C   0  0  2  0  0  0  0  0  0  0  0  0
   -2.3103   -2.6837    0.7022 C   0  0  0  0  0  0  0  0  0  0  0  0
   -0.8590   -3.1773   -1.3547 C   0  0  0  0  0  0  0  0  0  0  0  0
   -3.2049   -1.6312    0.0236 C   0  0  0  0  0  0  0  0  0  0  0  0
   -3.6671   -0.5707    1.0160 C   0  0  0  0  0  0  0  0  0  0  0  0
   -2.5530    0.0371    1.6643 O   0  0  0  0  0  0  0  0  0  0  0  0
   -1.7949   -0.9042    2.4221 C   0  0  0  0  0  0  0  0  0  0  0  0
   -1.2005   -1.9696    1.5029 C   0  0  0  0  0  0  0  0  0  0  0  0
   -2.1381   -5.2418   -6.3782 C   0  0  0  0  0  0  0  0  0  0  0  0
   -2.1713   -4.6702   -7.6151 N   0  0  0  0  0  0  0  0  0  0  0  0
   -2.7756   -5.3660   -8.6051 C   0  0  0  0  0  0  0  0  0  0  0  0
   -3.3131   -6.6295   -8.3987 C   0  0  0  0  0  0  0  0  0  0  0  0
   -3.2840   -7.1656   -7.1089 C   0  0  0  0  0  0  0  0  0  0  0  0
   -2.9426   -4.6767   -9.9412 C   0  0  0  0  0  0  0  0  0  0  0  0
   -4.3173   -4.6129  -10.3491 O   0  0  0  0  0  0  0  0  0  0  0  0
   -5.0949   -3.7654   -9.5080 C   0  0  0  0  0  0  0  0  0  0  0  0
   -2.5213   -9.0787   -5.2584 H   0  0  0  0  0  0  0  0  0  0  0  0
   -2.6945   -9.9721   -3.0081 H   0  0  0  0  0  0  0  0  0  0  0  0
   -2.8520   -5.0889   -3.6655 H   0  0  0  0  0  0  0  0  0  0  0  0
   -3.2855   -8.5927    1.1310 H   0  0  0  0  0  0  0  0  0  0  0  0
   -3.0551   -4.1027   -1.8941 H   0  0  0  0  0  0  0  0  0  0  0  0
   -4.5919   -4.7588    2.6718 H   0  0  0  0  0  0  0  0  0  0  0  0
   -4.7230   -4.5900    0.9335 H   0  0  0  0  0  0  0  0  0  0  0  0
   -1.1915   -4.5021    0.2985 H   0  0  0  0  0  0  0  0  0  0  0  0
   -2.9260   -3.1851    1.4523 H   0  0  0  0  0  0  0  0  0  0  0  0
   -0.0283   -2.6174   -0.9132 H   0  0  0  0  0  0  0  0  0  0  0  0
   -0.4215   -3.9596   -1.9817 H   0  0  0  0  0  0  0  0  0  0  0  0
   -1.4001   -2.4959   -2.0207 H   0  0  0  0  0  0  0  0  0  0  0  0
   -2.6416   -1.1288   -0.7699 H   0  0  0  0  0  0  0  0  0  0  0  0
   -4.0803   -2.1033   -0.4340 H   0  0  0  0  0  0  0  0  0  0  0  0
   -4.2113    0.2160    0.4834 H   0  0  0  0  0  0  0  0  0  0  0  0
   -4.3453   -0.9908    1.7676 H   0  0  0  0  0  0  0  0  0  0  0  0
   -2.4290   -1.3464    3.1996 H   0  0  0  0  0  0  0  0  0  0  0  0
   -0.9930   -0.3537    2.9252 H   0  0  0  0  0  0  0  0  0  0  0  0
   -0.6254   -2.6904    2.0946 H   0  0  0  0  0  0  0  0  0  0  0  0
   -0.5067   -1.4657    0.8219 H   0  0  0  0  0  0  0  0  0  0  0  0
   -1.6244   -4.6370   -5.6374 H   0  0  0  0  0  0  0  0  0  0  0  0
   -3.7978   -7.1608   -9.2132 H   0  0  0  0  0  0  0  0  0  0  0  0
   -3.7615   -8.1348   -6.9584 H   0  0  0  0  0  0  0  0  0  0  0  0
   -2.5191   -3.6653   -9.9205 H   0  0  0  0  0  0  0  0  0  0  0  0
   -2.3980   -5.2423  -10.7054 H   0  0  0  0  0  0  0  0  0  0  0  0
   -5.1566   -4.1687   -8.4926 H   0  0  0  0  0  0  0  0  0  0  0  0
   -4.6812   -2.7531   -9.4864 H   0  0  0  0  0  0  0  0  0  0  0  0
   -6.1099   -3.7226   -9.9117 H   0  0  0  0  0  0  0  0  0  0  0  0
  1  2  2  0  0  0  0
  1 11  1  0  0  0  0
  2  3  1  0  0  0  0
  2 32  1  0  0  0  0
  3  4  2  0  0  0  0
  3 33  1  0  0  0  0
  4  5  1  0  0  0  0
  4  7  1  0  0  0  0
  5  6  2  0  0  0  0
  6  1  1  0  0  0  0
  6 34  1  0  0  0  0
  7  8  2  0  0  0  0
  8  9  1  0  0  0  0
  8 35  1  0  0  0  0
  9 10  2  0  0  0  0
  9 13  1  0  0  0  0
 10  5  1  0  0  0  0
 10 12  1  0  0  0  0
 11 24  2  0  0  0  0
 12 36  1  0  0  0  0
 13 14  1  0  0  0  0
 13 15  2  0  0  0  0
 14 37  1  0  0  0  0
 14 38  1  0  0  0  0
 16 18  1  0  0  0  0
 16 39  1  1  0  0  0
 16 17  1  0  0  0  0
 16 12  1  0  0  0  0
 17 19  1  0  0  0  0
 17 40  1  0  0  0  0
 18 41  1  0  0  0  0
 18 42  1  0  0  0  0
 18 43  1  0  0  0  0
 19 20  1  0  0  0  0
 19 44  1  0  0  0  0
 19 45  1  0  0  0  0
 20 21  1  0  0  0  0
 20 46  1  0  0  0  0
 20 47  1  0  0  0  0
 21 22  1  0  0  0  0
 22 23  1  0  0  0  0
 22 48  1  0  0  0  0
 22 49  1  0  0  0  0
 23 17  1  0  0  0  0
 23 50  1  0  0  0  0
 23 51  1  0  0  0  0
 24 25  1  0  0  0  0
 24 52  1  0  0  0  0
 25 26  2  0  0  0  0
 26 27  1  0  0  0  0
 26 29  1  0  0  0  0
 27 28  2  0  0  0  0
 27 53  1  0  0  0  0
 28 11  1  0  0  0  0
 28 54  1  0  0  0  0
 29 30  1  0  0  0  0
 29 55  1  0  0  0  0
 29 56  1  0  0  0  0
 30 31  1  0  0  0  0
 31 57  1  0  0  0  0
 31 58  1  0  0  0  0
 31 59  1  0  0  0  0
M  END
>  <Mol_ID>
4294

>  <Formula>
C24H28N4O3

>  <MolWeight>
420.50412

>  <Cat>
S8556

>  <Name>
AZ31

>  <Synonyms>
N/A

>  <Target>
ATM/ATR

>  <Form>
Free Base

>  <CAS>
2088113-98-6

>  <URL>
http://www.selleckchem.com/products/az31.html

$$$$
