AZ3146.cdx
 OpenBabel08302521433D

 65 69  0  0  0  0  0  0  0  0999 V2000
    1.1591   -0.1488    0.4339 C   0  0  0  0  0  0  0  0  0  0  0  0
    0.1806   -1.0519    0.8083 C   0  0  0  0  0  0  0  0  0  0  0  0
   -1.1727   -0.7781    0.5349 C   0  0  0  0  0  0  0  0  0  0  0  0
   -1.5759    0.4841    0.0531 C   0  0  0  0  0  0  0  0  0  0  0  0
   -0.5842    1.4290   -0.2262 C   0  0  0  0  0  0  0  0  0  0  0  0
    0.7678    1.0952   -0.0838 C   0  0  0  0  0  0  0  0  0  0  0  0
   -2.9356    0.7358   -0.2374 N   0  0  0  0  0  0  0  0  0  0  0  0
   -3.5999    1.9607   -0.2139 C   0  0  0  0  0  0  0  0  0  0  0  0
    2.4941   -0.3216    0.5715 O   0  0  0  0  0  0  0  0  0  0  0  0
    3.2024   -1.5546    0.8114 C   0  0  0  0  0  0  0  0  0  0  0  0
   -3.1775    2.9206    0.6327 N   0  0  0  0  0  0  0  0  0  0  0  0
   -3.7900    4.0906    0.5283 C   0  0  0  0  0  0  0  0  0  0  0  0
   -4.7730    4.3745   -0.4011 C   0  0  0  0  0  0  0  0  0  0  0  0
   -5.1539    3.3709   -1.2008 C   0  0  0  0  0  0  0  0  0  0  0  0
   -4.6142    2.1303   -1.0948 N   0  0  0  0  0  0  0  0  0  0  0  0
    3.6428   -1.7475    2.2788 C   0  0  0  0  0  0  0  0  0  0  0  0
    4.6936   -0.7242    2.8076 C   0  0  0  0  0  0  0  0  0  0  0  0
    5.7198   -0.2773    1.8376 N   0  0  0  0  0  0  0  0  0  0  0  0
    5.1276   -0.0725    0.5152 C   0  0  0  0  0  0  0  0  0  0  0  0
    4.5308   -1.4072    0.0591 C   0  0  0  0  0  0  0  0  0  0  0  0
    6.3618    0.9731    2.2662 C   0  0  0  0  0  0  0  0  0  0  0  0
   -2.1895   -1.6823    0.7501 O   0  0  0  0  0  0  0  0  0  0  0  0
   -1.8133   -3.0482    0.6033 C   0  0  0  0  0  0  0  0  0  0  0  0
   -3.5850    5.2419    1.3036 N   0  0  0  0  0  0  0  0  0  0  0  0
   -4.3561    6.2882    0.7502 C   0  0  0  0  0  0  0  0  0  0  0  0
   -5.1159    5.7224   -0.2964 N   0  0  0  0  0  0  0  0  0  0  0  0
   -2.6417    5.3329    2.4038 C   0  0  0  0  0  0  0  0  0  0  0  0
   -6.0728    6.4275   -1.0896 C   0  0  0  0  0  0  0  0  0  0  0  0
   -4.3909    7.4629    1.0931 O   0  0  0  0  0  0  0  0  0  0  0  0
   -2.5976    4.0906    3.3056 C   0  0  0  0  0  0  0  0  0  0  0  0
   -2.0927    4.5630    4.6642 C   0  0  0  0  0  0  0  0  0  0  0  0
   -2.2279    6.0785    4.6749 C   0  0  0  0  0  0  0  0  0  0  0  0
   -2.9869    6.4366    3.4090 C   0  0  0  0  0  0  0  0  0  0  0  0
    0.4698   -1.9446    1.3422 H   0  0  0  0  0  0  0  0  0  0  0  0
   -0.8505    2.4201   -0.5902 H   0  0  0  0  0  0  0  0  0  0  0  0
    1.5177    1.8271   -0.3801 H   0  0  0  0  0  0  0  0  0  0  0  0
   -3.5536   -0.0266    0.0040 H   0  0  0  0  0  0  0  0  0  0  0  0
    2.6524   -2.4288    0.4384 H   0  0  0  0  0  0  0  0  0  0  0  0
   -5.9034    3.4804   -1.9798 H   0  0  0  0  0  0  0  0  0  0  0  0
    4.1043   -2.7431    2.3499 H   0  0  0  0  0  0  0  0  0  0  0  0
    2.7732   -1.7522    2.9433 H   0  0  0  0  0  0  0  0  0  0  0  0
    5.2235   -1.1990    3.6463 H   0  0  0  0  0  0  0  0  0  0  0  0
    4.1531    0.1319    3.2269 H   0  0  0  0  0  0  0  0  0  0  0  0
    4.3781    0.7260    0.5979 H   0  0  0  0  0  0  0  0  0  0  0  0
    5.8532    0.2787   -0.2196 H   0  0  0  0  0  0  0  0  0  0  0  0
    5.2129   -2.2410    0.3017 H   0  0  0  0  0  0  0  0  0  0  0  0
    4.3927   -1.4275   -1.0246 H   0  0  0  0  0  0  0  0  0  0  0  0
    6.9443    1.4153    1.4465 H   0  0  0  0  0  0  0  0  0  0  0  0
    5.6331    1.7282    2.5846 H   0  0  0  0  0  0  0  0  0  0  0  0
    7.0665    0.7949    3.0833 H   0  0  0  0  0  0  0  0  0  0  0  0
   -1.4181   -3.2517   -0.3992 H   0  0  0  0  0  0  0  0  0  0  0  0
   -1.1000   -3.3516    1.3741 H   0  0  0  0  0  0  0  0  0  0  0  0
   -2.7120   -3.6542    0.7418 H   0  0  0  0  0  0  0  0  0  0  0  0
   -1.6484    5.5222    1.9769 H   0  0  0  0  0  0  0  0  0  0  0  0
   -6.9284    6.6759   -0.4551 H   0  0  0  0  0  0  0  0  0  0  0  0
   -5.6167    7.3581   -1.4403 H   0  0  0  0  0  0  0  0  0  0  0  0
   -6.4002    5.8352   -1.9444 H   0  0  0  0  0  0  0  0  0  0  0  0
   -3.6005    3.6608    3.4244 H   0  0  0  0  0  0  0  0  0  0  0  0
   -1.9497    3.3066    2.9006 H   0  0  0  0  0  0  0  0  0  0  0  0
   -2.6768    4.1051    5.4700 H   0  0  0  0  0  0  0  0  0  0  0  0
   -1.0472    4.2740    4.8163 H   0  0  0  0  0  0  0  0  0  0  0  0
   -2.7513    6.4351    5.5678 H   0  0  0  0  0  0  0  0  0  0  0  0
   -1.2355    6.5426    4.6673 H   0  0  0  0  0  0  0  0  0  0  0  0
   -2.7044    7.4304    3.0464 H   0  0  0  0  0  0  0  0  0  0  0  0
   -4.0642    6.4498    3.6188 H   0  0  0  0  0  0  0  0  0  0  0  0
  1  2  2  0  0  0  0
  1  9  1  0  0  0  0
  2  3  1  0  0  0  0
  2 34  1  0  0  0  0
  3  4  2  0  0  0  0
  3 22  1  0  0  0  0
  4  5  1  0  0  0  0
  4  7  1  0  0  0  0
  5  6  2  0  0  0  0
  5 35  1  0  0  0  0
  6  1  1  0  0  0  0
  6 36  1  0  0  0  0
  7  8  1  0  0  0  0
  7 37  1  0  0  0  0
  8 11  2  0  0  0  0
  9 10  1  0  0  0  0
 10 16  1  0  0  0  0
 10 38  1  0  0  0  0
 11 12  1  0  0  0  0
 12 13  2  0  0  0  0
 12 24  1  0  0  0  0
 13 14  1  0  0  0  0
 14 15  2  0  0  0  0
 14 39  1  0  0  0  0
 15  8  1  0  0  0  0
 16 17  1  0  0  0  0
 16 40  1  0  0  0  0
 16 41  1  0  0  0  0
 17 18  1  0  0  0  0
 17 42  1  0  0  0  0
 17 43  1  0  0  0  0
 18 19  1  0  0  0  0
 18 21  1  0  0  0  0
 19 20  1  0  0  0  0
 19 44  1  0  0  0  0
 19 45  1  0  0  0  0
 20 10  1  0  0  0  0
 20 46  1  0  0  0  0
 20 47  1  0  0  0  0
 21 48  1  0  0  0  0
 21 49  1  0  0  0  0
 21 50  1  0  0  0  0
 22 23  1  0  0  0  0
 23 51  1  0  0  0  0
 23 52  1  0  0  0  0
 23 53  1  0  0  0  0
 24 25  1  0  0  0  0
 24 27  1  0  0  0  0
 25 26  1  0  0  0  0
 25 29  2  0  0  0  0
 26 13  1  0  0  0  0
 26 28  1  0  0  0  0
 27 30  1  0  0  0  0
 27 54  1  0  0  0  0
 28 55  1  0  0  0  0
 28 56  1  0  0  0  0
 28 57  1  0  0  0  0
 30 31  1  0  0  0  0
 30 58  1  0  0  0  0
 30 59  1  0  0  0  0
 31 32  1  0  0  0  0
 31 60  1  0  0  0  0
 31 61  1  0  0  0  0
 32 33  1  0  0  0  0
 32 62  1  0  0  0  0
 32 63  1  0  0  0  0
 33 27  1  0  0  0  0
 33 64  1  0  0  0  0
 33 65  1  0  0  0  0
M  END
>  <Mol_ID>
878

>  <Formula>
C24H32N6O3

>  <MolWeight>
452.54928

>  <Cat>
S2731

>  <Name>
AZ 3146

>  <Synonyms>
N/A

>  <Target>
MPS1

>  <Form>
free base

>  <CAS>
1124329-14-1

>  <URL>
http://selleckchem.com/products/az-3146.html

$$$$
