AZ32
 OpenBabel08302521043D

 41 44  0  0  0  0  0  0  0  0999 V2000
    1.3203   -0.3171    0.3837 C   0  0  0  0  0  0  0  0  0  0  0  0
    0.7642    0.8504    0.9061 C   0  0  0  0  0  0  0  0  0  0  0  0
   -0.5931    1.1203    0.7251 C   0  0  0  0  0  0  0  0  0  0  0  0
   -1.4029    0.2185    0.0254 C   0  0  0  0  0  0  0  0  0  0  0  0
   -0.8336   -0.9429   -0.5147 C   0  0  0  0  0  0  0  0  0  0  0  0
    0.5246   -1.2101   -0.3332 C   0  0  0  0  0  0  0  0  0  0  0  0
   -2.8365    0.4911   -0.1514 C   0  0  0  0  0  0  0  0  0  0  0  0
   -3.7238   -0.0617    0.7620 N   0  0  0  0  0  0  0  0  0  0  0  0
   -4.9950    0.1821    0.5875 C   0  0  0  0  0  0  0  0  0  0  0  0
   -5.4749    0.9626   -0.5183 C   0  0  0  0  0  0  0  0  0  0  0  0
   -4.5644    1.4682   -1.4128 N   0  0  0  0  0  0  0  0  0  0  0  0
   -3.2131    1.2496   -1.1970 C   0  0  0  0  0  0  0  0  0  0  0  0
   -6.7126    1.2837   -0.8075 N   0  0  0  0  0  0  0  0  0  0  0  0
   -6.6033    2.0062   -1.9699 C   0  0  0  0  0  0  0  0  0  0  0  0
   -5.2841    2.1216   -2.4029 C   0  0  0  0  0  0  0  0  0  0  0  0
   -4.7388    2.7662   -3.6053 C   0  0  0  0  0  0  0  0  0  0  0  0
   -5.3760    3.8882   -4.1520 C   0  0  0  0  0  0  0  0  0  0  0  0
   -4.8805    4.5033   -5.3072 C   0  0  0  0  0  0  0  0  0  0  0  0
   -3.7219    4.0214   -5.9257 C   0  0  0  0  0  0  0  0  0  0  0  0
   -3.0829    2.8983   -5.4002 C   0  0  0  0  0  0  0  0  0  0  0  0
   -3.6067    2.2643   -4.2668 C   0  0  0  0  0  0  0  0  0  0  0  0
   -3.2568    4.6885   -7.1745 C   0  0  0  0  0  0  0  0  0  0  0  0
   -1.9011    4.6351   -7.4361 N   0  0  0  0  0  0  0  0  0  0  0  0
   -4.0666    5.2577   -7.8923 O   0  0  0  0  0  0  0  0  0  0  0  0
   -1.3307    5.2590   -8.6061 C   0  0  0  0  0  0  0  0  0  0  0  0
    2.3732   -0.5352    0.5433 H   0  0  0  0  0  0  0  0  0  0  0  0
    1.3844    1.5452    1.4662 H   0  0  0  0  0  0  0  0  0  0  0  0
   -1.0214    2.0270    1.1450 H   0  0  0  0  0  0  0  0  0  0  0  0
   -1.4492   -1.6503   -1.0657 H   0  0  0  0  0  0  0  0  0  0  0  0
    0.9586   -2.1203   -0.7390 H   0  0  0  0  0  0  0  0  0  0  0  0
   -5.7256   -0.2265    1.3037 H   0  0  0  0  0  0  0  0  0  0  0  0
   -2.5024    1.6920   -1.8787 H   0  0  0  0  0  0  0  0  0  0  0  0
   -7.4881    2.3967   -2.4563 H   0  0  0  0  0  0  0  0  0  0  0  0
   -6.2738    4.2987   -3.6945 H   0  0  0  0  0  0  0  0  0  0  0  0
   -5.4052    5.3599   -5.7278 H   0  0  0  0  0  0  0  0  0  0  0  0
   -2.2096    2.4682   -5.8821 H   0  0  0  0  0  0  0  0  0  0  0  0
   -3.1246    1.3485   -3.9384 H   0  0  0  0  0  0  0  0  0  0  0  0
   -1.2691    4.2737   -6.7400 H   0  0  0  0  0  0  0  0  0  0  0  0
   -0.6673    6.0620   -8.2749 H   0  0  0  0  0  0  0  0  0  0  0  0
   -0.7468    4.5064   -9.1411 H   0  0  0  0  0  0  0  0  0  0  0  0
   -2.0988    5.6671   -9.2674 H   0  0  0  0  0  0  0  0  0  0  0  0
  1  2  2  0  0  0  0
  1 26  1  0  0  0  0
  2  3  1  0  0  0  0
  2 27  1  0  0  0  0
  3  4  2  0  0  0  0
  3 28  1  0  0  0  0
  4  5  1  0  0  0  0
  4  7  1  0  0  0  0
  5  6  2  0  0  0  0
  5 29  1  0  0  0  0
  6  1  1  0  0  0  0
  6 30  1  0  0  0  0
  7  8  1  0  0  0  0
  8  9  2  0  0  0  0
  9 10  1  0  0  0  0
  9 31  1  0  0  0  0
 10 11  1  0  0  0  0
 10 13  2  0  0  0  0
 11 12  1  0  0  0  0
 12  7  2  0  0  0  0
 12 32  1  0  0  0  0
 13 14  1  0  0  0  0
 14 15  2  0  0  0  0
 14 33  1  0  0  0  0
 15 11  1  0  0  0  0
 15 16  1  0  0  0  0
 16 17  2  0  0  0  0
 17 18  1  0  0  0  0
 17 34  1  0  0  0  0
 18 19  2  0  0  0  0
 18 35  1  0  0  0  0
 19 20  1  0  0  0  0
 19 22  1  0  0  0  0
 20 21  2  0  0  0  0
 20 36  1  0  0  0  0
 21 16  1  0  0  0  0
 21 37  1  0  0  0  0
 22 23  1  0  0  0  0
 22 24  2  0  0  0  0
 23 25  1  0  0  0  0
 23 38  1  0  0  0  0
 25 39  1  0  0  0  0
 25 40  1  0  0  0  0
 25 41  1  0  0  0  0
M  END
>  <Mol_ID>
4306

>  <Formula>
C20H16N4O

>  <MolWeight>
328.36724

>  <Cat>
S8729

>  <Name>
AZ32

>  <Synonyms>
N/A

>  <Target>
ATM/ATR

>  <Form>
Free Base

>  <CAS>
2288709-96-4

>  <URL>
http://www.selleckchem.com/products/az32.html

$$$$
