AZ6102.cdx
 OpenBabel08302520003D

 60 64  0  0  0  0  0  0  0  0999 V2000
    1.3883   -0.0619    0.5493 C   0  0  0  0  0  0  0  0  0  0  0  0
    0.9019   -0.2172   -0.7475 C   0  0  0  0  0  0  0  0  0  0  0  0
   -0.4727   -0.1266   -0.9916 C   0  0  0  0  0  0  0  0  0  0  0  0
   -1.3905    0.2280    0.0121 C   0  0  0  0  0  0  0  0  0  0  0  0
   -0.8812    0.3218    1.3228 C   0  0  0  0  0  0  0  0  0  0  0  0
    0.4873    0.1640    1.5919 C   0  0  0  0  0  0  0  0  0  0  0  0
    2.8398   -0.1916    0.8434 C   0  0  0  0  0  0  0  0  0  0  0  0
   -2.8147    0.5189   -0.2951 C   0  0  0  0  0  0  0  0  0  0  0  0
   -3.8364    0.1574    0.5978 C   0  0  0  0  0  0  0  0  0  0  0  0
   -5.1660    0.4328    0.4710 N   0  0  0  0  0  0  0  0  0  0  0  0
   -5.5702    1.0685   -0.6344 C   0  0  0  0  0  0  0  0  0  0  0  0
   -4.6341    1.4556   -1.5924 C   0  0  0  0  0  0  0  0  0  0  0  0
   -3.2576    1.2243   -1.4278 C   0  0  0  0  0  0  0  0  0  0  0  0
   -2.3902    1.8291   -2.5043 C   0  0  0  0  0  0  0  0  0  0  0  0
   -6.8970    1.3925   -0.8305 N   0  0  0  0  0  0  0  0  0  0  0  0
   -7.7684    1.6802    0.3062 C   0  0  0  0  0  0  0  0  0  0  0  0
   -8.9995    0.7402    0.3863 C   0  0  1  0  0  0  0  0  0  0  0  0
   -9.6555    0.4417   -0.9125 N   0  0  0  0  0  0  0  0  0  0  0  0
   -8.6866    0.0993   -1.9796 C   0  0  1  0  0  0  0  0  0  0  0  0
   -7.5385    1.1282   -2.1197 C   0  0  0  0  0  0  0  0  0  0  0  0
    3.7108    0.2472   -0.1551 N   0  0  0  0  0  0  0  0  0  0  0  0
    5.0874    0.1813   -0.0632 C   0  0  0  0  0  0  0  0  0  0  0  0
    5.5352   -0.3958    1.1749 C   0  0  0  0  0  0  0  0  0  0  0  0
    4.5852   -0.7825    2.0975 C   0  0  0  0  0  0  0  0  0  0  0  0
    3.2373   -0.6892    1.9817 N   0  0  0  0  0  0  0  0  0  0  0  0
    6.8096   -0.6905    1.7037 C   0  0  0  0  0  0  0  0  0  0  0  0
    6.6032   -1.2580    2.9450 C   0  0  0  0  0  0  0  0  0  0  0  0
    5.2458   -1.3145    3.1720 N   0  0  0  0  0  0  0  0  0  0  0  0
    5.8243    0.5777   -0.9588 O   0  0  0  0  0  0  0  0  0  0  0  0
    4.6436   -1.8738    4.3589 C   0  0  0  0  0  0  0  0  0  0  0  0
   -8.7078   -0.5253    1.1930 C   0  0  0  0  0  0  0  0  0  0  0  0
   -8.1540   -1.3324   -1.8629 C   0  0  0  0  0  0  0  0  0  0  0  0
    1.5611   -0.4344   -1.5826 H   0  0  0  0  0  0  0  0  0  0  0  0
   -0.8145   -0.3128   -2.0084 H   0  0  0  0  0  0  0  0  0  0  0  0
   -1.5384    0.5431    2.1618 H   0  0  0  0  0  0  0  0  0  0  0  0
    0.8441    0.2450    2.6169 H   0  0  0  0  0  0  0  0  0  0  0  0
   -3.6129   -0.3967    1.5078 H   0  0  0  0  0  0  0  0  0  0  0  0
   -4.9689    2.0205   -2.4600 H   0  0  0  0  0  0  0  0  0  0  0  0
   -2.6694    1.4135   -3.4795 H   0  0  0  0  0  0  0  0  0  0  0  0
   -2.5457    2.9127   -2.5208 H   0  0  0  0  0  0  0  0  0  0  0  0
   -1.3206    1.6886   -2.3789 H   0  0  0  0  0  0  0  0  0  0  0  0
   -7.2328    1.6977    1.2632 H   0  0  0  0  0  0  0  0  0  0  0  0
   -8.1425    2.7034    0.1598 H   0  0  0  0  0  0  0  0  0  0  0  0
   -9.7587    1.2762    0.9729 H   0  0  0  0  0  0  0  0  0  0  0  0
  -10.1177    1.3038   -1.2076 H   0  0  0  0  0  0  0  0  0  0  0  0
   -9.2551    0.1271   -2.9190 H   0  0  0  0  0  0  0  0  0  0  0  0
   -7.9470    2.0743   -2.4975 H   0  0  0  0  0  0  0  0  0  0  0  0
   -6.8344    0.7669   -2.8791 H   0  0  0  0  0  0  0  0  0  0  0  0
    3.3705    0.6785   -0.9986 H   0  0  0  0  0  0  0  0  0  0  0  0
    7.7658   -0.5130    1.2289 H   0  0  0  0  0  0  0  0  0  0  0  0
    7.3057   -1.6300    3.6784 H   0  0  0  0  0  0  0  0  0  0  0  0
    4.9501   -2.9205    4.4354 H   0  0  0  0  0  0  0  0  0  0  0  0
    5.0009   -1.3091    5.2238 H   0  0  0  0  0  0  0  0  0  0  0  0
    3.5549   -1.8122    4.3008 H   0  0  0  0  0  0  0  0  0  0  0  0
   -8.5366   -0.2668    2.2439 H   0  0  0  0  0  0  0  0  0  0  0  0
   -9.5585   -1.2151    1.1631 H   0  0  0  0  0  0  0  0  0  0  0  0
   -7.8193   -1.0553    0.8475 H   0  0  0  0  0  0  0  0  0  0  0  0
   -8.9451   -2.0262   -1.5585 H   0  0  0  0  0  0  0  0  0  0  0  0
   -7.7774   -1.6729   -2.8334 H   0  0  0  0  0  0  0  0  0  0  0  0
   -7.3252   -1.4171   -1.1570 H   0  0  0  0  0  0  0  0  0  0  0  0
  1  2  2  0  0  0  0
  1  7  1  0  0  0  0
  2  3  1  0  0  0  0
  2 33  1  0  0  0  0
  3  4  2  0  0  0  0
  3 34  1  0  0  0  0
  4  5  1  0  0  0  0
  4  8  1  0  0  0  0
  5  6  2  0  0  0  0
  5 35  1  0  0  0  0
  6  1  1  0  0  0  0
  6 36  1  0  0  0  0
  7 21  1  0  0  0  0
  8  9  2  0  0  0  0
  9 10  1  0  0  0  0
  9 37  1  0  0  0  0
 10 11  2  0  0  0  0
 11 12  1  0  0  0  0
 11 15  1  0  0  0  0
 12 13  2  0  0  0  0
 12 38  1  0  0  0  0
 13  8  1  0  0  0  0
 13 14  1  0  0  0  0
 14 39  1  0  0  0  0
 14 40  1  0  0  0  0
 14 41  1  0  0  0  0
 15 16  1  0  0  0  0
 16 17  1  0  0  0  0
 16 42  1  0  0  0  0
 16 43  1  0  0  0  0
 17 18  1  0  0  0  0
 17 31  1  0  0  0  0
 17 44  1  1  0  0  0
 18 19  1  0  0  0  0
 18 45  1  0  0  0  0
 19 20  1  0  0  0  0
 19 32  1  0  0  0  0
 19 46  1  6  0  0  0
 20 15  1  0  0  0  0
 20 47  1  0  0  0  0
 20 48  1  0  0  0  0
 21 22  1  0  0  0  0
 21 49  1  0  0  0  0
 22 23  1  0  0  0  0
 22 29  2  0  0  0  0
 23 24  2  0  0  0  0
 23 26  1  0  0  0  0
 24 25  1  0  0  0  0
 25  7  2  0  0  0  0
 26 27  2  0  0  0  0
 26 50  1  0  0  0  0
 27 28  1  0  0  0  0
 27 51  1  0  0  0  0
 28 24  1  0  0  0  0
 28 30  1  0  0  0  0
 30 52  1  0  0  0  0
 30 53  1  0  0  0  0
 30 54  1  0  0  0  0
 31 55  1  0  0  0  0
 31 56  1  0  0  0  0
 31 57  1  0  0  0  0
 32 58  1  0  0  0  0
 32 59  1  0  0  0  0
 32 60  1  0  0  0  0
M  END
>  <Mol_ID>
2659

>  <Formula>
C25H28N6O

>  <MolWeight>
428.52942

>  <Cat>
S7767

>  <Name>
AZ6102

>  <Synonyms>
AZ-6102

>  <Target>
PPAR

>  <Form>
free base

>  <CAS>
1645286-75-4

>  <URL>
http://selleckchem.com/products/az6102.html

$$$$
