AZACTAM (aztreonam).cdx
 OpenBabel08302520013D

 45 46  0  0  0  0  0  0  0  0999 V2000
    2.3676    3.7005    1.2099 C   0  0  2  0  0  0  0  0  0  0  0  0
    2.4520    5.1212    1.8828 C   0  0  0  0  0  0  0  0  0  0  0  0
    1.4522    5.6056    1.0300 N   0  0  0  0  0  0  0  0  0  0  0  0
    0.9857    4.2207    0.7227 C   0  0  1  0  0  0  0  0  0  0  0  0
    2.3869    2.4959    2.0775 N   0  0  0  0  0  0  0  0  0  0  0  0
    0.7461    3.9404   -0.7453 C   0  0  0  0  0  0  0  0  0  0  0  0
    3.0551    5.6863    2.7671 O   0  0  0  0  0  0  0  0  0  0  0  0
    0.5324    6.9188    1.4507 S   0  0  0  0  0  0  0  0  0  0  0  0
    1.6144    8.0701    1.7553 O   0  0  0  0  0  0  0  0  0  0  0  0
   -0.2268    7.3211    0.2900 O   0  0  0  0  0  0  0  0  0  0  0  0
   -0.1081    6.6222    2.7087 O   0  0  0  0  0  0  0  0  0  0  0  0
    3.2082    1.1119    4.1317 O   0  0  0  0  0  0  0  0  0  0  0  0
    2.8941   -0.0528    3.4409 N   0  0  0  0  0  0  0  0  0  0  0  0
    2.1023    0.0665    2.4116 C   0  0  0  0  0  0  0  0  0  0  0  0
    1.5806    1.3946    1.8567 C   0  0  0  0  0  0  0  0  0  0  0  0
    0.5611    1.4201    1.1855 O   0  0  0  0  0  0  0  0  0  0  0  0
    1.8401   -1.2173    1.7600 C   0  0  0  0  0  0  0  0  0  0  0  0
    4.0732    0.7872    5.2385 C   0  0  0  0  0  0  0  0  0  0  0  0
    3.4162   -0.1909    6.2432 C   0  0  0  0  0  0  0  0  0  0  0  0
    2.9434   -1.3293    5.6773 O   0  0  0  0  0  0  0  0  0  0  0  0
    3.3374    0.0011    7.4485 O   0  0  0  0  0  0  0  0  0  0  0  0
    5.3970    0.1924    4.7304 C   0  0  0  0  0  0  0  0  0  0  0  0
    4.3643    2.1189    5.9353 C   0  0  0  0  0  0  0  0  0  0  0  0
    2.6116   -2.3236    2.1371 N   0  0  0  0  0  0  0  0  0  0  0  0
    2.3149   -3.3705    1.4171 C   0  0  0  0  0  0  0  0  0  0  0  0
    1.0341   -3.1491    0.3031 S   0  0  0  0  0  0  0  0  0  0  0  0
    0.9097   -1.5020    0.7777 C   0  0  0  0  0  0  0  0  0  0  0  0
    2.9972   -4.5209    1.5116 N   0  0  0  0  0  0  0  0  0  0  0  0
    3.1254    3.5953    0.4226 H   0  0  0  0  0  0  0  0  0  0  0  0
    0.1370    3.9463    1.3627 H   0  0  0  0  0  0  0  0  0  0  0  0
    3.1735    2.3378    2.7021 H   0  0  0  0  0  0  0  0  0  0  0  0
    0.8588    2.8674   -0.9436 H   0  0  0  0  0  0  0  0  0  0  0  0
   -0.2684    4.2179   -1.0425 H   0  0  0  0  0  0  0  0  0  0  0  0
    1.4604    4.4608   -1.3907 H   0  0  0  0  0  0  0  0  0  0  0  0
    1.8917    7.9812    2.6930 H   0  0  0  0  0  0  0  0  0  0  0  0
    2.9942   -1.2854    4.6899 H   0  0  0  0  0  0  0  0  0  0  0  0
    5.8839    0.8704    4.0202 H   0  0  0  0  0  0  0  0  0  0  0  0
    6.0873   -0.0120    5.5556 H   0  0  0  0  0  0  0  0  0  0  0  0
    5.2418   -0.7529    4.1971 H   0  0  0  0  0  0  0  0  0  0  0  0
    4.8542    2.8198    5.2494 H   0  0  0  0  0  0  0  0  0  0  0  0
    3.4334    2.5974    6.2599 H   0  0  0  0  0  0  0  0  0  0  0  0
    5.0062    1.9875    6.8126 H   0  0  0  0  0  0  0  0  0  0  0  0
    0.1795   -0.8556    0.3112 H   0  0  0  0  0  0  0  0  0  0  0  0
    3.0375   -5.1094    0.6882 H   0  0  0  0  0  0  0  0  0  0  0  0
    3.8795   -4.4573    2.0079 H   0  0  0  0  0  0  0  0  0  0  0  0
  1  2  1  0  0  0  0
  1 29  1  6  0  0  0
  1  5  1  0  0  0  0
  2  3  1  0  0  0  0
  2  7  2  0  0  0  0
  3  4  1  0  0  0  0
  3  8  1  0  0  0  0
  4  1  1  0  0  0  0
  4  6  1  0  0  0  0
  4 30  1  1  0  0  0
  5 31  1  0  0  0  0
  6 32  1  0  0  0  0
  6 33  1  0  0  0  0
  6 34  1  0  0  0  0
  8  9  1  0  0  0  0
  8 10  2  0  0  0  0
  8 11  2  0  0  0  0
  9 35  1  0  0  0  0
 12 13  1  0  0  0  0
 12 18  1  0  0  0  0
 13 14  2  0  0  0  0
 14 15  1  0  0  0  0
 14 17  1  0  0  0  0
 15  5  1  0  0  0  0
 15 16  2  0  0  0  0
 17 24  1  0  0  0  0
 18 19  1  0  0  0  0
 18 22  1  0  0  0  0
 18 23  1  0  0  0  0
 19 20  1  0  0  0  0
 19 21  2  0  0  0  0
 20 36  1  0  0  0  0
 22 37  1  0  0  0  0
 22 38  1  0  0  0  0
 22 39  1  0  0  0  0
 23 40  1  0  0  0  0
 23 41  1  0  0  0  0
 23 42  1  0  0  0  0
 24 25  2  0  0  0  0
 25 26  1  0  0  0  0
 25 28  1  0  0  0  0
 26 27  1  0  0  0  0
 27 17  2  0  0  0  0
 27 43  1  0  0  0  0
 28 44  1  0  0  0  0
 28 45  1  0  0  0  0
M  END
>  <Mol_ID>
295

>  <Formula>
C13H17N5O8S2

>  <MolWeight>
435.43278

>  <Cat>
S1505

>  <Name>
Aztreonam

>  <Synonyms>
SQ 26776

>  <Target>
Antibiotics,Bacterial

>  <Form>
free base

>  <CAS>
78110-38-0

>  <URL>
http://selleckchem.com/products/Aztreonam(Azactam).html

$$$$
