Azacyclonol.cdx
 OpenBabel08302521593D

 41 43  0  0  0  0  0  0  0  0999 V2000
    0.6601   -1.2047   -1.9594 N   0  0  0  0  0  0  0  0  0  0  0  0
    0.8497   -1.2460   -0.5142 C   0  0  0  0  0  0  0  0  0  0  0  0
   -0.5034   -1.3055    0.1938 C   0  0  0  0  0  0  0  0  0  0  0  0
   -1.3724   -0.0743   -0.1433 C   0  0  0  0  0  0  0  0  0  0  0  0
   -1.4510    0.0664   -1.6875 C   0  0  0  0  0  0  0  0  0  0  0  0
   -0.0763   -0.0077   -2.3559 C   0  0  0  0  0  0  0  0  0  0  0  0
   -2.7892   -0.0378    0.5549 C   0  0  0  0  0  0  0  0  0  0  0  0
   -3.4159    1.1714    0.0751 O   0  0  0  0  0  0  0  0  0  0  0  0
   -3.6648   -1.2377    0.1200 C   0  0  0  0  0  0  0  0  0  0  0  0
   -3.5801   -2.4785    0.7823 C   0  0  0  0  0  0  0  0  0  0  0  0
   -4.3801   -3.5597    0.4052 C   0  0  0  0  0  0  0  0  0  0  0  0
   -5.2781   -3.4305   -0.6468 C   0  0  0  0  0  0  0  0  0  0  0  0
   -5.3795   -2.2165   -1.3243 C   0  0  0  0  0  0  0  0  0  0  0  0
   -4.5836   -1.1322   -0.9419 C   0  0  0  0  0  0  0  0  0  0  0  0
   -2.7760    0.1228    2.0983 C   0  0  0  0  0  0  0  0  0  0  0  0
   -1.6106    0.3025    2.8580 C   0  0  0  0  0  0  0  0  0  0  0  0
   -1.6506    0.3196    4.2562 C   0  0  0  0  0  0  0  0  0  0  0  0
   -2.8652    0.2156    4.9257 C   0  0  0  0  0  0  0  0  0  0  0  0
   -4.0462    0.1295    4.1974 C   0  0  0  0  0  0  0  0  0  0  0  0
   -4.0023    0.0941    2.8020 C   0  0  0  0  0  0  0  0  0  0  0  0
    1.5648   -1.2228   -2.4264 H   0  0  0  0  0  0  0  0  0  0  0  0
    1.4270   -0.3765   -0.1757 H   0  0  0  0  0  0  0  0  0  0  0  0
    1.4295   -2.1370   -0.2532 H   0  0  0  0  0  0  0  0  0  0  0  0
   -0.3217   -1.3941    1.2672 H   0  0  0  0  0  0  0  0  0  0  0  0
   -1.0095   -2.2284   -0.1120 H   0  0  0  0  0  0  0  0  0  0  0  0
   -0.8274    0.8216    0.1890 H   0  0  0  0  0  0  0  0  0  0  0  0
   -2.0774   -0.7280   -2.1102 H   0  0  0  0  0  0  0  0  0  0  0  0
   -1.9160    1.0210   -1.9581 H   0  0  0  0  0  0  0  0  0  0  0  0
   -0.2111   -0.0247   -3.4431 H   0  0  0  0  0  0  0  0  0  0  0  0
    0.5102    0.8890   -2.1217 H   0  0  0  0  0  0  0  0  0  0  0  0
   -3.2747    1.8627    0.7426 H   0  0  0  0  0  0  0  0  0  0  0  0
   -2.8893   -2.6109    1.6143 H   0  0  0  0  0  0  0  0  0  0  0  0
   -4.2991   -4.5039    0.9390 H   0  0  0  0  0  0  0  0  0  0  0  0
   -5.9014   -4.2720   -0.9415 H   0  0  0  0  0  0  0  0  0  0  0  0
   -6.0780   -2.1123   -2.1496 H   0  0  0  0  0  0  0  0  0  0  0  0
   -4.6834   -0.1949   -1.4860 H   0  0  0  0  0  0  0  0  0  0  0  0
   -0.6366    0.4112    2.3918 H   0  0  0  0  0  0  0  0  0  0  0  0
   -0.7259    0.4035    4.8216 H   0  0  0  0  0  0  0  0  0  0  0  0
   -2.8907    0.2086    6.0120 H   0  0  0  0  0  0  0  0  0  0  0  0
   -5.0013    0.0696    4.7126 H   0  0  0  0  0  0  0  0  0  0  0  0
   -4.9425    0.0090    2.2549 H   0  0  0  0  0  0  0  0  0  0  0  0
  1  2  1  0  0  0  0
  1  6  1  0  0  0  0
  1 21  1  0  0  0  0
  2  3  1  0  0  0  0
  2 22  1  0  0  0  0
  2 23  1  0  0  0  0
  3  4  1  0  0  0  0
  3 24  1  0  0  0  0
  3 25  1  0  0  0  0
  4  5  1  0  0  0  0
  4  7  1  0  0  0  0
  4 26  1  0  0  0  0
  5  6  1  0  0  0  0
  5 27  1  0  0  0  0
  5 28  1  0  0  0  0
  6 29  1  0  0  0  0
  6 30  1  0  0  0  0
  7  8  1  0  0  0  0
  7  9  1  0  0  0  0
  7 15  1  0  0  0  0
  8 31  1  0  0  0  0
  9 10  2  0  0  0  0
  9 14  1  0  0  0  0
 10 11  1  0  0  0  0
 10 32  1  0  0  0  0
 11 12  2  0  0  0  0
 11 33  1  0  0  0  0
 12 13  1  0  0  0  0
 12 34  1  0  0  0  0
 13 14  2  0  0  0  0
 13 35  1  0  0  0  0
 14 36  1  0  0  0  0
 15 16  2  0  0  0  0
 15 20  1  0  0  0  0
 16 17  1  0  0  0  0
 16 37  1  0  0  0  0
 17 18  2  0  0  0  0
 17 38  1  0  0  0  0
 18 19  1  0  0  0  0
 18 39  1  0  0  0  0
 19 20  2  0  0  0  0
 19 40  1  0  0  0  0
 20 41  1  0  0  0  0
M  END
>  <Mol_ID>
1001

>  <Formula>
C18H21NO

>  <MolWeight>
267.36544

>  <Cat>
S3196

>  <Name>
Azacyclonol

>  <Synonyms>
MER 17, MDL 4829

>  <Target>
5-HT Receptor

>  <Form>
free base

>  <CAS>
115-46-8

>  <URL>
http://selleckchem.com/products/azacyclonol.html

$$$$
