Azaguanine-8.cdx
 OpenBabel08302522043D

 15 16  0  0  0  0  0  0  0  0999 V2000
    2.0558    0.7589    0.0004 C   0  0  0  0  0  0  0  0  0  0  0  0
    2.0861   -0.6245    0.0011 N   0  0  0  0  0  0  0  0  0  0  0  0
    0.9609   -1.4422    0.0004 C   0  0  0  0  0  0  0  0  0  0  0  0
   -0.2560   -0.6798    0.0013 C   0  0  0  0  0  0  0  0  0  0  0  0
   -0.1609    0.6887    0.0032 C   0  0  0  0  0  0  0  0  0  0  0  0
    0.9514    1.4597    0.0037 N   0  0  0  0  0  0  0  0  0  0  0  0
   -1.5606   -1.0664   -0.0015 N   0  0  0  0  0  0  0  0  0  0  0  0
   -2.3011    0.0435   -0.0014 N   0  0  0  0  0  0  0  0  0  0  0  0
   -1.4578    1.0997    0.0012 N   0  0  0  0  0  0  0  0  0  0  0  0
    3.2535    1.3818   -0.0054 N   0  0  0  0  0  0  0  0  0  0  0  0
    1.0434   -2.6653   -0.0013 O   0  0  0  0  0  0  0  0  0  0  0  0
    2.9659   -1.1122   -0.0032 H   0  0  0  0  0  0  0  0  0  0  0  0
   -1.8328    2.0399    0.0007 H   0  0  0  0  0  0  0  0  0  0  0  0
    3.2607    2.3943    0.0198 H   0  0  0  0  0  0  0  0  0  0  0  0
    4.1392    0.9007    0.0242 H   0  0  0  0  0  0  0  0  0  0  0  0
  1  2  1  0  0  0  0
  1 10  1  0  0  0  0
  2  3  1  0  0  0  0
  2 12  1  0  0  0  0
  3  4  1  0  0  0  0
  3 11  2  0  0  0  0
  4  5  2  0  0  0  0
  4  7  1  0  0  0  0
  5  6  1  0  0  0  0
  6  1  2  0  0  0  0
  7  8  2  0  0  0  0
  8  9  1  0  0  0  0
  9  5  1  0  0  0  0
  9 13  1  0  0  0  0
 10 14  1  0  0  0  0
 10 15  1  0  0  0  0
M  END
>  <Mol_ID>
1301

>  <Formula>
C4H4N6O

>  <MolWeight>
152.11416

>  <Cat>
S4194

>  <Name>
Azaguanine-8

>  <Synonyms>
NSC-749, SF-337, SK 1150

>  <Target>
DNA/RNA Synthesis

>  <Form>
free base

>  <CAS>
134-58-7

>  <URL>
http://selleckchem.com/products/azaguanine-8.html

$$$$
