Azaperone.cdx
 OpenBabel08302522053D

 46 48  0  0  0  0  0  0  0  0999 V2000
   -1.2732   -0.2492    1.1058 N   0  0  0  0  0  0  0  0  0  0  0  0
   -2.6341   -0.1488    1.4267 C   0  0  0  0  0  0  0  0  0  0  0  0
   -0.8534   -1.4186    0.3203 C   0  0  0  0  0  0  0  0  0  0  0  0
   -0.8295    0.9930    0.4478 C   0  0  0  0  0  0  0  0  0  0  0  0
   -2.9481    0.4937    2.6302 C   0  0  0  0  0  0  0  0  0  0  0  0
   -3.5919   -0.5373    0.5631 N   0  0  0  0  0  0  0  0  0  0  0  0
    0.7090   -1.4150    0.2601 C   0  0  0  0  0  0  0  0  0  0  0  0
    0.7126    1.0076    0.4224 C   0  0  0  0  0  0  0  0  0  0  0  0
   -4.2690    0.7983    2.9357 C   0  0  0  0  0  0  0  0  0  0  0  0
   -4.8738   -0.2305    0.8836 C   0  0  0  0  0  0  0  0  0  0  0  0
    1.3628   -0.1578   -0.2229 N   0  0  0  0  0  0  0  0  0  0  0  0
   -5.2571    0.4413    2.0346 C   0  0  0  0  0  0  0  0  0  0  0  0
    1.3908   -0.1047   -1.6917 C   0  0  0  0  0  0  0  0  0  0  0  0
    2.0346    1.1476   -2.3259 C   0  0  0  0  0  0  0  0  0  0  0  0
    3.4607    1.4215   -1.8413 C   0  0  0  0  0  0  0  0  0  0  0  0
    4.0879    2.6487   -2.4753 C   0  0  0  0  0  0  0  0  0  0  0  0
    5.4159    3.1121   -1.9386 C   0  0  0  0  0  0  0  0  0  0  0  0
    3.5611    3.2822   -3.3878 O   0  0  0  0  0  0  0  0  0  0  0  0
    6.1321    2.3325   -1.0142 C   0  0  0  0  0  0  0  0  0  0  0  0
    5.9341    4.3489   -2.3402 C   0  0  0  0  0  0  0  0  0  0  0  0
    7.3214    2.8137   -0.4615 C   0  0  0  0  0  0  0  0  0  0  0  0
    7.1216    4.8264   -1.7812 C   0  0  0  0  0  0  0  0  0  0  0  0
    7.8005    4.0586   -0.8416 C   0  0  0  0  0  0  0  0  0  0  0  0
    8.9249    4.5291   -0.2875 F   0  0  0  0  0  0  0  0  0  0  0  0
   -1.1847   -2.3454    0.8048 H   0  0  0  0  0  0  0  0  0  0  0  0
   -1.2702   -1.3970   -0.6946 H   0  0  0  0  0  0  0  0  0  0  0  0
   -1.2312    1.0573   -0.5729 H   0  0  0  0  0  0  0  0  0  0  0  0
   -1.1723    1.8795    0.9956 H   0  0  0  0  0  0  0  0  0  0  0  0
   -2.1495    0.7756    3.3093 H   0  0  0  0  0  0  0  0  0  0  0  0
    1.0761   -1.5845    1.2819 H   0  0  0  0  0  0  0  0  0  0  0  0
    1.0586   -2.2762   -0.3224 H   0  0  0  0  0  0  0  0  0  0  0  0
    1.0597    1.0274    1.4646 H   0  0  0  0  0  0  0  0  0  0  0  0
    1.0573    1.9529   -0.0059 H   0  0  0  0  0  0  0  0  0  0  0  0
   -4.5101    1.3239    3.8545 H   0  0  0  0  0  0  0  0  0  0  0  0
   -5.6176   -0.5361    0.1519 H   0  0  0  0  0  0  0  0  0  0  0  0
   -6.2971    0.6841    2.2218 H   0  0  0  0  0  0  0  0  0  0  0  0
    1.9785   -0.9660   -2.0386 H   0  0  0  0  0  0  0  0  0  0  0  0
    0.3843   -0.2227   -2.1077 H   0  0  0  0  0  0  0  0  0  0  0  0
    2.0548    1.0024   -3.4130 H   0  0  0  0  0  0  0  0  0  0  0  0
    1.4041    2.0279   -2.1569 H   0  0  0  0  0  0  0  0  0  0  0  0
    3.4471    1.5747   -0.7579 H   0  0  0  0  0  0  0  0  0  0  0  0
    4.0886    0.5532   -2.0775 H   0  0  0  0  0  0  0  0  0  0  0  0
    5.7859    1.3513   -0.6985 H   0  0  0  0  0  0  0  0  0  0  0  0
    5.4009    4.9584   -3.0697 H   0  0  0  0  0  0  0  0  0  0  0  0
    7.8675    2.2267    0.2716 H   0  0  0  0  0  0  0  0  0  0  0  0
    7.5233    5.7955   -2.0715 H   0  0  0  0  0  0  0  0  0  0  0  0
  1  2  1  0  0  0  0
  1  3  1  0  0  0  0
  1  4  1  0  0  0  0
  2  5  2  0  0  0  0
  2  6  1  0  0  0  0
  3  7  1  0  0  0  0
  3 25  1  0  0  0  0
  3 26  1  0  0  0  0
  4  8  1  0  0  0  0
  4 27  1  0  0  0  0
  4 28  1  0  0  0  0
  5  9  1  0  0  0  0
  5 29  1  0  0  0  0
  6 10  2  0  0  0  0
  7 11  1  0  0  0  0
  7 30  1  0  0  0  0
  7 31  1  0  0  0  0
  8 11  1  0  0  0  0
  8 32  1  0  0  0  0
  8 33  1  0  0  0  0
  9 12  2  0  0  0  0
  9 34  1  0  0  0  0
 10 12  1  0  0  0  0
 10 35  1  0  0  0  0
 11 13  1  0  0  0  0
 12 36  1  0  0  0  0
 13 14  1  0  0  0  0
 13 37  1  0  0  0  0
 13 38  1  0  0  0  0
 14 15  1  0  0  0  0
 14 39  1  0  0  0  0
 14 40  1  0  0  0  0
 15 16  1  0  0  0  0
 15 41  1  0  0  0  0
 15 42  1  0  0  0  0
 16 17  1  0  0  0  0
 16 18  2  0  0  0  0
 17 19  2  0  0  0  0
 17 20  1  0  0  0  0
 19 21  1  0  0  0  0
 19 43  1  0  0  0  0
 20 22  2  0  0  0  0
 20 44  1  0  0  0  0
 21 23  2  0  0  0  0
 21 45  1  0  0  0  0
 22 23  1  0  0  0  0
 22 46  1  0  0  0  0
 23 24  1  0  0  0  0
M  END
>  <Mol_ID>
1337

>  <Formula>
C19H22FN3O

>  <MolWeight>
327.3958832

>  <Cat>
S4219

>  <Name>
Azaperone

>  <Synonyms>
NSC 170976

>  <Target>
Dopamine Receptor

>  <Form>
free base

>  <CAS>
1649-18-9

>  <URL>
http://selleckchem.com/products/azaperone.html

$$$$
