Azasetron hydrochloride.cdx
 OpenBabel08302521393D

 44 47  0  0  0  0  0  0  0  0999 V2000
    2.5023   -0.7267    0.3657 C   0  0  0  0  0  0  0  0  0  0  0  0
    2.4065    0.6645    0.4048 C   0  0  0  0  0  0  0  0  0  0  0  0
    1.2818    1.3222   -0.1191 C   0  0  0  0  0  0  0  0  0  0  0  0
    0.2278    0.5355   -0.6396 C   0  0  0  0  0  0  0  0  0  0  0  0
    0.3358   -0.8695   -0.7208 C   0  0  0  0  0  0  0  0  0  0  0  0
    1.4853   -1.4856   -0.2104 C   0  0  0  0  0  0  0  0  0  0  0  0
   -0.9388    1.1693   -0.9786 O   0  0  0  0  0  0  0  0  0  0  0  0
   -1.7084    0.4961   -1.9466 C   0  0  0  0  0  0  0  0  0  0  0  0
   -1.8571   -1.0052   -1.7873 C   0  0  0  0  0  0  0  0  0  0  0  0
   -0.7272   -1.6378   -1.2813 N   0  0  0  0  0  0  0  0  0  0  0  0
   -0.6266   -3.0809   -1.4046 C   0  0  0  0  0  0  0  0  0  0  0  0
   -2.8612   -1.5979   -2.1819 O   0  0  0  0  0  0  0  0  0  0  0  0
    1.2073    2.8318   -0.1576 C   0  0  0  0  0  0  0  0  0  0  0  0
    0.2139    3.4217   -0.5756 O   0  0  0  0  0  0  0  0  0  0  0  0
    2.3075    3.5484    0.2722 N   0  0  0  0  0  0  0  0  0  0  0  0
    2.8466    5.6551    2.9999 C   0  0  0  0  0  0  0  0  0  0  0  0
    1.8637    6.4748    2.2606 N   0  0  3  0  0  0  0  0  0  0  0  0
    2.5611    7.6027    1.6109 C   0  0  0  0  0  0  0  0  0  0  0  0
    4.0007    5.1932    2.0966 C   0  0  0  0  0  0  0  0  0  0  0  0
    3.6053    7.1153    0.5925 C   0  0  0  0  0  0  0  0  0  0  0  0
    3.6924    5.5784    0.6382 C   0  0  3  0  0  0  0  0  0  0  0  0
    2.3070    5.0116    0.2474 C   0  0  3  0  0  0  0  0  0  0  0  0
    1.2440    5.6284    1.2051 C   0  0  0  0  0  0  0  0  0  0  0  0
    3.3746   -1.2232    0.7863 H   0  0  0  0  0  0  0  0  0  0  0  0
    3.2263    1.1993    0.8702 H   0  0  0  0  0  0  0  0  0  0  0  0
    1.6078   -2.5648   -0.2214 H   0  0  0  0  0  0  0  0  0  0  0  0
   -1.2811    0.6874   -2.9385 H   0  0  0  0  0  0  0  0  0  0  0  0
   -2.7104    0.9377   -1.9277 H   0  0  0  0  0  0  0  0  0  0  0  0
    0.2178   -3.3193   -2.0604 H   0  0  0  0  0  0  0  0  0  0  0  0
   -0.4858   -3.5350   -0.4199 H   0  0  0  0  0  0  0  0  0  0  0  0
   -1.5234   -3.5133   -1.8563 H   0  0  0  0  0  0  0  0  0  0  0  0
    3.1848    3.0882    0.4456 H   0  0  0  0  0  0  0  0  0  0  0  0
    2.3448    4.7847    3.4415 H   0  0  0  0  0  0  0  0  0  0  0  0
    3.2443    6.2270    3.8466 H   0  0  0  0  0  0  0  0  0  0  0  0
    3.0415    8.2273    2.3746 H   0  0  0  0  0  0  0  0  0  0  0  0
    1.8315    8.2552    1.1153 H   0  0  0  0  0  0  0  0  0  0  0  0
    4.9375    5.6666    2.4148 H   0  0  0  0  0  0  0  0  0  0  0  0
    4.1444    4.1116    2.1948 H   0  0  0  0  0  0  0  0  0  0  0  0
    4.5819    7.5560    0.8276 H   0  0  0  0  0  0  0  0  0  0  0  0
    3.3327    7.4496   -0.4155 H   0  0  0  0  0  0  0  0  0  0  0  0
    4.4772    5.2141   -0.0340 H   0  0  0  0  0  0  0  0  0  0  0  0
    2.0726    5.3127   -0.7826 H   0  0  0  0  0  0  0  0  0  0  0  0
    0.6317    4.8555    1.6847 H   0  0  0  0  0  0  0  0  0  0  0  0
    0.5439    6.2415    0.6225 H   0  0  0  0  0  0  0  0  0  0  0  0
  1  2  2  0  0  0  0
  1 24  1  0  0  0  0
  2  3  1  0  0  0  0
  2 25  1  0  0  0  0
  3  4  2  0  0  0  0
  3 13  1  0  0  0  0
  4  5  1  0  0  0  0
  4  7  1  0  0  0  0
  5  6  2  0  0  0  0
  6  1  1  0  0  0  0
  6 26  1  0  0  0  0
  7  8  1  0  0  0  0
  8  9  1  0  0  0  0
  8 27  1  0  0  0  0
  8 28  1  0  0  0  0
  9 10  1  0  0  0  0
  9 12  2  0  0  0  0
 10  5  1  0  0  0  0
 10 11  1  0  0  0  0
 11 29  1  0  0  0  0
 11 30  1  0  0  0  0
 11 31  1  0  0  0  0
 13 14  2  0  0  0  0
 13 15  1  0  0  0  0
 15 32  1  0  0  0  0
 16 17  1  0  0  0  0
 16 19  1  0  0  0  0
 16 33  1  0  0  0  0
 16 34  1  0  0  0  0
 17 18  1  0  0  0  0
 17 23  1  0  0  0  0
 18 20  1  0  0  0  0
 18 35  1  0  0  0  0
 18 36  1  0  0  0  0
 19 21  1  0  0  0  0
 19 37  1  0  0  0  0
 19 38  1  0  0  0  0
 20 39  1  0  0  0  0
 20 40  1  0  0  0  0
 21 20  1  0  0  0  0
 21 22  1  0  0  0  0
 21 41  1  0  0  0  0
 22 15  1  0  0  0  0
 22 42  1  0  0  0  0
 23 22  1  0  0  0  0
 23 43  1  0  0  0  0
 23 44  1  0  0  0  0
M  END
>  <Mol_ID>
8004

>  <Formula>
C17H21Cl2N3O3

>  <MolWeight>
386.27294

>  <Cat>
S2106

>  <Name>
Azasetron HCl

>  <Synonyms>
Y-25130 HCl

>  <Target>
5-HT Receptor

>  <Form>
HCl

>  <CAS>
123040-16-4

>  <URL>
http://selleckchem.com/products/azasetron-hcl.html

$$$$
