AZD-6280
 OpenBabel08302521323D

 49 51  0  0  0  0  0  0  0  0999 V2000
    1.6712   -2.2365   -0.1742 N   0  0  0  0  0  0  0  0  0  0  0  0
   -4.3152    2.6786    1.0921 O   0  0  0  0  0  0  0  0  0  0  0  0
   -5.6441    3.2232    0.9127 C   0  0  0  0  0  0  0  0  0  0  0  0
    3.7633   -0.1919    0.1081 C   0  0  0  0  0  0  0  0  0  0  0  0
    4.6301    0.8813    0.2050 N   0  0  0  0  0  0  0  0  0  0  0  0
    4.1625   -1.3401   -0.0869 O   0  0  0  0  0  0  0  0  0  0  0  0
    6.0659    0.7348    0.0576 C   0  0  0  0  0  0  0  0  0  0  0  0
    6.5483    0.8665   -1.3870 C   0  0  0  0  0  0  0  0  0  0  0  0
    6.2199    2.2204   -1.9964 C   0  0  0  0  0  0  0  0  0  0  0  0
   -0.1689    5.6138   -1.1811 O   0  0  0  0  0  0  0  0  0  0  0  0
   -0.0798    6.9748   -0.7635 C   0  0  0  0  0  0  0  0  0  0  0  0
   -0.3452    0.8377    0.4438 C   0  0  0  0  0  0  0  0  0  0  0  0
   -1.6975    1.2721    0.2916 C   0  0  0  0  0  0  0  0  0  0  0  0
   -0.0342   -0.5260    0.2976 C   0  0  0  0  0  0  0  0  0  0  0  0
    0.6671    1.7159    0.6575 N   0  0  0  0  0  0  0  0  0  0  0  0
   -2.7143    0.3075    0.1562 C   0  0  0  0  0  0  0  0  0  0  0  0
    1.3316   -0.9146    0.2222 C   0  0  0  0  0  0  0  0  0  0  0  0
   -1.0948   -1.4503    0.1458 C   0  0  0  0  0  0  0  0  0  0  0  0
    1.9889    1.3811    0.5451 N   0  0  0  0  0  0  0  0  0  0  0  0
   -2.4231   -1.0424    0.1110 C   0  0  0  0  0  0  0  0  0  0  0  0
    2.3013    0.0978    0.2893 C   0  0  0  0  0  0  0  0  0  0  0  0
   -2.0411    2.7073    0.0847 C   0  0  0  0  0  0  0  0  0  0  0  0
   -3.2842    3.3331    0.4259 C   0  0  0  0  0  0  0  0  0  0  0  0
   -1.0686    3.5450   -0.5254 C   0  0  0  0  0  0  0  0  0  0  0  0
   -3.4503    4.6726    0.1748 C   0  0  0  0  0  0  0  0  0  0  0  0
   -1.2378    4.9124   -0.6973 C   0  0  0  0  0  0  0  0  0  0  0  0
   -2.4529    5.4804   -0.3802 C   0  0  0  0  0  0  0  0  0  0  0  0
    1.1170   -2.9676    0.2535 H   0  0  0  0  0  0  0  0  0  0  0  0
    2.6785   -2.4192   -0.0773 H   0  0  0  0  0  0  0  0  0  0  0  0
   -5.8123    4.1776    1.4449 H   0  0  0  0  0  0  0  0  0  0  0  0
   -5.9201    3.3064   -0.1540 H   0  0  0  0  0  0  0  0  0  0  0  0
   -6.3449    2.5200    1.3746 H   0  0  0  0  0  0  0  0  0  0  0  0
    4.2446    1.7754    0.4950 H   0  0  0  0  0  0  0  0  0  0  0  0
    6.5345    1.4963    0.6886 H   0  0  0  0  0  0  0  0  0  0  0  0
    6.3677   -0.2453    0.4418 H   0  0  0  0  0  0  0  0  0  0  0  0
    7.6370    0.7303   -1.4068 H   0  0  0  0  0  0  0  0  0  0  0  0
    6.1153    0.0729   -2.0069 H   0  0  0  0  0  0  0  0  0  0  0  0
    6.6609    3.0303   -1.4067 H   0  0  0  0  0  0  0  0  0  0  0  0
    6.6205    2.2843   -3.0131 H   0  0  0  0  0  0  0  0  0  0  0  0
    5.1390    2.3803   -2.0501 H   0  0  0  0  0  0  0  0  0  0  0  0
   -0.8357    7.5872   -1.2657 H   0  0  0  0  0  0  0  0  0  0  0  0
   -0.1579    7.0735    0.3262 H   0  0  0  0  0  0  0  0  0  0  0  0
    0.9034    7.3555   -1.0570 H   0  0  0  0  0  0  0  0  0  0  0  0
   -3.7461    0.6228    0.0335 H   0  0  0  0  0  0  0  0  0  0  0  0
   -0.8980   -2.5075    0.0068 H   0  0  0  0  0  0  0  0  0  0  0  0
   -3.2198   -1.7686   -0.0221 H   0  0  0  0  0  0  0  0  0  0  0  0
   -0.0953    3.1476   -0.8347 H   0  0  0  0  0  0  0  0  0  0  0  0
   -4.3835    5.1612    0.4551 H   0  0  0  0  0  0  0  0  0  0  0  0
   -2.6884    6.5171   -0.5290 H   0  0  0  0  0  0  0  0  0  0  0  0
  1 17  1  0  0  0  0
  1 28  1  0  0  0  0
  1 29  1  0  0  0  0
  2  3  1  0  0  0  0
  2 23  1  0  0  0  0
  3 30  1  0  0  0  0
  3 31  1  0  0  0  0
  3 32  1  0  0  0  0
  4  5  1  0  0  0  0
  4  6  2  0  0  0  0
  4 21  1  0  0  0  0
  5  7  1  0  0  0  0
  5 33  1  0  0  0  0
  7  8  1  0  0  0  0
  7 34  1  0  0  0  0
  7 35  1  0  0  0  0
  8  9  1  0  0  0  0
  8 36  1  0  0  0  0
  8 37  1  0  0  0  0
  9 38  1  0  0  0  0
  9 39  1  0  0  0  0
  9 40  1  0  0  0  0
 10 11  1  0  0  0  0
 10 26  1  0  0  0  0
 11 41  1  0  0  0  0
 11 42  1  0  0  0  0
 11 43  1  0  0  0  0
 12 13  1  0  0  0  0
 12 14  1  0  0  0  0
 12 15  2  0  0  0  0
 13 16  2  0  0  0  0
 13 22  1  0  0  0  0
 14 17  2  0  0  0  0
 14 18  1  0  0  0  0
 15 19  1  0  0  0  0
 16 20  1  0  0  0  0
 16 44  1  0  0  0  0
 17 21  1  0  0  0  0
 18 20  2  0  0  0  0
 18 45  1  0  0  0  0
 19 21  2  0  0  0  0
 20 46  1  0  0  0  0
 22 23  2  0  0  0  0
 22 24  1  0  0  0  0
 23 25  1  0  0  0  0
 24 26  2  0  0  0  0
 24 47  1  0  0  0  0
 25 27  2  0  0  0  0
 25 48  1  0  0  0  0
 26 27  1  0  0  0  0
 27 49  1  0  0  0  0
M  END
>  <Mol_ID>
6120

>  <Formula>
C20H22N4O3

>  <MolWeight>
366.41368

>  <Cat>
E0101

>  <Name>
AZD-6280

>  <Target>
GABA Receptor

>  <Form>
free base

>  <CAS>
942436-93-3

>  <URL>
http://www.selleckchem.com/products/azd-6280.html

$$$$
