AZD-9574
 OpenBabel08302521343D

 53 56  0  0  0  0  0  0  0  0999 V2000
    3.0180    1.3880    2.5712 F   0  0  0  0  0  0  0  0  0  0  0  0
    2.2379    2.2442    0.0282 C   0  0  0  0  0  0  0  0  0  0  0  0
    2.6287    3.2730    7.0353 O   0  0  0  0  0  0  0  0  0  0  0  0
    0.1758    4.7601    7.2643 C   0  0  0  0  0  0  0  0  0  0  0  0
    2.3801    0.0651   -5.7019 F   0  0  0  0  0  0  0  0  0  0  0  0
    2.4764   -4.6238   -6.1631 C   0  0  0  0  0  0  0  0  0  0  0  0
    2.8498   -4.3404   -7.4587 N   0  0  0  0  0  0  0  0  0  0  0  0
    2.3382   -5.7545   -5.7125 O   0  0  0  0  0  0  0  0  0  0  0  0
    3.1652   -5.3536   -8.4309 C   0  0  0  0  0  0  0  0  0  0  0  0
    1.5188    2.8105    3.7119 C   0  0  0  0  0  0  0  0  0  0  0  0
    0.4534    3.7173    3.7042 C   0  0  0  0  0  0  0  0  0  0  0  0
    1.9965    2.2588    2.5222 C   0  0  0  0  0  0  0  0  0  0  0  0
    2.1922    2.5575    4.9133 N   0  0  0  0  0  0  0  0  0  0  0  0
   -0.1030    4.0778    2.4769 C   0  0  0  0  0  0  0  0  0  0  0  0
   -0.0285    4.3211    4.8825 N   0  0  0  0  0  0  0  0  0  0  0  0
    1.4948    2.6660    1.2832 C   0  0  0  0  0  0  0  0  0  0  0  0
    1.9177    3.2840    6.0426 C   0  0  0  0  0  0  0  0  0  0  0  0
    0.4344    3.5882    1.2771 C   0  0  0  0  0  0  0  0  0  0  0  0
    0.6492    4.1388    5.9800 C   0  0  0  0  0  0  0  0  0  0  0  0
    1.4761    2.3797   -1.2195 N   0  0  0  0  0  0  0  0  0  0  0  0
    0.4015    1.3712   -1.3554 C   0  0  0  0  0  0  0  0  0  0  0  0
    2.3557    2.3244   -2.4140 C   0  0  0  0  0  0  0  0  0  0  0  0
    0.8449   -0.0509   -1.7722 C   0  0  0  0  0  0  0  0  0  0  0  0
    2.8320    0.9165   -2.8579 C   0  0  0  0  0  0  0  0  0  0  0  0
    1.6743    0.0071   -2.9853 N   0  0  0  0  0  0  0  0  0  0  0  0
    1.8854   -1.1595   -3.7304 C   0  0  0  0  0  0  0  0  0  0  0  0
    2.2466   -1.1281   -5.0970 C   0  0  0  0  0  0  0  0  0  0  0  0
    1.7079   -2.4331   -3.1894 C   0  0  0  0  0  0  0  0  0  0  0  0
    2.4383   -2.2087   -5.8938 N   0  0  0  0  0  0  0  0  0  0  0  0
    1.8900   -3.5786   -3.9743 C   0  0  0  0  0  0  0  0  0  0  0  0
    2.2515   -3.4146   -5.3047 C   0  0  0  0  0  0  0  0  0  0  0  0
    3.1028    2.9209   -0.0164 H   0  0  0  0  0  0  0  0  0  0  0  0
    2.6338    1.2280    0.1422 H   0  0  0  0  0  0  0  0  0  0  0  0
    0.0100    5.8309    7.1095 H   0  0  0  0  0  0  0  0  0  0  0  0
   -0.7676    4.2925    7.5606 H   0  0  0  0  0  0  0  0  0  0  0  0
    0.8987    4.6345    8.0726 H   0  0  0  0  0  0  0  0  0  0  0  0
    2.9405   -3.3568   -7.6978 H   0  0  0  0  0  0  0  0  0  0  0  0
    2.5455   -5.1882   -9.3155 H   0  0  0  0  0  0  0  0  0  0  0  0
    4.2179   -5.2467   -8.7043 H   0  0  0  0  0  0  0  0  0  0  0  0
    2.9890   -6.3581   -8.0388 H   0  0  0  0  0  0  0  0  0  0  0  0
    3.0301    1.9896    4.9091 H   0  0  0  0  0  0  0  0  0  0  0  0
   -0.9224    4.7930    2.4507 H   0  0  0  0  0  0  0  0  0  0  0  0
    0.0356    3.9608    0.3346 H   0  0  0  0  0  0  0  0  0  0  0  0
   -0.1892    1.3004   -0.4352 H   0  0  0  0  0  0  0  0  0  0  0  0
   -0.2927    1.7476   -2.1182 H   0  0  0  0  0  0  0  0  0  0  0  0
    1.7931    2.7652   -3.2474 H   0  0  0  0  0  0  0  0  0  0  0  0
    3.2280    2.9762   -2.2763 H   0  0  0  0  0  0  0  0  0  0  0  0
    1.3966   -0.5279   -0.9535 H   0  0  0  0  0  0  0  0  0  0  0  0
   -0.0631   -0.6362   -1.9632 H   0  0  0  0  0  0  0  0  0  0  0  0
    3.5376    0.5098   -2.1218 H   0  0  0  0  0  0  0  0  0  0  0  0
    3.3754    1.0256   -3.8034 H   0  0  0  0  0  0  0  0  0  0  0  0
    1.4378   -2.5790   -2.1476 H   0  0  0  0  0  0  0  0  0  0  0  0
    1.7593   -4.5722   -3.5551 H   0  0  0  0  0  0  0  0  0  0  0  0
  1 12  1  0  0  0  0
  2 16  1  0  0  0  0
  2 20  1  0  0  0  0
  2 32  1  0  0  0  0
  2 33  1  0  0  0  0
  3 17  2  0  0  0  0
  4 19  1  0  0  0  0
  4 34  1  0  0  0  0
  4 35  1  0  0  0  0
  4 36  1  0  0  0  0
  5 27  1  0  0  0  0
  6  7  1  0  0  0  0
  6  8  2  0  0  0  0
  6 31  1  0  0  0  0
  7  9  1  0  0  0  0
  7 37  1  0  0  0  0
  9 38  1  0  0  0  0
  9 39  1  0  0  0  0
  9 40  1  0  0  0  0
 10 11  1  0  0  0  0
 10 12  2  0  0  0  0
 10 13  1  0  0  0  0
 11 14  2  0  0  0  0
 11 15  1  0  0  0  0
 12 16  1  0  0  0  0
 13 17  1  0  0  0  0
 13 41  1  0  0  0  0
 14 18  1  0  0  0  0
 14 42  1  0  0  0  0
 15 19  2  0  0  0  0
 16 18  2  0  0  0  0
 17 19  1  0  0  0  0
 18 43  1  0  0  0  0
 20 21  1  0  0  0  0
 20 22  1  0  0  0  0
 21 23  1  0  0  0  0
 21 44  1  0  0  0  0
 21 45  1  0  0  0  0
 22 24  1  0  0  0  0
 22 46  1  0  0  0  0
 22 47  1  0  0  0  0
 23 25  1  0  0  0  0
 23 48  1  0  0  0  0
 23 49  1  0  0  0  0
 24 25  1  0  0  0  0
 24 50  1  0  0  0  0
 24 51  1  0  0  0  0
 25 26  1  0  0  0  0
 26 27  2  0  0  0  0
 26 28  1  0  0  0  0
 27 29  1  0  0  0  0
 28 30  2  0  0  0  0
 28 52  1  0  0  0  0
 29 31  2  0  0  0  0
 30 31  1  0  0  0  0
 30 53  1  0  0  0  0
M  END
>  <Mol_ID>
6431

>  <Formula>
C21H22F2N6O2

>  <MolWeight>
428.4351864

>  <Cat>
E2147

>  <Name>
AZD-9574

>  <Synonyms>
N/A

>  <Target>
PARP

>  <Form>
free base

>  <CAS>
2756333-39-6

>  <URL>
http://www.selleckchem.com/products/azd-9574.html

$$$$
