AZD0364 (ATG-017)
 OpenBabel08302521353D

 60 64  0  0  0  0  0  0  0  0999 V2000
    0.3299   -0.0894    0.1641 C   0  0  0  0  0  0  0  0  0  0  0  0
    1.0449   -1.1993    0.5950 C   0  0  0  0  0  0  0  0  0  0  0  0
    0.3834   -2.3828    0.8980 C   0  0  0  0  0  0  0  0  0  0  0  0
   -1.0052   -2.4535    0.7521 C   0  0  0  0  0  0  0  0  0  0  0  0
   -1.7363   -1.3482    0.2812 C   0  0  0  0  0  0  0  0  0  0  0  0
   -1.0530   -0.1541    0.0054 C   0  0  0  0  0  0  0  0  0  0  0  0
   -3.2233   -1.4695    0.0359 C   0  0  0  0  0  0  0  0  0  0  0  0
   -4.0349   -1.0663    1.1765 N   0  0  0  0  0  0  0  0  0  0  0  0
   -4.4858    0.3498    1.2788 C   0  0  2  0  0  0  0  0  0  0  0  0
   -5.1533    0.7603    2.6080 C   0  0  0  0  0  0  0  0  0  0  0  0
   -5.5193   -0.3356    3.4603 N   0  0  0  0  0  0  0  0  0  0  0  0
   -5.1759   -1.6321    3.2317 C   0  0  0  0  0  0  0  0  0  0  0  0
   -4.4119   -2.0773    2.0800 C   0  0  0  0  0  0  0  0  0  0  0  0
   -6.1788   -0.2532    4.6463 C   0  0  0  0  0  0  0  0  0  0  0  0
   -6.2399   -1.5515    5.1116 C   0  0  0  0  0  0  0  0  0  0  0  0
   -5.5986   -2.3966    4.2270 N   0  0  0  0  0  0  0  0  0  0  0  0
   -6.8939   -1.9499    6.3556 C   0  0  0  0  0  0  0  0  0  0  0  0
   -7.8369   -1.0793    6.7839 N   0  0  0  0  0  0  0  0  0  0  0  0
   -8.5011   -1.3586    7.9083 C   0  0  0  0  0  0  0  0  0  0  0  0
   -8.2859   -2.4652    8.6315 N   0  0  0  0  0  0  0  0  0  0  0  0
   -7.3201   -3.2984    8.1943 C   0  0  0  0  0  0  0  0  0  0  0  0
   -6.5699   -3.0974    7.0535 C   0  0  0  0  0  0  0  0  0  0  0  0
   -9.4338   -0.4599    8.4442 N   0  0  0  0  0  0  0  0  0  0  0  0
   -9.4961    0.8682    8.1702 C   0  0  0  0  0  0  0  0  0  0  0  0
   -9.0856    1.6060    7.0785 C   0  0  0  0  0  0  0  0  0  0  0  0
   -9.3366    2.9448    7.4079 C   0  0  0  0  0  0  0  0  0  0  0  0
   -9.9041    3.0725    8.6073 N   0  0  0  0  0  0  0  0  0  0  0  0
  -10.0025    1.7987    9.0520 N   0  0  0  0  0  0  0  0  0  0  0  0
  -10.5210    1.5962   10.3831 C   0  0  0  0  0  0  0  0  0  0  0  0
    0.9668    1.0552   -0.1211 F   0  0  0  0  0  0  0  0  0  0  0  0
    2.3785   -1.1401    0.7128 F   0  0  0  0  0  0  0  0  0  0  0  0
   -5.3770    0.7996    0.0941 C   0  0  0  0  0  0  0  0  0  0  0  0
   -6.5500   -0.0036    0.0040 O   0  0  0  0  0  0  0  0  0  0  0  0
   -7.3781    0.4050   -1.0820 C   0  0  0  0  0  0  0  0  0  0  0  0
   -4.0738   -3.2465    1.9111 O   0  0  0  0  0  0  0  0  0  0  0  0
   -5.4966   -4.0543    6.6562 C   0  0  0  0  0  0  0  0  0  0  0  0
    0.9489   -3.2463    1.2349 H   0  0  0  0  0  0  0  0  0  0  0  0
   -1.5175   -3.3865    0.9900 H   0  0  0  0  0  0  0  0  0  0  0  0
   -1.5762    0.7253   -0.3559 H   0  0  0  0  0  0  0  0  0  0  0  0
   -3.4937   -0.8808   -0.8450 H   0  0  0  0  0  0  0  0  0  0  0  0
   -3.4559   -2.5055   -0.2406 H   0  0  0  0  0  0  0  0  0  0  0  0
   -3.5704    0.9508    1.2061 H   0  0  0  0  0  0  0  0  0  0  0  0
   -4.4580    1.3794    3.1879 H   0  0  0  0  0  0  0  0  0  0  0  0
   -6.0577    1.3596    2.4464 H   0  0  0  0  0  0  0  0  0  0  0  0
   -6.5402    0.6771    5.0608 H   0  0  0  0  0  0  0  0  0  0  0  0
   -7.1542   -4.1636    8.8317 H   0  0  0  0  0  0  0  0  0  0  0  0
   -9.7626   -0.8676    9.3100 H   0  0  0  0  0  0  0  0  0  0  0  0
   -8.6398    1.2263    6.1722 H   0  0  0  0  0  0  0  0  0  0  0  0
   -9.1252    3.8319    6.8261 H   0  0  0  0  0  0  0  0  0  0  0  0
   -9.8438    2.0864   11.0875 H   0  0  0  0  0  0  0  0  0  0  0  0
  -11.5161    2.0452   10.4364 H   0  0  0  0  0  0  0  0  0  0  0  0
  -10.5876    0.5333   10.6163 H   0  0  0  0  0  0  0  0  0  0  0  0
   -5.6680    1.8495    0.2281 H   0  0  0  0  0  0  0  0  0  0  0  0
   -4.8236    0.7390   -0.8487 H   0  0  0  0  0  0  0  0  0  0  0  0
   -7.8050    1.3916   -0.8776 H   0  0  0  0  0  0  0  0  0  0  0  0
   -6.8107    0.4313   -2.0186 H   0  0  0  0  0  0  0  0  0  0  0  0
   -8.1933   -0.3150   -1.1899 H   0  0  0  0  0  0  0  0  0  0  0  0
   -5.7529   -4.5547    5.7183 H   0  0  0  0  0  0  0  0  0  0  0  0
   -4.5386   -3.5338    6.5509 H   0  0  0  0  0  0  0  0  0  0  0  0
   -5.3559   -4.8319    7.4149 H   0  0  0  0  0  0  0  0  0  0  0  0
  1  2  2  0  0  0  0
  1 30  1  0  0  0  0
  2  3  1  0  0  0  0
  2 31  1  0  0  0  0
  3  4  2  0  0  0  0
  3 37  1  0  0  0  0
  4  5  1  0  0  0  0
  4 38  1  0  0  0  0
  5  6  2  0  0  0  0
  5  7  1  0  0  0  0
  6  1  1  0  0  0  0
  6 39  1  0  0  0  0
  7  8  1  0  0  0  0
  7 40  1  0  0  0  0
  7 41  1  0  0  0  0
  8  9  1  0  0  0  0
  9 10  1  0  0  0  0
  9 42  1  6  0  0  0
  9 32  1  0  0  0  0
 10 11  1  0  0  0  0
 10 43  1  0  0  0  0
 10 44  1  0  0  0  0
 11 12  1  0  0  0  0
 11 14  1  0  0  0  0
 12 13  1  0  0  0  0
 13  8  1  0  0  0  0
 13 35  2  0  0  0  0
 14 15  2  0  0  0  0
 14 45  1  0  0  0  0
 15 16  1  0  0  0  0
 15 17  1  0  0  0  0
 16 12  2  0  0  0  0
 17 18  2  0  0  0  0
 18 19  1  0  0  0  0
 19 20  2  0  0  0  0
 19 23  1  0  0  0  0
 20 21  1  0  0  0  0
 21 22  2  0  0  0  0
 21 46  1  0  0  0  0
 22 17  1  0  0  0  0
 22 36  1  0  0  0  0
 23 24  1  0  0  0  0
 23 47  1  0  0  0  0
 24 25  2  0  0  0  0
 25 26  1  0  0  0  0
 25 48  1  0  0  0  0
 26 27  2  0  0  0  0
 26 49  1  0  0  0  0
 27 28  1  0  0  0  0
 28 24  1  0  0  0  0
 28 29  1  0  0  0  0
 29 50  1  0  0  0  0
 29 51  1  0  0  0  0
 29 52  1  0  0  0  0
 32 33  1  0  0  0  0
 32 53  1  0  0  0  0
 32 54  1  0  0  0  0
 33 34  1  0  0  0  0
 34 55  1  0  0  0  0
 34 56  1  0  0  0  0
 34 57  1  0  0  0  0
 36 58  1  0  0  0  0
 36 59  1  0  0  0  0
 36 60  1  0  0  0  0
M  END
>  <Mol_ID>
6727

>  <Formula>
C24H24F2N8O2

>  <MolWeight>
494.4965664

>  <Cat>
S8708

>  <Name>
AZD0364 (ATG-017)

>  <Synonyms>
N/A

>  <Target>
ERK

>  <Form>
Free base

>  <CAS>
2097416-76-5

>  <URL>
http://www.selleckchem.com/products/azd0364.html

$$$$
