AZD1390.cdx
 OpenBabel08302520433D

 67 71  0  0  0  0  0  0  0  0999 V2000
   -1.6427    1.0596   -0.2536 C   0  0  0  0  0  0  0  0  0  0  0  0
   -0.6505    1.0103   -1.2245 C   0  0  0  0  0  0  0  0  0  0  0  0
    0.1793   -0.1098   -1.2754 C   0  0  0  0  0  0  0  0  0  0  0  0
    0.0094   -1.1129   -0.3154 C   0  0  0  0  0  0  0  0  0  0  0  0
   -1.2144   -1.1251    0.3505 C   0  0  0  0  0  0  0  0  0  0  0  0
   -2.0172   -0.0441    0.4266 N   0  0  0  0  0  0  0  0  0  0  0  0
   -2.2182    2.2052    0.2319 O   0  0  0  0  0  0  0  0  0  0  0  0
   -1.8180    3.4425   -0.3579 C   0  0  0  0  0  0  0  0  0  0  0  0
   -2.2708    4.6425    0.4793 C   0  0  0  0  0  0  0  0  0  0  0  0
   -1.4946    4.9173    1.7833 C   0  0  0  0  0  0  0  0  0  0  0  0
   -0.0514    5.2659    1.7068 N   0  0  0  0  0  0  0  0  0  0  0  0
    1.1609   -1.5278    0.4872 C   0  0  0  0  0  0  0  0  0  0  0  0
    1.5126   -2.8294    0.8484 C   0  0  0  0  0  0  0  0  0  0  0  0
    2.3821   -3.0658    1.9300 C   0  0  0  0  0  0  0  0  0  0  0  0
    2.9224   -2.0264    2.6988 C   0  0  0  0  0  0  0  0  0  0  0  0
    2.6924   -0.7196    2.2495 C   0  0  0  0  0  0  0  0  0  0  0  0
    1.8131   -0.4922    1.1765 C   0  0  0  0  0  0  0  0  0  0  0  0
    3.6172   -2.2763    3.8381 N   0  0  0  0  0  0  0  0  0  0  0  0
    4.0938   -1.2239    4.5623 C   0  0  0  0  0  0  0  0  0  0  0  0
    3.9675    0.0685    4.1274 C   0  0  0  0  0  0  0  0  0  0  0  0
    3.2686    0.3173    2.9705 C   0  0  0  0  0  0  0  0  0  0  0  0
    0.9450   -3.8754    0.2258 F   0  0  0  0  0  0  0  0  0  0  0  0
    4.5023    1.2787    4.6216 N   0  0  0  0  0  0  0  0  0  0  0  0
    3.8632    2.3246    3.8756 C   0  0  0  0  0  0  0  0  0  0  0  0
    3.3172    1.7124    2.7035 N   0  0  0  0  0  0  0  0  0  0  0  0
    3.9426    2.2077    1.4604 C   0  0  0  0  0  0  0  0  0  0  0  0
    4.7181    1.1728    0.6316 C   0  0  0  0  0  0  0  0  0  0  0  0
    2.9869    3.0375    0.6199 C   0  0  0  0  0  0  0  0  0  0  0  0
    4.0196    3.5208    4.0725 O   0  0  0  0  0  0  0  0  0  0  0  0
    5.9526    1.4157    4.5106 C   0  0  0  0  0  0  0  0  0  0  0  0
    0.1895    6.4969    0.9325 C   0  0  0  0  0  0  0  0  0  0  0  0
    1.6647    6.9240    0.9433 C   0  0  0  0  0  0  0  0  0  0  0  0
    2.1819    7.1181    2.3616 C   0  0  0  0  0  0  0  0  0  0  0  0
    1.9075    5.8728    3.1870 C   0  0  0  0  0  0  0  0  0  0  0  0
    0.4449    5.4391    3.0974 C   0  0  0  0  0  0  0  0  0  0  0  0
   -0.4018    1.8642   -1.8428 H   0  0  0  0  0  0  0  0  0  0  0  0
    1.0794   -0.0712   -1.8867 H   0  0  0  0  0  0  0  0  0  0  0  0
   -1.4743   -1.9354    1.0268 H   0  0  0  0  0  0  0  0  0  0  0  0
   -0.7379    3.5105   -0.5161 H   0  0  0  0  0  0  0  0  0  0  0  0
   -2.3330    3.4977   -1.3244 H   0  0  0  0  0  0  0  0  0  0  0  0
   -2.2433    5.5379   -0.1510 H   0  0  0  0  0  0  0  0  0  0  0  0
   -3.3209    4.4896    0.7612 H   0  0  0  0  0  0  0  0  0  0  0  0
   -2.0204    5.7391    2.2909 H   0  0  0  0  0  0  0  0  0  0  0  0
   -1.6075    4.0362    2.4269 H   0  0  0  0  0  0  0  0  0  0  0  0
    2.5838   -4.0943    2.2138 H   0  0  0  0  0  0  0  0  0  0  0  0
    1.5421    0.5396    0.9627 H   0  0  0  0  0  0  0  0  0  0  0  0
    4.5579   -1.4728    5.5112 H   0  0  0  0  0  0  0  0  0  0  0  0
    4.7328    2.9072    1.7745 H   0  0  0  0  0  0  0  0  0  0  0  0
    4.0678    0.4394    0.1528 H   0  0  0  0  0  0  0  0  0  0  0  0
    5.2786    1.6691   -0.1673 H   0  0  0  0  0  0  0  0  0  0  0  0
    5.4480    0.6351    1.2441 H   0  0  0  0  0  0  0  0  0  0  0  0
    2.9469    4.0515    1.0206 H   0  0  0  0  0  0  0  0  0  0  0  0
    3.3343    3.1227   -0.4138 H   0  0  0  0  0  0  0  0  0  0  0  0
    1.9692    2.6465    0.6244 H   0  0  0  0  0  0  0  0  0  0  0  0
    6.3600    0.6373    3.8536 H   0  0  0  0  0  0  0  0  0  0  0  0
    6.2100    2.3677    4.0242 H   0  0  0  0  0  0  0  0  0  0  0  0
    6.4199    1.3806    5.4915 H   0  0  0  0  0  0  0  0  0  0  0  0
   -0.4192    7.3240    1.3196 H   0  0  0  0  0  0  0  0  0  0  0  0
   -0.0944    6.3378   -0.1129 H   0  0  0  0  0  0  0  0  0  0  0  0
    1.7862    7.8575    0.3820 H   0  0  0  0  0  0  0  0  0  0  0  0
    2.2738    6.1703    0.4304 H   0  0  0  0  0  0  0  0  0  0  0  0
    3.2578    7.3300    2.3488 H   0  0  0  0  0  0  0  0  0  0  0  0
    1.6902    7.9832    2.8223 H   0  0  0  0  0  0  0  0  0  0  0  0
    2.5480    5.0635    2.8348 H   0  0  0  0  0  0  0  0  0  0  0  0
    2.1792    6.0544    4.2337 H   0  0  0  0  0  0  0  0  0  0  0  0
    0.3433    4.4906    3.6391 H   0  0  0  0  0  0  0  0  0  0  0  0
   -0.1649    6.1828    3.6285 H   0  0  0  0  0  0  0  0  0  0  0  0
  1  2  2  0  0  0  0
  1  7  1  0  0  0  0
  2  3  1  0  0  0  0
  2 36  1  0  0  0  0
  3  4  2  0  0  0  0
  3 37  1  0  0  0  0
  4  5  1  0  0  0  0
  4 12  1  0  0  0  0
  5  6  2  0  0  0  0
  5 38  1  0  0  0  0
  6  1  1  0  0  0  0
  7  8  1  0  0  0  0
  8  9  1  0  0  0  0
  8 39  1  0  0  0  0
  8 40  1  0  0  0  0
  9 10  1  0  0  0  0
  9 41  1  0  0  0  0
  9 42  1  0  0  0  0
 10 11  1  0  0  0  0
 10 43  1  0  0  0  0
 10 44  1  0  0  0  0
 11 31  1  0  0  0  0
 12 13  2  0  0  0  0
 13 14  1  0  0  0  0
 13 22  1  0  0  0  0
 14 15  2  0  0  0  0
 14 45  1  0  0  0  0
 15 16  1  0  0  0  0
 15 18  1  0  0  0  0
 16 17  2  0  0  0  0
 17 12  1  0  0  0  0
 17 46  1  0  0  0  0
 18 19  2  0  0  0  0
 19 20  1  0  0  0  0
 19 47  1  0  0  0  0
 20 21  2  0  0  0  0
 20 23  1  0  0  0  0
 21 16  1  0  0  0  0
 23 24  1  0  0  0  0
 23 30  1  0  0  0  0
 24 25  1  0  0  0  0
 24 29  2  0  0  0  0
 25 21  1  0  0  0  0
 25 26  1  0  0  0  0
 26 27  1  0  0  0  0
 26 28  1  0  0  0  0
 26 48  1  0  0  0  0
 27 49  1  0  0  0  0
 27 50  1  0  0  0  0
 27 51  1  0  0  0  0
 28 52  1  0  0  0  0
 28 53  1  0  0  0  0
 28 54  1  0  0  0  0
 30 55  1  0  0  0  0
 30 56  1  0  0  0  0
 30 57  1  0  0  0  0
 31 32  1  0  0  0  0
 31 58  1  0  0  0  0
 31 59  1  0  0  0  0
 32 33  1  0  0  0  0
 32 60  1  0  0  0  0
 32 61  1  0  0  0  0
 33 34  1  0  0  0  0
 33 62  1  0  0  0  0
 33 63  1  0  0  0  0
 34 35  1  0  0  0  0
 34 64  1  0  0  0  0
 34 65  1  0  0  0  0
 35 11  1  0  0  0  0
 35 66  1  0  0  0  0
 35 67  1  0  0  0  0
M  END
>  <Mol_ID>
4213

>  <Formula>
C27H32FN5O2

>  <MolWeight>
477.5736832

>  <Cat>
S8680

>  <Name>
AZD1390

>  <Synonyms>
N/A

>  <Target>
ATM/ATR

>  <Form>
free base

>  <CAS>
2089288-03-7

>  <URL>
http://selleckchem.com/products/azd1390.html

$$$$
