AZD1981.cdx
 OpenBabel08302519573D

 43 45  0  0  0  0  0  0  0  0999 V2000
   -2.1133   -0.8484    0.0328 C   0  0  0  0  0  0  0  0  0  0  0  0
   -2.2060    0.5182    0.2230 C   0  0  0  0  0  0  0  0  0  0  0  0
   -1.0602    1.3231    0.3835 C   0  0  0  0  0  0  0  0  0  0  0  0
    0.2377    0.7359    0.2465 C   0  0  0  0  0  0  0  0  0  0  0  0
    0.2843   -0.6628    0.0961 C   0  0  0  0  0  0  0  0  0  0  0  0
   -0.8688   -1.4653   -0.0021 C   0  0  0  0  0  0  0  0  0  0  0  0
    1.6089    1.1709    0.2643 C   0  0  0  0  0  0  0  0  0  0  0  0
    2.4309    0.0619    0.1283 C   0  0  0  0  0  0  0  0  0  0  0  0
    1.6129   -1.0423    0.0750 N   0  0  0  0  0  0  0  0  0  0  0  0
    3.9187   -0.0560    0.0461 C   0  0  0  0  0  0  0  0  0  0  0  0
    2.0535   -2.4334    0.0675 C   0  0  0  0  0  0  0  0  0  0  0  0
    2.1751   -3.0025   -1.3261 C   0  0  0  0  0  0  0  0  0  0  0  0
    2.4780   -2.4153   -2.3469 O   0  0  0  0  0  0  0  0  0  0  0  0
    1.9697   -4.3368   -1.3448 O   0  0  0  0  0  0  0  0  0  0  0  0
    2.2346    2.8144    0.3761 S   0  0  0  0  0  0  0  0  0  0  0  0
   -1.2451    2.6982    0.5808 N   0  0  0  0  0  0  0  0  0  0  0  0
   -2.1732    3.3212    1.3810 C   0  0  0  0  0  0  0  0  0  0  0  0
   -2.8034    2.5422    2.5166 C   0  0  0  0  0  0  0  0  0  0  0  0
   -2.4056    4.5219    1.2361 O   0  0  0  0  0  0  0  0  0  0  0  0
    1.5393    3.4677    1.8797 C   0  0  0  0  0  0  0  0  0  0  0  0
    1.2701    2.6673    2.9937 C   0  0  0  0  0  0  0  0  0  0  0  0
    0.5174    3.1720    4.0546 C   0  0  0  0  0  0  0  0  0  0  0  0
    0.0578    4.4871    4.0205 C   0  0  0  0  0  0  0  0  0  0  0  0
    0.4094    5.3198    2.9607 C   0  0  0  0  0  0  0  0  0  0  0  0
    1.1632    4.8164    1.9002 C   0  0  0  0  0  0  0  0  0  0  0  0
   -3.0162   -1.4393   -0.0957 H   0  0  0  0  0  0  0  0  0  0  0  0
   -3.1926    0.9741    0.1853 H   0  0  0  0  0  0  0  0  0  0  0  0
   -0.8095   -2.5365   -0.1407 H   0  0  0  0  0  0  0  0  0  0  0  0
    4.3083   -0.5798    0.9256 H   0  0  0  0  0  0  0  0  0  0  0  0
    4.2101   -0.6183   -0.8477 H   0  0  0  0  0  0  0  0  0  0  0  0
    4.4165    0.9159   -0.0061 H   0  0  0  0  0  0  0  0  0  0  0  0
    3.0171   -2.5093    0.5793 H   0  0  0  0  0  0  0  0  0  0  0  0
    1.3257   -3.0121    0.6475 H   0  0  0  0  0  0  0  0  0  0  0  0
    2.1020   -4.5787   -2.2843 H   0  0  0  0  0  0  0  0  0  0  0  0
   -0.5857    3.3263    0.1380 H   0  0  0  0  0  0  0  0  0  0  0  0
   -2.0276    2.0942    3.1417 H   0  0  0  0  0  0  0  0  0  0  0  0
   -3.3772    3.2316    3.1443 H   0  0  0  0  0  0  0  0  0  0  0  0
   -3.4906    1.7719    2.1704 H   0  0  0  0  0  0  0  0  0  0  0  0
    1.5944    1.6306    3.0224 H   0  0  0  0  0  0  0  0  0  0  0  0
    0.2498    2.5224    4.8833 H   0  0  0  0  0  0  0  0  0  0  0  0
   -0.5902    4.8601    4.8092 H   0  0  0  0  0  0  0  0  0  0  0  0
    0.0533    6.3466    2.9318 H   0  0  0  0  0  0  0  0  0  0  0  0
    1.4014    5.4726    1.0657 H   0  0  0  0  0  0  0  0  0  0  0  0
  1  2  2  0  0  0  0
  1 26  1  0  0  0  0
  2  3  1  0  0  0  0
  2 27  1  0  0  0  0
  3  4  2  0  0  0  0
  3 16  1  0  0  0  0
  4  5  1  0  0  0  0
  4  7  1  0  0  0  0
  5  6  2  0  0  0  0
  6  1  1  0  0  0  0
  6 28  1  0  0  0  0
  7  8  2  0  0  0  0
  7 15  1  0  0  0  0
  8  9  1  0  0  0  0
  8 10  1  0  0  0  0
  9  5  1  0  0  0  0
  9 11  1  0  0  0  0
 10 29  1  0  0  0  0
 10 30  1  0  0  0  0
 10 31  1  0  0  0  0
 11 12  1  0  0  0  0
 11 32  1  0  0  0  0
 11 33  1  0  0  0  0
 12 13  2  0  0  0  0
 12 14  1  0  0  0  0
 14 34  1  0  0  0  0
 15 20  1  0  0  0  0
 16 17  1  0  0  0  0
 16 35  1  0  0  0  0
 17 18  1  0  0  0  0
 17 19  2  0  0  0  0
 18 36  1  0  0  0  0
 18 37  1  0  0  0  0
 18 38  1  0  0  0  0
 20 21  2  0  0  0  0
 21 22  1  0  0  0  0
 21 39  1  0  0  0  0
 22 23  2  0  0  0  0
 22 40  1  0  0  0  0
 23 24  1  0  0  0  0
 23 41  1  0  0  0  0
 24 25  2  0  0  0  0
 24 42  1  0  0  0  0
 25 20  1  0  0  0  0
 25 43  1  0  0  0  0
M  END
>  <Mol_ID>
2262

>  <Formula>
C19H17ClN2O3S

>  <MolWeight>
388.86788

>  <Cat>
S7263

>  <Name>
AZD1981

>  <Synonyms>
N/A

>  <Target>
GPR

>  <Form>
free base

>  <CAS>
802904-66-1

>  <URL>
http://selleckchem.com/products/azd1981.html

$$$$
