AZD1208.cdx
 OpenBabel08302519583D

 48 51  0  0  0  0  0  0  0  0999 V2000
    1.3476   -0.1298   -0.0517 C   0  0  0  0  0  0  0  0  0  0  0  0
    0.5519   -1.2580   -0.0041 C   0  0  0  0  0  0  0  0  0  0  0  0
   -0.8277   -1.1102   -0.0485 C   0  0  0  0  0  0  0  0  0  0  0  0
   -1.4636    0.1598   -0.0754 C   0  0  0  0  0  0  0  0  0  0  0  0
   -0.6486    1.3472    0.0333 C   0  0  0  0  0  0  0  0  0  0  0  0
    0.7709    1.1542   -0.0659 C   0  0  0  0  0  0  0  0  0  0  0  0
   -2.9403    0.1424   -0.2876 C   0  0  0  0  0  0  0  0  0  0  0  0
   -1.2003    2.6180    0.3197 N   0  0  0  0  0  0  0  0  0  0  0  0
   -0.4261    3.5838    1.1370 C   0  0  0  0  0  0  0  0  0  0  0  0
   -1.3779    4.4509    1.9979 C   0  0  1  0  0  0  0  0  0  0  0  0
   -2.4512    5.1103    1.1154 C   0  0  0  0  0  0  0  0  0  0  0  0
   -3.1166    4.1353    0.1448 C   0  0  0  0  0  0  0  0  0  0  0  0
   -2.0949    3.2839   -0.6386 C   0  0  0  0  0  0  0  0  0  0  0  0
   -1.9651    3.6359    3.0734 N   0  0  0  0  0  0  0  0  0  0  0  0
   -3.8154    0.9418    0.4475 C   0  0  0  0  0  0  0  0  0  0  0  0
   -5.1380    1.1473    0.0355 C   0  0  0  0  0  0  0  0  0  0  0  0
   -5.6559    0.4328   -1.0374 C   0  0  0  0  0  0  0  0  0  0  0  0
   -4.8606   -0.5130   -1.6712 C   0  0  0  0  0  0  0  0  0  0  0  0
   -3.5141   -0.6417   -1.3121 C   0  0  0  0  0  0  0  0  0  0  0  0
    1.7391    2.2439   -0.3209 C   0  0  0  0  0  0  0  0  0  0  0  0
    2.1094    2.6465   -1.5386 C   0  0  0  0  0  0  0  0  0  0  0  0
    3.0902    3.7421   -1.7378 C   0  0  0  0  0  0  0  0  0  0  0  0
    3.3376    3.9113   -3.0661 N   0  0  0  0  0  0  0  0  0  0  0  0
    2.6753    3.1147   -3.9408 C   0  0  0  0  0  0  0  0  0  0  0  0
    1.6130    2.0303   -3.0708 S   0  0  0  0  0  0  0  0  0  0  0  0
    3.6009    4.3975   -0.8412 O   0  0  0  0  0  0  0  0  0  0  0  0
    2.7947    3.1405   -5.1535 O   0  0  0  0  0  0  0  0  0  0  0  0
    2.4284   -0.2514   -0.0899 H   0  0  0  0  0  0  0  0  0  0  0  0
    0.9992   -2.2471    0.0164 H   0  0  0  0  0  0  0  0  0  0  0  0
   -1.4313   -2.0175   -0.0650 H   0  0  0  0  0  0  0  0  0  0  0  0
    0.2642    3.0731    1.8185 H   0  0  0  0  0  0  0  0  0  0  0  0
    0.1540    4.2488    0.4843 H   0  0  0  0  0  0  0  0  0  0  0  0
   -0.7936    5.2430    2.4802 H   0  0  0  0  0  0  0  0  0  0  0  0
   -3.2192    5.5839    1.7420 H   0  0  0  0  0  0  0  0  0  0  0  0
   -1.9884    5.9180    0.5367 H   0  0  0  0  0  0  0  0  0  0  0  0
   -3.7848    3.5095    0.7389 H   0  0  0  0  0  0  0  0  0  0  0  0
   -3.7602    4.6814   -0.5531 H   0  0  0  0  0  0  0  0  0  0  0  0
   -1.5067    3.9412   -1.2920 H   0  0  0  0  0  0  0  0  0  0  0  0
   -2.6145    2.5899   -1.3043 H   0  0  0  0  0  0  0  0  0  0  0  0
   -2.8222    4.0562    3.4215 H   0  0  0  0  0  0  0  0  0  0  0  0
   -2.2075    2.7243    2.6810 H   0  0  0  0  0  0  0  0  0  0  0  0
   -3.4325    1.4922    1.2999 H   0  0  0  0  0  0  0  0  0  0  0  0
   -5.7463    1.8978    0.5335 H   0  0  0  0  0  0  0  0  0  0  0  0
   -6.6739    0.6086   -1.3730 H   0  0  0  0  0  0  0  0  0  0  0  0
   -5.2711   -1.1225   -2.4717 H   0  0  0  0  0  0  0  0  0  0  0  0
   -2.9033   -1.3448   -1.8756 H   0  0  0  0  0  0  0  0  0  0  0  0
    2.1743    2.6972    0.5681 H   0  0  0  0  0  0  0  0  0  0  0  0
    3.9859    4.6081   -3.3904 H   0  0  0  0  0  0  0  0  0  0  0  0
  1  2  2  0  0  0  0
  1 28  1  0  0  0  0
  2  3  1  0  0  0  0
  2 29  1  0  0  0  0
  3  4  2  0  0  0  0
  3 30  1  0  0  0  0
  4  5  1  0  0  0  0
  4  7  1  0  0  0  0
  5  6  2  0  0  0  0
  5  8  1  0  0  0  0
  6  1  1  0  0  0  0
  6 20  1  0  0  0  0
  7 15  2  0  0  0  0
  8  9  1  0  0  0  0
  9 10  1  0  0  0  0
  9 31  1  0  0  0  0
  9 32  1  0  0  0  0
 10 11  1  0  0  0  0
 10 14  1  0  0  0  0
 10 33  1  1  0  0  0
 11 12  1  0  0  0  0
 11 34  1  0  0  0  0
 11 35  1  0  0  0  0
 12 13  1  0  0  0  0
 12 36  1  0  0  0  0
 12 37  1  0  0  0  0
 13  8  1  0  0  0  0
 13 38  1  0  0  0  0
 13 39  1  0  0  0  0
 14 40  1  0  0  0  0
 14 41  1  0  0  0  0
 15 16  1  0  0  0  0
 15 42  1  0  0  0  0
 16 17  2  0  0  0  0
 16 43  1  0  0  0  0
 17 18  1  0  0  0  0
 17 44  1  0  0  0  0
 18 19  2  0  0  0  0
 18 45  1  0  0  0  0
 19  7  1  0  0  0  0
 19 46  1  0  0  0  0
 20 21  2  0  0  0  0
 20 47  1  0  0  0  0
 21 22  1  0  0  0  0
 22 23  1  0  0  0  0
 22 26  2  0  0  0  0
 23 24  1  0  0  0  0
 23 48  1  0  0  0  0
 24 25  1  0  0  0  0
 24 27  2  0  0  0  0
 25 21  1  0  0  0  0
M  END
>  <Mol_ID>
2419

>  <Formula>
C21H21N3O2S

>  <MolWeight>
379.47534

>  <Cat>
S7104

>  <Name>
AZD1208

>  <Synonyms>
N/A

>  <Target>
Apoptosis related,Autophagy,Pim

>  <Form>
free base

>  <CAS>
1204144-28-4

>  <URL>
http://selleckchem.com/products/azd-1208.html

$$$$
