AZD1656
 OpenBabel08302521373D

 61 64  0  0  1  0  0  0  0  0999 V2000
   -0.6720    2.3052    4.8822 O   0  0  0  0  0  0  0  0  0  0  0  0
    1.6943    6.1101    3.0662 C   0  0  0  0  0  0  0  0  0  0  0  0
    1.6324    7.4903    3.0387 N   0  0  0  0  0  0  0  0  0  0  0  0
    2.7070    5.4202    3.0793 O   0  0  0  0  0  0  0  0  0  0  0  0
   -2.9013    5.0862    1.7012 O   0  0  0  0  0  0  0  0  0  0  0  0
   -3.6642    3.9377    1.2646 C   0  0  2  0  0  0  0  0  0  0  0  0
   -2.9448    3.1389    0.1571 C   0  0  0  0  0  0  0  0  0  0  0  0
   -5.0352    4.4354    0.8203 C   0  0  0  0  0  0  0  0  0  0  0  0
   -2.8601    3.8801   -1.0629 O   0  0  0  0  0  0  0  0  0  0  0  0
   -2.3007    3.0940   -2.1099 C   0  0  0  0  0  0  0  0  0  0  0  0
    3.5434   -1.1194    3.6882 C   0  0  0  0  0  0  0  0  0  0  0  0
    4.0273   -1.1190    2.5584 O   0  0  0  0  0  0  0  0  0  0  0  0
    6.1720   10.7499    3.5910 C   0  0  0  0  0  0  0  0  0  0  0  0
   -0.7027    3.4825    4.1752 C   0  0  0  0  0  0  0  0  0  0  0  0
    0.4139    4.3059    4.0835 C   0  0  0  0  0  0  0  0  0  0  0  0
   -1.8665    3.7948    3.4907 C   0  0  0  0  0  0  0  0  0  0  0  0
    0.4036    5.3978    3.2149 C   0  0  0  0  0  0  0  0  0  0  0  0
   -1.8633    4.8384    2.5641 C   0  0  0  0  0  0  0  0  0  0  0  0
   -0.7384    5.6738    2.4529 C   0  0  0  0  0  0  0  0  0  0  0  0
    0.3334    1.4218    4.5005 C   0  0  0  0  0  0  0  0  0  0  0  0
    0.6999    0.4453    5.4096 C   0  0  0  0  0  0  0  0  0  0  0  0
    0.9534    1.5598    3.3007 N   0  0  0  0  0  0  0  0  0  0  0  0
    1.7282   -0.4111    5.1862 N   0  0  0  0  0  0  0  0  0  0  0  0
    2.0064    0.7352    3.0831 C   0  0  0  0  0  0  0  0  0  0  0  0
    2.3970   -0.2227    4.0074 C   0  0  0  0  0  0  0  0  0  0  0  0
    2.7884    8.2982    3.0693 C   0  0  0  0  0  0  0  0  0  0  0  0
    2.6733    9.6570    3.3530 C   0  0  0  0  0  0  0  0  0  0  0  0
    4.0049    7.7574    2.8762 N   0  0  0  0  0  0  0  0  0  0  0  0
    3.7415   10.4871    3.5038 N   0  0  0  0  0  0  0  0  0  0  0  0
    5.0743    8.5690    3.0207 C   0  0  0  0  0  0  0  0  0  0  0  0
    4.9589    9.9111    3.3452 C   0  0  0  0  0  0  0  0  0  0  0  0
    3.9872   -1.9527    4.6888 N   0  0  0  0  0  0  0  0  0  0  0  0
    5.0876   -2.8975    4.6462 C   0  0  0  0  0  0  0  0  0  0  0  0
    4.0980   -1.7061    6.1195 C   0  0  0  0  0  0  0  0  0  0  0  0
    5.4426   -2.4327    6.0584 C   0  0  0  0  0  0  0  0  0  0  0  0
    0.7398    7.9404    3.1733 H   0  0  0  0  0  0  0  0  0  0  0  0
   -3.8668    3.2551    2.0937 H   0  0  0  0  0  0  0  0  0  0  0  0
   -1.9304    2.8730    0.4748 H   0  0  0  0  0  0  0  0  0  0  0  0
   -3.5049    2.2151   -0.0318 H   0  0  0  0  0  0  0  0  0  0  0  0
   -5.6876    3.5932    0.5681 H   0  0  0  0  0  0  0  0  0  0  0  0
   -5.5054    5.0032    1.6307 H   0  0  0  0  0  0  0  0  0  0  0  0
   -4.9650    5.1055   -0.0405 H   0  0  0  0  0  0  0  0  0  0  0  0
   -1.3125    2.7166   -1.8292 H   0  0  0  0  0  0  0  0  0  0  0  0
   -2.9653    2.2585   -2.3524 H   0  0  0  0  0  0  0  0  0  0  0  0
   -2.1961    3.7222   -2.9987 H   0  0  0  0  0  0  0  0  0  0  0  0
    6.1333   11.6602    2.9864 H   0  0  0  0  0  0  0  0  0  0  0  0
    6.2203   11.0246    4.6495 H   0  0  0  0  0  0  0  0  0  0  0  0
    7.0923   10.2123    3.3382 H   0  0  0  0  0  0  0  0  0  0  0  0
    1.3260    4.0459    4.6169 H   0  0  0  0  0  0  0  0  0  0  0  0
   -2.7319    3.1674    3.6631 H   0  0  0  0  0  0  0  0  0  0  0  0
   -0.7374    6.4731    1.7175 H   0  0  0  0  0  0  0  0  0  0  0  0
    0.1778    0.3260    6.3513 H   0  0  0  0  0  0  0  0  0  0  0  0
    2.5344    0.8824    2.1443 H   0  0  0  0  0  0  0  0  0  0  0  0
    1.7101   10.1290    3.5087 H   0  0  0  0  0  0  0  0  0  0  0  0
    6.0361    8.0874    2.8811 H   0  0  0  0  0  0  0  0  0  0  0  0
    4.7348   -3.9294    4.5683 H   0  0  0  0  0  0  0  0  0  0  0  0
    5.8395   -2.6922    3.8808 H   0  0  0  0  0  0  0  0  0  0  0  0
    4.1724   -0.6512    6.3993 H   0  0  0  0  0  0  0  0  0  0  0  0
    3.3179   -2.2061    6.6992 H   0  0  0  0  0  0  0  0  0  0  0  0
    5.5705   -3.2313    6.7940 H   0  0  0  0  0  0  0  0  0  0  0  0
    6.3112   -1.7664    6.0973 H   0  0  0  0  0  0  0  0  0  0  0  0
  1 14  1  0  0  0  0
  1 20  1  0  0  0  0
  2  3  1  0  0  0  0
  2  4  2  0  0  0  0
  2 17  1  0  0  0  0
  3 26  1  0  0  0  0
  3 36  1  0  0  0  0
  5 18  1  0  0  0  0
  6  8  1  0  0  0  0
  6 37  1  1  0  0  0
  6  7  1  0  0  0  0
  6  5  1  0  0  0  0
  7  9  1  0  0  0  0
  7 38  1  0  0  0  0
  7 39  1  0  0  0  0
  8 40  1  0  0  0  0
  8 41  1  0  0  0  0
  8 42  1  0  0  0  0
  9 10  1  0  0  0  0
 10 43  1  0  0  0  0
 10 44  1  0  0  0  0
 10 45  1  0  0  0  0
 11 12  2  0  0  0  0
 11 25  1  0  0  0  0
 11 32  1  0  0  0  0
 13 31  1  0  0  0  0
 13 46  1  0  0  0  0
 13 47  1  0  0  0  0
 13 48  1  0  0  0  0
 14 15  2  0  0  0  0
 14 16  1  0  0  0  0
 15 17  1  0  0  0  0
 15 49  1  0  0  0  0
 16 18  2  0  0  0  0
 16 50  1  0  0  0  0
 17 19  2  0  0  0  0
 18 19  1  0  0  0  0
 19 51  1  0  0  0  0
 20 21  2  0  0  0  0
 20 22  1  0  0  0  0
 21 23  1  0  0  0  0
 21 52  1  0  0  0  0
 22 24  2  0  0  0  0
 23 25  2  0  0  0  0
 24 25  1  0  0  0  0
 24 53  1  0  0  0  0
 26 27  2  0  0  0  0
 26 28  1  0  0  0  0
 27 29  1  0  0  0  0
 27 54  1  0  0  0  0
 28 30  2  0  0  0  0
 29 31  2  0  0  0  0
 30 31  1  0  0  0  0
 30 55  1  0  0  0  0
 32 33  1  0  0  0  0
 32 34  1  0  0  0  0
 33 35  1  0  0  0  0
 33 56  1  0  0  0  0
 33 57  1  0  0  0  0
 34 35  1  0  0  0  0
 34 58  1  0  0  0  0
 34 59  1  0  0  0  0
 35 60  1  0  0  0  0
 35 61  1  0  0  0  0
M  END
>  <Mol_ID>
7526

>  <Formula>
C24H26N6O5

>  <MolWeight>
478.50044

>  <Cat>
E1353

>  <Name>
AZD1656

>  <Target>
Carbohydrate Metabolism

>  <Form>
free base

>  <CAS>
919783-22-5

>  <URL>
https://www.selleckchem.com/products/azd1656.html

$$$$
