AZD2858.cdx
 OpenBabel08302519573D

 55 58  0  0  0  0  0  0  0  0999 V2000
    0.9833    0.1190    1.4739 C   0  0  0  0  0  0  0  0  0  0  0  0
    1.6588    0.5210    0.3215 C   0  0  0  0  0  0  0  0  0  0  0  0
    1.0151    0.5990   -0.8798 N   0  0  0  0  0  0  0  0  0  0  0  0
   -0.2763    0.1547   -0.8838 C   0  0  0  0  0  0  0  0  0  0  0  0
   -0.8993   -0.3878    0.2562 C   0  0  0  0  0  0  0  0  0  0  0  0
   -0.2860   -0.3531    1.4591 N   0  0  0  0  0  0  0  0  0  0  0  0
    3.1125    0.7491    0.2912 C   0  0  0  0  0  0  0  0  0  0  0  0
   -2.0568   -1.1547    0.2193 N   0  0  0  0  0  0  0  0  0  0  0  0
   -1.0815    0.3978   -2.1301 C   0  0  0  0  0  0  0  0  0  0  0  0
   -2.2840    0.1693   -2.1236 O   0  0  0  0  0  0  0  0  0  0  0  0
   -0.3858    0.9361   -3.2117 N   0  0  0  0  0  0  0  0  0  0  0  0
   -0.9803    1.5080   -4.3670 C   0  0  0  0  0  0  0  0  0  0  0  0
   -2.3436    1.7694   -4.5079 C   0  0  0  0  0  0  0  0  0  0  0  0
   -2.9080    2.4047   -5.5704 N   0  0  0  0  0  0  0  0  0  0  0  0
   -2.0786    2.7867   -6.5591 C   0  0  0  0  0  0  0  0  0  0  0  0
   -0.7152    2.5475   -6.5406 C   0  0  0  0  0  0  0  0  0  0  0  0
   -0.1614    1.9045   -5.4288 C   0  0  0  0  0  0  0  0  0  0  0  0
    3.8598    0.2213   -0.7813 C   0  0  0  0  0  0  0  0  0  0  0  0
    5.2358    0.4130   -0.8837 C   0  0  0  0  0  0  0  0  0  0  0  0
    5.9002    1.1634    0.0862 C   0  0  0  0  0  0  0  0  0  0  0  0
    5.2009    1.6262    1.2074 C   0  0  0  0  0  0  0  0  0  0  0  0
    3.8153    1.4251    1.3032 C   0  0  0  0  0  0  0  0  0  0  0  0
    7.6662    1.3872   -0.0356 S   0  0  0  0  0  0  0  0  0  0  0  0
    8.1448    1.6171    1.3119 O   0  0  0  0  0  0  0  0  0  0  0  0
    8.1755    0.2877   -0.8226 O   0  0  0  0  0  0  0  0  0  0  0  0
    7.8851    2.8048   -0.9085 N   0  0  0  0  0  0  0  0  0  0  0  0
    7.5789    4.1207   -0.3062 C   0  0  0  0  0  0  0  0  0  0  0  0
    6.1871    4.6261   -0.7248 C   0  0  0  0  0  0  0  0  0  0  0  0
    5.9170    4.5865   -2.1780 N   0  0  0  0  0  0  0  0  0  0  0  0
    6.3429    3.3204   -2.8050 C   0  0  0  0  0  0  0  0  0  0  0  0
    7.7347    2.8247   -2.3803 C   0  0  0  0  0  0  0  0  0  0  0  0
    4.4888    4.8106   -2.4248 C   0  0  0  0  0  0  0  0  0  0  0  0
    1.4619    0.0935    2.4475 H   0  0  0  0  0  0  0  0  0  0  0  0
   -2.3830   -1.3587    1.1568 H   0  0  0  0  0  0  0  0  0  0  0  0
   -2.7605   -0.7994   -0.4286 H   0  0  0  0  0  0  0  0  0  0  0  0
    0.6244    0.9772   -3.1200 H   0  0  0  0  0  0  0  0  0  0  0  0
   -3.0687    1.5102   -3.7440 H   0  0  0  0  0  0  0  0  0  0  0  0
   -2.5535    3.3067   -7.3867 H   0  0  0  0  0  0  0  0  0  0  0  0
   -0.0980    2.8637   -7.3750 H   0  0  0  0  0  0  0  0  0  0  0  0
    0.9082    1.7144   -5.4146 H   0  0  0  0  0  0  0  0  0  0  0  0
    3.3565   -0.3779   -1.5417 H   0  0  0  0  0  0  0  0  0  0  0  0
    5.7768   -0.0280   -1.7167 H   0  0  0  0  0  0  0  0  0  0  0  0
    5.7255    2.1417    2.0103 H   0  0  0  0  0  0  0  0  0  0  0  0
    3.2978    1.8079    2.1824 H   0  0  0  0  0  0  0  0  0  0  0  0
    8.3489    4.8288   -0.6370 H   0  0  0  0  0  0  0  0  0  0  0  0
    7.6500    4.0823    0.7860 H   0  0  0  0  0  0  0  0  0  0  0  0
    6.0938    5.6672   -0.3875 H   0  0  0  0  0  0  0  0  0  0  0  0
    5.4295    4.0526   -0.1853 H   0  0  0  0  0  0  0  0  0  0  0  0
    5.6117    2.5319   -2.6055 H   0  0  0  0  0  0  0  0  0  0  0  0
    6.3591    3.4652   -3.8933 H   0  0  0  0  0  0  0  0  0  0  0  0
    8.5053    3.4955   -2.7846 H   0  0  0  0  0  0  0  0  0  0  0  0
    7.9344    1.8412   -2.8156 H   0  0  0  0  0  0  0  0  0  0  0  0
    4.2668    4.7774   -3.4970 H   0  0  0  0  0  0  0  0  0  0  0  0
    3.8656    4.0560   -1.9277 H   0  0  0  0  0  0  0  0  0  0  0  0
    4.1840    5.7980   -2.0628 H   0  0  0  0  0  0  0  0  0  0  0  0
  1  2  2  0  0  0  0
  1 33  1  0  0  0  0
  2  3  1  0  0  0  0
  2  7  1  0  0  0  0
  3  4  2  0  0  0  0
  4  5  1  0  0  0  0
  4  9  1  0  0  0  0
  5  6  2  0  0  0  0
  5  8  1  0  0  0  0
  6  1  1  0  0  0  0
  7 18  2  0  0  0  0
  8 34  1  0  0  0  0
  8 35  1  0  0  0  0
  9 10  2  0  0  0  0
  9 11  1  0  0  0  0
 11 12  1  0  0  0  0
 11 36  1  0  0  0  0
 12 13  2  0  0  0  0
 13 14  1  0  0  0  0
 13 37  1  0  0  0  0
 14 15  2  0  0  0  0
 15 16  1  0  0  0  0
 15 38  1  0  0  0  0
 16 17  2  0  0  0  0
 16 39  1  0  0  0  0
 17 12  1  0  0  0  0
 17 40  1  0  0  0  0
 18 19  1  0  0  0  0
 18 41  1  0  0  0  0
 19 20  2  0  0  0  0
 19 42  1  0  0  0  0
 20 21  1  0  0  0  0
 20 23  1  0  0  0  0
 21 22  2  0  0  0  0
 21 43  1  0  0  0  0
 22  7  1  0  0  0  0
 22 44  1  0  0  0  0
 23 24  2  0  0  0  0
 23 25  2  0  0  0  0
 23 26  1  0  0  0  0
 26 27  1  0  0  0  0
 27 28  1  0  0  0  0
 27 45  1  0  0  0  0
 27 46  1  0  0  0  0
 28 29  1  0  0  0  0
 28 47  1  0  0  0  0
 28 48  1  0  0  0  0
 29 30  1  0  0  0  0
 29 32  1  0  0  0  0
 30 31  1  0  0  0  0
 30 49  1  0  0  0  0
 30 50  1  0  0  0  0
 31 26  1  0  0  0  0
 31 51  1  0  0  0  0
 31 52  1  0  0  0  0
 32 53  1  0  0  0  0
 32 54  1  0  0  0  0
 32 55  1  0  0  0  0
M  END
>  <Mol_ID>
2257

>  <Formula>
C21H23N7O3S

>  <MolWeight>
453.51742

>  <Cat>
S7253

>  <Name>
AZD2858

>  <Synonyms>
N/A

>  <Target>
GSK-3

>  <Form>
free base

>  <CAS>
486424-20-8

>  <URL>
http://selleckchem.com/products/azd2858.html

$$$$
