AZD2098
 OpenBabel08302520403D

 29 30  0  0  0  0  0  0  0  0999 V2000
    1.0585    0.1823    0.0928 S   0  0  0  0  0  0  0  0  0  0  0  0
   -0.1086   -0.6699    0.2184 O   0  0  0  0  0  0  0  0  0  0  0  0
    1.8666    0.4963    1.2499 O   0  0  0  0  0  0  0  0  0  0  0  0
    0.1433    3.3499    1.7337 O   0  0  0  0  0  0  0  0  0  0  0  0
    0.4709    1.6082   -0.5756 N   0  0  0  0  0  0  0  0  0  0  0  0
    2.1854    2.9807   -1.2855 N   0  0  0  0  0  0  0  0  0  0  0  0
    1.9029    4.7056    0.9545 N   0  0  0  0  0  0  0  0  0  0  0  0
    2.1143   -0.6309   -1.0884 C   0  0  0  0  0  0  0  0  0  0  0  0
    2.3680   -0.1424   -2.3732 C   0  0  0  0  0  0  0  0  0  0  0  0
    2.6913   -1.8419   -0.6775 C   0  0  0  0  0  0  0  0  0  0  0  0
    1.2581    2.7628   -0.3285 C   0  0  0  0  0  0  0  0  0  0  0  0
    3.2005   -0.8707   -3.2353 C   0  0  0  0  0  0  0  0  0  0  0  0
    3.5161   -2.5628   -1.5397 C   0  0  0  0  0  0  0  0  0  0  0  0
    3.7713   -2.0785   -2.8229 C   0  0  0  0  0  0  0  0  0  0  0  0
    1.1226    3.6061    0.7928 C   0  0  0  0  0  0  0  0  0  0  0  0
    2.9596    4.0741   -1.1012 C   0  0  0  0  0  0  0  0  0  0  0  0
    2.8249    4.9137   -0.0080 C   0  0  0  0  0  0  0  0  0  0  0  0
    0.1642    4.2928    2.8120 C   0  0  0  0  0  0  0  0  0  0  0  0
   -0.5074    1.7050   -0.3039 H   0  0  0  0  0  0  0  0  0  0  0  0
    1.9357    0.7904   -2.7201 H   0  0  0  0  0  0  0  0  0  0  0  0
    2.4946   -2.2318    0.3212 H   0  0  0  0  0  0  0  0  0  0  0  0
    3.4065   -0.5000   -4.2381 H   0  0  0  0  0  0  0  0  0  0  0  0
    3.9585   -3.5040   -1.2179 H   0  0  0  0  0  0  0  0  0  0  0  0
    4.4102   -2.6422   -3.4991 H   0  0  0  0  0  0  0  0  0  0  0  0
    3.7008    4.2634   -1.8691 H   0  0  0  0  0  0  0  0  0  0  0  0
    3.4595    5.7833    0.1227 H   0  0  0  0  0  0  0  0  0  0  0  0
    1.1513    4.3548    3.2876 H   0  0  0  0  0  0  0  0  0  0  0  0
   -0.1599    5.2832    2.4690 H   0  0  0  0  0  0  0  0  0  0  0  0
   -0.5425    3.9599    3.5781 H   0  0  0  0  0  0  0  0  0  0  0  0
  1  2  2  0  0  0  0
  1  3  2  0  0  0  0
  1  5  1  0  0  0  0
  1  8  1  0  0  0  0
  4 15  1  0  0  0  0
  4 18  1  0  0  0  0
  5 11  1  0  0  0  0
  5 19  1  0  0  0  0
  6 11  2  0  0  0  0
  6 16  1  0  0  0  0
  7 15  2  0  0  0  0
  7 17  1  0  0  0  0
  8  9  2  0  0  0  0
  8 10  1  0  0  0  0
  9 12  1  0  0  0  0
  9 20  1  0  0  0  0
 10 13  2  0  0  0  0
 10 21  1  0  0  0  0
 11 15  1  0  0  0  0
 12 14  2  0  0  0  0
 12 22  1  0  0  0  0
 13 14  1  0  0  0  0
 13 23  1  0  0  0  0
 14 24  1  0  0  0  0
 16 17  2  0  0  0  0
 16 25  1  0  0  0  0
 17 26  1  0  0  0  0
 18 27  1  0  0  0  0
 18 28  1  0  0  0  0
 18 29  1  0  0  0  0
M  END
>  <Mol_ID>
3833

>  <Formula>
C11H9Cl2N3O3S

>  <MolWeight>
334.17846

>  <Cat>
S6555

>  <Name>
AZD2098

>  <Synonyms>
N/A

>  <Target>
CCR

>  <Form>
free base

>  <CAS>
566203-88-1

>  <URL>
http://www.selleck.cn/products/azd2098.html

$$$$
