AZD2014.cdx
 OpenBabel08302521313D

 64 68  0  0  0  0  0  0  0  0999 V2000
   -2.5114    0.6230   -0.0848 C   0  0  0  0  0  0  0  0  0  0  0  0
   -2.3974   -0.7533   -0.0495 C   0  0  0  0  0  0  0  0  0  0  0  0
   -1.1936   -1.3794    0.0061 N   0  0  0  0  0  0  0  0  0  0  0  0
   -0.0631   -0.6683    0.0193 C   0  0  0  0  0  0  0  0  0  0  0  0
   -0.0964    0.7162   -0.0122 C   0  0  0  0  0  0  0  0  0  0  0  0
   -1.3490    1.3597   -0.0918 C   0  0  0  0  0  0  0  0  0  0  0  0
    1.0765   -1.3320    0.0346 N   0  0  0  0  0  0  0  0  0  0  0  0
    2.2261   -0.6549    0.0630 C   0  0  0  0  0  0  0  0  0  0  0  0
    2.2914    0.6839    0.0505 N   0  0  0  0  0  0  0  0  0  0  0  0
    1.1389    1.3690   -0.0134 C   0  0  0  0  0  0  0  0  0  0  0  0
    3.3654   -1.4226    0.1765 N   0  0  0  0  0  0  0  0  0  0  0  0
    4.6233   -0.9264    0.7606 C   0  0  2  0  0  0  0  0  0  0  0  0
    5.4370   -2.1822    1.1890 C   0  0  0  0  0  0  0  0  0  0  0  0
    5.6835   -3.0693    0.0828 O   0  0  0  0  0  0  0  0  0  0  0  0
    4.4392   -3.5252   -0.4763 C   0  0  0  0  0  0  0  0  0  0  0  0
    3.5814   -2.3437   -0.9544 C   0  0  0  0  0  0  0  0  0  0  0  0
   -3.5743   -1.6290   -0.0940 C   0  0  0  0  0  0  0  0  0  0  0  0
   -3.5610   -2.8576    0.5841 C   0  0  0  0  0  0  0  0  0  0  0  0
   -4.6587   -3.7228    0.5322 C   0  0  0  0  0  0  0  0  0  0  0  0
   -5.8048   -3.3430   -0.1747 C   0  0  0  0  0  0  0  0  0  0  0  0
   -5.8434   -2.1215   -0.8432 C   0  0  0  0  0  0  0  0  0  0  0  0
   -4.7350   -1.2780   -0.8069 C   0  0  0  0  0  0  0  0  0  0  0  0
   -4.6452   -5.0271    1.2420 C   0  0  0  0  0  0  0  0  0  0  0  0
   -3.4123   -5.5997    1.4550 N   0  0  0  0  0  0  0  0  0  0  0  0
   -3.2489   -6.8384    2.1707 C   0  0  0  0  0  0  0  0  0  0  0  0
   -5.7059   -5.5429    1.5875 O   0  0  0  0  0  0  0  0  0  0  0  0
    1.1520    2.7509   -0.2053 N   0  0  0  0  0  0  0  0  0  0  0  0
    2.2146    3.3919   -1.0057 C   0  0  2  0  0  0  0  0  0  0  0  0
    1.6369    4.7493   -1.5010 C   0  0  0  0  0  0  0  0  0  0  0  0
    1.1798    5.5841   -0.4204 O   0  0  0  0  0  0  0  0  0  0  0  0
    0.1653    4.9109    0.3423 C   0  0  0  0  0  0  0  0  0  0  0  0
    0.7106    3.5945    0.9270 C   0  0  0  0  0  0  0  0  0  0  0  0
    2.6224    2.5773   -2.2350 C   0  0  0  0  0  0  0  0  0  0  0  0
    4.4202   -0.0479    1.9936 C   0  0  0  0  0  0  0  0  0  0  0  0
   -3.4718    1.1239   -0.1078 H   0  0  0  0  0  0  0  0  0  0  0  0
   -1.4259    2.4383   -0.1688 H   0  0  0  0  0  0  0  0  0  0  0  0
    5.1925   -0.3785   -0.0019 H   0  0  0  0  0  0  0  0  0  0  0  0
    6.4107   -1.8899    1.5946 H   0  0  0  0  0  0  0  0  0  0  0  0
    4.9078   -2.7421    1.9723 H   0  0  0  0  0  0  0  0  0  0  0  0
    4.6772   -4.1865   -1.3158 H   0  0  0  0  0  0  0  0  0  0  0  0
    3.9039   -4.1182    0.2752 H   0  0  0  0  0  0  0  0  0  0  0  0
    4.1180   -1.8127   -1.7533 H   0  0  0  0  0  0  0  0  0  0  0  0
    2.6498   -2.7327   -1.3807 H   0  0  0  0  0  0  0  0  0  0  0  0
   -2.6845   -3.1123    1.1755 H   0  0  0  0  0  0  0  0  0  0  0  0
   -6.6693   -4.0029   -0.2113 H   0  0  0  0  0  0  0  0  0  0  0  0
   -6.7301   -1.8273   -1.3988 H   0  0  0  0  0  0  0  0  0  0  0  0
   -4.7843   -0.3401   -1.3571 H   0  0  0  0  0  0  0  0  0  0  0  0
   -2.5869   -5.1909    1.0373 H   0  0  0  0  0  0  0  0  0  0  0  0
   -2.7456   -7.5481    1.5105 H   0  0  0  0  0  0  0  0  0  0  0  0
   -2.6146   -6.6420    3.0385 H   0  0  0  0  0  0  0  0  0  0  0  0
   -4.2057   -7.2495    2.4997 H   0  0  0  0  0  0  0  0  0  0  0  0
    3.0871    3.5803   -0.3673 H   0  0  0  0  0  0  0  0  0  0  0  0
    2.4016    5.3111   -2.0458 H   0  0  0  0  0  0  0  0  0  0  0  0
    0.7956    4.5839   -2.1884 H   0  0  0  0  0  0  0  0  0  0  0  0
   -0.1593    5.5830    1.1424 H   0  0  0  0  0  0  0  0  0  0  0  0
   -0.7021    4.7285   -0.3064 H   0  0  0  0  0  0  0  0  0  0  0  0
    1.5618    3.8060    1.5852 H   0  0  0  0  0  0  0  0  0  0  0  0
   -0.0676    3.1242    1.5384 H   0  0  0  0  0  0  0  0  0  0  0  0
    3.2383    3.1757   -2.9130 H   0  0  0  0  0  0  0  0  0  0  0  0
    3.2217    1.7036   -1.9636 H   0  0  0  0  0  0  0  0  0  0  0  0
    1.7453    2.2238   -2.7887 H   0  0  0  0  0  0  0  0  0  0  0  0
    5.3592    0.0808    2.5418 H   0  0  0  0  0  0  0  0  0  0  0  0
    4.0831    0.9555    1.7183 H   0  0  0  0  0  0  0  0  0  0  0  0
    3.6810   -0.4804    2.6762 H   0  0  0  0  0  0  0  0  0  0  0  0
  1  2  2  0  0  0  0
  1 35  1  0  0  0  0
  2  3  1  0  0  0  0
  2 17  1  0  0  0  0
  3  4  2  0  0  0  0
  4  5  1  0  0  0  0
  4  7  1  0  0  0  0
  5  6  2  0  0  0  0
  6  1  1  0  0  0  0
  6 36  1  0  0  0  0
  7  8  2  0  0  0  0
  8  9  1  0  0  0  0
  8 11  1  0  0  0  0
  9 10  2  0  0  0  0
 10  5  1  0  0  0  0
 10 27  1  0  0  0  0
 11 12  1  0  0  0  0
 12 13  1  0  0  0  0
 12 34  1  0  0  0  0
 12 37  1  6  0  0  0
 13 14  1  0  0  0  0
 13 38  1  0  0  0  0
 13 39  1  0  0  0  0
 14 15  1  0  0  0  0
 15 16  1  0  0  0  0
 15 40  1  0  0  0  0
 15 41  1  0  0  0  0
 16 11  1  0  0  0  0
 16 42  1  0  0  0  0
 16 43  1  0  0  0  0
 17 18  2  0  0  0  0
 18 19  1  0  0  0  0
 18 44  1  0  0  0  0
 19 20  2  0  0  0  0
 19 23  1  0  0  0  0
 20 21  1  0  0  0  0
 20 45  1  0  0  0  0
 21 22  2  0  0  0  0
 21 46  1  0  0  0  0
 22 17  1  0  0  0  0
 22 47  1  0  0  0  0
 23 24  1  0  0  0  0
 23 26  2  0  0  0  0
 24 25  1  0  0  0  0
 24 48  1  0  0  0  0
 25 49  1  0  0  0  0
 25 50  1  0  0  0  0
 25 51  1  0  0  0  0
 27 28  1  0  0  0  0
 28 29  1  0  0  0  0
 28 33  1  0  0  0  0
 28 52  1  1  0  0  0
 29 30  1  0  0  0  0
 29 53  1  0  0  0  0
 29 54  1  0  0  0  0
 30 31  1  0  0  0  0
 31 32  1  0  0  0  0
 31 55  1  0  0  0  0
 31 56  1  0  0  0  0
 32 27  1  0  0  0  0
 32 57  1  0  0  0  0
 32 58  1  0  0  0  0
 33 59  1  0  0  0  0
 33 60  1  0  0  0  0
 33 61  1  0  0  0  0
 34 62  1  0  0  0  0
 34 63  1  0  0  0  0
 34 64  1  0  0  0  0
M  END
>  <Mol_ID>
559

>  <Formula>
C25H30N6O3

>  <MolWeight>
462.5441

>  <Cat>
S2783

>  <Name>
Vistusertib (AZD2014)

>  <Synonyms>
N/A

>  <Target>
Apoptosis related,Autophagy,mTOR

>  <Form>
free base

>  <CAS>
1009298-59-2

>  <URL>
http://selleckchem.com/products/azd2014.html

$$$$
