AZD2932.cdx
 OpenBabel08302519593D

 58 61  0  0  0  0  0  0  0  0999 V2000
   -4.8181    0.2172   -1.1455 C   0  0  0  0  0  0  0  0  0  0  0  0
   -4.5067   -1.1143   -1.4258 C   0  0  0  0  0  0  0  0  0  0  0  0
   -3.1563   -1.5002   -1.4144 C   0  0  0  0  0  0  0  0  0  0  0  0
   -2.1096   -0.6425   -1.1380 C   0  0  0  0  0  0  0  0  0  0  0  0
   -2.4001    0.6839   -0.8145 C   0  0  0  0  0  0  0  0  0  0  0  0
   -3.7651    1.1081   -0.8317 C   0  0  0  0  0  0  0  0  0  0  0  0
   -0.8703   -1.1380   -1.2184 N   0  0  0  0  0  0  0  0  0  0  0  0
    0.1351   -0.3114   -0.9359 C   0  0  0  0  0  0  0  0  0  0  0  0
    0.0076    0.9600   -0.5691 N   0  0  0  0  0  0  0  0  0  0  0  0
   -1.2526    1.4517   -0.5414 C   0  0  0  0  0  0  0  0  0  0  0  0
   -6.0290    0.8061   -1.3978 O   0  0  0  0  0  0  0  0  0  0  0  0
   -5.2771   -2.1732   -1.8064 O   0  0  0  0  0  0  0  0  0  0  0  0
   -7.0484    0.5846   -0.4266 C   0  0  0  0  0  0  0  0  0  0  0  0
   -6.6829   -2.1352   -1.7522 C   0  0  0  0  0  0  0  0  0  0  0  0
   -1.4184    2.8024   -0.2115 O   0  0  0  0  0  0  0  0  0  0  0  0
   -0.2951    3.6072   -0.2750 C   0  0  0  0  0  0  0  0  0  0  0  0
    0.5462    3.6252   -1.3911 C   0  0  0  0  0  0  0  0  0  0  0  0
    1.7085    4.3982   -1.3896 C   0  0  0  0  0  0  0  0  0  0  0  0
    2.0171    5.2091   -0.2916 C   0  0  0  0  0  0  0  0  0  0  0  0
    1.1249    5.2570    0.7879 C   0  0  0  0  0  0  0  0  0  0  0  0
   -0.0278    4.4564    0.7996 C   0  0  0  0  0  0  0  0  0  0  0  0
    3.2801    6.0366   -0.2932 C   0  0  0  0  0  0  0  0  0  0  0  0
    3.0546    7.4285   -0.8533 C   0  0  0  0  0  0  0  0  0  0  0  0
    3.2095    7.5031   -2.2231 N   0  0  0  0  0  0  0  0  0  0  0  0
    2.7539    8.3637   -0.1079 O   0  0  0  0  0  0  0  0  0  0  0  0
    2.9788    8.6579   -2.9477 C   0  0  0  0  0  0  0  0  0  0  0  0
    2.6005    9.9553   -2.5369 C   0  0  0  0  0  0  0  0  0  0  0  0
    2.4524   10.7957   -3.5656 N   0  0  0  0  0  0  0  0  0  0  0  0
    2.7166   10.0325   -4.6410 N   0  0  0  0  0  0  0  0  0  0  0  0
    3.0742    8.7490   -4.3181 C   0  0  0  0  0  0  0  0  0  0  0  0
    2.5536   10.5864   -5.9817 C   0  0  0  0  0  0  0  0  0  0  0  0
    1.0988   10.9842   -6.2351 C   0  0  0  0  0  0  0  0  0  0  0  0
    3.5008   11.7606   -6.2237 C   0  0  0  0  0  0  0  0  0  0  0  0
   -2.9114   -2.5305   -1.6779 H   0  0  0  0  0  0  0  0  0  0  0  0
   -3.9944    2.1575   -0.6493 H   0  0  0  0  0  0  0  0  0  0  0  0
    1.1412   -0.7063   -1.0222 H   0  0  0  0  0  0  0  0  0  0  0  0
   -7.8852    0.0791   -0.9208 H   0  0  0  0  0  0  0  0  0  0  0  0
   -6.7230    0.0015    0.4402 H   0  0  0  0  0  0  0  0  0  0  0  0
   -7.4394    1.5488   -0.0887 H   0  0  0  0  0  0  0  0  0  0  0  0
   -7.0361   -2.0299   -0.7221 H   0  0  0  0  0  0  0  0  0  0  0  0
   -7.0870   -1.3781   -2.4236 H   0  0  0  0  0  0  0  0  0  0  0  0
   -7.0475   -3.1063   -2.1047 H   0  0  0  0  0  0  0  0  0  0  0  0
    0.3304    2.9987   -2.2519 H   0  0  0  0  0  0  0  0  0  0  0  0
    2.3732    4.3425   -2.2467 H   0  0  0  0  0  0  0  0  0  0  0  0
    1.3231    5.9128    1.6353 H   0  0  0  0  0  0  0  0  0  0  0  0
   -0.6945    4.4857    1.6558 H   0  0  0  0  0  0  0  0  0  0  0  0
    3.6738    6.1307    0.7254 H   0  0  0  0  0  0  0  0  0  0  0  0
    4.0672    5.5284   -0.8649 H   0  0  0  0  0  0  0  0  0  0  0  0
    3.4451    6.6713   -2.7479 H   0  0  0  0  0  0  0  0  0  0  0  0
    2.4194   10.3234   -1.5360 H   0  0  0  0  0  0  0  0  0  0  0  0
    3.3304    8.0290   -5.0834 H   0  0  0  0  0  0  0  0  0  0  0  0
    2.8163    9.7840   -6.6826 H   0  0  0  0  0  0  0  0  0  0  0  0
    0.7791   11.7911   -5.5656 H   0  0  0  0  0  0  0  0  0  0  0  0
    0.9624   11.3281   -7.2651 H   0  0  0  0  0  0  0  0  0  0  0  0
    0.4280   10.1333   -6.0696 H   0  0  0  0  0  0  0  0  0  0  0  0
    4.5421   11.4625   -6.0595 H   0  0  0  0  0  0  0  0  0  0  0  0
    3.4117   12.1246   -7.2529 H   0  0  0  0  0  0  0  0  0  0  0  0
    3.2859   12.5988   -5.5516 H   0  0  0  0  0  0  0  0  0  0  0  0
  1  2  2  0  0  0  0
  1 11  1  0  0  0  0
  2  3  1  0  0  0  0
  2 12  1  0  0  0  0
  3  4  2  0  0  0  0
  3 34  1  0  0  0  0
  4  5  1  0  0  0  0
  4  7  1  0  0  0  0
  5  6  2  0  0  0  0
  6  1  1  0  0  0  0
  6 35  1  0  0  0  0
  7  8  2  0  0  0  0
  8  9  1  0  0  0  0
  8 36  1  0  0  0  0
  9 10  2  0  0  0  0
 10  5  1  0  0  0  0
 10 15  1  0  0  0  0
 11 13  1  0  0  0  0
 12 14  1  0  0  0  0
 13 37  1  0  0  0  0
 13 38  1  0  0  0  0
 13 39  1  0  0  0  0
 14 40  1  0  0  0  0
 14 41  1  0  0  0  0
 14 42  1  0  0  0  0
 15 16  1  0  0  0  0
 16 17  2  0  0  0  0
 17 18  1  0  0  0  0
 17 43  1  0  0  0  0
 18 19  2  0  0  0  0
 18 44  1  0  0  0  0
 19 20  1  0  0  0  0
 19 22  1  0  0  0  0
 20 21  2  0  0  0  0
 20 45  1  0  0  0  0
 21 16  1  0  0  0  0
 21 46  1  0  0  0  0
 22 23  1  0  0  0  0
 22 47  1  0  0  0  0
 22 48  1  0  0  0  0
 23 24  1  0  0  0  0
 23 25  2  0  0  0  0
 24 26  1  0  0  0  0
 24 49  1  0  0  0  0
 26 27  1  0  0  0  0
 27 28  2  0  0  0  0
 27 50  1  0  0  0  0
 28 29  1  0  0  0  0
 29 30  1  0  0  0  0
 29 31  1  0  0  0  0
 30 26  2  0  0  0  0
 30 51  1  0  0  0  0
 31 32  1  0  0  0  0
 31 33  1  0  0  0  0
 31 52  1  0  0  0  0
 32 53  1  0  0  0  0
 32 54  1  0  0  0  0
 32 55  1  0  0  0  0
 33 56  1  0  0  0  0
 33 57  1  0  0  0  0
 33 58  1  0  0  0  0
M  END
>  <Mol_ID>
2583

>  <Formula>
C24H25N5O4

>  <MolWeight>
447.4864

>  <Cat>
S7003

>  <Name>
AZD2932

>  <Synonyms>
N/A

>  <Target>
c-Kit,FLT3,PDGFR,VEGFR

>  <Form>
free base

>  <CAS>
883986-34-3

>  <URL>
http://selleckchem.com/products/azd2932.html

$$$$
