AZD3759.cdx
 OpenBabel08302519593D

 55 58  0  0  0  0  0  0  0  0999 V2000
    2.6344    1.0625    0.4027 C   0  0  0  0  0  0  0  0  0  0  0  0
    2.7021   -0.1934    0.9986 C   0  0  0  0  0  0  0  0  0  0  0  0
    1.5191   -0.9309    1.1285 C   0  0  0  0  0  0  0  0  0  0  0  0
    0.2791   -0.4234    0.7456 C   0  0  0  0  0  0  0  0  0  0  0  0
    0.1971    0.9197    0.3528 C   0  0  0  0  0  0  0  0  0  0  0  0
    1.3888    1.6694    0.2113 C   0  0  0  0  0  0  0  0  0  0  0  0
   -0.7822   -1.2334    0.7610 N   0  0  0  0  0  0  0  0  0  0  0  0
   -1.9505   -0.7027    0.3878 C   0  0  0  0  0  0  0  0  0  0  0  0
   -2.1739    0.5826    0.1110 N   0  0  0  0  0  0  0  0  0  0  0  0
   -1.1045    1.4022    0.1250 C   0  0  0  0  0  0  0  0  0  0  0  0
    3.8231    1.6504   -0.0834 O   0  0  0  0  0  0  0  0  0  0  0  0
    3.8471   -0.8375    1.3848 O   0  0  0  0  0  0  0  0  0  0  0  0
    4.7756   -0.0306    2.1109 C   0  0  0  0  0  0  0  0  0  0  0  0
    3.7991    2.2015   -1.3767 C   0  0  0  0  0  0  0  0  0  0  0  0
    5.0538    2.6066   -1.8258 N   0  0  0  0  0  0  0  0  0  0  0  0
    2.7766    2.3289   -2.0428 O   0  0  0  0  0  0  0  0  0  0  0  0
    5.2117    3.7937   -2.6999 C   0  0  1  0  0  0  0  0  0  0  0  0
    6.4618    3.6441   -3.6108 C   0  0  0  0  0  0  0  0  0  0  0  0
    7.7124    3.3094   -2.9017 N   0  0  0  0  0  0  0  0  0  0  0  0
    7.4943    2.1066   -2.0787 C   0  0  0  0  0  0  0  0  0  0  0  0
    6.2694    2.1673   -1.1415 C   0  0  0  0  0  0  0  0  0  0  0  0
    4.0218    4.2021   -3.5723 C   0  0  0  0  0  0  0  0  0  0  0  0
    8.2071    4.4332   -2.1101 C   0  0  0  0  0  0  0  0  0  0  0  0
   -1.3265    2.7892   -0.0534 N   0  0  0  0  0  0  0  0  0  0  0  0
   -2.5168    3.4907    0.2640 C   0  0  0  0  0  0  0  0  0  0  0  0
   -3.3583    3.0819    1.3113 C   0  0  0  0  0  0  0  0  0  0  0  0
   -4.4981    3.8177    1.6488 C   0  0  0  0  0  0  0  0  0  0  0  0
   -4.8130    4.9857    0.9605 C   0  0  0  0  0  0  0  0  0  0  0  0
   -3.9709    5.4260   -0.0625 C   0  0  0  0  0  0  0  0  0  0  0  0
   -2.8340    4.6873   -0.3944 C   0  0  0  0  0  0  0  0  0  0  0  0
   -2.0324    5.1375   -1.3720 F   0  0  0  0  0  0  0  0  0  0  0  0
    1.5647   -1.9435    1.5187 H   0  0  0  0  0  0  0  0  0  0  0  0
    1.3391    2.6923   -0.1517 H   0  0  0  0  0  0  0  0  0  0  0  0
   -2.7982   -1.3747    0.3036 H   0  0  0  0  0  0  0  0  0  0  0  0
    5.3248    0.6393    1.4494 H   0  0  0  0  0  0  0  0  0  0  0  0
    4.2927    0.5329    2.9196 H   0  0  0  0  0  0  0  0  0  0  0  0
    5.5143   -0.6981    2.5658 H   0  0  0  0  0  0  0  0  0  0  0  0
    5.3808    4.6271   -2.0063 H   0  0  0  0  0  0  0  0  0  0  0  0
    6.2713    2.8468   -4.3437 H   0  0  0  0  0  0  0  0  0  0  0  0
    6.6107    4.5556   -4.2031 H   0  0  0  0  0  0  0  0  0  0  0  0
    7.3627    1.2588   -2.7650 H   0  0  0  0  0  0  0  0  0  0  0  0
    8.3962    1.8759   -1.4986 H   0  0  0  0  0  0  0  0  0  0  0  0
    6.4477    2.8585   -0.3109 H   0  0  0  0  0  0  0  0  0  0  0  0
    6.1119    1.1696   -0.7175 H   0  0  0  0  0  0  0  0  0  0  0  0
    3.1447    4.4542   -2.9642 H   0  0  0  0  0  0  0  0  0  0  0  0
    4.2614    5.1080   -4.1405 H   0  0  0  0  0  0  0  0  0  0  0  0
    3.7474    3.4174   -4.2823 H   0  0  0  0  0  0  0  0  0  0  0  0
    7.5377    4.7176   -1.2922 H   0  0  0  0  0  0  0  0  0  0  0  0
    9.1833    4.1894   -1.6778 H   0  0  0  0  0  0  0  0  0  0  0  0
    8.3572    5.3133   -2.7455 H   0  0  0  0  0  0  0  0  0  0  0  0
   -0.8742    3.1359   -0.8953 H   0  0  0  0  0  0  0  0  0  0  0  0
   -3.1315    2.1875    1.8784 H   0  0  0  0  0  0  0  0  0  0  0  0
   -5.1423    3.4677    2.4578 H   0  0  0  0  0  0  0  0  0  0  0  0
   -5.6965    5.5502    1.2256 H   0  0  0  0  0  0  0  0  0  0  0  0
   -4.1947    6.3402   -0.6024 H   0  0  0  0  0  0  0  0  0  0  0  0
  1  2  2  0  0  0  0
  1 11  1  0  0  0  0
  2  3  1  0  0  0  0
  2 12  1  0  0  0  0
  3  4  2  0  0  0  0
  3 32  1  0  0  0  0
  4  5  1  0  0  0  0
  4  7  1  0  0  0  0
  5  6  2  0  0  0  0
  6  1  1  0  0  0  0
  6 33  1  0  0  0  0
  7  8  2  0  0  0  0
  8  9  1  0  0  0  0
  8 34  1  0  0  0  0
  9 10  2  0  0  0  0
 10  5  1  0  0  0  0
 10 24  1  0  0  0  0
 11 14  1  0  0  0  0
 12 13  1  0  0  0  0
 13 35  1  0  0  0  0
 13 36  1  0  0  0  0
 13 37  1  0  0  0  0
 14 15  1  0  0  0  0
 14 16  2  0  0  0  0
 15 17  1  0  0  0  0
 17 18  1  0  0  0  0
 17 22  1  0  0  0  0
 17 38  1  1  0  0  0
 18 19  1  0  0  0  0
 18 39  1  0  0  0  0
 18 40  1  0  0  0  0
 19 20  1  0  0  0  0
 19 23  1  0  0  0  0
 20 21  1  0  0  0  0
 20 41  1  0  0  0  0
 20 42  1  0  0  0  0
 21 15  1  0  0  0  0
 21 43  1  0  0  0  0
 21 44  1  0  0  0  0
 22 45  1  0  0  0  0
 22 46  1  0  0  0  0
 22 47  1  0  0  0  0
 23 48  1  0  0  0  0
 23 49  1  0  0  0  0
 23 50  1  0  0  0  0
 24 25  1  0  0  0  0
 24 51  1  0  0  0  0
 25 26  2  0  0  0  0
 26 27  1  0  0  0  0
 26 52  1  0  0  0  0
 27 28  2  0  0  0  0
 27 53  1  0  0  0  0
 28 29  1  0  0  0  0
 28 54  1  0  0  0  0
 29 30  2  0  0  0  0
 29 55  1  0  0  0  0
 30 25  1  0  0  0  0
 30 31  1  0  0  0  0
M  END
>  <Mol_ID>
2638

>  <Formula>
C22H23ClFN5O3

>  <MolWeight>
459.9011232

>  <Cat>
S7971

>  <Name>
Zorifertinib (AZD3759)

>  <Synonyms>
N/A

>  <Target>
EGFR

>  <Form>
free base

>  <CAS>
1626387-80-1

>  <URL>
http://selleckchem.com/products/azd3759.html

$$$$
