AZD3839.cdx
 OpenBabel08302519553D

 48 52  0  0  0  0  0  0  0  0999 V2000
    2.1732    0.8528    0.1131 C   0  0  0  0  0  0  0  0  0  0  0  0
    2.2430   -0.5485    0.1984 C   0  0  0  0  0  0  0  0  0  0  0  0
    1.0755   -1.3213    0.2306 C   0  0  0  0  0  0  0  0  0  0  0  0
   -0.1522   -0.6728    0.1427 C   0  0  0  0  0  0  0  0  0  0  0  0
   -0.2001    0.7095    0.1003 C   0  0  0  0  0  0  0  0  0  0  0  0
    0.9351    1.4881    0.0807 C   0  0  0  0  0  0  0  0  0  0  0  0
   -1.5657   -1.2078   -0.0196 C   0  0  1  0  0  0  0  0  0  0  0  0
   -2.4191    0.0513   -0.0518 N   0  0  0  0  0  0  0  0  0  0  0  0
   -1.6081    1.0647    0.0376 C   0  0  0  0  0  0  0  0  0  0  0  0
   -2.0504    2.3468    0.0904 N   0  0  0  0  0  0  0  0  0  0  0  0
    0.8646    2.8220   -0.0162 F   0  0  0  0  0  0  0  0  0  0  0  0
   -1.7977   -1.9268   -1.3765 C   0  0  0  0  0  0  0  0  0  0  0  0
   -1.9564   -2.0761    1.2046 C   0  0  0  0  0  0  0  0  0  0  0  0
   -1.6850   -3.4512    1.2505 C   0  0  0  0  0  0  0  0  0  0  0  0
   -2.0783   -4.2131    2.3514 C   0  0  0  0  0  0  0  0  0  0  0  0
   -2.7503   -3.6191    3.4239 C   0  0  0  0  0  0  0  0  0  0  0  0
   -3.0313   -2.2442    3.4386 C   0  0  0  0  0  0  0  0  0  0  0  0
   -2.5964   -1.4949    2.3264 C   0  0  0  0  0  0  0  0  0  0  0  0
   -3.7854   -1.6145    4.5441 C   0  0  0  0  0  0  0  0  0  0  0  0
   -3.7748   -2.0736    5.8535 C   0  0  0  0  0  0  0  0  0  0  0  0
   -4.4796   -1.5351    6.8764 N   0  0  0  0  0  0  0  0  0  0  0  0
   -5.2355   -0.4733    6.5645 C   0  0  0  0  0  0  0  0  0  0  0  0
   -5.3388    0.0810    5.3517 N   0  0  0  0  0  0  0  0  0  0  0  0
   -4.6106   -0.5105    4.3744 C   0  0  0  0  0  0  0  0  0  0  0  0
   -3.0770   -2.4143   -1.7032 C   0  0  0  0  0  0  0  0  0  0  0  0
   -3.3013   -3.0338   -2.9376 C   0  0  0  0  0  0  0  0  0  0  0  0
   -2.3065   -3.2021   -3.8524 N   0  0  0  0  0  0  0  0  0  0  0  0
   -1.0913   -2.7139   -3.5438 C   0  0  0  0  0  0  0  0  0  0  0  0
   -0.7990   -2.0715   -2.3516 C   0  0  0  0  0  0  0  0  0  0  0  0
   -4.6842   -3.5076   -3.3064 C   0  0  0  0  0  0  0  0  0  0  0  0
   -5.1931   -4.4071   -2.4163 F   0  0  0  0  0  0  0  0  0  0  0  0
   -5.5915   -2.4901   -3.3645 F   0  0  0  0  0  0  0  0  0  0  0  0
    3.0819    1.4456    0.0633 H   0  0  0  0  0  0  0  0  0  0  0  0
    3.2147   -1.0387    0.2169 H   0  0  0  0  0  0  0  0  0  0  0  0
    1.1353   -2.4056    0.2681 H   0  0  0  0  0  0  0  0  0  0  0  0
   -1.4142    3.0967   -0.1578 H   0  0  0  0  0  0  0  0  0  0  0  0
   -3.0152    2.4843   -0.1885 H   0  0  0  0  0  0  0  0  0  0  0  0
   -1.1885   -3.9513    0.4224 H   0  0  0  0  0  0  0  0  0  0  0  0
   -1.8827   -5.2834    2.3671 H   0  0  0  0  0  0  0  0  0  0  0  0
   -3.0736   -4.2643    4.2393 H   0  0  0  0  0  0  0  0  0  0  0  0
   -2.7654   -0.4184    2.3157 H   0  0  0  0  0  0  0  0  0  0  0  0
   -3.1705   -2.9264    6.1509 H   0  0  0  0  0  0  0  0  0  0  0  0
   -5.8152   -0.0247    7.3634 H   0  0  0  0  0  0  0  0  0  0  0  0
   -4.7407   -0.0446    3.4002 H   0  0  0  0  0  0  0  0  0  0  0  0
   -3.9045   -2.2952   -1.0056 H   0  0  0  0  0  0  0  0  0  0  0  0
   -0.3271   -2.8426   -4.3067 H   0  0  0  0  0  0  0  0  0  0  0  0
    0.2052   -1.6852   -2.2253 H   0  0  0  0  0  0  0  0  0  0  0  0
   -4.6682   -3.9896   -4.2895 H   0  0  0  0  0  0  0  0  0  0  0  0
  1  2  2  0  0  0  0
  1 33  1  0  0  0  0
  2  3  1  0  0  0  0
  2 34  1  0  0  0  0
  3  4  2  0  0  0  0
  3 35  1  0  0  0  0
  4  5  1  0  0  0  0
  4  7  1  0  0  0  0
  5  6  2  0  0  0  0
  6  1  1  0  0  0  0
  6 11  1  0  0  0  0
  7  8  1  0  0  0  0
  7 13  1  1  0  0  0
  7 12  1  0  0  0  0
  8  9  2  0  0  0  0
  9  5  1  0  0  0  0
  9 10  1  0  0  0  0
 10 36  1  0  0  0  0
 10 37  1  0  0  0  0
 12 25  2  0  0  0  0
 13 14  2  0  0  0  0
 14 15  1  0  0  0  0
 14 38  1  0  0  0  0
 15 16  2  0  0  0  0
 15 39  1  0  0  0  0
 16 17  1  0  0  0  0
 16 40  1  0  0  0  0
 17 18  2  0  0  0  0
 17 19  1  0  0  0  0
 18 13  1  0  0  0  0
 18 41  1  0  0  0  0
 19 20  2  0  0  0  0
 20 21  1  0  0  0  0
 20 42  1  0  0  0  0
 21 22  2  0  0  0  0
 22 23  1  0  0  0  0
 22 43  1  0  0  0  0
 23 24  2  0  0  0  0
 24 19  1  0  0  0  0
 24 44  1  0  0  0  0
 25 26  1  0  0  0  0
 25 45  1  0  0  0  0
 26 27  2  0  0  0  0
 26 30  1  0  0  0  0
 27 28  1  0  0  0  0
 28 29  2  0  0  0  0
 28 46  1  0  0  0  0
 29 12  1  0  0  0  0
 29 47  1  0  0  0  0
 30 31  1  0  0  0  0
 30 32  1  0  0  0  0
 30 48  1  0  0  0  0
M  END
>  <Mol_ID>
2167

>  <Formula>
C24H16F3N5

>  <MolWeight>
431.4125496

>  <Cat>
S7731

>  <Name>
AZD3839

>  <Synonyms>
N/A

>  <Target>
BACE

>  <Form>
free base

>  <CAS>
1227163-84-9

>  <URL>
http://selleckchem.com/products/azd3839.html

$$$$
