AZD4573
 OpenBabel08302521343D

 58 61  0  0  0  0  0  0  0  0999 V2000
   -3.4806   -3.9513   -0.8735 C   0  0  0  0  0  0  0  0  0  0  0  0
   -2.4107   -6.2111   -0.7231 C   0  0  0  0  0  0  0  0  0  0  0  0
   -1.8158   -3.9875    6.4084 N   0  0  0  0  0  0  0  0  0  0  0  0
   -2.0069   -4.1559    7.7687 C   0  0  0  0  0  0  0  0  0  0  0  0
   -1.3235   -4.8632    8.5077 O   0  0  0  0  0  0  0  0  0  0  0  0
   -4.3578   -3.0698   11.9787 N   0  0  0  0  0  0  0  0  0  0  0  0
   -4.8282   -2.1718   12.9081 C   0  0  0  0  0  0  0  0  0  0  0  0
   -4.7944   -2.6717   14.3287 C   0  0  0  0  0  0  0  0  0  0  0  0
   -5.2337   -1.0492   12.6255 O   0  0  0  0  0  0  0  0  0  0  0  0
    0.4834   -4.6432    2.1442 C   0  0  0  0  0  0  0  0  0  0  0  0
   -0.5554   -4.5068    1.2596 C   0  0  0  0  0  0  0  0  0  0  0  0
    1.6350   -4.5384    1.2992 C   0  0  0  0  0  0  0  0  0  0  0  0
    0.0050   -4.3090    0.0426 N   0  0  0  0  0  0  0  0  0  0  0  0
   -2.0269   -4.5231    1.1476 C   0  0  0  0  0  0  0  0  0  0  0  0
    1.3300   -4.3360    0.0057 N   0  0  0  0  0  0  0  0  0  0  0  0
   -0.9397   -4.1710   -1.0516 C   0  0  0  0  0  0  0  0  0  0  0  0
   -2.2446   -4.7152   -0.3968 C   0  0  0  0  0  0  0  0  0  0  0  0
    0.3662   -4.8734    3.5711 C   0  0  0  0  0  0  0  0  0  0  0  0
   -0.6928   -4.3327    4.3155 C   0  0  0  0  0  0  0  0  0  0  0  0
    1.3319   -5.6300    4.2325 C   0  0  0  0  0  0  0  0  0  0  0  0
   -0.7561   -4.5683    5.6839 C   0  0  0  0  0  0  0  0  0  0  0  0
    1.1897   -5.8177    5.5916 C   0  0  0  0  0  0  0  0  0  0  0  0
    0.1732   -5.3054    6.3119 N   0  0  0  0  0  0  0  0  0  0  0  0
   -3.1604   -3.3258    8.3529 C   0  0  2  0  0  0  0  0  0  0  0  0
   -3.2175   -3.5547    9.8755 C   0  0  0  0  0  0  0  0  0  0  0  0
   -4.5214   -3.6517    7.7233 C   0  0  0  0  0  0  0  0  0  0  0  0
   -4.3408   -2.7733   10.5522 C   0  0  1  0  0  0  0  0  0  0  0  0
   -5.6523   -2.8684    8.3950 C   0  0  0  0  0  0  0  0  0  0  0  0
   -5.6913   -3.0966    9.9047 C   0  0  0  0  0  0  0  0  0  0  0  0
   -4.3758   -4.2859   -0.3374 H   0  0  0  0  0  0  0  0  0  0  0  0
   -3.6511   -4.1044   -1.9446 H   0  0  0  0  0  0  0  0  0  0  0  0
   -3.3743   -2.8748   -0.7022 H   0  0  0  0  0  0  0  0  0  0  0  0
   -3.2901   -6.6272   -0.2195 H   0  0  0  0  0  0  0  0  0  0  0  0
   -2.5377   -6.3660   -1.8004 H   0  0  0  0  0  0  0  0  0  0  0  0
   -1.5391   -6.7941   -0.4053 H   0  0  0  0  0  0  0  0  0  0  0  0
   -2.4531   -3.3998    5.8974 H   0  0  0  0  0  0  0  0  0  0  0  0
   -4.1329   -4.0113   12.2753 H   0  0  0  0  0  0  0  0  0  0  0  0
   -4.1276   -2.0342   14.9158 H   0  0  0  0  0  0  0  0  0  0  0  0
   -5.8049   -2.6304   14.7443 H   0  0  0  0  0  0  0  0  0  0  0  0
   -4.4351   -3.7024   14.3927 H   0  0  0  0  0  0  0  0  0  0  0  0
    2.6789   -4.5989    1.5800 H   0  0  0  0  0  0  0  0  0  0  0  0
   -2.4288   -3.5616    1.4872 H   0  0  0  0  0  0  0  0  0  0  0  0
   -2.4844   -5.3251    1.7346 H   0  0  0  0  0  0  0  0  0  0  0  0
   -0.5910   -4.7527   -1.9084 H   0  0  0  0  0  0  0  0  0  0  0  0
   -0.9908   -3.1042   -1.2907 H   0  0  0  0  0  0  0  0  0  0  0  0
   -1.4451   -3.7234    3.8290 H   0  0  0  0  0  0  0  0  0  0  0  0
    2.1728   -6.0781    3.7143 H   0  0  0  0  0  0  0  0  0  0  0  0
    1.9092   -6.3981    6.1619 H   0  0  0  0  0  0  0  0  0  0  0  0
   -2.9229   -2.2694    8.1689 H   0  0  0  0  0  0  0  0  0  0  0  0
   -3.3479   -4.6277   10.0800 H   0  0  0  0  0  0  0  0  0  0  0  0
   -2.2576   -3.2768   10.3306 H   0  0  0  0  0  0  0  0  0  0  0  0
   -4.5201   -3.4188    6.6525 H   0  0  0  0  0  0  0  0  0  0  0  0
   -4.7229   -4.7276    7.8052 H   0  0  0  0  0  0  0  0  0  0  0  0
   -4.1439   -1.7001   10.4345 H   0  0  0  0  0  0  0  0  0  0  0  0
   -6.6138   -3.1568    7.9550 H   0  0  0  0  0  0  0  0  0  0  0  0
   -5.5193   -1.7978    8.1948 H   0  0  0  0  0  0  0  0  0  0  0  0
   -5.9648   -4.1402   10.1088 H   0  0  0  0  0  0  0  0  0  0  0  0
   -6.4807   -2.4782   10.3490 H   0  0  0  0  0  0  0  0  0  0  0  0
  1 17  1  0  0  0  0
  1 30  1  0  0  0  0
  1 31  1  0  0  0  0
  1 32  1  0  0  0  0
  2 17  1  0  0  0  0
  2 33  1  0  0  0  0
  2 34  1  0  0  0  0
  2 35  1  0  0  0  0
  3  4  1  0  0  0  0
  3 21  1  0  0  0  0
  3 36  1  0  0  0  0
  4  5  2  0  0  0  0
  6  7  1  0  0  0  0
  6 37  1  0  0  0  0
  7  8  1  0  0  0  0
  7  9  2  0  0  0  0
  8 38  1  0  0  0  0
  8 39  1  0  0  0  0
  8 40  1  0  0  0  0
 10 11  2  0  0  0  0
 10 12  1  0  0  0  0
 10 18  1  0  0  0  0
 11 13  1  0  0  0  0
 11 14  1  0  0  0  0
 12 15  2  0  0  0  0
 12 41  1  0  0  0  0
 13 15  1  0  0  0  0
 13 16  1  0  0  0  0
 14 17  1  0  0  0  0
 14 42  1  0  0  0  0
 14 43  1  0  0  0  0
 16 17  1  0  0  0  0
 16 44  1  0  0  0  0
 16 45  1  0  0  0  0
 18 19  2  0  0  0  0
 18 20  1  0  0  0  0
 19 21  1  0  0  0  0
 19 46  1  0  0  0  0
 20 22  2  0  0  0  0
 20 47  1  0  0  0  0
 21 23  2  0  0  0  0
 22 23  1  0  0  0  0
 22 48  1  0  0  0  0
 24  4  1  0  0  0  0
 24 25  1  0  0  0  0
 24 26  1  0  0  0  0
 24 49  1  6  0  0  0
 25 27  1  0  0  0  0
 25 50  1  0  0  0  0
 25 51  1  0  0  0  0
 26 28  1  0  0  0  0
 26 52  1  0  0  0  0
 26 53  1  0  0  0  0
 27  6  1  0  0  0  0
 27 29  1  0  0  0  0
 27 54  1  6  0  0  0
 28 29  1  0  0  0  0
 28 55  1  0  0  0  0
 28 56  1  0  0  0  0
 29 57  1  0  0  0  0
 29 58  1  0  0  0  0
M  END
>  <Mol_ID>
6573

>  <Formula>
C22H28ClN5O2

>  <MolWeight>
429.94302

>  <Cat>
S8719

>  <Name>
AZD4573

>  <Synonyms>
N/A

>  <Target>
CDK

>  <Form>
free base

>  <CAS>
2057509-72-3

>  <URL>
http://www.selleckchem.com/products/azd4573.html

$$$$
