AZD4547.cdx
 OpenBabel08302521313D

 67 70  0  0  0  0  0  0  0  0999 V2000
   -4.7646    2.8941    2.3255 C   0  0  0  0  0  0  0  0  0  0  0  0
   -5.3062    2.1471    1.2771 C   0  0  0  0  0  0  0  0  0  0  0  0
   -4.5054    1.2513    0.5643 C   0  0  0  0  0  0  0  0  0  0  0  0
   -3.1545    1.1170    0.8985 C   0  0  0  0  0  0  0  0  0  0  0  0
   -2.5967    1.8631    1.9448 C   0  0  0  0  0  0  0  0  0  0  0  0
   -3.4228    2.7270    2.6732 C   0  0  0  0  0  0  0  0  0  0  0  0
   -4.9170    0.4729   -0.4846 O   0  0  0  0  0  0  0  0  0  0  0  0
   -6.2616    0.6404   -0.9194 C   0  0  0  0  0  0  0  0  0  0  0  0
   -5.4344    3.8290    3.0679 O   0  0  0  0  0  0  0  0  0  0  0  0
   -6.6908    4.2622    2.5599 C   0  0  0  0  0  0  0  0  0  0  0  0
   -1.1076    1.8436    2.1995 C   0  0  0  0  0  0  0  0  0  0  0  0
   -0.4512    3.0297    1.4819 C   0  0  0  0  0  0  0  0  0  0  0  0
    1.0327    3.0789    1.5964 C   0  0  0  0  0  0  0  0  0  0  0  0
    2.0073    2.1151    1.7386 C   0  0  0  0  0  0  0  0  0  0  0  0
    3.2440    2.7985    1.6009 C   0  0  0  0  0  0  0  0  0  0  0  0
    3.0462    4.1099    1.4797 N   0  0  0  0  0  0  0  0  0  0  0  0
    1.7202    4.2569    1.4741 N   0  0  0  0  0  0  0  0  0  0  0  0
    4.4619    2.1508    1.5590 N   0  0  0  0  0  0  0  0  0  0  0  0
    5.6736    2.7452    1.2681 C   0  0  0  0  0  0  0  0  0  0  0  0
    5.8987    3.9294    1.0524 O   0  0  0  0  0  0  0  0  0  0  0  0
    6.8130    1.7861    1.1375 C   0  0  0  0  0  0  0  0  0  0  0  0
    7.8300    2.0727    0.2232 C   0  0  0  0  0  0  0  0  0  0  0  0
    8.8764    1.1630    0.0156 C   0  0  0  0  0  0  0  0  0  0  0  0
    8.9334   -0.0611    0.6949 C   0  0  0  0  0  0  0  0  0  0  0  0
    7.9325   -0.2964    1.6525 C   0  0  0  0  0  0  0  0  0  0  0  0
    6.8873    0.6082    1.8812 C   0  0  0  0  0  0  0  0  0  0  0  0
    9.9119   -1.0027    0.4525 N   0  0  0  0  0  0  0  0  0  0  0  0
   11.2771   -0.6593    0.0272 C   0  0  0  0  0  0  0  0  0  0  0  0
   11.6603   -1.2927   -1.3390 C   0  0  1  0  0  0  0  0  0  0  0  0
   11.2620   -2.7104   -1.5131 N   0  0  0  0  0  0  0  0  0  0  0  0
    9.8824   -2.9907   -1.0474 C   0  0  1  0  0  0  0  0  0  0  0  0
    9.5669   -2.4274    0.3628 C   0  0  0  0  0  0  0  0  0  0  0  0
    8.8234   -2.5727   -2.0744 C   0  0  0  0  0  0  0  0  0  0  0  0
   11.2342   -0.4325   -2.5298 C   0  0  0  0  0  0  0  0  0  0  0  0
   -6.3490    2.2668    1.0169 H   0  0  0  0  0  0  0  0  0  0  0  0
   -2.5318    0.4419    0.3146 H   0  0  0  0  0  0  0  0  0  0  0  0
   -3.0127    3.3130    3.4933 H   0  0  0  0  0  0  0  0  0  0  0  0
   -6.9705    0.3895   -0.1232 H   0  0  0  0  0  0  0  0  0  0  0  0
   -6.4297    1.6568   -1.2919 H   0  0  0  0  0  0  0  0  0  0  0  0
   -6.4368   -0.0523   -1.7478 H   0  0  0  0  0  0  0  0  0  0  0  0
   -6.6344    4.5261    1.4978 H   0  0  0  0  0  0  0  0  0  0  0  0
   -7.4565    3.5002    2.7358 H   0  0  0  0  0  0  0  0  0  0  0  0
   -6.9793    5.1658    3.1054 H   0  0  0  0  0  0  0  0  0  0  0  0
   -0.9136    1.8858    3.2790 H   0  0  0  0  0  0  0  0  0  0  0  0
   -0.6874    0.8917    1.8509 H   0  0  0  0  0  0  0  0  0  0  0  0
   -0.7025    2.9938    0.4134 H   0  0  0  0  0  0  0  0  0  0  0  0
   -0.8741    3.9679    1.8653 H   0  0  0  0  0  0  0  0  0  0  0  0
    1.8516    1.0524    1.8527 H   0  0  0  0  0  0  0  0  0  0  0  0
    1.3467    5.1925    1.3490 H   0  0  0  0  0  0  0  0  0  0  0  0
    4.4094    1.1463    1.6033 H   0  0  0  0  0  0  0  0  0  0  0  0
    7.8017    2.9964   -0.3525 H   0  0  0  0  0  0  0  0  0  0  0  0
    9.6204    1.4164   -0.7341 H   0  0  0  0  0  0  0  0  0  0  0  0
    7.9737   -1.1949    2.2648 H   0  0  0  0  0  0  0  0  0  0  0  0
    6.1628    0.3808    2.6569 H   0  0  0  0  0  0  0  0  0  0  0  0
   11.4652    0.4199    0.0203 H   0  0  0  0  0  0  0  0  0  0  0  0
   11.9566   -1.0672    0.7879 H   0  0  0  0  0  0  0  0  0  0  0  0
   12.7596   -1.2924   -1.3762 H   0  0  0  0  0  0  0  0  0  0  0  0
   11.8842   -3.2624   -0.9198 H   0  0  0  0  0  0  0  0  0  0  0  0
    9.8090   -4.0835   -0.9800 H   0  0  0  0  0  0  0  0  0  0  0  0
   10.1625   -2.9707    1.1077 H   0  0  0  0  0  0  0  0  0  0  0  0
    8.5146   -2.6285    0.5936 H   0  0  0  0  0  0  0  0  0  0  0  0
    9.1442   -2.8046   -3.0957 H   0  0  0  0  0  0  0  0  0  0  0  0
    7.8918   -3.1203   -1.8944 H   0  0  0  0  0  0  0  0  0  0  0  0
    8.5791   -1.5090   -2.0217 H   0  0  0  0  0  0  0  0  0  0  0  0
   11.7578    0.5294   -2.5058 H   0  0  0  0  0  0  0  0  0  0  0  0
   11.4939   -0.9189   -3.4770 H   0  0  0  0  0  0  0  0  0  0  0  0
   10.1655   -0.2159   -2.5404 H   0  0  0  0  0  0  0  0  0  0  0  0
  1  2  2  0  0  0  0
  1  9  1  0  0  0  0
  2  3  1  0  0  0  0
  2 35  1  0  0  0  0
  3  4  2  0  0  0  0
  3  7  1  0  0  0  0
  4  5  1  0  0  0  0
  4 36  1  0  0  0  0
  5  6  2  0  0  0  0
  5 11  1  0  0  0  0
  6  1  1  0  0  0  0
  6 37  1  0  0  0  0
  7  8  1  0  0  0  0
  8 38  1  0  0  0  0
  8 39  1  0  0  0  0
  8 40  1  0  0  0  0
  9 10  1  0  0  0  0
 10 41  1  0  0  0  0
 10 42  1  0  0  0  0
 10 43  1  0  0  0  0
 11 12  1  0  0  0  0
 11 44  1  0  0  0  0
 11 45  1  0  0  0  0
 12 13  1  0  0  0  0
 12 46  1  0  0  0  0
 12 47  1  0  0  0  0
 13 14  2  0  0  0  0
 14 15  1  0  0  0  0
 14 48  1  0  0  0  0
 15 16  2  0  0  0  0
 15 18  1  0  0  0  0
 16 17  1  0  0  0  0
 17 13  1  0  0  0  0
 17 49  1  0  0  0  0
 18 19  1  0  0  0  0
 18 50  1  0  0  0  0
 19 20  2  0  0  0  0
 19 21  1  0  0  0  0
 21 22  2  0  0  0  0
 22 23  1  0  0  0  0
 22 51  1  0  0  0  0
 23 24  2  0  0  0  0
 23 52  1  0  0  0  0
 24 25  1  0  0  0  0
 24 27  1  0  0  0  0
 25 26  2  0  0  0  0
 25 53  1  0  0  0  0
 26 21  1  0  0  0  0
 26 54  1  0  0  0  0
 27 28  1  0  0  0  0
 28 29  1  0  0  0  0
 28 55  1  0  0  0  0
 28 56  1  0  0  0  0
 29 30  1  0  0  0  0
 29 34  1  0  0  0  0
 29 57  1  6  0  0  0
 30 31  1  0  0  0  0
 30 58  1  0  0  0  0
 31 32  1  0  0  0  0
 31 33  1  0  0  0  0
 31 59  1  1  0  0  0
 32 27  1  0  0  0  0
 32 60  1  0  0  0  0
 32 61  1  0  0  0  0
 33 62  1  0  0  0  0
 33 63  1  0  0  0  0
 33 64  1  0  0  0  0
 34 65  1  0  0  0  0
 34 66  1  0  0  0  0
 34 67  1  0  0  0  0
M  END
>  <Mol_ID>
581

>  <Formula>
C26H33N5O3

>  <MolWeight>
463.57192

>  <Cat>
S2801

>  <Name>
AZD4547

>  <Synonyms>
ABSK 091

>  <Target>
FGFR

>  <Form>
free base

>  <CAS>
1035270-39-3

>  <URL>
http://selleckchem.com/products/azd4547.html

$$$$
