AZD5069
 OpenBabel08302521223D

 53 55  0  0  0  0  0  0  0  0999 V2000
    3.0860   -1.5550   -0.4771 S   0  0  0  0  0  0  0  0  0  0  0  0
    6.5671    3.1291    0.4157 S   0  0  0  0  0  0  0  0  0  0  0  0
    5.9637    4.8234   -3.3815 F   0  0  0  0  0  0  0  0  0  0  0  0
    7.8938    6.2353   -4.6765 F   0  0  0  0  0  0  0  0  0  0  0  0
    4.1013   -1.6006   -1.5133 O   0  0  0  0  0  0  0  0  0  0  0  0
    3.2750   -2.1550    0.8181 O   0  0  0  0  0  0  0  0  0  0  0  0
    3.2747    2.0562    3.9599 O   0  0  0  0  0  0  0  0  0  0  0  0
    1.5876    4.3786    3.7611 O   0  0  0  0  0  0  0  0  0  0  0  0
    2.8137    6.1937    5.5044 O   0  0  0  0  0  0  0  0  0  0  0  0
    1.6594   -2.1716   -1.1306 N   0  0  0  0  0  0  0  0  0  0  0  0
    2.6325    0.0557   -0.2997 N   0  0  0  0  0  0  0  0  0  0  0  0
    4.4537    1.4394    0.0986 N   0  0  0  0  0  0  0  0  0  0  0  0
    4.8104    2.4175    2.2298 N   0  0  0  0  0  0  0  0  0  0  0  0
   -0.0335   -3.4966   -1.1274 C   0  0  0  0  0  0  0  0  0  0  0  0
    0.3414   -2.1841   -0.4197 C   0  0  0  0  0  0  0  0  0  0  0  0
    1.4692   -3.6345   -1.4207 C   0  0  0  0  0  0  0  0  0  0  0  0
    3.4157    0.7800    0.6377 C   0  0  0  0  0  0  0  0  0  0  0  0
    3.7197    3.3378    4.4826 C   0  0  1  0  0  0  0  0  0  0  0  0
    3.0189    4.5059    3.7287 C   0  0  2  0  0  0  0  0  0  0  0  0
    3.0294    0.8573    1.9545 C   0  0  0  0  0  0  0  0  0  0  0  0
    3.7468    1.7547    2.6992 C   0  0  0  0  0  0  0  0  0  0  0  0
    3.4632    3.3025    5.9896 C   0  0  0  0  0  0  0  0  0  0  0  0
    3.3767    5.9114    4.2276 C   0  0  0  0  0  0  0  0  0  0  0  0
    5.1446    2.2131    0.9505 C   0  0  0  0  0  0  0  0  0  0  0  0
    6.5045    2.8891   -1.3841 C   0  0  0  0  0  0  0  0  0  0  0  0
    7.5889    3.6683   -2.0983 C   0  0  0  0  0  0  0  0  0  0  0  0
    7.2539    4.6120   -3.0748 C   0  0  0  0  0  0  0  0  0  0  0  0
    8.9539    3.4534   -1.8308 C   0  0  0  0  0  0  0  0  0  0  0  0
    8.2372    5.3371   -3.7411 C   0  0  0  0  0  0  0  0  0  0  0  0
    9.9421    4.1937   -2.4957 C   0  0  0  0  0  0  0  0  0  0  0  0
    9.5815    5.1422   -3.4513 C   0  0  0  0  0  0  0  0  0  0  0  0
    1.3524    3.7684    3.0357 H   0  0  0  0  0  0  0  0  0  0  0  0
    1.8658    5.9694    5.4270 H   0  0  0  0  0  0  0  0  0  0  0  0
    2.7365    0.4795   -1.2179 H   0  0  0  0  0  0  0  0  0  0  0  0
   -0.4654   -4.2705   -0.4884 H   0  0  0  0  0  0  0  0  0  0  0  0
   -0.6556   -3.3679   -2.0185 H   0  0  0  0  0  0  0  0  0  0  0  0
    0.4488   -2.2707    0.6648 H   0  0  0  0  0  0  0  0  0  0  0  0
   -0.2877   -1.3256   -0.6670 H   0  0  0  0  0  0  0  0  0  0  0  0
    1.7216   -3.9142   -2.4462 H   0  0  0  0  0  0  0  0  0  0  0  0
    2.0050   -4.2766   -0.7155 H   0  0  0  0  0  0  0  0  0  0  0  0
    4.8081    3.4327    4.3691 H   0  0  0  0  0  0  0  0  0  0  0  0
    3.3055    4.4681    2.6720 H   0  0  0  0  0  0  0  0  0  0  0  0
    2.1754    0.3275    2.3477 H   0  0  0  0  0  0  0  0  0  0  0  0
    4.0100    2.4660    6.4402 H   0  0  0  0  0  0  0  0  0  0  0  0
    3.8152    4.2113    6.4849 H   0  0  0  0  0  0  0  0  0  0  0  0
    2.4049    3.1505    6.2232 H   0  0  0  0  0  0  0  0  0  0  0  0
    4.4607    6.0502    4.2759 H   0  0  0  0  0  0  0  0  0  0  0  0
    2.9641    6.6575    3.5401 H   0  0  0  0  0  0  0  0  0  0  0  0
    6.6153    1.8269   -1.6255 H   0  0  0  0  0  0  0  0  0  0  0  0
    5.5183    3.2133   -1.7333 H   0  0  0  0  0  0  0  0  0  0  0  0
    9.2617    2.7142   -1.0930 H   0  0  0  0  0  0  0  0  0  0  0  0
   10.9930    4.0287   -2.2637 H   0  0  0  0  0  0  0  0  0  0  0  0
   10.3366    5.7233   -3.9713 H   0  0  0  0  0  0  0  0  0  0  0  0
  1  5  2  0  0  0  0
  1  6  2  0  0  0  0
  1 10  1  0  0  0  0
  1 11  1  0  0  0  0
  2 24  1  0  0  0  0
  2 25  1  0  0  0  0
  3 27  1  0  0  0  0
  4 29  1  0  0  0  0
  7 21  1  0  0  0  0
  8 32  1  0  0  0  0
  9 23  1  0  0  0  0
  9 33  1  0  0  0  0
 10 15  1  0  0  0  0
 10 16  1  0  0  0  0
 11 17  1  0  0  0  0
 11 34  1  0  0  0  0
 12 17  2  0  0  0  0
 12 24  1  0  0  0  0
 13 21  1  0  0  0  0
 13 24  2  0  0  0  0
 14 15  1  0  0  0  0
 14 16  1  0  0  0  0
 14 35  1  0  0  0  0
 14 36  1  0  0  0  0
 15 37  1  0  0  0  0
 15 38  1  0  0  0  0
 16 39  1  0  0  0  0
 16 40  1  0  0  0  0
 17 20  1  0  0  0  0
 18  7  1  0  0  0  0
 18 19  1  0  0  0  0
 18 22  1  0  0  0  0
 18 41  1  6  0  0  0
 19  8  1  0  0  0  0
 19 23  1  0  0  0  0
 19 42  1  6  0  0  0
 20 21  2  0  0  0  0
 20 43  1  0  0  0  0
 22 44  1  0  0  0  0
 22 45  1  0  0  0  0
 22 46  1  0  0  0  0
 23 47  1  0  0  0  0
 23 48  1  0  0  0  0
 25 26  1  0  0  0  0
 25 49  1  0  0  0  0
 25 50  1  0  0  0  0
 26 27  2  0  0  0  0
 26 28  1  0  0  0  0
 27 29  1  0  0  0  0
 28 30  2  0  0  0  0
 28 51  1  0  0  0  0
 29 31  2  0  0  0  0
 30 31  1  0  0  0  0
 30 52  1  0  0  0  0
 31 53  1  0  0  0  0
M  END
>  <Mol_ID>
4758

>  <Formula>
C18H22F2N4O5S2

>  <MolWeight>
476.5178864

>  <Cat>
S6645

>  <Name>
AZD5069

>  <Synonyms>
N/A

>  <Target>
CXCR

>  <Form>
Free Base

>  <CAS>
878385-84-3

>  <URL>
http://www.selleck.cn/products/azd-5069.html

$$$$
