AZD5438.cdx
 OpenBabel08302521403D

 47 49  0  0  0  0  0  0  0  0999 V2000
   -3.9438    1.0178    1.8502 C   0  0  0  0  0  0  0  0  0  0  0  0
   -4.6778    2.1371    2.2501 C   0  0  0  0  0  0  0  0  0  0  0  0
   -4.2714    3.4215    1.8980 C   0  0  0  0  0  0  0  0  0  0  0  0
   -3.0824    3.5874    1.1956 C   0  0  0  0  0  0  0  0  0  0  0  0
   -2.2816    2.4861    0.8614 C   0  0  0  0  0  0  0  0  0  0  0  0
   -2.7508    1.1967    1.1415 C   0  0  0  0  0  0  0  0  0  0  0  0
   -1.0525    2.6568    0.1987 N   0  0  0  0  0  0  0  0  0  0  0  0
   -0.1947    3.7438    0.4162 C   0  0  0  0  0  0  0  0  0  0  0  0
   -0.1466    4.3201    1.6284 N   0  0  0  0  0  0  0  0  0  0  0  0
    0.7009    5.3457    1.7945 C   0  0  0  0  0  0  0  0  0  0  0  0
    1.5314    5.7946    0.8049 C   0  0  0  0  0  0  0  0  0  0  0  0
    1.4308    5.1363   -0.4017 C   0  0  0  0  0  0  0  0  0  0  0  0
    0.5498    4.1422   -0.6178 N   0  0  0  0  0  0  0  0  0  0  0  0
   -6.1613    1.9465    3.2035 S   0  0  0  0  0  0  0  0  0  0  0  0
   -6.6652    0.6039    2.9700 O   0  0  0  0  0  0  0  0  0  0  0  0
   -5.5798    2.0395    4.8772 C   0  0  0  0  0  0  0  0  0  0  0  0
   -6.9940    3.1065    2.9510 O   0  0  0  0  0  0  0  0  0  0  0  0
    2.2767    5.4948   -1.5405 C   0  0  0  0  0  0  0  0  0  0  0  0
    2.8324    6.7257   -1.8416 C   0  0  0  0  0  0  0  0  0  0  0  0
    3.5740    6.6839   -2.9802 N   0  0  0  0  0  0  0  0  0  0  0  0
    3.4982    5.4441   -3.4176 C   0  0  0  0  0  0  0  0  0  0  0  0
    2.7336    4.6630   -2.5616 N   0  0  0  0  0  0  0  0  0  0  0  0
    4.1596    5.0040   -4.6744 C   0  0  0  0  0  0  0  0  0  0  0  0
    2.4812    3.2266   -2.6856 C   0  0  0  0  0  0  0  0  0  0  0  0
    1.6530    2.8738   -3.9220 C   0  0  0  0  0  0  0  0  0  0  0  0
    3.7378    2.3738   -2.5072 C   0  0  0  0  0  0  0  0  0  0  0  0
   -4.2782    0.0117    2.0958 H   0  0  0  0  0  0  0  0  0  0  0  0
   -4.8535    4.2978    2.1711 H   0  0  0  0  0  0  0  0  0  0  0  0
   -2.7665    4.5953    0.9341 H   0  0  0  0  0  0  0  0  0  0  0  0
   -2.1617    0.3276    0.8539 H   0  0  0  0  0  0  0  0  0  0  0  0
   -1.1140    2.5190   -0.8033 H   0  0  0  0  0  0  0  0  0  0  0  0
    0.6916    5.7980    2.7807 H   0  0  0  0  0  0  0  0  0  0  0  0
    2.2252    6.6040    0.9815 H   0  0  0  0  0  0  0  0  0  0  0  0
   -5.0700    2.9935    5.0282 H   0  0  0  0  0  0  0  0  0  0  0  0
   -6.4457    1.9756    5.5390 H   0  0  0  0  0  0  0  0  0  0  0  0
   -4.9036    1.2044    5.0668 H   0  0  0  0  0  0  0  0  0  0  0  0
    2.7264    7.6523   -1.2920 H   0  0  0  0  0  0  0  0  0  0  0  0
    3.7250    5.5430   -5.5230 H   0  0  0  0  0  0  0  0  0  0  0  0
    5.2264    5.2444   -4.6331 H   0  0  0  0  0  0  0  0  0  0  0  0
    4.0773    3.9393   -4.8813 H   0  0  0  0  0  0  0  0  0  0  0  0
    1.8649    2.9239   -1.8434 H   0  0  0  0  0  0  0  0  0  0  0  0
    2.1812    3.0540   -4.8599 H   0  0  0  0  0  0  0  0  0  0  0  0
    1.3696    1.8166   -3.9047 H   0  0  0  0  0  0  0  0  0  0  0  0
    0.7309    3.4664   -3.9473 H   0  0  0  0  0  0  0  0  0  0  0  0
    4.2087    2.5938   -1.5412 H   0  0  0  0  0  0  0  0  0  0  0  0
    3.4760    1.3099   -2.5085 H   0  0  0  0  0  0  0  0  0  0  0  0
    4.4852    2.5369   -3.2841 H   0  0  0  0  0  0  0  0  0  0  0  0
  1  2  2  0  0  0  0
  1 27  1  0  0  0  0
  2  3  1  0  0  0  0
  2 14  1  0  0  0  0
  3  4  2  0  0  0  0
  3 28  1  0  0  0  0
  4  5  1  0  0  0  0
  4 29  1  0  0  0  0
  5  6  2  0  0  0  0
  5  7  1  0  0  0  0
  6  1  1  0  0  0  0
  6 30  1  0  0  0  0
  7  8  1  0  0  0  0
  7 31  1  0  0  0  0
  8  9  2  0  0  0  0
  9 10  1  0  0  0  0
 10 11  2  0  0  0  0
 10 32  1  0  0  0  0
 11 12  1  0  0  0  0
 11 33  1  0  0  0  0
 12 13  2  0  0  0  0
 12 18  1  0  0  0  0
 13  8  1  0  0  0  0
 14 15  2  0  0  0  0
 14 16  1  0  0  0  0
 14 17  2  0  0  0  0
 16 34  1  0  0  0  0
 16 35  1  0  0  0  0
 16 36  1  0  0  0  0
 18 19  2  0  0  0  0
 19 20  1  0  0  0  0
 19 37  1  0  0  0  0
 20 21  2  0  0  0  0
 21 22  1  0  0  0  0
 21 23  1  0  0  0  0
 22 18  1  0  0  0  0
 22 24  1  0  0  0  0
 23 38  1  0  0  0  0
 23 39  1  0  0  0  0
 23 40  1  0  0  0  0
 24 25  1  0  0  0  0
 24 26  1  0  0  0  0
 24 41  1  0  0  0  0
 25 42  1  0  0  0  0
 25 43  1  0  0  0  0
 25 44  1  0  0  0  0
 26 45  1  0  0  0  0
 26 46  1  0  0  0  0
 26 47  1  0  0  0  0
M  END
>  <Mol_ID>
808

>  <Formula>
C18H21N5O2S

>  <MolWeight>
371.45664

>  <Cat>
S2621

>  <Name>
AZD5438

>  <Synonyms>
N/A

>  <Target>
CDK

>  <Form>
free base

>  <CAS>
602306-29-6

>  <URL>
http://selleckchem.com/products/AZD5438.html

$$$$
