AZD5363.cdx
 OpenBabel08302520403D

 55 58  0  0  0  0  0  0  0  0999 V2000
    0.6179    1.1554   -0.4629 N   0  0  0  0  0  0  0  0  0  0  0  0
    1.4476    0.1282    0.1605 C   0  0  0  0  0  0  0  0  0  0  0  0
    0.7534   -1.2092   -0.1001 C   0  0  0  0  0  0  0  0  0  0  0  0
   -0.7318   -1.2166    0.3326 C   0  0  0  0  0  0  0  0  0  0  0  0
   -1.4812    0.0750   -0.0690 C   0  0  0  0  0  0  0  0  0  0  0  0
   -0.6641    1.3350    0.2121 C   0  0  0  0  0  0  0  0  0  0  0  0
   -1.4691   -2.4505   -0.2935 C   0  0  0  0  0  0  0  0  0  0  0  0
   -2.0302   -3.2834    0.4225 O   0  0  0  0  0  0  0  0  0  0  0  0
   -1.4698   -2.5328   -1.6686 N   0  0  0  0  0  0  0  0  0  0  0  0
    3.1999    3.5489   -1.2339 C   0  0  0  0  0  0  0  0  0  0  0  0
    2.7515    4.3661   -2.1998 N   0  0  0  0  0  0  0  0  0  0  0  0
    1.4845    4.0760   -2.5242 C   0  0  0  0  0  0  0  0  0  0  0  0
    0.6806    3.0918   -1.9689 C   0  0  0  0  0  0  0  0  0  0  0  0
    1.2580    2.2773   -0.9678 C   0  0  0  0  0  0  0  0  0  0  0  0
    2.5473    2.5391   -0.6249 N   0  0  0  0  0  0  0  0  0  0  0  0
    0.7765    4.7065   -3.5107 N   0  0  0  0  0  0  0  0  0  0  0  0
   -0.5629    3.1527   -2.6683 C   0  0  0  0  0  0  0  0  0  0  0  0
   -0.4769    4.1600   -3.6059 C   0  0  0  0  0  0  0  0  0  0  0  0
   -2.0807   -3.6424   -2.4026 C   0  0  1  0  0  0  0  0  0  0  0  0
   -3.1934   -3.1077   -3.3317 C   0  0  0  0  0  0  0  0  0  0  0  0
   -2.7102   -2.1441   -4.4119 C   0  0  0  0  0  0  0  0  0  0  0  0
   -1.0601   -4.5232   -3.1237 C   0  0  0  0  0  0  0  0  0  0  0  0
    0.3254   -4.3444   -2.9826 C   0  0  0  0  0  0  0  0  0  0  0  0
    1.2331   -5.1699   -3.6533 C   0  0  0  0  0  0  0  0  0  0  0  0
    0.7750   -6.2014   -4.4668 C   0  0  0  0  0  0  0  0  0  0  0  0
   -0.5916   -6.4226   -4.5931 C   0  0  0  0  0  0  0  0  0  0  0  0
   -1.4984   -5.5996   -3.9195 C   0  0  0  0  0  0  0  0  0  0  0  0
   -0.7819   -1.3507    1.8160 N   0  0  0  0  0  0  0  0  0  0  0  0
   -3.8176   -1.6852   -5.1824 O   0  0  0  0  0  0  0  0  0  0  0  0
    2.4485    0.0761   -0.2856 H   0  0  0  0  0  0  0  0  0  0  0  0
    1.5728    0.3147    1.2344 H   0  0  0  0  0  0  0  0  0  0  0  0
    0.8374   -1.4145   -1.1739 H   0  0  0  0  0  0  0  0  0  0  0  0
    1.3088   -2.0172    0.3945 H   0  0  0  0  0  0  0  0  0  0  0  0
   -1.7193    0.0535   -1.1387 H   0  0  0  0  0  0  0  0  0  0  0  0
   -2.4499    0.1370    0.4437 H   0  0  0  0  0  0  0  0  0  0  0  0
   -0.5175    1.4739    1.2904 H   0  0  0  0  0  0  0  0  0  0  0  0
   -1.2204    2.2103   -0.1368 H   0  0  0  0  0  0  0  0  0  0  0  0
   -0.9613   -1.8385   -2.2042 H   0  0  0  0  0  0  0  0  0  0  0  0
    4.2233    3.7121   -0.9103 H   0  0  0  0  0  0  0  0  0  0  0  0
    1.1547    5.4440   -4.0871 H   0  0  0  0  0  0  0  0  0  0  0  0
   -1.4230    2.5162   -2.5100 H   0  0  0  0  0  0  0  0  0  0  0  0
   -1.1881    4.5201   -4.3374 H   0  0  0  0  0  0  0  0  0  0  0  0
   -2.5692   -4.2978   -1.6709 H   0  0  0  0  0  0  0  0  0  0  0  0
   -3.7272   -3.9357   -3.8152 H   0  0  0  0  0  0  0  0  0  0  0  0
   -3.9573   -2.5981   -2.7297 H   0  0  0  0  0  0  0  0  0  0  0  0
   -2.2414   -1.2590   -3.9725 H   0  0  0  0  0  0  0  0  0  0  0  0
   -1.9901   -2.6134   -5.0888 H   0  0  0  0  0  0  0  0  0  0  0  0
    0.7293   -3.5696   -2.3381 H   0  0  0  0  0  0  0  0  0  0  0  0
    2.3017   -5.0107   -3.5316 H   0  0  0  0  0  0  0  0  0  0  0  0
    1.4825   -6.8406   -4.9886 H   0  0  0  0  0  0  0  0  0  0  0  0
   -0.9541   -7.2417   -5.2094 H   0  0  0  0  0  0  0  0  0  0  0  0
   -2.5585   -5.8233   -4.0186 H   0  0  0  0  0  0  0  0  0  0  0  0
   -1.7666   -1.4600    2.0791 H   0  0  0  0  0  0  0  0  0  0  0  0
   -0.3914   -2.2682    2.0544 H   0  0  0  0  0  0  0  0  0  0  0  0
   -4.3759   -2.4507   -5.4011 H   0  0  0  0  0  0  0  0  0  0  0  0
  1  2  1  0  0  0  0
  1  6  1  0  0  0  0
  1 14  1  0  0  0  0
  2  3  1  0  0  0  0
  2 30  1  0  0  0  0
  2 31  1  0  0  0  0
  3  4  1  0  0  0  0
  3 32  1  0  0  0  0
  3 33  1  0  0  0  0
  4  5  1  0  0  0  0
  4  7  1  0  0  0  0
  4 28  1  0  0  0  0
  5  6  1  0  0  0  0
  5 34  1  0  0  0  0
  5 35  1  0  0  0  0
  6 36  1  0  0  0  0
  6 37  1  0  0  0  0
  7  8  2  0  0  0  0
  7  9  1  0  0  0  0
  9 19  1  0  0  0  0
  9 38  1  0  0  0  0
 10 11  2  0  0  0  0
 10 15  1  0  0  0  0
 10 39  1  0  0  0  0
 11 12  1  0  0  0  0
 12 13  2  0  0  0  0
 12 16  1  0  0  0  0
 13 14  1  0  0  0  0
 13 17  1  0  0  0  0
 14 15  2  0  0  0  0
 16 18  1  0  0  0  0
 16 40  1  0  0  0  0
 17 18  2  0  0  0  0
 17 41  1  0  0  0  0
 18 42  1  0  0  0  0
 19 20  1  0  0  0  0
 19 22  1  0  0  0  0
 19 43  1  1  0  0  0
 20 21  1  0  0  0  0
 20 44  1  0  0  0  0
 20 45  1  0  0  0  0
 21 29  1  0  0  0  0
 21 46  1  0  0  0  0
 21 47  1  0  0  0  0
 22 23  2  0  0  0  0
 22 27  1  0  0  0  0
 23 24  1  0  0  0  0
 23 48  1  0  0  0  0
 24 25  2  0  0  0  0
 24 49  1  0  0  0  0
 25 26  1  0  0  0  0
 25 50  1  0  0  0  0
 26 27  2  0  0  0  0
 26 51  1  0  0  0  0
 27 52  1  0  0  0  0
 28 53  1  0  0  0  0
 28 54  1  0  0  0  0
 29 55  1  0  0  0  0
M  END
>  <Mol_ID>
3871

>  <Formula>
C21H25ClN6O2

>  <MolWeight>
428.9152

>  <Cat>
S8019

>  <Name>
Capivasertib (AZD5363)

>  <Synonyms>
N/A

>  <Target>
Akt

>  <Form>
free base

>  <CAS>
1143532-39-1

>  <URL>
http://selleckchem.com/products/azd5363.html

$$$$
