azd6244.cdx
 OpenBabel08302521323D

 42 44  0  0  0  0  0  0  0  0999 V2000
   -0.8648    1.4188    0.3284 C   0  0  0  0  0  0  0  0  0  0  0  0
    0.3570    0.7593    0.1370 C   0  0  0  0  0  0  0  0  0  0  0  0
    0.4420   -0.6222   -0.0135 C   0  0  0  0  0  0  0  0  0  0  0  0
   -0.7411   -1.3741   -0.0375 C   0  0  0  0  0  0  0  0  0  0  0  0
   -2.0046   -0.7404    0.0242 C   0  0  0  0  0  0  0  0  0  0  0  0
   -2.0483    0.6473    0.2871 C   0  0  0  0  0  0  0  0  0  0  0  0
   -3.2082   -1.5082   -0.0921 N   0  0  0  0  0  0  0  0  0  0  0  0
   -3.3841   -2.6075   -0.9702 C   0  0  0  0  0  0  0  0  0  0  0  0
   -4.3114   -3.6096   -0.6656 C   0  0  0  0  0  0  0  0  0  0  0  0
   -4.4598   -4.7169   -1.5081 C   0  0  0  0  0  0  0  0  0  0  0  0
   -3.6994   -4.8080   -2.6739 C   0  0  0  0  0  0  0  0  0  0  0  0
   -2.8366   -3.7803   -3.0305 C   0  0  0  0  0  0  0  0  0  0  0  0
   -2.7051   -2.6717   -2.1963 C   0  0  0  0  0  0  0  0  0  0  0  0
   -3.8307   -6.3396   -3.7716 Br  0  0  0  0  0  0  0  0  0  0  0  0
   -0.6622   -2.7110   -0.1430 F   0  0  0  0  0  0  0  0  0  0  0  0
    1.6648    1.1803    0.0574 N   0  0  0  0  0  0  0  0  0  0  0  0
    2.4575    0.0755   -0.0835 C   0  0  0  0  0  0  0  0  0  0  0  0
    1.7520   -1.0252   -0.1267 N   0  0  0  0  0  0  0  0  0  0  0  0
    2.1538    2.5339    0.0646 C   0  0  0  0  0  0  0  0  0  0  0  0
   -3.3252    1.3736    0.5738 C   0  0  0  0  0  0  0  0  0  0  0  0
   -4.4747    0.7559    0.1542 N   0  0  0  0  0  0  0  0  0  0  0  0
   -3.3069    2.4282    1.2038 O   0  0  0  0  0  0  0  0  0  0  0  0
   -5.6921    1.4164    0.4096 O   0  0  0  0  0  0  0  0  0  0  0  0
   -6.3817    0.7217    1.4609 C   0  0  0  0  0  0  0  0  0  0  0  0
   -5.7209    0.9317    2.8240 C   0  0  0  0  0  0  0  0  0  0  0  0
   -5.5818    2.3183    3.1119 O   0  0  0  0  0  0  0  0  0  0  0  0
   -0.9084    2.4917    0.4987 H   0  0  0  0  0  0  0  0  0  0  0  0
   -3.5757   -1.7149    0.8378 H   0  0  0  0  0  0  0  0  0  0  0  0
   -4.9061   -3.5610    0.2425 H   0  0  0  0  0  0  0  0  0  0  0  0
   -5.1540   -5.5078   -1.2392 H   0  0  0  0  0  0  0  0  0  0  0  0
   -2.2395   -3.8341   -3.9393 H   0  0  0  0  0  0  0  0  0  0  0  0
   -2.0253   -1.8795   -2.4977 H   0  0  0  0  0  0  0  0  0  0  0  0
    3.5372    0.1340   -0.1583 H   0  0  0  0  0  0  0  0  0  0  0  0
    2.7556    2.6760    0.9654 H   0  0  0  0  0  0  0  0  0  0  0  0
    2.7657    2.6817   -0.8293 H   0  0  0  0  0  0  0  0  0  0  0  0
    1.3194    3.2375    0.0538 H   0  0  0  0  0  0  0  0  0  0  0  0
   -4.4646    0.0546   -0.5828 H   0  0  0  0  0  0  0  0  0  0  0  0
   -7.3985    1.1261    1.4818 H   0  0  0  0  0  0  0  0  0  0  0  0
   -6.4511   -0.3466    1.2210 H   0  0  0  0  0  0  0  0  0  0  0  0
   -6.3241    0.4725    3.6125 H   0  0  0  0  0  0  0  0  0  0  0  0
   -4.7241    0.4804    2.8632 H   0  0  0  0  0  0  0  0  0  0  0  0
   -4.9825    2.6724    2.4171 H   0  0  0  0  0  0  0  0  0  0  0  0
  1  2  2  0  0  0  0
  1 27  1  0  0  0  0
  2  3  1  0  0  0  0
  2 16  1  0  0  0  0
  3  4  2  0  0  0  0
  4  5  1  0  0  0  0
  4 15  1  0  0  0  0
  5  6  2  0  0  0  0
  5  7  1  0  0  0  0
  6  1  1  0  0  0  0
  6 20  1  0  0  0  0
  7  8  1  0  0  0  0
  7 28  1  0  0  0  0
  8  9  2  0  0  0  0
  9 10  1  0  0  0  0
  9 29  1  0  0  0  0
 10 11  2  0  0  0  0
 10 30  1  0  0  0  0
 11 12  1  0  0  0  0
 11 14  1  0  0  0  0
 12 13  2  0  0  0  0
 12 31  1  0  0  0  0
 13  8  1  0  0  0  0
 13 32  1  0  0  0  0
 16 17  1  0  0  0  0
 16 19  1  0  0  0  0
 17 18  2  0  0  0  0
 17 33  1  0  0  0  0
 18  3  1  0  0  0  0
 19 34  1  0  0  0  0
 19 35  1  0  0  0  0
 19 36  1  0  0  0  0
 20 21  1  0  0  0  0
 20 22  2  0  0  0  0
 21 23  1  0  0  0  0
 21 37  1  0  0  0  0
 23 24  1  0  0  0  0
 24 25  1  0  0  0  0
 24 38  1  0  0  0  0
 24 39  1  0  0  0  0
 25 26  1  0  0  0  0
 25 40  1  0  0  0  0
 25 41  1  0  0  0  0
 26 42  1  0  0  0  0
M  END
>  <Mol_ID>
6

>  <Formula>
C17H15BrClFN4O3

>  <MolWeight>
457.6814032

>  <Cat>
S1008

>  <Name>
Selumetinib (AZD6244)

>  <Synonyms>
ARRY-142886

>  <Target>
Apoptosis related,MEK

>  <Form>
free base

>  <CAS>
606143-52-6

>  <URL>
http://selleckchem.com/products/AZD6244.html

$$$$
