AZD7545.cdx
 OpenBabel08302519583D

 49 50  0  0  0  0  0  0  0  0999 V2000
    5.6040   11.4927    8.2923 C   0  0  0  0  0  0  0  0  0  0  0  0
    5.1852   11.3789    9.6331 C   0  0  0  0  0  0  0  0  0  0  0  0
    4.9229   10.1083   10.1506 C   0  0  0  0  0  0  0  0  0  0  0  0
    4.9844    8.9777    9.3228 C   0  0  0  0  0  0  0  0  0  0  0  0
    5.3385    9.1223    7.9758 C   0  0  0  0  0  0  0  0  0  0  0  0
    5.6898   10.3695    7.4650 C   0  0  0  0  0  0  0  0  0  0  0  0
    5.1653   12.6407   10.4310 C   0  0  0  0  0  0  0  0  0  0  0  0
    4.2370   12.8686   11.4608 N   0  0  0  0  0  0  0  0  0  0  0  0
    5.9914   13.4952   10.1168 O   0  0  0  0  0  0  0  0  0  0  0  0
    4.2888   14.1566   12.1446 C   0  0  0  0  0  0  0  0  0  0  0  0
    3.1343   12.0048   11.8461 C   0  0  0  0  0  0  0  0  0  0  0  0
    5.2955    7.7115    6.8990 S   0  0  0  0  0  0  0  0  0  0  0  0
    3.6175    7.6750    6.2938 C   0  0  0  0  0  0  0  0  0  0  0  0
    3.3059    8.1468    5.0189 C   0  0  0  0  0  0  0  0  0  0  0  0
    1.9756    8.1227    4.5700 C   0  0  0  0  0  0  0  0  0  0  0  0
    0.9493    7.6279    5.3833 C   0  0  0  0  0  0  0  0  0  0  0  0
    1.2810    7.1846    6.6755 C   0  0  0  0  0  0  0  0  0  0  0  0
    2.6052    7.1916    7.1229 C   0  0  0  0  0  0  0  0  0  0  0  0
    6.1740    7.9835    5.7761 O   0  0  0  0  0  0  0  0  0  0  0  0
    5.4828    6.5240    7.7201 O   0  0  0  0  0  0  0  0  0  0  0  0
   -0.4118    7.5088    4.9889 N   0  0  0  0  0  0  0  0  0  0  0  0
   -0.9320    7.6709    3.7104 C   0  0  0  0  0  0  0  0  0  0  0  0
   -2.4446    7.3343    3.5214 C   0  0  2  0  0  0  0  0  0  0  0  0
   -0.2785    8.0289    2.7317 O   0  0  0  0  0  0  0  0  0  0  0  0
   -2.6155    5.8083    3.6872 C   0  0  0  0  0  0  0  0  0  0  0  0
   -1.5039    5.1895    4.1424 F   0  0  0  0  0  0  0  0  0  0  0  0
   -3.6063    5.4934    4.5535 F   0  0  0  0  0  0  0  0  0  0  0  0
   -2.9223    5.2273    2.5017 F   0  0  0  0  0  0  0  0  0  0  0  0
   -2.8858    7.7477    2.2039 O   0  0  0  0  0  0  0  0  0  0  0  0
   -3.3394    8.1300    4.4780 C   0  0  0  0  0  0  0  0  0  0  0  0
    5.8755   12.4645    7.8874 H   0  0  0  0  0  0  0  0  0  0  0  0
    4.7026    9.9546   11.1987 H   0  0  0  0  0  0  0  0  0  0  0  0
    4.7635    7.9985    9.7371 H   0  0  0  0  0  0  0  0  0  0  0  0
    6.0191   10.4834    6.4336 H   0  0  0  0  0  0  0  0  0  0  0  0
    3.3445   14.6826   11.9709 H   0  0  0  0  0  0  0  0  0  0  0  0
    4.4172   13.9796   13.2148 H   0  0  0  0  0  0  0  0  0  0  0  0
    5.1049   14.7934   11.7923 H   0  0  0  0  0  0  0  0  0  0  0  0
    2.5832   11.6876   10.9592 H   0  0  0  0  0  0  0  0  0  0  0  0
    3.5224   11.1403   12.3858 H   0  0  0  0  0  0  0  0  0  0  0  0
    2.4532   12.5348   12.5230 H   0  0  0  0  0  0  0  0  0  0  0  0
    4.0847    8.5323    4.3599 H   0  0  0  0  0  0  0  0  0  0  0  0
    1.7738    8.5037    3.5719 H   0  0  0  0  0  0  0  0  0  0  0  0
    0.5156    6.8012    7.3462 H   0  0  0  0  0  0  0  0  0  0  0  0
    2.8399    6.8101    8.1183 H   0  0  0  0  0  0  0  0  0  0  0  0
   -1.0215    7.1257    5.7012 H   0  0  0  0  0  0  0  0  0  0  0  0
   -2.3833    7.2175    1.5559 H   0  0  0  0  0  0  0  0  0  0  0  0
   -4.3579    7.7138    4.4938 H   0  0  0  0  0  0  0  0  0  0  0  0
   -2.9686    8.1542    5.5076 H   0  0  0  0  0  0  0  0  0  0  0  0
   -3.4513    9.1620    4.1325 H   0  0  0  0  0  0  0  0  0  0  0  0
  1  2  2  0  0  0  0
  1 31  1  0  0  0  0
  2  3  1  0  0  0  0
  2  7  1  0  0  0  0
  3  4  2  0  0  0  0
  3 32  1  0  0  0  0
  4  5  1  0  0  0  0
  4 33  1  0  0  0  0
  5  6  2  0  0  0  0
  5 12  1  0  0  0  0
  6  1  1  0  0  0  0
  6 34  1  0  0  0  0
  7  8  1  0  0  0  0
  7  9  2  0  0  0  0
  8 10  1  0  0  0  0
  8 11  1  0  0  0  0
 10 35  1  0  0  0  0
 10 36  1  0  0  0  0
 10 37  1  0  0  0  0
 11 38  1  0  0  0  0
 11 39  1  0  0  0  0
 11 40  1  0  0  0  0
 12 13  1  0  0  0  0
 12 19  2  0  0  0  0
 12 20  2  0  0  0  0
 13 14  2  0  0  0  0
 14 15  1  0  0  0  0
 14 41  1  0  0  0  0
 15 16  2  0  0  0  0
 15 42  1  0  0  0  0
 16 17  1  0  0  0  0
 16 21  1  0  0  0  0
 17 18  2  0  0  0  0
 17 43  1  0  0  0  0
 18 13  1  0  0  0  0
 18 44  1  0  0  0  0
 21 22  1  0  0  0  0
 21 45  1  0  0  0  0
 22 24  2  0  0  0  0
 23 29  1  6  0  0  0
 23 30  1  0  0  0  0
 23 25  1  0  0  0  0
 23 22  1  0  0  0  0
 25 26  1  0  0  0  0
 25 27  1  0  0  0  0
 25 28  1  0  0  0  0
 29 46  1  0  0  0  0
 30 47  1  0  0  0  0
 30 48  1  0  0  0  0
 30 49  1  0  0  0  0
M  END
>  <Mol_ID>
2382

>  <Formula>
C19H18ClF3N2O5S

>  <MolWeight>
478.8698296

>  <Cat>
S7517

>  <Name>
AZD7545

>  <Synonyms>
N/A

>  <Target>
PDHK

>  <Form>
free base

>  <CAS>
252017-04-2

>  <URL>
http://selleckchem.com/products/azd7545.html

$$$$
