AZD7507
 OpenBabel08302521353D

 60 63  0  0  0  0  0  0  0  0999 V2000
   -2.4314   -0.4841    0.1832 C   0  0  0  0  0  0  0  0  0  0  0  0
   -2.3017    0.9144    0.0682 C   0  0  0  0  0  0  0  0  0  0  0  0
   -1.0122    1.4918   -0.0412 C   0  0  0  0  0  0  0  0  0  0  0  0
    0.1552    0.7372   -0.0843 C   0  0  0  0  0  0  0  0  0  0  0  0
    0.0582   -0.6529   -0.0053 C   0  0  0  0  0  0  0  0  0  0  0  0
   -1.2298   -1.1994    0.1457 C   0  0  0  0  0  0  0  0  0  0  0  0
    1.3595    1.3316   -0.1945 N   0  0  0  0  0  0  0  0  0  0  0  0
    2.5091    0.5908   -0.1931 N   0  0  0  0  0  0  0  0  0  0  0  0
    2.4342   -0.7591   -0.0828 C   0  0  0  0  0  0  0  0  0  0  0  0
    1.2243   -1.4507   -0.0087 C   0  0  0  0  0  0  0  0  0  0  0  0
   -3.6034   -1.2317    0.2765 N   0  0  0  0  0  0  0  0  0  0  0  0
   -3.4366    1.6889    0.1370 O   0  0  0  0  0  0  0  0  0  0  0  0
   -3.3232    3.0336   -0.3316 C   0  0  0  0  0  0  0  0  0  0  0  0
   -3.6484   -2.4529    1.1136 C   0  0  0  0  0  0  0  0  0  0  0  0
   -4.4665   -3.5560    0.4043 C   0  0  0  0  0  0  0  0  0  0  0  0
   -5.8634   -3.1694    0.0931 N   0  0  0  0  0  0  0  0  0  0  0  0
   -5.8170   -1.8925   -0.6693 C   0  0  0  0  0  0  0  0  0  0  0  0
   -4.9209   -0.7316   -0.1294 C   0  0  0  0  0  0  0  0  0  0  0  0
   -6.6582   -3.1115    1.3381 C   0  0  0  0  0  0  0  0  0  0  0  0
   -8.1574   -2.8587    1.1177 C   0  0  0  0  0  0  0  0  0  0  0  0
   -8.7012   -3.7971    0.1942 O   0  0  0  0  0  0  0  0  0  0  0  0
    1.1804   -2.8695    0.0413 N   0  0  0  0  0  0  0  0  0  0  0  0
    0.4347   -3.8303   -0.6786 C   0  0  0  0  0  0  0  0  0  0  0  0
    0.2649   -5.1116   -0.1285 C   0  0  0  0  0  0  0  0  0  0  0  0
   -0.5089   -6.0907   -0.7508 C   0  0  0  0  0  0  0  0  0  0  0  0
   -1.1372   -5.8156   -1.9670 C   0  0  0  0  0  0  0  0  0  0  0  0
   -1.0250   -4.5276   -2.5055 C   0  0  0  0  0  0  0  0  0  0  0  0
   -0.2480   -3.5473   -1.8698 C   0  0  0  0  0  0  0  0  0  0  0  0
   -1.9328   -6.8703   -2.6781 C   0  0  0  0  0  0  0  0  0  0  0  0
    0.8394   -5.4035    1.0486 F   0  0  0  0  0  0  0  0  0  0  0  0
    3.7468   -1.4685   -0.0156 C   0  0  0  0  0  0  0  0  0  0  0  0
    3.8491   -2.6230    0.3865 O   0  0  0  0  0  0  0  0  0  0  0  0
    4.8431   -0.7552   -0.4200 N   0  0  0  0  0  0  0  0  0  0  0  0
   -0.8825    2.5703   -0.0722 H   0  0  0  0  0  0  0  0  0  0  0  0
   -1.2848   -2.2782    0.2048 H   0  0  0  0  0  0  0  0  0  0  0  0
   -2.7303    3.6456    0.3569 H   0  0  0  0  0  0  0  0  0  0  0  0
   -2.9061    3.0675   -1.3446 H   0  0  0  0  0  0  0  0  0  0  0  0
   -4.3259    3.4680   -0.3708 H   0  0  0  0  0  0  0  0  0  0  0  0
   -2.6729   -2.8842    1.3507 H   0  0  0  0  0  0  0  0  0  0  0  0
   -4.0817   -2.2001    2.0868 H   0  0  0  0  0  0  0  0  0  0  0  0
   -3.9664   -3.8215   -0.5373 H   0  0  0  0  0  0  0  0  0  0  0  0
   -4.4540   -4.4706    1.0101 H   0  0  0  0  0  0  0  0  0  0  0  0
   -5.4341   -2.1530   -1.6665 H   0  0  0  0  0  0  0  0  0  0  0  0
   -6.8276   -1.5135   -0.8543 H   0  0  0  0  0  0  0  0  0  0  0  0
   -5.4116   -0.2416    0.7184 H   0  0  0  0  0  0  0  0  0  0  0  0
   -4.8289   -0.0084   -0.9485 H   0  0  0  0  0  0  0  0  0  0  0  0
   -6.5832   -4.1014    1.8094 H   0  0  0  0  0  0  0  0  0  0  0  0
   -6.2707   -2.3783    2.0515 H   0  0  0  0  0  0  0  0  0  0  0  0
   -8.6932   -2.9746    2.0650 H   0  0  0  0  0  0  0  0  0  0  0  0
   -8.3444   -1.8460    0.7498 H   0  0  0  0  0  0  0  0  0  0  0  0
   -7.9439   -4.1238   -0.3306 H   0  0  0  0  0  0  0  0  0  0  0  0
    2.0354   -3.2873    0.4450 H   0  0  0  0  0  0  0  0  0  0  0  0
   -0.6038   -7.0622   -0.2753 H   0  0  0  0  0  0  0  0  0  0  0  0
   -1.5385   -4.2775   -3.4323 H   0  0  0  0  0  0  0  0  0  0  0  0
   -0.1838   -2.5620   -2.3240 H   0  0  0  0  0  0  0  0  0  0  0  0
   -3.0054   -6.6947   -2.5534 H   0  0  0  0  0  0  0  0  0  0  0  0
   -1.6899   -6.8706   -3.7463 H   0  0  0  0  0  0  0  0  0  0  0  0
   -1.6969   -7.8692   -2.2950 H   0  0  0  0  0  0  0  0  0  0  0  0
    4.7614    0.2082   -0.7193 H   0  0  0  0  0  0  0  0  0  0  0  0
    5.7569   -1.1873   -0.3642 H   0  0  0  0  0  0  0  0  0  0  0  0
  1  2  2  0  0  0  0
  1 11  1  0  0  0  0
  2  3  1  0  0  0  0
  2 12  1  0  0  0  0
  3  4  2  0  0  0  0
  3 34  1  0  0  0  0
  4  5  1  0  0  0  0
  4  7  1  0  0  0  0
  5  6  2  0  0  0  0
  6  1  1  0  0  0  0
  6 35  1  0  0  0  0
  7  8  2  0  0  0  0
  8  9  1  0  0  0  0
  9 10  2  0  0  0  0
  9 31  1  0  0  0  0
 10  5  1  0  0  0  0
 10 22  1  0  0  0  0
 11 14  1  0  0  0  0
 12 13  1  0  0  0  0
 13 36  1  0  0  0  0
 13 37  1  0  0  0  0
 13 38  1  0  0  0  0
 14 15  1  0  0  0  0
 14 39  1  0  0  0  0
 14 40  1  0  0  0  0
 15 16  1  0  0  0  0
 15 41  1  0  0  0  0
 15 42  1  0  0  0  0
 16 17  1  0  0  0  0
 16 19  1  0  0  0  0
 17 18  1  0  0  0  0
 17 43  1  0  0  0  0
 17 44  1  0  0  0  0
 18 11  1  0  0  0  0
 18 45  1  0  0  0  0
 18 46  1  0  0  0  0
 19 20  1  0  0  0  0
 19 47  1  0  0  0  0
 19 48  1  0  0  0  0
 20 21  1  0  0  0  0
 20 49  1  0  0  0  0
 20 50  1  0  0  0  0
 21 51  1  0  0  0  0
 22 23  1  0  0  0  0
 22 52  1  0  0  0  0
 23 24  2  0  0  0  0
 24 25  1  0  0  0  0
 24 30  1  0  0  0  0
 25 26  2  0  0  0  0
 25 53  1  0  0  0  0
 26 27  1  0  0  0  0
 26 29  1  0  0  0  0
 27 28  2  0  0  0  0
 27 54  1  0  0  0  0
 28 23  1  0  0  0  0
 28 55  1  0  0  0  0
 29 56  1  0  0  0  0
 29 57  1  0  0  0  0
 29 58  1  0  0  0  0
 31 32  2  0  0  0  0
 31 33  1  0  0  0  0
 33 59  1  0  0  0  0
 33 60  1  0  0  0  0
M  END
>  <Mol_ID>
6676

>  <Formula>
C23H27FN6O3

>  <MolWeight>
454.4972832

>  <Cat>
S3523

>  <Name>
AZD7507

>  <Target>
CSF-1R

>  <Form>
Free base

>  <CAS>
1041852-85-0

>  <URL>
http://www.selleckchem.com/products/azd7507.html

$$$$
