AZD7648
 OpenBabel08302521233D

 48 52  0  0  0  0  0  0  0  0999 V2000
   -1.9659   -0.7660   -0.0822 C   0  0  0  0  0  0  0  0  0  0  0  0
   -2.1014    0.5843   -0.0981 N   0  0  0  0  0  0  0  0  0  0  0  0
   -0.9769    1.3349   -0.0940 C   0  0  0  0  0  0  0  0  0  0  0  0
    0.2515    0.7572   -0.0942 C   0  0  0  0  0  0  0  0  0  0  0  0
    0.2868   -0.6175   -0.0858 C   0  0  0  0  0  0  0  0  0  0  0  0
   -0.7827   -1.4038   -0.0778 N   0  0  0  0  0  0  0  0  0  0  0  0
    1.5567    1.2390   -0.0867 N   0  0  0  0  0  0  0  0  0  0  0  0
    2.4388    0.1371   -0.0655 C   0  0  0  0  0  0  0  0  0  0  0  0
    1.6294   -1.0170   -0.0704 N   0  0  0  0  0  0  0  0  0  0  0  0
   -3.1536   -1.4957   -0.1092 N   0  0  0  0  0  0  0  0  0  0  0  0
   -3.3223   -2.8619   -0.0768 C   0  0  0  0  0  0  0  0  0  0  0  0
   -2.4544   -3.7103    0.5192 C   0  0  0  0  0  0  0  0  0  0  0  0
   -2.6625   -5.0779    0.5354 N   0  0  0  0  0  0  0  0  0  0  0  0
   -3.7793   -5.6702   -0.0382 C   0  0  0  0  0  0  0  0  0  0  0  0
   -4.7166   -4.8165   -0.6728 C   0  0  0  0  0  0  0  0  0  0  0  0
   -4.5234   -3.4758   -0.7049 C   0  0  0  0  0  0  0  0  0  0  0  0
    2.0642   -2.4013    0.0492 C   0  0  0  0  0  0  0  0  0  0  0  0
    3.6560    0.1938   -0.0301 O   0  0  0  0  0  0  0  0  0  0  0  0
    1.9697    2.6093   -0.0224 C   0  0  0  0  0  0  0  0  0  0  0  0
   -5.5282   -2.6366   -1.4513 C   0  0  0  0  0  0  0  0  0  0  0  0
   -1.8790   -6.0424    1.0796 N   0  0  0  0  0  0  0  0  0  0  0  0
   -2.5692   -7.1498    0.8082 C   0  0  0  0  0  0  0  0  0  0  0  0
   -3.7369   -6.9730    0.1277 N   0  0  0  0  0  0  0  0  0  0  0  0
    2.7957   -2.6450    1.3745 C   0  0  0  0  0  0  0  0  0  0  0  0
    3.3180   -4.0714    1.4474 C   0  0  0  0  0  0  0  0  0  0  0  0
    4.1445   -4.3674    0.3236 O   0  0  0  0  0  0  0  0  0  0  0  0
    3.4390   -4.2634   -0.9116 C   0  0  0  0  0  0  0  0  0  0  0  0
    2.9375   -2.8422   -1.1299 C   0  0  0  0  0  0  0  0  0  0  0  0
   -1.1251    2.4087   -0.0899 H   0  0  0  0  0  0  0  0  0  0  0  0
   -3.9440   -0.8944   -0.2806 H   0  0  0  0  0  0  0  0  0  0  0  0
   -1.5545   -3.3945    1.0277 H   0  0  0  0  0  0  0  0  0  0  0  0
   -5.5804   -5.2799   -1.1376 H   0  0  0  0  0  0  0  0  0  0  0  0
    1.1689   -3.0383    0.0448 H   0  0  0  0  0  0  0  0  0  0  0  0
    2.5626    2.7528    0.8860 H   0  0  0  0  0  0  0  0  0  0  0  0
    2.6060    2.8237   -0.8856 H   0  0  0  0  0  0  0  0  0  0  0  0
    1.1138    3.2867   -0.0151 H   0  0  0  0  0  0  0  0  0  0  0  0
   -5.7575   -3.0921   -2.4221 H   0  0  0  0  0  0  0  0  0  0  0  0
   -6.4585   -2.5614   -0.8784 H   0  0  0  0  0  0  0  0  0  0  0  0
   -5.1856   -1.6232   -1.6719 H   0  0  0  0  0  0  0  0  0  0  0  0
   -2.2060   -8.1213    1.1185 H   0  0  0  0  0  0  0  0  0  0  0  0
    3.6468   -1.9586    1.4576 H   0  0  0  0  0  0  0  0  0  0  0  0
    2.1327   -2.4394    2.2225 H   0  0  0  0  0  0  0  0  0  0  0  0
    3.9268   -4.1954    2.3489 H   0  0  0  0  0  0  0  0  0  0  0  0
    2.4985   -4.7974    1.5000 H   0  0  0  0  0  0  0  0  0  0  0  0
    2.6153   -4.9870   -0.9219 H   0  0  0  0  0  0  0  0  0  0  0  0
    4.1307   -4.5415   -1.7132 H   0  0  0  0  0  0  0  0  0  0  0  0
    2.3761   -2.7801   -2.0692 H   0  0  0  0  0  0  0  0  0  0  0  0
    3.8013   -2.1737   -1.2239 H   0  0  0  0  0  0  0  0  0  0  0  0
  1  2  2  0  0  0  0
  1 10  1  0  0  0  0
  2  3  1  0  0  0  0
  3  4  2  0  0  0  0
  3 29  1  0  0  0  0
  4  5  1  0  0  0  0
  4  7  1  0  0  0  0
  5  6  2  0  0  0  0
  6  1  1  0  0  0  0
  7  8  1  0  0  0  0
  7 19  1  0  0  0  0
  8  9  1  0  0  0  0
  8 18  2  0  0  0  0
  9  5  1  0  0  0  0
  9 17  1  0  0  0  0
 10 11  1  0  0  0  0
 10 30  1  0  0  0  0
 11 12  2  0  0  0  0
 12 13  1  0  0  0  0
 12 31  1  0  0  0  0
 13 14  1  0  0  0  0
 13 21  1  0  0  0  0
 14 15  1  0  0  0  0
 15 16  2  0  0  0  0
 15 32  1  0  0  0  0
 16 11  1  0  0  0  0
 16 20  1  0  0  0  0
 17 24  1  0  0  0  0
 17 33  1  0  0  0  0
 19 34  1  0  0  0  0
 19 35  1  0  0  0  0
 19 36  1  0  0  0  0
 20 37  1  0  0  0  0
 20 38  1  0  0  0  0
 20 39  1  0  0  0  0
 21 22  2  0  0  0  0
 22 23  1  0  0  0  0
 22 40  1  0  0  0  0
 23 14  2  0  0  0  0
 24 25  1  0  0  0  0
 24 41  1  0  0  0  0
 24 42  1  0  0  0  0
 25 26  1  0  0  0  0
 25 43  1  0  0  0  0
 25 44  1  0  0  0  0
 26 27  1  0  0  0  0
 27 28  1  0  0  0  0
 27 45  1  0  0  0  0
 27 46  1  0  0  0  0
 28 17  1  0  0  0  0
 28 47  1  0  0  0  0
 28 48  1  0  0  0  0
M  END
>  <Mol_ID>
4807

>  <Formula>
C18H20N8O2

>  <MolWeight>
380.4038

>  <Cat>
S8843

>  <Name>
AZD7648

>  <Synonyms>
N/A

>  <Target>
DNA-PK

>  <Form>
Free Base

>  <CAS>
2230820-11-6

>  <URL>
http://www.selleck.cn/products/azd7648.html

$$$$
