AZD8186.cdx
 OpenBabel08302519553D

 58 61  0  0  0  0  0  0  0  0999 V2000
    0.4249   -0.8703    0.1093 C   0  0  0  0  0  0  0  0  0  0  0  0
    0.0825    0.4756    0.0975 C   0  0  0  0  0  0  0  0  0  0  0  0
    1.0706    1.4699    0.1009 C   0  0  0  0  0  0  0  0  0  0  0  0
    2.4258    1.1141    0.1018 C   0  0  0  0  0  0  0  0  0  0  0  0
    2.7529   -0.2411    0.0270 C   0  0  0  0  0  0  0  0  0  0  0  0
    1.7780   -1.2560    0.0476 C   0  0  0  0  0  0  0  0  0  0  0  0
   -0.5226   -1.8640    0.1392 O   0  0  0  0  0  0  0  0  0  0  0  0
   -1.8757   -1.5529    0.0028 C   0  0  0  0  0  0  0  0  0  0  0  0
   -2.3006   -0.2791   -0.0494 C   0  0  0  0  0  0  0  0  0  0  0  0
   -1.3414    0.8329    0.0375 C   0  0  0  0  0  0  0  0  0  0  0  0
   -1.7261    1.9943    0.0307 O   0  0  0  0  0  0  0  0  0  0  0  0
   -2.7214   -2.6593   -0.0878 N   0  0  0  0  0  0  0  0  0  0  0  0
    2.1767   -2.7242   -0.0347 C   0  0  1  0  0  0  0  0  0  0  0  0
    3.4596    2.1931    0.0460 C   0  0  0  0  0  0  0  0  0  0  0  0
    4.7424    2.0265    0.5886 N   0  0  0  0  0  0  0  0  0  0  0  0
    3.1191    3.2391   -0.5090 O   0  0  0  0  0  0  0  0  0  0  0  0
    5.6968    3.1143    0.4300 C   0  0  0  0  0  0  0  0  0  0  0  0
    5.2188    0.9052    1.3889 C   0  0  0  0  0  0  0  0  0  0  0  0
    3.4839   -2.9686   -0.8082 C   0  0  0  0  0  0  0  0  0  0  0  0
    2.3323   -3.2758    1.3137 N   0  0  0  0  0  0  0  0  0  0  0  0
    2.0416   -4.6136    1.5870 C   0  0  0  0  0  0  0  0  0  0  0  0
    1.7246   -5.5565    0.6024 C   0  0  0  0  0  0  0  0  0  0  0  0
    1.4891   -6.8898    0.9244 C   0  0  0  0  0  0  0  0  0  0  0  0
    1.6014   -7.3420    2.2256 C   0  0  0  0  0  0  0  0  0  0  0  0
    1.9690   -6.4325    3.2029 C   0  0  0  0  0  0  0  0  0  0  0  0
    2.1930   -5.0880    2.8973 C   0  0  0  0  0  0  0  0  0  0  0  0
    1.1489   -7.7433   -0.0485 F   0  0  0  0  0  0  0  0  0  0  0  0
    2.1183   -6.8545    4.4652 F   0  0  0  0  0  0  0  0  0  0  0  0
   -2.4068   -3.9555    0.5561 C   0  0  0  0  0  0  0  0  0  0  0  0
   -2.6835   -5.1131   -0.4138 C   0  0  0  0  0  0  0  0  0  0  0  0
   -4.0343   -5.0811   -0.9038 O   0  0  0  0  0  0  0  0  0  0  0  0
   -4.2881   -3.8385   -1.5779 C   0  0  0  0  0  0  0  0  0  0  0  0
   -4.0917   -2.6376   -0.6376 C   0  0  0  0  0  0  0  0  0  0  0  0
    0.7813    2.5205    0.0725 H   0  0  0  0  0  0  0  0  0  0  0  0
    3.7870   -0.5202   -0.1065 H   0  0  0  0  0  0  0  0  0  0  0  0
   -3.3404    0.0008   -0.1354 H   0  0  0  0  0  0  0  0  0  0  0  0
    1.3752   -3.2255   -0.5873 H   0  0  0  0  0  0  0  0  0  0  0  0
    5.9597    3.4891    1.4244 H   0  0  0  0  0  0  0  0  0  0  0  0
    6.5940    2.7255   -0.0603 H   0  0  0  0  0  0  0  0  0  0  0  0
    5.3018    3.9438   -0.1602 H   0  0  0  0  0  0  0  0  0  0  0  0
    4.4495    0.5876    2.0961 H   0  0  0  0  0  0  0  0  0  0  0  0
    5.5044    0.0838    0.7266 H   0  0  0  0  0  0  0  0  0  0  0  0
    6.1174    1.1896    1.9454 H   0  0  0  0  0  0  0  0  0  0  0  0
    4.3555   -2.5561   -0.2858 H   0  0  0  0  0  0  0  0  0  0  0  0
    3.6838   -4.0382   -0.9258 H   0  0  0  0  0  0  0  0  0  0  0  0
    3.4379   -2.5234   -1.8074 H   0  0  0  0  0  0  0  0  0  0  0  0
    2.0760   -2.6437    2.0687 H   0  0  0  0  0  0  0  0  0  0  0  0
    1.6411   -5.2925   -0.4467 H   0  0  0  0  0  0  0  0  0  0  0  0
    1.4212   -8.3821    2.4662 H   0  0  0  0  0  0  0  0  0  0  0  0
    2.5016   -4.4225    3.6987 H   0  0  0  0  0  0  0  0  0  0  0  0
   -3.0505   -4.0593    1.4392 H   0  0  0  0  0  0  0  0  0  0  0  0
   -1.3693   -4.0100    0.9006 H   0  0  0  0  0  0  0  0  0  0  0  0
   -1.9944   -5.0843   -1.2660 H   0  0  0  0  0  0  0  0  0  0  0  0
   -2.5423   -6.0694    0.0995 H   0  0  0  0  0  0  0  0  0  0  0  0
   -5.3192   -3.8630   -1.9443 H   0  0  0  0  0  0  0  0  0  0  0  0
   -3.6256   -3.7653   -2.4493 H   0  0  0  0  0  0  0  0  0  0  0  0
   -4.8065   -2.6924    0.1927 H   0  0  0  0  0  0  0  0  0  0  0  0
   -4.2939   -1.7223   -1.2029 H   0  0  0  0  0  0  0  0  0  0  0  0
  1  2  1  0  0  0  0
  1  7  1  0  0  0  0
  2  3  2  0  0  0  0
  3  4  1  0  0  0  0
  3 34  1  0  0  0  0
  4  5  2  0  0  0  0
  4 14  1  0  0  0  0
  5  6  1  0  0  0  0
  5 35  1  0  0  0  0
  6  1  2  0  0  0  0
  6 13  1  0  0  0  0
  7  8  1  0  0  0  0
  8  9  2  0  0  0  0
  8 12  1  0  0  0  0
  9 10  1  0  0  0  0
  9 36  1  0  0  0  0
 10  2  1  0  0  0  0
 10 11  2  0  0  0  0
 12 29  1  0  0  0  0
 13 19  1  0  0  0  0
 13 20  1  0  0  0  0
 13 37  1  6  0  0  0
 14 15  1  0  0  0  0
 14 16  2  0  0  0  0
 15 17  1  0  0  0  0
 15 18  1  0  0  0  0
 17 38  1  0  0  0  0
 17 39  1  0  0  0  0
 17 40  1  0  0  0  0
 18 41  1  0  0  0  0
 18 42  1  0  0  0  0
 18 43  1  0  0  0  0
 19 44  1  0  0  0  0
 19 45  1  0  0  0  0
 19 46  1  0  0  0  0
 20 21  1  0  0  0  0
 20 47  1  0  0  0  0
 21 22  2  0  0  0  0
 22 23  1  0  0  0  0
 22 48  1  0  0  0  0
 23 24  2  0  0  0  0
 23 27  1  0  0  0  0
 24 25  1  0  0  0  0
 24 49  1  0  0  0  0
 25 26  2  0  0  0  0
 25 28  1  0  0  0  0
 26 21  1  0  0  0  0
 26 50  1  0  0  0  0
 29 30  1  0  0  0  0
 29 51  1  0  0  0  0
 29 52  1  0  0  0  0
 30 31  1  0  0  0  0
 30 53  1  0  0  0  0
 30 54  1  0  0  0  0
 31 32  1  0  0  0  0
 32 33  1  0  0  0  0
 32 55  1  0  0  0  0
 32 56  1  0  0  0  0
 33 12  1  0  0  0  0
 33 57  1  0  0  0  0
 33 58  1  0  0  0  0
M  END
>  <Mol_ID>
2176

>  <Formula>
C24H25F2N3O4

>  <MolWeight>
457.4698064

>  <Cat>
S7694

>  <Name>
AZD8186

>  <Synonyms>
N/A

>  <Target>
PI3K

>  <Form>
free base

>  <CAS>
1627494-13-6

>  <URL>
http://selleckchem.com/products/azd8186.html

$$$$
