AZD8931.cdx
 OpenBabel08302521353D

 58 61  0  0  0  0  0  0  0  0999 V2000
    2.5581    1.1699   -0.2022 C   0  0  0  0  0  0  0  0  0  0  0  0
    2.3153   -0.2006   -0.0359 C   0  0  0  0  0  0  0  0  0  0  0  0
    1.1072   -0.7571   -0.4582 C   0  0  0  0  0  0  0  0  0  0  0  0
   -0.0141    0.0095   -0.6145 C   0  0  0  0  0  0  0  0  0  0  0  0
    0.0936    1.3985   -0.4988 C   0  0  0  0  0  0  0  0  0  0  0  0
    1.4266    1.9799   -0.4097 C   0  0  0  0  0  0  0  0  0  0  0  0
   -1.1494   -0.6829   -0.7265 N   0  0  0  0  0  0  0  0  0  0  0  0
   -2.2767    0.0095   -0.6489 C   0  0  0  0  0  0  0  0  0  0  0  0
   -2.3479    1.3274   -0.4997 N   0  0  0  0  0  0  0  0  0  0  0  0
   -1.1863    2.0161   -0.4056 C   0  0  0  0  0  0  0  0  0  0  0  0
    3.8702    1.5714   -0.0571 O   0  0  0  0  0  0  0  0  0  0  0  0
    4.3761    2.7465   -0.7268 C   0  0  0  0  0  0  0  0  0  0  0  0
    4.5339    2.5828   -2.2392 C   0  0  0  0  0  0  0  0  0  0  0  0
    3.2413   -0.9562    0.6490 O   0  0  0  0  0  0  0  0  0  0  0  0
    5.7255    3.1986   -0.1114 C   0  0  0  0  0  0  0  0  0  0  0  0
    7.0271    2.7242   -0.7905 C   0  0  0  0  0  0  0  0  0  0  0  0
    6.8652    1.6892   -1.7872 N   0  0  0  0  0  0  0  0  0  0  0  0
    5.7572    1.7910   -2.7144 C   0  0  0  0  0  0  0  0  0  0  0  0
   -2.4271    5.8422   -0.9831 F   0  0  0  0  0  0  0  0  0  0  0  0
   -2.9681    5.2157    0.0609 C   0  0  0  0  0  0  0  0  0  0  0  0
   -2.4656    3.9684    0.4731 C   0  0  0  0  0  0  0  0  0  0  0  0
   -1.3096    3.4145   -0.1666 N   0  0  0  0  0  0  0  0  0  0  0  0
   -4.0462    5.8102    0.7280 C   0  0  0  0  0  0  0  0  0  0  0  0
   -4.6122    5.1967    1.8350 C   0  0  0  0  0  0  0  0  0  0  0  0
   -4.1051    3.9773    2.2839 C   0  0  0  0  0  0  0  0  0  0  0  0
   -3.0277    3.3796    1.6134 C   0  0  0  0  0  0  0  0  0  0  0  0
    8.1373    1.2234   -2.4089 C   0  0  0  0  0  0  0  0  0  0  0  0
    8.6233   -0.0493   -1.7006 C   0  0  0  0  0  0  0  0  0  0  0  0
    7.6711   -0.5987   -0.8801 N   0  0  0  0  0  0  0  0  0  0  0  0
    7.7947   -1.8309   -0.1759 C   0  0  0  0  0  0  0  0  0  0  0  0
    9.7403   -0.5427   -1.8999 O   0  0  0  0  0  0  0  0  0  0  0  0
    2.7219   -2.1678    1.2195 C   0  0  0  0  0  0  0  0  0  0  0  0
    0.9834   -1.8342   -0.5271 H   0  0  0  0  0  0  0  0  0  0  0  0
    1.5235    3.0612   -0.4141 H   0  0  0  0  0  0  0  0  0  0  0  0
   -3.2067   -0.5482   -0.6615 H   0  0  0  0  0  0  0  0  0  0  0  0
    3.6711    3.5612   -0.5282 H   0  0  0  0  0  0  0  0  0  0  0  0
    3.6399    2.1179   -2.6680 H   0  0  0  0  0  0  0  0  0  0  0  0
    4.6095    3.5895   -2.6704 H   0  0  0  0  0  0  0  0  0  0  0  0
    5.7528    4.2963   -0.1685 H   0  0  0  0  0  0  0  0  0  0  0  0
    5.7615    2.9424    0.9537 H   0  0  0  0  0  0  0  0  0  0  0  0
    7.5550    3.5943   -1.2082 H   0  0  0  0  0  0  0  0  0  0  0  0
    7.6908    2.3428   -0.0000 H   0  0  0  0  0  0  0  0  0  0  0  0
    5.4398    0.7660   -2.9396 H   0  0  0  0  0  0  0  0  0  0  0  0
    6.0815    2.2272   -3.6695 H   0  0  0  0  0  0  0  0  0  0  0  0
   -0.5046    3.7366    0.3590 H   0  0  0  0  0  0  0  0  0  0  0  0
   -4.4249    6.7644    0.3636 H   0  0  0  0  0  0  0  0  0  0  0  0
   -5.4555    5.6563    2.3497 H   0  0  0  0  0  0  0  0  0  0  0  0
   -4.5376    3.4925    3.1559 H   0  0  0  0  0  0  0  0  0  0  0  0
   -2.6464    2.4344    1.9949 H   0  0  0  0  0  0  0  0  0  0  0  0
    7.9956    0.9490   -3.4630 H   0  0  0  0  0  0  0  0  0  0  0  0
    8.9302    1.9829   -2.3712 H   0  0  0  0  0  0  0  0  0  0  0  0
    6.7860   -0.0822   -0.8568 H   0  0  0  0  0  0  0  0  0  0  0  0
    7.2572   -1.7411    0.7685 H   0  0  0  0  0  0  0  0  0  0  0  0
    7.3394   -2.6194   -0.7810 H   0  0  0  0  0  0  0  0  0  0  0  0
    8.8488   -2.0702    0.0091 H   0  0  0  0  0  0  0  0  0  0  0  0
    2.8479   -2.9670    0.4846 H   0  0  0  0  0  0  0  0  0  0  0  0
    3.2884   -2.4200    2.1197 H   0  0  0  0  0  0  0  0  0  0  0  0
    1.6688   -2.1085    1.5350 H   0  0  0  0  0  0  0  0  0  0  0  0
  1  2  2  0  0  0  0
  1 11  1  0  0  0  0
  2  3  1  0  0  0  0
  3  4  2  0  0  0  0
  3 33  1  0  0  0  0
  4  5  1  0  0  0  0
  4  7  1  0  0  0  0
  5  6  2  0  0  0  0
  6  1  1  0  0  0  0
  6 34  1  0  0  0  0
  7  8  2  0  0  0  0
  8  9  1  0  0  0  0
  8 35  1  0  0  0  0
  9 10  2  0  0  0  0
 10  5  1  0  0  0  0
 11 12  1  0  0  0  0
 12 13  1  0  0  0  0
 12 15  1  0  0  0  0
 12 36  1  0  0  0  0
 13 37  1  0  0  0  0
 13 38  1  0  0  0  0
 14  2  1  0  0  0  0
 14 32  1  0  0  0  0
 15 16  1  0  0  0  0
 15 39  1  0  0  0  0
 15 40  1  0  0  0  0
 16 17  1  0  0  0  0
 16 41  1  0  0  0  0
 16 42  1  0  0  0  0
 17 18  1  0  0  0  0
 17 27  1  0  0  0  0
 18 13  1  0  0  0  0
 18 43  1  0  0  0  0
 18 44  1  0  0  0  0
 19 20  1  0  0  0  0
 20 21  2  0  0  0  0
 20 23  1  0  0  0  0
 21 22  1  0  0  0  0
 22 10  1  0  0  0  0
 22 45  1  0  0  0  0
 23 24  2  0  0  0  0
 23 46  1  0  0  0  0
 24 25  1  0  0  0  0
 24 47  1  0  0  0  0
 25 26  2  0  0  0  0
 25 48  1  0  0  0  0
 26 21  1  0  0  0  0
 26 49  1  0  0  0  0
 27 28  1  0  0  0  0
 27 50  1  0  0  0  0
 27 51  1  0  0  0  0
 28 29  1  0  0  0  0
 28 31  2  0  0  0  0
 29 30  1  0  0  0  0
 29 52  1  0  0  0  0
 30 53  1  0  0  0  0
 30 54  1  0  0  0  0
 30 55  1  0  0  0  0
 32 56  1  0  0  0  0
 32 57  1  0  0  0  0
 32 58  1  0  0  0  0
M  END
>  <Mol_ID>
638

>  <Formula>
C23H25ClFN5O3

>  <MolWeight>
473.9277032

>  <Cat>
S2192

>  <Name>
Sapitinib (AZD8931)

>  <Synonyms>
N/A

>  <Target>
EGFR,HER2

>  <Form>
free base

>  <CAS>
848942-61-0

>  <URL>
http://selleckchem.com/products/AZD8931.html

$$$$
