Azemiglitazone (MSDC-0602)
 OpenBabel08302521313D

 43 45  0  0  0  0  0  0  0  0999 V2000
   -2.5067    3.6900    4.6177 C   0  0  0  0  0  0  0  0  0  0  0  0
   -1.4550    4.4390    4.0911 C   0  0  0  0  0  0  0  0  0  0  0  0
   -1.3680    4.6564    2.7158 C   0  0  0  0  0  0  0  0  0  0  0  0
   -2.3262    4.1185    1.8565 C   0  0  0  0  0  0  0  0  0  0  0  0
   -3.3716    3.3421    2.3662 C   0  0  0  0  0  0  0  0  0  0  0  0
   -3.4642    3.1515    3.7527 C   0  0  0  0  0  0  0  0  0  0  0  0
   -2.7047    3.4090    5.9411 O   0  0  0  0  0  0  0  0  0  0  0  0
   -1.7206    3.8831    6.8519 C   0  0  0  0  0  0  0  0  0  0  0  0
   -4.4062    2.7084    1.4928 C   0  0  0  0  0  0  0  0  0  0  0  0
   -5.3278    2.0742    2.0091 O   0  0  0  0  0  0  0  0  0  0  0  0
   -4.3708    2.9432   -0.0105 C   0  0  0  0  0  0  0  0  0  0  0  0
   -3.1432    2.5722   -0.6313 O   0  0  0  0  0  0  0  0  0  0  0  0
   -2.9151    3.1789   -1.8412 C   0  0  0  0  0  0  0  0  0  0  0  0
   -1.5810    3.2963   -2.2305 C   0  0  0  0  0  0  0  0  0  0  0  0
   -1.2459    3.9725   -3.4084 C   0  0  0  0  0  0  0  0  0  0  0  0
   -2.2477    4.5330   -4.2149 C   0  0  0  0  0  0  0  0  0  0  0  0
   -3.5868    4.3740   -3.8337 C   0  0  0  0  0  0  0  0  0  0  0  0
   -3.9160    3.6858   -2.6686 C   0  0  0  0  0  0  0  0  0  0  0  0
   -1.9041    5.2763   -5.4881 C   0  0  0  0  0  0  0  0  0  0  0  0
   -1.8238    4.4257   -6.7615 C   0  0  3  0  0  0  0  0  0  0  0  0
   -3.3813    3.5751   -7.1981 S   0  0  0  0  0  0  0  0  0  0  0  0
   -2.6985    1.9931   -6.9207 C   0  0  0  0  0  0  0  0  0  0  0  0
   -1.3664    2.0865   -6.6976 N   0  0  0  0  0  0  0  0  0  0  0  0
   -0.7993    3.3221   -6.6243 C   0  0  0  0  0  0  0  0  0  0  0  0
    0.3978    3.5049   -6.4426 O   0  0  0  0  0  0  0  0  0  0  0  0
   -3.3432    0.9596   -6.9473 O   0  0  0  0  0  0  0  0  0  0  0  0
   -0.6851    4.8694    4.7230 H   0  0  0  0  0  0  0  0  0  0  0  0
   -0.5465    5.2418    2.3100 H   0  0  0  0  0  0  0  0  0  0  0  0
   -2.2222    4.3211    0.7962 H   0  0  0  0  0  0  0  0  0  0  0  0
   -4.2871    2.5737    4.1711 H   0  0  0  0  0  0  0  0  0  0  0  0
   -0.7220    3.5171    6.5894 H   0  0  0  0  0  0  0  0  0  0  0  0
   -1.7383    4.9765    6.9071 H   0  0  0  0  0  0  0  0  0  0  0  0
   -1.9641    3.4912    7.8441 H   0  0  0  0  0  0  0  0  0  0  0  0
   -5.1737    2.3396   -0.4517 H   0  0  0  0  0  0  0  0  0  0  0  0
   -4.6013    4.0066   -0.1547 H   0  0  0  0  0  0  0  0  0  0  0  0
   -0.7946    2.8806   -1.6073 H   0  0  0  0  0  0  0  0  0  0  0  0
   -0.1965    4.0716   -3.6806 H   0  0  0  0  0  0  0  0  0  0  0  0
   -4.3883    4.7836   -4.4445 H   0  0  0  0  0  0  0  0  0  0  0  0
   -4.9696    3.5658   -2.4316 H   0  0  0  0  0  0  0  0  0  0  0  0
   -2.6317    6.0866   -5.6323 H   0  0  0  0  0  0  0  0  0  0  0  0
   -0.9421    5.7842   -5.3346 H   0  0  0  0  0  0  0  0  0  0  0  0
   -1.5401    5.0520   -7.6140 H   0  0  0  0  0  0  0  0  0  0  0  0
   -0.8178    1.2540   -6.5564 H   0  0  0  0  0  0  0  0  0  0  0  0
  1  2  2  0  0  0  0
  1  7  1  0  0  0  0
  2  3  1  0  0  0  0
  2 27  1  0  0  0  0
  3  4  2  0  0  0  0
  3 28  1  0  0  0  0
  4  5  1  0  0  0  0
  4 29  1  0  0  0  0
  5  6  2  0  0  0  0
  5  9  1  0  0  0  0
  6  1  1  0  0  0  0
  6 30  1  0  0  0  0
  7  8  1  0  0  0  0
  8 31  1  0  0  0  0
  8 32  1  0  0  0  0
  8 33  1  0  0  0  0
  9 10  2  0  0  0  0
  9 11  1  0  0  0  0
 11 12  1  0  0  0  0
 11 34  1  0  0  0  0
 11 35  1  0  0  0  0
 12 13  1  0  0  0  0
 13 14  2  0  0  0  0
 14 15  1  0  0  0  0
 14 36  1  0  0  0  0
 15 16  2  0  0  0  0
 15 37  1  0  0  0  0
 16 17  1  0  0  0  0
 16 19  1  0  0  0  0
 17 18  2  0  0  0  0
 17 38  1  0  0  0  0
 18 13  1  0  0  0  0
 18 39  1  0  0  0  0
 19 20  1  0  0  0  0
 19 40  1  0  0  0  0
 19 41  1  0  0  0  0
 20 21  1  0  0  0  0
 20 42  1  0  0  0  0
 21 22  1  0  0  0  0
 22 23  1  0  0  0  0
 22 26  2  0  0  0  0
 23 24  1  0  0  0  0
 23 43  1  0  0  0  0
 24 20  1  0  0  0  0
 24 25  2  0  0  0  0
M  END
>  <Mol_ID>
6026

>  <Formula>
C19H17NO5S

>  <MolWeight>
371.40698

>  <Cat>
S7454

>  <Name>
Azemiglitazone (MSDC-0602)

>  <Synonyms>
N/A

>  <Target>
Mitochondrial pyruvate carrier

>  <Form>
Free Base

>  <CAS>
1133819-87-0

>  <URL>
http://www.selleckchem.com/products/azemiglitazone-msdc-0602.html

$$$$
