Azilsartan.cdx
 OpenBabel08302521593D

 54 58  0  0  0  0  0  0  0  0999 V2000
    2.1243   -0.0322    0.1572 C   0  0  0  0  0  0  0  0  0  0  0  0
    1.2825   -1.0157   -0.0518 N   0  0  0  0  0  0  0  0  0  0  0  0
    0.1979   -0.4345   -0.6371 C   0  0  0  0  0  0  0  0  0  0  0  0
    0.3769    0.9394   -0.8249 C   0  0  0  0  0  0  0  0  0  0  0  0
    1.5496    1.1892   -0.1273 N   0  0  0  0  0  0  0  0  0  0  0  0
   -0.9741   -1.0689   -1.0728 C   0  0  0  0  0  0  0  0  0  0  0  0
   -1.9270   -0.3124   -1.7538 C   0  0  0  0  0  0  0  0  0  0  0  0
   -1.7020    1.0369   -2.0148 C   0  0  0  0  0  0  0  0  0  0  0  0
   -0.5459    1.7056   -1.5716 C   0  0  0  0  0  0  0  0  0  0  0  0
   -0.3028    3.1088   -1.9756 C   0  0  0  0  0  0  0  0  0  0  0  0
    0.7090    3.7661   -1.8123 O   0  0  0  0  0  0  0  0  0  0  0  0
   -1.3489    3.6466   -2.6376 O   0  0  0  0  0  0  0  0  0  0  0  0
    3.3671   -0.1867    0.5999 O   0  0  0  0  0  0  0  0  0  0  0  0
    3.8709   -1.5193    0.5446 C   0  0  0  0  0  0  0  0  0  0  0  0
    5.2207   -1.5804    1.2413 C   0  0  0  0  0  0  0  0  0  0  0  0
    2.0342    2.5049    0.2770 C   0  0  0  0  0  0  0  0  0  0  0  0
    4.2106    2.4682    4.0132 C   0  0  0  0  0  0  0  0  0  0  0  0
    4.8428    2.1944    2.7913 C   0  0  0  0  0  0  0  0  0  0  0  0
    4.1548    2.3058    1.5907 C   0  0  0  0  0  0  0  0  0  0  0  0
    2.7739    2.5138    1.5876 C   0  0  0  0  0  0  0  0  0  0  0  0
    2.1020    2.6609    2.8055 C   0  0  0  0  0  0  0  0  0  0  0  0
    2.8188    2.6602    4.0036 C   0  0  0  0  0  0  0  0  0  0  0  0
    5.0000    2.6473    5.2481 C   0  0  0  0  0  0  0  0  0  0  0  0
    6.2002    3.4017    5.2933 C   0  0  0  0  0  0  0  0  0  0  0  0
    6.9299    3.5103    6.4865 C   0  0  0  0  0  0  0  0  0  0  0  0
    6.4508    2.9337    7.6612 C   0  0  0  0  0  0  0  0  0  0  0  0
    5.2554    2.2230    7.6463 C   0  0  0  0  0  0  0  0  0  0  0  0
    4.5500    2.0653    6.4513 C   0  0  0  0  0  0  0  0  0  0  0  0
    6.8333    5.4240    2.3407 O   0  0  0  0  0  0  0  0  0  0  0  0
    5.9598    4.7746    3.1981 N   0  0  0  0  0  0  0  0  0  0  0  0
    6.7362    4.1479    4.1232 C   0  0  0  0  0  0  0  0  0  0  0  0
    8.0141    4.2624    3.8795 N   0  0  0  0  0  0  0  0  0  0  0  0
    8.0999    5.0292    2.7315 C   0  0  0  0  0  0  0  0  0  0  0  0
    9.1212    5.3391    2.1384 O   0  0  0  0  0  0  0  0  0  0  0  0
   -1.1135   -2.1264   -0.8969 H   0  0  0  0  0  0  0  0  0  0  0  0
   -2.8346   -0.7922   -2.1061 H   0  0  0  0  0  0  0  0  0  0  0  0
   -2.4576    1.5709   -2.5956 H   0  0  0  0  0  0  0  0  0  0  0  0
   -1.0430    4.5421   -2.8935 H   0  0  0  0  0  0  0  0  0  0  0  0
    3.1872   -2.2173    1.0413 H   0  0  0  0  0  0  0  0  0  0  0  0
    3.9929   -1.8093   -0.5054 H   0  0  0  0  0  0  0  0  0  0  0  0
    5.1746   -1.1303    2.2383 H   0  0  0  0  0  0  0  0  0  0  0  0
    5.5548   -2.6182    1.3376 H   0  0  0  0  0  0  0  0  0  0  0  0
    5.9767   -1.0279    0.6735 H   0  0  0  0  0  0  0  0  0  0  0  0
    2.6600    2.8904   -0.5325 H   0  0  0  0  0  0  0  0  0  0  0  0
    1.1619    3.1545    0.4016 H   0  0  0  0  0  0  0  0  0  0  0  0
    5.9070    1.9678    2.7481 H   0  0  0  0  0  0  0  0  0  0  0  0
    4.6958    2.1763    0.6552 H   0  0  0  0  0  0  0  0  0  0  0  0
    1.0227    2.7949    2.8330 H   0  0  0  0  0  0  0  0  0  0  0  0
    2.2768    2.8297    4.9320 H   0  0  0  0  0  0  0  0  0  0  0  0
    7.8639    4.0689    6.5094 H   0  0  0  0  0  0  0  0  0  0  0  0
    7.0071    3.0461    8.5879 H   0  0  0  0  0  0  0  0  0  0  0  0
    4.8715    1.7829    8.5641 H   0  0  0  0  0  0  0  0  0  0  0  0
    3.6355    1.4738    6.4679 H   0  0  0  0  0  0  0  0  0  0  0  0
    5.0167    5.1148    3.3379 H   0  0  0  0  0  0  0  0  0  0  0  0
  1  2  2  0  0  0  0
  1  5  1  0  0  0  0
  1 13  1  0  0  0  0
  2  3  1  0  0  0  0
  3  4  2  0  0  0  0
  3  6  1  0  0  0  0
  4  5  1  0  0  0  0
  4  9  1  0  0  0  0
  5 16  1  0  0  0  0
  6  7  2  0  0  0  0
  6 35  1  0  0  0  0
  7  8  1  0  0  0  0
  7 36  1  0  0  0  0
  8  9  2  0  0  0  0
  8 37  1  0  0  0  0
  9 10  1  0  0  0  0
 10 11  2  0  0  0  0
 10 12  1  0  0  0  0
 12 38  1  0  0  0  0
 13 14  1  0  0  0  0
 14 15  1  0  0  0  0
 14 39  1  0  0  0  0
 14 40  1  0  0  0  0
 15 41  1  0  0  0  0
 15 42  1  0  0  0  0
 15 43  1  0  0  0  0
 16 20  1  0  0  0  0
 16 44  1  0  0  0  0
 16 45  1  0  0  0  0
 17 18  2  0  0  0  0
 17 22  1  0  0  0  0
 17 23  1  0  0  0  0
 18 19  1  0  0  0  0
 18 46  1  0  0  0  0
 19 20  2  0  0  0  0
 19 47  1  0  0  0  0
 20 21  1  0  0  0  0
 21 22  2  0  0  0  0
 21 48  1  0  0  0  0
 22 49  1  0  0  0  0
 23 24  1  0  0  0  0
 23 28  2  0  0  0  0
 24 25  2  0  0  0  0
 24 31  1  0  0  0  0
 25 26  1  0  0  0  0
 25 50  1  0  0  0  0
 26 27  2  0  0  0  0
 26 51  1  0  0  0  0
 27 28  1  0  0  0  0
 27 52  1  0  0  0  0
 28 53  1  0  0  0  0
 29 30  1  0  0  0  0
 29 33  1  0  0  0  0
 30 31  1  0  0  0  0
 30 54  1  0  0  0  0
 31 32  2  0  0  0  0
 32 33  1  0  0  0  0
 33 34  2  0  0  0  0
M  END
>  <Mol_ID>
1015

>  <Formula>
C25H20N4O5

>  <MolWeight>
456.4501

>  <Cat>
S3046

>  <Name>
Azilsartan

>  <Synonyms>
TAK-536

>  <Target>
Angiotensin Receptor

>  <Form>
free base

>  <CAS>
147403-03-0

>  <URL>
http://selleckchem.com/products/azilsartan-tak-536.html

$$$$
