Azlocillin sodium salt.cdx
 OpenBabel08302521593D

 55 58  0  0  0  0  0  0  0  0999 V2000
   -2.1809   -3.9072   -1.8409 N   0  0  0  0  0  0  0  0  0  0  0  0
   -2.4947   -4.7570   -2.9924 C   0  0  3  0  0  0  0  0  0  0  0  0
   -1.8995   -6.1606   -2.7150 C   0  0  0  0  0  0  0  0  0  0  0  0
   -2.0475   -6.3885   -0.8903 S   0  0  0  0  0  0  0  0  0  0  0  0
   -2.0582   -4.5874   -0.5402 C   0  0  3  0  0  0  0  0  0  0  0  0
   -0.6476   -3.9610   -0.3967 C   0  0  3  0  0  0  0  0  0  0  0  0
   -1.0032   -3.2312   -1.7193 C   0  0  0  0  0  0  0  0  0  0  0  0
   -4.0210   -4.7315   -3.1192 C   0  0  0  0  0  0  0  0  0  0  0  0
   -4.8418   -4.6285   -2.2197 O   0  0  0  0  0  0  0  0  0  0  0  0
   -4.4491   -4.8307   -4.3963 O   0  0  0  0  0  0  0  0  0  0  0  0
   -0.4083   -3.1612    0.8236 N   0  0  0  0  0  0  0  0  0  0  0  0
   -0.4033   -3.7600    2.0675 C   0  0  0  0  0  0  0  0  0  0  0  0
   -0.6502   -4.9608    2.1979 O   0  0  0  0  0  0  0  0  0  0  0  0
   -0.1002   -2.8516    3.2840 C   0  0  1  0  0  0  0  0  0  0  0  0
    1.2914   -2.2419    3.2655 C   0  0  0  0  0  0  0  0  0  0  0  0
    1.5748   -0.9905    2.6962 C   0  0  0  0  0  0  0  0  0  0  0  0
    2.8732   -0.4863    2.6738 C   0  0  0  0  0  0  0  0  0  0  0  0
    3.9177   -1.2222    3.2185 C   0  0  0  0  0  0  0  0  0  0  0  0
    3.6728   -2.4666    3.7890 C   0  0  0  0  0  0  0  0  0  0  0  0
    2.3653   -2.9745    3.8071 C   0  0  0  0  0  0  0  0  0  0  0  0
   -1.1859   -1.9436    3.6268 N   0  0  0  0  0  0  0  0  0  0  0  0
   -1.7548   -1.0311    2.7910 C   0  0  0  0  0  0  0  0  0  0  0  0
   -1.4059   -0.8956    1.6187 O   0  0  0  0  0  0  0  0  0  0  0  0
   -3.4677   -0.5676    4.5482 C   0  0  0  0  0  0  0  0  0  0  0  0
   -4.7843   -0.1299    4.4352 N   0  0  0  0  0  0  0  0  0  0  0  0
   -5.0939    0.0748    3.0469 C   0  0  0  0  0  0  0  0  0  0  0  0
   -3.7376    0.3723    2.4384 C   0  0  0  0  0  0  0  0  0  0  0  0
   -2.8368   -0.3556    3.3074 N   0  0  0  0  0  0  0  0  0  0  0  0
   -2.9735   -1.0456    5.5568 O   0  0  0  0  0  0  0  0  0  0  0  0
   -0.4350   -2.5142   -2.5109 O   0  0  0  0  0  0  0  0  0  0  0  0
   -2.5953   -7.3332   -3.4156 C   0  0  0  0  0  0  0  0  0  0  0  0
   -0.4001   -6.2394   -3.0657 C   0  0  0  0  0  0  0  0  0  0  0  0
   -2.0616   -4.3071   -3.8978 H   0  0  0  0  0  0  0  0  0  0  0  0
   -2.8233   -4.2475    0.1647 H   0  0  0  0  0  0  0  0  0  0  0  0
    0.1966   -4.6436   -0.5427 H   0  0  0  0  0  0  0  0  0  0  0  0
   -5.4247   -4.7383   -4.3112 H   0  0  0  0  0  0  0  0  0  0  0  0
   -0.4201   -2.1399    0.7979 H   0  0  0  0  0  0  0  0  0  0  0  0
   -0.1109   -3.5501    4.1359 H   0  0  0  0  0  0  0  0  0  0  0  0
    0.7938   -0.3804    2.2547 H   0  0  0  0  0  0  0  0  0  0  0  0
    3.0684    0.4843    2.2235 H   0  0  0  0  0  0  0  0  0  0  0  0
    4.9303   -0.8263    3.2014 H   0  0  0  0  0  0  0  0  0  0  0  0
    4.4798   -3.0454    4.2160 H   0  0  0  0  0  0  0  0  0  0  0  0
    2.1940   -3.9555    4.2508 H   0  0  0  0  0  0  0  0  0  0  0  0
   -1.4240   -1.8651    4.6129 H   0  0  0  0  0  0  0  0  0  0  0  0
   -5.4475   -0.4102    5.1471 H   0  0  0  0  0  0  0  0  0  0  0  0
   -5.4934   -0.8681    2.6559 H   0  0  0  0  0  0  0  0  0  0  0  0
   -5.8260    0.8739    2.9142 H   0  0  0  0  0  0  0  0  0  0  0  0
   -3.6602    0.0716    1.3909 H   0  0  0  0  0  0  0  0  0  0  0  0
   -3.4868    1.4363    2.5284 H   0  0  0  0  0  0  0  0  0  0  0  0
   -2.4011   -7.3099   -4.4942 H   0  0  0  0  0  0  0  0  0  0  0  0
   -2.2157   -8.2960   -3.0477 H   0  0  0  0  0  0  0  0  0  0  0  0
   -3.6795   -7.3381   -3.2716 H   0  0  0  0  0  0  0  0  0  0  0  0
    0.1965   -5.4421   -2.6184 H   0  0  0  0  0  0  0  0  0  0  0  0
    0.0375   -7.1920   -2.7401 H   0  0  0  0  0  0  0  0  0  0  0  0
   -0.2524   -6.1680   -4.1486 H   0  0  0  0  0  0  0  0  0  0  0  0
  1  2  1  0  0  0  0
  1  7  1  0  0  0  0
  1  5  1  0  0  0  0
  2  3  1  0  0  0  0
  2  8  1  0  0  0  0
  2 33  1  0  0  0  0
  3  4  1  0  0  0  0
  3 31  1  0  0  0  0
  3 32  1  0  0  0  0
  4  5  1  0  0  0  0
  5  6  1  0  0  0  0
  5 34  1  0  0  0  0
  6  7  1  0  0  0  0
  6 11  1  0  0  0  0
  6 35  1  0  0  0  0
  7 30  2  0  0  0  0
  8  9  2  0  0  0  0
  8 10  1  0  0  0  0
 10 36  1  0  0  0  0
 11 12  1  0  0  0  0
 11 37  1  0  0  0  0
 12 13  2  0  0  0  0
 14 12  1  0  0  0  0
 14 15  1  0  0  0  0
 14 21  1  0  0  0  0
 14 38  1  1  0  0  0
 15 16  2  0  0  0  0
 15 20  1  0  0  0  0
 16 17  1  0  0  0  0
 16 39  1  0  0  0  0
 17 18  2  0  0  0  0
 17 40  1  0  0  0  0
 18 19  1  0  0  0  0
 18 41  1  0  0  0  0
 19 20  2  0  0  0  0
 19 42  1  0  0  0  0
 20 43  1  0  0  0  0
 21 22  1  0  0  0  0
 21 44  1  0  0  0  0
 22 23  2  0  0  0  0
 22 28  1  0  0  0  0
 24 25  1  0  0  0  0
 24 28  1  0  0  0  0
 24 29  2  0  0  0  0
 25 26  1  0  0  0  0
 25 45  1  0  0  0  0
 26 27  1  0  0  0  0
 26 46  1  0  0  0  0
 26 47  1  0  0  0  0
 27 28  1  0  0  0  0
 27 48  1  0  0  0  0
 27 49  1  0  0  0  0
 31 50  1  0  0  0  0
 31 51  1  0  0  0  0
 31 52  1  0  0  0  0
 32 53  1  0  0  0  0
 32 54  1  0  0  0  0
 32 55  1  0  0  0  0
M  END
>  <Mol_ID>
998

>  <Formula>
C20H23N5NaO6S

>  <MolWeight>
484.48129

>  <Cat>
S3195

>  <Name>
Azlocillin sodium salt

>  <Synonyms>
N/A

>  <Target>
Bacterial

>  <Form>
Sodium Salt

>  <CAS>
37091-65-9

>  <URL>
http://selleckchem.com/products/azlocillin-sodium-salt.html

$$$$
