Azosemide
 OpenBabel08302521343D

 34 36  0  0  0  0  0  0  0  0999 V2000
    1.3724   -0.2224    0.0577 C   0  0  0  0  0  0  0  0  0  0  0  0
    0.4649   -1.2618   -0.0554 C   0  0  0  0  0  0  0  0  0  0  0  0
   -0.9042   -0.9743   -0.0719 C   0  0  0  0  0  0  0  0  0  0  0  0
   -1.4085    0.3440    0.0358 C   0  0  0  0  0  0  0  0  0  0  0  0
   -0.4667    1.3848    0.2339 C   0  0  0  0  0  0  0  0  0  0  0  0
    0.9201    1.0913    0.1972 C   0  0  0  0  0  0  0  0  0  0  0  0
    3.1083   -0.5563    0.0662 S   0  0  0  0  0  0  0  0  0  0  0  0
    3.3186   -1.9828    0.1693 O   0  0  0  0  0  0  0  0  0  0  0  0
    3.7389    0.2517   -0.9510 O   0  0  0  0  0  0  0  0  0  0  0  0
    3.5982    0.0700    1.5438 N   0  0  0  0  0  0  0  0  0  0  0  0
   -2.7990    0.4564   -0.0152 N   0  0  0  0  0  0  0  0  0  0  0  0
   -3.5087    1.6018   -0.5778 C   0  0  0  0  0  0  0  0  0  0  0  0
   -4.4936    1.2355   -1.6616 C   0  0  0  0  0  0  0  0  0  0  0  0
   -4.2995    1.2529   -3.0297 C   0  0  0  0  0  0  0  0  0  0  0  0
   -5.4698    0.8778   -3.7510 C   0  0  0  0  0  0  0  0  0  0  0  0
   -6.5176    0.5760   -2.9103 C   0  0  0  0  0  0  0  0  0  0  0  0
   -6.0861    0.7403   -1.2630 S   0  0  0  0  0  0  0  0  0  0  0  0
   -1.7954    3.1482    1.4002 N   0  0  0  0  0  0  0  0  0  0  0  0
   -1.5744    4.4677    1.4490 N   0  0  0  0  0  0  0  0  0  0  0  0
   -0.5395    4.9170    0.7350 N   0  0  0  0  0  0  0  0  0  0  0  0
   -0.0262    3.8323    0.1746 N   0  0  0  0  0  0  0  0  0  0  0  0
   -0.8026    2.7638    0.5776 C   0  0  0  0  0  0  0  0  0  0  0  0
    0.7980   -2.2952   -0.1369 H   0  0  0  0  0  0  0  0  0  0  0  0
   -1.5936   -1.8105   -0.1720 H   0  0  0  0  0  0  0  0  0  0  0  0
    1.6513    1.8891    0.3172 H   0  0  0  0  0  0  0  0  0  0  0  0
    3.9017   -0.6874    2.1571 H   0  0  0  0  0  0  0  0  0  0  0  0
    4.3139    0.7848    1.3937 H   0  0  0  0  0  0  0  0  0  0  0  0
   -3.2961   -0.4132   -0.1819 H   0  0  0  0  0  0  0  0  0  0  0  0
   -4.0487    2.1010    0.2359 H   0  0  0  0  0  0  0  0  0  0  0  0
   -2.8266    2.3398   -1.0127 H   0  0  0  0  0  0  0  0  0  0  0  0
   -3.3611    1.5345   -3.4930 H   0  0  0  0  0  0  0  0  0  0  0  0
   -5.5403    0.8343   -4.8314 H   0  0  0  0  0  0  0  0  0  0  0  0
   -7.5173    0.2660   -3.1840 H   0  0  0  0  0  0  0  0  0  0  0  0
   -2.1559    5.0928    2.0000 H   0  0  0  0  0  0  0  0  0  0  0  0
  1  2  2  0  0  0  0
  1  6  1  0  0  0  0
  1  7  1  0  0  0  0
  2  3  1  0  0  0  0
  2 23  1  0  0  0  0
  3  4  2  0  0  0  0
  3 24  1  0  0  0  0
  4  5  1  0  0  0  0
  4 11  1  0  0  0  0
  5  6  2  0  0  0  0
  5 22  1  0  0  0  0
  6 25  1  0  0  0  0
  7  8  2  0  0  0  0
  7  9  2  0  0  0  0
  7 10  1  0  0  0  0
 10 26  1  0  0  0  0
 10 27  1  0  0  0  0
 11 12  1  0  0  0  0
 11 28  1  0  0  0  0
 12 13  1  0  0  0  0
 12 29  1  0  0  0  0
 12 30  1  0  0  0  0
 13 14  2  0  0  0  0
 13 17  1  0  0  0  0
 14 15  1  0  0  0  0
 14 31  1  0  0  0  0
 15 16  2  0  0  0  0
 15 32  1  0  0  0  0
 16 17  1  0  0  0  0
 16 33  1  0  0  0  0
 18 19  1  0  0  0  0
 18 22  2  0  0  0  0
 19 20  1  0  0  0  0
 19 34  1  0  0  0  0
 20 21  2  0  0  0  0
 21 22  1  0  0  0  0
M  END
>  <Mol_ID>
6440

>  <Formula>
C12H11ClN6O2S2

>  <MolWeight>
370.83774

>  <Cat>
E2358

>  <Name>
Azosemide

>  <Target>
NKCC

>  <Form>
free base

>  <CAS>
27589-33-9

>  <URL>
http://www.selleckchem.com/products/azosemide.html

$$$$
