Azumolene
 OpenBabel08302521353D

 30 32  0  0  0  0  0  0  0  0999 V2000
   17.2413    1.4701    2.2149 Br  0  0  0  0  0  0  0  0  0  0  0  0
   10.3792    0.7507    1.5960 O   0  0  0  0  0  0  0  0  0  0  0  0
    3.8869    3.2156    4.6833 O   0  0  0  0  0  0  0  0  0  0  0  0
    5.3853   -0.3613    2.3672 O   0  0  0  0  0  0  0  0  0  0  0  0
    6.4630    1.6528    2.9756 N   0  0  0  0  0  0  0  0  0  0  0  0
    4.3213    1.3117    3.4956 N   0  0  0  0  0  0  0  0  0  0  0  0
    7.7564    1.4559    2.5592 N   0  0  0  0  0  0  0  0  0  0  0  0
    9.3924   -0.2985   -0.1505 N   0  0  0  0  0  0  0  0  0  0  0  0
    6.1197    2.7924    3.7907 C   0  0  0  0  0  0  0  0  0  0  0  0
    4.6543    2.5028    4.0536 C   0  0  0  0  0  0  0  0  0  0  0  0
    5.3951    0.7457    2.8820 C   0  0  0  0  0  0  0  0  0  0  0  0
   12.7576    0.5378    1.1430 C   0  0  0  0  0  0  0  0  0  0  0  0
   11.3730    0.2744    0.7725 C   0  0  0  0  0  0  0  0  0  0  0  0
    9.2185    0.3693    0.9742 C   0  0  0  0  0  0  0  0  0  0  0  0
    7.9271    0.7019    1.5144 C   0  0  0  0  0  0  0  0  0  0  0  0
   13.0894    1.1892    2.3395 C   0  0  0  0  0  0  0  0  0  0  0  0
   13.8030    0.1493    0.2864 C   0  0  0  0  0  0  0  0  0  0  0  0
   10.7539   -0.3588   -0.2847 C   0  0  0  0  0  0  0  0  0  0  0  0
   14.4255    1.4613    2.6632 C   0  0  0  0  0  0  0  0  0  0  0  0
   15.1376    0.4202    0.6063 C   0  0  0  0  0  0  0  0  0  0  0  0
   15.4414    1.0804    1.7925 C   0  0  0  0  0  0  0  0  0  0  0  0
    3.4190    0.8732    3.5657 H   0  0  0  0  0  0  0  0  0  0  0  0
    6.6914    2.7834    4.7211 H   0  0  0  0  0  0  0  0  0  0  0  0
    6.2442    3.7121    3.2162 H   0  0  0  0  0  0  0  0  0  0  0  0
    7.0828    0.2995    0.9330 H   0  0  0  0  0  0  0  0  0  0  0  0
   12.3088    1.4982    3.0333 H   0  0  0  0  0  0  0  0  0  0  0  0
   13.5957   -0.3645   -0.6498 H   0  0  0  0  0  0  0  0  0  0  0  0
   11.2119   -0.8447   -1.1340 H   0  0  0  0  0  0  0  0  0  0  0  0
   14.6543    1.9743    3.5943 H   0  0  0  0  0  0  0  0  0  0  0  0
   15.9256    0.1173   -0.0786 H   0  0  0  0  0  0  0  0  0  0  0  0
  1 21  1  0  0  0  0
  2 13  1  0  0  0  0
  2 14  1  0  0  0  0
  3 10  2  0  0  0  0
  4 11  2  0  0  0  0
  5  7  1  0  0  0  0
  5  9  1  0  0  0  0
  5 11  1  0  0  0  0
  6 10  1  0  0  0  0
  6 11  1  0  0  0  0
  6 22  1  0  0  0  0
  7 15  2  0  0  0  0
  8 14  2  0  0  0  0
  8 18  1  0  0  0  0
  9 10  1  0  0  0  0
  9 23  1  0  0  0  0
  9 24  1  0  0  0  0
 12 13  1  0  0  0  0
 12 16  2  0  0  0  0
 12 17  1  0  0  0  0
 13 18  2  0  0  0  0
 14 15  1  0  0  0  0
 15 25  1  0  0  0  0
 16 19  1  0  0  0  0
 16 26  1  0  0  0  0
 17 20  2  0  0  0  0
 17 27  1  0  0  0  0
 18 28  1  0  0  0  0
 19 21  2  0  0  0  0
 19 29  1  0  0  0  0
 20 21  1  0  0  0  0
 20 30  1  0  0  0  0
M  END
>  <Mol_ID>
6666

>  <Formula>
C13H9BrN4O3

>  <MolWeight>
349.13956

>  <Cat>
S3191

>  <Name>
Azumolene

>  <Synonyms>
EU4093 free base

>  <Target>
Calcium Channel

>  <Form>
Free base

>  <CAS>
64748-79-4

>  <URL>
http://www.selleckchem.com/products/azumolene.html

$$$$
