B022
 OpenBabel08302521353D

 43 46  0  0  0  0  0  0  0  0999 V2000
    1.0386    0.0921   -0.0047 C   0  0  0  0  0  0  0  0  0  0  0  0
   -0.2652    0.0921   -0.0047 C   0  0  0  0  0  0  0  0  0  0  0  0
   -1.7852    0.0921   -0.0047 C   0  0  3  0  0  0  0  0  0  0  0  0
   -2.3078    0.0355    1.4301 C   0  0  0  0  0  0  0  0  0  0  0  0
   -2.2477    1.3126   -0.5946 O   0  0  0  0  0  0  0  0  0  0  0  0
    2.5466    5.6519   -1.9017 N   0  0  0  0  0  0  0  0  0  0  0  0
    4.4891    1.3893    0.1124 C   0  0  0  0  0  0  0  0  0  0  0  0
    5.2987    2.5326    0.2745 N   0  0  0  0  0  0  0  0  0  0  0  0
    5.2255    0.2083    0.0234 C   0  0  0  0  0  0  0  0  0  0  0  0
    3.1061    1.3486    0.1016 C   0  0  0  0  0  0  0  0  0  0  0  0
    6.6796    2.0711    0.0476 C   0  0  0  0  0  0  0  0  0  0  0  0
    6.6807    0.5246    0.0590 C   0  0  0  0  0  0  0  0  0  0  0  0
    4.6072   -1.0308   -0.0557 C   0  0  0  0  0  0  0  0  0  0  0  0
    2.4650    0.1153    0.0057 C   0  0  0  0  0  0  0  0  0  0  0  0
    3.2092   -1.0727   -0.0631 C   0  0  0  0  0  0  0  0  0  0  0  0
    4.9745    3.8626   -0.0214 C   0  0  0  0  0  0  0  0  0  0  0  0
    5.6829    4.8885    0.5701 C   0  0  0  0  0  0  0  0  0  0  0  0
    3.9317    4.1299   -0.8359 N   0  0  0  0  0  0  0  0  0  0  0  0
    5.2596    6.1669    0.2957 C   0  0  0  0  0  0  0  0  0  0  0  0
    3.6206    5.4035   -1.0704 C   0  0  0  0  0  0  0  0  0  0  0  0
    4.2317    6.4512   -0.5185 N   0  0  0  0  0  0  0  0  0  0  0  0
   -2.3017   -1.0626   -0.8490 C   0  0  0  0  0  0  0  0  0  0  0  0
   -3.0347   -2.0684   -0.3980 N   0  0  0  0  0  0  0  0  0  0  0  0
   -1.9318   -1.1512   -2.5423 S   0  0  0  0  0  0  0  0  0  0  0  0
   -3.3285   -2.9433   -1.4247 C   0  0  0  0  0  0  0  0  0  0  0  0
   -2.8081   -2.6156   -2.6555 C   0  0  0  0  0  0  0  0  0  0  0  0
   -1.9715    0.9068    2.0051 H   0  0  0  0  0  0  0  0  0  0  0  0
   -3.4041    0.0555    1.4501 H   0  0  0  0  0  0  0  0  0  0  0  0
   -1.9717   -0.8661    1.9547 H   0  0  0  0  0  0  0  0  0  0  0  0
   -1.7715    2.0301   -0.1458 H   0  0  0  0  0  0  0  0  0  0  0  0
    2.1323    6.5437   -1.6639 H   0  0  0  0  0  0  0  0  0  0  0  0
    1.9421    4.8430   -1.9247 H   0  0  0  0  0  0  0  0  0  0  0  0
    2.5278    2.2630    0.1762 H   0  0  0  0  0  0  0  0  0  0  0  0
    7.0520    2.4284   -0.9221 H   0  0  0  0  0  0  0  0  0  0  0  0
    7.3550    2.4492    0.8243 H   0  0  0  0  0  0  0  0  0  0  0  0
    7.2057    0.1281   -0.8160 H   0  0  0  0  0  0  0  0  0  0  0  0
    7.1424    0.1378    0.9727 H   0  0  0  0  0  0  0  0  0  0  0  0
    5.1868   -1.9472   -0.1040 H   0  0  0  0  0  0  0  0  0  0  0  0
    2.7014   -2.0330   -0.1187 H   0  0  0  0  0  0  0  0  0  0  0  0
    6.4948    4.7048    1.2588 H   0  0  0  0  0  0  0  0  0  0  0  0
    5.7428    7.0265    0.7494 H   0  0  0  0  0  0  0  0  0  0  0  0
   -3.9325   -3.8182   -1.2179 H   0  0  0  0  0  0  0  0  0  0  0  0
   -2.9016   -3.1482   -3.5906 H   0  0  0  0  0  0  0  0  0  0  0  0
  1  2  3  0  0  0  0
  1 14  1  0  0  0  0
  2  3  1  0  0  0  0
  3  4  1  0  0  0  0
  3  5  1  0  0  0  0
  3 22  1  0  0  0  0
  4 27  1  0  0  0  0
  4 28  1  0  0  0  0
  4 29  1  0  0  0  0
  5 30  1  0  0  0  0
  6 20  1  0  0  0  0
  6 31  1  0  0  0  0
  6 32  1  0  0  0  0
  7  8  1  0  0  0  0
  7  9  1  0  0  0  0
  7 10  2  0  0  0  0
  8 11  1  0  0  0  0
  8 16  1  0  0  0  0
  9 12  1  0  0  0  0
  9 13  2  0  0  0  0
 10 14  1  0  0  0  0
 10 33  1  0  0  0  0
 11 12  1  0  0  0  0
 11 34  1  0  0  0  0
 11 35  1  0  0  0  0
 12 36  1  0  0  0  0
 12 37  1  0  0  0  0
 13 15  1  0  0  0  0
 13 38  1  0  0  0  0
 14 15  2  0  0  0  0
 15 39  1  0  0  0  0
 16 17  2  0  0  0  0
 16 18  1  0  0  0  0
 17 19  1  0  0  0  0
 17 40  1  0  0  0  0
 18 20  2  0  0  0  0
 19 21  2  0  0  0  0
 19 41  1  0  0  0  0
 20 21  1  0  0  0  0
 22 23  2  0  0  0  0
 22 24  1  0  0  0  0
 23 25  1  0  0  0  0
 24 26  1  0  0  0  0
 25 26  2  0  0  0  0
 25 42  1  0  0  0  0
 26 43  1  0  0  0  0
M  END
>  <Mol_ID>
6971

>  <Formula>
C19H16ClN5OS

>  <MolWeight>
397.88124

>  <Cat>
E1714

>  <Name>
B022

>  <Target>
NF-¦ÊB

>  <Form>
free base

>  <CAS>
1202764-53-1

>  <URL>
https://www.selleckchem.com/products/b022.html

$$$$
