BAI1
 OpenBabel08302521233D

 46 49  0  0  0  0  0  0  0  0999 V2000
    0.1427    0.7624    0.5062 C   0  0  0  0  0  0  0  0  0  0  0  0
   -0.2143    0.6507   -0.8669 C   0  0  0  0  0  0  0  0  0  0  0  0
   -0.0996   -0.6959   -1.2238 C   0  0  0  0  0  0  0  0  0  0  0  0
    0.1636   -1.4051   -0.0525 N   0  0  0  0  0  0  0  0  0  0  0  0
    0.5612   -0.5032    0.9300 C   0  0  0  0  0  0  0  0  0  0  0  0
    1.2286   -0.6409    2.1565 C   0  0  0  0  0  0  0  0  0  0  0  0
    1.2332    0.4295    3.0606 C   0  0  0  0  0  0  0  0  0  0  0  0
    0.7369    1.6635    2.6768 C   0  0  0  0  0  0  0  0  0  0  0  0
    0.2389    1.8612    1.3901 C   0  0  0  0  0  0  0  0  0  0  0  0
   -0.5647    1.6055   -1.8530 C   0  0  0  0  0  0  0  0  0  0  0  0
   -0.7219    1.1886   -3.1685 C   0  0  0  0  0  0  0  0  0  0  0  0
   -0.5553   -0.1455   -3.5266 C   0  0  0  0  0  0  0  0  0  0  0  0
   -0.2565   -1.1098   -2.5574 C   0  0  0  0  0  0  0  0  0  0  0  0
    0.7881    3.1077    3.8966 Br  0  0  0  0  0  0  0  0  0  0  0  0
   -1.1436    2.4699   -4.4970 Br  0  0  0  0  0  0  0  0  0  0  0  0
    0.0874   -2.8679    0.0308 C   0  0  0  0  0  0  0  0  0  0  0  0
   -0.7474   -3.5593    1.1629 C   0  0  3  0  0  0  0  0  0  0  0  0
   -0.1380   -3.3103    2.5547 C   0  0  0  0  0  0  0  0  0  0  0  0
   -2.1177   -3.1666    1.0876 O   0  0  0  0  0  0  0  0  0  0  0  0
   -0.5610   -3.9771    3.7967 N   0  0  0  0  0  0  0  0  0  0  0  0
    0.3078   -3.4893    4.9096 C   0  0  0  0  0  0  0  0  0  0  0  0
    1.7457   -4.0763    4.9225 C   0  0  0  0  0  0  0  0  0  0  0  0
    1.7690   -5.5477    4.8754 N   0  0  0  0  0  0  0  0  0  0  0  0
    0.9408   -6.0244    3.7542 C   0  0  0  0  0  0  0  0  0  0  0  0
   -0.4908   -5.4450    3.7564 C   0  0  0  0  0  0  0  0  0  0  0  0
    1.7063   -1.5648    2.4565 H   0  0  0  0  0  0  0  0  0  0  0  0
    1.6343    0.2796    4.0565 H   0  0  0  0  0  0  0  0  0  0  0  0
   -0.0648    2.8498    1.0606 H   0  0  0  0  0  0  0  0  0  0  0  0
   -0.6578    2.6491   -1.5773 H   0  0  0  0  0  0  0  0  0  0  0  0
   -0.6510   -0.4491   -4.5653 H   0  0  0  0  0  0  0  0  0  0  0  0
   -0.1252   -2.1482   -2.8564 H   0  0  0  0  0  0  0  0  0  0  0  0
   -0.3723   -3.2015   -0.9058 H   0  0  0  0  0  0  0  0  0  0  0  0
    1.1204   -3.2312    0.0340 H   0  0  0  0  0  0  0  0  0  0  0  0
   -0.7238   -4.6366    0.9561 H   0  0  0  0  0  0  0  0  0  0  0  0
    0.9384   -3.4546    2.4332 H   0  0  0  0  0  0  0  0  0  0  0  0
   -0.3813   -2.2712    2.7717 H   0  0  0  0  0  0  0  0  0  0  0  0
   -2.1851   -2.2423    1.3960 H   0  0  0  0  0  0  0  0  0  0  0  0
    0.3739   -2.3926    4.8903 H   0  0  0  0  0  0  0  0  0  0  0  0
   -0.1823   -3.7361    5.8597 H   0  0  0  0  0  0  0  0  0  0  0  0
    2.3366   -3.6812    4.0904 H   0  0  0  0  0  0  0  0  0  0  0  0
    2.2580   -3.7499    5.8372 H   0  0  0  0  0  0  0  0  0  0  0  0
    1.3488   -5.8940    5.7395 H   0  0  0  0  0  0  0  0  0  0  0  0
    1.4464   -5.7894    2.8037 H   0  0  0  0  0  0  0  0  0  0  0  0
    0.8835   -7.1182    3.8109 H   0  0  0  0  0  0  0  0  0  0  0  0
   -1.0081   -5.8220    4.6491 H   0  0  0  0  0  0  0  0  0  0  0  0
   -1.0591   -5.8366    2.9064 H   0  0  0  0  0  0  0  0  0  0  0  0
  1  2  1  0  0  0  0
  2  3  2  0  0  0  0
  2 10  1  0  0  0  0
  3  4  1  0  0  0  0
  4  5  1  0  0  0  0
  4 16  1  0  0  0  0
  5  1  1  0  0  0  0
  5  6  2  0  0  0  0
  6  7  1  0  0  0  0
  6 26  1  0  0  0  0
  7  8  2  0  0  0  0
  7 27  1  0  0  0  0
  8  9  1  0  0  0  0
  8 14  1  0  0  0  0
  9  1  2  0  0  0  0
  9 28  1  0  0  0  0
 10 11  2  0  0  0  0
 10 29  1  0  0  0  0
 11 12  1  0  0  0  0
 11 15  1  0  0  0  0
 12 13  2  0  0  0  0
 12 30  1  0  0  0  0
 13  3  1  0  0  0  0
 13 31  1  0  0  0  0
 16 17  1  0  0  0  0
 16 32  1  0  0  0  0
 16 33  1  0  0  0  0
 17 18  1  0  0  0  0
 17 19  1  0  0  0  0
 17 34  1  0  0  0  0
 18 20  1  0  0  0  0
 18 35  1  0  0  0  0
 18 36  1  0  0  0  0
 19 37  1  0  0  0  0
 20 21  1  0  0  0  0
 21 22  1  0  0  0  0
 21 38  1  0  0  0  0
 21 39  1  0  0  0  0
 22 23  1  0  0  0  0
 22 40  1  0  0  0  0
 22 41  1  0  0  0  0
 23 24  1  0  0  0  0
 23 42  1  0  0  0  0
 24 25  1  0  0  0  0
 24 43  1  0  0  0  0
 24 44  1  0  0  0  0
 25 20  1  0  0  0  0
 25 45  1  0  0  0  0
 25 46  1  0  0  0  0
M  END
>  <Mol_ID>
4813

>  <Formula>
C19H21Br2N3O

>  <MolWeight>
467.19754

>  <Cat>
S8865

>  <Name>
BAI1

>  <Synonyms>
N/A

>  <Target>
Bcl-2

>  <Form>
Free Base

>  <CAS>
335165-68-9

>  <URL>
http://www.selleck.cn/products/bai1.html

$$$$
