Bakkenolide A
 OpenBabel08302521223D

 39 41  0  0  0  0  0  0  0  0999 V2000
    0.0978    0.0232    0.1246 C   0  0  2  0  0  0  0  0  0  0  0  0
   -0.8236   -1.0363   -0.4699 C   0  0  0  0  0  0  0  0  0  0  0  0
   -2.1412   -0.7185   -0.3161 O   0  0  0  0  0  0  0  0  0  0  0  0
   -2.2688    0.5195    0.3599 C   0  0  0  0  0  0  0  0  0  0  0  0
   -0.9179    0.8306    0.8923 C   0  0  0  0  0  0  0  0  0  0  0  0
    4.8345    0.5213    0.2357 C   0  0  0  0  0  0  0  0  0  0  0  0
    4.2709    1.9271    0.3813 C   0  0  0  0  0  0  0  0  0  0  0  0
    2.7874    2.0099    0.0289 C   0  0  0  0  0  0  0  0  0  0  0  0
    3.8671   -0.5105    0.8446 C   0  0  1  0  0  0  0  0  0  0  0  0
    2.5278   -0.5522    0.0159 C   0  0  2  0  0  0  0  0  0  0  0  0
    2.2827    0.7826   -0.7478 C   0  0  1  0  0  0  0  0  0  0  0  0
    0.7656    0.8630   -0.9820 C   0  0  0  0  0  0  0  0  0  0  0  0
    1.2640   -0.6156    0.9305 C   0  0  0  0  0  0  0  0  0  0  0  0
   -0.4804   -2.0604   -1.0468 O   0  0  0  0  0  0  0  0  0  0  0  0
    2.5336   -1.7330   -0.9824 C   0  0  0  0  0  0  0  0  0  0  0  0
    4.6257   -1.8386    1.0004 C   0  0  0  0  0  0  0  0  0  0  0  0
   -0.7182    1.6850    1.9070 C   0  0  0  0  0  0  0  0  0  0  0  0
   -2.6100    1.2734   -0.3594 H   0  0  0  0  0  0  0  0  0  0  0  0
   -3.0199    0.4122    1.1500 H   0  0  0  0  0  0  0  0  0  0  0  0
    5.8192    0.4752    0.7147 H   0  0  0  0  0  0  0  0  0  0  0  0
    4.9984    0.2978   -0.8278 H   0  0  0  0  0  0  0  0  0  0  0  0
    4.8494    2.6192   -0.2406 H   0  0  0  0  0  0  0  0  0  0  0  0
    4.4057    2.2625    1.4181 H   0  0  0  0  0  0  0  0  0  0  0  0
    2.6078    2.9222   -0.5530 H   0  0  0  0  0  0  0  0  0  0  0  0
    2.2179    2.1316    0.9572 H   0  0  0  0  0  0  0  0  0  0  0  0
    3.6315   -0.1776    1.8639 H   0  0  0  0  0  0  0  0  0  0  0  0
    2.7909    0.7708   -1.7210 H   0  0  0  0  0  0  0  0  0  0  0  0
    0.5236    0.4644   -1.9749 H   0  0  0  0  0  0  0  0  0  0  0  0
    0.4261    1.9079   -0.9821 H   0  0  0  0  0  0  0  0  0  0  0  0
    1.4428   -0.0469    1.8511 H   0  0  0  0  0  0  0  0  0  0  0  0
    1.0412   -1.6428    1.2400 H   0  0  0  0  0  0  0  0  0  0  0  0
    1.7662   -1.6376   -1.7505 H   0  0  0  0  0  0  0  0  0  0  0  0
    3.4873   -1.8008   -1.5094 H   0  0  0  0  0  0  0  0  0  0  0  0
    2.3610   -2.6863   -0.4641 H   0  0  0  0  0  0  0  0  0  0  0  0
    5.3113   -2.0137    0.1618 H   0  0  0  0  0  0  0  0  0  0  0  0
    5.2431   -1.8043    1.9065 H   0  0  0  0  0  0  0  0  0  0  0  0
    3.9640   -2.7017    1.0977 H   0  0  0  0  0  0  0  0  0  0  0  0
    0.2708    1.8963    2.2937 H   0  0  0  0  0  0  0  0  0  0  0  0
   -1.5525    2.2086    2.3701 H   0  0  0  0  0  0  0  0  0  0  0  0
  1  5  1  1  0  0  0
  1  2  1  0  0  0  0
  1 12  1  0  0  0  0
  1 13  1  0  0  0  0
  2 14  2  0  0  0  0
  2  3  1  0  0  0  0
  3  4  1  0  0  0  0
  4  5  1  0  0  0  0
  4 18  1  0  0  0  0
  4 19  1  0  0  0  0
  5 17  2  0  0  0  0
  6  7  1  0  0  0  0
  6  9  1  0  0  0  0
  6 20  1  0  0  0  0
  6 21  1  0  0  0  0
  7  8  1  0  0  0  0
  7 22  1  0  0  0  0
  7 23  1  0  0  0  0
  8 24  1  0  0  0  0
  8 25  1  0  0  0  0
  9 16  1  0  0  0  0
  9 26  1  1  0  0  0
 10  9  1  0  0  0  0
 10 11  1  0  0  0  0
 10 15  1  6  0  0  0
 11  8  1  0  0  0  0
 11 12  1  0  0  0  0
 11 27  1  6  0  0  0
 12 28  1  0  0  0  0
 12 29  1  0  0  0  0
 13 10  1  0  0  0  0
 13 30  1  0  0  0  0
 13 31  1  0  0  0  0
 15 32  1  0  0  0  0
 15 33  1  0  0  0  0
 15 34  1  0  0  0  0
 16 35  1  0  0  0  0
 16 36  1  0  0  0  0
 16 37  1  0  0  0  0
 17 38  1  0  0  0  0
 17 39  1  0  0  0  0
M  END
>  <Mol_ID>
4652

>  <Formula>
C15H22O2

>  <MolWeight>
234.33398

>  <Cat>
S9554

>  <Name>
Bakkenolide A

>  <Synonyms>
Fukinanolid

>  <Target>
Others

>  <Form>
Free Base

>  <CAS>
19906-72-0

>  <URL>
http://www.selleckchem.com/products/bakkenolide-a.html

$$$$
