Balofloxacin.cdx
 OpenBabel08302522013D

 52 55  0  0  0  0  0  0  0  0999 V2000
    1.1862   -0.0179    0.3696 N   0  0  0  0  0  0  0  0  0  0  0  0
    2.3388   -0.0512    1.1608 C   0  0  0  0  0  0  0  0  0  0  0  0
    2.3883    0.5799    2.4431 C   0  0  0  0  0  0  0  0  0  0  0  0
    3.5534    0.5445    3.2711 C   0  0  0  0  0  0  0  0  0  0  0  0
    4.6997   -0.0951    2.7456 C   0  0  0  0  0  0  0  0  0  0  0  0
    4.6853   -0.6930    1.4835 C   0  0  0  0  0  0  0  0  0  0  0  0
    3.5244   -0.6725    0.7222 C   0  0  0  0  0  0  0  0  0  0  0  0
    3.6482    1.1050    4.5928 N   0  0  0  0  0  0  0  0  0  0  0  0
    4.8327    0.9830    5.3009 C   0  0  0  0  0  0  0  0  0  0  0  0
    5.9743    0.4129    4.8883 C   0  0  0  0  0  0  0  0  0  0  0  0
    5.9631   -0.1760    3.5316 C   0  0  0  0  0  0  0  0  0  0  0  0
    1.2876   -0.0297   -1.0935 C   0  0  0  0  0  0  0  0  0  0  0  0
    0.2068    0.9299   -1.6564 C   0  0  3  0  0  0  0  0  0  0  0  0
   -1.1887    0.5062   -1.1494 C   0  0  0  0  0  0  0  0  0  0  0  0
   -1.2337    0.2821    0.3684 C   0  0  0  0  0  0  0  0  0  0  0  0
   -0.0691   -0.5708    0.8853 C   0  0  0  0  0  0  0  0  0  0  0  0
    0.1675    1.0229   -3.1272 N   0  0  0  0  0  0  0  0  0  0  0  0
    1.3985    1.5726   -3.6838 C   0  0  0  0  0  0  0  0  0  0  0  0
    3.5604   -1.3150   -0.4576 F   0  0  0  0  0  0  0  0  0  0  0  0
    1.2419    1.1669    2.9413 O   0  0  0  0  0  0  0  0  0  0  0  0
    0.8459    2.3526    2.2523 C   0  0  0  0  0  0  0  0  0  0  0  0
    6.9373   -0.7347    3.0388 O   0  0  0  0  0  0  0  0  0  0  0  0
    2.4846    1.7245    5.2676 C   0  0  0  0  0  0  0  0  0  0  0  0
    7.1140    0.4377    5.8213 C   0  0  0  0  0  0  0  0  0  0  0  0
    7.0960    0.9363    6.9358 O   0  0  0  0  0  0  0  0  0  0  0  0
    8.2353   -0.1346    5.3607 O   0  0  0  0  0  0  0  0  0  0  0  0
    2.2582    3.2129    5.1203 C   0  0  0  0  0  0  0  0  0  0  0  0
    2.5007    2.6334    6.4736 C   0  0  0  0  0  0  0  0  0  0  0  0
    5.5630   -1.1980    1.0874 H   0  0  0  0  0  0  0  0  0  0  0  0
    4.7899    1.4137    6.2957 H   0  0  0  0  0  0  0  0  0  0  0  0
    1.1431   -1.0480   -1.4784 H   0  0  0  0  0  0  0  0  0  0  0  0
    2.2694    0.3229   -1.4242 H   0  0  0  0  0  0  0  0  0  0  0  0
    0.4016    1.9350   -1.2569 H   0  0  0  0  0  0  0  0  0  0  0  0
   -1.9235    1.2796   -1.4100 H   0  0  0  0  0  0  0  0  0  0  0  0
   -1.5087   -0.4163   -1.6487 H   0  0  0  0  0  0  0  0  0  0  0  0
   -1.2272    1.2593    0.8622 H   0  0  0  0  0  0  0  0  0  0  0  0
   -2.1841   -0.1880    0.6443 H   0  0  0  0  0  0  0  0  0  0  0  0
   -0.1051   -0.6117    1.9788 H   0  0  0  0  0  0  0  0  0  0  0  0
   -0.1817   -1.6039    0.5346 H   0  0  0  0  0  0  0  0  0  0  0  0
   -0.0035    0.1020   -3.5303 H   0  0  0  0  0  0  0  0  0  0  0  0
    2.2387    0.8792   -3.5792 H   0  0  0  0  0  0  0  0  0  0  0  0
    1.2629    1.7603   -4.7531 H   0  0  0  0  0  0  0  0  0  0  0  0
    1.6611    2.5261   -3.2137 H   0  0  0  0  0  0  0  0  0  0  0  0
    1.5207    3.1828    2.4696 H   0  0  0  0  0  0  0  0  0  0  0  0
    0.7717    2.2397    1.1707 H   0  0  0  0  0  0  0  0  0  0  0  0
   -0.1514    2.6136    2.6244 H   0  0  0  0  0  0  0  0  0  0  0  0
    1.6267    1.0543    5.2657 H   0  0  0  0  0  0  0  0  0  0  0  0
    8.8827   -0.0261    6.0825 H   0  0  0  0  0  0  0  0  0  0  0  0
    3.0513    3.8060    4.6785 H   0  0  0  0  0  0  0  0  0  0  0  0
    1.2591    3.5514    4.8786 H   0  0  0  0  0  0  0  0  0  0  0  0
    1.6501    2.5761    7.1463 H   0  0  0  0  0  0  0  0  0  0  0  0
    3.4227    2.9003    6.9699 H   0  0  0  0  0  0  0  0  0  0  0  0
  1  2  1  0  0  0  0
  1 12  1  0  0  0  0
  2  3  2  0  0  0  0
  3  4  1  0  0  0  0
  3 20  1  0  0  0  0
  4  5  2  0  0  0  0
  4  8  1  0  0  0  0
  5  6  1  0  0  0  0
  6  7  2  0  0  0  0
  6 29  1  0  0  0  0
  7  2  1  0  0  0  0
  7 19  1  0  0  0  0
  8  9  1  0  0  0  0
  8 23  1  0  0  0  0
  9 10  2  0  0  0  0
  9 30  1  0  0  0  0
 10 11  1  0  0  0  0
 10 24  1  0  0  0  0
 11  5  1  0  0  0  0
 11 22  2  0  0  0  0
 12 13  1  0  0  0  0
 12 31  1  0  0  0  0
 12 32  1  0  0  0  0
 13 14  1  0  0  0  0
 13 17  1  0  0  0  0
 13 33  1  0  0  0  0
 14 15  1  0  0  0  0
 14 34  1  0  0  0  0
 14 35  1  0  0  0  0
 15 16  1  0  0  0  0
 15 36  1  0  0  0  0
 15 37  1  0  0  0  0
 16  1  1  0  0  0  0
 16 38  1  0  0  0  0
 16 39  1  0  0  0  0
 17 18  1  0  0  0  0
 17 40  1  0  0  0  0
 18 41  1  0  0  0  0
 18 42  1  0  0  0  0
 18 43  1  0  0  0  0
 20 21  1  0  0  0  0
 21 44  1  0  0  0  0
 21 45  1  0  0  0  0
 21 46  1  0  0  0  0
 23 27  1  0  0  0  0
 23 47  1  0  0  0  0
 24 25  2  0  0  0  0
 24 26  1  0  0  0  0
 26 48  1  0  0  0  0
 27 28  1  0  0  0  0
 27 49  1  0  0  0  0
 27 50  1  0  0  0  0
 28 23  1  0  0  0  0
 28 51  1  0  0  0  0
 28 52  1  0  0  0  0
M  END
>  <Mol_ID>
1130

>  <Formula>
C20H24FN3O4

>  <MolWeight>
389.4206632

>  <Cat>
S2064

>  <Name>
Balofloxacin

>  <Synonyms>
Q-35,Q-roxin

>  <Target>
Topoisomerase

>  <Form>
free base

>  <CAS>
127294-70-6

>  <URL>
http://selleckchem.com/products/balofloxacin.html

$$$$
