BAM 15
 OpenBabel08302521283D

 35 38  0  0  0  0  0  0  0  0999 V2000
    2.9395    0.8031    0.0719 F   0  0  0  0  0  0  0  0  0  0  0  0
   -3.4305    3.8085    1.5339 F   0  0  0  0  0  0  0  0  0  0  0  0
   -1.0802    7.7437   -1.4687 O   0  0  0  0  0  0  0  0  0  0  0  0
    0.7822    2.5440    0.0187 N   0  0  0  0  0  0  0  0  0  0  0  0
   -0.6787    3.3955    2.2458 N   0  0  0  0  0  0  0  0  0  0  0  0
    0.3698    4.5870   -1.1501 N   0  0  0  0  0  0  0  0  0  0  0  0
   -1.2087    5.4836    1.1863 N   0  0  0  0  0  0  0  0  0  0  0  0
   -0.2824    6.7323   -2.0085 N   0  0  0  0  0  0  0  0  0  0  0  0
   -1.5470    7.4237   -0.1960 N   0  0  0  0  0  0  0  0  0  0  0  0
    0.1833    3.8355   -0.0289 C   0  0  0  0  0  0  0  0  0  0  0  0
   -0.5988    4.2663    1.1099 C   0  0  0  0  0  0  0  0  0  0  0  0
    1.1246    1.7579   -1.1109 C   0  0  0  0  0  0  0  0  0  0  0  0
   -1.7449    3.4582    3.1880 C   0  0  0  0  0  0  0  0  0  0  0  0
   -0.2688    5.7826   -1.0720 C   0  0  0  0  0  0  0  0  0  0  0  0
   -1.0403    6.2121    0.0542 C   0  0  0  0  0  0  0  0  0  0  0  0
    2.1932    0.8533   -1.0436 C   0  0  0  0  0  0  0  0  0  0  0  0
   -3.0858    3.6785    2.8250 C   0  0  0  0  0  0  0  0  0  0  0  0
    0.3428    1.7540   -2.2752 C   0  0  0  0  0  0  0  0  0  0  0  0
   -1.4721    3.1689    4.5300 C   0  0  0  0  0  0  0  0  0  0  0  0
    2.5074    0.0069   -2.1053 C   0  0  0  0  0  0  0  0  0  0  0  0
   -4.0995    3.7389    3.7809 C   0  0  0  0  0  0  0  0  0  0  0  0
    0.6484    0.9082   -3.3461 C   0  0  0  0  0  0  0  0  0  0  0  0
   -2.4872    3.2200    5.4939 C   0  0  0  0  0  0  0  0  0  0  0  0
    1.7328    0.0359   -3.2623 C   0  0  0  0  0  0  0  0  0  0  0  0
   -3.7948    3.5264    5.1233 C   0  0  0  0  0  0  0  0  0  0  0  0
    1.5288    2.5394    0.7131 H   0  0  0  0  0  0  0  0  0  0  0  0
   -0.5961    2.4334    1.9109 H   0  0  0  0  0  0  0  0  0  0  0  0
   -0.5202    2.4092   -2.3639 H   0  0  0  0  0  0  0  0  0  0  0  0
   -0.4555    2.9381    4.8410 H   0  0  0  0  0  0  0  0  0  0  0  0
    3.3497   -0.6723   -2.0212 H   0  0  0  0  0  0  0  0  0  0  0  0
   -5.1174    3.9510    3.4688 H   0  0  0  0  0  0  0  0  0  0  0  0
    0.0328    0.9300   -4.2421 H   0  0  0  0  0  0  0  0  0  0  0  0
   -2.2507    3.0300    6.5381 H   0  0  0  0  0  0  0  0  0  0  0  0
    1.9654   -0.6222   -4.0961 H   0  0  0  0  0  0  0  0  0  0  0  0
   -4.5780    3.5880    5.8756 H   0  0  0  0  0  0  0  0  0  0  0  0
  1 16  1  0  0  0  0
  2 17  1  0  0  0  0
  3  8  1  0  0  0  0
  3  9  1  0  0  0  0
  4 10  1  0  0  0  0
  4 12  1  0  0  0  0
  4 26  1  0  0  0  0
  5 11  1  0  0  0  0
  5 13  1  0  0  0  0
  5 27  1  0  0  0  0
  6 10  2  0  0  0  0
  6 14  1  0  0  0  0
  7 11  2  0  0  0  0
  7 15  1  0  0  0  0
  8 14  2  0  0  0  0
  9 15  2  0  0  0  0
 10 11  1  0  0  0  0
 12 16  2  0  0  0  0
 12 18  1  0  0  0  0
 13 17  2  0  0  0  0
 13 19  1  0  0  0  0
 14 15  1  0  0  0  0
 16 20  1  0  0  0  0
 17 21  1  0  0  0  0
 18 22  2  0  0  0  0
 18 28  1  0  0  0  0
 19 23  2  0  0  0  0
 19 29  1  0  0  0  0
 20 24  2  0  0  0  0
 20 30  1  0  0  0  0
 21 25  2  0  0  0  0
 21 31  1  0  0  0  0
 22 24  1  0  0  0  0
 22 32  1  0  0  0  0
 23 25  1  0  0  0  0
 23 33  1  0  0  0  0
 24 34  1  0  0  0  0
 25 35  1  0  0  0  0
M  END
>  <Mol_ID>
5377

>  <Formula>
C16H10F2N6O

>  <MolWeight>
340.2870064

>  <Cat>
S0411

>  <Name>
BAM 15

>  <Synonyms>
N/A

>  <Target>
AMPK,Apoptosis related,Mitochondrial Metabolism

>  <Form>
Free Base

>  <CAS>
210302-17-3

>  <URL>
https://www.selleckchem.com/products/bam-15.html

$$$$
