Bambuterol HCl.cdx
 OpenBabel08302522063D

 55 55  0  0  0  0  0  0  0  0999 V2000
    1.4221   -0.1694    0.1950 C   0  0  0  0  0  0  0  0  0  0  0  0
    0.5957   -1.2843    0.3217 C   0  0  0  0  0  0  0  0  0  0  0  0
   -0.7743   -1.1399    0.1073 C   0  0  0  0  0  0  0  0  0  0  0  0
   -1.3320    0.1215   -0.0945 C   0  0  0  0  0  0  0  0  0  0  0  0
   -0.5146    1.2669   -0.0617 C   0  0  0  0  0  0  0  0  0  0  0  0
    0.8836    1.0941   -0.0353 C   0  0  0  0  0  0  0  0  0  0  0  0
   -1.5114   -2.3478    0.1521 O   0  0  0  0  0  0  0  0  0  0  0  0
   -2.7600   -2.6367   -0.4150 C   0  0  0  0  0  0  0  0  0  0  0  0
   -3.0673   -3.9936   -0.3252 N   0  0  0  0  0  0  0  0  0  0  0  0
   -3.4792   -1.8072   -0.9478 O   0  0  0  0  0  0  0  0  0  0  0  0
   -2.0953   -4.9825    0.1173 C   0  0  0  0  0  0  0  0  0  0  0  0
   -4.2267   -4.5032   -1.0223 C   0  0  0  0  0  0  0  0  0  0  0  0
    2.8245   -0.2981    0.1930 O   0  0  0  0  0  0  0  0  0  0  0  0
    3.4384   -1.0744    1.1784 C   0  0  0  0  0  0  0  0  0  0  0  0
    2.8723   -1.4692    2.1989 O   0  0  0  0  0  0  0  0  0  0  0  0
    4.7596   -1.3708    0.8752 N   0  0  0  0  0  0  0  0  0  0  0  0
    5.5257   -2.2053    1.7796 C   0  0  0  0  0  0  0  0  0  0  0  0
    5.3023   -1.1402   -0.4522 C   0  0  0  0  0  0  0  0  0  0  0  0
   -1.0877    2.6780    0.0519 C   0  0  3  0  0  0  0  0  0  0  0  0
   -2.5974    2.7000    0.4219 C   0  0  0  0  0  0  0  0  0  0  0  0
   -3.0983    4.0248    0.8067 N   0  0  0  0  0  0  0  0  0  0  0  0
   -4.5218    4.0677    1.1909 C   0  0  0  0  0  0  0  0  0  0  0  0
   -0.3743    3.3444    1.1132 O   0  0  0  0  0  0  0  0  0  0  0  0
   -4.8466    3.1726    2.4008 C   0  0  0  0  0  0  0  0  0  0  0  0
   -4.8257    5.5277    1.5717 C   0  0  0  0  0  0  0  0  0  0  0  0
   -5.4186    3.6772    0.0034 C   0  0  0  0  0  0  0  0  0  0  0  0
    0.9996   -2.2560    0.5602 H   0  0  0  0  0  0  0  0  0  0  0  0
   -2.4058    0.2026   -0.2281 H   0  0  0  0  0  0  0  0  0  0  0  0
    1.5439    1.9575   -0.1299 H   0  0  0  0  0  0  0  0  0  0  0  0
   -2.6092   -5.7572    0.6927 H   0  0  0  0  0  0  0  0  0  0  0  0
   -1.6279   -5.4326   -0.7661 H   0  0  0  0  0  0  0  0  0  0  0  0
   -1.3146   -4.5485    0.7445 H   0  0  0  0  0  0  0  0  0  0  0  0
   -5.0108   -3.7392   -1.1058 H   0  0  0  0  0  0  0  0  0  0  0  0
   -3.9284   -4.8181   -2.0284 H   0  0  0  0  0  0  0  0  0  0  0  0
   -4.6323   -5.3639   -0.4789 H   0  0  0  0  0  0  0  0  0  0  0  0
    5.4754   -3.2381    1.4242 H   0  0  0  0  0  0  0  0  0  0  0  0
    6.5670   -1.8692    1.7926 H   0  0  0  0  0  0  0  0  0  0  0  0
    5.1283   -2.1592    2.7971 H   0  0  0  0  0  0  0  0  0  0  0  0
    4.5918   -1.4934   -1.2056 H   0  0  0  0  0  0  0  0  0  0  0  0
    5.4699   -0.0682   -0.5870 H   0  0  0  0  0  0  0  0  0  0  0  0
    6.2483   -1.6751   -0.5779 H   0  0  0  0  0  0  0  0  0  0  0  0
   -0.9095    3.2391   -0.8719 H   0  0  0  0  0  0  0  0  0  0  0  0
   -3.1617    2.3131   -0.4323 H   0  0  0  0  0  0  0  0  0  0  0  0
   -2.7376    2.0253    1.2728 H   0  0  0  0  0  0  0  0  0  0  0  0
   -2.5068    4.3908    1.5553 H   0  0  0  0  0  0  0  0  0  0  0  0
   -0.5502    2.8320    1.9215 H   0  0  0  0  0  0  0  0  0  0  0  0
   -4.2107    3.4129    3.2605 H   0  0  0  0  0  0  0  0  0  0  0  0
   -5.8892    3.3058    2.7146 H   0  0  0  0  0  0  0  0  0  0  0  0
   -4.7216    2.1084    2.1742 H   0  0  0  0  0  0  0  0  0  0  0  0
   -4.6073    6.2104    0.7422 H   0  0  0  0  0  0  0  0  0  0  0  0
   -5.8829    5.6546    1.8326 H   0  0  0  0  0  0  0  0  0  0  0  0
   -4.2327    5.8489    2.4361 H   0  0  0  0  0  0  0  0  0  0  0  0
   -5.1751    4.2668   -0.8880 H   0  0  0  0  0  0  0  0  0  0  0  0
   -5.3204    2.6176   -0.2559 H   0  0  0  0  0  0  0  0  0  0  0  0
   -6.4755    3.8506    0.2356 H   0  0  0  0  0  0  0  0  0  0  0  0
  1  2  2  0  0  0  0
  1 13  1  0  0  0  0
  2  3  1  0  0  0  0
  2 27  1  0  0  0  0
  3  4  2  0  0  0  0
  3  7  1  0  0  0  0
  4  5  1  0  0  0  0
  4 28  1  0  0  0  0
  5  6  2  0  0  0  0
  5 19  1  0  0  0  0
  6  1  1  0  0  0  0
  6 29  1  0  0  0  0
  7  8  1  0  0  0  0
  8  9  1  0  0  0  0
  8 10  2  0  0  0  0
  9 11  1  0  0  0  0
  9 12  1  0  0  0  0
 11 30  1  0  0  0  0
 11 31  1  0  0  0  0
 11 32  1  0  0  0  0
 12 33  1  0  0  0  0
 12 34  1  0  0  0  0
 12 35  1  0  0  0  0
 13 14  1  0  0  0  0
 14 15  2  0  0  0  0
 14 16  1  0  0  0  0
 16 17  1  0  0  0  0
 16 18  1  0  0  0  0
 17 36  1  0  0  0  0
 17 37  1  0  0  0  0
 17 38  1  0  0  0  0
 18 39  1  0  0  0  0
 18 40  1  0  0  0  0
 18 41  1  0  0  0  0
 19 20  1  0  0  0  0
 19 23  1  0  0  0  0
 19 42  1  0  0  0  0
 20 21  1  0  0  0  0
 20 43  1  0  0  0  0
 20 44  1  0  0  0  0
 21 22  1  0  0  0  0
 21 45  1  0  0  0  0
 22 24  1  0  0  0  0
 22 25  1  0  0  0  0
 22 26  1  0  0  0  0
 23 46  1  0  0  0  0
 24 47  1  0  0  0  0
 24 48  1  0  0  0  0
 24 49  1  0  0  0  0
 25 50  1  0  0  0  0
 25 51  1  0  0  0  0
 25 52  1  0  0  0  0
 26 53  1  0  0  0  0
 26 54  1  0  0  0  0
 26 55  1  0  0  0  0
M  END
>  <Mol_ID>
1427

>  <Formula>
C18H30ClN3O5

>  <MolWeight>
403.9009

>  <Cat>
S4277

>  <Name>
Bambuterol HCl

>  <Synonyms>
Bambuterol hydrochloride,KWD-2183 hydrochloride

>  <Target>
Adrenergic Receptor

>  <Form>
Hydrochloride

>  <CAS>
81732-46-9

>  <URL>
http://selleckchem.com/products/bambuterol-hci.html

$$$$
