BAMB-4
 OpenBabel08302521323D

 31 33  0  0  0  0  0  0  0  0999 V2000
    0.7335   -0.0335    0.0480 N   0  0  0  0  0  0  0  0  0  0  0  0
    0.0573    0.9939    0.6805 C   0  0  0  0  0  0  0  0  0  0  0  0
   -1.0149    0.8932    1.2719 O   0  0  0  0  0  0  0  0  0  0  0  0
    2.0198    6.4427    0.7045 C   0  0  0  0  0  0  0  0  0  0  0  0
    0.8751   -2.4886   -0.4670 C   0  0  0  0  0  0  0  0  0  0  0  0
    0.1746   -1.3012   -0.0918 C   0  0  0  0  0  0  0  0  0  0  0  0
   -0.0989   -3.4740   -0.4279 C   0  0  0  0  0  0  0  0  0  0  0  0
    2.1902   -2.8726   -0.7940 C   0  0  0  0  0  0  0  0  0  0  0  0
   -1.1240   -1.5704    0.1006 N   0  0  0  0  0  0  0  0  0  0  0  0
   -1.2893   -2.9197   -0.1002 O   0  0  0  0  0  0  0  0  0  0  0  0
    0.1201   -4.8254   -0.6778 C   0  0  0  0  0  0  0  0  0  0  0  0
    2.4486   -4.2314   -1.0494 C   0  0  0  0  0  0  0  0  0  0  0  0
    1.4310   -5.1899   -0.9882 C   0  0  0  0  0  0  0  0  0  0  0  0
    0.7020    2.3357    0.6927 C   0  0  0  0  0  0  0  0  0  0  0  0
    1.5152    2.8034   -0.3436 C   0  0  0  0  0  0  0  0  0  0  0  0
    0.3691    3.1984    1.7474 C   0  0  0  0  0  0  0  0  0  0  0  0
    1.9685    4.1303   -0.3286 C   0  0  0  0  0  0  0  0  0  0  0  0
    0.8210    4.5172    1.7604 C   0  0  0  0  0  0  0  0  0  0  0  0
    1.6116    4.9981    0.7131 C   0  0  0  0  0  0  0  0  0  0  0  0
    1.6974    0.0771   -0.2161 H   0  0  0  0  0  0  0  0  0  0  0  0
    1.1294    7.0806    0.6773 H   0  0  0  0  0  0  0  0  0  0  0  0
    2.6006    6.6785    1.6018 H   0  0  0  0  0  0  0  0  0  0  0  0
    2.6312    6.6840   -0.1704 H   0  0  0  0  0  0  0  0  0  0  0  0
    2.9986   -2.1501   -0.8348 H   0  0  0  0  0  0  0  0  0  0  0  0
   -0.6858   -5.5472   -0.6198 H   0  0  0  0  0  0  0  0  0  0  0  0
    3.4615   -4.5497   -1.2914 H   0  0  0  0  0  0  0  0  0  0  0  0
    1.6604   -6.2361   -1.1791 H   0  0  0  0  0  0  0  0  0  0  0  0
    1.7595    2.1782   -1.1977 H   0  0  0  0  0  0  0  0  0  0  0  0
   -0.2791    2.8527    2.5519 H   0  0  0  0  0  0  0  0  0  0  0  0
    2.5728    4.4952   -1.1569 H   0  0  0  0  0  0  0  0  0  0  0  0
    0.5229    5.1732    2.5759 H   0  0  0  0  0  0  0  0  0  0  0  0
  1  2  1  0  0  0  0
  1  6  1  0  0  0  0
  1 20  1  0  0  0  0
  2  3  2  0  0  0  0
  2 14  1  0  0  0  0
  4 19  1  0  0  0  0
  4 21  1  0  0  0  0
  4 22  1  0  0  0  0
  4 23  1  0  0  0  0
  5  6  1  0  0  0  0
  5  7  1  0  0  0  0
  5  8  2  0  0  0  0
  6  9  2  0  0  0  0
  7 10  1  0  0  0  0
  7 11  2  0  0  0  0
  8 12  1  0  0  0  0
  8 24  1  0  0  0  0
  9 10  1  0  0  0  0
 11 13  1  0  0  0  0
 11 25  1  0  0  0  0
 12 13  2  0  0  0  0
 12 26  1  0  0  0  0
 13 27  1  0  0  0  0
 14 15  2  0  0  0  0
 14 16  1  0  0  0  0
 15 17  1  0  0  0  0
 15 28  1  0  0  0  0
 16 18  2  0  0  0  0
 16 29  1  0  0  0  0
 17 19  2  0  0  0  0
 17 30  1  0  0  0  0
 18 19  1  0  0  0  0
 18 31  1  0  0  0  0
M  END
>  <Mol_ID>
6137

>  <Formula>
C15H12N2O2

>  <MolWeight>
252.26798

>  <Cat>
E0334

>  <Name>
BAMB-4

>  <Synonyms>
N/A

>  <Target>
Calcium Channel

>  <Form>
free base

>  <CAS>
891025-25-5

>  <URL>
http://www.selleckchem.com/products/bamb-4.html

$$$$
