Barnidipine
 OpenBabel08302521283D

 65 68  0  0  0  0  0  0  0  0999 V2000
    0.6078   -0.7902   -2.6494 O   0  0  0  0  0  0  0  0  0  0  0  0
    1.2230    0.0857   -0.6283 O   0  0  0  0  0  0  0  0  0  0  0  0
   -3.4357   -2.0284   -3.9961 O   0  0  0  0  0  0  0  0  0  0  0  0
   -5.3718   -0.8786   -3.6094 O   0  0  0  0  0  0  0  0  0  0  0  0
   -0.5495   -5.7391   -3.4981 O   0  5  0  0  0  0  0  0  0  0  0  0
   -0.8831   -7.0727   -1.7895 O   0  0  0  0  0  0  0  0  0  0  0  0
    3.4542   -1.8285   -4.6559 N   0  0  0  0  0  0  0  0  0  0  0  0
   -3.0655    0.8888   -0.3438 N   0  0  0  0  0  0  0  0  0  0  0  0
   -0.9106   -5.9593   -2.3299 N   0  3  0  0  0  0  0  0  0  0  0  0
    1.9848   -0.9196   -3.0104 C   0  0  1  0  0  0  0  0  0  0  0  0
    2.6401   -2.1431   -2.3869 C   0  0  0  0  0  0  0  0  0  0  0  0
    2.1305   -1.1958   -4.5063 C   0  0  0  0  0  0  0  0  0  0  0  0
    3.5711   -2.6932   -3.4659 C   0  0  0  0  0  0  0  0  0  0  0  0
    4.5120   -0.8007   -4.7319 C   0  0  0  0  0  0  0  0  0  0  0  0
   -1.9999   -1.0630   -2.0111 C   0  0  2  0  0  0  0  0  0  0  0  0
   -1.1073   -0.1009   -1.2266 C   0  0  0  0  0  0  0  0  0  0  0  0
    0.3625   -0.2468   -1.4263 C   0  0  0  0  0  0  0  0  0  0  0  0
    5.9172   -1.3539   -4.8412 C   0  0  0  0  0  0  0  0  0  0  0  0
   -3.4517   -0.5927   -2.1547 C   0  0  0  0  0  0  0  0  0  0  0  0
   -1.6777    0.8058   -0.3989 C   0  0  0  0  0  0  0  0  0  0  0  0
   -1.9454   -2.4640   -1.3807 C   0  0  0  0  0  0  0  0  0  0  0  0
   -3.9280    0.3306   -1.2840 C   0  0  0  0  0  0  0  0  0  0  0  0
    6.2731   -2.2328   -5.8734 C   0  0  0  0  0  0  0  0  0  0  0  0
    6.8929   -0.9795   -3.9037 C   0  0  0  0  0  0  0  0  0  0  0  0
   -0.9631    1.7908    0.4914 C   0  0  0  0  0  0  0  0  0  0  0  0
   -1.4532   -3.5514   -2.1186 C   0  0  0  0  0  0  0  0  0  0  0  0
   -2.3888   -2.6897   -0.0631 C   0  0  0  0  0  0  0  0  0  0  0  0
   -4.2265   -1.1656   -3.3048 C   0  0  0  0  0  0  0  0  0  0  0  0
   -5.3424    0.8463   -1.2102 C   0  0  0  0  0  0  0  0  0  0  0  0
    7.5697   -2.7458   -5.9499 C   0  0  0  0  0  0  0  0  0  0  0  0
    8.1881   -1.4923   -3.9825 C   0  0  0  0  0  0  0  0  0  0  0  0
   -1.4101   -4.8284   -1.5455 C   0  0  0  0  0  0  0  0  0  0  0  0
   -2.3348   -3.9618    0.5092 C   0  0  0  0  0  0  0  0  0  0  0  0
    8.5246   -2.3791   -5.0023 C   0  0  0  0  0  0  0  0  0  0  0  0
   -1.8441   -5.0383   -0.2286 C   0  0  0  0  0  0  0  0  0  0  0  0
   -3.9943   -2.6512   -5.1543 C   0  0  0  0  0  0  0  0  0  0  0  0
   -3.4501    1.6286    0.2416 H   0  0  0  0  0  0  0  0  0  0  0  0
    2.5295   -0.0039   -2.7500 H   0  0  0  0  0  0  0  0  0  0  0  0
    3.1991   -1.8604   -1.4883 H   0  0  0  0  0  0  0  0  0  0  0  0
    1.8988   -2.8955   -2.0935 H   0  0  0  0  0  0  0  0  0  0  0  0
    1.3524   -1.8930   -4.8452 H   0  0  0  0  0  0  0  0  0  0  0  0
    2.0073   -0.2888   -5.1091 H   0  0  0  0  0  0  0  0  0  0  0  0
    4.5921   -2.8129   -3.0901 H   0  0  0  0  0  0  0  0  0  0  0  0
    3.2342   -3.6998   -3.7450 H   0  0  0  0  0  0  0  0  0  0  0  0
    4.3447   -0.1849   -5.6260 H   0  0  0  0  0  0  0  0  0  0  0  0
    4.4615   -0.1169   -3.8760 H   0  0  0  0  0  0  0  0  0  0  0  0
   -1.5944   -1.0979   -3.0295 H   0  0  0  0  0  0  0  0  0  0  0  0
    5.5326   -2.5307   -6.6129 H   0  0  0  0  0  0  0  0  0  0  0  0
    6.6465   -0.2915   -3.0983 H   0  0  0  0  0  0  0  0  0  0  0  0
   -1.2856    2.8095    0.2482 H   0  0  0  0  0  0  0  0  0  0  0  0
   -1.2221    1.5964    1.5385 H   0  0  0  0  0  0  0  0  0  0  0  0
    0.1227    1.7782    0.4150 H   0  0  0  0  0  0  0  0  0  0  0  0
   -1.1176   -3.3939   -3.1437 H   0  0  0  0  0  0  0  0  0  0  0  0
   -2.7826   -1.8682    0.5353 H   0  0  0  0  0  0  0  0  0  0  0  0
   -5.6310    0.9916   -0.1603 H   0  0  0  0  0  0  0  0  0  0  0  0
   -5.4150    1.8180   -1.7091 H   0  0  0  0  0  0  0  0  0  0  0  0
   -6.0832    0.1665   -1.6301 H   0  0  0  0  0  0  0  0  0  0  0  0
    7.8328   -3.4369   -6.7460 H   0  0  0  0  0  0  0  0  0  0  0  0
    8.9318   -1.2024   -3.2449 H   0  0  0  0  0  0  0  0  0  0  0  0
   -2.6761   -4.1107    1.5311 H   0  0  0  0  0  0  0  0  0  0  0  0
    9.5306   -2.7861   -5.0578 H   0  0  0  0  0  0  0  0  0  0  0  0
   -1.8076   -6.0226    0.2315 H   0  0  0  0  0  0  0  0  0  0  0  0
   -4.7797   -3.3537   -4.8644 H   0  0  0  0  0  0  0  0  0  0  0  0
   -4.3654   -1.9063   -5.8631 H   0  0  0  0  0  0  0  0  0  0  0  0
   -3.1905   -3.2154   -5.6397 H   0  0  0  0  0  0  0  0  0  0  0  0
  1 17  1  0  0  0  0
  2 17  2  0  0  0  0
  3 28  1  0  0  0  0
  3 36  1  0  0  0  0
  4 28  2  0  0  0  0
  5  9  1  0  0  0  0
  6  9  2  0  0  0  0
  7 12  1  0  0  0  0
  7 13  1  0  0  0  0
  7 14  1  0  0  0  0
  8 20  1  0  0  0  0
  8 22  1  0  0  0  0
  8 37  1  0  0  0  0
  9 32  1  0  0  0  0
 10  1  1  0  0  0  0
 10 11  1  0  0  0  0
 10 12  1  0  0  0  0
 10 38  1  1  0  0  0
 11 13  1  0  0  0  0
 11 39  1  0  0  0  0
 11 40  1  0  0  0  0
 12 41  1  0  0  0  0
 12 42  1  0  0  0  0
 13 43  1  0  0  0  0
 13 44  1  0  0  0  0
 14 18  1  0  0  0  0
 14 45  1  0  0  0  0
 14 46  1  0  0  0  0
 15 16  1  0  0  0  0
 15 19  1  0  0  0  0
 15 47  1  6  0  0  0
 15 21  1  0  0  0  0
 16 17  1  0  0  0  0
 16 20  2  0  0  0  0
 18 23  2  0  0  0  0
 18 24  1  0  0  0  0
 19 22  2  0  0  0  0
 19 28  1  0  0  0  0
 20 25  1  0  0  0  0
 21 26  2  0  0  0  0
 21 27  1  0  0  0  0
 22 29  1  0  0  0  0
 23 30  1  0  0  0  0
 23 48  1  0  0  0  0
 24 31  2  0  0  0  0
 24 49  1  0  0  0  0
 25 50  1  0  0  0  0
 25 51  1  0  0  0  0
 25 52  1  0  0  0  0
 26 32  1  0  0  0  0
 26 53  1  0  0  0  0
 27 33  2  0  0  0  0
 27 54  1  0  0  0  0
 29 55  1  0  0  0  0
 29 56  1  0  0  0  0
 29 57  1  0  0  0  0
 30 34  2  0  0  0  0
 30 58  1  0  0  0  0
 31 34  1  0  0  0  0
 31 59  1  0  0  0  0
 32 35  2  0  0  0  0
 33 35  1  0  0  0  0
 33 60  1  0  0  0  0
 34 61  1  0  0  0  0
 35 62  1  0  0  0  0
 36 63  1  0  0  0  0
 36 64  1  0  0  0  0
 36 65  1  0  0  0  0
M  CHG  2   5  -1   9   1
M  END
>  <Mol_ID>
5404

>  <Formula>
C27H29N3O6

>  <MolWeight>
491.53566

>  <Cat>
S0870

>  <Name>
Barnidipine

>  <Synonyms>
Libradin, Mepirodipine, Vasexten, YM-09730-5, Cyress, Hypoca, Oldeca

>  <Target>
Calcium Channel

>  <Form>
Free Base

>  <CAS>
104713-75-9

>  <URL>
https://www.selleckchem.com/products/barnidipine.html

$$$$
