Batimastat (BB-94).cdx
 OpenBabel08302519513D

 63 64  0  0  0  0  0  0  0  0999 V2000
    0.8905   -2.2925    0.9028 O   0  0  0  0  0  0  0  0  0  0  0  0
    0.6020   -1.8904    2.2209 N   0  0  0  0  0  0  0  0  0  0  0  0
    1.4201   -0.9769    2.8321 C   0  0  0  0  0  0  0  0  0  0  0  0
    2.8419   -0.7543    2.2568 C   0  0  2  0  0  0  0  0  0  0  0  0
    3.8355   -0.3626    3.4219 C   0  0  1  0  0  0  0  0  0  0  0  0
    3.8974   -1.6493    4.3380 C   0  0  0  0  0  0  0  0  0  0  0  0
    5.2902    0.0668    3.0151 C   0  0  0  0  0  0  0  0  0  0  0  0
    5.5649    1.4072    2.7405 N   0  0  0  0  0  0  0  0  0  0  0  0
    6.9526    1.9062    2.4123 C   0  0  1  0  0  0  0  0  0  0  0  0
    7.5720    1.2344    1.1508 C   0  0  0  0  0  0  0  0  0  0  0  0
    7.1722    3.4737    2.3520 C   0  0  0  0  0  0  0  0  0  0  0  0
    6.2865    4.2690    2.6632 O   0  0  0  0  0  0  0  0  0  0  0  0
    2.6220    0.2640    1.1404 C   0  0  0  0  0  0  0  0  0  0  0  0
    4.0248    0.6829    0.1087 S   0  0  0  0  0  0  0  0  0  0  0  0
    1.0014   -0.3462    3.8092 O   0  0  0  0  0  0  0  0  0  0  0  0
    4.5206   -0.7799   -0.7065 C   0  0  0  0  0  0  0  0  0  0  0  0
    4.0309   -1.0715   -2.3179 S   0  0  0  0  0  0  0  0  0  0  0  0
    5.1007   -2.3936   -2.4741 C   0  0  0  0  0  0  0  0  0  0  0  0
    5.7943   -2.6409   -1.3141 C   0  0  0  0  0  0  0  0  0  0  0  0
    5.4533   -1.7080   -0.2849 C   0  0  0  0  0  0  0  0  0  0  0  0
    4.8050   -1.6176    5.5793 C   0  0  0  0  0  0  0  0  0  0  0  0
    4.4110   -0.5061    6.5429 C   0  0  0  0  0  0  0  0  0  0  0  0
    4.7563   -2.9746    6.3018 C   0  0  0  0  0  0  0  0  0  0  0  0
    6.1860   -0.7775    2.9441 O   0  0  0  0  0  0  0  0  0  0  0  0
    7.3851    1.8574   -0.2242 C   0  0  0  0  0  0  0  0  0  0  0  0
    6.4311    2.8423   -0.5159 C   0  0  0  0  0  0  0  0  0  0  0  0
    6.3325    3.4012   -1.7912 C   0  0  0  0  0  0  0  0  0  0  0  0
    7.1845    2.9774   -2.8037 C   0  0  0  0  0  0  0  0  0  0  0  0
    8.1231    1.9822   -2.5445 C   0  0  0  0  0  0  0  0  0  0  0  0
    8.2189    1.4231   -1.2676 C   0  0  0  0  0  0  0  0  0  0  0  0
    8.4403    3.8795    1.9373 N   0  0  0  0  0  0  0  0  0  0  0  0
    8.8203    5.2426    1.6183 C   0  0  0  0  0  0  0  0  0  0  0  0
    1.2200   -3.2031    1.0272 H   0  0  0  0  0  0  0  0  0  0  0  0
   -0.3832   -1.8381    2.4768 H   0  0  0  0  0  0  0  0  0  0  0  0
    3.1756   -1.7049    1.8213 H   0  0  0  0  0  0  0  0  0  0  0  0
    3.4048    0.4600    4.0043 H   0  0  0  0  0  0  0  0  0  0  0  0
    2.8840   -1.8913    4.6879 H   0  0  0  0  0  0  0  0  0  0  0  0
    4.1990   -2.5050    3.7134 H   0  0  0  0  0  0  0  0  0  0  0  0
    4.8505    2.1148    2.8720 H   0  0  0  0  0  0  0  0  0  0  0  0
    7.5477    1.5855    3.2792 H   0  0  0  0  0  0  0  0  0  0  0  0
    8.6581    1.2065    1.3246 H   0  0  0  0  0  0  0  0  0  0  0  0
    7.2775    0.1863    1.0832 H   0  0  0  0  0  0  0  0  0  0  0  0
    1.8171   -0.0462    0.4660 H   0  0  0  0  0  0  0  0  0  0  0  0
    2.2727    1.2000    1.5940 H   0  0  0  0  0  0  0  0  0  0  0  0
    5.1723   -2.9134   -3.4194 H   0  0  0  0  0  0  0  0  0  0  0  0
    6.5373   -3.4236   -1.2172 H   0  0  0  0  0  0  0  0  0  0  0  0
    5.9355   -1.7023    0.6856 H   0  0  0  0  0  0  0  0  0  0  0  0
    5.8419   -1.4627    5.2666 H   0  0  0  0  0  0  0  0  0  0  0  0
    3.3941   -0.6522    6.9205 H   0  0  0  0  0  0  0  0  0  0  0  0
    5.0902   -0.4797    7.4009 H   0  0  0  0  0  0  0  0  0  0  0  0
    4.4547    0.4726    6.0583 H   0  0  0  0  0  0  0  0  0  0  0  0
    4.9908   -3.7978    5.6175 H   0  0  0  0  0  0  0  0  0  0  0  0
    5.4889   -3.0020    7.1153 H   0  0  0  0  0  0  0  0  0  0  0  0
    3.7685   -3.1704    6.7330 H   0  0  0  0  0  0  0  0  0  0  0  0
    5.7230    3.1872    0.2334 H   0  0  0  0  0  0  0  0  0  0  0  0
    5.5793    4.1596   -1.9887 H   0  0  0  0  0  0  0  0  0  0  0  0
    7.1074    3.4137   -3.7954 H   0  0  0  0  0  0  0  0  0  0  0  0
    8.7789    1.6369   -3.3391 H   0  0  0  0  0  0  0  0  0  0  0  0
    8.9533    0.6397   -1.0914 H   0  0  0  0  0  0  0  0  0  0  0  0
    9.0900    3.1821    1.6039 H   0  0  0  0  0  0  0  0  0  0  0  0
    9.5364    5.5878    2.3693 H   0  0  0  0  0  0  0  0  0  0  0  0
    9.3350    5.2338    0.6486 H   0  0  0  0  0  0  0  0  0  0  0  0
    7.9645    5.9171    1.5657 H   0  0  0  0  0  0  0  0  0  0  0  0
  1  2  1  0  0  0  0
  1 33  1  0  0  0  0
  2  3  1  0  0  0  0
  2 34  1  0  0  0  0
  3 15  2  0  0  0  0
  4  5  1  0  0  0  0
  4  3  1  0  0  0  0
  4 35  1  6  0  0  0
  4 13  1  0  0  0  0
  5 36  1  1  0  0  0
  5  6  1  0  0  0  0
  5  7  1  0  0  0  0
  6 21  1  0  0  0  0
  6 37  1  0  0  0  0
  6 38  1  0  0  0  0
  7  8  1  0  0  0  0
  7 24  2  0  0  0  0
  8 39  1  0  0  0  0
  9 11  1  0  0  0  0
  9  8  1  0  0  0  0
  9 40  1  1  0  0  0
  9 10  1  0  0  0  0
 10 25  1  0  0  0  0
 10 41  1  0  0  0  0
 10 42  1  0  0  0  0
 11 12  2  0  0  0  0
 11 31  1  0  0  0  0
 13 14  1  0  0  0  0
 13 43  1  0  0  0  0
 13 44  1  0  0  0  0
 14 16  1  0  0  0  0
 16 17  1  0  0  0  0
 17 18  1  0  0  0  0
 18 19  2  0  0  0  0
 18 45  1  0  0  0  0
 19 20  1  0  0  0  0
 19 46  1  0  0  0  0
 20 16  2  0  0  0  0
 20 47  1  0  0  0  0
 21 22  1  0  0  0  0
 21 23  1  0  0  0  0
 21 48  1  0  0  0  0
 22 49  1  0  0  0  0
 22 50  1  0  0  0  0
 22 51  1  0  0  0  0
 23 52  1  0  0  0  0
 23 53  1  0  0  0  0
 23 54  1  0  0  0  0
 25 26  2  0  0  0  0
 26 27  1  0  0  0  0
 26 55  1  0  0  0  0
 27 28  2  0  0  0  0
 27 56  1  0  0  0  0
 28 29  1  0  0  0  0
 28 57  1  0  0  0  0
 29 30  2  0  0  0  0
 29 58  1  0  0  0  0
 30 25  1  0  0  0  0
 30 59  1  0  0  0  0
 31 32  1  0  0  0  0
 31 60  1  0  0  0  0
 32 61  1  0  0  0  0
 32 62  1  0  0  0  0
 32 63  1  0  0  0  0
M  END
>  <Mol_ID>
1880

>  <Formula>
C23H31N3O4S2

>  <MolWeight>
477.63994

>  <Cat>
S7155

>  <Name>
Batimastat (BB-94)

>  <Synonyms>
N/A

>  <Target>
MMP

>  <Form>
free base

>  <CAS>
130370-60-4

>  <URL>
http://selleckchem.com/products/bb-94.html

$$$$
