Bavachalcone
 OpenBabel08302521493D

 44 45  0  0  0  0  0  0  0  0999 V2000
    1.0687    0.0000   -0.1267 C   0  0  0  0  0  0  0  0  0  0  0  0
    0.2609    1.0417   -0.8167 C   0  0  0  0  0  0  0  0  0  0  0  0
    0.4920   -0.9456    0.4033 O   0  0  0  0  0  0  0  0  0  0  0  0
    0.7251    1.8164   -1.8100 C   0  0  0  0  0  0  0  0  0  0  0  0
    2.7032    2.5557    0.2096 O   0  0  0  0  0  0  0  0  0  0  0  0
    5.4167   -2.4393   -0.0555 C   0  0  0  0  0  0  0  0  0  0  0  0
    5.7474   -2.9154   -1.4456 C   0  0  0  0  0  0  0  0  0  0  0  0
    6.9682   -3.1901   -1.9485 C   0  0  0  0  0  0  0  0  0  0  0  0
    7.1294   -3.6612   -3.3699 C   0  0  0  0  0  0  0  0  0  0  0  0
    8.2460   -3.0776   -1.1640 C   0  0  0  0  0  0  0  0  0  0  0  0
    6.7059    0.2245   -0.0842 O   0  0  0  0  0  0  0  0  0  0  0  0
   -2.0249    6.1739   -4.0528 O   0  0  0  0  0  0  0  0  0  0  0  0
    2.5515    0.1068   -0.0511 C   0  0  0  0  0  0  0  0  0  0  0  0
    3.2736   -1.1018   -0.0783 C   0  0  0  0  0  0  0  0  0  0  0  0
    3.2573    1.3140    0.0575 C   0  0  0  0  0  0  0  0  0  0  0  0
    4.6813   -1.1168   -0.0589 C   0  0  0  0  0  0  0  0  0  0  0  0
    4.6473    1.3138    0.0236 C   0  0  0  0  0  0  0  0  0  0  0  0
    5.3495    0.1163   -0.0450 C   0  0  0  0  0  0  0  0  0  0  0  0
   -0.0123    2.9521   -2.3693 C   0  0  0  0  0  0  0  0  0  0  0  0
    0.6986    4.1094   -2.7300 C   0  0  0  0  0  0  0  0  0  0  0  0
   -1.3945    2.9119   -2.5759 C   0  0  0  0  0  0  0  0  0  0  0  0
    0.0385    5.2049   -3.2924 C   0  0  0  0  0  0  0  0  0  0  0  0
   -2.0546    4.0068   -3.1336 C   0  0  0  0  0  0  0  0  0  0  0  0
   -1.3359    5.1395   -3.4938 C   0  0  0  0  0  0  0  0  0  0  0  0
   -0.7501    1.1329   -0.4290 H   0  0  0  0  0  0  0  0  0  0  0  0
    1.7323    1.6890   -2.2016 H   0  0  0  0  0  0  0  0  0  0  0  0
    1.7665    2.4878    0.4560 H   0  0  0  0  0  0  0  0  0  0  0  0
    6.3100   -2.3551    0.5724 H   0  0  0  0  0  0  0  0  0  0  0  0
    4.7965   -3.1995    0.4365 H   0  0  0  0  0  0  0  0  0  0  0  0
    4.8781   -3.0621   -2.0877 H   0  0  0  0  0  0  0  0  0  0  0  0
    7.7266   -2.9410   -3.9388 H   0  0  0  0  0  0  0  0  0  0  0  0
    7.6365   -4.6314   -3.3940 H   0  0  0  0  0  0  0  0  0  0  0  0
    6.1686   -3.7768   -3.8825 H   0  0  0  0  0  0  0  0  0  0  0  0
    8.4152   -2.0528   -0.8257 H   0  0  0  0  0  0  0  0  0  0  0  0
    8.2296   -3.7450   -0.2973 H   0  0  0  0  0  0  0  0  0  0  0  0
    9.1125   -3.3531   -1.7750 H   0  0  0  0  0  0  0  0  0  0  0  0
    7.0596   -0.5819   -0.4883 H   0  0  0  0  0  0  0  0  0  0  0  0
   -1.3941    6.8683   -4.3032 H   0  0  0  0  0  0  0  0  0  0  0  0
    2.7273   -2.0471   -0.1205 H   0  0  0  0  0  0  0  0  0  0  0  0
    5.1892    2.2551    0.0568 H   0  0  0  0  0  0  0  0  0  0  0  0
    1.7736    4.1716   -2.5652 H   0  0  0  0  0  0  0  0  0  0  0  0
   -1.9722    2.0292   -2.3155 H   0  0  0  0  0  0  0  0  0  0  0  0
    0.6079    6.0891   -3.5622 H   0  0  0  0  0  0  0  0  0  0  0  0
   -3.1283    3.9695   -3.2943 H   0  0  0  0  0  0  0  0  0  0  0  0
  1  2  1  0  0  0  0
  1  3  2  0  0  0  0
  1 13  1  0  0  0  0
  2  4  2  0  0  0  0
  2 25  1  0  0  0  0
  4 19  1  0  0  0  0
  4 26  1  0  0  0  0
  5 15  1  0  0  0  0
  5 27  1  0  0  0  0
  6  7  1  0  0  0  0
  6 16  1  0  0  0  0
  6 28  1  0  0  0  0
  6 29  1  0  0  0  0
  7  8  2  0  0  0  0
  7 30  1  0  0  0  0
  8  9  1  0  0  0  0
  8 10  1  0  0  0  0
  9 31  1  0  0  0  0
  9 32  1  0  0  0  0
  9 33  1  0  0  0  0
 10 34  1  0  0  0  0
 10 35  1  0  0  0  0
 10 36  1  0  0  0  0
 11 18  1  0  0  0  0
 11 37  1  0  0  0  0
 12 24  1  0  0  0  0
 12 38  1  0  0  0  0
 13 14  2  0  0  0  0
 13 15  1  0  0  0  0
 14 16  1  0  0  0  0
 14 39  1  0  0  0  0
 15 17  2  0  0  0  0
 16 18  2  0  0  0  0
 17 18  1  0  0  0  0
 17 40  1  0  0  0  0
 19 20  2  0  0  0  0
 19 21  1  0  0  0  0
 20 22  1  0  0  0  0
 20 41  1  0  0  0  0
 21 23  2  0  0  0  0
 21 42  1  0  0  0  0
 22 24  2  0  0  0  0
 22 43  1  0  0  0  0
 23 24  1  0  0  0  0
 23 44  1  0  0  0  0
M  END
>  <Mol_ID>
9790

>  <Formula>
C20H20O4

>  <MolWeight>
324.3704

>  <Cat>
E2323

>  <Name>
Bavachalcone

>  <Synonyms>
Broussochalcone B

>  <Target>
¦Á-glucosidase, UGT1A1, UGT1A7

>  <Form>
free base

>  <CAS>
28448-85-3

>  <URL>
https://www.selleckchem.com/products/bavachalcone.html

$$$$
