BAY-8002
 OpenBabel08302521223D

 42 44  0  0  0  0  0  0  0  0999 V2000
    2.5990   -0.8420    0.8900 C   0  0  0  0  0  0  0  0  0  0  0  0
    1.3540   -1.2715    0.4187 C   0  0  0  0  0  0  0  0  0  0  0  0
    0.3143   -0.3566    0.2218 C   0  0  0  0  0  0  0  0  0  0  0  0
    0.5171    0.9907    0.5274 C   0  0  0  0  0  0  0  0  0  0  0  0
    1.7539    1.4199    1.0123 C   0  0  0  0  0  0  0  0  0  0  0  0
    2.7939    0.5065    1.1906 C   0  0  0  0  0  0  0  0  0  0  0  0
    1.1465   -2.9670   -0.0791 S   0  0  0  0  0  0  0  0  0  0  0  0
    0.5672   -3.8994    1.3271 C   0  0  0  0  0  0  0  0  0  0  0  0
   -0.8065   -4.0079    1.5591 C   0  0  0  0  0  0  0  0  0  0  0  0
   -1.2917   -4.8634    2.5631 C   0  0  0  0  0  0  0  0  0  0  0  0
   -0.3824   -5.6029    3.3305 C   0  0  0  0  0  0  0  0  0  0  0  0
    0.9944   -5.4818    3.0963 C   0  0  0  0  0  0  0  0  0  0  0  0
    1.4732   -4.6360    2.0945 C   0  0  0  0  0  0  0  0  0  0  0  0
    0.0913   -2.9985   -1.0762 O   0  0  0  0  0  0  0  0  0  0  0  0
    2.4660   -3.4773   -0.4104 O   0  0  0  0  0  0  0  0  0  0  0  0
   -2.7738   -5.0149    2.6799 C   0  0  0  0  0  0  0  0  0  0  0  0
   -3.2805   -5.6362    3.8094 N   0  0  0  0  0  0  0  0  0  0  0  0
   -3.4741   -4.5359    1.7896 O   0  0  0  0  0  0  0  0  0  0  0  0
   -4.6747   -5.8740    3.9695 C   0  0  0  0  0  0  0  0  0  0  0  0
   -5.3220   -5.6274    5.1927 C   0  0  0  0  0  0  0  0  0  0  0  0
   -6.7060   -5.8551    5.3138 C   0  0  0  0  0  0  0  0  0  0  0  0
   -7.4394   -6.3362    4.2289 C   0  0  0  0  0  0  0  0  0  0  0  0
   -6.8009   -6.5929    3.0238 C   0  0  0  0  0  0  0  0  0  0  0  0
   -5.4281   -6.3616    2.8911 C   0  0  0  0  0  0  0  0  0  0  0  0
   -4.5715   -5.0406    6.3244 C   0  0  0  0  0  0  0  0  0  0  0  0
   -3.3637   -5.0949    6.4784 O   0  0  0  0  0  0  0  0  0  0  0  0
   -5.3624   -4.3386    7.1562 O   0  0  0  0  0  0  0  0  0  0  0  0
    3.4256   -1.5401    1.0003 H   0  0  0  0  0  0  0  0  0  0  0  0
   -0.6420   -0.6741   -0.1892 H   0  0  0  0  0  0  0  0  0  0  0  0
   -0.2824    1.7111    0.3694 H   0  0  0  0  0  0  0  0  0  0  0  0
    1.9129    2.4725    1.2358 H   0  0  0  0  0  0  0  0  0  0  0  0
    3.7627    0.8502    1.5458 H   0  0  0  0  0  0  0  0  0  0  0  0
   -1.5091   -3.4648    0.9265 H   0  0  0  0  0  0  0  0  0  0  0  0
   -0.7186   -6.3129    4.0814 H   0  0  0  0  0  0  0  0  0  0  0  0
    1.6974   -6.0812    3.6724 H   0  0  0  0  0  0  0  0  0  0  0  0
    2.5408   -4.5895    1.8914 H   0  0  0  0  0  0  0  0  0  0  0  0
   -2.7395   -5.5556    4.6697 H   0  0  0  0  0  0  0  0  0  0  0  0
   -7.2232   -5.6350    6.2438 H   0  0  0  0  0  0  0  0  0  0  0  0
   -8.5117   -6.4980    4.3246 H   0  0  0  0  0  0  0  0  0  0  0  0
   -7.3672   -6.9642    2.1703 H   0  0  0  0  0  0  0  0  0  0  0  0
   -4.9542   -6.5720    1.9352 H   0  0  0  0  0  0  0  0  0  0  0  0
   -4.7531   -3.9203    7.7984 H   0  0  0  0  0  0  0  0  0  0  0  0
  1  2  2  0  0  0  0
  1 28  1  0  0  0  0
  2  3  1  0  0  0  0
  2  7  1  0  0  0  0
  3  4  2  0  0  0  0
  3 29  1  0  0  0  0
  4  5  1  0  0  0  0
  4 30  1  0  0  0  0
  5  6  2  0  0  0  0
  5 31  1  0  0  0  0
  6  1  1  0  0  0  0
  6 32  1  0  0  0  0
  7  8  1  0  0  0  0
  7 14  2  0  0  0  0
  7 15  2  0  0  0  0
  8  9  2  0  0  0  0
  9 10  1  0  0  0  0
  9 33  1  0  0  0  0
 10 11  2  0  0  0  0
 10 16  1  0  0  0  0
 11 12  1  0  0  0  0
 11 34  1  0  0  0  0
 12 13  2  0  0  0  0
 12 35  1  0  0  0  0
 13  8  1  0  0  0  0
 13 36  1  0  0  0  0
 16 17  1  0  0  0  0
 16 18  2  0  0  0  0
 17 19  1  0  0  0  0
 17 37  1  0  0  0  0
 19 20  2  0  0  0  0
 20 21  1  0  0  0  0
 20 25  1  0  0  0  0
 21 22  2  0  0  0  0
 21 38  1  0  0  0  0
 22 23  1  0  0  0  0
 22 39  1  0  0  0  0
 23 24  2  0  0  0  0
 23 40  1  0  0  0  0
 24 19  1  0  0  0  0
 24 41  1  0  0  0  0
 25 26  2  0  0  0  0
 25 27  1  0  0  0  0
 27 42  1  0  0  0  0
M  END
>  <Mol_ID>
4685

>  <Formula>
C20H14ClNO5S

>  <MolWeight>
415.84686

>  <Cat>
S8747

>  <Name>
BAY-8002

>  <Synonyms>
N/A

>  <Target>
MCT

>  <Form>
Free Base

>  <CAS>
724440-27-1

>  <URL>
http://www.selleck.cn/products/bay-8002.html

$$$$
