BAY-545
 OpenBabel08302521353D

 51 53  0  0  0  0  0  0  0  0999 V2000
    5.5185   -1.4999   -2.3843 C   0  0  0  0  0  0  0  0  0  0  0  0
    4.8846   -2.8741   -2.5282 C   0  0  0  0  0  0  0  0  0  0  0  0
    3.6410   -3.0171   -1.6489 C   0  0  0  0  0  0  0  0  0  0  0  0
    2.6664   -1.8496   -1.8138 C   0  0  0  0  0  0  0  0  0  0  0  0
    3.3523   -0.5620   -1.6838 N   0  0  0  0  0  0  0  0  0  0  0  0
    4.4965   -0.3938   -2.5840 C   0  0  0  0  0  0  0  0  0  0  0  0
    4.5779   -3.1320   -3.8967 O   0  0  0  0  0  0  0  0  0  0  0  0
    2.9374    0.3361   -0.6790 C   0  0  0  0  0  0  0  0  0  0  0  0
    2.0942   -0.0183    0.1439 O   0  0  0  0  0  0  0  0  0  0  0  0
    3.5608    1.6572   -0.5926 C   0  0  0  0  0  0  0  0  0  0  0  0
    3.7813    2.6295   -1.9959 S   0  0  0  0  0  0  0  0  0  0  0  0
    4.7919    3.6827   -1.1588 C   0  0  0  0  0  0  0  0  0  0  0  0
    4.6109    3.5926    0.1952 C   0  0  0  0  0  0  0  0  0  0  0  0
    3.8940    2.3854    0.5538 C   0  0  0  0  0  0  0  0  0  0  0  0
    5.6050    4.5976   -1.8093 N   0  0  0  0  0  0  0  0  0  0  0  0
    6.0605    5.6797   -1.0431 C   0  0  0  0  0  0  0  0  0  0  0  0
    5.7372    5.6955    0.3156 N   0  0  0  0  0  0  0  0  0  0  0  0
    5.1634    4.6396    1.0279 C   0  0  0  0  0  0  0  0  0  0  0  0
    6.1400    6.8568    1.0952 C   0  0  0  0  0  0  0  0  0  0  0  0
    7.4954    6.6734    1.7597 C   0  0  0  0  0  0  0  0  0  0  0  0
    6.7273    6.5814   -1.5591 O   0  0  0  0  0  0  0  0  0  0  0  0
    6.0022    4.5371   -3.2315 C   0  0  0  0  0  0  0  0  0  0  0  0
    7.5133    4.3656   -3.4385 C   0  0  0  0  0  0  0  0  0  0  0  0
    7.8805    4.2992   -4.9067 C   0  0  0  0  0  0  0  0  0  0  0  0
    6.8011    4.1801   -5.7071 F   0  0  0  0  0  0  0  0  0  0  0  0
    8.5583    5.4015   -5.2947 F   0  0  0  0  0  0  0  0  0  0  0  0
    8.6787    3.2329   -5.1468 F   0  0  0  0  0  0  0  0  0  0  0  0
    3.5968    1.9302    1.9527 C   0  0  0  0  0  0  0  0  0  0  0  0
    5.1342    4.5886    2.2558 O   0  0  0  0  0  0  0  0  0  0  0  0
    5.9507   -1.3986   -1.3806 H   0  0  0  0  0  0  0  0  0  0  0  0
    6.3257   -1.3638   -3.1123 H   0  0  0  0  0  0  0  0  0  0  0  0
    5.6214   -3.6286   -2.2344 H   0  0  0  0  0  0  0  0  0  0  0  0
    3.1219   -3.9522   -1.8859 H   0  0  0  0  0  0  0  0  0  0  0  0
    3.9572   -3.0640   -0.5998 H   0  0  0  0  0  0  0  0  0  0  0  0
    1.8523   -1.9498   -1.0895 H   0  0  0  0  0  0  0  0  0  0  0  0
    2.2081   -1.8716   -2.8086 H   0  0  0  0  0  0  0  0  0  0  0  0
    5.0386    0.5304   -2.4153 H   0  0  0  0  0  0  0  0  0  0  0  0
    4.1083   -0.3771   -3.6079 H   0  0  0  0  0  0  0  0  0  0  0  0
    3.8796   -2.5269   -4.1954 H   0  0  0  0  0  0  0  0  0  0  0  0
    6.1634    7.7425    0.4524 H   0  0  0  0  0  0  0  0  0  0  0  0
    5.3788    7.0431    1.8631 H   0  0  0  0  0  0  0  0  0  0  0  0
    8.2787    6.4990    1.0160 H   0  0  0  0  0  0  0  0  0  0  0  0
    7.7542    7.5674    2.3334 H   0  0  0  0  0  0  0  0  0  0  0  0
    7.4925    5.8203    2.4473 H   0  0  0  0  0  0  0  0  0  0  0  0
    5.5007    3.6922   -3.7260 H   0  0  0  0  0  0  0  0  0  0  0  0
    5.6552    5.4545   -3.7124 H   0  0  0  0  0  0  0  0  0  0  0  0
    8.0716    5.1913   -2.9861 H   0  0  0  0  0  0  0  0  0  0  0  0
    7.8592    3.4577   -2.9289 H   0  0  0  0  0  0  0  0  0  0  0  0
    2.5226    1.7555    2.0776 H   0  0  0  0  0  0  0  0  0  0  0  0
    4.1314    1.0002    2.1754 H   0  0  0  0  0  0  0  0  0  0  0  0
    3.8831    2.6608    2.7094 H   0  0  0  0  0  0  0  0  0  0  0  0
  1  2  1  0  0  0  0
  1 30  1  0  0  0  0
  1 31  1  0  0  0  0
  2  3  1  0  0  0  0
  2  7  1  0  0  0  0
  2 32  1  0  0  0  0
  3  4  1  0  0  0  0
  3 33  1  0  0  0  0
  3 34  1  0  0  0  0
  4  5  1  0  0  0  0
  4 35  1  0  0  0  0
  4 36  1  0  0  0  0
  5  6  1  0  0  0  0
  5  8  1  0  0  0  0
  6  1  1  0  0  0  0
  6 37  1  0  0  0  0
  6 38  1  0  0  0  0
  7 39  1  0  0  0  0
  8  9  2  0  0  0  0
  8 10  1  0  0  0  0
 10 11  1  0  0  0  0
 11 12  1  0  0  0  0
 12 13  2  0  0  0  0
 12 15  1  0  0  0  0
 13 14  1  0  0  0  0
 14 10  2  0  0  0  0
 14 28  1  0  0  0  0
 15 16  1  0  0  0  0
 15 22  1  0  0  0  0
 16 17  1  0  0  0  0
 16 21  2  0  0  0  0
 17 18  1  0  0  0  0
 17 19  1  0  0  0  0
 18 13  1  0  0  0  0
 18 29  2  0  0  0  0
 19 20  1  0  0  0  0
 19 40  1  0  0  0  0
 19 41  1  0  0  0  0
 20 42  1  0  0  0  0
 20 43  1  0  0  0  0
 20 44  1  0  0  0  0
 22 23  1  0  0  0  0
 22 45  1  0  0  0  0
 22 46  1  0  0  0  0
 23 24  1  0  0  0  0
 23 47  1  0  0  0  0
 23 48  1  0  0  0  0
 24 25  1  0  0  0  0
 24 26  1  0  0  0  0
 24 27  1  0  0  0  0
 28 49  1  0  0  0  0
 28 50  1  0  0  0  0
 28 51  1  0  0  0  0
M  END
>  <Mol_ID>
6693

>  <Formula>
C18H22F3N3O4S

>  <MolWeight>
433.4451896

>  <Cat>
S6639

>  <Name>
BAY-545

>  <Synonyms>
N/A

>  <Target>
Adenosine Receptor

>  <Form>
Free base

>  <CAS>
1699717-32-2

>  <URL>
http://www.selleckchem.com/products/bay-545.html

$$$$
