BAY-61-3606.cdx
 OpenBabel08302520003D

 47 50  0  0  0  0  0  0  0  0999 V2000
   -0.8397    2.3692    1.2984 C   0  0  0  0  0  0  0  0  0  0  0  0
    0.4573    1.8224    1.3704 C   0  0  0  0  0  0  0  0  0  0  0  0
    1.1670    1.9453    2.5766 C   0  0  0  0  0  0  0  0  0  0  0  0
    0.5888    2.5933    3.6636 C   0  0  0  0  0  0  0  0  0  0  0  0
   -0.6809    3.1054    3.5110 C   0  0  0  0  0  0  0  0  0  0  0  0
   -1.3818    3.0184    2.3644 N   0  0  0  0  0  0  0  0  0  0  0  0
    1.0375    1.1172    0.1925 C   0  0  0  0  0  0  0  0  0  0  0  0
    0.4086    1.0223   -0.8602 O   0  0  0  0  0  0  0  0  0  0  0  0
    2.2849    0.5646    0.2862 N   0  0  0  0  0  0  0  0  0  0  0  0
   -1.5875    2.3634    0.1016 N   0  0  0  0  0  0  0  0  0  0  0  0
   -2.9648    2.2659    0.0991 C   0  0  0  0  0  0  0  0  0  0  0  0
   -3.6522    2.8226   -0.9960 N   0  0  0  0  0  0  0  0  0  0  0  0
   -5.0263    2.8139   -1.0951 C   0  0  0  0  0  0  0  0  0  0  0  0
   -5.7314    2.2025   -0.0391 C   0  0  0  0  0  0  0  0  0  0  0  0
   -5.0322    1.6512    0.9707 C   0  0  0  0  0  0  0  0  0  0  0  0
   -3.6517    1.6819    1.0438 N   0  0  0  0  0  0  0  0  0  0  0  0
   -5.4413    3.4069   -2.1949 N   0  0  0  0  0  0  0  0  0  0  0  0
   -4.3007    3.8286   -2.8269 C   0  0  0  0  0  0  0  0  0  0  0  0
   -3.1796    3.4779   -2.1097 C   0  0  0  0  0  0  0  0  0  0  0  0
   -5.7344    0.9944    2.1065 C   0  0  0  0  0  0  0  0  0  0  0  0
   -5.1353    0.9986    3.3792 C   0  0  0  0  0  0  0  0  0  0  0  0
   -5.7240    0.3427    4.4672 C   0  0  0  0  0  0  0  0  0  0  0  0
   -6.9503   -0.3256    4.2915 C   0  0  0  0  0  0  0  0  0  0  0  0
   -7.5589   -0.3234    3.0329 C   0  0  0  0  0  0  0  0  0  0  0  0
   -6.9500    0.3178    1.9498 C   0  0  0  0  0  0  0  0  0  0  0  0
   -7.4626   -0.9579    5.3972 O   0  0  0  0  0  0  0  0  0  0  0  0
   -8.6925   -1.6512    5.2435 C   0  0  0  0  0  0  0  0  0  0  0  0
   -5.1773    0.2910    5.7268 O   0  0  0  0  0  0  0  0  0  0  0  0
   -3.9321    0.9476    5.9246 C   0  0  0  0  0  0  0  0  0  0  0  0
    2.1681    1.5508    2.7020 H   0  0  0  0  0  0  0  0  0  0  0  0
    1.1173    2.6980    4.6046 H   0  0  0  0  0  0  0  0  0  0  0  0
   -1.1864    3.6205    4.3230 H   0  0  0  0  0  0  0  0  0  0  0  0
    2.8705    0.5533    1.1066 H   0  0  0  0  0  0  0  0  0  0  0  0
    2.6292    0.0683   -0.5286 H   0  0  0  0  0  0  0  0  0  0  0  0
   -1.1184    1.8463   -0.6452 H   0  0  0  0  0  0  0  0  0  0  0  0
   -6.8123    2.2149   -0.0822 H   0  0  0  0  0  0  0  0  0  0  0  0
   -4.3501    4.3676   -3.7644 H   0  0  0  0  0  0  0  0  0  0  0  0
   -2.1270    3.6437   -2.2817 H   0  0  0  0  0  0  0  0  0  0  0  0
   -4.1890    1.5213    3.4904 H   0  0  0  0  0  0  0  0  0  0  0  0
   -8.5039   -0.8247    2.8524 H   0  0  0  0  0  0  0  0  0  0  0  0
   -7.4369    0.2593    0.9794 H   0  0  0  0  0  0  0  0  0  0  0  0
   -9.5101   -0.9512    5.0423 H   0  0  0  0  0  0  0  0  0  0  0  0
   -8.6277   -2.4189    4.4651 H   0  0  0  0  0  0  0  0  0  0  0  0
   -8.9109   -2.1604    6.1870 H   0  0  0  0  0  0  0  0  0  0  0  0
   -3.1562    0.5473    5.2638 H   0  0  0  0  0  0  0  0  0  0  0  0
   -4.0375    2.0308    5.8032 H   0  0  0  0  0  0  0  0  0  0  0  0
   -3.6139    0.7576    6.9544 H   0  0  0  0  0  0  0  0  0  0  0  0
  1  2  2  0  0  0  0
  1  6  1  0  0  0  0
  1 10  1  0  0  0  0
  2  3  1  0  0  0  0
  2  7  1  0  0  0  0
  3  4  2  0  0  0  0
  3 30  1  0  0  0  0
  4  5  1  0  0  0  0
  4 31  1  0  0  0  0
  5  6  2  0  0  0  0
  5 32  1  0  0  0  0
  7  8  2  0  0  0  0
  7  9  1  0  0  0  0
  9 33  1  0  0  0  0
  9 34  1  0  0  0  0
 10 11  1  0  0  0  0
 10 35  1  0  0  0  0
 11 12  1  0  0  0  0
 11 16  2  0  0  0  0
 12 13  1  0  0  0  0
 12 19  1  0  0  0  0
 13 14  1  0  0  0  0
 13 17  2  0  0  0  0
 14 15  2  0  0  0  0
 14 36  1  0  0  0  0
 15 16  1  0  0  0  0
 15 20  1  0  0  0  0
 17 18  1  0  0  0  0
 18 19  2  0  0  0  0
 18 37  1  0  0  0  0
 19 38  1  0  0  0  0
 20 21  2  0  0  0  0
 20 25  1  0  0  0  0
 21 22  1  0  0  0  0
 21 39  1  0  0  0  0
 22 23  2  0  0  0  0
 22 28  1  0  0  0  0
 23 24  1  0  0  0  0
 23 26  1  0  0  0  0
 24 25  2  0  0  0  0
 24 40  1  0  0  0  0
 25 41  1  0  0  0  0
 26 27  1  0  0  0  0
 27 42  1  0  0  0  0
 27 43  1  0  0  0  0
 27 44  1  0  0  0  0
 28 29  1  0  0  0  0
 29 45  1  0  0  0  0
 29 46  1  0  0  0  0
 29 47  1  0  0  0  0
M  END
>  <Mol_ID>
2700

>  <Formula>
C20H20Cl2N6O3

>  <MolWeight>
463.3172

>  <Cat>
S7006

>  <Name>
BAY-61-3606

>  <Synonyms>
N/A

>  <Target>
Apoptosis related,Syk

>  <Form>
dihydrochloride

>  <CAS>
648903-57-5

>  <URL>
http://selleckchem.com/products/bay-61-3606.html

$$$$
