BAY-218
 OpenBabel08302521223D

 45 47  0  0  0  0  0  0  0  0999 V2000
   -5.4631   11.0965   11.8699 C   0  0  0  0  0  0  0  0  0  0  0  0
   -4.5908   11.3896   12.9111 C   0  0  0  0  0  0  0  0  0  0  0  0
   -3.2139   11.2672   12.7226 C   0  0  0  0  0  0  0  0  0  0  0  0
   -2.7042   10.8195   11.4969 C   0  0  0  0  0  0  0  0  0  0  0  0
   -3.5749   10.4890   10.4541 C   0  0  0  0  0  0  0  0  0  0  0  0
   -4.9574   10.6699   10.6415 C   0  0  0  0  0  0  0  0  0  0  0  0
   -3.0254    9.9030    9.1861 C   0  0  0  0  0  0  0  0  0  0  0  0
   -3.9277    8.9597    8.4982 C   0  0  0  0  0  0  0  0  0  0  0  0
   -3.4952    8.3299    7.4040 C   0  0  0  0  0  0  0  0  0  0  0  0
   -2.1497    8.6490    6.8633 C   0  0  0  0  0  0  0  0  0  0  0  0
   -1.4184    9.6265    7.5613 N   0  0  0  0  0  0  0  0  0  0  0  0
   -1.8380   10.1941    8.7630 N   0  0  0  0  0  0  0  0  0  0  0  0
   -4.4280    7.4006    6.7016 C   0  0  0  0  0  0  0  0  0  0  0  0
   -0.1389   10.0852    7.0976 C   0  0  0  0  0  0  0  0  0  0  0  0
   -1.7334    8.0210    5.8906 O   0  0  0  0  0  0  0  0  0  0  0  0
   -5.2893    6.6894    7.5165 N   0  0  0  0  0  0  0  0  0  0  0  0
   -4.4600    7.3036    5.4806 O   0  0  0  0  0  0  0  0  0  0  0  0
   -6.4403    5.9749    6.9701 C   0  0  2  0  0  0  0  0  0  0  0  0
   -7.5740    6.9567    6.6116 C   0  0  0  0  0  0  0  0  0  0  0  0
   -8.0360    7.6541    7.7743 O   0  0  0  0  0  0  0  0  0  0  0  0
    0.1903   10.0692    5.7289 C   0  0  0  0  0  0  0  0  0  0  0  0
    1.4517   10.4665    5.2712 C   0  0  0  0  0  0  0  0  0  0  0  0
    2.4120   10.8859    6.1820 C   0  0  0  0  0  0  0  0  0  0  0  0
    2.0894   10.9330    7.5332 C   0  0  0  0  0  0  0  0  0  0  0  0
    0.8261   10.5602    7.9952 C   0  0  0  0  0  0  0  0  0  0  0  0
    3.0215   11.3294    8.4108 F   0  0  0  0  0  0  0  0  0  0  0  0
   -6.9006    4.9364    7.9869 C   0  0  0  0  0  0  0  0  0  0  0  0
   -6.5373   11.2005   12.0072 H   0  0  0  0  0  0  0  0  0  0  0  0
   -4.9859   11.7195   13.8705 H   0  0  0  0  0  0  0  0  0  0  0  0
   -2.5354   11.5144   13.5357 H   0  0  0  0  0  0  0  0  0  0  0  0
   -1.6288   10.7123   11.3764 H   0  0  0  0  0  0  0  0  0  0  0  0
   -5.6721   10.4902    9.8434 H   0  0  0  0  0  0  0  0  0  0  0  0
   -4.9124    8.7838    8.9029 H   0  0  0  0  0  0  0  0  0  0  0  0
   -5.3149    6.8637    8.5101 H   0  0  0  0  0  0  0  0  0  0  0  0
   -6.1207    5.4643    6.0542 H   0  0  0  0  0  0  0  0  0  0  0  0
   -7.2293    7.7089    5.8951 H   0  0  0  0  0  0  0  0  0  0  0  0
   -8.4231    6.4313    6.1609 H   0  0  0  0  0  0  0  0  0  0  0  0
   -8.7072    7.0896    8.1963 H   0  0  0  0  0  0  0  0  0  0  0  0
   -0.5400    9.7691    4.9804 H   0  0  0  0  0  0  0  0  0  0  0  0
    1.6746   10.4379    4.2073 H   0  0  0  0  0  0  0  0  0  0  0  0
    3.4030   11.1765    5.8491 H   0  0  0  0  0  0  0  0  0  0  0  0
    0.6334   10.5972    9.0617 H   0  0  0  0  0  0  0  0  0  0  0  0
   -7.7607    4.3711    7.6139 H   0  0  0  0  0  0  0  0  0  0  0  0
   -6.0941    4.2268    8.2041 H   0  0  0  0  0  0  0  0  0  0  0  0
   -7.1841    5.3988    8.9410 H   0  0  0  0  0  0  0  0  0  0  0  0
  1  2  2  0  0  0  0
  1 28  1  0  0  0  0
  2  3  1  0  0  0  0
  2 29  1  0  0  0  0
  3  4  2  0  0  0  0
  3 30  1  0  0  0  0
  4  5  1  0  0  0  0
  4 31  1  0  0  0  0
  5  6  2  0  0  0  0
  5  7  1  0  0  0  0
  6  1  1  0  0  0  0
  6 32  1  0  0  0  0
  7  8  1  0  0  0  0
  8  9  2  0  0  0  0
  8 33  1  0  0  0  0
  9 10  1  0  0  0  0
  9 13  1  0  0  0  0
 10 11  1  0  0  0  0
 10 15  2  0  0  0  0
 11 12  1  0  0  0  0
 11 14  1  0  0  0  0
 12  7  2  0  0  0  0
 13 16  1  0  0  0  0
 13 17  2  0  0  0  0
 14 21  2  0  0  0  0
 16 34  1  0  0  0  0
 18 27  1  0  0  0  0
 18 35  1  6  0  0  0
 18 19  1  0  0  0  0
 18 16  1  0  0  0  0
 19 20  1  0  0  0  0
 19 36  1  0  0  0  0
 19 37  1  0  0  0  0
 20 38  1  0  0  0  0
 21 22  1  0  0  0  0
 21 39  1  0  0  0  0
 22 23  2  0  0  0  0
 22 40  1  0  0  0  0
 23 24  1  0  0  0  0
 23 41  1  0  0  0  0
 24 25  2  0  0  0  0
 24 26  1  0  0  0  0
 25 14  1  0  0  0  0
 25 42  1  0  0  0  0
 27 43  1  0  0  0  0
 27 44  1  0  0  0  0
 27 45  1  0  0  0  0
M  END
>  <Mol_ID>
4701

>  <Formula>
C20H17ClFN3O3

>  <MolWeight>
401.8186832

>  <Cat>
S8842

>  <Name>
BAY-218

>  <Synonyms>
N/A

>  <Target>
AhR

>  <Form>
free base

>  <CAS>
2162982-11-6

>  <URL>
http://www.selleck.cn/products/bay-218.html

$$$$
