BAY1125976
 OpenBabel08302521233D

 50 54  0  0  0  0  0  0  0  0999 V2000
    1.0959    0.6251   -0.3614 O   0  0  0  0  0  0  0  0  0  0  0  0
   10.6359   -8.3360   -1.6866 N   0  0  0  0  0  0  0  0  0  0  0  0
    4.6090   -2.3112   -1.1151 N   0  0  0  0  0  0  0  0  0  0  0  0
    5.0422   -3.5026   -2.9577 N   0  0  0  0  0  0  0  0  0  0  0  0
    3.9734   -1.4358   -0.2763 N   0  0  0  0  0  0  0  0  0  0  0  0
    2.6886    0.3848    1.2547 N   0  0  0  0  0  0  0  0  0  0  0  0
   10.5821   -7.3411   -2.7666 C   0  0  0  0  0  0  0  0  0  0  0  0
   12.0092   -6.7511   -2.9472 C   0  0  0  0  0  0  0  0  0  0  0  0
   10.7779   -8.0526   -4.1286 C   0  0  0  0  0  0  0  0  0  0  0  0
   12.2962   -7.8377   -3.9992 C   0  0  0  0  0  0  0  0  0  0  0  0
    9.3637   -6.3734   -2.5806 C   0  0  0  0  0  0  0  0  0  0  0  0
    9.4971   -5.1677   -1.8750 C   0  0  0  0  0  0  0  0  0  0  0  0
    8.0996   -6.6184   -3.1580 C   0  0  0  0  0  0  0  0  0  0  0  0
    8.4581   -4.2421   -1.7948 C   0  0  0  0  0  0  0  0  0  0  0  0
    7.0292   -5.7246   -3.0220 C   0  0  0  0  0  0  0  0  0  0  0  0
    7.1912   -4.5415   -2.3022 C   0  0  0  0  0  0  0  0  0  0  0  0
    6.0418   -3.6871   -2.0307 C   0  0  0  0  0  0  0  0  0  0  0  0
    5.7808   -3.0000   -0.8410 C   0  0  0  0  0  0  0  0  0  0  0  0
    4.2074   -2.6607   -2.3960 C   0  0  0  0  0  0  0  0  0  0  0  0
    6.5444   -2.9215    0.4199 C   0  0  0  0  0  0  0  0  0  0  0  0
    3.0183   -2.0770   -2.8944 C   0  0  0  0  0  0  0  0  0  0  0  0
    7.1920   -4.0600    0.9306 C   0  0  0  0  0  0  0  0  0  0  0  0
    6.7872   -1.6927    1.0478 C   0  0  0  0  0  0  0  0  0  0  0  0
    2.8966   -0.9114   -0.7946 C   0  0  0  0  0  0  0  0  0  0  0  0
    2.3459   -1.2063   -2.1407 C   0  0  0  0  0  0  0  0  0  0  0  0
    8.1585   -3.9530    1.9334 C   0  0  0  0  0  0  0  0  0  0  0  0
    7.7063   -1.5958    2.0985 C   0  0  0  0  0  0  0  0  0  0  0  0
    8.4184   -2.7176    2.5149 C   0  0  0  0  0  0  0  0  0  0  0  0
    2.1255    0.1077    0.0426 C   0  0  0  0  0  0  0  0  0  0  0  0
    9.7760   -8.8720   -1.5836 H   0  0  0  0  0  0  0  0  0  0  0  0
   11.3891   -9.0166   -1.7633 H   0  0  0  0  0  0  0  0  0  0  0  0
    3.5271   -0.1112    1.5422 H   0  0  0  0  0  0  0  0  0  0  0  0
    2.2381    1.0296    1.8846 H   0  0  0  0  0  0  0  0  0  0  0  0
   12.0164   -5.7393   -3.3734 H   0  0  0  0  0  0  0  0  0  0  0  0
   12.6690   -6.7497   -2.0733 H   0  0  0  0  0  0  0  0  0  0  0  0
   10.4414   -9.0906   -4.2035 H   0  0  0  0  0  0  0  0  0  0  0  0
   10.3476   -7.4960   -4.9719 H   0  0  0  0  0  0  0  0  0  0  0  0
   12.7969   -7.4880   -4.9056 H   0  0  0  0  0  0  0  0  0  0  0  0
   12.8339   -8.7063   -3.6057 H   0  0  0  0  0  0  0  0  0  0  0  0
   10.4376   -4.9416   -1.3753 H   0  0  0  0  0  0  0  0  0  0  0  0
    7.9447   -7.5316   -3.7295 H   0  0  0  0  0  0  0  0  0  0  0  0
    8.6458   -3.3079   -1.2717 H   0  0  0  0  0  0  0  0  0  0  0  0
    6.0680   -5.9660   -3.4710 H   0  0  0  0  0  0  0  0  0  0  0  0
    2.6854   -2.3498   -3.8908 H   0  0  0  0  0  0  0  0  0  0  0  0
    7.0277   -5.0384    0.4809 H   0  0  0  0  0  0  0  0  0  0  0  0
    6.3045   -0.7855    0.6961 H   0  0  0  0  0  0  0  0  0  0  0  0
    1.4313   -0.7201   -2.4661 H   0  0  0  0  0  0  0  0  0  0  0  0
    8.7319   -4.8297    2.2251 H   0  0  0  0  0  0  0  0  0  0  0  0
    7.8970   -0.6311    2.5618 H   0  0  0  0  0  0  0  0  0  0  0  0
    9.1818   -2.6285    3.2830 H   0  0  0  0  0  0  0  0  0  0  0  0
  1 29  2  0  0  0  0
  2  7  1  0  0  0  0
  2 30  1  0  0  0  0
  2 31  1  0  0  0  0
  3  5  1  0  0  0  0
  3 18  1  0  0  0  0
  3 19  1  0  0  0  0
  4 17  1  0  0  0  0
  4 19  2  0  0  0  0
  5 24  2  0  0  0  0
  6 29  1  0  0  0  0
  6 32  1  0  0  0  0
  6 33  1  0  0  0  0
  7  8  1  0  0  0  0
  7  9  1  0  0  0  0
  7 11  1  0  0  0  0
  8 10  1  0  0  0  0
  8 34  1  0  0  0  0
  8 35  1  0  0  0  0
  9 10  1  0  0  0  0
  9 36  1  0  0  0  0
  9 37  1  0  0  0  0
 10 38  1  0  0  0  0
 10 39  1  0  0  0  0
 11 12  2  0  0  0  0
 11 13  1  0  0  0  0
 12 14  1  0  0  0  0
 12 40  1  0  0  0  0
 13 15  2  0  0  0  0
 13 41  1  0  0  0  0
 14 16  2  0  0  0  0
 14 42  1  0  0  0  0
 15 16  1  0  0  0  0
 15 43  1  0  0  0  0
 16 17  1  0  0  0  0
 17 18  2  0  0  0  0
 18 20  1  0  0  0  0
 19 21  1  0  0  0  0
 20 22  2  0  0  0  0
 20 23  1  0  0  0  0
 21 25  2  0  0  0  0
 21 44  1  0  0  0  0
 22 26  1  0  0  0  0
 22 45  1  0  0  0  0
 23 27  2  0  0  0  0
 23 46  1  0  0  0  0
 24 25  1  0  0  0  0
 24 29  1  0  0  0  0
 25 47  1  0  0  0  0
 26 28  2  0  0  0  0
 26 48  1  0  0  0  0
 27 28  1  0  0  0  0
 27 49  1  0  0  0  0
 28 50  1  0  0  0  0
M  END
>  <Mol_ID>
4853

>  <Formula>
C23H21N5O

>  <MolWeight>
383.44574

>  <Cat>
S8500

>  <Name>
BAY1125976

>  <Synonyms>
N/A

>  <Target>
Akt

>  <Form>
Free Base

>  <CAS>
1402608-02-9

>  <URL>
http://www.selleck.cn/products/bay1125976.html

$$$$
