BAY57-1293.cdx
 OpenBabel08302519583D

 45 47  0  0  0  0  0  0  0  0999 V2000
    0.8736    1.1557   -0.3025 C   0  0  0  0  0  0  0  0  0  0  0  0
    0.8803    0.1484   -1.2496 C   0  0  0  0  0  0  0  0  0  0  0  0
    0.1781   -1.0005   -1.1330 N   0  0  0  0  0  0  0  0  0  0  0  0
   -0.5746   -1.1782   -0.0151 C   0  0  0  0  0  0  0  0  0  0  0  0
   -0.6296   -0.2043    0.9837 C   0  0  0  0  0  0  0  0  0  0  0  0
    0.1023    0.9729    0.8360 C   0  0  0  0  0  0  0  0  0  0  0  0
   -1.3376   -2.4436    0.0540 C   0  0  0  0  0  0  0  0  0  0  0  0
   -1.6472   -3.0677    1.2748 C   0  0  0  0  0  0  0  0  0  0  0  0
   -2.3830   -4.2573    1.3213 C   0  0  0  0  0  0  0  0  0  0  0  0
   -2.8226   -4.8706    0.1433 C   0  0  0  0  0  0  0  0  0  0  0  0
   -2.5287   -4.2627   -1.0803 C   0  0  0  0  0  0  0  0  0  0  0  0
   -1.7925   -3.0727   -1.1195 C   0  0  0  0  0  0  0  0  0  0  0  0
   -3.6114   -6.1577    0.1988 C   0  0  0  0  0  0  0  0  0  0  0  0
   -5.1165   -5.9227    0.3607 C   0  0  0  0  0  0  0  0  0  0  0  0
   -5.9690   -6.4360   -0.6304 N   0  0  0  0  0  0  0  0  0  0  0  0
   -5.4870   -5.3355    1.3823 O   0  0  0  0  0  0  0  0  0  0  0  0
   -7.3571   -6.2277   -0.5767 C   0  0  0  0  0  0  0  0  0  0  0  0
   -5.4592   -7.3306   -1.6708 C   0  0  0  0  0  0  0  0  0  0  0  0
   -8.0790   -5.0220    0.3930 S   0  0  0  0  0  0  0  0  0  0  0  0
   -9.6356   -5.4716   -0.1554 C   0  0  0  0  0  0  0  0  0  0  0  0
   -9.5201   -6.4994   -1.0714 C   0  0  0  0  0  0  0  0  0  0  0  0
   -8.2110   -6.9009   -1.3198 N   0  0  0  0  0  0  0  0  0  0  0  0
  -10.5987   -7.2199   -1.7973 C   0  0  0  0  0  0  0  0  0  0  0  0
  -10.9673   -4.5706    0.5506 S   0  0  0  0  0  0  0  0  0  0  0  0
  -10.6788   -3.1695    0.3410 O   0  0  0  0  0  0  0  0  0  0  0  0
  -12.1898   -5.1739    0.0801 O   0  0  0  0  0  0  0  0  0  0  0  0
  -10.9342   -4.8101    2.2146 N   0  0  0  0  0  0  0  0  0  0  0  0
    1.4502    2.0614   -0.4511 H   0  0  0  0  0  0  0  0  0  0  0  0
    1.4662    0.2403   -2.1596 H   0  0  0  0  0  0  0  0  0  0  0  0
   -1.2504   -0.3364    1.8633 H   0  0  0  0  0  0  0  0  0  0  0  0
    0.0610    1.7418    1.6021 H   0  0  0  0  0  0  0  0  0  0  0  0
   -1.3085   -2.6425    2.2168 H   0  0  0  0  0  0  0  0  0  0  0  0
   -2.6157   -4.6984    2.2888 H   0  0  0  0  0  0  0  0  0  0  0  0
   -2.8618   -4.7034   -2.0167 H   0  0  0  0  0  0  0  0  0  0  0  0
   -1.5741   -2.6232   -2.0879 H   0  0  0  0  0  0  0  0  0  0  0  0
   -3.3396   -6.7696   -0.6614 H   0  0  0  0  0  0  0  0  0  0  0  0
   -3.2905   -6.7475    1.0679 H   0  0  0  0  0  0  0  0  0  0  0  0
   -4.7075   -6.8016   -2.2646 H   0  0  0  0  0  0  0  0  0  0  0  0
   -5.0072   -8.2074   -1.1961 H   0  0  0  0  0  0  0  0  0  0  0  0
   -6.2391   -7.6687   -2.3586 H   0  0  0  0  0  0  0  0  0  0  0  0
  -10.3947   -7.2149   -2.8728 H   0  0  0  0  0  0  0  0  0  0  0  0
  -10.6380   -8.2617   -1.4630 H   0  0  0  0  0  0  0  0  0  0  0  0
  -11.5852   -6.7799   -1.6474 H   0  0  0  0  0  0  0  0  0  0  0  0
  -10.2295   -4.2057    2.6402 H   0  0  0  0  0  0  0  0  0  0  0  0
  -11.8650   -4.6366    2.5957 H   0  0  0  0  0  0  0  0  0  0  0  0
  1  2  2  0  0  0  0
  1 28  1  0  0  0  0
  2  3  1  0  0  0  0
  2 29  1  0  0  0  0
  3  4  2  0  0  0  0
  4  5  1  0  0  0  0
  4  7  1  0  0  0  0
  5  6  2  0  0  0  0
  5 30  1  0  0  0  0
  6  1  1  0  0  0  0
  6 31  1  0  0  0  0
  7  8  2  0  0  0  0
  8  9  1  0  0  0  0
  8 32  1  0  0  0  0
  9 10  2  0  0  0  0
  9 33  1  0  0  0  0
 10 11  1  0  0  0  0
 10 13  1  0  0  0  0
 11 12  2  0  0  0  0
 11 34  1  0  0  0  0
 12  7  1  0  0  0  0
 12 35  1  0  0  0  0
 13 14  1  0  0  0  0
 13 36  1  0  0  0  0
 13 37  1  0  0  0  0
 14 15  1  0  0  0  0
 14 16  2  0  0  0  0
 15 17  1  0  0  0  0
 15 18  1  0  0  0  0
 17 19  1  0  0  0  0
 18 38  1  0  0  0  0
 18 39  1  0  0  0  0
 18 40  1  0  0  0  0
 19 20  1  0  0  0  0
 20 21  2  0  0  0  0
 20 24  1  0  0  0  0
 21 22  1  0  0  0  0
 21 23  1  0  0  0  0
 22 17  2  0  0  0  0
 23 41  1  0  0  0  0
 23 42  1  0  0  0  0
 23 43  1  0  0  0  0
 24 25  2  0  0  0  0
 24 26  2  0  0  0  0
 24 27  1  0  0  0  0
 27 44  1  0  0  0  0
 27 45  1  0  0  0  0
M  END
>  <Mol_ID>
2440

>  <Formula>
C18H18N4O3S2

>  <MolWeight>
402.49052

>  <Cat>
S7546

>  <Name>
Pritelivir (BAY 57-1293)

>  <Synonyms>
AIC316

>  <Target>
DNA/RNA Synthesis,HSV

>  <Form>
free base

>  <CAS>
348086-71-5

>  <URL>
http://selleckchem.com/products/bay-57-1293.html

$$$$
