Bay K 8644.cdx
 OpenBabel08302520003D

 40 41  0  0  0  0  0  0  0  0999 V2000
   -0.8576    1.2446    0.7058 C   0  0  0  0  0  0  0  0  0  0  0  0
   -1.5609    0.1178    0.2681 C   0  0  0  0  0  0  0  0  0  0  0  0
   -1.0073   -1.1904    0.3038 C   0  0  0  0  0  0  0  0  0  0  0  0
    0.3403   -1.3140    0.7333 C   0  0  0  0  0  0  0  0  0  0  0  0
    1.0287   -0.1501    1.1700 C   0  0  0  0  0  0  0  0  0  0  0  0
    0.4335    1.1068    1.1786 C   0  0  0  0  0  0  0  0  0  0  0  0
   -1.9661   -2.3423   -0.1113 C   0  0  3  0  0  0  0  0  0  0  0  0
   -2.1436   -3.4298    0.9484 C   0  0  0  0  0  0  0  0  0  0  0  0
   -1.8747   -4.7333    0.7128 C   0  0  0  0  0  0  0  0  0  0  0  0
   -1.3672   -5.0642   -0.5352 N   0  0  0  0  0  0  0  0  0  0  0  0
   -1.2633   -4.2104   -1.6267 C   0  0  0  0  0  0  0  0  0  0  0  0
   -1.6208   -2.9050   -1.5095 C   0  0  0  0  0  0  0  0  0  0  0  0
   -2.7396   -3.0027    2.2093 N   0  3  0  0  0  0  0  0  0  0  0  0
   -3.4982   -2.0191    2.1563 O   0  0  0  0  0  0  0  0  0  0  0  0
   -2.4499   -3.6073    3.2383 O   0  5  0  0  0  0  0  0  0  0  0  0
   -2.0602   -5.9521    1.5860 C   0  0  0  0  0  0  0  0  0  0  0  0
   -0.7436   -4.9268   -2.8601 C   0  0  0  0  0  0  0  0  0  0  0  0
   -1.8109   -1.9902   -2.6856 C   0  0  0  0  0  0  0  0  0  0  0  0
   -2.7294   -1.0255   -2.3960 O   0  0  0  0  0  0  0  0  0  0  0  0
   -1.2570   -2.1274   -3.7649 O   0  0  0  0  0  0  0  0  0  0  0  0
   -3.0972   -0.0683   -3.4151 C   0  0  0  0  0  0  0  0  0  0  0  0
    1.1806   -2.5721    0.8169 C   0  0  0  0  0  0  0  0  0  0  0  0
    0.5819   -3.7163    0.4451 F   0  0  0  0  0  0  0  0  0  0  0  0
    2.3041   -2.4955    0.0472 F   0  0  0  0  0  0  0  0  0  0  0  0
    1.6210   -2.7992    2.0877 F   0  0  0  0  0  0  0  0  0  0  0  0
   -1.3316    2.2228    0.6972 H   0  0  0  0  0  0  0  0  0  0  0  0
   -2.5777    0.2783   -0.0919 H   0  0  0  0  0  0  0  0  0  0  0  0
    2.0553   -0.2375    1.5321 H   0  0  0  0  0  0  0  0  0  0  0  0
    0.9787    1.9675    1.5582 H   0  0  0  0  0  0  0  0  0  0  0  0
   -2.9741   -1.9156   -0.2253 H   0  0  0  0  0  0  0  0  0  0  0  0
   -1.0186   -6.0113   -0.6498 H   0  0  0  0  0  0  0  0  0  0  0  0
   -2.7268   -6.6506    1.0667 H   0  0  0  0  0  0  0  0  0  0  0  0
   -1.1007   -6.4638    1.7311 H   0  0  0  0  0  0  0  0  0  0  0  0
   -2.4977   -5.7801    2.5686 H   0  0  0  0  0  0  0  0  0  0  0  0
   -0.0946   -5.7695   -2.5609 H   0  0  0  0  0  0  0  0  0  0  0  0
   -1.5690   -5.3436   -3.4306 H   0  0  0  0  0  0  0  0  0  0  0  0
   -0.1094   -4.3030   -3.4829 H   0  0  0  0  0  0  0  0  0  0  0  0
   -2.6122    0.8922   -3.2081 H   0  0  0  0  0  0  0  0  0  0  0  0
   -2.8592   -0.3947   -4.4314 H   0  0  0  0  0  0  0  0  0  0  0  0
   -4.1799    0.0936   -3.3514 H   0  0  0  0  0  0  0  0  0  0  0  0
  1  2  2  0  0  0  0
  1 26  1  0  0  0  0
  2  3  1  0  0  0  0
  2 27  1  0  0  0  0
  3  4  2  0  0  0  0
  3  7  1  0  0  0  0
  4  5  1  0  0  0  0
  4 22  1  0  0  0  0
  5  6  2  0  0  0  0
  5 28  1  0  0  0  0
  6  1  1  0  0  0  0
  6 29  1  0  0  0  0
  7  8  1  0  0  0  0
  7 30  1  0  0  0  0
  8  9  2  0  0  0  0
  8 13  1  0  0  0  0
  9 10  1  0  0  0  0
  9 16  1  0  0  0  0
 10 11  1  0  0  0  0
 10 31  1  0  0  0  0
 11 12  2  0  0  0  0
 11 17  1  0  0  0  0
 12  7  1  0  0  0  0
 12 18  1  0  0  0  0
 13 14  2  0  0  0  0
 13 15  1  0  0  0  0
 16 32  1  0  0  0  0
 16 33  1  0  0  0  0
 16 34  1  0  0  0  0
 17 35  1  0  0  0  0
 17 36  1  0  0  0  0
 17 37  1  0  0  0  0
 18 19  1  0  0  0  0
 18 20  2  0  0  0  0
 19 21  1  0  0  0  0
 21 38  1  0  0  0  0
 21 39  1  0  0  0  0
 21 40  1  0  0  0  0
 22 23  1  0  0  0  0
 22 24  1  0  0  0  0
 22 25  1  0  0  0  0
M  CHG  2  13   1  15  -1
M  END
>  <Mol_ID>
2657

>  <Formula>
C16H15F3N2O4

>  <MolWeight>
356.2965096

>  <Cat>
S7924

>  <Name>
Bay K 8644

>  <Synonyms>
N/A

>  <Target>
Calcium Channel

>  <Form>
free base

>  <CAS>
71145-03-4

>  <URL>
http://selleckchem.com/products/bay-k-8644.html

$$$$
