BAY 2965501
 OpenBabel08302521353D

 48 50  0  0  1  0  0  0  0  0999 V2000
    0.9638    0.0142   -0.1696 N   0  0  0  0  0  0  0  0  0  0  0  0
    1.3315   -0.5060    1.1916 C   0  0  1  0  0  0  0  0  0  0  0  0
    0.8197   -1.9345    1.4473 C   0  0  0  0  0  0  0  0  0  0  0  0
    2.8178   -0.3058    1.5045 C   0  0  0  0  0  0  0  0  0  0  0  0
   -0.4657   -2.1828    1.0508 N   0  0  0  0  0  0  0  0  0  0  0  0
    1.4699   -2.8044    2.0206 O   0  0  0  0  0  0  0  0  0  0  0  0
   -1.2624    4.6419   -1.0031 C   0  0  0  0  0  0  0  0  0  0  0  0
   -1.2987    4.8614   -2.2161 O   0  0  0  0  0  0  0  0  0  0  0  0
   -2.2833    2.9252    1.4750 N   0  0  0  0  0  0  0  0  0  0  0  0
    2.8283   -2.4924   -4.8364 F   0  0  0  0  0  0  0  0  0  0  0  0
   -2.7577    8.8844    2.4322 O   0  0  0  0  0  0  0  0  0  0  0  0
   -3.6444    9.9105    2.0065 C   0  0  0  0  0  0  0  0  0  0  0  0
    0.2283    1.1861   -0.1193 C   0  0  0  0  0  0  0  0  0  0  0  0
    0.4902    2.5654   -1.1431 S   0  0  0  0  0  0  0  0  0  0  0  0
   -0.6864    1.4154    0.8066 N   0  0  0  0  0  0  0  0  0  0  0  0
   -0.8452    3.3780   -0.4406 C   0  0  0  0  0  0  0  0  0  0  0  0
   -1.3004    2.6251    0.6186 C   0  0  0  0  0  0  0  0  0  0  0  0
    1.4035   -0.6515   -1.3486 C   0  0  0  0  0  0  0  0  0  0  0  0
    2.2372   -1.7904   -1.3221 C   0  0  0  0  0  0  0  0  0  0  0  0
    1.0070   -0.2451   -2.6419 C   0  0  0  0  0  0  0  0  0  0  0  0
    2.7150   -2.4125   -2.4856 C   0  0  0  0  0  0  0  0  0  0  0  0
    1.4971   -0.8413   -3.8134 C   0  0  0  0  0  0  0  0  0  0  0  0
    2.3585   -1.9163   -3.7237 C   0  0  0  0  0  0  0  0  0  0  0  0
   -1.6744    5.7602   -0.1068 C   0  0  0  0  0  0  0  0  0  0  0  0
   -2.5931    6.7111   -0.5735 C   0  0  0  0  0  0  0  0  0  0  0  0
   -1.1287    5.9051    1.1740 C   0  0  0  0  0  0  0  0  0  0  0  0
   -2.9894    7.7791    0.2414 C   0  0  0  0  0  0  0  0  0  0  0  0
   -1.5388    6.9620    1.9855 C   0  0  0  0  0  0  0  0  0  0  0  0
   -2.4644    7.9041    1.5272 C   0  0  0  0  0  0  0  0  0  0  0  0
    0.8175    0.0740    1.9724 H   0  0  0  0  0  0  0  0  0  0  0  0
    3.1013    0.7446    1.3808 H   0  0  0  0  0  0  0  0  0  0  0  0
    3.0346   -0.5969    2.5384 H   0  0  0  0  0  0  0  0  0  0  0  0
    3.4844   -0.8966    0.8728 H   0  0  0  0  0  0  0  0  0  0  0  0
   -0.8296   -3.1203    1.1498 H   0  0  0  0  0  0  0  0  0  0  0  0
   -0.9731   -1.5070    0.4910 H   0  0  0  0  0  0  0  0  0  0  0  0
   -2.4095    2.3432    2.2979 H   0  0  0  0  0  0  0  0  0  0  0  0
   -2.7810    3.8074    1.5102 H   0  0  0  0  0  0  0  0  0  0  0  0
   -3.2547   10.4343    1.1277 H   0  0  0  0  0  0  0  0  0  0  0  0
   -4.6445    9.5076    1.8175 H   0  0  0  0  0  0  0  0  0  0  0  0
   -3.7235   10.6382    2.8189 H   0  0  0  0  0  0  0  0  0  0  0  0
    2.5520   -2.2592   -0.3962 H   0  0  0  0  0  0  0  0  0  0  0  0
    0.2867    0.5503   -2.7964 H   0  0  0  0  0  0  0  0  0  0  0  0
    3.3637   -3.2805   -2.4182 H   0  0  0  0  0  0  0  0  0  0  0  0
    1.1993   -0.4673   -4.7878 H   0  0  0  0  0  0  0  0  0  0  0  0
   -3.0024    6.6280   -1.5793 H   0  0  0  0  0  0  0  0  0  0  0  0
   -0.3836    5.2129    1.5541 H   0  0  0  0  0  0  0  0  0  0  0  0
   -3.6993    8.4936   -0.1586 H   0  0  0  0  0  0  0  0  0  0  0  0
   -1.1221    7.0598    2.9858 H   0  0  0  0  0  0  0  0  0  0  0  0
  1  2  1  0  0  0  0
  1 13  1  0  0  0  0
  1 18  1  0  0  0  0
  2  3  1  0  0  0  0
  2  4  1  0  0  0  0
  2 30  1  1  0  0  0
  3  5  1  0  0  0  0
  3  6  2  0  0  0  0
  4 31  1  0  0  0  0
  4 32  1  0  0  0  0
  4 33  1  0  0  0  0
  5 34  1  0  0  0  0
  5 35  1  0  0  0  0
  7  8  2  0  0  0  0
  7 16  1  0  0  0  0
  7 24  1  0  0  0  0
  9 17  1  0  0  0  0
  9 36  1  0  0  0  0
  9 37  1  0  0  0  0
 10 23  1  0  0  0  0
 11 12  1  0  0  0  0
 11 29  1  0  0  0  0
 12 38  1  0  0  0  0
 12 39  1  0  0  0  0
 12 40  1  0  0  0  0
 13 14  1  0  0  0  0
 13 15  2  0  0  0  0
 14 16  1  0  0  0  0
 15 17  1  0  0  0  0
 16 17  2  0  0  0  0
 18 19  2  0  0  0  0
 18 20  1  0  0  0  0
 19 21  1  0  0  0  0
 19 41  1  0  0  0  0
 20 22  2  0  0  0  0
 20 42  1  0  0  0  0
 21 23  2  0  0  0  0
 21 43  1  0  0  0  0
 22 23  1  0  0  0  0
 22 44  1  0  0  0  0
 24 25  2  0  0  0  0
 24 26  1  0  0  0  0
 25 27  1  0  0  0  0
 25 45  1  0  0  0  0
 26 28  2  0  0  0  0
 26 46  1  0  0  0  0
 27 29  2  0  0  0  0
 27 47  1  0  0  0  0
 28 29  1  0  0  0  0
 28 48  1  0  0  0  0
M  END
>  <Mol_ID>
6967

>  <Formula>
C20H19FN4O3S

>  <MolWeight>
414.4532632

>  <Cat>
E1692

>  <Name>
BAY 2965501

>  <Target>
Others

>  <Form>
free base

>  <CAS>
2732902-08-6

>  <URL>
https://www.selleckchem.com/products/bay-2965501.html

$$$$
