BAY 41-2272.cdx
 OpenBabel08302520413D

 44 48  0  0  0  0  0  0  0  0999 V2000
   -2.0338   -0.5732   -0.0957 C   0  0  0  0  0  0  0  0  0  0  0  0
   -2.1296    0.8096   -0.0166 C   0  0  0  0  0  0  0  0  0  0  0  0
   -0.9594    1.5663    0.0586 C   0  0  0  0  0  0  0  0  0  0  0  0
    0.2670    0.8781    0.0487 C   0  0  0  0  0  0  0  0  0  0  0  0
    0.2164   -0.5075   -0.0211 C   0  0  0  0  0  0  0  0  0  0  0  0
   -0.8865   -1.2833   -0.0941 N   0  0  0  0  0  0  0  0  0  0  0  0
    1.6603    1.2071    0.0498 C   0  0  0  0  0  0  0  0  0  0  0  0
    2.4170    0.0833    0.0155 N   0  0  0  0  0  0  0  0  0  0  0  0
    1.5163   -0.9293   -0.0017 N   0  0  0  0  0  0  0  0  0  0  0  0
    1.9663   -2.3187   -0.0004 C   0  0  0  0  0  0  0  0  0  0  0  0
    2.0348   -2.8676    1.4019 C   0  0  0  0  0  0  0  0  0  0  0  0
    1.2520   -3.9624    1.7762 C   0  0  0  0  0  0  0  0  0  0  0  0
    1.2069   -4.4027    3.0970 C   0  0  0  0  0  0  0  0  0  0  0  0
    1.9720   -3.7583    4.0673 C   0  0  0  0  0  0  0  0  0  0  0  0
    2.8120   -2.7080    3.7009 C   0  0  0  0  0  0  0  0  0  0  0  0
    2.8522   -2.2714    2.3753 C   0  0  0  0  0  0  0  0  0  0  0  0
    2.2459    2.5629    0.0200 C   0  0  0  0  0  0  0  0  0  0  0  0
    1.5538    3.5719    0.5829 N   0  0  0  0  0  0  0  0  0  0  0  0
    2.0887    4.8060    0.4338 C   0  0  0  0  0  0  0  0  0  0  0  0
    3.2586    5.0980   -0.2531 C   0  0  0  0  0  0  0  0  0  0  0  0
    3.8641    3.9657   -0.7950 C   0  0  0  0  0  0  0  0  0  0  0  0
    3.3946    2.7167   -0.6623 N   0  0  0  0  0  0  0  0  0  0  0  0
    3.7548    6.5093   -0.4819 C   0  0  0  0  0  0  0  0  0  0  0  0
    4.9848    4.0789   -1.6235 N   0  0  0  0  0  0  0  0  0  0  0  0
    5.1079    6.9519    0.0339 C   0  0  0  0  0  0  0  0  0  0  0  0
    3.8603    7.5089    0.6474 C   0  0  0  0  0  0  0  0  0  0  0  0
    0.5220   -4.6119    0.8583 F   0  0  0  0  0  0  0  0  0  0  0  0
   -2.9355   -1.1775   -0.1674 H   0  0  0  0  0  0  0  0  0  0  0  0
   -3.1005    1.2933   -0.0199 H   0  0  0  0  0  0  0  0  0  0  0  0
   -0.9971    2.6496    0.1141 H   0  0  0  0  0  0  0  0  0  0  0  0
    1.2718   -2.8862   -0.6303 H   0  0  0  0  0  0  0  0  0  0  0  0
    2.9509   -2.3591   -0.4802 H   0  0  0  0  0  0  0  0  0  0  0  0
    0.5638   -5.2356    3.3630 H   0  0  0  0  0  0  0  0  0  0  0  0
    1.9156   -4.0736    5.1058 H   0  0  0  0  0  0  0  0  0  0  0  0
    3.4242   -2.2122    4.4508 H   0  0  0  0  0  0  0  0  0  0  0  0
    3.5024   -1.4383    2.1098 H   0  0  0  0  0  0  0  0  0  0  0  0
    1.5020    5.6056    0.8805 H   0  0  0  0  0  0  0  0  0  0  0  0
    3.4759    6.9193   -1.4514 H   0  0  0  0  0  0  0  0  0  0  0  0
    5.2819    3.1309   -1.8520 H   0  0  0  0  0  0  0  0  0  0  0  0
    5.7233    4.6231   -1.1933 H   0  0  0  0  0  0  0  0  0  0  0  0
    5.7009    6.2781    0.6419 H   0  0  0  0  0  0  0  0  0  0  0  0
    5.6966    7.6023   -0.5993 H   0  0  0  0  0  0  0  0  0  0  0  0
    3.6123    8.5432    0.4306 H   0  0  0  0  0  0  0  0  0  0  0  0
    3.6374    7.2089    1.6645 H   0  0  0  0  0  0  0  0  0  0  0  0
  1  2  2  0  0  0  0
  1 28  1  0  0  0  0
  2  3  1  0  0  0  0
  2 29  1  0  0  0  0
  3  4  2  0  0  0  0
  3 30  1  0  0  0  0
  4  5  1  0  0  0  0
  4  7  1  0  0  0  0
  5  6  2  0  0  0  0
  6  1  1  0  0  0  0
  7  8  2  0  0  0  0
  7 17  1  0  0  0  0
  8  9  1  0  0  0  0
  9  5  1  0  0  0  0
  9 10  1  0  0  0  0
 10 11  1  0  0  0  0
 10 31  1  0  0  0  0
 10 32  1  0  0  0  0
 11 12  2  0  0  0  0
 12 13  1  0  0  0  0
 12 27  1  0  0  0  0
 13 14  2  0  0  0  0
 13 33  1  0  0  0  0
 14 15  1  0  0  0  0
 14 34  1  0  0  0  0
 15 16  2  0  0  0  0
 15 35  1  0  0  0  0
 16 11  1  0  0  0  0
 16 36  1  0  0  0  0
 17 18  2  0  0  0  0
 18 19  1  0  0  0  0
 19 20  2  0  0  0  0
 19 37  1  0  0  0  0
 20 21  1  0  0  0  0
 20 23  1  0  0  0  0
 21 22  2  0  0  0  0
 21 24  1  0  0  0  0
 22 17  1  0  0  0  0
 23 25  1  0  0  0  0
 23 38  1  0  0  0  0
 24 39  1  0  0  0  0
 24 40  1  0  0  0  0
 25 26  1  0  0  0  0
 25 41  1  0  0  0  0
 25 42  1  0  0  0  0
 26 23  1  0  0  0  0
 26 43  1  0  0  0  0
 26 44  1  0  0  0  0
M  END
>  <Mol_ID>
3903

>  <Formula>
C20H17FN6

>  <MolWeight>
360.3875832

>  <Cat>
S8128

>  <Name>
BAY 41-2272

>  <Synonyms>
N/A

>  <Target>
Guanylate Cyclase

>  <Form>
free base

>  <CAS>
256376-24-6

>  <URL>
http://selleckchem.com/products/bay-41-2272.html

$$$$
