BAY 1895344.cdx
 OpenBabel08302520433D

 49 53  0  0  0  0  0  0  0  0999 V2000
    2.4274   -0.6129    0.0133 C   0  0  0  0  0  0  0  0  0  0  0  0
    2.3491    0.7610   -0.0080 C   0  0  0  0  0  0  0  0  0  0  0  0
    1.1413    1.4561   -0.0776 C   0  0  0  0  0  0  0  0  0  0  0  0
   -0.0527    0.6990   -0.1005 C   0  0  0  0  0  0  0  0  0  0  0  0
    0.0701   -0.7037   -0.0248 C   0  0  0  0  0  0  0  0  0  0  0  0
    1.2907   -1.3233    0.0016 N   0  0  0  0  0  0  0  0  0  0  0  0
   -1.3523    1.2582   -0.2064 C   0  0  0  0  0  0  0  0  0  0  0  0
   -2.4620    0.4447   -0.1452 C   0  0  0  0  0  0  0  0  0  0  0  0
   -2.3882   -0.8849   -0.0162 N   0  0  0  0  0  0  0  0  0  0  0  0
   -1.1387   -1.4260    0.0414 C   0  0  0  0  0  0  0  0  0  0  0  0
   -1.1871   -2.8800    0.2181 C   0  0  0  0  0  0  0  0  0  0  0  0
   -0.0641   -3.6606    0.3317 N   0  0  0  0  0  0  0  0  0  0  0  0
   -0.3170   -4.9720    0.5060 N   0  0  0  0  0  0  0  0  0  0  0  0
   -1.6493   -5.0264    0.5299 C   0  0  0  0  0  0  0  0  0  0  0  0
   -2.2386   -3.7612    0.3547 C   0  0  0  0  0  0  0  0  0  0  0  0
    1.1929    2.9471   -0.0109 C   0  0  0  0  0  0  0  0  0  0  0  0
    3.6311   -1.2778    0.0421 N   0  0  0  0  0  0  0  0  0  0  0  0
    0.3687    3.8135    0.6992 C   0  0  0  0  0  0  0  0  0  0  0  0
    0.8447    5.1055    0.4520 C   0  0  0  0  0  0  0  0  0  0  0  0
    1.9308    5.0969   -0.3115 N   0  0  0  0  0  0  0  0  0  0  0  0
    2.1533    3.7908   -0.5615 N   0  0  0  0  0  0  0  0  0  0  0  0
    4.9295   -0.8621    0.6347 C   0  0  1  0  0  0  0  0  0  0  0  0
    5.9868   -0.8004   -0.4920 C   0  0  0  0  0  0  0  0  0  0  0  0
    6.1159   -2.0727   -1.1433 O   0  0  0  0  0  0  0  0  0  0  0  0
    4.8648   -2.4792   -1.7233 C   0  0  0  0  0  0  0  0  0  0  0  0
    3.7291   -2.5610   -0.6780 C   0  0  0  0  0  0  0  0  0  0  0  0
    4.9678    0.4002    1.4829 C   0  0  0  0  0  0  0  0  0  0  0  0
    3.3575    3.4883   -1.3023 C   0  0  0  0  0  0  0  0  0  0  0  0
    3.2631    1.3317    0.0075 H   0  0  0  0  0  0  0  0  0  0  0  0
   -1.5097    2.3250   -0.3353 H   0  0  0  0  0  0  0  0  0  0  0  0
   -3.4682    0.8547   -0.2023 H   0  0  0  0  0  0  0  0  0  0  0  0
    0.9006   -3.3364    0.3025 H   0  0  0  0  0  0  0  0  0  0  0  0
   -2.1365   -5.9831    0.6761 H   0  0  0  0  0  0  0  0  0  0  0  0
   -3.2926   -3.5149    0.3373 H   0  0  0  0  0  0  0  0  0  0  0  0
   -0.4729    3.5485    1.3230 H   0  0  0  0  0  0  0  0  0  0  0  0
    0.4592    6.0517    0.8084 H   0  0  0  0  0  0  0  0  0  0  0  0
    5.2158   -1.6836    1.3026 H   0  0  0  0  0  0  0  0  0  0  0  0
    5.7287   -0.0387   -1.2392 H   0  0  0  0  0  0  0  0  0  0  0  0
    6.9671   -0.5436   -0.0766 H   0  0  0  0  0  0  0  0  0  0  0  0
    4.6087   -1.7764   -2.5246 H   0  0  0  0  0  0  0  0  0  0  0  0
    5.0231   -3.4615   -2.1804 H   0  0  0  0  0  0  0  0  0  0  0  0
    3.9613   -3.3512    0.0466 H   0  0  0  0  0  0  0  0  0  0  0  0
    2.8075   -2.8462   -1.1970 H   0  0  0  0  0  0  0  0  0  0  0  0
    4.1072    0.4735    2.1570 H   0  0  0  0  0  0  0  0  0  0  0  0
    5.8686    0.4131    2.1015 H   0  0  0  0  0  0  0  0  0  0  0  0
    5.0285    1.3092    0.8722 H   0  0  0  0  0  0  0  0  0  0  0  0
    3.4812    4.2289   -2.0956 H   0  0  0  0  0  0  0  0  0  0  0  0
    4.2008    3.5496   -0.6051 H   0  0  0  0  0  0  0  0  0  0  0  0
    3.3039    2.5011   -1.7614 H   0  0  0  0  0  0  0  0  0  0  0  0
  1  2  2  0  0  0  0
  1 17  1  0  0  0  0
  2  3  1  0  0  0  0
  2 29  1  0  0  0  0
  3  4  2  0  0  0  0
  3 16  1  0  0  0  0
  4  5  1  0  0  0  0
  4  7  1  0  0  0  0
  5  6  2  0  0  0  0
  6  1  1  0  0  0  0
  7  8  2  0  0  0  0
  7 30  1  0  0  0  0
  8  9  1  0  0  0  0
  8 31  1  0  0  0  0
  9 10  2  0  0  0  0
 10  5  1  0  0  0  0
 10 11  1  0  0  0  0
 11 12  1  0  0  0  0
 12 13  1  0  0  0  0
 12 32  1  0  0  0  0
 13 14  2  0  0  0  0
 14 15  1  0  0  0  0
 14 33  1  0  0  0  0
 15 11  2  0  0  0  0
 15 34  1  0  0  0  0
 16 18  2  0  0  0  0
 17 22  1  0  0  0  0
 18 19  1  0  0  0  0
 18 35  1  0  0  0  0
 19 20  2  0  0  0  0
 19 36  1  0  0  0  0
 20 21  1  0  0  0  0
 21 16  1  0  0  0  0
 21 28  1  0  0  0  0
 22 23  1  0  0  0  0
 22 27  1  0  0  0  0
 22 37  1  1  0  0  0
 23 24  1  0  0  0  0
 23 38  1  0  0  0  0
 23 39  1  0  0  0  0
 24 25  1  0  0  0  0
 25 26  1  0  0  0  0
 25 40  1  0  0  0  0
 25 41  1  0  0  0  0
 26 17  1  0  0  0  0
 26 42  1  0  0  0  0
 26 43  1  0  0  0  0
 27 44  1  0  0  0  0
 27 45  1  0  0  0  0
 27 46  1  0  0  0  0
 28 47  1  0  0  0  0
 28 48  1  0  0  0  0
 28 49  1  0  0  0  0
M  END
>  <Mol_ID>
4031

>  <Formula>
C20H22ClN7O

>  <MolWeight>
411.88798

>  <Cat>
S8666

>  <Name>
Elimusertib (BAY-1895344) hydrochloride

>  <Synonyms>
BAY-1895344 HCl

>  <Target>
ATM/ATR

>  <Form>
hydrochloride

>  <CAS>
1876467-74-1(free base)

>  <URL>
https://www.selleckchem.com/products/bay-1895344-hcl.html

$$$$
