BAY 2666605
 OpenBabel08302521353D

 37 39  0  0  0  0  0  0  0  0999 V2000
    0.6487    0.3022   -1.4364 O   0  0  0  0  0  0  0  0  0  0  0  0
    1.2898    0.4430   -0.2491 C   0  0  0  0  0  0  0  0  0  0  0  0
    0.5968    0.1019    0.8869 N   0  0  0  0  0  0  0  0  0  0  0  0
   -0.7024   -0.2747    0.9954 N   0  0  0  0  0  0  0  0  0  0  0  0
   -1.3527   -0.4196   -0.1190 C   0  0  0  0  0  0  0  0  0  0  0  0
   -0.6679   -0.2421   -1.4739 C   0  0  2  0  0  0  0  0  0  0  0  0
    2.4390    0.8612   -0.1937 O   0  0  0  0  0  0  0  0  0  0  0  0
   -0.5911   -1.5587   -2.2363 C   0  0  0  0  0  0  0  0  0  0  0  0
   -5.6337   -1.1912    0.1641 C   0  0  0  0  0  0  0  0  0  0  0  0
   -4.7460   -1.6851    1.1546 C   0  0  0  0  0  0  0  0  0  0  0  0
   -3.3502   -1.4053    1.0410 C   0  0  0  0  0  0  0  0  0  0  0  0
   -2.8119   -0.7389   -0.0657 C   0  0  0  0  0  0  0  0  0  0  0  0
   -3.6686   -0.3231   -1.0708 C   0  0  0  0  0  0  0  0  0  0  0  0
   -5.0440   -0.5191   -0.9357 C   0  0  0  0  0  0  0  0  0  0  0  0
   -7.1174   -1.3280    0.1613 C   0  0  0  0  0  0  0  0  0  0  0  0
   -7.9004   -1.2567    1.3283 C   0  0  0  0  0  0  0  0  0  0  0  0
   -9.2820   -1.4837    1.3034 C   0  0  0  0  0  0  0  0  0  0  0  0
   -9.9277   -1.6834    0.0859 C   0  0  0  0  0  0  0  0  0  0  0  0
   -9.2075   -1.6551   -1.0934 C   0  0  0  0  0  0  0  0  0  0  0  0
   -7.8227   -1.5078   -1.0550 C   0  0  0  0  0  0  0  0  0  0  0  0
   -5.1111   -2.5294    2.3618 C   0  0  0  0  0  0  0  0  0  0  0  0
   -6.3760   -3.0186    2.4168 F   0  0  0  0  0  0  0  0  0  0  0  0
   -4.3159   -3.6373    2.4592 F   0  0  0  0  0  0  0  0  0  0  0  0
   -4.9242   -1.8481    3.5283 F   0  0  0  0  0  0  0  0  0  0  0  0
  -11.2427   -1.8824    0.0635 F   0  0  0  0  0  0  0  0  0  0  0  0
    1.0848    0.2770    1.7592 H   0  0  0  0  0  0  0  0  0  0  0  0
   -1.2506    0.4756   -2.0589 H   0  0  0  0  0  0  0  0  0  0  0  0
   -0.2489   -1.3788   -3.2625 H   0  0  0  0  0  0  0  0  0  0  0  0
    0.1392   -2.2361   -1.7779 H   0  0  0  0  0  0  0  0  0  0  0  0
   -1.5536   -2.0766   -2.2852 H   0  0  0  0  0  0  0  0  0  0  0  0
   -2.6817   -1.7382    1.8360 H   0  0  0  0  0  0  0  0  0  0  0  0
   -3.3192    0.1941   -1.9590 H   0  0  0  0  0  0  0  0  0  0  0  0
   -5.6666   -0.1033   -1.7299 H   0  0  0  0  0  0  0  0  0  0  0  0
   -7.4479   -1.0384    2.2932 H   0  0  0  0  0  0  0  0  0  0  0  0
   -9.8502   -1.5207    2.2222 H   0  0  0  0  0  0  0  0  0  0  0  0
   -9.7297   -1.7725   -2.0420 H   0  0  0  0  0  0  0  0  0  0  0  0
   -7.2951   -1.5338   -2.0101 H   0  0  0  0  0  0  0  0  0  0  0  0
  1  2  1  0  0  0  0
  1  6  1  0  0  0  0
  2  3  1  0  0  0  0
  2  7  2  0  0  0  0
  3  4  1  0  0  0  0
  3 26  1  0  0  0  0
  4  5  2  0  0  0  0
  5  6  1  0  0  0  0
  5 12  1  0  0  0  0
  6 27  1  6  0  0  0
  6  8  1  0  0  0  0
  8 28  1  0  0  0  0
  8 29  1  0  0  0  0
  8 30  1  0  0  0  0
  9 10  2  0  0  0  0
  9 14  1  0  0  0  0
  9 15  1  0  0  0  0
 10 11  1  0  0  0  0
 10 21  1  0  0  0  0
 11 12  2  0  0  0  0
 11 31  1  0  0  0  0
 12 13  1  0  0  0  0
 13 14  2  0  0  0  0
 13 32  1  0  0  0  0
 14 33  1  0  0  0  0
 15 16  2  0  0  0  0
 15 20  1  0  0  0  0
 16 17  1  0  0  0  0
 16 34  1  0  0  0  0
 17 18  2  0  0  0  0
 17 35  1  0  0  0  0
 18 19  1  0  0  0  0
 18 25  1  0  0  0  0
 19 20  2  0  0  0  0
 19 36  1  0  0  0  0
 20 37  1  0  0  0  0
 21 22  1  0  0  0  0
 21 23  1  0  0  0  0
 21 24  1  0  0  0  0
M  END
>  <Mol_ID>
6835

>  <Formula>
C17H12F4N2O2

>  <MolWeight>
352.2829928

>  <Cat>
E1205

>  <Name>
BAY 2666605

>  <Target>
PDE

>  <Form>
Free base

>  <CAS>
2275774-60-0

>  <URL>
http://www.selleckchem.com/products/bay-2666605.html

$$$$
