BC-1215
 OpenBabel08302521313D

 56 59  0  0  0  0  0  0  0  0999 V2000
    1.3142   -0.0879   -0.4977 N   0  0  0  0  0  0  0  0  0  0  0  0
    0.1644    3.5460    0.0632 N   0  0  0  0  0  0  0  0  0  0  0  0
    5.4346   -5.8467    0.2870 N   0  0  0  0  0  0  0  0  0  0  0  0
   -1.4887   10.2269    2.5382 N   0  0  0  0  0  0  0  0  0  0  0  0
    0.5213    1.0101    0.0970 C   0  0  0  0  0  0  0  0  0  0  0  0
    0.9113    2.4000   -0.5026 C   0  0  0  0  0  0  0  0  0  0  0  0
    0.8863   -1.4241   -0.0528 C   0  0  0  0  0  0  0  0  0  0  0  0
    0.5267    4.8086   -0.6132 C   0  0  0  0  0  0  0  0  0  0  0  0
    1.8335   -2.5360   -0.4948 C   0  0  0  0  0  0  0  0  0  0  0  0
   -0.2032    6.0283   -0.0650 C   0  0  0  0  0  0  0  0  0  0  0  0
    3.1885   -2.4491   -0.1733 C   0  0  0  0  0  0  0  0  0  0  0  0
   -0.1016    6.3836    1.2871 C   0  0  0  0  0  0  0  0  0  0  0  0
    1.3882   -3.7314   -1.0848 C   0  0  0  0  0  0  0  0  0  0  0  0
   -0.9214    6.8906   -0.9058 C   0  0  0  0  0  0  0  0  0  0  0  0
    3.5905   -4.7921   -0.8112 C   0  0  0  0  0  0  0  0  0  0  0  0
   -1.4676    8.4028    0.9567 C   0  0  0  0  0  0  0  0  0  0  0  0
    4.0438   -3.5444   -0.3420 C   0  0  0  0  0  0  0  0  0  0  0  0
   -0.7182    7.5466    1.7829 C   0  0  0  0  0  0  0  0  0  0  0  0
    2.2564   -4.8376   -1.2504 C   0  0  0  0  0  0  0  0  0  0  0  0
   -1.5438    8.0491   -0.4016 C   0  0  0  0  0  0  0  0  0  0  0  0
    4.4703   -5.9878   -0.6677 C   0  0  0  0  0  0  0  0  0  0  0  0
   -2.1255    9.6169    1.4966 C   0  0  0  0  0  0  0  0  0  0  0  0
    4.2992   -7.2069   -1.3223 C   0  0  0  0  0  0  0  0  0  0  0  0
   -3.3289   10.1119    0.9984 C   0  0  0  0  0  0  0  0  0  0  0  0
    5.0922   -8.3012   -0.9513 C   0  0  0  0  0  0  0  0  0  0  0  0
   -3.8942   11.2611    1.5633 C   0  0  0  0  0  0  0  0  0  0  0  0
    6.1834   -6.9149    0.6289 C   0  0  0  0  0  0  0  0  0  0  0  0
   -2.0529   11.3428    3.0607 C   0  0  0  0  0  0  0  0  0  0  0  0
    6.0402   -8.1599    0.0547 C   0  0  0  0  0  0  0  0  0  0  0  0
   -3.2382   11.8936    2.6097 C   0  0  0  0  0  0  0  0  0  0  0  0
    1.2547   -0.0552   -1.5155 H   0  0  0  0  0  0  0  0  0  0  0  0
   -0.8372    3.4001   -0.0502 H   0  0  0  0  0  0  0  0  0  0  0  0
   -0.5471    0.8362   -0.0753 H   0  0  0  0  0  0  0  0  0  0  0  0
    0.6893    1.0330    1.1814 H   0  0  0  0  0  0  0  0  0  0  0  0
    1.9835    2.5601   -0.3350 H   0  0  0  0  0  0  0  0  0  0  0  0
    0.7444    2.3609   -1.5865 H   0  0  0  0  0  0  0  0  0  0  0  0
    0.8527   -1.4624    1.0452 H   0  0  0  0  0  0  0  0  0  0  0  0
   -0.1279   -1.6332   -0.4139 H   0  0  0  0  0  0  0  0  0  0  0  0
    1.6029    4.9965   -0.5173 H   0  0  0  0  0  0  0  0  0  0  0  0
    0.3088    4.7179   -1.6856 H   0  0  0  0  0  0  0  0  0  0  0  0
    3.5838   -1.5401    0.2784 H   0  0  0  0  0  0  0  0  0  0  0  0
    0.4726    5.7579    1.9669 H   0  0  0  0  0  0  0  0  0  0  0  0
    0.3432   -3.8460   -1.3715 H   0  0  0  0  0  0  0  0  0  0  0  0
   -0.9881    6.6884   -1.9718 H   0  0  0  0  0  0  0  0  0  0  0  0
    5.0791   -3.4383   -0.0168 H   0  0  0  0  0  0  0  0  0  0  0  0
   -0.6047    7.7885    2.8389 H   0  0  0  0  0  0  0  0  0  0  0  0
    1.8405   -5.7581   -1.6566 H   0  0  0  0  0  0  0  0  0  0  0  0
   -2.0695    8.6940   -1.1046 H   0  0  0  0  0  0  0  0  0  0  0  0
    3.5544   -7.3332   -2.0987 H   0  0  0  0  0  0  0  0  0  0  0  0
   -3.8516    9.6140    0.1935 H   0  0  0  0  0  0  0  0  0  0  0  0
    4.9567   -9.2668   -1.4303 H   0  0  0  0  0  0  0  0  0  0  0  0
   -4.8287   11.6587    1.1839 H   0  0  0  0  0  0  0  0  0  0  0  0
    6.9120   -6.7326    1.4125 H   0  0  0  0  0  0  0  0  0  0  0  0
   -1.5009   11.7922    3.8819 H   0  0  0  0  0  0  0  0  0  0  0  0
    6.6487   -8.9930    0.3863 H   0  0  0  0  0  0  0  0  0  0  0  0
   -3.6417   12.7922    3.0707 H   0  0  0  0  0  0  0  0  0  0  0  0
  1  5  1  0  0  0  0
  1  7  1  0  0  0  0
  1 31  1  0  0  0  0
  2  6  1  0  0  0  0
  2  8  1  0  0  0  0
  2 32  1  0  0  0  0
  3 21  2  0  0  0  0
  3 27  1  0  0  0  0
  4 22  2  0  0  0  0
  4 28  1  0  0  0  0
  5  6  1  0  0  0  0
  5 33  1  0  0  0  0
  5 34  1  0  0  0  0
  6 35  1  0  0  0  0
  6 36  1  0  0  0  0
  7  9  1  0  0  0  0
  7 37  1  0  0  0  0
  7 38  1  0  0  0  0
  8 10  1  0  0  0  0
  8 39  1  0  0  0  0
  8 40  1  0  0  0  0
  9 11  2  0  0  0  0
  9 13  1  0  0  0  0
 10 12  2  0  0  0  0
 10 14  1  0  0  0  0
 11 17  1  0  0  0  0
 11 41  1  0  0  0  0
 12 18  1  0  0  0  0
 12 42  1  0  0  0  0
 13 19  2  0  0  0  0
 13 43  1  0  0  0  0
 14 20  2  0  0  0  0
 14 44  1  0  0  0  0
 15 17  2  0  0  0  0
 15 19  1  0  0  0  0
 15 21  1  0  0  0  0
 16 18  2  0  0  0  0
 16 20  1  0  0  0  0
 16 22  1  0  0  0  0
 17 45  1  0  0  0  0
 18 46  1  0  0  0  0
 19 47  1  0  0  0  0
 20 48  1  0  0  0  0
 21 23  1  0  0  0  0
 22 24  1  0  0  0  0
 23 25  2  0  0  0  0
 23 49  1  0  0  0  0
 24 26  2  0  0  0  0
 24 50  1  0  0  0  0
 25 29  1  0  0  0  0
 25 51  1  0  0  0  0
 26 30  1  0  0  0  0
 26 52  1  0  0  0  0
 27 29  2  0  0  0  0
 27 53  1  0  0  0  0
 28 30  2  0  0  0  0
 28 54  1  0  0  0  0
 29 55  1  0  0  0  0
 30 56  1  0  0  0  0
M  END
>  <Mol_ID>
5844

>  <Formula>
C26H26N4

>  <MolWeight>
394.51144

>  <Cat>
S0322

>  <Name>
BC-1215

>  <Synonyms>
N/A

>  <Target>
E3 Ligase ,E3 ligase Ligand

>  <Form>
Free Base

>  <CAS>
1507370-20-8

>  <URL>
http://www.selleckchem.com/products/bc-1215.html

$$$$
