BC-LI-0186
 OpenBabel08302521353D

 57 59  0  0  0  0  0  0  0  0999 V2000
    6.6497   -1.8147   -7.1598 C   0  0  0  0  0  0  0  0  0  0  0  0
    7.6498   -1.1258   -6.4660 C   0  0  0  0  0  0  0  0  0  0  0  0
    8.9758   -1.2464   -6.8872 C   0  0  0  0  0  0  0  0  0  0  0  0
    9.2961   -2.0110   -8.0113 C   0  0  0  0  0  0  0  0  0  0  0  0
    8.2898   -2.6643   -8.7197 C   0  0  0  0  0  0  0  0  0  0  0  0
    6.9688   -2.5744   -8.2881 C   0  0  0  0  0  0  0  0  0  0  0  0
    7.4557   -0.3022   -5.3863 O   0  0  0  0  0  0  0  0  0  0  0  0
    6.0964   -0.1254   -4.9859 C   0  0  0  0  0  0  0  0  0  0  0  0
    6.0041    0.9301   -3.8870 C   0  0  0  0  0  0  0  0  0  0  0  0
    4.6111    1.2669   -3.5315 N   0  0  0  0  0  0  0  0  0  0  0  0
    3.5927    0.0738   -2.9165 S   0  0  0  0  0  0  0  0  0  0  0  0
    2.8704   -0.6309   -4.3781 C   0  0  0  0  0  0  0  0  0  0  0  0
    3.0265   -1.9948   -4.6318 C   0  0  0  0  0  0  0  0  0  0  0  0
    2.4715   -2.5420   -5.7864 C   0  0  0  0  0  0  0  0  0  0  0  0
    1.7912   -1.7330   -6.7071 C   0  0  0  0  0  0  0  0  0  0  0  0
    1.6374   -0.3666   -6.4435 C   0  0  0  0  0  0  0  0  0  0  0  0
    2.1603    0.1838   -5.2670 C   0  0  0  0  0  0  0  0  0  0  0  0
    4.4156   -0.9178   -2.2707 O   0  0  0  0  0  0  0  0  0  0  0  0
    2.5408    0.7771   -2.2172 O   0  0  0  0  0  0  0  0  0  0  0  0
    1.2895   -2.3406   -7.8704 N   0  0  0  0  0  0  0  0  0  0  0  0
    0.3771   -3.3988   -7.8412 C   0  0  0  0  0  0  0  0  0  0  0  0
   -0.1337   -3.5618   -9.2329 C   0  0  0  0  0  0  0  0  0  0  0  0
    0.4921   -2.6020   -9.9434 C   0  0  0  0  0  0  0  0  0  0  0  0
    1.2280   -1.7240   -9.1328 N   0  0  0  0  0  0  0  0  0  0  0  0
    2.4216   -1.0362   -9.6193 C   0  0  0  0  0  0  0  0  0  0  0  0
    0.4995   -2.4694  -11.4342 C   0  0  0  0  0  0  0  0  0  0  0  0
   -1.0907   -4.6442   -9.6257 C   0  0  0  0  0  0  0  0  0  0  0  0
   -0.5845   -6.0428   -9.2692 C   0  0  0  0  0  0  0  0  0  0  0  0
   -2.4715   -4.3906   -9.0115 C   0  0  0  0  0  0  0  0  0  0  0  0
    0.0221   -4.0795   -6.8919 O   0  0  0  0  0  0  0  0  0  0  0  0
    5.6093   -1.7822   -6.8548 H   0  0  0  0  0  0  0  0  0  0  0  0
    9.7654   -0.7371   -6.3408 H   0  0  0  0  0  0  0  0  0  0  0  0
   10.3301   -2.0916   -8.3361 H   0  0  0  0  0  0  0  0  0  0  0  0
    8.5349   -3.2471   -9.6035 H   0  0  0  0  0  0  0  0  0  0  0  0
    6.1826   -3.0945   -8.8294 H   0  0  0  0  0  0  0  0  0  0  0  0
    5.4938    0.2152   -5.8372 H   0  0  0  0  0  0  0  0  0  0  0  0
    5.7202   -1.0825   -4.6151 H   0  0  0  0  0  0  0  0  0  0  0  0
    6.5677    0.6358   -2.9949 H   0  0  0  0  0  0  0  0  0  0  0  0
    6.4827    1.8516   -4.2411 H   0  0  0  0  0  0  0  0  0  0  0  0
    4.4655    2.1488   -3.0405 H   0  0  0  0  0  0  0  0  0  0  0  0
    3.5773   -2.6371   -3.9480 H   0  0  0  0  0  0  0  0  0  0  0  0
    2.5970   -3.6055   -5.9843 H   0  0  0  0  0  0  0  0  0  0  0  0
    1.0646    0.2602   -7.1229 H   0  0  0  0  0  0  0  0  0  0  0  0
    2.0042    1.2367   -5.0431 H   0  0  0  0  0  0  0  0  0  0  0  0
    3.1152   -1.7358  -10.0962 H   0  0  0  0  0  0  0  0  0  0  0  0
    2.1314   -0.2753  -10.3527 H   0  0  0  0  0  0  0  0  0  0  0  0
    2.9639   -0.5158   -8.8250 H   0  0  0  0  0  0  0  0  0  0  0  0
    0.2052   -1.4629  -11.7428 H   0  0  0  0  0  0  0  0  0  0  0  0
    1.5075   -2.6686  -11.8176 H   0  0  0  0  0  0  0  0  0  0  0  0
   -0.1690   -3.1807  -11.9260 H   0  0  0  0  0  0  0  0  0  0  0  0
   -1.2258   -4.6293  -10.7131 H   0  0  0  0  0  0  0  0  0  0  0  0
   -0.4800   -6.1844   -8.1890 H   0  0  0  0  0  0  0  0  0  0  0  0
   -1.2836   -6.8058   -9.6289 H   0  0  0  0  0  0  0  0  0  0  0  0
    0.3887   -6.2360   -9.7328 H   0  0  0  0  0  0  0  0  0  0  0  0
   -2.8639   -3.4152   -9.3222 H   0  0  0  0  0  0  0  0  0  0  0  0
   -3.1871   -5.1534   -9.3367 H   0  0  0  0  0  0  0  0  0  0  0  0
   -2.4447   -4.4069   -7.9166 H   0  0  0  0  0  0  0  0  0  0  0  0
  1  2  2  0  0  0  0
  1 31  1  0  0  0  0
  2  3  1  0  0  0  0
  2  7  1  0  0  0  0
  3  4  2  0  0  0  0
  3 32  1  0  0  0  0
  4  5  1  0  0  0  0
  4 33  1  0  0  0  0
  5  6  2  0  0  0  0
  5 34  1  0  0  0  0
  6  1  1  0  0  0  0
  6 35  1  0  0  0  0
  7  8  1  0  0  0  0
  8  9  1  0  0  0  0
  8 36  1  0  0  0  0
  8 37  1  0  0  0  0
  9 10  1  0  0  0  0
  9 38  1  0  0  0  0
  9 39  1  0  0  0  0
 10 11  1  0  0  0  0
 10 40  1  0  0  0  0
 11 12  1  0  0  0  0
 11 18  2  0  0  0  0
 11 19  2  0  0  0  0
 12 13  2  0  0  0  0
 13 14  1  0  0  0  0
 13 41  1  0  0  0  0
 14 15  2  0  0  0  0
 14 42  1  0  0  0  0
 15 16  1  0  0  0  0
 15 20  1  0  0  0  0
 16 17  2  0  0  0  0
 16 43  1  0  0  0  0
 17 12  1  0  0  0  0
 17 44  1  0  0  0  0
 20 21  1  0  0  0  0
 21 22  1  0  0  0  0
 21 30  2  0  0  0  0
 22 23  2  0  0  0  0
 22 27  1  0  0  0  0
 23 24  1  0  0  0  0
 23 26  1  0  0  0  0
 24 20  1  0  0  0  0
 24 25  1  0  0  0  0
 25 45  1  0  0  0  0
 25 46  1  0  0  0  0
 25 47  1  0  0  0  0
 26 48  1  0  0  0  0
 26 49  1  0  0  0  0
 26 50  1  0  0  0  0
 27 28  1  0  0  0  0
 27 29  1  0  0  0  0
 27 51  1  0  0  0  0
 28 52  1  0  0  0  0
 28 53  1  0  0  0  0
 28 54  1  0  0  0  0
 29 55  1  0  0  0  0
 29 56  1  0  0  0  0
 29 57  1  0  0  0  0
M  END
>  <Mol_ID>
6806

>  <Formula>
C22H27N3O4S

>  <MolWeight>
429.53248

>  <Cat>
E0488

>  <Name>
BC-LI-0186

>  <Target>
DNA/RNA Synthesis

>  <Form>
Free base

>  <CAS>
695207-56-8

>  <URL>
http://www.selleckchem.com/products/bc-li-0186.html

$$$$
