BCH
 OpenBabel08302521383D

 24 25  0  0  0  0  0  0  0  0999 V2000
    0.8896    1.6163   -0.0716 O   0  0  0  0  0  0  0  0  0  0  0  0
    1.0721    0.1578    1.6038 O   0  0  0  0  0  0  0  0  0  0  0  0
   -1.6632    2.1911    0.9692 N   0  0  0  0  0  0  0  0  0  0  0  0
   -1.7656    0.1578   -0.4949 C   0  0  3  0  0  0  0  0  0  0  0  0
   -2.6513   -1.1281    1.0931 C   0  0  3  0  0  0  0  0  0  0  0  0
   -1.1962    0.7919    0.8099 C   0  0  3  0  0  0  0  0  0  0  0  0
   -3.1738   -0.2761   -0.0627 C   0  0  0  0  0  0  0  0  0  0  0  0
   -1.8322   -0.1033    1.9042 C   0  0  0  0  0  0  0  0  0  0  0  0
   -1.1304   -1.2214   -0.7649 C   0  0  0  0  0  0  0  0  0  0  0  0
   -1.6845   -2.0853    0.3755 C   0  0  0  0  0  0  0  0  0  0  0  0
    0.3457    0.7892    0.8564 C   0  0  0  0  0  0  0  0  0  0  0  0
    1.8494    1.5609    0.1235 H   0  0  0  0  0  0  0  0  0  0  0  0
   -1.2629    2.7409    0.2061 H   0  0  0  0  0  0  0  0  0  0  0  0
   -2.6732    2.2433    0.8595 H   0  0  0  0  0  0  0  0  0  0  0  0
   -1.7339    0.8159   -1.3675 H   0  0  0  0  0  0  0  0  0  0  0  0
   -3.4138   -1.6397    1.6840 H   0  0  0  0  0  0  0  0  0  0  0  0
   -3.6977   -0.8618   -0.8256 H   0  0  0  0  0  0  0  0  0  0  0  0
   -3.8197    0.5447    0.2616 H   0  0  0  0  0  0  0  0  0  0  0  0
   -1.1034   -0.5934    2.5576 H   0  0  0  0  0  0  0  0  0  0  0  0
   -2.5088    0.4701    2.5501 H   0  0  0  0  0  0  0  0  0  0  0  0
   -0.0376   -1.2102   -0.7899 H   0  0  0  0  0  0  0  0  0  0  0  0
   -1.4764   -1.6146   -1.7290 H   0  0  0  0  0  0  0  0  0  0  0  0
   -0.8918   -2.4513    1.0352 H   0  0  0  0  0  0  0  0  0  0  0  0
   -2.2180   -2.9512   -0.0317 H   0  0  0  0  0  0  0  0  0  0  0  0
  1 11  1  0  0  0  0
  1 12  1  0  0  0  0
  2 11  2  0  0  0  0
  3  6  1  0  0  0  0
  3 13  1  0  0  0  0
  3 14  1  0  0  0  0
  4  6  1  0  0  0  0
  4  7  1  0  0  0  0
  4  9  1  0  0  0  0
  4 15  1  0  0  0  0
  5  7  1  0  0  0  0
  5  8  1  0  0  0  0
  5 10  1  0  0  0  0
  5 16  1  0  0  0  0
  6  8  1  0  0  0  0
  6 11  1  0  0  0  0
  7 17  1  0  0  0  0
  7 18  1  0  0  0  0
  8 19  1  0  0  0  0
  8 20  1  0  0  0  0
  9 10  1  0  0  0  0
  9 21  1  0  0  0  0
  9 22  1  0  0  0  0
 10 23  1  0  0  0  0
 10 24  1  0  0  0  0
M  END
>  <Mol_ID>
7944

>  <Formula>
C8H13NO2

>  <MolWeight>
155.19432

>  <Cat>
S6894

>  <Name>
BCH

>  <Synonyms>
2-Aminobicyclo-(2,2,1)-heptane-2-carboxylic acid, LAT1-IN-1

>  <Target>
Amino acid transporter,Apoptosis related

>  <Form>
free base

>  <CAS>
20448-79-7

>  <URL>
http://www.selleckchem.com/products/bch.html

$$$$
