BCI-121
 OpenBabel08302521243D

 38 39  0  0  0  0  0  0  0  0999 V2000
    1.1446    7.6602    5.5441 Br  0  0  0  0  0  0  0  0  0  0  0  0
    1.4293    3.9511   -5.3294 O   0  0  0  0  0  0  0  0  0  0  0  0
    5.6106    3.8826    1.6605 O   0  0  0  0  0  0  0  0  0  0  0  0
    3.9240    2.7005   -1.3064 N   0  0  0  0  0  0  0  0  0  0  0  0
    2.3188    2.0954   -6.2220 N   0  0  0  0  0  0  0  0  0  0  0  0
    3.3351    3.9909    1.1642 N   0  0  0  0  0  0  0  0  0  0  0  0
    3.3299    2.9603   -4.1759 C   0  0  0  0  0  0  0  0  0  0  0  0
    3.2151    4.1281   -3.1885 C   0  0  0  0  0  0  0  0  0  0  0  0
    3.2251    1.6286   -3.4284 C   0  0  0  0  0  0  0  0  0  0  0  0
    4.1732    3.9757   -2.0068 C   0  0  0  0  0  0  0  0  0  0  0  0
    4.1832    1.5847   -2.2415 C   0  0  0  0  0  0  0  0  0  0  0  0
    4.8347    2.5374   -0.1450 C   0  0  0  0  0  0  0  0  0  0  0  0
    2.2691    3.0627   -5.2629 C   0  0  0  0  0  0  0  0  0  0  0  0
    4.6397    3.5647    0.9740 C   0  0  0  0  0  0  0  0  0  0  0  0
    2.8689    4.8669    2.1732 C   0  0  0  0  0  0  0  0  0  0  0  0
    3.7011    5.4320    3.1443 C   0  0  0  0  0  0  0  0  0  0  0  0
    1.5020    5.1758    2.2128 C   0  0  0  0  0  0  0  0  0  0  0  0
    3.1925    6.2686    4.1420 C   0  0  0  0  0  0  0  0  0  0  0  0
    0.9846    6.0134    3.2128 C   0  0  0  0  0  0  0  0  0  0  0  0
    1.8333    6.5520    4.1773 C   0  0  0  0  0  0  0  0  0  0  0  0
    3.0483    1.4017   -6.2816 H   0  0  0  0  0  0  0  0  0  0  0  0
    1.6487    2.1597   -6.9800 H   0  0  0  0  0  0  0  0  0  0  0  0
    2.6660    3.6399    0.4836 H   0  0  0  0  0  0  0  0  0  0  0  0
    4.3089    3.0198   -4.6717 H   0  0  0  0  0  0  0  0  0  0  0  0
    3.4216    5.0733   -3.7050 H   0  0  0  0  0  0  0  0  0  0  0  0
    2.1868    4.2000   -2.8090 H   0  0  0  0  0  0  0  0  0  0  0  0
    2.1967    1.4732   -3.0762 H   0  0  0  0  0  0  0  0  0  0  0  0
    3.4522    0.7922   -4.0993 H   0  0  0  0  0  0  0  0  0  0  0  0
    5.2122    4.0390   -2.3567 H   0  0  0  0  0  0  0  0  0  0  0  0
    4.0081    4.8243   -1.3346 H   0  0  0  0  0  0  0  0  0  0  0  0
    4.0543    0.6230   -1.7321 H   0  0  0  0  0  0  0  0  0  0  0  0
    5.2199    1.6152   -2.6091 H   0  0  0  0  0  0  0  0  0  0  0  0
    5.8827    2.5864   -0.4681 H   0  0  0  0  0  0  0  0  0  0  0  0
    4.6665    1.5571    0.3184 H   0  0  0  0  0  0  0  0  0  0  0  0
    4.7707    5.2421    3.1633 H   0  0  0  0  0  0  0  0  0  0  0  0
    0.8150    4.7674    1.4751 H   0  0  0  0  0  0  0  0  0  0  0  0
    3.8711    6.6833    4.8830 H   0  0  0  0  0  0  0  0  0  0  0  0
   -0.0794    6.2352    3.2358 H   0  0  0  0  0  0  0  0  0  0  0  0
  1 20  1  0  0  0  0
  2 13  2  0  0  0  0
  3 14  2  0  0  0  0
  4 10  1  0  0  0  0
  4 11  1  0  0  0  0
  4 12  1  0  0  0  0
  5 13  1  0  0  0  0
  5 21  1  0  0  0  0
  5 22  1  0  0  0  0
  6 14  1  0  0  0  0
  6 15  1  0  0  0  0
  6 23  1  0  0  0  0
  7  8  1  0  0  0  0
  7  9  1  0  0  0  0
  7 13  1  0  0  0  0
  7 24  1  0  0  0  0
  8 10  1  0  0  0  0
  8 25  1  0  0  0  0
  8 26  1  0  0  0  0
  9 11  1  0  0  0  0
  9 27  1  0  0  0  0
  9 28  1  0  0  0  0
 10 29  1  0  0  0  0
 10 30  1  0  0  0  0
 11 31  1  0  0  0  0
 11 32  1  0  0  0  0
 12 14  1  0  0  0  0
 12 33  1  0  0  0  0
 12 34  1  0  0  0  0
 15 16  2  0  0  0  0
 15 17  1  0  0  0  0
 16 18  1  0  0  0  0
 16 35  1  0  0  0  0
 17 19  2  0  0  0  0
 17 36  1  0  0  0  0
 18 20  2  0  0  0  0
 18 37  1  0  0  0  0
 19 20  1  0  0  0  0
 19 38  1  0  0  0  0
M  END
>  <Mol_ID>
5009

>  <Formula>
C14H18BrN3O2

>  <MolWeight>
340.21562

>  <Cat>
S6833

>  <Name>
BCI-121

>  <Synonyms>
N/A

>  <Target>
SMYD

>  <Form>
Free Base

>  <CAS>
432529-82-3

>  <URL>
http://www.selleckchem.com/products/bcl-121.html

$$$$
