BCI
 OpenBabel08302521283D

 47 50  0  0  0  0  0  0  0  0999 V2000
    1.2788   -0.7927   -0.0090 C   0  0  0  0  0  0  0  0  0  0  0  0
    1.8724    0.5818   -0.0395 C   0  0  0  0  0  0  0  0  0  0  0  0
    0.7263    1.5688   -0.0856 C   0  0  3  0  0  0  0  0  0  0  0  0
   -0.4710    0.7083   -0.3976 C   0  0  0  0  0  0  0  0  0  0  0  0
   -1.7801    1.1074   -0.6374 C   0  0  0  0  0  0  0  0  0  0  0  0
   -2.7873    0.1377   -0.5892 C   0  0  0  0  0  0  0  0  0  0  0  0
   -2.4774   -1.2088   -0.3216 C   0  0  0  0  0  0  0  0  0  0  0  0
   -1.1498   -1.6181   -0.1657 C   0  0  0  0  0  0  0  0  0  0  0  0
   -0.1664   -0.6456   -0.2355 C   0  0  0  0  0  0  0  0  0  0  0  0
    1.8673   -1.8347    0.1786 O   0  0  0  0  0  0  0  0  0  0  0  0
    3.1976    0.7839   -0.0780 C   0  0  0  0  0  0  0  0  0  0  0  0
    3.7912    2.1173   -0.1781 C   0  0  0  0  0  0  0  0  0  0  0  0
    4.1308    2.8287    0.9771 C   0  0  0  0  0  0  0  0  0  0  0  0
    4.6569    4.1198    0.8810 C   0  0  0  0  0  0  0  0  0  0  0  0
    4.8534    4.7024   -0.3658 C   0  0  0  0  0  0  0  0  0  0  0  0
    4.5299    3.9926   -1.5231 C   0  0  0  0  0  0  0  0  0  0  0  0
    3.9972    2.7104   -1.4314 C   0  0  0  0  0  0  0  0  0  0  0  0
    0.5762    2.3577    1.1554 N   0  0  0  0  0  0  0  0  0  0  0  0
    0.3940    1.6304    2.4391 C   0  0  0  0  0  0  0  0  0  0  0  0
   -1.0237    1.0389    2.5639 C   0  0  0  0  0  0  0  0  0  0  0  0
   -1.5243    0.6784    3.9519 C   0  0  0  0  0  0  0  0  0  0  0  0
   -1.2091    1.7523    4.9699 C   0  0  0  0  0  0  0  0  0  0  0  0
    0.2840    2.0438    4.9563 C   0  0  0  0  0  0  0  0  0  0  0  0
    0.7076    2.5993    3.5973 C   0  0  0  0  0  0  0  0  0  0  0  0
    0.8658    2.2579   -0.9284 H   0  0  0  0  0  0  0  0  0  0  0  0
   -2.0284    2.1574   -0.7626 H   0  0  0  0  0  0  0  0  0  0  0  0
   -3.8274    0.4378   -0.7008 H   0  0  0  0  0  0  0  0  0  0  0  0
   -3.2841   -1.9299   -0.2044 H   0  0  0  0  0  0  0  0  0  0  0  0
   -0.9011   -2.6464    0.0758 H   0  0  0  0  0  0  0  0  0  0  0  0
    3.8946   -0.0513   -0.0507 H   0  0  0  0  0  0  0  0  0  0  0  0
    3.9824    2.3845    1.9597 H   0  0  0  0  0  0  0  0  0  0  0  0
    4.9123    4.6700    1.7843 H   0  0  0  0  0  0  0  0  0  0  0  0
    5.2698    5.7028   -0.4370 H   0  0  0  0  0  0  0  0  0  0  0  0
    4.6905    4.4492   -2.5011 H   0  0  0  0  0  0  0  0  0  0  0  0
    3.7420    2.1694   -2.3435 H   0  0  0  0  0  0  0  0  0  0  0  0
    1.3971    2.9605    1.2251 H   0  0  0  0  0  0  0  0  0  0  0  0
    1.1274    0.8179    2.5184 H   0  0  0  0  0  0  0  0  0  0  0  0
   -1.7481    1.7238    2.1101 H   0  0  0  0  0  0  0  0  0  0  0  0
   -1.0641    0.0990    2.0179 H   0  0  0  0  0  0  0  0  0  0  0  0
   -2.6076    0.5133    3.9023 H   0  0  0  0  0  0  0  0  0  0  0  0
   -1.0797   -0.2740    4.2666 H   0  0  0  0  0  0  0  0  0  0  0  0
   -1.7738    2.6627    4.7360 H   0  0  0  0  0  0  0  0  0  0  0  0
   -1.5268    1.4177    5.9620 H   0  0  0  0  0  0  0  0  0  0  0  0
    0.5220    2.7668    5.7437 H   0  0  0  0  0  0  0  0  0  0  0  0
    0.8442    1.1268    5.1777 H   0  0  0  0  0  0  0  0  0  0  0  0
    1.7850    2.8080    3.6213 H   0  0  0  0  0  0  0  0  0  0  0  0
    0.2042    3.5613    3.4369 H   0  0  0  0  0  0  0  0  0  0  0  0
  1  2  1  0  0  0  0
  1  9  1  0  0  0  0
  1 10  2  0  0  0  0
  2  3  1  0  0  0  0
  2 11  2  0  0  0  0
  3  4  1  0  0  0  0
  3 18  1  0  0  0  0
  3 25  1  0  0  0  0
  4  5  2  0  0  0  0
  4  9  1  0  0  0  0
  5  6  1  0  0  0  0
  5 26  1  0  0  0  0
  6  7  2  0  0  0  0
  6 27  1  0  0  0  0
  7  8  1  0  0  0  0
  7 28  1  0  0  0  0
  8  9  2  0  0  0  0
  8 29  1  0  0  0  0
 11 12  1  0  0  0  0
 11 30  1  0  0  0  0
 12 13  2  0  0  0  0
 12 17  1  0  0  0  0
 13 14  1  0  0  0  0
 13 31  1  0  0  0  0
 14 15  2  0  0  0  0
 14 32  1  0  0  0  0
 15 16  1  0  0  0  0
 15 33  1  0  0  0  0
 16 17  2  0  0  0  0
 16 34  1  0  0  0  0
 17 35  1  0  0  0  0
 18 19  1  0  0  0  0
 18 36  1  0  0  0  0
 19 20  1  0  0  0  0
 19 24  1  0  0  0  0
 19 37  1  0  0  0  0
 20 21  1  0  0  0  0
 20 38  1  0  0  0  0
 20 39  1  0  0  0  0
 21 22  1  0  0  0  0
 21 40  1  0  0  0  0
 21 41  1  0  0  0  0
 22 23  1  0  0  0  0
 22 42  1  0  0  0  0
 22 43  1  0  0  0  0
 23 24  1  0  0  0  0
 23 44  1  0  0  0  0
 23 45  1  0  0  0  0
 24 46  1  0  0  0  0
 24 47  1  0  0  0  0
M  END
>  <Mol_ID>
5422

>  <Formula>
C22H23NO

>  <MolWeight>
317.42412

>  <Cat>
S2837

>  <Name>
BCI

>  <Synonyms>
(E)-BCI

>  <Target>
phosphatase

>  <Form>
Free Base

>  <CAS>
1245792-51-1

>  <URL>
https://www.selleckchem.com/products/bci.html

$$$$
