BCTC
 OpenBabel08302521243D

 51 53  0  0  0  0  0  0  0  0999 V2000
   -1.4085    0.0790    0.0598 N   0  0  0  0  0  0  0  0  0  0  0  0
   -0.6725   -1.0885   -0.4572 C   0  0  0  0  0  0  0  0  0  0  0  0
    0.7763   -1.0777    0.0650 C   0  0  0  0  0  0  0  0  0  0  0  0
    1.4398    0.1944   -0.2510 N   0  0  0  0  0  0  0  0  0  0  0  0
    0.7183    1.4184    0.1133 C   0  0  0  0  0  0  0  0  0  0  0  0
   -0.7662    1.3499   -0.2980 C   0  0  0  0  0  0  0  0  0  0  0  0
   -2.5439    0.1202    0.8542 C   0  0  0  0  0  0  0  0  0  0  0  0
   -2.9335    1.2072    1.2975 O   0  0  0  0  0  0  0  0  0  0  0  0
   -3.1837   -1.0748    1.0933 N   0  0  0  0  0  0  0  0  0  0  0  0
   -4.3333   -1.2719    1.9041 C   0  0  0  0  0  0  0  0  0  0  0  0
   -5.0519   -0.2362    2.4909 C   0  0  0  0  0  0  0  0  0  0  0  0
   -6.0468   -0.4939    3.4415 C   0  0  0  0  0  0  0  0  0  0  0  0
   -6.3828   -1.7990    3.8290 C   0  0  0  0  0  0  0  0  0  0  0  0
   -5.7610   -2.8403    3.1187 C   0  0  0  0  0  0  0  0  0  0  0  0
   -4.7517   -2.5808    2.1704 C   0  0  0  0  0  0  0  0  0  0  0  0
   -7.3430   -2.0811    5.0003 C   0  0  0  0  0  0  0  0  0  0  0  0
    2.5683    0.2168   -1.0419 C   0  0  0  0  0  0  0  0  0  0  0  0
    3.4957    1.2555   -0.9373 C   0  0  0  0  0  0  0  0  0  0  0  0
    4.6382    1.2719   -1.7369 C   0  0  0  0  0  0  0  0  0  0  0  0
    4.8380    0.2463   -2.6441 C   0  0  0  0  0  0  0  0  0  0  0  0
    3.8889   -0.7571   -2.6896 C   0  0  0  0  0  0  0  0  0  0  0  0
    2.7813   -0.7969   -1.9094 N   0  0  0  0  0  0  0  0  0  0  0  0
   -7.8478   -0.7839    5.6763 C   0  0  0  0  0  0  0  0  0  0  0  0
   -8.5714   -2.8803    4.5254 C   0  0  0  0  0  0  0  0  0  0  0  0
   -6.6289   -2.9056    6.0961 C   0  0  0  0  0  0  0  0  0  0  0  0
   -1.1499   -2.0335   -0.1988 H   0  0  0  0  0  0  0  0  0  0  0  0
   -0.6741   -1.0042   -1.5514 H   0  0  0  0  0  0  0  0  0  0  0  0
    0.7574   -1.1732    1.1577 H   0  0  0  0  0  0  0  0  0  0  0  0
    1.3196   -1.9536   -0.3109 H   0  0  0  0  0  0  0  0  0  0  0  0
    0.7988    1.5551    1.1967 H   0  0  0  0  0  0  0  0  0  0  0  0
    1.1426    2.3112   -0.3622 H   0  0  0  0  0  0  0  0  0  0  0  0
   -0.8537    1.4400   -1.3876 H   0  0  0  0  0  0  0  0  0  0  0  0
   -1.2897    2.2118    0.1300 H   0  0  0  0  0  0  0  0  0  0  0  0
   -2.7380   -1.9164    0.7766 H   0  0  0  0  0  0  0  0  0  0  0  0
   -4.8478    0.8046    2.2662 H   0  0  0  0  0  0  0  0  0  0  0  0
   -6.5174    0.3762    3.8912 H   0  0  0  0  0  0  0  0  0  0  0  0
   -6.0264   -3.8765    3.3192 H   0  0  0  0  0  0  0  0  0  0  0  0
   -4.2793   -3.4270    1.6772 H   0  0  0  0  0  0  0  0  0  0  0  0
    3.3592    2.0456   -0.2067 H   0  0  0  0  0  0  0  0  0  0  0  0
    5.3615    2.0751   -1.6394 H   0  0  0  0  0  0  0  0  0  0  0  0
    5.7096    0.2255   -3.2866 H   0  0  0  0  0  0  0  0  0  0  0  0
    3.9960   -1.5929   -3.3778 H   0  0  0  0  0  0  0  0  0  0  0  0
   -8.4278   -0.1680    4.9788 H   0  0  0  0  0  0  0  0  0  0  0  0
   -8.4950   -0.9982    6.5347 H   0  0  0  0  0  0  0  0  0  0  0  0
   -7.0123   -0.1783    6.0502 H   0  0  0  0  0  0  0  0  0  0  0  0
   -8.2894   -3.8463    4.0915 H   0  0  0  0  0  0  0  0  0  0  0  0
   -9.2473   -3.0920    5.3642 H   0  0  0  0  0  0  0  0  0  0  0  0
   -9.1400   -2.3289    3.7704 H   0  0  0  0  0  0  0  0  0  0  0  0
   -6.2803   -3.8758    5.7249 H   0  0  0  0  0  0  0  0  0  0  0  0
   -5.7597   -2.3718    6.4992 H   0  0  0  0  0  0  0  0  0  0  0  0
   -7.3070   -3.1105    6.9361 H   0  0  0  0  0  0  0  0  0  0  0  0
  1  2  1  0  0  0  0
  1  6  1  0  0  0  0
  1  7  1  0  0  0  0
  2  3  1  0  0  0  0
  2 26  1  0  0  0  0
  2 27  1  0  0  0  0
  3  4  1  0  0  0  0
  3 28  1  0  0  0  0
  3 29  1  0  0  0  0
  4  5  1  0  0  0  0
  4 17  1  0  0  0  0
  5  6  1  0  0  0  0
  5 30  1  0  0  0  0
  5 31  1  0  0  0  0
  6 32  1  0  0  0  0
  6 33  1  0  0  0  0
  7  8  2  0  0  0  0
  7  9  1  0  0  0  0
  9 10  1  0  0  0  0
  9 34  1  0  0  0  0
 10 11  2  0  0  0  0
 10 15  1  0  0  0  0
 11 12  1  0  0  0  0
 11 35  1  0  0  0  0
 12 13  2  0  0  0  0
 12 36  1  0  0  0  0
 13 14  1  0  0  0  0
 13 16  1  0  0  0  0
 14 15  2  0  0  0  0
 14 37  1  0  0  0  0
 15 38  1  0  0  0  0
 16 23  1  0  0  0  0
 16 24  1  0  0  0  0
 16 25  1  0  0  0  0
 17 18  2  0  0  0  0
 17 22  1  0  0  0  0
 18 19  1  0  0  0  0
 18 39  1  0  0  0  0
 19 20  2  0  0  0  0
 19 40  1  0  0  0  0
 20 21  1  0  0  0  0
 20 41  1  0  0  0  0
 21 22  2  0  0  0  0
 21 42  1  0  0  0  0
 23 43  1  0  0  0  0
 23 44  1  0  0  0  0
 23 45  1  0  0  0  0
 24 46  1  0  0  0  0
 24 47  1  0  0  0  0
 24 48  1  0  0  0  0
 25 49  1  0  0  0  0
 25 50  1  0  0  0  0
 25 51  1  0  0  0  0
M  END
>  <Mol_ID>
5012

>  <Formula>
C20H25ClN4O

>  <MolWeight>
372.8917

>  <Cat>
S6838

>  <Name>
BCTC

>  <Synonyms>
N/A

>  <Target>
TRP Channel

>  <Form>
Free Base

>  <CAS>
393514-24-4

>  <URL>
http://www.selleckchem.com/products/bctc.html

$$$$
