BD-1047 dihydrobromide
 OpenBabel08302521273D

 41 39  0  0  0  0  0  0  0  0999 V2000
    1.3068    0.4753   -0.2106 N   0  0  0  0  0  0  0  0  0  0  0  0
    0.0477    3.7954    1.2683 N   0  0  0  0  0  0  0  0  0  0  0  0
    0.5529    1.7575   -0.1393 C   0  0  0  0  0  0  0  0  0  0  0  0
    0.9657   -0.3880   -1.3743 C   0  0  0  0  0  0  0  0  0  0  0  0
    0.9347    2.6232    1.0874 C   0  0  0  0  0  0  0  0  0  0  0  0
    1.1650    0.2653   -2.7637 C   0  0  0  0  0  0  0  0  0  0  0  0
    2.7559    0.5981    0.0256 C   0  0  0  0  0  0  0  0  0  0  0  0
    0.8652   -0.7042   -3.8945 C   0  0  0  0  0  0  0  0  0  0  0  0
    0.1634    4.7665    0.1605 C   0  0  0  0  0  0  0  0  0  0  0  0
    0.2734    4.4395    2.5838 C   0  0  0  0  0  0  0  0  0  0  0  0
   -0.2168   -0.4728   -4.7716 C   0  0  0  0  0  0  0  0  0  0  0  0
    1.6717   -1.8400   -4.1008 C   0  0  0  0  0  0  0  0  0  0  0  0
   -0.4842   -1.3632   -5.8204 C   0  0  0  0  0  0  0  0  0  0  0  0
    1.4044   -2.7215   -5.1559 C   0  0  0  0  0  0  0  0  0  0  0  0
    0.3262   -2.4840   -6.0142 C   0  0  0  0  0  0  0  0  0  0  0  0
    2.1357   -3.0078    1.3213 Br  0  0  0  0  0  0  0  0  0  0  0  0
   -0.8389   -0.6358    2.3543 Br  0  0  0  0  0  0  0  0  0  0  0  0
    0.7202    2.3594   -1.0529 H   0  0  0  0  0  0  0  0  0  0  0  0
   -0.5298    1.5143   -0.0612 H   0  0  0  0  0  0  0  0  0  0  0  0
    1.5696   -1.3201   -1.3201 H   0  0  0  0  0  0  0  0  0  0  0  0
   -0.0944   -0.7040   -1.2869 H   0  0  0  0  0  0  0  0  0  0  0  0
    0.8544    1.9782    1.9874 H   0  0  0  0  0  0  0  0  0  0  0  0
    1.9923    2.9649    1.0038 H   0  0  0  0  0  0  0  0  0  0  0  0
    0.4806    1.1335   -2.8519 H   0  0  0  0  0  0  0  0  0  0  0  0
    2.2078    0.6299   -2.8786 H   0  0  0  0  0  0  0  0  0  0  0  0
    2.9307    0.7904    1.1066 H   0  0  0  0  0  0  0  0  0  0  0  0
    3.2825   -0.3558   -0.1897 H   0  0  0  0  0  0  0  0  0  0  0  0
    3.2015    1.4136   -0.5785 H   0  0  0  0  0  0  0  0  0  0  0  0
   -0.3452    4.3758   -0.7396 H   0  0  0  0  0  0  0  0  0  0  0  0
   -0.3573    5.7194    0.4168 H   0  0  0  0  0  0  0  0  0  0  0  0
    1.2260    4.9954   -0.0681 H   0  0  0  0  0  0  0  0  0  0  0  0
    0.5058    5.5250    2.5080 H   0  0  0  0  0  0  0  0  0  0  0  0
    1.1013    3.9713    3.1619 H   0  0  0  0  0  0  0  0  0  0  0  0
   -0.6532    4.3388    3.1869 H   0  0  0  0  0  0  0  0  0  0  0  0
   -0.8567    0.3867   -4.6422 H   0  0  0  0  0  0  0  0  0  0  0  0
    2.5155   -2.0363   -3.4540 H   0  0  0  0  0  0  0  0  0  0  0  0
   -1.3196   -1.1825   -6.4874 H   0  0  0  0  0  0  0  0  0  0  0  0
    2.0331   -3.5880   -5.3143 H   0  0  0  0  0  0  0  0  0  0  0  0
    0.1194   -3.1669   -6.8309 H   0  0  0  0  0  0  0  0  0  0  0  0
    3.3488   -2.1175    1.5909 H   0  0  0  0  0  0  0  0  0  0  0  0
    0.6526   -0.3090    2.4435 H   0  0  0  0  0  0  0  0  0  0  0  0
  1  3  1  0  0  0  0
  1  4  1  0  0  0  0
  1  7  1  0  0  0  0
  2  5  1  0  0  0  0
  2  9  1  0  0  0  0
  2 10  1  0  0  0  0
  3  5  1  0  0  0  0
  3 18  1  0  0  0  0
  3 19  1  0  0  0  0
  4  6  1  0  0  0  0
  4 20  1  0  0  0  0
  4 21  1  0  0  0  0
  5 22  1  0  0  0  0
  5 23  1  0  0  0  0
  6  8  1  0  0  0  0
  6 24  1  0  0  0  0
  6 25  1  0  0  0  0
  7 26  1  0  0  0  0
  7 27  1  0  0  0  0
  7 28  1  0  0  0  0
  8 11  2  0  0  0  0
  8 12  1  0  0  0  0
  9 29  1  0  0  0  0
  9 30  1  0  0  0  0
  9 31  1  0  0  0  0
 10 32  1  0  0  0  0
 10 33  1  0  0  0  0
 10 34  1  0  0  0  0
 11 13  1  0  0  0  0
 11 35  1  0  0  0  0
 12 14  2  0  0  0  0
 12 36  1  0  0  0  0
 13 15  2  0  0  0  0
 13 37  1  0  0  0  0
 14 15  1  0  0  0  0
 14 38  1  0  0  0  0
 15 39  1  0  0  0  0
 16 40  1  0  0  0  0
 17 41  1  0  0  0  0
M  END
>  <Mol_ID>
5337

>  <Formula>
C13H22Br2Cl2N2

>  <MolWeight>
437.04118

>  <Cat>
S0106

>  <Name>
BD-1047 dihydrobromide

>  <Synonyms>
BD-1047 HBr

>  <Target>
Sigma Receptor

>  <Form>
Dihydrobromide

>  <CAS>
138356-21-5

>  <URL>
https://www.selleckchem.com/products/bd-1047-dihydrobromide.html

$$$$
