BD750
 OpenBabel08302521313D

 32 35  0  0  0  0  0  0  0  0999 V2000
   -1.4233   -1.7245    1.5263 S   0  0  0  0  0  0  0  0  0  0  0  0
   -3.8463   -0.1937   -2.1964 O   0  0  0  0  0  0  0  0  0  0  0  0
   -4.1518   -2.3614    0.5975 N   0  0  0  0  0  0  0  0  0  0  0  0
   -3.4902   -1.4414   -0.1792 N   0  0  0  0  0  0  0  0  0  0  0  0
   -1.6001    0.0319   -0.3525 N   0  0  0  0  0  0  0  0  0  0  0  0
   -5.3577   -2.4616    0.0409 C   0  0  0  0  0  0  0  0  0  0  0  0
   -5.4883   -1.6774   -1.1231 C   0  0  0  0  0  0  0  0  0  0  0  0
   -6.4628   -3.2741    0.6240 C   0  0  0  0  0  0  0  0  0  0  0  0
   -6.7236   -1.6439   -1.9471 C   0  0  0  0  0  0  0  0  0  0  0  0
   -7.6028   -3.4652   -0.3942 C   0  0  0  0  0  0  0  0  0  0  0  0
   -7.9327   -2.1675   -1.1530 C   0  0  0  0  0  0  0  0  0  0  0  0
   -4.2763   -1.0396   -1.2635 C   0  0  0  0  0  0  0  0  0  0  0  0
   -2.2210   -0.9828    0.2116 C   0  0  0  0  0  0  0  0  0  0  0  0
   -0.1882   -0.5274    1.4420 C   0  0  0  0  0  0  0  0  0  0  0  0
   -0.4593    0.3304    0.3730 C   0  0  0  0  0  0  0  0  0  0  0  0
    0.9275   -0.3465    2.2757 C   0  0  0  0  0  0  0  0  0  0  0  0
    0.4088    1.4165    0.1406 C   0  0  0  0  0  0  0  0  0  0  0  0
    1.7598    0.7514    2.0374 C   0  0  0  0  0  0  0  0  0  0  0  0
    1.5039    1.6260    0.9859 C   0  0  0  0  0  0  0  0  0  0  0  0
   -4.5615   -0.0643   -2.8418 H   0  0  0  0  0  0  0  0  0  0  0  0
   -6.8544   -2.7518    1.5062 H   0  0  0  0  0  0  0  0  0  0  0  0
   -6.0963   -4.2507    0.9554 H   0  0  0  0  0  0  0  0  0  0  0  0
   -6.5725   -2.2722   -2.8333 H   0  0  0  0  0  0  0  0  0  0  0  0
   -6.9288   -0.6243   -2.2972 H   0  0  0  0  0  0  0  0  0  0  0  0
   -8.4972   -3.8309    0.1233 H   0  0  0  0  0  0  0  0  0  0  0  0
   -7.3165   -4.2359   -1.1212 H   0  0  0  0  0  0  0  0  0  0  0  0
   -8.7709   -2.3374   -1.8383 H   0  0  0  0  0  0  0  0  0  0  0  0
   -8.2568   -1.4047   -0.4330 H   0  0  0  0  0  0  0  0  0  0  0  0
    1.1233   -1.0253    3.1000 H   0  0  0  0  0  0  0  0  0  0  0  0
    0.2039    2.0980   -0.6795 H   0  0  0  0  0  0  0  0  0  0  0  0
    2.6127    0.9270    2.6897 H   0  0  0  0  0  0  0  0  0  0  0  0
    2.1535    2.4825    0.8217 H   0  0  0  0  0  0  0  0  0  0  0  0
  1 13  1  0  0  0  0
  1 14  1  0  0  0  0
  2 12  1  0  0  0  0
  2 20  1  0  0  0  0
  3  4  1  0  0  0  0
  3  6  2  0  0  0  0
  4 12  1  0  0  0  0
  4 13  1  0  0  0  0
  5 13  2  0  0  0  0
  5 15  1  0  0  0  0
  6  7  1  0  0  0  0
  6  8  1  0  0  0  0
  7  9  1  0  0  0  0
  7 12  2  0  0  0  0
  8 10  1  0  0  0  0
  8 21  1  0  0  0  0
  8 22  1  0  0  0  0
  9 11  1  0  0  0  0
  9 23  1  0  0  0  0
  9 24  1  0  0  0  0
 10 11  1  0  0  0  0
 10 25  1  0  0  0  0
 10 26  1  0  0  0  0
 11 27  1  0  0  0  0
 11 28  1  0  0  0  0
 14 15  2  0  0  0  0
 14 16  1  0  0  0  0
 15 17  1  0  0  0  0
 16 18  2  0  0  0  0
 16 29  1  0  0  0  0
 17 19  2  0  0  0  0
 17 30  1  0  0  0  0
 18 19  1  0  0  0  0
 18 31  1  0  0  0  0
 19 32  1  0  0  0  0
M  END
>  <Mol_ID>
5782

>  <Formula>
C14H13N3OS

>  <MolWeight>
271.33752

>  <Cat>
S0981

>  <Name>
BD750

>  <Synonyms>
N/A

>  <Target>
JAK,STAT

>  <Form>
Free Base

>  <CAS>
892686-59-8

>  <URL>
http://www.selleckchem.com/products/bd750.html

$$$$
