Beclamide
 OpenBabel08302521303D

 25 25  0  0  0  0  0  0  0  0999 V2000
    1.3902   -0.2370    0.0225 C   0  0  0  0  0  0  0  0  0  0  0  0
    2.8738   -0.4551    0.1403 C   0  0  0  0  0  0  0  0  0  0  0  0
    0.5886   -1.1447   -0.6845 C   0  0  0  0  0  0  0  0  0  0  0  0
    0.7820    0.8594    0.6509 C   0  0  0  0  0  0  0  0  0  0  0  0
    3.6153    0.1558   -0.9378 N   0  0  0  0  0  0  0  0  0  0  0  0
   -0.7974   -0.9825   -0.7238 C   0  0  0  0  0  0  0  0  0  0  0  0
   -0.6051    1.0119    0.6216 C   0  0  0  0  0  0  0  0  0  0  0  0
    4.9856    0.0333   -0.9797 C   0  0  0  0  0  0  0  0  0  0  0  0
   -1.3945    0.0887   -0.0613 C   0  0  0  0  0  0  0  0  0  0  0  0
    5.6325    0.6850   -2.1887 C   0  0  0  0  0  0  0  0  0  0  0  0
    5.6183   -0.5593   -0.1158 O   0  0  0  0  0  0  0  0  0  0  0  0
    7.1444    0.5195   -2.1518 C   0  0  0  0  0  0  0  0  0  0  0  0
    3.2411   -0.0520    1.0919 H   0  0  0  0  0  0  0  0  0  0  0  0
    3.0997   -1.5287    0.1523 H   0  0  0  0  0  0  0  0  0  0  0  0
    1.0383   -2.0004   -1.1837 H   0  0  0  0  0  0  0  0  0  0  0  0
    1.3853    1.5844    1.1935 H   0  0  0  0  0  0  0  0  0  0  0  0
    3.1147    0.6328   -1.6752 H   0  0  0  0  0  0  0  0  0  0  0  0
   -1.4139   -1.7037   -1.2544 H   0  0  0  0  0  0  0  0  0  0  0  0
   -1.0715    1.8410    1.1478 H   0  0  0  0  0  0  0  0  0  0  0  0
   -2.4758    0.1994   -0.0704 H   0  0  0  0  0  0  0  0  0  0  0  0
    5.2338    0.2197   -3.0973 H   0  0  0  0  0  0  0  0  0  0  0  0
    5.3774    1.7506   -2.2051 H   0  0  0  0  0  0  0  0  0  0  0  0
    7.4197   -0.5403   -2.1117 H   0  0  0  0  0  0  0  0  0  0  0  0
    7.6107    0.9607   -3.0375 H   0  0  0  0  0  0  0  0  0  0  0  0
    7.5665    1.0040   -1.2643 H   0  0  0  0  0  0  0  0  0  0  0  0
  1  2  1  0  0  0  0
  1  3  2  0  0  0  0
  1  4  1  0  0  0  0
  2  5  1  0  0  0  0
  2 13  1  0  0  0  0
  2 14  1  0  0  0  0
  3  6  1  0  0  0  0
  3 15  1  0  0  0  0
  4  7  2  0  0  0  0
  4 16  1  0  0  0  0
  5  8  1  0  0  0  0
  5 17  1  0  0  0  0
  6  9  2  0  0  0  0
  6 18  1  0  0  0  0
  7  9  1  0  0  0  0
  7 19  1  0  0  0  0
  8 10  1  0  0  0  0
  8 11  2  0  0  0  0
  9 20  1  0  0  0  0
 10 12  1  0  0  0  0
 10 21  1  0  0  0  0
 10 22  1  0  0  0  0
 12 23  1  0  0  0  0
 12 24  1  0  0  0  0
 12 25  1  0  0  0  0
M  END
>  <Mol_ID>
5628

>  <Formula>
C10H12ClNO

>  <MolWeight>
197.66138

>  <Cat>
S5888

>  <Name>
Beclamide

>  <Synonyms>
N-Benzyl-3-chloropropionamide, beta-chlorpropionamide

>  <Target>
Others

>  <Form>
Free Base

>  <CAS>
501-68-8

>  <URL>
http://www.selleckchem.com/products/beclamide.html

$$$$
