Bellidifolin
 OpenBabel08302521463D

 30 32  0  0  0  0  0  0  0  0999 V2000
    0.9068    0.1948    0.0727 O   0  0  0  0  0  0  0  0  0  0  0  0
    0.8358   -2.4521    0.0863 O   0  0  0  0  0  0  0  0  0  0  0  0
    5.1132   -4.6645    0.0648 O   0  0  0  0  0  0  0  0  0  0  0  0
    4.4349   -5.9211    0.0670 C   0  0  0  0  0  0  0  0  0  0  0  0
    6.4040    2.3997    0.0707 O   0  0  0  0  0  0  0  0  0  0  0  0
    0.9022    2.7226    0.0720 O   0  0  0  0  0  0  0  0  0  0  0  0
    4.2574   -1.1131    0.0703 C   0  0  0  0  0  0  0  0  0  0  0  0
    2.8620   -1.1597    0.0753 C   0  0  0  0  0  0  0  0  0  0  0  0
    4.9827    0.0596    0.0689 O   0  0  0  0  0  0  0  0  0  0  0  0
    4.9826   -2.3141    0.0669 C   0  0  0  0  0  0  0  0  0  0  0  0
    2.1348    0.1104    0.0740 C   0  0  0  0  0  0  0  0  0  0  0  0
    2.1999   -2.3895    0.0787 C   0  0  0  0  0  0  0  0  0  0  0  0
    4.3013    1.2590    0.0709 C   0  0  0  0  0  0  0  0  0  0  0  0
    4.3169   -3.5488    0.0691 C   0  0  0  0  0  0  0  0  0  0  0  0
    2.9106    1.3455    0.0724 C   0  0  0  0  0  0  0  0  0  0  0  0
    2.9223   -3.5776    0.0757 C   0  0  0  0  0  0  0  0  0  0  0  0
    5.0363    2.4518    0.0709 C   0  0  0  0  0  0  0  0  0  0  0  0
    2.2657    2.5898    0.0719 C   0  0  0  0  0  0  0  0  0  0  0  0
    4.3951    3.6978    0.0713 C   0  0  0  0  0  0  0  0  0  0  0  0
    3.0039    3.7643    0.0713 C   0  0  0  0  0  0  0  0  0  0  0  0
    0.5296   -3.3726    0.0688 H   0  0  0  0  0  0  0  0  0  0  0  0
    3.8294   -6.0397    0.9733 H   0  0  0  0  0  0  0  0  0  0  0  0
    3.8184   -6.0374   -0.8321 H   0  0  0  0  0  0  0  0  0  0  0  0
    5.1823   -6.7188    0.0614 H   0  0  0  0  0  0  0  0  0  0  0  0
    6.7535    3.3070    0.0713 H   0  0  0  0  0  0  0  0  0  0  0  0
    0.5167    1.8139    0.0718 H   0  0  0  0  0  0  0  0  0  0  0  0
    6.0706   -2.2899    0.0624 H   0  0  0  0  0  0  0  0  0  0  0  0
    2.3782   -4.5145    0.0796 H   0  0  0  0  0  0  0  0  0  0  0  0
    4.9585    4.6259    0.0714 H   0  0  0  0  0  0  0  0  0  0  0  0
    2.4892    4.7215    0.0707 H   0  0  0  0  0  0  0  0  0  0  0  0
  1 11  2  0  0  0  0
  2 12  1  0  0  0  0
  2 21  1  0  0  0  0
  3  4  1  0  0  0  0
  3 14  1  0  0  0  0
  4 22  1  0  0  0  0
  4 23  1  0  0  0  0
  4 24  1  0  0  0  0
  5 17  1  0  0  0  0
  5 25  1  0  0  0  0
  6 18  1  0  0  0  0
  6 26  1  0  0  0  0
  7  8  2  0  0  0  0
  7  9  1  0  0  0  0
  7 10  1  0  0  0  0
  8 11  1  0  0  0  0
  8 12  1  0  0  0  0
  9 13  1  0  0  0  0
 10 14  2  0  0  0  0
 10 27  1  0  0  0  0
 11 15  1  0  0  0  0
 12 16  2  0  0  0  0
 13 15  2  0  0  0  0
 13 17  1  0  0  0  0
 14 16  1  0  0  0  0
 15 18  1  0  0  0  0
 16 28  1  0  0  0  0
 17 19  2  0  0  0  0
 18 20  2  0  0  0  0
 19 20  1  0  0  0  0
 19 29  1  0  0  0  0
 20 30  1  0  0  0  0
M  END
>  <Mol_ID>
9714

>  <Formula>
C14H10O6

>  <MolWeight>
274.2256

>  <Cat>
E0908

>  <Name>
Bellidifolin

>  <Synonyms>
NA

>  <Target>
BRD4

>  <Form>
Free Base

>  <CAS>
2798-25-6

>  <URL>
https://www.selleckchem.com/products/bellidifolin.html

$$$$
