Belotecan (CKD-602) hydrochloride
 OpenBabel08302521223D

 59 63  0  0  0  0  0  0  0  0999 V2000
   -2.7416    1.0665    0.1214 N   0  0  0  0  0  0  0  0  0  0  0  0
   -4.8680    0.3759   -0.6712 C   0  0  0  0  0  0  0  0  0  0  0  0
   -2.4852   -0.2018    0.6163 C   0  0  0  0  0  0  0  0  0  0  0  0
   -4.9930   -0.3756    0.4260 C   0  0  0  0  0  0  0  0  0  0  0  0
   -3.8495    1.4137   -0.5601 C   0  0  0  0  0  0  0  0  0  0  0  0
   -0.9382   -0.2393    0.6547 C   0  0  0  0  0  0  0  0  0  0  0  0
   -0.5071    1.0863    0.4880 C   0  0  0  0  0  0  0  0  0  0  0  0
   -3.6261   -0.9359    0.8779 C   0  0  0  0  0  0  0  0  0  0  0  0
   -0.0385   -1.2469    0.5701 N   0  0  0  0  0  0  0  0  0  0  0  0
   -6.4836   -0.7317    0.6546 C   0  0  1  0  0  0  0  0  0  0  0  0
   -1.6574    1.9877    0.2708 C   0  0  0  0  0  0  0  0  0  0  0  0
    0.8316    1.4834    0.4051 C   0  0  0  0  0  0  0  0  0  0  0  0
   -6.8978   -1.5197   -0.6152 C   0  0  0  0  0  0  0  0  0  0  0  0
   -5.7716    0.3008   -1.8350 C   0  0  0  0  0  0  0  0  0  0  0  0
   -6.5643   -0.9236   -1.8039 O   0  0  0  0  0  0  0  0  0  0  0  0
    1.3155   -0.8998    0.3948 C   0  0  0  0  0  0  0  0  0  0  0  0
    1.7790    0.4556    0.3708 C   0  0  0  0  0  0  0  0  0  0  0  0
   -4.0593    2.4963   -1.0662 O   0  0  0  0  0  0  0  0  0  0  0  0
   -7.5960   -2.5300   -0.5697 O   0  0  0  0  0  0  0  0  0  0  0  0
   -6.6763   -1.4262    1.8740 O   0  0  0  0  0  0  0  0  0  0  0  0
    1.0704    3.5562   -2.0441 N   0  0  0  0  0  0  0  0  0  0  0  0
    1.1670    2.9714    0.4126 C   0  0  0  0  0  0  0  0  0  0  0  0
   -7.5973    0.4441    0.6098 C   0  0  0  0  0  0  0  0  0  0  0  0
    1.8473    3.6407   -0.8085 C   0  0  0  0  0  0  0  0  0  0  0  0
    3.1638    0.7642    0.2768 C   0  0  0  0  0  0  0  0  0  0  0  0
    2.3381   -1.8528    0.2135 C   0  0  0  0  0  0  0  0  0  0  0  0
    1.6551    4.3182   -3.1646 C   0  0  0  0  0  0  0  0  0  0  0  0
   -7.4257    1.7663    1.3494 C   0  0  0  0  0  0  0  0  0  0  0  0
    3.0494    3.8445   -3.5890 C   0  0  0  0  0  0  0  0  0  0  0  0
    0.6976    4.1872   -4.3516 C   0  0  0  0  0  0  0  0  0  0  0  0
    4.1246   -0.2174    0.1032 C   0  0  0  0  0  0  0  0  0  0  0  0
    3.7090   -1.5321    0.0531 C   0  0  0  0  0  0  0  0  0  0  0  0
   -3.5964   -1.9543    1.2675 H   0  0  0  0  0  0  0  0  0  0  0  0
   -1.5590    2.5743   -0.6414 H   0  0  0  0  0  0  0  0  0  0  0  0
   -1.8428    2.6233    1.1429 H   0  0  0  0  0  0  0  0  0  0  0  0
   -6.4177    1.1741   -1.9269 H   0  0  0  0  0  0  0  0  0  0  0  0
   -5.1629    0.2334   -2.7393 H   0  0  0  0  0  0  0  0  0  0  0  0
   -7.5838   -1.7956    1.8310 H   0  0  0  0  0  0  0  0  0  0  0  0
    0.1286    3.9101   -1.8758 H   0  0  0  0  0  0  0  0  0  0  0  0
    0.2594    3.5482    0.6245 H   0  0  0  0  0  0  0  0  0  0  0  0
    1.7970    3.1467    1.2951 H   0  0  0  0  0  0  0  0  0  0  0  0
   -7.8089    0.7353   -0.4264 H   0  0  0  0  0  0  0  0  0  0  0  0
   -8.5608    0.0251    0.9395 H   0  0  0  0  0  0  0  0  0  0  0  0
    1.9905    4.6980   -0.5481 H   0  0  0  0  0  0  0  0  0  0  0  0
    2.8407    3.2216   -0.9711 H   0  0  0  0  0  0  0  0  0  0  0  0
    3.5238    1.7856    0.3255 H   0  0  0  0  0  0  0  0  0  0  0  0
    2.0711   -2.9091    0.1725 H   0  0  0  0  0  0  0  0  0  0  0  0
    1.7148    5.3808   -2.8949 H   0  0  0  0  0  0  0  0  0  0  0  0
   -7.7494    1.6957    2.3910 H   0  0  0  0  0  0  0  0  0  0  0  0
   -6.4142    2.1700    1.2947 H   0  0  0  0  0  0  0  0  0  0  0  0
   -8.0870    2.5154    0.8810 H   0  0  0  0  0  0  0  0  0  0  0  0
    3.0784    2.7599   -3.7380 H   0  0  0  0  0  0  0  0  0  0  0  0
    3.3477    4.3156   -4.5338 H   0  0  0  0  0  0  0  0  0  0  0  0
    3.8097    4.1112   -2.8476 H   0  0  0  0  0  0  0  0  0  0  0  0
    0.6028    3.1427   -4.6699 H   0  0  0  0  0  0  0  0  0  0  0  0
   -0.3010    4.5577   -4.0957 H   0  0  0  0  0  0  0  0  0  0  0  0
    1.0547    4.7689   -5.2085 H   0  0  0  0  0  0  0  0  0  0  0  0
    5.1715    0.0602   -0.0076 H   0  0  0  0  0  0  0  0  0  0  0  0
    4.4544   -2.3117   -0.1059 H   0  0  0  0  0  0  0  0  0  0  0  0
  2  5  1  0  0  0  0
  3  1  1  0  0  0  0
  4  2  2  0  0  0  0
  5  1  1  0  0  0  0
  6  3  1  0  0  0  0
  7  6  2  0  0  0  0
  7 11  1  0  0  0  0
  8  3  2  0  0  0  0
  8  4  1  0  0  0  0
  8 33  1  0  0  0  0
  9  6  1  0  0  0  0
 10  4  1  0  0  0  0
 10 20  1  1  0  0  0
 10 23  1  0  0  0  0
 10 13  1  0  0  0  0
 11  1  1  0  0  0  0
 11 34  1  0  0  0  0
 11 35  1  0  0  0  0
 12  7  1  0  0  0  0
 13 15  1  0  0  0  0
 14  2  1  0  0  0  0
 14 36  1  0  0  0  0
 14 37  1  0  0  0  0
 15 14  1  0  0  0  0
 16  9  2  0  0  0  0
 16 17  1  0  0  0  0
 17 12  2  0  0  0  0
 18  5  2  0  0  0  0
 19 13  2  0  0  0  0
 20 38  1  0  0  0  0
 21 24  1  0  0  0  0
 21 39  1  0  0  0  0
 22 12  1  0  0  0  0
 22 40  1  0  0  0  0
 22 41  1  0  0  0  0
 23 42  1  0  0  0  0
 23 43  1  0  0  0  0
 24 22  1  0  0  0  0
 24 44  1  0  0  0  0
 24 45  1  0  0  0  0
 25 17  1  0  0  0  0
 25 46  1  0  0  0  0
 26 16  1  0  0  0  0
 26 47  1  0  0  0  0
 27 21  1  0  0  0  0
 27 48  1  0  0  0  0
 28 23  1  0  0  0  0
 28 49  1  0  0  0  0
 28 50  1  0  0  0  0
 28 51  1  0  0  0  0
 29 27  1  0  0  0  0
 29 52  1  0  0  0  0
 29 53  1  0  0  0  0
 29 54  1  0  0  0  0
 30 27  1  0  0  0  0
 30 55  1  0  0  0  0
 30 56  1  0  0  0  0
 30 57  1  0  0  0  0
 31 25  2  0  0  0  0
 31 58  1  0  0  0  0
 32 26  2  0  0  0  0
 32 31  1  0  0  0  0
 32 59  1  0  0  0  0
M  END
>  <Mol_ID>
4751

>  <Formula>
C25H28ClN3O4

>  <MolWeight>
469.96052

>  <Cat>
S6631

>  <Name>
Belotecan (CKD-602) hydrochloride

>  <Synonyms>
N/A

>  <Target>
Topoisomerase

>  <Form>
Hydrochloride

>  <CAS>
213819-48-8

>  <URL>
http://www.selleck.cn/products/belotecan-ckd-602-hydrochloride.html

$$$$
