Bemegride.cdx
 OpenBabel08302522043D

 24 24  0  0  0  0  0  0  0  0999 V2000
    0.6598    1.2589    0.0136 C   0  0  0  0  0  0  0  0  0  0  0  0
    1.4270   -0.0008    0.3366 C   0  0  0  0  0  0  0  0  0  0  0  0
    0.7308   -1.2545   -0.2239 C   0  0  0  0  0  0  0  0  0  0  0  0
   -0.7368   -1.2387    0.2565 C   0  0  0  0  0  0  0  0  0  0  0  0
   -1.4228    0.0763   -0.0381 C   0  0  0  0  0  0  0  0  0  0  0  0
   -0.6908    1.2035    0.2150 N   0  0  0  0  0  0  0  0  0  0  0  0
    1.2013    2.2790   -0.4027 O   0  0  0  0  0  0  0  0  0  0  0  0
   -2.5652    0.1440   -0.4735 O   0  0  0  0  0  0  0  0  0  0  0  0
    0.7662   -1.3090   -1.7796 C   0  0  0  0  0  0  0  0  0  0  0  0
    1.4091   -2.5070    0.3634 C   0  0  0  0  0  0  0  0  0  0  0  0
    2.1527   -1.3306   -2.4151 C   0  0  0  0  0  0  0  0  0  0  0  0
    2.4471    0.0989   -0.0468 H   0  0  0  0  0  0  0  0  0  0  0  0
    1.5055   -0.0538    1.4297 H   0  0  0  0  0  0  0  0  0  0  0  0
   -1.3078   -2.0430   -0.2220 H   0  0  0  0  0  0  0  0  0  0  0  0
   -0.7985   -1.3941    1.3408 H   0  0  0  0  0  0  0  0  0  0  0  0
   -1.1710    2.0557   -0.0413 H   0  0  0  0  0  0  0  0  0  0  0  0
    0.2293   -2.2054   -2.1175 H   0  0  0  0  0  0  0  0  0  0  0  0
    0.2197   -0.4557   -2.2000 H   0  0  0  0  0  0  0  0  0  0  0  0
    1.3264   -2.5253    1.4566 H   0  0  0  0  0  0  0  0  0  0  0  0
    0.9428   -3.4223   -0.0178 H   0  0  0  0  0  0  0  0  0  0  0  0
    2.4763   -2.5433    0.1228 H   0  0  0  0  0  0  0  0  0  0  0  0
    2.7285   -2.2064   -2.1044 H   0  0  0  0  0  0  0  0  0  0  0  0
    2.0585   -1.3730   -3.5057 H   0  0  0  0  0  0  0  0  0  0  0  0
    2.7250   -0.4308   -2.1742 H   0  0  0  0  0  0  0  0  0  0  0  0
  1  2  1  0  0  0  0
  1  7  2  0  0  0  0
  2  3  1  0  0  0  0
  2 12  1  0  0  0  0
  2 13  1  0  0  0  0
  3  4  1  0  0  0  0
  3  9  1  0  0  0  0
  3 10  1  0  0  0  0
  4  5  1  0  0  0  0
  4 14  1  0  0  0  0
  4 15  1  0  0  0  0
  5  6  1  0  0  0  0
  5  8  2  0  0  0  0
  6  1  1  0  0  0  0
  6 16  1  0  0  0  0
  9 11  1  0  0  0  0
  9 17  1  0  0  0  0
  9 18  1  0  0  0  0
 10 19  1  0  0  0  0
 10 20  1  0  0  0  0
 10 21  1  0  0  0  0
 11 22  1  0  0  0  0
 11 23  1  0  0  0  0
 11 24  1  0  0  0  0
M  END
>  <Mol_ID>
1302

>  <Formula>
C8H13NO2

>  <MolWeight>
155.19432

>  <Cat>
S4197

>  <Name>
Bemegride

>  <Synonyms>
Bemegrid,3-Ethyl-3-methylglutarimide

>  <Target>
GABA Receptor

>  <Form>
free base

>  <CAS>
64-65-3

>  <URL>
http://selleckchem.com/products/bemegride.html

$$$$
