Benazepril
 OpenBabel08302520403D

 59 61  0  0  0  0  0  0  0  0999 V2000
   -3.1771    8.5104    3.7141 O   0  0  0  0  0  0  0  0  0  0  0  0
   -2.3404    9.4026    3.7573 C   0  0  0  0  0  0  0  0  0  0  0  0
   -2.6206   10.6396    3.2713 O   0  0  0  0  0  0  0  0  0  0  0  0
   -0.9215    9.2902    4.3443 C   0  0  0  0  0  0  0  0  0  0  0  0
   -0.7836    7.9413    4.8777 N   0  0  0  0  0  0  0  0  0  0  0  0
   -0.4187    6.9159    3.9940 C   0  0  0  0  0  0  0  0  0  0  0  0
   -1.3717    5.6866    4.0075 C   0  0  1  0  0  0  0  0  0  0  0  0
   -1.0186    4.6580    2.9851 N   0  0  0  0  0  0  0  0  0  0  0  0
    0.2865    3.9388    3.0056 C   0  0  2  0  0  0  0  0  0  0  0  0
    0.3778    3.1282    1.6679 C   0  0  0  0  0  0  0  0  0  0  0  0
    1.6114    2.5586    1.5155 O   0  0  0  0  0  0  0  0  0  0  0  0
    1.7832    1.7187    0.3602 C   0  0  0  0  0  0  0  0  0  0  0  0
    1.2935    0.3052    0.6339 C   0  0  0  0  0  0  0  0  0  0  0  0
   -0.5261    3.0214    0.8461 O   0  0  0  0  0  0  0  0  0  0  0  0
    0.3855    2.9645    4.1875 C   0  0  0  0  0  0  0  0  0  0  0  0
    1.7511    2.3069    4.4091 C   0  0  0  0  0  0  0  0  0  0  0  0
    1.7334    1.5033    5.6897 C   0  0  0  0  0  0  0  0  0  0  0  0
    1.3259    0.1625    5.6685 C   0  0  0  0  0  0  0  0  0  0  0  0
    1.2642   -0.5754    6.8500 C   0  0  0  0  0  0  0  0  0  0  0  0
    1.6013    0.0219    8.0628 C   0  0  0  0  0  0  0  0  0  0  0  0
    1.9961    1.3585    8.0962 C   0  0  0  0  0  0  0  0  0  0  0  0
    2.0595    2.0990    6.9148 C   0  0  0  0  0  0  0  0  0  0  0  0
   -1.8180    5.1148    5.3561 C   0  0  0  0  0  0  0  0  0  0  0  0
   -2.4038    6.1443    6.3244 C   0  0  0  0  0  0  0  0  0  0  0  0
   -1.2629    6.8681    6.9893 C   0  0  0  0  0  0  0  0  0  0  0  0
   -0.9167    6.5856    8.3183 C   0  0  0  0  0  0  0  0  0  0  0  0
    0.2020    7.1858    8.8956 C   0  0  0  0  0  0  0  0  0  0  0  0
    0.9645    8.0923    8.1604 C   0  0  0  0  0  0  0  0  0  0  0  0
    0.6146    8.3994    6.8437 C   0  0  0  0  0  0  0  0  0  0  0  0
   -0.4865    7.7666    6.2497 C   0  0  0  0  0  0  0  0  0  0  0  0
    0.4200    7.1053    3.1109 O   0  0  0  0  0  0  0  0  0  0  0  0
   -1.8873   11.2835    3.3403 H   0  0  0  0  0  0  0  0  0  0  0  0
   -0.1955    9.4712    3.5468 H   0  0  0  0  0  0  0  0  0  0  0  0
   -0.8290   10.0372    5.1352 H   0  0  0  0  0  0  0  0  0  0  0  0
   -2.2937    6.1160    3.5864 H   0  0  0  0  0  0  0  0  0  0  0  0
   -1.0890    5.1112    2.0668 H   0  0  0  0  0  0  0  0  0  0  0  0
    1.1115    4.6578    3.0000 H   0  0  0  0  0  0  0  0  0  0  0  0
    1.2857    2.1503   -0.5149 H   0  0  0  0  0  0  0  0  0  0  0  0
    2.8554    1.6912    0.1374 H   0  0  0  0  0  0  0  0  0  0  0  0
    0.3281    0.2984    1.1492 H   0  0  0  0  0  0  0  0  0  0  0  0
    1.2005   -0.2583   -0.3001 H   0  0  0  0  0  0  0  0  0  0  0  0
    2.0024   -0.2268    1.2776 H   0  0  0  0  0  0  0  0  0  0  0  0
    0.1966    3.5041    5.1062 H   0  0  0  0  0  0  0  0  0  0  0  0
   -0.3921    2.1932    4.1011 H   0  0  0  0  0  0  0  0  0  0  0  0
    2.0211    1.6304    3.5949 H   0  0  0  0  0  0  0  0  0  0  0  0
    2.5372    3.0698    4.4625 H   0  0  0  0  0  0  0  0  0  0  0  0
    1.0451   -0.3101    4.7297 H   0  0  0  0  0  0  0  0  0  0  0  0
    0.9463   -1.6139    6.8231 H   0  0  0  0  0  0  0  0  0  0  0  0
    1.5511   -0.5537    8.9831 H   0  0  0  0  0  0  0  0  0  0  0  0
    2.2501    1.8257    9.0437 H   0  0  0  0  0  0  0  0  0  0  0  0
    2.3541    3.1452    6.9571 H   0  0  0  0  0  0  0  0  0  0  0  0
   -2.5775    4.3456    5.1741 H   0  0  0  0  0  0  0  0  0  0  0  0
   -0.9955    4.6363    5.8888 H   0  0  0  0  0  0  0  0  0  0  0  0
   -3.0087    5.6317    7.0827 H   0  0  0  0  0  0  0  0  0  0  0  0
   -3.0788    6.8467    5.8234 H   0  0  0  0  0  0  0  0  0  0  0  0
   -1.4959    5.8708    8.8966 H   0  0  0  0  0  0  0  0  0  0  0  0
    0.4899    6.9270    9.9119 H   0  0  0  0  0  0  0  0  0  0  0  0
    1.8509    8.5373    8.6070 H   0  0  0  0  0  0  0  0  0  0  0  0
    1.2470    9.0717    6.2728 H   0  0  0  0  0  0  0  0  0  0  0  0
  1  2  2  0  0  0  0
  2  3  1  0  0  0  0
  2  4  1  0  0  0  0
  3 32  1  0  0  0  0
  4  5  1  0  0  0  0
  4 33  1  0  0  0  0
  4 34  1  0  0  0  0
  5  6  1  0  0  0  0
  5 30  1  0  0  0  0
  6  7  1  0  0  0  0
  6 31  2  0  0  0  0
  7 23  1  0  0  0  0
  7 35  1  6  0  0  0
  7  8  1  0  0  0  0
  8 36  1  0  0  0  0
  9 15  1  0  0  0  0
  9 37  1  1  0  0  0
  9 10  1  0  0  0  0
  9  8  1  0  0  0  0
 10 11  1  0  0  0  0
 10 14  2  0  0  0  0
 11 12  1  0  0  0  0
 12 13  1  0  0  0  0
 12 38  1  0  0  0  0
 12 39  1  0  0  0  0
 13 40  1  0  0  0  0
 13 41  1  0  0  0  0
 13 42  1  0  0  0  0
 15 16  1  0  0  0  0
 15 43  1  0  0  0  0
 15 44  1  0  0  0  0
 16 17  1  0  0  0  0
 16 45  1  0  0  0  0
 16 46  1  0  0  0  0
 17 18  2  0  0  0  0
 17 22  1  0  0  0  0
 18 19  1  0  0  0  0
 18 47  1  0  0  0  0
 19 20  2  0  0  0  0
 19 48  1  0  0  0  0
 20 21  1  0  0  0  0
 20 49  1  0  0  0  0
 21 22  2  0  0  0  0
 21 50  1  0  0  0  0
 22 51  1  0  0  0  0
 23 24  1  0  0  0  0
 23 52  1  0  0  0  0
 23 53  1  0  0  0  0
 24 25  1  0  0  0  0
 24 54  1  0  0  0  0
 24 55  1  0  0  0  0
 25 26  2  0  0  0  0
 25 30  1  0  0  0  0
 26 27  1  0  0  0  0
 26 56  1  0  0  0  0
 27 28  2  0  0  0  0
 27 57  1  0  0  0  0
 28 29  1  0  0  0  0
 28 58  1  0  0  0  0
 29 30  2  0  0  0  0
 29 59  1  0  0  0  0
M  END
>  <Mol_ID>
3715

>  <Formula>
C24H28N2O5

>  <MolWeight>
424.48952

>  <Cat>
S5938

>  <Name>
Benazepril

>  <Synonyms>
N/A

>  <Target>
RAAS

>  <Form>
Free Base

>  <CAS>
86541-75-5

>  <URL>
http://www.selleck.cn/products/benazepril.html

$$$$
