Bendazol
 OpenBabel08302521303D

 28 30  0  0  0  0  0  0  0  0999 V2000
   -1.5608    1.0279   -0.6270 N   0  0  0  0  0  0  0  0  0  0  0  0
   -1.4228   -0.8566    0.5335 N   0  0  0  0  0  0  0  0  0  0  0  0
   -3.7455   -0.0455    0.0056 C   0  0  0  0  0  0  0  0  0  0  0  0
   -2.2526    0.0198    0.0019 C   0  0  0  0  0  0  0  0  0  0  0  0
   -0.2189    0.7757   -0.5000 C   0  0  0  0  0  0  0  0  0  0  0  0
   -0.1615   -0.4026    0.2348 C   0  0  0  0  0  0  0  0  0  0  0  0
   -4.3888    0.6646    1.1755 C   0  0  0  0  0  0  0  0  0  0  0  0
    0.9161    1.4531   -0.9519 C   0  0  0  0  0  0  0  0  0  0  0  0
    1.0885   -0.9533    0.5516 C   0  0  0  0  0  0  0  0  0  0  0  0
   -5.2716    1.7339    0.9685 C   0  0  0  0  0  0  0  0  0  0  0  0
   -4.1533    0.2283    2.4891 C   0  0  0  0  0  0  0  0  0  0  0  0
    2.1556    0.8863   -0.6295 C   0  0  0  0  0  0  0  0  0  0  0  0
    2.2440   -0.2962    0.1097 C   0  0  0  0  0  0  0  0  0  0  0  0
   -5.9075    2.3484    2.0494 C   0  0  0  0  0  0  0  0  0  0  0  0
   -4.7909    0.8428    3.5672 C   0  0  0  0  0  0  0  0  0  0  0  0
   -5.6702    1.9008    3.3472 C   0  0  0  0  0  0  0  0  0  0  0  0
   -1.9715    1.8101   -1.1136 H   0  0  0  0  0  0  0  0  0  0  0  0
   -4.1254    0.3676   -0.9374 H   0  0  0  0  0  0  0  0  0  0  0  0
   -4.0626   -1.0954    0.0206 H   0  0  0  0  0  0  0  0  0  0  0  0
    0.8497    2.3706   -1.5254 H   0  0  0  0  0  0  0  0  0  0  0  0
    1.1477   -1.8718    1.1242 H   0  0  0  0  0  0  0  0  0  0  0  0
   -5.4844    2.0895   -0.0375 H   0  0  0  0  0  0  0  0  0  0  0  0
   -3.4713   -0.6014    2.6744 H   0  0  0  0  0  0  0  0  0  0  0  0
    3.0688    1.3769   -0.9611 H   0  0  0  0  0  0  0  0  0  0  0  0
    3.2195   -0.7151    0.3450 H   0  0  0  0  0  0  0  0  0  0  0  0
   -6.5966    3.1722    1.8785 H   0  0  0  0  0  0  0  0  0  0  0  0
   -4.6045    0.4904    4.5791 H   0  0  0  0  0  0  0  0  0  0  0  0
   -6.1728    2.3733    4.1876 H   0  0  0  0  0  0  0  0  0  0  0  0
  1  4  1  0  0  0  0
  1  5  1  0  0  0  0
  1 17  1  0  0  0  0
  2  4  2  0  0  0  0
  2  6  1  0  0  0  0
  3  4  1  0  0  0  0
  3  7  1  0  0  0  0
  3 18  1  0  0  0  0
  3 19  1  0  0  0  0
  5  6  2  0  0  0  0
  5  8  1  0  0  0  0
  6  9  1  0  0  0  0
  7 10  2  0  0  0  0
  7 11  1  0  0  0  0
  8 12  2  0  0  0  0
  8 20  1  0  0  0  0
  9 13  2  0  0  0  0
  9 21  1  0  0  0  0
 10 14  1  0  0  0  0
 10 22  1  0  0  0  0
 11 15  2  0  0  0  0
 11 23  1  0  0  0  0
 12 13  1  0  0  0  0
 12 24  1  0  0  0  0
 13 25  1  0  0  0  0
 14 16  2  0  0  0  0
 14 26  1  0  0  0  0
 15 16  1  0  0  0  0
 15 27  1  0  0  0  0
 16 28  1  0  0  0  0
M  END
>  <Mol_ID>
5656

>  <Formula>
C14H12N2

>  <MolWeight>
208.25848

>  <Cat>
S3589

>  <Name>
Bendazol

>  <Synonyms>
2-Benzylbenzimidazole, Dibazol, Dibazole, Bendazole, Tromasedan

>  <Target>
HIF,NOS

>  <Form>
Free Base

>  <CAS>
621-72-7

>  <URL>
http://www.selleckchem.com/products/bendazol.html

$$$$
