bendroflumethiazide.cdx
 OpenBabel08302519573D

 41 43  0  0  0  0  0  0  0  0999 V2000
   -1.0429    0.8529   -0.0726 C   0  0  0  0  0  0  0  0  0  0  0  0
   -0.5040   -0.4274   -0.0512 C   0  0  0  0  0  0  0  0  0  0  0  0
   -2.4403    0.9527   -0.0919 C   0  0  0  0  0  0  0  0  0  0  0  0
   -0.2903    2.0004    0.0742 N   0  0  0  0  0  0  0  0  0  0  0  0
   -1.2953   -1.5721    0.0149 C   0  0  0  0  0  0  0  0  0  0  0  0
    1.2366   -0.5701   -0.0561 S   0  0  0  0  0  0  0  0  0  0  0  0
   -3.2898   -0.1801   -0.0609 C   0  0  0  0  0  0  0  0  0  0  0  0
    1.1553    2.0252    0.2106 C   0  0  3  0  0  0  0  0  0  0  0  0
   -2.6908   -1.4475    0.0395 C   0  0  0  0  0  0  0  0  0  0  0  0
    1.6694    0.7965    0.7847 N   0  0  0  0  0  0  0  0  0  0  0  0
    1.6213   -1.6963    0.7651 O   0  0  0  0  0  0  0  0  0  0  0  0
    1.7093   -0.4255   -1.4146 O   0  0  0  0  0  0  0  0  0  0  0  0
   -4.7820    0.0439   -0.1245 C   0  0  0  0  0  0  0  0  0  0  0  0
    1.5721    3.2203    1.1083 C   0  0  0  0  0  0  0  0  0  0  0  0
   -3.5999   -2.9590    0.2631 S   0  0  0  0  0  0  0  0  0  0  0  0
   -5.1046    1.3742   -0.1306 F   0  0  0  0  0  0  0  0  0  0  0  0
   -5.3431   -0.4474   -1.2592 F   0  0  0  0  0  0  0  0  0  0  0  0
   -5.4561   -0.4742    0.9345 F   0  0  0  0  0  0  0  0  0  0  0  0
    1.0420    3.1778    2.5294 C   0  0  0  0  0  0  0  0  0  0  0  0
   -3.7427   -2.9985    1.9286 N   0  0  0  0  0  0  0  0  0  0  0  0
   -4.9321   -2.8151   -0.2731 O   0  0  0  0  0  0  0  0  0  0  0  0
   -2.7506   -4.0671   -0.0967 O   0  0  0  0  0  0  0  0  0  0  0  0
    1.7672    2.5375    3.5447 C   0  0  0  0  0  0  0  0  0  0  0  0
   -0.1983    3.7512    2.8449 C   0  0  0  0  0  0  0  0  0  0  0  0
    1.2630    2.4736    4.8449 C   0  0  0  0  0  0  0  0  0  0  0  0
   -0.6994    3.6884    4.1461 C   0  0  0  0  0  0  0  0  0  0  0  0
    0.0316    3.0509    5.1459 C   0  0  0  0  0  0  0  0  0  0  0  0
   -2.8886    1.9477   -0.0998 H   0  0  0  0  0  0  0  0  0  0  0  0
   -0.7105    2.8649   -0.2480 H   0  0  0  0  0  0  0  0  0  0  0  0
   -0.8180   -2.5498    0.0761 H   0  0  0  0  0  0  0  0  0  0  0  0
    1.6067    2.1861   -0.7758 H   0  0  0  0  0  0  0  0  0  0  0  0
    2.6595    0.7866    1.0096 H   0  0  0  0  0  0  0  0  0  0  0  0
    2.6682    3.2794    1.1472 H   0  0  0  0  0  0  0  0  0  0  0  0
    1.2417    4.1579    0.6414 H   0  0  0  0  0  0  0  0  0  0  0  0
   -4.7165   -3.1570    2.1956 H   0  0  0  0  0  0  0  0  0  0  0  0
   -3.0919   -3.6742    2.3302 H   0  0  0  0  0  0  0  0  0  0  0  0
    2.7251    2.0701    3.3312 H   0  0  0  0  0  0  0  0  0  0  0  0
   -0.7913    4.2409    2.0770 H   0  0  0  0  0  0  0  0  0  0  0  0
    1.8289    1.9663    5.6221 H   0  0  0  0  0  0  0  0  0  0  0  0
   -1.6642    4.1315    4.3786 H   0  0  0  0  0  0  0  0  0  0  0  0
   -0.3606    2.9990    6.1580 H   0  0  0  0  0  0  0  0  0  0  0  0
  1  2  1  0  0  0  0
  1  3  2  0  0  0  0
  1  4  1  0  0  0  0
  2  5  2  0  0  0  0
  2  6  1  0  0  0  0
  3  7  1  0  0  0  0
  3 28  1  0  0  0  0
  4  8  1  0  0  0  0
  4 29  1  0  0  0  0
  5  9  1  0  0  0  0
  5 30  1  0  0  0  0
  6 10  1  0  0  0  0
  6 11  2  0  0  0  0
  6 12  2  0  0  0  0
  7 13  1  0  0  0  0
  7  9  2  0  0  0  0
  8 14  1  0  0  0  0
  8 10  1  0  0  0  0
  8 31  1  0  0  0  0
  9 15  1  0  0  0  0
 10 32  1  0  0  0  0
 13 16  1  0  0  0  0
 13 17  1  0  0  0  0
 13 18  1  0  0  0  0
 14 19  1  0  0  0  0
 14 33  1  0  0  0  0
 14 34  1  0  0  0  0
 15 20  1  0  0  0  0
 15 21  2  0  0  0  0
 15 22  2  0  0  0  0
 19 23  2  0  0  0  0
 19 24  1  0  0  0  0
 20 35  1  0  0  0  0
 20 36  1  0  0  0  0
 23 25  1  0  0  0  0
 23 37  1  0  0  0  0
 24 26  2  0  0  0  0
 24 38  1  0  0  0  0
 25 27  2  0  0  0  0
 25 39  1  0  0  0  0
 26 27  1  0  0  0  0
 26 40  1  0  0  0  0
 27 41  1  0  0  0  0
M  END
>  <Mol_ID>
2276

>  <Formula>
C15H14F3N3O4S2

>  <MolWeight>
421.4145696

>  <Cat>
S4387

>  <Name>
Bendroflumethiazide

>  <Synonyms>
Bendrofluazide

>  <Target>
Others

>  <Form>
sulfonamide

>  <CAS>
73-48-3

>  <URL>
http://selleckchem.com/products/bendroflumethiazide.html

$$$$
