Bendamustine Hydrochloride.cdx
 OpenBabel08302521593D

 44 45  0  0  0  0  0  0  0  0999 V2000
    2.0751    1.2265    0.1230 C   0  0  0  0  0  0  0  0  0  0  0  0
    2.5501   -0.0949    0.0197 C   0  0  0  0  0  0  0  0  0  0  0  0
    1.5812   -1.1148   -0.0288 C   0  0  0  0  0  0  0  0  0  0  0  0
    0.2060   -0.8152    0.0111 C   0  0  0  0  0  0  0  0  0  0  0  0
   -0.2017    0.5065    0.0702 C   0  0  0  0  0  0  0  0  0  0  0  0
    0.7086    1.5629    0.1378 C   0  0  0  0  0  0  0  0  0  0  0  0
   -0.8756   -1.6585    0.0115 N   0  0  0  0  0  0  0  0  0  0  0  0
   -1.9443   -0.8844    0.0199 C   0  0  0  0  0  0  0  0  0  0  0  0
   -1.5778    0.4457    0.0391 N   0  0  0  0  0  0  0  0  0  0  0  0
    3.9142   -0.3787   -0.0064 N   0  0  0  0  0  0  0  0  0  0  0  0
    4.4489   -1.5318   -0.7419 C   0  0  0  0  0  0  0  0  0  0  0  0
    4.8688    0.4444    0.7448 C   0  0  0  0  0  0  0  0  0  0  0  0
    4.7128   -1.1778   -2.1998 C   0  0  0  0  0  0  0  0  0  0  0  0
    4.6603    0.2804    2.2456 C   0  0  0  0  0  0  0  0  0  0  0  0
   -3.3480   -1.4049    0.0156 C   0  0  0  0  0  0  0  0  0  0  0  0
   -3.6331   -2.3189    1.2114 C   0  0  0  0  0  0  0  0  0  0  0  0
   -3.4836   -1.6154    2.5566 C   0  0  0  0  0  0  0  0  0  0  0  0
   -3.8211   -2.5598    3.6826 C   0  0  0  0  0  0  0  0  0  0  0  0
   -2.7529   -3.2418    4.1504 O   0  0  0  0  0  0  0  0  0  0  0  0
   -4.9495   -2.7179    4.1192 O   0  0  0  0  0  0  0  0  0  0  0  0
   -2.4265    1.6130    0.0060 C   0  0  0  0  0  0  0  0  0  0  0  0
    2.7767    2.0551    0.1684 H   0  0  0  0  0  0  0  0  0  0  0  0
    1.8525   -2.1615   -0.0522 H   0  0  0  0  0  0  0  0  0  0  0  0
    0.3931    2.5979    0.1950 H   0  0  0  0  0  0  0  0  0  0  0  0
    5.3911   -1.8619   -0.2872 H   0  0  0  0  0  0  0  0  0  0  0  0
    3.7922   -2.4042   -0.6942 H   0  0  0  0  0  0  0  0  0  0  0  0
    5.8974    0.1445    0.5078 H   0  0  0  0  0  0  0  0  0  0  0  0
    4.8063    1.4993    0.4588 H   0  0  0  0  0  0  0  0  0  0  0  0
    5.4909   -0.4119   -2.2861 H   0  0  0  0  0  0  0  0  0  0  0  0
    5.0535   -2.0643   -2.7457 H   0  0  0  0  0  0  0  0  0  0  0  0
    3.8119   -0.8016   -2.6949 H   0  0  0  0  0  0  0  0  0  0  0  0
    4.7813   -0.7662    2.5450 H   0  0  0  0  0  0  0  0  0  0  0  0
    5.3872    0.8821    2.7992 H   0  0  0  0  0  0  0  0  0  0  0  0
    3.6594    0.6000    2.5534 H   0  0  0  0  0  0  0  0  0  0  0  0
   -4.0936   -0.6072   -0.0162 H   0  0  0  0  0  0  0  0  0  0  0  0
   -3.4851   -1.9844   -0.9063 H   0  0  0  0  0  0  0  0  0  0  0  0
   -4.6558   -2.7049    1.1152 H   0  0  0  0  0  0  0  0  0  0  0  0
   -2.9729   -3.1947    1.1784 H   0  0  0  0  0  0  0  0  0  0  0  0
   -2.4718   -1.2271    2.7102 H   0  0  0  0  0  0  0  0  0  0  0  0
   -4.1577   -0.7541    2.6285 H   0  0  0  0  0  0  0  0  0  0  0  0
   -1.9175   -3.0354    3.6869 H   0  0  0  0  0  0  0  0  0  0  0  0
   -2.1880    2.2388    0.8672 H   0  0  0  0  0  0  0  0  0  0  0  0
   -2.2284    2.1521   -0.9255 H   0  0  0  0  0  0  0  0  0  0  0  0
   -3.4792    1.3379    0.0461 H   0  0  0  0  0  0  0  0  0  0  0  0
  1  2  2  0  0  0  0
  1 22  1  0  0  0  0
  2  3  1  0  0  0  0
  2 10  1  0  0  0  0
  3  4  2  0  0  0  0
  3 23  1  0  0  0  0
  4  5  1  0  0  0  0
  4  7  1  0  0  0  0
  5  6  2  0  0  0  0
  6  1  1  0  0  0  0
  6 24  1  0  0  0  0
  7  8  2  0  0  0  0
  8  9  1  0  0  0  0
  8 15  1  0  0  0  0
  9  5  1  0  0  0  0
  9 21  1  0  0  0  0
 10 11  1  0  0  0  0
 10 12  1  0  0  0  0
 11 13  1  0  0  0  0
 11 25  1  0  0  0  0
 11 26  1  0  0  0  0
 12 14  1  0  0  0  0
 12 27  1  0  0  0  0
 12 28  1  0  0  0  0
 13 29  1  0  0  0  0
 13 30  1  0  0  0  0
 13 31  1  0  0  0  0
 14 32  1  0  0  0  0
 14 33  1  0  0  0  0
 14 34  1  0  0  0  0
 15 16  1  0  0  0  0
 15 35  1  0  0  0  0
 15 36  1  0  0  0  0
 16 17  1  0  0  0  0
 16 37  1  0  0  0  0
 16 38  1  0  0  0  0
 17 18  1  0  0  0  0
 17 39  1  0  0  0  0
 17 40  1  0  0  0  0
 18 19  1  0  0  0  0
 18 20  2  0  0  0  0
 19 41  1  0  0  0  0
 21 42  1  0  0  0  0
 21 43  1  0  0  0  0
 21 44  1  0  0  0  0
M  END
>  <Mol_ID>
122

>  <Formula>
C16H22Cl3N3O2

>  <MolWeight>
394.72378

>  <Cat>
S1212

>  <Name>
Bendamustine (SDX105) HCl

>  <Synonyms>
Cytostasane HCl

>  <Target>
DNA/RNA Synthesis

>  <Form>
Hydrochloride

>  <CAS>
3543-75-7

>  <URL>
http://selleckchem.com/products/Bendamustine-Hydrochloride.html

$$$$
