BENEMID (probenecid).cdx
 OpenBabel08302522033D

 38 38  0  0  0  0  0  0  0  0999 V2000
    3.1600   -3.1453   -2.0020 C   0  0  0  0  0  0  0  0  0  0  0  0
    2.4999   -2.5201   -0.9379 C   0  0  0  0  0  0  0  0  0  0  0  0
    3.1108   -1.4691   -0.2468 C   0  0  0  0  0  0  0  0  0  0  0  0
    4.4213   -1.1019   -0.5619 C   0  0  0  0  0  0  0  0  0  0  0  0
    5.1041   -1.7516   -1.5993 C   0  0  0  0  0  0  0  0  0  0  0  0
    4.4616   -2.7599   -2.3306 C   0  0  0  0  0  0  0  0  0  0  0  0
    6.4989   -1.3439   -1.8881 C   0  0  0  0  0  0  0  0  0  0  0  0
    7.1336   -0.4996   -1.2836 O   0  0  0  0  0  0  0  0  0  0  0  0
    7.0356   -2.0198   -2.9183 O   0  0  0  0  0  0  0  0  0  0  0  0
    0.8466   -3.0281   -0.5036 S   0  0  0  0  0  0  0  0  0  0  0  0
    0.9718   -3.6288    1.0752 N   0  0  0  0  0  0  0  0  0  0  0  0
    0.0548   -1.8198   -0.5201 O   0  0  0  0  0  0  0  0  0  0  0  0
    0.4980   -4.1438   -1.3649 O   0  0  0  0  0  0  0  0  0  0  0  0
    1.2958   -5.0613    1.3092 C   0  0  0  0  0  0  0  0  0  0  0  0
    0.9962   -2.7533    2.2689 C   0  0  0  0  0  0  0  0  0  0  0  0
   -0.2610   -1.8983    2.4555 C   0  0  0  0  0  0  0  0  0  0  0  0
   -1.5481   -2.7000    2.5872 C   0  0  0  0  0  0  0  0  0  0  0  0
    2.6101   -5.5588    0.7114 C   0  0  0  0  0  0  0  0  0  0  0  0
    3.8625   -4.9180    1.2875 C   0  0  0  0  0  0  0  0  0  0  0  0
    2.6723   -3.9284   -2.5768 H   0  0  0  0  0  0  0  0  0  0  0  0
    2.5820   -0.9337    0.5374 H   0  0  0  0  0  0  0  0  0  0  0  0
    4.9096   -0.3088    0.0028 H   0  0  0  0  0  0  0  0  0  0  0  0
    4.9667   -3.2546   -3.1575 H   0  0  0  0  0  0  0  0  0  0  0  0
    7.9439   -1.6554   -2.9935 H   0  0  0  0  0  0  0  0  0  0  0  0
    1.3008   -5.2795    2.3840 H   0  0  0  0  0  0  0  0  0  0  0  0
    0.4691   -5.6576    0.9036 H   0  0  0  0  0  0  0  0  0  0  0  0
    1.1109   -3.3584    3.1767 H   0  0  0  0  0  0  0  0  0  0  0  0
    1.8829   -2.1156    2.2399 H   0  0  0  0  0  0  0  0  0  0  0  0
   -0.1392   -1.2969    3.3653 H   0  0  0  0  0  0  0  0  0  0  0  0
   -0.3683   -1.1706    1.6491 H   0  0  0  0  0  0  0  0  0  0  0  0
   -1.5889   -3.2096    3.5550 H   0  0  0  0  0  0  0  0  0  0  0  0
   -2.4123   -2.0293    2.5278 H   0  0  0  0  0  0  0  0  0  0  0  0
   -1.6524   -3.4483    1.7965 H   0  0  0  0  0  0  0  0  0  0  0  0
    2.6743   -6.6369    0.9077 H   0  0  0  0  0  0  0  0  0  0  0  0
    2.6101   -5.4588   -0.3770 H   0  0  0  0  0  0  0  0  0  0  0  0
    3.9117   -5.0423    2.3726 H   0  0  0  0  0  0  0  0  0  0  0  0
    4.7514   -5.3893    0.8526 H   0  0  0  0  0  0  0  0  0  0  0  0
    3.9179   -3.8520    1.0673 H   0  0  0  0  0  0  0  0  0  0  0  0
  1  2  2  0  0  0  0
  1 20  1  0  0  0  0
  2  3  1  0  0  0  0
  2 10  1  0  0  0  0
  3  4  2  0  0  0  0
  3 21  1  0  0  0  0
  4  5  1  0  0  0  0
  4 22  1  0  0  0  0
  5  6  2  0  0  0  0
  5  7  1  0  0  0  0
  6  1  1  0  0  0  0
  6 23  1  0  0  0  0
  7  8  2  0  0  0  0
  7  9  1  0  0  0  0
  9 24  1  0  0  0  0
 10 11  1  0  0  0  0
 10 12  2  0  0  0  0
 10 13  2  0  0  0  0
 11 14  1  0  0  0  0
 11 15  1  0  0  0  0
 14 18  1  0  0  0  0
 14 25  1  0  0  0  0
 14 26  1  0  0  0  0
 15 16  1  0  0  0  0
 15 27  1  0  0  0  0
 15 28  1  0  0  0  0
 16 17  1  0  0  0  0
 16 29  1  0  0  0  0
 16 30  1  0  0  0  0
 17 31  1  0  0  0  0
 17 32  1  0  0  0  0
 17 33  1  0  0  0  0
 18 19  1  0  0  0  0
 18 34  1  0  0  0  0
 18 35  1  0  0  0  0
 19 36  1  0  0  0  0
 19 37  1  0  0  0  0
 19 38  1  0  0  0  0
M  END
>  <Mol_ID>
1200

>  <Formula>
C13H19NO4S

>  <MolWeight>
285.35926

>  <Cat>
S4022

>  <Name>
Probenecid

>  <Synonyms>
Benemid

>  <Target>
Taste Receptor,TRP Channel

>  <Form>
free base

>  <CAS>
57-66-9

>  <URL>
http://selleckchem.com/products/probenecid-benemid.html

$$$$
