Bengenin.cdx
 OpenBabel08302521353D

 39 41  0  0  0  0  0  0  0  0999 V2000
   -2.8499    1.5614   -0.1012 C   0  0  2  0  0  0  0  0  0  0  0  0
   -3.5164    0.3635    0.5911 C   0  0  2  0  0  0  0  0  0  0  0  0
   -2.8437   -0.9491    0.1449 C   0  0  1  0  0  0  0  0  0  0  0  0
   -1.3214   -0.8457    0.3223 C   0  0  2  0  0  0  0  0  0  0  0  0
   -0.7846    0.3991   -0.3931 C   0  0  1  0  0  0  0  0  0  0  0  0
   -1.4354    1.5523    0.1576 O   0  0  0  0  0  0  0  0  0  0  0  0
   -0.6853   -2.0318   -0.1763 O   0  0  0  0  0  0  0  0  0  0  0  0
    0.6613   -2.1028   -0.0598 C   0  0  0  0  0  0  0  0  0  0  0  0
    1.3811   -0.8016    0.0303 C   0  0  0  0  0  0  0  0  0  0  0  0
    0.7138    0.4200   -0.1758 C   0  0  0  0  0  0  0  0  0  0  0  0
    2.7628   -0.8350    0.2697 C   0  0  0  0  0  0  0  0  0  0  0  0
    3.5090    0.3448    0.2754 C   0  0  0  0  0  0  0  0  0  0  0  0
    2.8879    1.5673    0.0123 C   0  0  0  0  0  0  0  0  0  0  0  0
    1.4961    1.5800   -0.2244 C   0  0  0  0  0  0  0  0  0  0  0  0
   -4.9262    0.3282    0.3730 O   0  0  0  0  0  0  0  0  0  0  0  0
   -3.4376    2.8769    0.4269 C   0  0  0  0  0  0  0  0  0  0  0  0
   -3.3483   -2.0570    0.9057 O   0  0  0  0  0  0  0  0  0  0  0  0
   -2.8322    3.9892   -0.2279 O   0  0  0  0  0  0  0  0  0  0  0  0
    1.2677   -3.1706   -0.0761 O   0  0  0  0  0  0  0  0  0  0  0  0
    4.8507    0.2571    0.5218 O   0  0  0  0  0  0  0  0  0  0  0  0
    3.4586    2.8142   -0.0581 O   0  0  0  0  0  0  0  0  0  0  0  0
    4.8568    2.9257    0.1815 C   0  0  0  0  0  0  0  0  0  0  0  0
    0.9056    2.7808   -0.5362 O   0  0  0  0  0  0  0  0  0  0  0  0
   -3.0066    1.5285   -1.1882 H   0  0  0  0  0  0  0  0  0  0  0  0
   -3.3824    0.4530    1.6768 H   0  0  0  0  0  0  0  0  0  0  0  0
   -3.0932   -1.1743   -0.8985 H   0  0  0  0  0  0  0  0  0  0  0  0
   -1.1191   -0.7936    1.4034 H   0  0  0  0  0  0  0  0  0  0  0  0
   -0.9595    0.3485   -1.4763 H   0  0  0  0  0  0  0  0  0  0  0  0
    3.2476   -1.7947    0.4388 H   0  0  0  0  0  0  0  0  0  0  0  0
   -5.1253    0.5958   -0.5406 H   0  0  0  0  0  0  0  0  0  0  0  0
   -4.5155    2.9294    0.2441 H   0  0  0  0  0  0  0  0  0  0  0  0
   -3.2581    2.9878    1.5008 H   0  0  0  0  0  0  0  0  0  0  0  0
   -3.2865   -1.8452    1.8528 H   0  0  0  0  0  0  0  0  0  0  0  0
   -1.8754    3.9166   -0.0458 H   0  0  0  0  0  0  0  0  0  0  0  0
    5.0965   -0.6701    0.6833 H   0  0  0  0  0  0  0  0  0  0  0  0
    5.1147    2.6024    1.1951 H   0  0  0  0  0  0  0  0  0  0  0  0
    5.4332    2.3955   -0.5821 H   0  0  0  0  0  0  0  0  0  0  0  0
    5.1193    3.9861    0.1073 H   0  0  0  0  0  0  0  0  0  0  0  0
    1.6321    3.4359   -0.5161 H   0  0  0  0  0  0  0  0  0  0  0  0
  1  2  1  0  0  0  0
  1 24  1  6  0  0  0
  1 16  1  0  0  0  0
  2  3  1  0  0  0  0
  2 25  1  1  0  0  0
  2 15  1  0  0  0  0
  3  4  1  0  0  0  0
  3 17  1  0  0  0  0
  3 26  1  6  0  0  0
  4  5  1  0  0  0  0
  4  7  1  0  0  0  0
  4 27  1  1  0  0  0
  5  6  1  0  0  0  0
  5 28  1  6  0  0  0
  6  1  1  0  0  0  0
  7  8  1  0  0  0  0
  8  9  1  0  0  0  0
  8 19  2  0  0  0  0
  9 10  2  0  0  0  0
  9 11  1  0  0  0  0
 10  5  1  0  0  0  0
 11 12  2  0  0  0  0
 11 29  1  0  0  0  0
 12 13  1  0  0  0  0
 12 20  1  0  0  0  0
 13 14  2  0  0  0  0
 13 21  1  0  0  0  0
 14 10  1  0  0  0  0
 14 23  1  0  0  0  0
 15 30  1  0  0  0  0
 16 18  1  0  0  0  0
 16 31  1  0  0  0  0
 16 32  1  0  0  0  0
 17 33  1  0  0  0  0
 18 34  1  0  0  0  0
 20 35  1  0  0  0  0
 21 22  1  0  0  0  0
 22 36  1  0  0  0  0
 22 37  1  0  0  0  0
 22 38  1  0  0  0  0
 23 39  1  0  0  0  0
M  END
>  <Mol_ID>
667

>  <Formula>
C14H16O9

>  <MolWeight>
328.27144

>  <Cat>
S2270

>  <Name>
Bergenin

>  <Synonyms>
Cuscutin

>  <Target>
Others

>  <Form>
free base

>  <CAS>
477-90-7

>  <URL>
http://selleckchem.com/products/Bergenin-(Cuscutin).html

$$$$
