BENOQUIN (monobenzone).cdx
 OpenBabel08302520403D

 27 28  0  0  0  0  0  0  0  0999 V2000
    0.6131    1.2470   -1.3379 C   0  0  0  0  0  0  0  0  0  0  0  0
    1.7668    0.4635   -1.2473 C   0  0  0  0  0  0  0  0  0  0  0  0
    2.5703    0.2914   -2.3777 C   0  0  0  0  0  0  0  0  0  0  0  0
    2.1897    0.8460   -3.6002 C   0  0  0  0  0  0  0  0  0  0  0  0
    1.0233    1.5947   -3.6843 C   0  0  0  0  0  0  0  0  0  0  0  0
    0.2341    1.8120   -2.5595 C   0  0  0  0  0  0  0  0  0  0  0  0
    2.0099   -0.0873   -0.0157 O   0  0  0  0  0  0  0  0  0  0  0  0
    2.9054   -1.2019   -0.0163 C   0  0  0  0  0  0  0  0  0  0  0  0
    2.7634   -2.0248    1.2434 C   0  0  0  0  0  0  0  0  0  0  0  0
    0.6875    2.1059   -4.9020 O   0  0  0  0  0  0  0  0  0  0  0  0
    2.8919   -3.4215    1.1689 C   0  0  0  0  0  0  0  0  0  0  0  0
    2.8042   -4.2066    2.3178 C   0  0  0  0  0  0  0  0  0  0  0  0
    2.5983   -3.6045    3.5564 C   0  0  0  0  0  0  0  0  0  0  0  0
    2.4846   -2.2178    3.6467 C   0  0  0  0  0  0  0  0  0  0  0  0
    2.5718   -1.4295    2.4961 C   0  0  0  0  0  0  0  0  0  0  0  0
   -0.0033    1.4032   -0.4561 H   0  0  0  0  0  0  0  0  0  0  0  0
    3.4955   -0.2743   -2.3440 H   0  0  0  0  0  0  0  0  0  0  0  0
    2.8004    0.6884   -4.4849 H   0  0  0  0  0  0  0  0  0  0  0  0
   -0.6747    2.4026   -2.6120 H   0  0  0  0  0  0  0  0  0  0  0  0
    2.6832   -1.8573   -0.8692 H   0  0  0  0  0  0  0  0  0  0  0  0
    3.9396   -0.8440   -0.0834 H   0  0  0  0  0  0  0  0  0  0  0  0
   -0.1511    2.5868   -4.8159 H   0  0  0  0  0  0  0  0  0  0  0  0
    3.0592   -3.9081    0.2100 H   0  0  0  0  0  0  0  0  0  0  0  0
    2.8978   -5.2864    2.2450 H   0  0  0  0  0  0  0  0  0  0  0  0
    2.5292   -4.2157    4.4518 H   0  0  0  0  0  0  0  0  0  0  0  0
    2.3291   -1.7480    4.6140 H   0  0  0  0  0  0  0  0  0  0  0  0
    2.4852   -0.3477    2.5805 H   0  0  0  0  0  0  0  0  0  0  0  0
  1  2  2  0  0  0  0
  1 16  1  0  0  0  0
  2  3  1  0  0  0  0
  2  7  1  0  0  0  0
  3  4  2  0  0  0  0
  3 17  1  0  0  0  0
  4  5  1  0  0  0  0
  4 18  1  0  0  0  0
  5  6  2  0  0  0  0
  5 10  1  0  0  0  0
  6  1  1  0  0  0  0
  6 19  1  0  0  0  0
  7  8  1  0  0  0  0
  8  9  1  0  0  0  0
  8 20  1  0  0  0  0
  8 21  1  0  0  0  0
  9 11  2  0  0  0  0
 10 22  1  0  0  0  0
 11 12  1  0  0  0  0
 11 23  1  0  0  0  0
 12 13  2  0  0  0  0
 12 24  1  0  0  0  0
 13 14  1  0  0  0  0
 13 25  1  0  0  0  0
 14 15  2  0  0  0  0
 14 26  1  0  0  0  0
 15  9  1  0  0  0  0
 15 27  1  0  0  0  0
M  END
>  <Mol_ID>
375

>  <Formula>
C13H12O2

>  <MolWeight>
200.23318

>  <Cat>
S1652

>  <Name>
Monobenzone

>  <Synonyms>
Benoquin

>  <Target>
Tyrosinase

>  <Form>
free base

>  <CAS>
103-16-2

>  <URL>
http://selleckchem.com/products/Monobenzone(Benoquin).html

$$$$
