Benpyrine racemate
 OpenBabel08302521303D

 39 42  0  0  0  0  0  0  0  0999 V2000
    1.9667    0.0030    0.0686 O   0  0  0  0  0  0  0  0  0  0  0  0
   -0.1106   -1.0482    0.0312 N   0  0  0  0  0  0  0  0  0  0  0  0
   -2.4945    1.6696    0.3239 N   0  0  0  0  0  0  0  0  0  0  0  0
   -4.2363    0.4025   -0.7215 N   0  0  0  0  0  0  0  0  0  0  0  0
   -4.8263    3.3902    1.3078 N   0  0  0  0  0  0  0  0  0  0  0  0
   -6.5793    0.9513   -0.4321 N   0  0  0  0  0  0  0  0  0  0  0  0
   -6.9586    2.9327    0.8948 N   0  0  0  0  0  0  0  0  0  0  0  0
   -1.4711    0.8238   -0.2830 C   0  0  3  0  0  0  0  0  0  0  0  0
   -1.4989   -0.6553    0.1129 C   0  0  0  0  0  0  0  0  0  0  0  0
   -0.0840    1.2826    0.1839 C   0  0  0  0  0  0  0  0  0  0  0  0
    0.7473    0.0334    0.0740 C   0  0  0  0  0  0  0  0  0  0  0  0
    0.3262   -2.4277   -0.0257 C   0  0  0  0  0  0  0  0  0  0  0  0
   -3.8291    1.4299    0.0516 C   0  0  0  0  0  0  0  0  0  0  0  0
    0.5050   -3.0715    1.3264 C   0  0  0  0  0  0  0  0  0  0  0  0
   -4.8223    2.2462    0.5627 C   0  0  0  0  0  0  0  0  0  0  0  0
   -0.5576   -3.7388    1.9520 C   0  0  0  0  0  0  0  0  0  0  0  0
    1.7564   -3.0494    1.9598 C   0  0  0  0  0  0  0  0  0  0  0  0
   -6.1564    1.9914    0.3070 C   0  0  0  0  0  0  0  0  0  0  0  0
   -0.3603   -4.4014    3.1670 C   0  0  0  0  0  0  0  0  0  0  0  0
    1.9530   -3.7178    3.1712 C   0  0  0  0  0  0  0  0  0  0  0  0
   -5.5642    0.2209   -0.9097 C   0  0  0  0  0  0  0  0  0  0  0  0
   -6.1292    3.7705    1.4785 C   0  0  0  0  0  0  0  0  0  0  0  0
    0.8958   -4.3985    3.7707 C   0  0  0  0  0  0  0  0  0  0  0  0
   -2.3272    1.9503    1.2822 H   0  0  0  0  0  0  0  0  0  0  0  0
   -4.0125    3.8919    1.6330 H   0  0  0  0  0  0  0  0  0  0  0  0
   -1.5136    0.9133   -1.3779 H   0  0  0  0  0  0  0  0  0  0  0  0
   -1.8624   -0.8201    1.1321 H   0  0  0  0  0  0  0  0  0  0  0  0
   -2.0881   -1.2494   -0.5924 H   0  0  0  0  0  0  0  0  0  0  0  0
   -0.0795    1.6148    1.2282 H   0  0  0  0  0  0  0  0  0  0  0  0
    0.3122    2.0752   -0.4560 H   0  0  0  0  0  0  0  0  0  0  0  0
   -0.3884   -2.9968   -0.6314 H   0  0  0  0  0  0  0  0  0  0  0  0
    1.2819   -2.4628   -0.5634 H   0  0  0  0  0  0  0  0  0  0  0  0
   -1.5392   -3.7662    1.4872 H   0  0  0  0  0  0  0  0  0  0  0  0
    2.5935   -2.5255    1.5006 H   0  0  0  0  0  0  0  0  0  0  0  0
   -1.1847   -4.9317    3.6365 H   0  0  0  0  0  0  0  0  0  0  0  0
    2.9340   -3.7142    3.6397 H   0  0  0  0  0  0  0  0  0  0  0  0
   -5.8430   -0.6305   -1.5233 H   0  0  0  0  0  0  0  0  0  0  0  0
   -6.4077    4.6617    2.0252 H   0  0  0  0  0  0  0  0  0  0  0  0
    1.0521   -4.9289    4.7068 H   0  0  0  0  0  0  0  0  0  0  0  0
  1 11  2  0  0  0  0
  2  9  1  0  0  0  0
  2 11  1  0  0  0  0
  2 12  1  0  0  0  0
  3  8  1  0  0  0  0
  3 13  1  0  0  0  0
  3 24  1  0  0  0  0
  4 13  2  0  0  0  0
  4 21  1  0  0  0  0
  5 15  1  0  0  0  0
  5 22  1  0  0  0  0
  5 25  1  0  0  0  0
  6 18  1  0  0  0  0
  6 21  2  0  0  0  0
  7 18  1  0  0  0  0
  7 22  2  0  0  0  0
  8  9  1  0  0  0  0
  8 10  1  0  0  0  0
  8 26  1  0  0  0  0
  9 27  1  0  0  0  0
  9 28  1  0  0  0  0
 10 11  1  0  0  0  0
 10 29  1  0  0  0  0
 10 30  1  0  0  0  0
 12 14  1  0  0  0  0
 12 31  1  0  0  0  0
 12 32  1  0  0  0  0
 13 15  1  0  0  0  0
 14 16  2  0  0  0  0
 14 17  1  0  0  0  0
 15 18  2  0  0  0  0
 16 19  1  0  0  0  0
 16 33  1  0  0  0  0
 17 20  2  0  0  0  0
 17 34  1  0  0  0  0
 19 23  2  0  0  0  0
 19 35  1  0  0  0  0
 20 23  1  0  0  0  0
 20 36  1  0  0  0  0
 21 37  1  0  0  0  0
 22 38  1  0  0  0  0
 23 39  1  0  0  0  0
M  END
>  <Mol_ID>
5702

>  <Formula>
C16H16N6O

>  <MolWeight>
308.33784

>  <Cat>
S3515

>  <Name>
Benpyrine racemate

>  <Synonyms>
(Rac)-Benpyrine

>  <Target>
TNF-alpha

>  <Form>
Free Base

>  <CAS>
1333714-43-4

>  <URL>
http://www.selleckchem.com/products/benpyrine-racemate.html

$$$$
