Benztropine mesylate.cdx
 OpenBabel08302521553D

 57 59  0  0  0  0  0  0  0  0999 V2000
    0.4041    1.6316   -1.3775 C   0  0  0  0  0  0  0  0  0  0  0  0
    0.2175    1.7571    0.1277 C   0  0  0  0  0  0  0  0  0  0  0  0
   -0.6569    0.5596    0.4963 C   0  0  2  0  0  0  0  0  0  0  0  0
    0.0110   -0.8402    0.5496 C   0  0  0  0  0  0  0  0  0  0  0  0
    0.7908   -1.2802   -0.7090 C   0  0  1  0  0  0  0  0  0  0  0  0
    0.0172   -0.8180   -1.9535 C   0  0  0  0  0  0  0  0  0  0  0  0
   -0.6250    0.5737   -1.8005 C   0  0  1  0  0  0  0  0  0  0  0  0
   -1.5469    0.6390   -0.6623 N   0  0  0  0  0  0  0  0  0  0  0  0
    2.1635   -0.8144   -0.6557 O   0  0  0  0  0  0  0  0  0  0  0  0
    3.0895   -1.5143   -1.5411 C   0  0  0  0  0  0  0  0  0  0  0  0
   -2.6691   -0.2730   -0.6421 C   0  0  0  0  0  0  0  0  0  0  0  0
    3.0604   -0.9361   -2.9521 C   0  0  0  0  0  0  0  0  0  0  0  0
    4.5203   -1.5598   -0.9877 C   0  0  0  0  0  0  0  0  0  0  0  0
    3.1918    0.4421   -3.1823 C   0  0  0  0  0  0  0  0  0  0  0  0
    2.9979    0.9749   -4.4580 C   0  0  0  0  0  0  0  0  0  0  0  0
    2.7457    0.1293   -5.5353 C   0  0  0  0  0  0  0  0  0  0  0  0
    2.6761   -1.2477   -5.3363 C   0  0  0  0  0  0  0  0  0  0  0  0
    2.8265   -1.7783   -4.0536 C   0  0  0  0  0  0  0  0  0  0  0  0
    5.4494   -2.4643   -1.5436 C   0  0  0  0  0  0  0  0  0  0  0  0
    6.7475   -2.5784   -1.0351 C   0  0  0  0  0  0  0  0  0  0  0  0
    7.1447   -1.7893    0.0390 C   0  0  0  0  0  0  0  0  0  0  0  0
    6.2536   -0.8595    0.5762 C   0  0  0  0  0  0  0  0  0  0  0  0
    4.9594   -0.7348    0.0576 C   0  0  0  0  0  0  0  0  0  0  0  0
    2.3470    0.3107    2.7770 C   0  0  0  0  0  0  0  0  0  0  0  0
    1.2065   -0.1698    4.0422 S   0  0  0  0  0  0  0  0  0  0  0  0
    1.7325    0.2011    5.3371 O   0  0  0  0  0  0  0  0  0  0  0  0
   -0.1613    0.1358    3.6625 O   0  0  0  0  0  0  0  0  0  0  0  0
    1.3257   -1.7765    3.9000 O   0  0  0  0  0  0  0  0  0  0  0  0
    1.4289    1.3403   -1.5781 H   0  0  0  0  0  0  0  0  0  0  0  0
    0.2399    2.5944   -1.8715 H   0  0  0  0  0  0  0  0  0  0  0  0
   -0.3275    2.6911    0.3339 H   0  0  0  0  0  0  0  0  0  0  0  0
    1.1713    1.8350    0.6424 H   0  0  0  0  0  0  0  0  0  0  0  0
   -1.1936    0.7670    1.4280 H   0  0  0  0  0  0  0  0  0  0  0  0
   -0.7869   -1.5761    0.7205 H   0  0  0  0  0  0  0  0  0  0  0  0
    0.6366   -0.9414    1.4232 H   0  0  0  0  0  0  0  0  0  0  0  0
    0.8269   -2.3778   -0.6861 H   0  0  0  0  0  0  0  0  0  0  0  0
   -0.7648   -1.5552   -2.1683 H   0  0  0  0  0  0  0  0  0  0  0  0
    0.6395   -0.8011   -2.8404 H   0  0  0  0  0  0  0  0  0  0  0  0
   -1.1103    0.8650   -2.7355 H   0  0  0  0  0  0  0  0  0  0  0  0
    2.7672   -2.5648   -1.5719 H   0  0  0  0  0  0  0  0  0  0  0  0
   -2.3971   -1.3290   -0.7042 H   0  0  0  0  0  0  0  0  0  0  0  0
   -3.2392   -0.1351    0.2830 H   0  0  0  0  0  0  0  0  0  0  0  0
   -3.3473   -0.0489   -1.4710 H   0  0  0  0  0  0  0  0  0  0  0  0
    3.3901    1.1155   -2.3513 H   0  0  0  0  0  0  0  0  0  0  0  0
    3.0295    2.0514   -4.6066 H   0  0  0  0  0  0  0  0  0  0  0  0
    2.6045    0.5442   -6.5299 H   0  0  0  0  0  0  0  0  0  0  0  0
    2.4828   -1.9075   -6.1780 H   0  0  0  0  0  0  0  0  0  0  0  0
    2.7242   -2.8518   -3.9134 H   0  0  0  0  0  0  0  0  0  0  0  0
    5.1689   -3.0919   -2.3872 H   0  0  0  0  0  0  0  0  0  0  0  0
    7.4468   -3.2841   -1.4760 H   0  0  0  0  0  0  0  0  0  0  0  0
    8.1430   -1.8918    0.4531 H   0  0  0  0  0  0  0  0  0  0  0  0
    6.5697   -0.2306    1.4054 H   0  0  0  0  0  0  0  0  0  0  0  0
    4.2915    0.0124    0.4766 H   0  0  0  0  0  0  0  0  0  0  0  0
    1.9675    1.2299    2.3358 H   0  0  0  0  0  0  0  0  0  0  0  0
    2.4402   -0.4698    2.0240 H   0  0  0  0  0  0  0  0  0  0  0  0
    3.3284    0.4953    3.2117 H   0  0  0  0  0  0  0  0  0  0  0  0
    0.4182   -2.1396    3.8094 H   0  0  0  0  0  0  0  0  0  0  0  0
  1  2  1  0  0  0  0
  1 29  1  0  0  0  0
  1 30  1  0  0  0  0
  2 31  1  0  0  0  0
  2 32  1  0  0  0  0
  3  2  1  0  0  0  0
  3  4  1  0  0  0  0
  3  8  1  0  0  0  0
  3 33  1  1  0  0  0
  4  5  1  0  0  0  0
  4 34  1  0  0  0  0
  4 35  1  0  0  0  0
  5  6  1  0  0  0  0
  5 36  1  6  0  0  0
  5  9  1  0  0  0  0
  6 37  1  0  0  0  0
  6 38  1  0  0  0  0
  7  6  1  0  0  0  0
  7  1  1  0  0  0  0
  7  8  1  0  0  0  0
  7 39  1  6  0  0  0
  9 10  1  0  0  0  0
 10 12  1  0  0  0  0
 10 13  1  0  0  0  0
 10 40  1  0  0  0  0
 11  8  1  0  0  0  0
 11 41  1  0  0  0  0
 11 42  1  0  0  0  0
 11 43  1  0  0  0  0
 12 14  2  0  0  0  0
 13 19  2  0  0  0  0
 14 15  1  0  0  0  0
 14 44  1  0  0  0  0
 15 16  2  0  0  0  0
 15 45  1  0  0  0  0
 16 17  1  0  0  0  0
 16 46  1  0  0  0  0
 17 18  2  0  0  0  0
 17 47  1  0  0  0  0
 18 12  1  0  0  0  0
 18 48  1  0  0  0  0
 19 20  1  0  0  0  0
 19 49  1  0  0  0  0
 20 21  2  0  0  0  0
 20 50  1  0  0  0  0
 21 22  1  0  0  0  0
 21 51  1  0  0  0  0
 22 23  2  0  0  0  0
 22 52  1  0  0  0  0
 23 13  1  0  0  0  0
 23 53  1  0  0  0  0
 24 25  1  0  0  0  0
 24 54  1  0  0  0  0
 24 55  1  0  0  0  0
 24 56  1  0  0  0  0
 25 26  2  0  0  0  0
 25 27  2  0  0  0  0
 25 28  1  0  0  0  0
 28 57  1  0  0  0  0
M  END
>  <Mol_ID>
991

>  <Formula>
C22H29NO4S

>  <MolWeight>
403.53496

>  <Cat>
S3163

>  <Name>
Benztropine mesylate

>  <Synonyms>
Cogentin mesylate, Benztropine methanesulfonate

>  <Target>
Dopamine Receptor

>  <Form>
Mesylate

>  <CAS>
132-17-2

>  <URL>
http://selleckchem.com/products/benztropine-mesylate.html

$$$$
