Benzocaine.cdx
 OpenBabel08302522053D

 23 23  0  0  0  0  0  0  0  0999 V2000
    0.9220    0.0153   -0.0027 C   0  0  0  0  0  0  0  0  0  0  0  0
    0.1901    1.2065   -0.0063 C   0  0  0  0  0  0  0  0  0  0  0  0
   -1.2080    1.1906    0.0637 C   0  0  0  0  0  0  0  0  0  0  0  0
   -1.8902   -0.0307    0.0897 C   0  0  0  0  0  0  0  0  0  0  0  0
   -1.1661   -1.2248    0.0209 C   0  0  0  0  0  0  0  0  0  0  0  0
    0.2296   -1.1971   -0.0411 C   0  0  0  0  0  0  0  0  0  0  0  0
    2.3074    0.0381   -0.1954 N   0  0  0  0  0  0  0  0  0  0  0  0
   -3.3704   -0.1133    0.1540 C   0  0  0  0  0  0  0  0  0  0  0  0
   -4.0027   -1.0996   -0.1889 O   0  0  0  0  0  0  0  0  0  0  0  0
   -3.8828    1.0234    0.6864 O   0  0  0  0  0  0  0  0  0  0  0  0
   -5.3074    1.0310    0.8623 C   0  0  0  0  0  0  0  0  0  0  0  0
   -5.9845    1.5045   -0.4094 C   0  0  0  0  0  0  0  0  0  0  0  0
    0.7046    2.1625   -0.0654 H   0  0  0  0  0  0  0  0  0  0  0  0
   -1.7494    2.1324    0.0733 H   0  0  0  0  0  0  0  0  0  0  0  0
   -1.6850   -2.1813    0.0066 H   0  0  0  0  0  0  0  0  0  0  0  0
    0.7715   -2.1362   -0.1204 H   0  0  0  0  0  0  0  0  0  0  0  0
    2.7809   -0.8033    0.1197 H   0  0  0  0  0  0  0  0  0  0  0  0
    2.7583    0.8818    0.1447 H   0  0  0  0  0  0  0  0  0  0  0  0
   -5.6777    0.0463    1.1712 H   0  0  0  0  0  0  0  0  0  0  0  0
   -5.5273    1.7255    1.6796 H   0  0  0  0  0  0  0  0  0  0  0  0
   -5.7803    0.8216   -1.2402 H   0  0  0  0  0  0  0  0  0  0  0  0
   -7.0671    1.5722   -0.2710 H   0  0  0  0  0  0  0  0  0  0  0  0
   -5.6023    2.4874   -0.7038 H   0  0  0  0  0  0  0  0  0  0  0  0
  1  2  2  0  0  0  0
  1  7  1  0  0  0  0
  2  3  1  0  0  0  0
  2 13  1  0  0  0  0
  3  4  2  0  0  0  0
  3 14  1  0  0  0  0
  4  5  1  0  0  0  0
  4  8  1  0  0  0  0
  5  6  2  0  0  0  0
  5 15  1  0  0  0  0
  6  1  1  0  0  0  0
  6 16  1  0  0  0  0
  7 17  1  0  0  0  0
  7 18  1  0  0  0  0
  8  9  2  0  0  0  0
  8 10  1  0  0  0  0
 10 11  1  0  0  0  0
 11 12  1  0  0  0  0
 11 19  1  0  0  0  0
 11 20  1  0  0  0  0
 12 21  1  0  0  0  0
 12 22  1  0  0  0  0
 12 23  1  0  0  0  0
M  END
>  <Mol_ID>
1340

>  <Formula>
C9H11NO2

>  <MolWeight>
165.18914

>  <Cat>
S4210

>  <Name>
Benzocaine

>  <Synonyms>
ethyl 4-aminobenzoate

>  <Target>
Sodium Channel

>  <Form>
Free Base

>  <CAS>
94-09-7

>  <URL>
http://selleckchem.com/products/benzocaine.html

$$$$
