Benzofuroxan
 OpenBabel08302521373D

 14 15  0  0  0  0  0  0  0  0999 V2000
    1.1385   -0.0988    0.0670 O   0  5  0  0  0  0  0  0  0  0  0  0
    3.2074    1.1020    0.0665 C   0  0  0  0  0  0  0  0  0  0  0  0
    4.5516    0.5712    0.0667 C   0  0  0  0  0  0  0  0  0  0  0  0
    2.3827    0.0516    0.0670 N   0  3  0  0  0  0  0  0  0  0  0  0
    2.8641    2.4551    0.0660 C   0  0  0  0  0  0  0  0  0  0  0  0
    5.6654    1.4303    0.0661 C   0  0  0  0  0  0  0  0  0  0  0  0
    4.5173   -0.7688    0.0675 N   0  0  0  0  0  0  0  0  0  0  0  0
    3.1770   -1.1412    0.0677 O   0  0  0  0  0  0  0  0  0  0  0  0
    3.9971    3.2908    0.0655 C   0  0  0  0  0  0  0  0  0  0  0  0
    5.3375    2.8030    0.0652 C   0  0  0  0  0  0  0  0  0  0  0  0
    1.8479    2.8306    0.0661 H   0  0  0  0  0  0  0  0  0  0  0  0
    6.6853    1.0684    0.0663 H   0  0  0  0  0  0  0  0  0  0  0  0
    3.8446    4.3717    0.0653 H   0  0  0  0  0  0  0  0  0  0  0  0
    6.1508    3.5302    0.0644 H   0  0  0  0  0  0  0  0  0  0  0  0
  1  4  1  0  0  0  0
  2  3  1  0  0  0  0
  2  4  2  0  0  0  0
  2  5  1  0  0  0  0
  3  6  1  0  0  0  0
  3  7  2  0  0  0  0
  4  8  1  0  0  0  0
  5  9  2  0  0  0  0
  5 11  1  0  0  0  0
  6 10  2  0  0  0  0
  6 12  1  0  0  0  0
  7  8  1  0  0  0  0
  9 10  1  0  0  0  0
  9 13  1  0  0  0  0
 10 14  1  0  0  0  0
M  CHG  2   1  -1   4   1
M  END
>  <Mol_ID>
7355

>  <Formula>
C6H4N2O2

>  <MolWeight>
136.10816

>  <Cat>
E4402

>  <Name>
Benzofuroxan

>  <Synonyms>
Benzofuroxan

>  <Target>
Others

>  <Form>
free base

>  <CAS>
480-96-6

>  <URL>
https://www.selleckchem.com/products/benzofuroxan.html

$$$$
