Benzylpenicillin sodium.cdx
 OpenBabel08302522053D

 40 42  0  0  0  0  0  0  0  0999 V2000
   -0.8174    0.3487    0.6691 N   0  0  0  0  0  0  0  0  0  0  0  0
   -0.4936   -1.0775    0.6398 C   0  0  1  0  0  0  0  0  0  0  0  0
    0.2194    1.3165    0.2498 C   0  0  2  0  0  0  0  0  0  0  0  0
   -1.9648    0.2100   -0.0625 C   0  0  0  0  0  0  0  0  0  0  0  0
   -1.9068   -1.3322    0.0682 C   0  0  1  0  0  0  0  0  0  0  0  0
    0.9432   -1.1774   -0.5093 S   0  0  0  0  0  0  0  0  0  0  0  0
    1.5279    0.5197    0.0358 C   0  0  0  0  0  0  0  0  0  0  0  0
    0.3469    2.5823    1.1391 C   0  0  0  0  0  0  0  0  0  0  0  0
   -2.6170    0.9735   -0.7323 O   0  0  0  0  0  0  0  0  0  0  0  0
   -1.9907   -2.0891   -1.2075 N   0  0  0  0  0  0  0  0  0  0  0  0
    2.4015    1.1038   -1.0801 C   0  0  0  0  0  0  0  0  0  0  0  0
    2.3752    0.3008    1.2983 C   0  0  0  0  0  0  0  0  0  0  0  0
    1.2379    3.4042    0.7728 O   0  0  0  0  0  0  0  0  0  0  0  0
   -0.4424    2.6614    2.1238 O   0  5  0  0  0  0  0  0  0  0  0  0
   -2.0961   -3.4582   -1.2268 C   0  0  0  0  0  0  0  0  0  0  0  0
   -1.9816   -4.0773   -2.6058 C   0  0  0  0  0  0  0  0  0  0  0  0
   -2.2577   -4.1313   -0.2123 O   0  0  0  0  0  0  0  0  0  0  0  0
   -3.3065   -4.2304   -3.3121 C   0  0  0  0  0  0  0  0  0  0  0  0
   -3.5268   -3.6064   -4.5479 C   0  0  0  0  0  0  0  0  0  0  0  0
   -4.3228   -5.0251   -2.7638 C   0  0  0  0  0  0  0  0  0  0  0  0
   -4.7391   -3.7728   -5.2192 C   0  0  0  0  0  0  0  0  0  0  0  0
   -5.5352   -5.1894   -3.4360 C   0  0  0  0  0  0  0  0  0  0  0  0
   -5.7423   -4.5656   -4.6647 C   0  0  0  0  0  0  0  0  0  0  0  0
   -0.3103   -1.4922    1.6342 H   0  0  0  0  0  0  0  0  0  0  0  0
   -0.1045    1.7055   -0.7261 H   0  0  0  0  0  0  0  0  0  0  0  0
   -2.6292   -1.6972    0.8072 H   0  0  0  0  0  0  0  0  0  0  0  0
   -1.8515   -1.5832   -2.0773 H   0  0  0  0  0  0  0  0  0  0  0  0
    2.7623    2.1036   -0.8165 H   0  0  0  0  0  0  0  0  0  0  0  0
    3.2884    0.4861   -1.2630 H   0  0  0  0  0  0  0  0  0  0  0  0
    1.8514    1.1939   -2.0233 H   0  0  0  0  0  0  0  0  0  0  0  0
    3.1560   -0.4536    1.1259 H   0  0  0  0  0  0  0  0  0  0  0  0
    2.8923    1.2188    1.5962 H   0  0  0  0  0  0  0  0  0  0  0  0
    1.7764   -0.0334    2.1518 H   0  0  0  0  0  0  0  0  0  0  0  0
   -1.2889   -3.4769   -3.2073 H   0  0  0  0  0  0  0  0  0  0  0  0
   -1.5102   -5.0627   -2.5031 H   0  0  0  0  0  0  0  0  0  0  0  0
   -2.7552   -2.9867   -4.9995 H   0  0  0  0  0  0  0  0  0  0  0  0
   -4.1765   -5.5195   -1.8043 H   0  0  0  0  0  0  0  0  0  0  0  0
   -4.9000   -3.2824   -6.1755 H   0  0  0  0  0  0  0  0  0  0  0  0
   -6.3177   -5.8040   -2.9987 H   0  0  0  0  0  0  0  0  0  0  0  0
   -6.6856   -4.6939   -5.1879 H   0  0  0  0  0  0  0  0  0  0  0  0
  1  2  1  0  0  0  0
  1  3  1  0  0  0  0
  1  4  1  0  0  0  0
  2  5  1  0  0  0  0
  2  6  1  0  0  0  0
  2 24  1  1  0  0  0
  3  7  1  0  0  0  0
  3 25  1  6  0  0  0
  3  8  1  0  0  0  0
  4  9  2  0  0  0  0
  4  5  1  0  0  0  0
  5 26  1  1  0  0  0
  5 10  1  0  0  0  0
  6  7  1  0  0  0  0
  7 11  1  0  0  0  0
  7 12  1  0  0  0  0
  8 13  2  0  0  0  0
  8 14  1  0  0  0  0
 10 15  1  0  0  0  0
 10 27  1  0  0  0  0
 11 28  1  0  0  0  0
 11 29  1  0  0  0  0
 11 30  1  0  0  0  0
 12 31  1  0  0  0  0
 12 32  1  0  0  0  0
 12 33  1  0  0  0  0
 15 16  1  0  0  0  0
 15 17  2  0  0  0  0
 16 18  1  0  0  0  0
 16 34  1  0  0  0  0
 16 35  1  0  0  0  0
 18 19  2  0  0  0  0
 18 20  1  0  0  0  0
 19 21  1  0  0  0  0
 19 36  1  0  0  0  0
 20 22  2  0  0  0  0
 20 37  1  0  0  0  0
 21 23  2  0  0  0  0
 21 38  1  0  0  0  0
 22 23  1  0  0  0  0
 22 39  1  0  0  0  0
 23 40  1  0  0  0  0
M  CHG  1  14  -1
M  END
>  <Mol_ID>
1342

>  <Formula>
C16H17N2NaO4S

>  <MolWeight>
356.37195

>  <Cat>
S4160

>  <Name>
Penicillin G Sodium

>  <Synonyms>
Benzylpenicillin Sodium

>  <Target>
Antibiotics,Antibiotics for Mammalian Cell Culture,Antibiotics for Plant Cell Culture

>  <Form>
Sodium Salt

>  <CAS>
69-57-8

>  <URL>
http://selleckchem.com/products/benzylpenicillin-sodium.html

$$$$
