Benzethonium chloride.cdx
 OpenBabel08302522053D

 72 73  0  0  0  0  0  0  0  0999 V2000
    1.2312   -0.2939    0.5478 C   0  0  0  0  0  0  0  0  0  0  0  0
    0.4985   -1.4298    0.1547 C   0  0  0  0  0  0  0  0  0  0  0  0
   -0.8855   -1.2738    0.0140 C   0  0  0  0  0  0  0  0  0  0  0  0
   -1.5287   -0.0830    0.3545 C   0  0  0  0  0  0  0  0  0  0  0  0
   -0.8085    1.0120    0.8124 C   0  0  0  0  0  0  0  0  0  0  0  0
    0.5844    0.9112    0.8772 C   0  0  0  0  0  0  0  0  0  0  0  0
    1.1420   -2.8209    0.0337 C   0  0  0  0  0  0  0  0  0  0  0  0
    1.5711   -3.3539    1.4485 C   0  0  0  0  0  0  0  0  0  0  0  0
    0.2567   -3.8580   -0.7106 C   0  0  0  0  0  0  0  0  0  0  0  0
    2.4322   -2.7492   -0.8442 C   0  0  0  0  0  0  0  0  0  0  0  0
    0.5915   -3.4722    2.6731 C   0  0  0  0  0  0  0  0  0  0  0  0
   -0.6208   -4.3665    2.3854 C   0  0  0  0  0  0  0  0  0  0  0  0
    1.3912   -4.1450    3.8180 C   0  0  0  0  0  0  0  0  0  0  0  0
    0.1031   -2.1148    3.2246 C   0  0  0  0  0  0  0  0  0  0  0  0
   -1.3649    2.1988    1.2148 O   0  0  0  0  0  0  0  0  0  0  0  0
   -2.7947    2.3008    1.1759 C   0  0  0  0  0  0  0  0  0  0  0  0
   -3.2883    2.6368   -0.2415 C   0  0  0  0  0  0  0  0  0  0  0  0
   -4.7097    2.5117   -0.4302 O   0  0  0  0  0  0  0  0  0  0  0  0
   -5.4584    3.5406    0.2100 C   0  0  0  0  0  0  0  0  0  0  0  0
   -6.9003    3.6733   -0.3373 C   0  0  0  0  0  0  0  0  0  0  0  0
   -7.7892    2.4066   -0.3230 N   0  3  0  0  0  0  0  0  0  0  0  0
   -7.8750    1.7324    1.0611 C   0  0  0  0  0  0  0  0  0  0  0  0
   -9.1896    2.8094   -0.8024 C   0  0  0  0  0  0  0  0  0  0  0  0
   -7.2597    1.3795   -1.3300 C   0  0  0  0  0  0  0  0  0  0  0  0
   -8.5360    2.5114    2.1759 C   0  0  0  0  0  0  0  0  0  0  0  0
   -9.9246    2.4302    2.3793 C   0  0  0  0  0  0  0  0  0  0  0  0
  -10.5358    3.1250    3.4252 C   0  0  0  0  0  0  0  0  0  0  0  0
   -9.7731    3.9153    4.2812 C   0  0  0  0  0  0  0  0  0  0  0  0
   -8.4030    4.0014    4.1058 C   0  0  0  0  0  0  0  0  0  0  0  0
   -7.7821    3.2960    3.0652 C   0  0  0  0  0  0  0  0  0  0  0  0
    2.3125   -0.3490    0.6792 H   0  0  0  0  0  0  0  0  0  0  0  0
   -1.5205   -2.0907   -0.3071 H   0  0  0  0  0  0  0  0  0  0  0  0
   -2.6077   -0.0792    0.2705 H   0  0  0  0  0  0  0  0  0  0  0  0
    1.1747    1.7546    1.2305 H   0  0  0  0  0  0  0  0  0  0  0  0
    2.0029   -4.3539    1.2867 H   0  0  0  0  0  0  0  0  0  0  0  0
    2.4178   -2.7389    1.7905 H   0  0  0  0  0  0  0  0  0  0  0  0
    0.0843   -3.5385   -1.7496 H   0  0  0  0  0  0  0  0  0  0  0  0
    0.7360   -4.8377   -0.7505 H   0  0  0  0  0  0  0  0  0  0  0  0
   -0.7298   -4.0027   -0.2731 H   0  0  0  0  0  0  0  0  0  0  0  0
    2.2153   -2.3358   -1.8356 H   0  0  0  0  0  0  0  0  0  0  0  0
    3.2159   -2.1369   -0.3909 H   0  0  0  0  0  0  0  0  0  0  0  0
    2.8597   -3.7520   -0.9885 H   0  0  0  0  0  0  0  0  0  0  0  0
   -0.3140   -5.3356    1.9774 H   0  0  0  0  0  0  0  0  0  0  0  0
   -1.1927   -4.5605    3.3011 H   0  0  0  0  0  0  0  0  0  0  0  0
   -1.3179   -3.8964    1.6885 H   0  0  0  0  0  0  0  0  0  0  0  0
    2.2455   -3.5270    4.1171 H   0  0  0  0  0  0  0  0  0  0  0  0
    0.7648   -4.2954    4.7066 H   0  0  0  0  0  0  0  0  0  0  0  0
    1.7710   -5.1248    3.5140 H   0  0  0  0  0  0  0  0  0  0  0  0
    0.1097   -2.0951    4.3213 H   0  0  0  0  0  0  0  0  0  0  0  0
    0.7483   -1.2918    2.9188 H   0  0  0  0  0  0  0  0  0  0  0  0
   -0.9243   -1.8923    2.9203 H   0  0  0  0  0  0  0  0  0  0  0  0
   -3.2894    1.4187    1.6040 H   0  0  0  0  0  0  0  0  0  0  0  0
   -3.0706    3.1185    1.8523 H   0  0  0  0  0  0  0  0  0  0  0  0
   -2.9528    3.6404   -0.5266 H   0  0  0  0  0  0  0  0  0  0  0  0
   -2.8248    1.9621   -0.9684 H   0  0  0  0  0  0  0  0  0  0  0  0
   -5.4591    3.3504    1.2822 H   0  0  0  0  0  0  0  0  0  0  0  0
   -4.9628    4.5047    0.0432 H   0  0  0  0  0  0  0  0  0  0  0  0
   -7.4328    4.4442    0.2308 H   0  0  0  0  0  0  0  0  0  0  0  0
   -6.8592    3.9944   -1.3858 H   0  0  0  0  0  0  0  0  0  0  0  0
   -8.4262    0.7937    0.9121 H   0  0  0  0  0  0  0  0  0  0  0  0
   -6.8555    1.4474    1.3459 H   0  0  0  0  0  0  0  0  0  0  0  0
   -9.1103    3.1847   -1.8280 H   0  0  0  0  0  0  0  0  0  0  0  0
   -9.8364    1.9260   -0.7747 H   0  0  0  0  0  0  0  0  0  0  0  0
   -9.5816    3.5965   -0.1538 H   0  0  0  0  0  0  0  0  0  0  0  0
   -7.0446    1.8911   -2.2731 H   0  0  0  0  0  0  0  0  0  0  0  0
   -6.3701    0.8967   -0.9238 H   0  0  0  0  0  0  0  0  0  0  0  0
   -8.0360    0.6229   -1.4892 H   0  0  0  0  0  0  0  0  0  0  0  0
  -10.5511    1.8015    1.7487 H   0  0  0  0  0  0  0  0  0  0  0  0
  -11.6096    3.0457    3.5859 H   0  0  0  0  0  0  0  0  0  0  0  0
  -10.2452    4.4457    5.1033 H   0  0  0  0  0  0  0  0  0  0  0  0
   -7.7950    4.5922    4.7895 H   0  0  0  0  0  0  0  0  0  0  0  0
   -6.7004    3.3495    2.9916 H   0  0  0  0  0  0  0  0  0  0  0  0
  1  2  2  0  0  0  0
  1 31  1  0  0  0  0
  2  3  1  0  0  0  0
  2  7  1  0  0  0  0
  3  4  2  0  0  0  0
  3 32  1  0  0  0  0
  4  5  1  0  0  0  0
  4 33  1  0  0  0  0
  5  6  2  0  0  0  0
  5 15  1  0  0  0  0
  6  1  1  0  0  0  0
  6 34  1  0  0  0  0
  7  8  1  0  0  0  0
  7  9  1  0  0  0  0
  7 10  1  0  0  0  0
  8 11  1  0  0  0  0
  8 35  1  0  0  0  0
  8 36  1  0  0  0  0
  9 37  1  0  0  0  0
  9 38  1  0  0  0  0
  9 39  1  0  0  0  0
 10 40  1  0  0  0  0
 10 41  1  0  0  0  0
 10 42  1  0  0  0  0
 11 12  1  0  0  0  0
 11 13  1  0  0  0  0
 11 14  1  0  0  0  0
 12 43  1  0  0  0  0
 12 44  1  0  0  0  0
 12 45  1  0  0  0  0
 13 46  1  0  0  0  0
 13 47  1  0  0  0  0
 13 48  1  0  0  0  0
 14 49  1  0  0  0  0
 14 50  1  0  0  0  0
 14 51  1  0  0  0  0
 15 16  1  0  0  0  0
 16 17  1  0  0  0  0
 16 52  1  0  0  0  0
 16 53  1  0  0  0  0
 17 18  1  0  0  0  0
 17 54  1  0  0  0  0
 17 55  1  0  0  0  0
 18 19  1  0  0  0  0
 19 20  1  0  0  0  0
 19 56  1  0  0  0  0
 19 57  1  0  0  0  0
 20 21  1  0  0  0  0
 20 58  1  0  0  0  0
 20 59  1  0  0  0  0
 21 22  1  0  0  0  0
 21 23  1  0  0  0  0
 21 24  1  0  0  0  0
 22 25  1  0  0  0  0
 22 60  1  0  0  0  0
 22 61  1  0  0  0  0
 23 62  1  0  0  0  0
 23 63  1  0  0  0  0
 23 64  1  0  0  0  0
 24 65  1  0  0  0  0
 24 66  1  0  0  0  0
 24 67  1  0  0  0  0
 25 26  2  0  0  0  0
 26 27  1  0  0  0  0
 26 68  1  0  0  0  0
 27 28  2  0  0  0  0
 27 69  1  0  0  0  0
 28 29  1  0  0  0  0
 28 70  1  0  0  0  0
 29 30  2  0  0  0  0
 29 71  1  0  0  0  0
 30 25  1  0  0  0  0
 30 72  1  0  0  0  0
M  CHG  1  21   1
M  END
>  <Mol_ID>
1339

>  <Formula>
C27H42ClNO2

>  <MolWeight>
448.08088

>  <Cat>
S4162

>  <Name>
Benzethonium Chloride

>  <Synonyms>
N/A

>  <Target>
AChR

>  <Form>
Chloride

>  <CAS>
121-54-0

>  <URL>
http://selleckchem.com/products/benzethonium-chloride.html

$$$$
