Benzamidine HCl
 OpenBabel08302520393D

 17 17  0  0  0  0  0  0  0  0999 V2000
    1.3920   -0.2156    0.0652 C   0  0  0  0  0  0  0  0  0  0  0  0
    0.5118   -1.3021    0.0378 C   0  0  0  0  0  0  0  0  0  0  0  0
    0.8876    1.0887    0.0452 C   0  0  0  0  0  0  0  0  0  0  0  0
    2.8638   -0.4428    0.1376 C   0  0  0  0  0  0  0  0  0  0  0  0
   -0.8676   -1.0831   -0.0147 C   0  0  0  0  0  0  0  0  0  0  0  0
   -0.4909    1.3049   -0.0136 C   0  0  0  0  0  0  0  0  0  0  0  0
    3.4107   -1.5879   -0.3688 N   0  0  0  0  0  0  0  0  0  0  0  0
    3.6225    0.4576    0.6719 N   0  0  0  0  0  0  0  0  0  0  0  0
   -1.3664    0.2193   -0.0418 C   0  0  0  0  0  0  0  0  0  0  0  0
    0.8834   -2.3214    0.0907 H   0  0  0  0  0  0  0  0  0  0  0  0
    1.5686    1.9366    0.0761 H   0  0  0  0  0  0  0  0  0  0  0  0
   -1.5524   -1.9270   -0.0196 H   0  0  0  0  0  0  0  0  0  0  0  0
   -0.8799    2.3199   -0.0284 H   0  0  0  0  0  0  0  0  0  0  0  0
    4.3986   -1.5397   -0.5848 H   0  0  0  0  0  0  0  0  0  0  0  0
    2.8871   -2.0231   -1.1222 H   0  0  0  0  0  0  0  0  0  0  0  0
    4.5893    0.1291    0.6850 H   0  0  0  0  0  0  0  0  0  0  0  0
   -2.4400    0.3891   -0.0745 H   0  0  0  0  0  0  0  0  0  0  0  0
  1  2  2  0  0  0  0
  1  3  1  0  0  0  0
  1  4  1  0  0  0  0
  2  5  1  0  0  0  0
  2 10  1  0  0  0  0
  3  6  2  0  0  0  0
  3 11  1  0  0  0  0
  4  7  1  0  0  0  0
  4  8  2  0  0  0  0
  5  9  2  0  0  0  0
  5 12  1  0  0  0  0
  6  9  1  0  0  0  0
  6 13  1  0  0  0  0
  7 14  1  0  0  0  0
  7 15  1  0  0  0  0
  8 16  1  0  0  0  0
  9 17  1  0  0  0  0
M  END
>  <Mol_ID>
3702

>  <Formula>
C7H9ClN2

>  <MolWeight>
156.61276

>  <Cat>
S4956

>  <Name>
Benzamidine HCl

>  <Synonyms>
N/A

>  <Target>
Serine/threonin kinase

>  <Form>
HCl

>  <CAS>
1670-14-0

>  <URL>
http://www.selleck.cn/products/benzamidine-hcl.html

$$$$
