Benzophenone
 OpenBabel08302521303D

 24 25  0  0  0  0  0  0  0  0999 V2000
    1.0025    0.1386   -0.0508 O   0  0  0  0  0  0  0  0  0  0  0  0
    2.9639   -0.3589   -1.2661 C   0  0  0  0  0  0  0  0  0  0  0  0
    2.9921    0.4760    1.1699 C   0  0  0  0  0  0  0  0  0  0  0  0
    2.2299    0.0873   -0.0511 C   0  0  0  0  0  0  0  0  0  0  0  0
    4.2197    0.1726   -1.5914 C   0  0  0  0  0  0  0  0  0  0  0  0
    4.1950   -0.1657    1.5045 C   0  0  0  0  0  0  0  0  0  0  0  0
    2.3989   -1.3478   -2.0774 C   0  0  0  0  0  0  0  0  0  0  0  0
    2.5169    1.5202    1.9674 C   0  0  0  0  0  0  0  0  0  0  0  0
    4.9453   -0.3449   -2.6628 C   0  0  0  0  0  0  0  0  0  0  0  0
    4.9618    0.2981    2.5706 C   0  0  0  0  0  0  0  0  0  0  0  0
    3.1221   -1.8517   -3.1612 C   0  0  0  0  0  0  0  0  0  0  0  0
    3.2817    1.9686    3.0468 C   0  0  0  0  0  0  0  0  0  0  0  0
    4.4001   -1.3644   -3.4407 C   0  0  0  0  0  0  0  0  0  0  0  0
    4.5105    1.3726    3.3340 C   0  0  0  0  0  0  0  0  0  0  0  0
    4.6550    0.9795   -1.0061 H   0  0  0  0  0  0  0  0  0  0  0  0
    4.5546   -1.0147    0.9284 H   0  0  0  0  0  0  0  0  0  0  0  0
    1.4087   -1.7404   -1.8558 H   0  0  0  0  0  0  0  0  0  0  0  0
    1.5666    1.9973    1.7377 H   0  0  0  0  0  0  0  0  0  0  0  0
    5.9359    0.0437   -2.8856 H   0  0  0  0  0  0  0  0  0  0  0  0
    5.9135   -0.1752    2.7998 H   0  0  0  0  0  0  0  0  0  0  0  0
    2.6929   -2.6336   -3.7830 H   0  0  0  0  0  0  0  0  0  0  0  0
    2.9236    2.7938    3.6583 H   0  0  0  0  0  0  0  0  0  0  0  0
    4.9701   -1.7747   -4.2708 H   0  0  0  0  0  0  0  0  0  0  0  0
    5.1145    1.7411    4.1594 H   0  0  0  0  0  0  0  0  0  0  0  0
  1  4  2  0  0  0  0
  2  4  1  0  0  0  0
  2  5  2  0  0  0  0
  2  7  1  0  0  0  0
  3  4  1  0  0  0  0
  3  6  2  0  0  0  0
  3  8  1  0  0  0  0
  5  9  1  0  0  0  0
  5 15  1  0  0  0  0
  6 10  1  0  0  0  0
  6 16  1  0  0  0  0
  7 11  2  0  0  0  0
  7 17  1  0  0  0  0
  8 12  2  0  0  0  0
  8 18  1  0  0  0  0
  9 13  2  0  0  0  0
  9 19  1  0  0  0  0
 10 14  2  0  0  0  0
 10 20  1  0  0  0  0
 11 13  1  0  0  0  0
 11 21  1  0  0  0  0
 12 14  1  0  0  0  0
 12 22  1  0  0  0  0
 13 23  1  0  0  0  0
 14 24  1  0  0  0  0
M  END
>  <Mol_ID>
5680

>  <Formula>
C13H10O

>  <MolWeight>
182.2179

>  <Cat>
S4438

>  <Name>
Benzophenone

>  <Synonyms>
Diphenyl ketone, Benzoylbenzene

>  <Target>
Others

>  <Form>
Free Base

>  <CAS>
119-61-9

>  <URL>
http://www.selleckchem.com/products/benzophenone.html

$$$$
