Benzylcetyldimethylammonium chloride hydrate
 OpenBabel08302520383D

 72 72  0  0  0  0  0  0  0  0999 V2000
    1.9062    4.0210   -2.4308 C   0  0  0  0  0  0  0  0  0  0  0  0
    1.2917    3.2946   -1.2518 C   0  0  0  0  0  0  0  0  0  0  0  0
    1.5839    3.6891   -3.7548 C   0  0  0  0  0  0  0  0  0  0  0  0
    2.8001    5.0847   -2.2286 C   0  0  0  0  0  0  0  0  0  0  0  0
    1.6647    1.7946   -1.0343 N   0  3  0  0  0  0  0  0  0  0  0  0
    2.2453    4.2872   -4.8301 C   0  0  0  0  0  0  0  0  0  0  0  0
    3.4593    5.6911   -3.3034 C   0  0  0  0  0  0  0  0  0  0  0  0
    3.1698    1.5712   -0.8893 C   0  0  0  0  0  0  0  0  0  0  0  0
    0.9166    1.2755    0.1897 C   0  0  0  0  0  0  0  0  0  0  0  0
    1.2188    0.9431   -2.2253 C   0  0  0  0  0  0  0  0  0  0  0  0
    3.2024    5.2705   -4.6033 C   0  0  0  0  0  0  0  0  0  0  0  0
    3.7806    2.1089    0.4029 C   0  0  0  0  0  0  0  0  0  0  0  0
    5.2940    1.8406    0.4226 C   0  0  0  0  0  0  0  0  0  0  0  0
    6.0485    2.4889   -0.7442 C   0  0  0  0  0  0  0  0  0  0  0  0
    5.8351    3.9996   -0.8039 C   0  0  0  0  0  0  0  0  0  0  0  0
    6.3748    4.7325    0.4237 C   0  0  0  0  0  0  0  0  0  0  0  0
    7.8920    4.5978    0.5395 C   0  0  0  0  0  0  0  0  0  0  0  0
    8.6160    5.1967   -0.6693 C   0  0  0  0  0  0  0  0  0  0  0  0
    8.3445    6.6974   -0.8205 C   0  0  0  0  0  0  0  0  0  0  0  0
    8.8480    7.5144    0.3761 C   0  0  0  0  0  0  0  0  0  0  0  0
   10.3512    7.3405    0.6293 C   0  0  0  0  0  0  0  0  0  0  0  0
   11.1566    7.7943   -0.5847 C   0  0  0  0  0  0  0  0  0  0  0  0
   12.6489    7.5528   -0.4329 C   0  0  0  0  0  0  0  0  0  0  0  0
   13.3659    8.0812   -1.6718 C   0  0  0  0  0  0  0  0  0  0  0  0
   14.8748    7.8806   -1.5740 C   0  0  0  0  0  0  0  0  0  0  0  0
   15.5734    8.4407   -2.7972 C   0  0  0  0  0  0  0  0  0  0  0  0
    1.5594    3.8071   -0.3200 H   0  0  0  0  0  0  0  0  0  0  0  0
    0.1992    3.3360   -1.3323 H   0  0  0  0  0  0  0  0  0  0  0  0
    0.8118    2.9603   -3.9822 H   0  0  0  0  0  0  0  0  0  0  0  0
    3.0148    5.4560   -1.2270 H   0  0  0  0  0  0  0  0  0  0  0  0
    2.0115    3.9874   -5.8495 H   0  0  0  0  0  0  0  0  0  0  0  0
    4.1789    6.4896   -3.1280 H   0  0  0  0  0  0  0  0  0  0  0  0
    3.3362    0.4859   -0.9252 H   0  0  0  0  0  0  0  0  0  0  0  0
    3.6298    2.0076   -1.7788 H   0  0  0  0  0  0  0  0  0  0  0  0
   -0.1506    1.2399   -0.0487 H   0  0  0  0  0  0  0  0  0  0  0  0
    1.2863    0.2719    0.4226 H   0  0  0  0  0  0  0  0  0  0  0  0
    1.0898    1.9548    1.0283 H   0  0  0  0  0  0  0  0  0  0  0  0
    0.1742    1.1708   -2.4500 H   0  0  0  0  0  0  0  0  0  0  0  0
    1.8704    1.1500   -3.0776 H   0  0  0  0  0  0  0  0  0  0  0  0
    1.3279   -0.1106   -1.9541 H   0  0  0  0  0  0  0  0  0  0  0  0
    3.7274    5.7250   -5.4409 H   0  0  0  0  0  0  0  0  0  0  0  0
    3.5750    3.1752    0.5306 H   0  0  0  0  0  0  0  0  0  0  0  0
    3.3462    1.6117    1.2769 H   0  0  0  0  0  0  0  0  0  0  0  0
    5.7069    2.1893    1.3765 H   0  0  0  0  0  0  0  0  0  0  0  0
    5.4729    0.7600    0.3982 H   0  0  0  0  0  0  0  0  0  0  0  0
    7.1134    2.2475   -0.6684 H   0  0  0  0  0  0  0  0  0  0  0  0
    5.7337    2.0465   -1.6951 H   0  0  0  0  0  0  0  0  0  0  0  0
    6.2653    4.3967   -1.7290 H   0  0  0  0  0  0  0  0  0  0  0  0
    4.7746    4.2142   -0.8801 H   0  0  0  0  0  0  0  0  0  0  0  0
    6.0763    5.7853    0.3763 H   0  0  0  0  0  0  0  0  0  0  0  0
    5.9046    4.3574    1.3380 H   0  0  0  0  0  0  0  0  0  0  0  0
    8.2264    5.0737    1.4671 H   0  0  0  0  0  0  0  0  0  0  0  0
    8.1765    3.5460    0.6458 H   0  0  0  0  0  0  0  0  0  0  0  0
    9.6894    5.0009   -0.5794 H   0  0  0  0  0  0  0  0  0  0  0  0
    8.3247    4.6853   -1.5917 H   0  0  0  0  0  0  0  0  0  0  0  0
    8.7977    7.0497   -1.7523 H   0  0  0  0  0  0  0  0  0  0  0  0
    7.2750    6.8900   -0.9545 H   0  0  0  0  0  0  0  0  0  0  0  0
    8.6329    8.5718    0.1985 H   0  0  0  0  0  0  0  0  0  0  0  0
    8.3023    7.2411    1.2812 H   0  0  0  0  0  0  0  0  0  0  0  0
   10.6397    7.9296    1.5059 H   0  0  0  0  0  0  0  0  0  0  0  0
   10.5902    6.3002    0.8771 H   0  0  0  0  0  0  0  0  0  0  0  0
   10.8368    7.2608   -1.4846 H   0  0  0  0  0  0  0  0  0  0  0  0
   10.9620    8.8592   -0.7614 H   0  0  0  0  0  0  0  0  0  0  0  0
   13.0218    8.0566    0.4648 H   0  0  0  0  0  0  0  0  0  0  0  0
   12.8409    6.4784   -0.3162 H   0  0  0  0  0  0  0  0  0  0  0  0
   12.9898    7.5709   -2.5622 H   0  0  0  0  0  0  0  0  0  0  0  0
   13.1454    9.1489   -1.7967 H   0  0  0  0  0  0  0  0  0  0  0  0
   15.2525    8.3771   -0.6745 H   0  0  0  0  0  0  0  0  0  0  0  0
   15.0973    6.8116   -1.4788 H   0  0  0  0  0  0  0  0  0  0  0  0
   15.3703    9.5108   -2.9078 H   0  0  0  0  0  0  0  0  0  0  0  0
   16.6551    8.3054   -2.7070 H   0  0  0  0  0  0  0  0  0  0  0  0
   15.2389    7.9327   -3.7074 H   0  0  0  0  0  0  0  0  0  0  0  0
  1  2  1  0  0  0  0
  1  3  2  0  0  0  0
  1  4  1  0  0  0  0
  2  5  1  0  0  0  0
  2 27  1  0  0  0  0
  2 28  1  0  0  0  0
  3  6  1  0  0  0  0
  3 29  1  0  0  0  0
  4  7  2  0  0  0  0
  4 30  1  0  0  0  0
  5  8  1  0  0  0  0
  5  9  1  0  0  0  0
  5 10  1  0  0  0  0
  6 11  2  0  0  0  0
  6 31  1  0  0  0  0
  7 11  1  0  0  0  0
  7 32  1  0  0  0  0
  8 12  1  0  0  0  0
  8 33  1  0  0  0  0
  8 34  1  0  0  0  0
  9 35  1  0  0  0  0
  9 36  1  0  0  0  0
  9 37  1  0  0  0  0
 10 38  1  0  0  0  0
 10 39  1  0  0  0  0
 10 40  1  0  0  0  0
 11 41  1  0  0  0  0
 12 13  1  0  0  0  0
 12 42  1  0  0  0  0
 12 43  1  0  0  0  0
 13 14  1  0  0  0  0
 13 44  1  0  0  0  0
 13 45  1  0  0  0  0
 14 15  1  0  0  0  0
 14 46  1  0  0  0  0
 14 47  1  0  0  0  0
 15 16  1  0  0  0  0
 15 48  1  0  0  0  0
 15 49  1  0  0  0  0
 16 17  1  0  0  0  0
 16 50  1  0  0  0  0
 16 51  1  0  0  0  0
 17 18  1  0  0  0  0
 17 52  1  0  0  0  0
 17 53  1  0  0  0  0
 18 19  1  0  0  0  0
 18 54  1  0  0  0  0
 18 55  1  0  0  0  0
 19 20  1  0  0  0  0
 19 56  1  0  0  0  0
 19 57  1  0  0  0  0
 20 21  1  0  0  0  0
 20 58  1  0  0  0  0
 20 59  1  0  0  0  0
 21 22  1  0  0  0  0
 21 60  1  0  0  0  0
 21 61  1  0  0  0  0
 22 23  1  0  0  0  0
 22 62  1  0  0  0  0
 22 63  1  0  0  0  0
 23 24  1  0  0  0  0
 23 64  1  0  0  0  0
 23 65  1  0  0  0  0
 24 25  1  0  0  0  0
 24 66  1  0  0  0  0
 24 67  1  0  0  0  0
 25 26  1  0  0  0  0
 25 68  1  0  0  0  0
 25 69  1  0  0  0  0
 26 70  1  0  0  0  0
 26 71  1  0  0  0  0
 26 72  1  0  0  0  0
M  CHG  1   5   1
M  END
>  <Mol_ID>
3511

>  <Formula>
C25H46ClN

>  <MolWeight>
396.09244

>  <Cat>
S6015

>  <Name>
Benzylcetyldimethylammonium chloride hydrate

>  <Synonyms>
N/A

>  <Target>
Others

>  <Form>
hydrate

>  <CAS>
122-18-9

>  <URL>
http://www.selleck.cn/products/benzylcetyldimethylammonium-chloride-hydrate.html

$$$$
