Benzylideneacetone
 OpenBabel08302521363D

 21 21  0  0  0  0  0  0  0  0999 V2000
    0.8641    0.0130    0.0182 C   0  0  0  0  0  0  0  0  0  0  0  0
    1.9480    0.8011    0.0429 C   0  0  0  0  0  0  0  0  0  0  0  0
    2.7554    1.2375   -1.1420 C   0  0  0  0  0  0  0  0  0  0  0  0
    3.6247    2.4558   -0.9629 C   0  0  0  0  0  0  0  0  0  0  0  0
    2.7434    0.6413   -2.2086 O   0  0  0  0  0  0  0  0  0  0  0  0
    0.2841   -0.6216   -1.1655 C   0  0  0  0  0  0  0  0  0  0  0  0
    0.7101   -1.8943   -1.5587 C   0  0  0  0  0  0  0  0  0  0  0  0
   -0.7420    0.0092   -1.8747 C   0  0  0  0  0  0  0  0  0  0  0  0
    0.0810   -2.5491   -2.6203 C   0  0  0  0  0  0  0  0  0  0  0  0
   -1.3816   -0.6529   -2.9243 C   0  0  0  0  0  0  0  0  0  0  0  0
   -0.9806   -1.9386   -3.2862 C   0  0  0  0  0  0  0  0  0  0  0  0
    0.3441   -0.2017    0.9506 H   0  0  0  0  0  0  0  0  0  0  0  0
    2.2815    1.1992    0.9973 H   0  0  0  0  0  0  0  0  0  0  0  0
    4.6713    2.1465   -0.9011 H   0  0  0  0  0  0  0  0  0  0  0  0
    3.4822    3.1143   -1.8244 H   0  0  0  0  0  0  0  0  0  0  0  0
    3.3585    3.0140   -0.0615 H   0  0  0  0  0  0  0  0  0  0  0  0
    1.5226   -2.3903   -1.0341 H   0  0  0  0  0  0  0  0  0  0  0  0
   -1.0747    1.0067   -1.6010 H   0  0  0  0  0  0  0  0  0  0  0  0
    0.4016   -3.5461   -2.9069 H   0  0  0  0  0  0  0  0  0  0  0  0
   -2.2163   -0.1785   -3.4357 H   0  0  0  0  0  0  0  0  0  0  0  0
   -1.5051   -2.4693   -4.0759 H   0  0  0  0  0  0  0  0  0  0  0  0
  1  2  2  3  0  0  0
  1  6  1  0  0  0  0
  1 12  1  0  0  0  0
  2  3  1  0  0  0  0
  2 13  1  0  0  0  0
  3  4  1  0  0  0  0
  3  5  2  0  0  0  0
  4 14  1  0  0  0  0
  4 15  1  0  0  0  0
  4 16  1  0  0  0  0
  6  7  2  0  0  0  0
  6  8  1  0  0  0  0
  7  9  1  0  0  0  0
  7 17  1  0  0  0  0
  8 10  2  0  0  0  0
  8 18  1  0  0  0  0
  9 11  2  0  0  0  0
  9 19  1  0  0  0  0
 10 11  1  0  0  0  0
 10 20  1  0  0  0  0
 11 21  1  0  0  0  0
M  END
>  <Mol_ID>
7181

>  <Formula>
C10H10O

>  <MolWeight>
146.1858

>  <Cat>
E4181

>  <Name>
Benzylideneacetone

>  <Synonyms>
4-Phenyl-3-buten-2-one

>  <Target>
Others

>  <Form>
Free base

>  <CAS>
122-57-6

>  <URL>
https://www.selleckchem.com/products/benzylideneacetone.html

$$$$
