Bepotastine
 OpenBabel08302520403D

 52 54  0  0  0  0  0  0  0  0999 V2000
   -0.2222   -1.8672    0.5977 C   0  0  1  0  0  0  0  0  0  0  0  0
    1.2203    0.2103    4.6027 N   0  0  0  0  0  0  0  0  0  0  0  0
    0.2979   -0.6138    1.0614 O   0  0  0  0  0  0  0  0  0  0  0  0
   -1.5895   -1.8311   -0.0906 C   0  0  0  0  0  0  0  0  0  0  0  0
    0.8419   -2.5483   -0.2699 C   0  0  0  0  0  0  0  0  0  0  0  0
    2.6597    3.4945    7.1673 C   0  0  0  0  0  0  0  0  0  0  0  0
    1.0109   -3.8875   -0.0925 N   0  0  0  0  0  0  0  0  0  0  0  0
    3.8151    3.8295    6.9741 O   0  0  0  0  0  0  0  0  0  0  0  0
   -2.4697   -2.9086    0.1279 C   0  0  0  0  0  0  0  0  0  0  0  0
   -1.9734   -0.8384   -1.0060 C   0  0  0  0  0  0  0  0  0  0  0  0
   -0.3930    0.0430    2.1293 C   0  0  0  0  0  0  0  0  0  0  0  0
    0.4569    1.2614    2.5122 C   0  0  0  0  0  0  0  0  0  0  0  0
   -0.6819   -0.7930    3.3857 C   0  0  0  0  0  0  0  0  0  0  0  0
    1.6658    0.8809    3.3716 C   0  0  0  0  0  0  0  0  0  0  0  0
    0.5551   -1.0548    4.2499 C   0  0  0  0  0  0  0  0  0  0  0  0
   -4.0178   -2.0486   -1.5110 C   0  0  0  0  0  0  0  0  0  0  0  0
    1.8089    4.3162    7.8148 O   0  0  0  0  0  0  0  0  0  0  0  0
   -3.1807   -0.9536   -1.7129 C   0  0  0  0  0  0  0  0  0  0  0  0
   -3.6713   -3.0188   -0.5738 C   0  0  0  0  0  0  0  0  0  0  0  0
    2.3187   -0.0248    5.5555 C   0  0  0  0  0  0  0  0  0  0  0  0
    2.9825    1.2570    6.0837 C   0  0  0  0  0  0  0  0  0  0  0  0
    1.9901    2.2156    6.7440 C   0  0  0  0  0  0  0  0  0  0  0  0
    1.9833   -4.4970   -0.8041 C   0  0  0  0  0  0  0  0  0  0  0  0
    1.6231   -1.8200   -1.1734 C   0  0  0  0  0  0  0  0  0  0  0  0
    2.8116   -3.8415   -1.6983 C   0  0  0  0  0  0  0  0  0  0  0  0
    2.6216   -2.4804   -1.8839 C   0  0  0  0  0  0  0  0  0  0  0  0
   -0.3017   -2.5194    1.4749 H   0  0  0  0  0  0  0  0  0  0  0  0
   -2.2040   -3.6955    0.8312 H   0  0  0  0  0  0  0  0  0  0  0  0
   -1.3294    0.0169   -1.1919 H   0  0  0  0  0  0  0  0  0  0  0  0
   -1.3420    0.4069    1.7204 H   0  0  0  0  0  0  0  0  0  0  0  0
    0.8182    1.7739    1.6127 H   0  0  0  0  0  0  0  0  0  0  0  0
   -0.1618    1.9752    3.0707 H   0  0  0  0  0  0  0  0  0  0  0  0
   -1.4125   -0.2461    3.9952 H   0  0  0  0  0  0  0  0  0  0  0  0
   -1.1548   -1.7482    3.1425 H   0  0  0  0  0  0  0  0  0  0  0  0
    2.3664    0.2495    2.8097 H   0  0  0  0  0  0  0  0  0  0  0  0
    2.1894    1.8134    3.6059 H   0  0  0  0  0  0  0  0  0  0  0  0
    0.2180   -1.5597    5.1641 H   0  0  0  0  0  0  0  0  0  0  0  0
    1.2440   -1.7392    3.7384 H   0  0  0  0  0  0  0  0  0  0  0  0
   -4.9317   -2.1539   -2.0837 H   0  0  0  0  0  0  0  0  0  0  0  0
    2.3501    5.1087    8.0128 H   0  0  0  0  0  0  0  0  0  0  0  0
   -3.4590   -0.1953   -2.4406 H   0  0  0  0  0  0  0  0  0  0  0  0
   -4.3197   -3.8749   -0.4091 H   0  0  0  0  0  0  0  0  0  0  0  0
    1.9224   -0.5636    6.4268 H   0  0  0  0  0  0  0  0  0  0  0  0
    3.0885   -0.6689    5.1111 H   0  0  0  0  0  0  0  0  0  0  0  0
    3.7516    0.9781    6.8158 H   0  0  0  0  0  0  0  0  0  0  0  0
    3.5233    1.7663    5.2775 H   0  0  0  0  0  0  0  0  0  0  0  0
    1.1859    2.4810    6.0500 H   0  0  0  0  0  0  0  0  0  0  0  0
    1.5554    1.7415    7.6308 H   0  0  0  0  0  0  0  0  0  0  0  0
    2.0868   -5.5611   -0.6246 H   0  0  0  0  0  0  0  0  0  0  0  0
    1.4746   -0.7508   -1.2962 H   0  0  0  0  0  0  0  0  0  0  0  0
    3.5862   -4.3789   -2.2263 H   0  0  0  0  0  0  0  0  0  0  0  0
    3.2565   -1.9274   -2.5767 H   0  0  0  0  0  0  0  0  0  0  0  0
  1 27  1  1  0  0  0
  1  3  1  0  0  0  0
  2 15  1  0  0  0  0
  2 14  1  0  0  0  0
  4  1  1  0  0  0  0
  5  1  1  0  0  0  0
  6 22  1  0  0  0  0
  7  5  2  0  0  0  0
  8  6  2  0  0  0  0
  9  4  2  0  0  0  0
  9 28  1  0  0  0  0
 10  4  1  0  0  0  0
 10 29  1  0  0  0  0
 11  3  1  0  0  0  0
 11 30  1  0  0  0  0
 12 11  1  0  0  0  0
 12 31  1  0  0  0  0
 12 32  1  0  0  0  0
 13 11  1  0  0  0  0
 13 33  1  0  0  0  0
 13 34  1  0  0  0  0
 14 12  1  0  0  0  0
 14 35  1  0  0  0  0
 14 36  1  0  0  0  0
 15 13  1  0  0  0  0
 15 37  1  0  0  0  0
 15 38  1  0  0  0  0
 16 19  2  0  0  0  0
 16 18  1  0  0  0  0
 16 39  1  0  0  0  0
 17  6  1  0  0  0  0
 17 40  1  0  0  0  0
 18 10  2  0  0  0  0
 18 41  1  0  0  0  0
 19  9  1  0  0  0  0
 19 42  1  0  0  0  0
 20  2  1  0  0  0  0
 20 43  1  0  0  0  0
 20 44  1  0  0  0  0
 21 20  1  0  0  0  0
 21 45  1  0  0  0  0
 21 46  1  0  0  0  0
 22 21  1  0  0  0  0
 22 47  1  0  0  0  0
 22 48  1  0  0  0  0
 23  7  1  0  0  0  0
 23 49  1  0  0  0  0
 24  5  1  0  0  0  0
 24 50  1  0  0  0  0
 25 23  2  0  0  0  0
 25 26  1  0  0  0  0
 25 51  1  0  0  0  0
 26 24  2  0  0  0  0
 26 52  1  0  0  0  0
M  END
>  <Mol_ID>
3717

>  <Formula>
C21H25ClN2O3

>  <MolWeight>
388.8878

>  <Cat>
S5940

>  <Name>
Bepotastine

>  <Synonyms>
N/A

>  <Target>
COVID-19,Histamine Receptor

>  <Form>
Free Base

>  <CAS>
125602-71-3

>  <URL>
http://www.selleck.cn/products/bepotastine.html

$$$$
