Berberine  Hydrochloride.cdx
 OpenBabel08302521353D

 43 47  0  0  0  0  0  0  0  0999 V2000
   -4.9482   -1.9889   -0.1345 C   0  0  0  0  0  0  0  0  0  0  0  0
   -5.6120   -0.7615   -0.0366 C   0  0  0  0  0  0  0  0  0  0  0  0
   -4.8482    0.4247    0.0358 C   0  0  0  0  0  0  0  0  0  0  0  0
   -3.4223    0.3595    0.0244 C   0  0  0  0  0  0  0  0  0  0  0  0
   -2.7914   -0.8874   -0.0784 C   0  0  0  0  0  0  0  0  0  0  0  0
   -3.5557   -2.0502   -0.1609 C   0  0  0  0  0  0  0  0  0  0  0  0
   -2.5951    1.4876    0.1262 C   0  0  0  0  0  0  0  0  0  0  0  0
   -1.2379    1.4044    0.1374 N   0  3  0  0  0  0  0  0  0  0  0  0
   -0.6114    0.1978    0.0354 C   0  0  0  0  0  0  0  0  0  0  0  0
   -1.3966   -0.9566   -0.0910 C   0  0  0  0  0  0  0  0  0  0  0  0
   -0.4681    2.6534    0.3803 C   0  0  0  0  0  0  0  0  0  0  0  0
    0.8362    2.6639   -0.3932 C   0  0  0  0  0  0  0  0  0  0  0  0
    1.5968    1.3906   -0.1531 C   0  0  0  0  0  0  0  0  0  0  0  0
    0.8669    0.1862    0.0373 C   0  0  0  0  0  0  0  0  0  0  0  0
    3.0041    1.3991   -0.2046 C   0  0  0  0  0  0  0  0  0  0  0  0
    3.6632    0.1988   -0.0754 C   0  0  0  0  0  0  0  0  0  0  0  0
    2.9796   -0.9716    0.1141 C   0  0  0  0  0  0  0  0  0  0  0  0
    1.6024   -1.0088    0.1904 C   0  0  0  0  0  0  0  0  0  0  0  0
    5.0062    0.0097   -0.1355 O   0  0  0  0  0  0  0  0  0  0  0  0
    5.0859   -1.4301   -0.0442 C   0  0  0  0  0  0  0  0  0  0  0  0
    3.8023   -2.0504    0.1917 O   0  0  0  0  0  0  0  0  0  0  0  0
   -6.9756   -0.6682   -0.0033 O   0  0  0  0  0  0  0  0  0  0  0  0
   -7.7508   -1.8609   -0.0619 C   0  0  0  0  0  0  0  0  0  0  0  0
   -5.3285    1.7138    0.1255 O   0  0  0  0  0  0  0  0  0  0  0  0
   -6.7338    1.9400    0.1393 C   0  0  0  0  0  0  0  0  0  0  0  0
   -5.4877   -2.9297   -0.1907 H   0  0  0  0  0  0  0  0  0  0  0  0
   -3.0844   -3.0306   -0.2360 H   0  0  0  0  0  0  0  0  0  0  0  0
   -3.0187    2.4851    0.2248 H   0  0  0  0  0  0  0  0  0  0  0  0
   -0.9301   -1.9326   -0.1981 H   0  0  0  0  0  0  0  0  0  0  0  0
   -1.0793    3.5102    0.0767 H   0  0  0  0  0  0  0  0  0  0  0  0
   -0.3052    2.6999    1.4638 H   0  0  0  0  0  0  0  0  0  0  0  0
    0.6447    2.7550   -1.4687 H   0  0  0  0  0  0  0  0  0  0  0  0
    1.4296    3.5323   -0.0820 H   0  0  0  0  0  0  0  0  0  0  0  0
    3.5713    2.3118   -0.3638 H   0  0  0  0  0  0  0  0  0  0  0  0
    1.1378   -1.9768    0.3498 H   0  0  0  0  0  0  0  0  0  0  0  0
    5.4934   -1.8186   -0.9857 H   0  0  0  0  0  0  0  0  0  0  0  0
    5.7630   -1.7000    0.7733 H   0  0  0  0  0  0  0  0  0  0  0  0
   -7.5851   -2.3933   -1.0037 H   0  0  0  0  0  0  0  0  0  0  0  0
   -7.5497   -2.5040    0.8014 H   0  0  0  0  0  0  0  0  0  0  0  0
   -8.8060   -1.5739   -0.0235 H   0  0  0  0  0  0  0  0  0  0  0  0
   -7.2071    1.5833   -0.7815 H   0  0  0  0  0  0  0  0  0  0  0  0
   -7.1923    1.5123    1.0371 H   0  0  0  0  0  0  0  0  0  0  0  0
   -6.8956    3.0216    0.1805 H   0  0  0  0  0  0  0  0  0  0  0  0
  1  2  2  0  0  0  0
  1 26  1  0  0  0  0
  2  3  1  0  0  0  0
  2 22  1  0  0  0  0
  3  4  2  0  0  0  0
  3 24  1  0  0  0  0
  4  5  1  0  0  0  0
  4  7  1  0  0  0  0
  5  6  2  0  0  0  0
  6  1  1  0  0  0  0
  6 27  1  0  0  0  0
  7  8  2  0  0  0  0
  7 28  1  0  0  0  0
  8  9  1  0  0  0  0
  8 11  1  0  0  0  0
  9 10  2  0  0  0  0
 10  5  1  0  0  0  0
 10 29  1  0  0  0  0
 11 12  1  0  0  0  0
 11 30  1  0  0  0  0
 11 31  1  0  0  0  0
 12 13  1  0  0  0  0
 12 32  1  0  0  0  0
 12 33  1  0  0  0  0
 13 14  2  0  0  0  0
 13 15  1  0  0  0  0
 14  9  1  0  0  0  0
 15 16  2  0  0  0  0
 15 34  1  0  0  0  0
 16 17  1  0  0  0  0
 16 19  1  0  0  0  0
 17 18  2  0  0  0  0
 18 14  1  0  0  0  0
 18 35  1  0  0  0  0
 19 20  1  0  0  0  0
 20 21  1  0  0  0  0
 20 36  1  0  0  0  0
 20 37  1  0  0  0  0
 21 17  1  0  0  0  0
 22 23  1  0  0  0  0
 23 38  1  0  0  0  0
 23 39  1  0  0  0  0
 23 40  1  0  0  0  0
 24 25  1  0  0  0  0
 25 41  1  0  0  0  0
 25 42  1  0  0  0  0
 25 43  1  0  0  0  0
M  CHG  1   8   1
M  END
>  <Mol_ID>
668

>  <Formula>
C20H18ClNO4

>  <MolWeight>
371.81422

>  <Cat>
S2271

>  <Name>
Berberine chloride (NSC 646666)

>  <Synonyms>
Natural Yellow 18 chloride

>  <Target>
Anti-infection,Apoptosis related,Autophagy,Bcl-2,Caspase,IAP,JNK,p38 MAPK,P450 (e.g. CYP17),PARP,ROS,Topoisomerase

>  <Form>
chloride

>  <CAS>
633-65-8

>  <URL>
http://selleckchem.com/products/Berberine-Hydrochloride.html

$$$$
