Berberrubine
 OpenBabel08302521263D

 40 44  0  0  0  0  0  0  0  0999 V2000
    0.9861    1.3602    0.2798 N   0  3  0  0  0  0  0  0  0  0  0  0
    0.4355    0.1610   -0.0582 C   0  0  0  0  0  0  0  0  0  0  0  0
    3.2130    0.4319    0.2591 C   0  0  0  0  0  0  0  0  0  0  0  0
   -1.0378    0.1120   -0.1116 C   0  0  0  0  0  0  0  0  0  0  0  0
    2.3188    1.4850    0.4776 C   0  0  0  0  0  0  0  0  0  0  0  0
    1.2813   -0.9215   -0.3184 C   0  0  0  0  0  0  0  0  0  0  0  0
   -1.7682    1.3099   -0.3690 C   0  0  0  0  0  0  0  0  0  0  0  0
    4.6151    0.5364    0.4698 C   0  0  0  0  0  0  0  0  0  0  0  0
   -1.7615   -1.0636    0.1432 C   0  0  0  0  0  0  0  0  0  0  0  0
    2.6697   -0.7900   -0.1751 C   0  0  0  0  0  0  0  0  0  0  0  0
   -3.1408   -1.0056    0.1411 C   0  0  0  0  0  0  0  0  0  0  0  0
   -3.8242    0.1514   -0.1374 C   0  0  0  0  0  0  0  0  0  0  0  0
   -3.1674    1.3214   -0.4181 C   0  0  0  0  0  0  0  0  0  0  0  0
    0.1342    2.5653    0.4851 C   0  0  0  0  0  0  0  0  0  0  0  0
   -3.9764   -2.0406    0.4400 O   0  0  0  0  0  0  0  0  0  0  0  0
   -5.1681    0.0004   -0.0593 O   0  0  0  0  0  0  0  0  0  0  0  0
    5.4608   -0.5513    0.2178 C   0  0  0  0  0  0  0  0  0  0  0  0
   -5.2579   -1.3752    0.3999 C   0  0  0  0  0  0  0  0  0  0  0  0
   -0.9889    2.5824   -0.5394 C   0  0  0  0  0  0  0  0  0  0  0  0
    3.5203   -1.8713   -0.4294 C   0  0  0  0  0  0  0  0  0  0  0  0
    4.8976   -1.7457   -0.2415 C   0  0  0  0  0  0  0  0  0  0  0  0
    5.1312    1.6909    1.0013 O   0  0  0  0  0  0  0  0  0  0  0  0
    6.8182   -0.6311    0.3532 O   0  0  0  0  0  0  0  0  0  0  0  0
    7.5417    0.5101    0.7862 C   0  0  0  0  0  0  0  0  0  0  0  0
    2.6557    2.4575    0.8222 H   0  0  0  0  0  0  0  0  0  0  0  0
    0.8629   -1.8759   -0.6359 H   0  0  0  0  0  0  0  0  0  0  0  0
   -1.2815   -2.0093    0.3869 H   0  0  0  0  0  0  0  0  0  0  0  0
   -3.7352    2.2286   -0.6246 H   0  0  0  0  0  0  0  0  0  0  0  0
    0.7550    3.4592    0.3707 H   0  0  0  0  0  0  0  0  0  0  0  0
   -0.2316    2.5091    1.5169 H   0  0  0  0  0  0  0  0  0  0  0  0
   -5.6826   -1.3753    1.4122 H   0  0  0  0  0  0  0  0  0  0  0  0
   -5.9264   -1.9325   -0.2657 H   0  0  0  0  0  0  0  0  0  0  0  0
   -0.5931    2.6324   -1.5609 H   0  0  0  0  0  0  0  0  0  0  0  0
   -1.6221    3.4601   -0.3725 H   0  0  0  0  0  0  0  0  0  0  0  0
    3.1327   -2.8321   -0.7682 H   0  0  0  0  0  0  0  0  0  0  0  0
    5.5446   -2.5989   -0.4403 H   0  0  0  0  0  0  0  0  0  0  0  0
    4.7845    2.4767    0.5536 H   0  0  0  0  0  0  0  0  0  0  0  0
    7.4221    1.3451    0.0886 H   0  0  0  0  0  0  0  0  0  0  0  0
    7.2679    0.7868    1.8091 H   0  0  0  0  0  0  0  0  0  0  0  0
    8.6039    0.2459    0.7956 H   0  0  0  0  0  0  0  0  0  0  0  0
  2  1  2  0  0  0  0
  3  5  2  0  0  0  0
  4  2  1  0  0  0  0
  4  7  2  0  0  0  0
  5  1  1  0  0  0  0
  5 25  1  0  0  0  0
  6  2  1  0  0  0  0
  6 10  2  0  0  0  0
  6 26  1  0  0  0  0
  7 19  1  0  0  0  0
  8  3  1  0  0  0  0
  9  4  1  0  0  0  0
  9 27  1  0  0  0  0
 10  3  1  0  0  0  0
 11  9  2  0  0  0  0
 11 12  1  0  0  0  0
 12 13  2  0  0  0  0
 13  7  1  0  0  0  0
 13 28  1  0  0  0  0
 14  1  1  0  0  0  0
 14 29  1  0  0  0  0
 14 30  1  0  0  0  0
 15 11  1  0  0  0  0
 16 12  1  0  0  0  0
 16 18  1  0  0  0  0
 17  8  2  0  0  0  0
 18 15  1  0  0  0  0
 18 31  1  0  0  0  0
 18 32  1  0  0  0  0
 19 14  1  0  0  0  0
 19 33  1  0  0  0  0
 19 34  1  0  0  0  0
 20 10  1  0  0  0  0
 20 35  1  0  0  0  0
 21 20  2  0  0  0  0
 21 17  1  0  0  0  0
 21 36  1  0  0  0  0
 22  8  1  0  0  0  0
 22 37  1  0  0  0  0
 23 17  1  0  0  0  0
 24 23  1  0  0  0  0
 24 38  1  0  0  0  0
 24 39  1  0  0  0  0
 24 40  1  0  0  0  0
M  CHG  1   1   1
M  END
>  <Mol_ID>
5303

>  <Formula>
C19H16ClNO4

>  <MolWeight>
357.78764

>  <Cat>
S9237

>  <Name>
Berberrubine

>  <Synonyms>
Beroline, 9-Berberoline

>  <Target>
Immunology & Inflammation related

>  <Form>
Free Base

>  <CAS>
15401-69-1

>  <URL>
https://www.selleckchem.com/products/berberrubine.html

$$$$
