Bergapten.cdx
 OpenBabel08302522043D

 24 26  0  0  0  0  0  0  0  0999 V2000
   -2.9831    0.9623    0.0311 C   0  0  0  0  0  0  0  0  0  0  0  0
   -3.0231   -0.4987    0.0004 C   0  0  0  0  0  0  0  0  0  0  0  0
   -1.7976   -1.1329   -0.0020 O   0  0  0  0  0  0  0  0  0  0  0  0
   -0.5694   -0.4192   -0.0003 C   0  0  0  0  0  0  0  0  0  0  0  0
   -0.5233    0.9929    0.0031 C   0  0  0  0  0  0  0  0  0  0  0  0
   -1.8360    1.6497    0.0357 C   0  0  0  0  0  0  0  0  0  0  0  0
    0.5521   -1.2492   -0.0049 C   0  0  0  0  0  0  0  0  0  0  0  0
    1.7657   -0.5912   -0.0058 C   0  0  0  0  0  0  0  0  0  0  0  0
    1.9028    0.7896   -0.0130 C   0  0  0  0  0  0  0  0  0  0  0  0
    0.7510    1.6294   -0.0149 C   0  0  0  0  0  0  0  0  0  0  0  0
    2.9810   -1.2014   -0.0013 O   0  0  0  0  0  0  0  0  0  0  0  0
    3.9172   -0.2189   -0.0056 C   0  0  0  0  0  0  0  0  0  0  0  0
    3.3145    1.0162   -0.0171 C   0  0  0  0  0  0  0  0  0  0  0  0
    1.0718    2.9524   -0.0347 O   0  0  0  0  0  0  0  0  0  0  0  0
    0.0985    3.9740   -0.0462 C   0  0  0  0  0  0  0  0  0  0  0  0
   -4.0874   -1.1029   -0.0142 O   0  0  0  0  0  0  0  0  0  0  0  0
   -3.9450    1.4598    0.0558 H   0  0  0  0  0  0  0  0  0  0  0  0
   -1.9310    2.7203    0.0761 H   0  0  0  0  0  0  0  0  0  0  0  0
    0.4828   -2.3293   -0.0039 H   0  0  0  0  0  0  0  0  0  0  0  0
    4.9453   -0.5541    0.0016 H   0  0  0  0  0  0  0  0  0  0  0  0
    3.8196    1.9711   -0.0232 H   0  0  0  0  0  0  0  0  0  0  0  0
   -0.5429    3.9023   -0.9294 H   0  0  0  0  0  0  0  0  0  0  0  0
   -0.4641    3.9835    0.8922 H   0  0  0  0  0  0  0  0  0  0  0  0
    0.6162    4.9356   -0.1139 H   0  0  0  0  0  0  0  0  0  0  0  0
  1  2  1  0  0  0  0
  1 17  1  0  0  0  0
  2  3  1  0  0  0  0
  2 16  2  0  0  0  0
  3  4  1  0  0  0  0
  4  5  2  0  0  0  0
  4  7  1  0  0  0  0
  5  6  1  0  0  0  0
  6  1  2  0  0  0  0
  6 18  1  0  0  0  0
  7  8  2  0  0  0  0
  7 19  1  0  0  0  0
  8  9  1  0  0  0  0
  8 11  1  0  0  0  0
  9 10  2  0  0  0  0
 10  5  1  0  0  0  0
 10 14  1  0  0  0  0
 11 12  1  0  0  0  0
 12 13  2  0  0  0  0
 12 20  1  0  0  0  0
 13  9  1  0  0  0  0
 13 21  1  0  0  0  0
 14 15  1  0  0  0  0
 15 22  1  0  0  0  0
 15 23  1  0  0  0  0
 15 24  1  0  0  0  0
M  END
>  <Mol_ID>
1303

>  <Formula>
C12H8O4

>  <MolWeight>
216.18952

>  <Cat>
S4239

>  <Name>
Bergapten

>  <Synonyms>
N/A

>  <Target>
DNA/RNA Synthesis

>  <Form>
free base

>  <CAS>
484-20-8

>  <URL>
http://selleckchem.com/products/bergapten.html

$$$$
