Besifloxacin HCl.cdx
 OpenBabel08302521393D

 48 51  0  0  0  0  0  0  0  0999 V2000
    0.0290   -0.7043    0.1334 C   0  0  0  0  0  0  0  0  0  0  0  0
   -0.0050    0.6966    0.0594 C   0  0  0  0  0  0  0  0  0  0  0  0
    1.2547    1.4746    0.0047 C   0  0  0  0  0  0  0  0  0  0  0  0
    2.5350    0.7296    0.0773 C   0  0  0  0  0  0  0  0  0  0  0  0
    2.4476   -0.6111    0.1054 C   0  0  0  0  0  0  0  0  0  0  0  0
    1.2898   -1.3755    0.1383 N   0  0  0  0  0  0  0  0  0  0  0  0
   -1.2024   -1.3872    0.2220 C   0  0  0  0  0  0  0  0  0  0  0  0
   -2.4520   -0.7247    0.2523 C   0  0  0  0  0  0  0  0  0  0  0  0
   -2.4081    0.6780    0.1258 C   0  0  0  0  0  0  0  0  0  0  0  0
   -1.2171    1.3842    0.0259 C   0  0  0  0  0  0  0  0  0  0  0  0
    1.2039    2.6938   -0.1038 O   0  0  0  0  0  0  0  0  0  0  0  0
    3.8364    1.4187    0.0855 C   0  0  0  0  0  0  0  0  0  0  0  0
    4.0403    2.6214    0.0624 O   0  0  0  0  0  0  0  0  0  0  0  0
    4.8937    0.5785    0.1396 O   0  0  0  0  0  0  0  0  0  0  0  0
    1.4009   -2.7832   -0.3132 C   0  0  0  0  0  0  0  0  0  0  0  0
    1.0707   -3.9647    0.5626 C   0  0  0  0  0  0  0  0  0  0  0  0
    2.4931   -3.7071    0.1772 C   0  0  0  0  0  0  0  0  0  0  0  0
   -3.5372    1.4036    0.1595 F   0  0  0  0  0  0  0  0  0  0  0  0
   -3.6501   -1.4182    0.4159 N   0  0  0  0  0  0  0  0  0  0  0  0
   -3.7320   -2.6583    1.1929 C   0  0  0  0  0  0  0  0  0  0  0  0
   -4.4174   -2.3928    2.5296 C   0  0  0  0  0  0  0  0  0  0  0  0
   -5.9433   -2.4696    2.4935 C   0  0  0  0  0  0  0  0  0  0  0  0
   -6.6567   -1.9203    1.2545 C   0  0  0  0  0  0  0  0  0  0  0  0
   -6.0719   -0.6628    0.5918 C   0  0  2  0  0  0  0  0  0  0  0  0
   -4.8562   -1.0008   -0.3205 C   0  0  0  0  0  0  0  0  0  0  0  0
   -5.8558    0.4278    1.5515 N   0  0  0  0  0  0  0  0  0  0  0  0
    3.3528   -1.2133    0.1169 H   0  0  0  0  0  0  0  0  0  0  0  0
   -1.1818   -2.4712    0.2587 H   0  0  0  0  0  0  0  0  0  0  0  0
   -1.2488    2.4673   -0.0545 H   0  0  0  0  0  0  0  0  0  0  0  0
    5.6564    1.1949    0.1495 H   0  0  0  0  0  0  0  0  0  0  0  0
    1.1465   -2.8751   -1.3687 H   0  0  0  0  0  0  0  0  0  0  0  0
    0.7945   -3.7904    1.5948 H   0  0  0  0  0  0  0  0  0  0  0  0
    0.5796   -4.8163    0.1051 H   0  0  0  0  0  0  0  0  0  0  0  0
    2.9597   -4.3560   -0.5550 H   0  0  0  0  0  0  0  0  0  0  0  0
    3.1607   -3.3833    0.9670 H   0  0  0  0  0  0  0  0  0  0  0  0
   -4.2559   -3.4358    0.6241 H   0  0  0  0  0  0  0  0  0  0  0  0
   -2.7456   -3.0711    1.4200 H   0  0  0  0  0  0  0  0  0  0  0  0
   -4.0705   -3.1343    3.2603 H   0  0  0  0  0  0  0  0  0  0  0  0
   -4.1019   -1.4203    2.9281 H   0  0  0  0  0  0  0  0  0  0  0  0
   -6.2430   -3.5196    2.6086 H   0  0  0  0  0  0  0  0  0  0  0  0
   -6.3311   -1.9614    3.3857 H   0  0  0  0  0  0  0  0  0  0  0  0
   -6.7093   -2.7191    0.5026 H   0  0  0  0  0  0  0  0  0  0  0  0
   -7.7002   -1.7218    1.5340 H   0  0  0  0  0  0  0  0  0  0  0  0
   -6.8461   -0.2956   -0.0950 H   0  0  0  0  0  0  0  0  0  0  0  0
   -4.6623   -0.1480   -0.9818 H   0  0  0  0  0  0  0  0  0  0  0  0
   -5.1388   -1.8121   -1.0045 H   0  0  0  0  0  0  0  0  0  0  0  0
   -4.9791    0.8999    1.3032 H   0  0  0  0  0  0  0  0  0  0  0  0
   -5.6893    0.0616    2.4856 H   0  0  0  0  0  0  0  0  0  0  0  0
  1  2  2  0  0  0  0
  1  7  1  0  0  0  0
  2  3  1  0  0  0  0
  3  4  1  0  0  0  0
  3 11  2  0  0  0  0
  4  5  2  0  0  0  0
  4 12  1  0  0  0  0
  5  6  1  0  0  0  0
  5 27  1  0  0  0  0
  6  1  1  0  0  0  0
  6 15  1  0  0  0  0
  7  8  2  0  0  0  0
  7 28  1  0  0  0  0
  8  9  1  0  0  0  0
  8 19  1  0  0  0  0
  9 10  2  0  0  0  0
  9 18  1  0  0  0  0
 10  2  1  0  0  0  0
 10 29  1  0  0  0  0
 12 13  2  0  0  0  0
 12 14  1  0  0  0  0
 14 30  1  0  0  0  0
 15 16  1  0  0  0  0
 15 31  1  0  0  0  0
 16 17  1  0  0  0  0
 16 32  1  0  0  0  0
 16 33  1  0  0  0  0
 17 15  1  0  0  0  0
 17 34  1  0  0  0  0
 17 35  1  0  0  0  0
 19 20  1  0  0  0  0
 20 21  1  0  0  0  0
 20 36  1  0  0  0  0
 20 37  1  0  0  0  0
 21 22  1  0  0  0  0
 21 38  1  0  0  0  0
 21 39  1  0  0  0  0
 22 23  1  0  0  0  0
 22 40  1  0  0  0  0
 22 41  1  0  0  0  0
 23 24  1  0  0  0  0
 23 42  1  0  0  0  0
 23 43  1  0  0  0  0
 24 25  1  0  0  0  0
 24 44  1  6  0  0  0
 24 26  1  0  0  0  0
 25 19  1  0  0  0  0
 25 45  1  0  0  0  0
 25 46  1  0  0  0  0
 26 47  1  0  0  0  0
 26 48  1  0  0  0  0
M  END
>  <Mol_ID>
8190

>  <Formula>
C19H22Cl2FN3O3

>  <MolWeight>
430.3006832

>  <Cat>
S3055

>  <Name>
Besifloxacin HCl

>  <Synonyms>
N/A

>  <Target>
Antibiotics

>  <Form>
Hydrochloride

>  <CAS>
405165-61-9

>  <URL>
http://selleckchem.com/products/besifloxacin-hci.html

$$$$
