Besifovir
 OpenBabel08302521233D

 34 36  0  0  0  0  0  0  0  0999 V2000
    1.6508   -2.8901   -1.6185 N   0  0  0  0  0  0  0  0  0  0  0  0
    0.8952   -2.3383   -2.6188 C   0  0  0  0  0  0  0  0  0  0  0  0
    0.2485   -1.1598   -2.6139 N   0  0  0  0  0  0  0  0  0  0  0  0
    1.7442   -4.3246   -3.3202 N   0  0  0  0  0  0  0  0  0  0  0  0
    0.9788   -3.2409   -3.6669 C   0  0  0  0  0  0  0  0  0  0  0  0
    4.7895   -5.5756    1.4612 P   0  0  0  0  0  0  0  0  0  0  0  0
    2.1450   -4.0747   -2.0889 C   0  0  0  0  0  0  0  0  0  0  0  0
   -0.3187   -0.8923   -3.7970 C   0  0  0  0  0  0  0  0  0  0  0  0
    1.7049   -3.0252    0.8768 C   0  0  0  0  0  0  0  0  0  0  0  0
   -0.3358   -1.6894   -4.8839 N   0  0  0  0  0  0  0  0  0  0  0  0
    2.0032   -2.2279   -0.3740 C   0  0  0  0  0  0  0  0  0  0  0  0
    3.9866   -3.9435    1.2606 C   0  0  0  0  0  0  0  0  0  0  0  0
    0.2552   -3.3116    1.2273 C   0  0  0  0  0  0  0  0  0  0  0  0
    1.0400   -2.3295    2.0432 C   0  0  0  0  0  0  0  0  0  0  0  0
    0.3139   -2.8837   -4.8315 C   0  0  0  0  0  0  0  0  0  0  0  0
    4.2903   -5.6945    2.9037 O   0  0  0  0  0  0  0  0  0  0  0  0
    2.5601   -4.1564    1.1915 O   0  0  0  0  0  0  0  0  0  0  0  0
    3.6479   -6.3120    0.5431 O   0  0  0  0  0  0  0  0  0  0  0  0
    5.5485   -7.1186    1.6509 O   0  0  0  0  0  0  0  0  0  0  0  0
   -0.9636    0.3239   -3.9248 N   0  0  0  0  0  0  0  0  0  0  0  0
    2.8014   -4.7138   -1.5107 H   0  0  0  0  0  0  0  0  0  0  0  0
    3.0631   -1.9656   -0.4420 H   0  0  0  0  0  0  0  0  0  0  0  0
    1.4568   -1.2786   -0.3435 H   0  0  0  0  0  0  0  0  0  0  0  0
    4.3388   -3.5440    0.3066 H   0  0  0  0  0  0  0  0  0  0  0  0
    4.2406   -3.2517    2.0691 H   0  0  0  0  0  0  0  0  0  0  0  0
   -0.5248   -2.9391    0.5732 H   0  0  0  0  0  0  0  0  0  0  0  0
    0.0134   -4.2625    1.6915 H   0  0  0  0  0  0  0  0  0  0  0  0
    1.3152   -2.6154    3.0508 H   0  0  0  0  0  0  0  0  0  0  0  0
    0.7512   -1.2872    1.9505 H   0  0  0  0  0  0  0  0  0  0  0  0
    0.3099   -3.4941   -5.7258 H   0  0  0  0  0  0  0  0  0  0  0  0
    2.8153   -6.3711    1.0581 H   0  0  0  0  0  0  0  0  0  0  0  0
    5.0500   -7.5538    2.3712 H   0  0  0  0  0  0  0  0  0  0  0  0
   -1.2941    0.6492   -3.0294 H   0  0  0  0  0  0  0  0  0  0  0  0
   -1.6253    0.2862   -4.6867 H   0  0  0  0  0  0  0  0  0  0  0  0
  2  1  1  0  0  0  0
  3  2  2  0  0  0  0
  4  7  2  0  0  0  0
  5  2  1  0  0  0  0
  5  4  1  0  0  0  0
  6 12  1  0  0  0  0
  7  1  1  0  0  0  0
  7 21  1  0  0  0  0
  8  3  1  0  0  0  0
  9 11  1  0  0  0  0
 10  8  2  0  0  0  0
 10 15  1  0  0  0  0
 11  1  1  0  0  0  0
 11 22  1  0  0  0  0
 11 23  1  0  0  0  0
 12 17  1  0  0  0  0
 12 24  1  0  0  0  0
 12 25  1  0  0  0  0
 13  9  1  0  0  0  0
 13 14  1  0  0  0  0
 13 26  1  0  0  0  0
 13 27  1  0  0  0  0
 14  9  1  0  0  0  0
 14 28  1  0  0  0  0
 14 29  1  0  0  0  0
 15  5  2  0  0  0  0
 15 30  1  0  0  0  0
 16  6  2  0  0  0  0
 17  9  1  0  0  0  0
 18  6  1  0  0  0  0
 18 31  1  0  0  0  0
 19  6  1  0  0  0  0
 19 32  1  0  0  0  0
 20  8  1  0  0  0  0
 20 33  1  0  0  0  0
 20 34  1  0  0  0  0
M  END
>  <Mol_ID>
4777

>  <Formula>
C10H14N5O4P

>  <MolWeight>
299.223021

>  <Cat>
S6729

>  <Name>
Besifovir

>  <Synonyms>
N/A

>  <Target>
HBV

>  <Form>
Free Base

>  <CAS>
441785-25-7

>  <URL>
http://www.selleck.cn/products/besifovir.html

$$$$
