Bestatin (NK421)
 OpenBabel08302520393D

 46 46  0  0  0  0  0  0  0  0999 V2000
    1.8778    5.4412    4.7786 C   0  0  0  0  0  0  0  0  0  0  0  0
    2.7107    4.4828    5.3527 C   0  0  0  0  0  0  0  0  0  0  0  0
    3.0331    3.3275    4.6435 C   0  0  0  0  0  0  0  0  0  0  0  0
    2.4827    3.1078    3.3787 C   0  0  0  0  0  0  0  0  0  0  0  0
    1.6098    4.0492    2.8098 C   0  0  0  0  0  0  0  0  0  0  0  0
    1.3437    5.2332    3.5068 C   0  0  0  0  0  0  0  0  0  0  0  0
    0.9365    3.7780    1.4801 C   0  0  0  0  0  0  0  0  0  0  0  0
   -0.3991    2.9916    1.6070 C   0  0  2  0  0  0  0  0  0  0  0  0
   -0.9948    2.5714    0.2319 C   0  0  1  0  0  0  0  0  0  0  0  0
   -0.0351    1.7202   -0.6054 C   0  0  0  0  0  0  0  0  0  0  0  0
   -0.4957    1.4384   -1.8764 N   0  0  0  0  0  0  0  0  0  0  0  0
    0.3355    0.6465   -2.7656 C   0  0  1  0  0  0  0  0  0  0  0  0
   -0.5038   -0.2365   -3.6996 C   0  0  0  0  0  0  0  0  0  0  0  0
   -1.5118    0.4468   -4.6412 C   0  0  0  0  0  0  0  0  0  0  0  0
   -0.8536    1.4002   -5.6339 C   0  0  0  0  0  0  0  0  0  0  0  0
    1.0342    1.2795   -0.1937 O   0  0  0  0  0  0  0  0  0  0  0  0
   -2.2955   -0.6195   -5.4170 C   0  0  0  0  0  0  0  0  0  0  0  0
   -1.4465    3.7385    2.3508 N   0  0  0  0  0  0  0  0  0  0  0  0
   -2.1856    1.7811    0.4178 O   0  0  0  0  0  0  0  0  0  0  0  0
    1.3830    1.5468   -3.4318 C   0  0  0  0  0  0  0  0  0  0  0  0
    2.5484    0.9098   -3.7355 O   0  0  0  0  0  0  0  0  0  0  0  0
    1.2311    2.7319   -3.6724 O   0  0  0  0  0  0  0  0  0  0  0  0
    1.6383    6.3499    5.3235 H   0  0  0  0  0  0  0  0  0  0  0  0
    3.1124    4.6396    6.3503 H   0  0  0  0  0  0  0  0  0  0  0  0
    3.7064    2.5936    5.0802 H   0  0  0  0  0  0  0  0  0  0  0  0
    2.7402    2.1967    2.8412 H   0  0  0  0  0  0  0  0  0  0  0  0
    0.7053    5.9952    3.0665 H   0  0  0  0  0  0  0  0  0  0  0  0
    0.7838    4.7191    0.9386 H   0  0  0  0  0  0  0  0  0  0  0  0
    1.6618    3.2199    0.8798 H   0  0  0  0  0  0  0  0  0  0  0  0
   -0.2152    2.0841    2.1952 H   0  0  0  0  0  0  0  0  0  0  0  0
   -1.2879    3.4528   -0.3495 H   0  0  0  0  0  0  0  0  0  0  0  0
   -1.1710    2.0829   -2.2808 H   0  0  0  0  0  0  0  0  0  0  0  0
    0.8983   -0.0465   -2.1263 H   0  0  0  0  0  0  0  0  0  0  0  0
    0.1764   -0.8689   -4.2891 H   0  0  0  0  0  0  0  0  0  0  0  0
   -1.0726   -0.9255   -3.0583 H   0  0  0  0  0  0  0  0  0  0  0  0
   -2.2373    1.0127   -4.0445 H   0  0  0  0  0  0  0  0  0  0  0  0
    0.0582    0.9666   -6.0583 H   0  0  0  0  0  0  0  0  0  0  0  0
   -1.5273    1.6486   -6.4582 H   0  0  0  0  0  0  0  0  0  0  0  0
   -0.6036    2.3456   -5.1491 H   0  0  0  0  0  0  0  0  0  0  0  0
   -2.8504   -1.2729   -4.7353 H   0  0  0  0  0  0  0  0  0  0  0  0
   -3.0221   -0.1532   -6.0912 H   0  0  0  0  0  0  0  0  0  0  0  0
   -1.6275   -1.2434   -6.0205 H   0  0  0  0  0  0  0  0  0  0  0  0
   -1.0486    4.1395    3.2003 H   0  0  0  0  0  0  0  0  0  0  0  0
   -1.7922    4.5177    1.7916 H   0  0  0  0  0  0  0  0  0  0  0  0
   -2.0580    1.2780    1.2444 H   0  0  0  0  0  0  0  0  0  0  0  0
    2.6150    0.0057   -3.3585 H   0  0  0  0  0  0  0  0  0  0  0  0
  1  2  2  0  0  0  0
  1 23  1  0  0  0  0
  2  3  1  0  0  0  0
  2 24  1  0  0  0  0
  3  4  2  0  0  0  0
  3 25  1  0  0  0  0
  4  5  1  0  0  0  0
  4 26  1  0  0  0  0
  5  6  2  0  0  0  0
  5  7  1  0  0  0  0
  6  1  1  0  0  0  0
  6 27  1  0  0  0  0
  7 28  1  0  0  0  0
  7 29  1  0  0  0  0
  8 18  1  0  0  0  0
  8 30  1  1  0  0  0
  8  9  1  0  0  0  0
  8  7  1  0  0  0  0
  9 10  1  0  0  0  0
  9 19  1  0  0  0  0
  9 31  1  6  0  0  0
 10 11  1  0  0  0  0
 10 16  2  0  0  0  0
 11 12  1  0  0  0  0
 11 32  1  0  0  0  0
 12 13  1  0  0  0  0
 12 20  1  0  0  0  0
 12 33  1  1  0  0  0
 13 14  1  0  0  0  0
 13 34  1  0  0  0  0
 13 35  1  0  0  0  0
 14 15  1  0  0  0  0
 14 17  1  0  0  0  0
 14 36  1  0  0  0  0
 15 37  1  0  0  0  0
 15 38  1  0  0  0  0
 15 39  1  0  0  0  0
 17 40  1  0  0  0  0
 17 41  1  0  0  0  0
 17 42  1  0  0  0  0
 18 43  1  0  0  0  0
 18 44  1  0  0  0  0
 19 45  1  0  0  0  0
 20 21  1  0  0  0  0
 20 22  2  0  0  0  0
 21 46  1  0  0  0  0
M  END
>  <Mol_ID>
3683

>  <Formula>
C16H24N2O4

>  <MolWeight>
308.37276

>  <Cat>
S1591

>  <Name>
Bestatin (NK421)

>  <Synonyms>
Ubenimex,NK421

>  <Target>
Immunology & Inflammation related

>  <Form>
Free Base

>  <CAS>
58970-76-6

>  <URL>
http://www.selleck.cn/products/Ubenimex(Bestatin).html

$$$$
