Betaxolol hydrochloride.cdx
 OpenBabel08302521493D

 51 52  0  0  0  0  0  0  0  0999 V2000
    1.0103    0.2153    1.1838 C   0  0  0  0  0  0  0  0  0  0  0  0
    0.2810   -0.9795    1.1632 C   0  0  0  0  0  0  0  0  0  0  0  0
   -1.0464   -0.9712    0.7508 C   0  0  0  0  0  0  0  0  0  0  0  0
   -1.6773    0.2579    0.5387 C   0  0  0  0  0  0  0  0  0  0  0  0
   -0.9549    1.4537    0.5757 C   0  0  0  0  0  0  0  0  0  0  0  0
    0.4239    1.4281    0.7879 C   0  0  0  0  0  0  0  0  0  0  0  0
   -1.8036   -2.0602    0.4312 O   0  0  0  0  0  0  0  0  0  0  0  0
   -1.4063   -3.3606    0.8541 C   0  0  0  0  0  0  0  0  0  0  0  0
   -0.9210   -4.2815   -0.2867 C   0  0  3  0  0  0  0  0  0  0  0  0
    0.4295   -3.8647   -0.9180 C   0  0  0  0  0  0  0  0  0  0  0  0
    0.8891   -4.8888   -1.8781 N   0  0  0  0  0  0  0  0  0  0  0  0
    2.1689   -4.6228   -2.5264 C   0  0  0  0  0  0  0  0  0  0  0  0
    3.3557   -4.5819   -1.5631 C   0  0  0  0  0  0  0  0  0  0  0  0
    2.4140   -5.7170   -3.5731 C   0  0  0  0  0  0  0  0  0  0  0  0
   -0.7986   -5.6173    0.2488 O   0  0  0  0  0  0  0  0  0  0  0  0
    1.3326    2.6096    0.5091 C   0  0  0  0  0  0  0  0  0  0  0  0
    0.7526    3.7645   -0.3178 C   0  0  0  0  0  0  0  0  0  0  0  0
   -0.0500    4.6216    0.4992 O   0  0  0  0  0  0  0  0  0  0  0  0
   -0.6061    5.6859   -0.2707 C   0  0  0  0  0  0  0  0  0  0  0  0
   -1.4528    6.5367    0.6184 C   0  0  0  0  0  0  0  0  0  0  0  0
   -2.7342    6.0013    1.2089 C   0  0  0  0  0  0  0  0  0  0  0  0
   -2.7869    7.0526    0.1338 C   0  0  0  0  0  0  0  0  0  0  0  0
    2.0672    0.1830    1.4425 H   0  0  0  0  0  0  0  0  0  0  0  0
    0.8061   -1.8939    1.4083 H   0  0  0  0  0  0  0  0  0  0  0  0
   -2.7357    0.2849    0.2901 H   0  0  0  0  0  0  0  0  0  0  0  0
   -1.4763    2.3857    0.3705 H   0  0  0  0  0  0  0  0  0  0  0  0
   -0.7116   -3.3588    1.6997 H   0  0  0  0  0  0  0  0  0  0  0  0
   -2.3182   -3.8165    1.2612 H   0  0  0  0  0  0  0  0  0  0  0  0
   -1.6830   -4.3141   -1.0735 H   0  0  0  0  0  0  0  0  0  0  0  0
    0.3272   -2.8988   -1.4237 H   0  0  0  0  0  0  0  0  0  0  0  0
    1.1679   -3.7681   -0.1163 H   0  0  0  0  0  0  0  0  0  0  0  0
    0.8612   -5.8159   -1.4443 H   0  0  0  0  0  0  0  0  0  0  0  0
    2.1073   -3.6646   -3.0556 H   0  0  0  0  0  0  0  0  0  0  0  0
    3.4579   -5.5204   -1.0082 H   0  0  0  0  0  0  0  0  0  0  0  0
    4.2895   -4.4213   -2.1171 H   0  0  0  0  0  0  0  0  0  0  0  0
    3.2689   -3.7625   -0.8448 H   0  0  0  0  0  0  0  0  0  0  0  0
    1.6339   -5.7127   -4.3417 H   0  0  0  0  0  0  0  0  0  0  0  0
    3.3749   -5.5639   -4.0786 H   0  0  0  0  0  0  0  0  0  0  0  0
    2.4369   -6.7147   -3.1181 H   0  0  0  0  0  0  0  0  0  0  0  0
    0.0681   -5.6821    0.6831 H   0  0  0  0  0  0  0  0  0  0  0  0
    1.7561    2.9776    1.4445 H   0  0  0  0  0  0  0  0  0  0  0  0
    2.1568    2.2036   -0.1015 H   0  0  0  0  0  0  0  0  0  0  0  0
    1.5817    4.3591   -0.7182 H   0  0  0  0  0  0  0  0  0  0  0  0
    0.1629    3.3889   -1.1633 H   0  0  0  0  0  0  0  0  0  0  0  0
    0.2006    6.3000   -0.6921 H   0  0  0  0  0  0  0  0  0  0  0  0
   -1.1991    5.2703   -1.0922 H   0  0  0  0  0  0  0  0  0  0  0  0
   -0.8548    7.1809    1.2527 H   0  0  0  0  0  0  0  0  0  0  0  0
   -3.0253    4.9897    0.9571 H   0  0  0  0  0  0  0  0  0  0  0  0
   -2.9853    6.2964    2.2216 H   0  0  0  0  0  0  0  0  0  0  0  0
   -3.0806    8.0554    0.4197 H   0  0  0  0  0  0  0  0  0  0  0  0
   -3.1429    6.7513   -0.8454 H   0  0  0  0  0  0  0  0  0  0  0  0
  1  2  2  0  0  0  0
  1 23  1  0  0  0  0
  2  3  1  0  0  0  0
  2 24  1  0  0  0  0
  3  4  2  0  0  0  0
  3  7  1  0  0  0  0
  4  5  1  0  0  0  0
  4 25  1  0  0  0  0
  5  6  2  0  0  0  0
  5 26  1  0  0  0  0
  6  1  1  0  0  0  0
  6 16  1  0  0  0  0
  7  8  1  0  0  0  0
  8  9  1  0  0  0  0
  8 27  1  0  0  0  0
  8 28  1  0  0  0  0
  9 10  1  0  0  0  0
  9 15  1  0  0  0  0
  9 29  1  0  0  0  0
 10 11  1  0  0  0  0
 10 30  1  0  0  0  0
 10 31  1  0  0  0  0
 11 12  1  0  0  0  0
 11 32  1  0  0  0  0
 12 13  1  0  0  0  0
 12 14  1  0  0  0  0
 12 33  1  0  0  0  0
 13 34  1  0  0  0  0
 13 35  1  0  0  0  0
 13 36  1  0  0  0  0
 14 37  1  0  0  0  0
 14 38  1  0  0  0  0
 14 39  1  0  0  0  0
 15 40  1  0  0  0  0
 16 17  1  0  0  0  0
 16 41  1  0  0  0  0
 16 42  1  0  0  0  0
 17 18  1  0  0  0  0
 17 43  1  0  0  0  0
 17 44  1  0  0  0  0
 18 19  1  0  0  0  0
 19 20  1  0  0  0  0
 19 45  1  0  0  0  0
 19 46  1  0  0  0  0
 20 21  1  0  0  0  0
 20 47  1  0  0  0  0
 21 22  1  0  0  0  0
 21 48  1  0  0  0  0
 21 49  1  0  0  0  0
 22 20  1  0  0  0  0
 22 50  1  0  0  0  0
 22 51  1  0  0  0  0
M  END
>  <Mol_ID>
979

>  <Formula>
C18H30ClNO3

>  <MolWeight>
343.8887

>  <Cat>
S1827

>  <Name>
Betaxolol HCl

>  <Synonyms>
SL 75212 HCl

>  <Target>
Adrenergic Receptor

>  <Form>
Hydrochloride

>  <CAS>
63659-19-8

>  <URL>
http://selleckchem.com/products/betaxolol-hydrochloride-betoptic.html

$$$$
