Betazole Dihydrochloride
 OpenBabel08302520403D

 17 17  0  0  0  0  0  0  0  0999 V2000
   -0.3132    1.0754   -0.0243 C   0  0  0  0  0  0  0  0  0  0  0  0
   -0.8967    2.4513   -0.0074 C   0  0  0  0  0  0  0  0  0  0  0  0
   -0.5078    0.0400    0.9193 C   0  0  0  0  0  0  0  0  0  0  0  0
    0.5190    0.6970   -1.0022 N   0  0  0  0  0  0  0  0  0  0  0  0
   -1.7869    2.7301   -1.2234 C   0  0  0  0  0  0  0  0  0  0  0  0
    0.2576   -1.0065    0.4622 C   0  0  0  0  0  0  0  0  0  0  0  0
    0.8496   -0.5638   -0.6835 N   0  0  0  0  0  0  0  0  0  0  0  0
   -2.3987    4.0617   -1.1555 N   0  0  0  0  0  0  0  0  0  0  0  0
   -1.4859    2.5776    0.9093 H   0  0  0  0  0  0  0  0  0  0  0  0
   -0.0832    3.1862    0.0386 H   0  0  0  0  0  0  0  0  0  0  0  0
   -1.1159    0.0581    1.8127 H   0  0  0  0  0  0  0  0  0  0  0  0
   -1.2024    2.6617   -2.1485 H   0  0  0  0  0  0  0  0  0  0  0  0
   -2.5817    1.9776   -1.2868 H   0  0  0  0  0  0  0  0  0  0  0  0
    0.4344   -2.0008    0.8428 H   0  0  0  0  0  0  0  0  0  0  0  0
    1.4870   -1.0622   -1.2949 H   0  0  0  0  0  0  0  0  0  0  0  0
   -3.0782    4.1517   -1.9095 H   0  0  0  0  0  0  0  0  0  0  0  0
   -2.9189    4.1612   -0.2846 H   0  0  0  0  0  0  0  0  0  0  0  0
  1  2  1  0  0  0  0
  1  3  1  0  0  0  0
  1  4  2  0  0  0  0
  2  5  1  0  0  0  0
  2  9  1  0  0  0  0
  2 10  1  0  0  0  0
  3  6  2  0  0  0  0
  3 11  1  0  0  0  0
  4  7  1  0  0  0  0
  5  8  1  0  0  0  0
  5 12  1  0  0  0  0
  5 13  1  0  0  0  0
  6  7  1  0  0  0  0
  6 14  1  0  0  0  0
  7 15  1  0  0  0  0
  8 16  1  0  0  0  0
  8 17  1  0  0  0  0
M  END
>  <Mol_ID>
3858

>  <Formula>
C5H11Cl2N3

>  <MolWeight>
184.06694

>  <Cat>
S6612

>  <Name>
Betazole Dihydrochloride

>  <Synonyms>
Ametazole Dihydrochloride, 2-(3-Pyrazolyl)ethanamine Dihydrochloride

>  <Target>
Histamine Receptor

>  <Form>
Dihydrochloride

>  <CAS>
138-92-1

>  <URL>
http://www.selleck.cn/products/betazole-dihydrochloride.html

$$$$
