Betahistine dihydrochloride.cdx
 OpenBabel08302521573D

 22 22  0  0  0  0  0  0  0  0999 V2000
   -0.6778    1.1157   -0.0123 C   0  0  0  0  0  0  0  0  0  0  0  0
   -0.7750    0.1872    1.0235 C   0  0  0  0  0  0  0  0  0  0  0  0
    0.0443   -0.9387    1.0000 C   0  0  0  0  0  0  0  0  0  0  0  0
    0.9395   -1.1087   -0.0485 C   0  0  0  0  0  0  0  0  0  0  0  0
    0.9790   -0.1377   -1.0331 C   0  0  0  0  0  0  0  0  0  0  0  0
    0.1963    0.9633   -1.0367 N   0  0  0  0  0  0  0  0  0  0  0  0
   -2.4141    2.4453   -1.2626 C   0  0  0  0  0  0  0  0  0  0  0  0
   -1.5297    2.3615   -0.0124 C   0  0  0  0  0  0  0  0  0  0  0  0
   -3.2674    3.6430   -1.2176 N   0  0  0  0  0  0  0  0  0  0  0  0
   -4.0912    3.7380   -2.4161 C   0  0  0  0  0  0  0  0  0  0  0  0
   -1.4732    0.3337    1.8412 H   0  0  0  0  0  0  0  0  0  0  0  0
   -0.0153   -1.6762    1.7952 H   0  0  0  0  0  0  0  0  0  0  0  0
    1.5926   -1.9718   -0.0949 H   0  0  0  0  0  0  0  0  0  0  0  0
    1.6648   -0.2187   -1.8721 H   0  0  0  0  0  0  0  0  0  0  0  0
   -1.7836    2.4761   -2.1604 H   0  0  0  0  0  0  0  0  0  0  0  0
   -3.0402    1.5463   -1.3280 H   0  0  0  0  0  0  0  0  0  0  0  0
   -2.1593    2.3839    0.8864 H   0  0  0  0  0  0  0  0  0  0  0  0
   -0.8668    3.2338    0.0439 H   0  0  0  0  0  0  0  0  0  0  0  0
   -3.8704    3.6017   -0.3972 H   0  0  0  0  0  0  0  0  0  0  0  0
   -4.7144    2.8477   -2.5497 H   0  0  0  0  0  0  0  0  0  0  0  0
   -4.7567    4.6028   -2.3321 H   0  0  0  0  0  0  0  0  0  0  0  0
   -3.4752    3.8828   -3.3093 H   0  0  0  0  0  0  0  0  0  0  0  0
  1  2  2  0  0  0  0
  1  6  1  0  0  0  0
  1  8  1  0  0  0  0
  2  3  1  0  0  0  0
  2 11  1  0  0  0  0
  3  4  2  0  0  0  0
  3 12  1  0  0  0  0
  4  5  1  0  0  0  0
  4 13  1  0  0  0  0
  5  6  2  0  0  0  0
  5 14  1  0  0  0  0
  7  8  1  0  0  0  0
  7  9  1  0  0  0  0
  7 15  1  0  0  0  0
  7 16  1  0  0  0  0
  8 17  1  0  0  0  0
  8 18  1  0  0  0  0
  9 10  1  0  0  0  0
  9 19  1  0  0  0  0
 10 20  1  0  0  0  0
 10 21  1  0  0  0  0
 10 22  1  0  0  0  0
M  END
>  <Mol_ID>
992

>  <Formula>
C8H14Cl2N2

>  <MolWeight>
209.11616

>  <Cat>
S3176

>  <Name>
Betahistine 2HCl

>  <Synonyms>
PT-9

>  <Target>
Histamine Receptor

>  <Form>
2HCl

>  <CAS>
5579-84-0

>  <URL>
http://selleckchem.com/products/betahistine-dihydrochloride.html

$$$$
