Betamipron.cdx
 OpenBabel08302522043D

 25 25  0  0  0  0  0  0  0  0999 V2000
    1.1980   -0.3402    0.6770 C   0  0  0  0  0  0  0  0  0  0  0  0
    0.4846   -1.3458    0.0122 C   0  0  0  0  0  0  0  0  0  0  0  0
   -0.7228   -1.0315   -0.6259 C   0  0  0  0  0  0  0  0  0  0  0  0
   -1.2207    0.2740   -0.5723 C   0  0  0  0  0  0  0  0  0  0  0  0
   -0.5134    1.2662    0.1070 C   0  0  0  0  0  0  0  0  0  0  0  0
    0.6970    0.9615    0.7278 C   0  0  0  0  0  0  0  0  0  0  0  0
    1.0655   -2.7164   -0.0176 C   0  0  0  0  0  0  0  0  0  0  0  0
    0.1731   -3.7610   -0.1273 N   0  0  0  0  0  0  0  0  0  0  0  0
    2.2777   -2.8805    0.0775 O   0  0  0  0  0  0  0  0  0  0  0  0
    0.6230   -5.1366   -0.1700 C   0  0  0  0  0  0  0  0  0  0  0  0
   -0.3417   -6.0388   -0.9165 C   0  0  0  0  0  0  0  0  0  0  0  0
   -0.4909   -5.5961   -2.3470 C   0  0  0  0  0  0  0  0  0  0  0  0
    0.3940   -6.1624   -3.1946 O   0  0  0  0  0  0  0  0  0  0  0  0
   -1.3318   -4.7886   -2.7164 O   0  0  0  0  0  0  0  0  0  0  0  0
    2.1474   -0.5715    1.1561 H   0  0  0  0  0  0  0  0  0  0  0  0
   -1.2713   -1.7772   -1.1956 H   0  0  0  0  0  0  0  0  0  0  0  0
   -2.1536    0.5202   -1.0731 H   0  0  0  0  0  0  0  0  0  0  0  0
   -0.9011    2.2819    0.1401 H   0  0  0  0  0  0  0  0  0  0  0  0
    1.2552    1.7369    1.2469 H   0  0  0  0  0  0  0  0  0  0  0  0
   -0.8172   -3.5721   -0.0275 H   0  0  0  0  0  0  0  0  0  0  0  0
    1.6183   -5.1795   -0.6272 H   0  0  0  0  0  0  0  0  0  0  0  0
    0.7207   -5.4742    0.8678 H   0  0  0  0  0  0  0  0  0  0  0  0
   -0.0073   -7.0817   -0.8874 H   0  0  0  0  0  0  0  0  0  0  0  0
   -1.3363   -6.0206   -0.4552 H   0  0  0  0  0  0  0  0  0  0  0  0
    1.0349   -6.7672   -2.7761 H   0  0  0  0  0  0  0  0  0  0  0  0
  1  2  2  0  0  0  0
  1 15  1  0  0  0  0
  2  3  1  0  0  0  0
  2  7  1  0  0  0  0
  3  4  2  0  0  0  0
  3 16  1  0  0  0  0
  4  5  1  0  0  0  0
  4 17  1  0  0  0  0
  5  6  2  0  0  0  0
  5 18  1  0  0  0  0
  6  1  1  0  0  0  0
  6 19  1  0  0  0  0
  7  8  1  0  0  0  0
  7  9  2  0  0  0  0
  8 10  1  0  0  0  0
  8 20  1  0  0  0  0
 10 11  1  0  0  0  0
 10 21  1  0  0  0  0
 10 22  1  0  0  0  0
 11 12  1  0  0  0  0
 11 23  1  0  0  0  0
 11 24  1  0  0  0  0
 12 13  1  0  0  0  0
 12 14  2  0  0  0  0
 13 25  1  0  0  0  0
M  END
>  <Mol_ID>
1268

>  <Formula>
C10H11NO3

>  <MolWeight>
193.19924

>  <Cat>
S4191

>  <Name>
Betamipron

>  <Synonyms>
CS-443,N-Benzoyl-¦Â-alanine

>  <Target>
Anti-infection

>  <Form>
free base

>  <CAS>
3440-28-6

>  <URL>
http://selleckchem.com/products/betamipron.html

$$$$
