Beta-Eudesmol
 OpenBabel08302521533D

 42 43  0  0  1  0  0  0  0  0999 V2000
    1.3495   -0.2125   -1.5924 C   0  0  0  0  0  0  0  0  0  0  0  0
   -1.2890   -0.3637    0.9952 C   0  0  0  0  0  0  0  0  0  0  0  0
    1.4322    4.2726    0.1124 C   0  0  0  0  0  0  0  0  0  0  0  0
    0.4823    4.8787    1.1527 C   0  0  0  0  0  0  0  0  0  0  0  0
    2.6122    5.2371   -0.0933 C   0  0  0  0  0  0  0  0  0  0  0  0
    0.7193    4.1953   -1.1296 O   0  0  0  0  0  0  0  0  0  0  0  0
    1.1554    0.3819    0.8992 C   0  0  1  0  0  0  0  0  0  0  0  0
    2.0911   -0.1239   -0.2352 C   0  0  2  0  0  0  0  0  0  0  0  0
    0.7213    1.8487    0.6747 C   0  0  0  0  0  0  0  0  0  0  0  0
    0.0258   -0.6266    1.1109 C   0  0  0  0  0  0  0  0  0  0  0  0
    3.2978    0.8284   -0.3694 C   0  0  0  0  0  0  0  0  0  0  0  0
    2.6377   -1.5258    0.1531 C   0  0  0  0  0  0  0  0  0  0  0  0
    1.9087    2.8281    0.4966 C   0  0  1  0  0  0  0  0  0  0  0  0
    0.5023   -2.0287    1.4414 C   0  0  0  0  0  0  0  0  0  0  0  0
    2.9221    2.2943   -0.5377 C   0  0  0  0  0  0  0  0  0  0  0  0
    1.5385   -2.5478    0.4423 C   0  0  0  0  0  0  0  0  0  0  0  0
    2.0189   -0.5805   -2.3790 H   0  0  0  0  0  0  0  0  0  0  0  0
    0.4925   -0.8899   -1.5582 H   0  0  0  0  0  0  0  0  0  0  0  0
    0.9668    0.7601   -1.9186 H   0  0  0  0  0  0  0  0  0  0  0  0
   -1.6665    0.6220    0.7418 H   0  0  0  0  0  0  0  0  0  0  0  0
   -2.0345   -1.1414    1.1336 H   0  0  0  0  0  0  0  0  0  0  0  0
    0.9417    4.9158    2.1451 H   0  0  0  0  0  0  0  0  0  0  0  0
    0.2013    5.9010    0.8690 H   0  0  0  0  0  0  0  0  0  0  0  0
   -0.4596    4.3248    1.2131 H   0  0  0  0  0  0  0  0  0  0  0  0
    3.2282    4.9470   -0.9510 H   0  0  0  0  0  0  0  0  0  0  0  0
    2.2546    6.2469   -0.3263 H   0  0  0  0  0  0  0  0  0  0  0  0
    3.2450    5.2932    0.7978 H   0  0  0  0  0  0  0  0  0  0  0  0
    0.4509    5.0955   -1.3799 H   0  0  0  0  0  0  0  0  0  0  0  0
    1.7329    0.3850    1.8376 H   0  0  0  0  0  0  0  0  0  0  0  0
    0.0562    1.9142   -0.1954 H   0  0  0  0  0  0  0  0  0  0  0  0
    0.1319    2.1642    1.5402 H   0  0  0  0  0  0  0  0  0  0  0  0
    3.9133    0.5257   -1.2268 H   0  0  0  0  0  0  0  0  0  0  0  0
    3.9420    0.7361    0.5138 H   0  0  0  0  0  0  0  0  0  0  0  0
    3.2639   -1.4358    1.0518 H   0  0  0  0  0  0  0  0  0  0  0  0
    3.2922   -1.9111   -0.6385 H   0  0  0  0  0  0  0  0  0  0  0  0
    2.4280    2.8881    1.4638 H   0  0  0  0  0  0  0  0  0  0  0  0
   -0.3328   -2.7385    1.4719 H   0  0  0  0  0  0  0  0  0  0  0  0
    0.9411   -2.0201    2.4472 H   0  0  0  0  0  0  0  0  0  0  0  0
    2.5451    2.4521   -1.5537 H   0  0  0  0  0  0  0  0  0  0  0  0
    3.8525    2.8708   -0.4617 H   0  0  0  0  0  0  0  0  0  0  0  0
    1.9958   -3.4637    0.8371 H   0  0  0  0  0  0  0  0  0  0  0  0
    1.0440   -2.8339   -0.4934 H   0  0  0  0  0  0  0  0  0  0  0  0
  1 17  1  0  0  0  0
  1 18  1  0  0  0  0
  1 19  1  0  0  0  0
  2 10  2  0  0  0  0
  2 20  1  0  0  0  0
  2 21  1  0  0  0  0
  3  4  1  0  0  0  0
  3  5  1  0  0  0  0
  3  6  1  0  0  0  0
  4 22  1  0  0  0  0
  4 23  1  0  0  0  0
  4 24  1  0  0  0  0
  5 25  1  0  0  0  0
  5 26  1  0  0  0  0
  5 27  1  0  0  0  0
  6 28  1  0  0  0  0
  7  8  1  0  0  0  0
  7  9  1  0  0  0  0
  7 10  1  0  0  0  0
  7 29  1  1  0  0  0
  8  1  1  6  0  0  0
  8 11  1  0  0  0  0
  8 12  1  0  0  0  0
  9 13  1  0  0  0  0
  9 30  1  0  0  0  0
  9 31  1  0  0  0  0
 10 14  1  0  0  0  0
 11 15  1  0  0  0  0
 11 32  1  0  0  0  0
 11 33  1  0  0  0  0
 12 16  1  0  0  0  0
 12 34  1  0  0  0  0
 12 35  1  0  0  0  0
 13  3  1  0  0  0  0
 13 15  1  0  0  0  0
 13 36  1  1  0  0  0
 14 16  1  0  0  0  0
 14 37  1  0  0  0  0
 14 38  1  0  0  0  0
 15 39  1  0  0  0  0
 15 40  1  0  0  0  0
 16 41  1  0  0  0  0
 16 42  1  0  0  0  0
M  END
>  <Mol_ID>
9979

>  <Formula>
C15H26O

>  <MolWeight>
222.36634

>  <Cat>
E5335

>  <Name>
Beta-Eudesmol

>  <Synonyms>
NA

>  <Target>
nAChR

>  <Form>
Free Base

>  <CAS>
473-15-4

>  <URL>
https://www.selleckchem.com/products/beta-eudesmol.html

$$$$
