BETAPAR (meprednisone).cdx
 OpenBabel08302520433D

 55 58  0  0  0  0  0  0  0  0999 V2000
    4.2835    2.9380    1.8877 C   0  0  0  0  0  0  0  0  0  0  0  0
    5.3058    2.6607    0.8640 C   0  0  0  0  0  0  0  0  0  0  0  0
    4.8508    1.9254   -0.3353 C   0  0  0  0  0  0  0  0  0  0  0  0
    3.5406    1.7713   -0.6197 C   0  0  0  0  0  0  0  0  0  0  0  0
    2.4550    2.5124    0.1798 C   0  0  2  0  0  0  0  0  0  0  0  0
    2.9885    2.8742    1.5691 C   0  0  0  0  0  0  0  0  0  0  0  0
    3.1716    0.6841   -1.5932 C   0  0  0  0  0  0  0  0  0  0  0  0
    1.7152    0.5054   -1.9654 C   0  0  0  0  0  0  0  0  0  0  0  0
    0.6706    0.9538   -0.9359 C   0  0  2  0  0  0  0  0  0  0  0  0
    1.2722    1.5540    0.3583 C   0  0  2  0  0  0  0  0  0  0  0  0
   -0.2406   -0.1922   -0.4488 C   0  0  1  0  0  0  0  0  0  0  0  0
   -1.4192    0.2624    0.4742 C   0  0  2  0  0  0  0  0  0  0  0  0
   -0.8580    1.0498    1.6719 C   0  0  0  0  0  0  0  0  0  0  0  0
    0.0889    2.1071    1.1497 C   0  0  0  0  0  0  0  0  0  0  0  0
   -0.9411   -1.1165   -1.4272 C   0  0  0  0  0  0  0  0  0  0  0  0
   -1.7173   -2.0247   -0.4454 C   0  0  1  0  0  0  0  0  0  0  0  0
   -2.0592   -1.1321    0.8137 C   0  0  1  0  0  0  0  0  0  0  0  0
    6.4895    2.9274    1.0463 O   0  0  0  0  0  0  0  0  0  0  0  0
    2.0810    3.8209   -0.5452 C   0  0  0  0  0  0  0  0  0  0  0  0
   -0.1337    3.3007    1.3273 O   0  0  0  0  0  0  0  0  0  0  0  0
   -2.4326    1.1797   -0.2723 C   0  0  0  0  0  0  0  0  0  0  0  0
   -2.7903   -2.8272   -1.1565 C   0  0  0  0  0  0  0  0  0  0  0  0
   -1.3178   -1.7088    1.9091 O   0  0  0  0  0  0  0  0  0  0  0  0
   -3.5237   -1.0044    1.3007 C   0  0  0  0  0  0  0  0  0  0  0  0
   -3.7309   -0.6400    2.7781 C   0  0  0  0  0  0  0  0  0  0  0  0
   -5.0861   -0.3568    3.0924 O   0  0  0  0  0  0  0  0  0  0  0  0
   -4.5019   -1.1579    0.5672 O   0  0  0  0  0  0  0  0  0  0  0  0
    4.6341    3.1955    2.8814 H   0  0  0  0  0  0  0  0  0  0  0  0
    5.6364    1.4192   -0.8863 H   0  0  0  0  0  0  0  0  0  0  0  0
    2.2646    3.1063    2.3485 H   0  0  0  0  0  0  0  0  0  0  0  0
    3.7647    0.8006   -2.5088 H   0  0  0  0  0  0  0  0  0  0  0  0
    3.5068   -0.2571   -1.1346 H   0  0  0  0  0  0  0  0  0  0  0  0
    1.5293    1.0469   -2.9027 H   0  0  0  0  0  0  0  0  0  0  0  0
    1.5827   -0.5489   -2.2283 H   0  0  0  0  0  0  0  0  0  0  0  0
    0.0522    1.7061   -1.4400 H   0  0  0  0  0  0  0  0  0  0  0  0
    1.6580    0.7225    0.9727 H   0  0  0  0  0  0  0  0  0  0  0  0
    0.4246   -0.8450    0.1414 H   0  0  0  0  0  0  0  0  0  0  0  0
   -1.6439    1.5466    2.2488 H   0  0  0  0  0  0  0  0  0  0  0  0
   -0.2860    0.4258    2.3655 H   0  0  0  0  0  0  0  0  0  0  0  0
   -0.2457   -1.7089   -2.0288 H   0  0  0  0  0  0  0  0  0  0  0  0
   -1.6023   -0.5812   -2.1158 H   0  0  0  0  0  0  0  0  0  0  0  0
   -0.9799   -2.7753   -0.1171 H   0  0  0  0  0  0  0  0  0  0  0  0
    1.3613    3.6598   -1.3508 H   0  0  0  0  0  0  0  0  0  0  0  0
    2.9575    4.3033   -0.9895 H   0  0  0  0  0  0  0  0  0  0  0  0
    1.6481    4.5585    0.1391 H   0  0  0  0  0  0  0  0  0  0  0  0
   -3.0435    0.6333   -0.9972 H   0  0  0  0  0  0  0  0  0  0  0  0
   -1.9422    1.9944   -0.8129 H   0  0  0  0  0  0  0  0  0  0  0  0
   -3.1263    1.6510    0.4341 H   0  0  0  0  0  0  0  0  0  0  0  0
   -2.4116   -3.1807   -2.1240 H   0  0  0  0  0  0  0  0  0  0  0  0
   -3.0492   -3.7159   -0.5718 H   0  0  0  0  0  0  0  0  0  0  0  0
   -3.6945   -2.2547   -1.3617 H   0  0  0  0  0  0  0  0  0  0  0  0
   -1.5995   -2.6374    2.0090 H   0  0  0  0  0  0  0  0  0  0  0  0
   -3.1493    0.2423    3.0353 H   0  0  0  0  0  0  0  0  0  0  0  0
   -3.4087   -1.4798    3.3996 H   0  0  0  0  0  0  0  0  0  0  0  0
   -5.6286   -0.8091    2.4164 H   0  0  0  0  0  0  0  0  0  0  0  0
  1  2  1  0  0  0  0
  1 28  1  0  0  0  0
  2  3  1  0  0  0  0
  2 18  2  0  0  0  0
  3  4  2  0  0  0  0
  3 29  1  0  0  0  0
  4  5  1  0  0  0  0
  4  7  1  0  0  0  0
  5  6  1  0  0  0  0
  5 19  1  6  0  0  0
  6  1  2  0  0  0  0
  6 30  1  0  0  0  0
  7  8  1  0  0  0  0
  7 31  1  0  0  0  0
  7 32  1  0  0  0  0
  8 33  1  0  0  0  0
  8 34  1  0  0  0  0
  9  8  1  0  0  0  0
  9 10  1  0  0  0  0
  9 11  1  0  0  0  0
  9 35  1  6  0  0  0
 10  5  1  0  0  0  0
 10 14  1  0  0  0  0
 10 36  1  1  0  0  0
 11 12  1  0  0  0  0
 11 15  1  0  0  0  0
 11 37  1  1  0  0  0
 12 13  1  0  0  0  0
 12 21  1  6  0  0  0
 13 14  1  0  0  0  0
 13 38  1  0  0  0  0
 13 39  1  0  0  0  0
 14 20  2  0  0  0  0
 15 16  1  0  0  0  0
 15 40  1  0  0  0  0
 15 41  1  0  0  0  0
 16 17  1  0  0  0  0
 16 22  1  0  0  0  0
 16 42  1  1  0  0  0
 17 12  1  0  0  0  0
 17 23  1  1  0  0  0
 17 24  1  0  0  0  0
 19 43  1  0  0  0  0
 19 44  1  0  0  0  0
 19 45  1  0  0  0  0
 21 46  1  0  0  0  0
 21 47  1  0  0  0  0
 21 48  1  0  0  0  0
 22 49  1  0  0  0  0
 22 50  1  0  0  0  0
 22 51  1  0  0  0  0
 23 52  1  0  0  0  0
 24 25  1  0  0  0  0
 24 27  2  0  0  0  0
 25 26  1  0  0  0  0
 25 53  1  0  0  0  0
 25 54  1  0  0  0  0
 26 55  1  0  0  0  0
M  END
>  <Mol_ID>
392

>  <Formula>
C22H28O5

>  <MolWeight>
372.45472

>  <Cat>
S1689

>  <Name>
Meprednisone

>  <Synonyms>
NSC 527579, SCH 4358

>  <Target>
Glucocorticoid Receptor

>  <Form>
free base

>  <CAS>
1247-42-3

>  <URL>
http://selleckchem.com/products/Betapar(Meprednisone).html

$$$$
