BETATREX (betamethasone valerate).cdx
 OpenBabel08302521212D

 71 74  0  0  0  0  0  0  0  0999 V2000
    1.2082    2.1000    0.0000 C   0  0  0  0  0  0  0  0  0  0  0  0
    1.2082    0.7000    0.0000 C   0  0  0  0  0  0  0  0  0  0  0  0
    2.4207    0.0000    0.0000 C   0  0  0  0  0  0  0  0  0  0  0  0
    3.6331    0.7000    0.0000 C   0  0  0  0  0  0  0  0  0  0  0  0
    3.6331    2.1000    0.0000 C   0  0  2  0  0  0  0  0  0  0  0  0
    2.4207    2.8000    0.0000 C   0  0  0  0  0  0  0  0  0  0  0  0
    4.8455    0.0000    0.0000 C   0  0  0  0  0  0  0  0  0  0  0  0
    6.0580    0.7000    0.0000 C   0  0  0  0  0  0  0  0  0  0  0  0
    6.0580    2.1000    0.0000 C   0  0  2  0  0  0  0  0  0  0  0  0
    4.8455    2.8000    0.0000 C   0  0  2  0  0  0  0  0  0  0  0  0
    7.2704    2.8000    0.0000 C   0  0  1  0  0  0  0  0  0  0  0  0
    7.2704    4.2000    0.0000 C   0  0  2  0  0  0  0  0  0  0  0  0
    6.0580    4.9000    0.0000 C   0  0  0  0  0  0  0  0  0  0  0  0
    4.8455    4.2000    0.0000 C   0  0  2  0  0  0  0  0  0  0  0  0
    8.6019    2.3674    0.0000 C   0  0  0  0  0  0  0  0  0  0  0  0
    9.4248    3.5000    0.0000 C   0  0  1  0  0  0  0  0  0  0  0  0
    8.6019    4.6326    0.0000 C   0  0  2  0  0  0  0  0  0  0  0  0
    0.0000    0.0024    0.0000 O   0  0  0  0  0  0  0  0  0  0  0  0
    3.6331    3.5000    0.0000 C   0  0  0  0  0  0  0  0  0  0  0  0
    3.6373    4.8976    0.0000 O   0  0  0  0  0  0  0  0  0  0  0  0
    7.2704    5.6000    0.0000 C   0  0  0  0  0  0  0  0  0  0  0  0
   10.8199    3.5000    0.0000 C   0  0  0  0  0  0  0  0  0  0  0  0
    8.2395    5.9849    0.0000 C   0  0  0  0  0  0  0  0  0  0  0  0
    7.2496    6.9749    0.0000 O   0  0  0  0  0  0  0  0  0  0  0  0
    9.2295    6.9749    0.0000 C   0  0  0  0  0  0  0  0  0  0  0  0
   10.5771    6.6138    0.0000 O   0  0  0  0  0  0  0  0  0  0  0  0
    9.8143    5.3326    0.0000 O   0  0  0  0  0  0  0  0  0  0  0  0
   11.2143    5.3326    0.0000 C   0  0  0  0  0  0  0  0  0  0  0  0
   11.9119    4.1244    0.0000 O   0  0  0  0  0  0  0  0  0  0  0  0
   12.2043    6.3226    0.0000 C   0  0  0  0  0  0  0  0  0  0  0  0
   13.6043    6.3226    0.0000 C   0  0  0  0  0  0  0  0  0  0  0  0
    4.8455    1.4000    0.0000 F   0  0  0  0  0  0  0  0  0  0  0  0
   14.5942    7.3125    0.0000 C   0  0  0  0  0  0  0  0  0  0  0  0
   15.9942    7.3125    0.0000 C   0  0  0  0  0  0  0  0  0  0  0  0
    0.3145    2.6160    0.0000 H   0  0  0  0  0  0  0  0  0  0  0  0
    2.4207   -1.0320    0.0000 H   0  0  0  0  0  0  0  0  0  0  0  0
    2.4207    3.8320    0.0000 H   0  0  0  0  0  0  0  0  0  0  0  0
    4.8455   -1.0700    0.0000 H   0  0  0  0  0  0  0  0  0  0  0  0
    5.7721   -0.5350    0.0000 H   0  0  0  0  0  0  0  0  0  0  0  0
    6.9846    0.1650    0.0000 H   0  0  0  0  0  0  0  0  0  0  0  0
    6.9847    1.2350    0.0000 H   0  0  0  0  0  0  0  0  0  0  0  0
    5.1314    1.5650    0.0000 H   0  0  0  0  0  0  0  0  0  0  0  0
    7.3823    1.7359    0.0000 H   0  0  0  0  0  0  0  0  0  0  0  0
    6.0580    5.9700    0.0000 H   0  0  0  0  0  0  0  0  0  0  0  0
    5.1314    5.4350    0.0000 H   0  0  0  0  0  0  0  0  0  0  0  0
    4.8455    5.2700    0.0000 H   0  0  0  0  0  0  0  0  0  0  0  0
    8.9326    1.3498    0.0000 H   0  0  0  0  0  0  0  0  0  0  0  0
    9.6587    2.2000    0.0000 H   0  0  0  0  0  0  0  0  0  0  0  0
    9.9106    2.5466    0.0000 H   0  0  0  0  0  0  0  0  0  0  0  0
    4.5597    4.0350    0.0000 H   0  0  0  0  0  0  0  0  0  0  0  0
    2.7065    4.0350    0.0000 H   0  0  0  0  0  0  0  0  0  0  0  0
    3.6331    4.5700    0.0000 H   0  0  0  0  0  0  0  0  0  0  0  0
    3.6373    5.8676    0.0000 H   0  0  0  0  0  0  0  0  0  0  0  0
    8.1970    6.1350    0.0000 H   0  0  0  0  0  0  0  0  0  0  0  0
    6.3438    6.1350    0.0000 H   0  0  0  0  0  0  0  0  0  0  0  0
    7.2704    6.6700    0.0000 H   0  0  0  0  0  0  0  0  0  0  0  0
   11.3549    2.5734    0.0000 H   0  0  0  0  0  0  0  0  0  0  0  0
   11.3549    4.4266    0.0000 H   0  0  0  0  0  0  0  0  0  0  0  0
   11.8899    3.5000    0.0000 H   0  0  0  0  0  0  0  0  0  0  0  0
    8.9526    8.0084    0.0000 H   0  0  0  0  0  0  0  0  0  0  0  0
    9.9861    7.7315    0.0000 H   0  0  0  0  0  0  0  0  0  0  0  0
   10.8281    5.6768    0.0000 H   0  0  0  0  0  0  0  0  0  0  0  0
   11.7948    7.3112    0.0000 H   0  0  0  0  0  0  0  0  0  0  0  0
   12.7988    7.2123    0.0000 H   0  0  0  0  0  0  0  0  0  0  0  0
   14.0138    5.3340    0.0000 H   0  0  0  0  0  0  0  0  0  0  0  0
   14.6537    6.1139    0.0000 H   0  0  0  0  0  0  0  0  0  0  0  0
   14.1847    8.3011    0.0000 H   0  0  0  0  0  0  0  0  0  0  0  0
   15.1887    8.2022    0.0000 H   0  0  0  0  0  0  0  0  0  0  0  0
   16.5292    6.3859    0.0000 H   0  0  0  0  0  0  0  0  0  0  0  0
   16.5292    8.2391    0.0000 H   0  0  0  0  0  0  0  0  0  0  0  0
   17.0642    7.3125    0.0000 H   0  0  0  0  0  0  0  0  0  0  0  0
  1  2  1  0  0  0  0
  1 35  1  0  0  0  0
  2  3  1  0  0  0  0
  2 18  2  0  0  0  0
  3  4  2  0  0  0  0
  3 36  1  0  0  0  0
  4  5  1  0  0  0  0
  4  7  1  0  0  0  0
  5  6  1  0  0  0  0
  5 19  1  1  0  0  0
  6  1  2  0  0  0  0
  6 37  1  0  0  0  0
  7  8  1  0  0  0  0
  7 38  1  0  0  0  0
  7 39  1  0  0  0  0
  8 40  1  0  0  0  0
  8 41  1  0  0  0  0
  9  8  1  0  0  0  0
  9 10  1  0  0  0  0
  9 11  1  0  0  0  0
  9 42  1  1  0  0  0
 10  5  1  0  0  0  0
 10 32  1  6  0  0  0
 11 12  1  0  0  0  0
 11 15  1  0  0  0  0
 11 43  1  6  0  0  0
 12 13  1  0  0  0  0
 12 21  1  1  0  0  0
 13 14  1  0  0  0  0
 13 44  1  0  0  0  0
 13 45  1  0  0  0  0
 14 10  1  0  0  0  0
 14 20  1  0  0  0  0
 14 46  1  6  0  0  0
 15 16  1  0  0  0  0
 15 47  1  0  0  0  0
 15 48  1  0  0  0  0
 16 17  1  0  0  0  0
 16 22  1  0  0  0  0
 16 49  1  6  0  0  0
 17 12  1  0  0  0  0
 17 23  1  1  0  0  0
 17 27  1  0  0  0  0
 19 50  1  0  0  0  0
 19 51  1  0  0  0  0
 19 52  1  0  0  0  0
 20 53  1  0  0  0  0
 21 54  1  0  0  0  0
 21 55  1  0  0  0  0
 21 56  1  0  0  0  0
 22 57  1  0  0  0  0
 22 58  1  0  0  0  0
 22 59  1  0  0  0  0
 23 24  2  0  0  0  0
 23 25  1  0  0  0  0
 25 26  1  0  0  0  0
 25 60  1  0  0  0  0
 25 61  1  0  0  0  0
 26 62  1  0  0  0  0
 27 28  1  0  0  0  0
 28 29  2  0  0  0  0
 28 30  1  0  0  0  0
 30 31  1  0  0  0  0
 30 63  1  0  0  0  0
 30 64  1  0  0  0  0
 31 33  1  0  0  0  0
 31 65  1  0  0  0  0
 31 66  1  0  0  0  0
 33 34  1  0  0  0  0
 33 67  1  0  0  0  0
 33 68  1  0  0  0  0
 34 69  1  0  0  0  0
 34 70  1  0  0  0  0
 34 71  1  0  0  0  0
M  END
>  <Mol_ID>
393

>  <Formula>
C27H37FO6

>  <MolWeight>
476.5774832

>  <Cat>
S1690

>  <Name>
Betamethasone Valerate

>  <Synonyms>
N/A

>  <Target>
Glucocorticoid Receptor

>  <Form>
free base

>  <CAS>
2152-44-5

>  <URL>
http://selleckchem.com/products/Betamethasone-valerate(Betnovate).html

$$$$
