Bexagliflozin (EGT1442)
 OpenBabel08302521313D

 61 64  0  0  0  0  0  0  0  0999 V2000
    1.6106    0.0729   -0.4928 O   0  0  0  0  0  0  0  0  0  0  0  0
    7.6382   -5.5374   -1.8831 O   0  0  0  0  0  0  0  0  0  0  0  0
   -1.0878    1.7773   -3.1843 O   0  0  0  0  0  0  0  0  0  0  0  0
    0.1074    3.4199   -1.1309 O   0  0  0  0  0  0  0  0  0  0  0  0
   -1.2434   -1.0429   -2.5513 O   0  0  0  0  0  0  0  0  0  0  0  0
    1.5458   -2.6686    0.1700 O   0  0  0  0  0  0  0  0  0  0  0  0
    6.0453   -3.4872   -0.6410 O   0  0  0  0  0  0  0  0  0  0  0  0
   -0.5619    1.2367   -1.9650 C   0  0  2  0  0  0  0  0  0  0  0  0
    0.5974    2.1045   -1.4327 C   0  0  2  0  0  0  0  0  0  0  0  0
   -0.1359   -0.2246   -2.1661 C   0  0  1  0  0  0  0  0  0  0  0  0
    8.8887   -5.8014   -2.5564 C   0  0  0  0  0  0  0  0  0  0  0  0
    1.2390    1.4307   -0.1958 C   0  0  2  0  0  0  0  0  0  0  0  0
    0.4962   -0.7497   -0.8738 C   0  0  1  0  0  0  0  0  0  0  0  0
    9.8895   -6.6673   -1.8505 C   0  0  0  0  0  0  0  0  0  0  0  0
   10.0968   -5.1813   -1.9157 C   0  0  0  0  0  0  0  0  0  0  0  0
    2.4630    2.1820    0.3181 C   0  0  0  0  0  0  0  0  0  0  0  0
    0.9995   -2.1872   -1.0532 C   0  0  0  0  0  0  0  0  0  0  0  0
    3.7699    1.8356   -0.0808 C   0  0  0  0  0  0  0  0  0  0  0  0
    2.3066    3.2434    1.2179 C   0  0  0  0  0  0  0  0  0  0  0  0
    6.8229   -4.6310   -2.6400 C   0  0  0  0  0  0  0  0  0  0  0  0
    4.9084    2.4894    0.4379 C   0  0  0  0  0  0  0  0  0  0  0  0
    3.4190    3.9277    1.7118 C   0  0  0  0  0  0  0  0  0  0  0  0
    6.3291    2.1035    0.0348 C   0  0  0  0  0  0  0  0  0  0  0  0
    4.7099    3.5520    1.3279 C   0  0  0  0  0  0  0  0  0  0  0  0
    5.6225   -4.1332   -1.8411 C   0  0  0  0  0  0  0  0  0  0  0  0
    6.5206    0.6248   -0.2296 C   0  0  0  0  0  0  0  0  0  0  0  0
    6.2832   -2.1452   -0.6333 C   0  0  0  0  0  0  0  0  0  0  0  0
    6.3711    0.1037   -1.5225 C   0  0  0  0  0  0  0  0  0  0  0  0
    6.6939   -0.2611    0.8385 C   0  0  0  0  0  0  0  0  0  0  0  0
    6.2389   -1.2772   -1.7231 C   0  0  0  0  0  0  0  0  0  0  0  0
    6.5730   -1.6341    0.6320 C   0  0  0  0  0  0  0  0  0  0  0  0
   -0.3531    1.8940   -3.8087 H   0  0  0  0  0  0  0  0  0  0  0  0
   -0.7563    3.3428   -0.6907 H   0  0  0  0  0  0  0  0  0  0  0  0
   -2.0491   -0.7189   -2.1104 H   0  0  0  0  0  0  0  0  0  0  0  0
    2.2197   -2.0227    0.4408 H   0  0  0  0  0  0  0  0  0  0  0  0
   -1.4033    1.2752   -1.2617 H   0  0  0  0  0  0  0  0  0  0  0  0
    1.3435    2.2254   -2.2274 H   0  0  0  0  0  0  0  0  0  0  0  0
    0.5880   -0.2700   -2.9876 H   0  0  0  0  0  0  0  0  0  0  0  0
    8.8700   -5.8944   -3.6384 H   0  0  0  0  0  0  0  0  0  0  0  0
    0.5110    1.4054    0.6265 H   0  0  0  0  0  0  0  0  0  0  0  0
   -0.2327   -0.7488   -0.0526 H   0  0  0  0  0  0  0  0  0  0  0  0
    9.6223   -7.1031   -0.8964 H   0  0  0  0  0  0  0  0  0  0  0  0
   10.5445   -7.2833   -2.4568 H   0  0  0  0  0  0  0  0  0  0  0  0
   10.8616   -4.7909   -2.5765 H   0  0  0  0  0  0  0  0  0  0  0  0
    9.9741   -4.6240   -0.9943 H   0  0  0  0  0  0  0  0  0  0  0  0
    0.1913   -2.8622   -1.3498 H   0  0  0  0  0  0  0  0  0  0  0  0
    1.7968   -2.2388   -1.8016 H   0  0  0  0  0  0  0  0  0  0  0  0
    3.8946    1.0172   -0.7871 H   0  0  0  0  0  0  0  0  0  0  0  0
    1.3123    3.5600    1.5312 H   0  0  0  0  0  0  0  0  0  0  0  0
    6.4684   -5.1627   -3.5291 H   0  0  0  0  0  0  0  0  0  0  0  0
    7.4384   -3.7827   -2.9514 H   0  0  0  0  0  0  0  0  0  0  0  0
    3.2844    4.7558    2.4046 H   0  0  0  0  0  0  0  0  0  0  0  0
    6.6139    2.6867   -0.8513 H   0  0  0  0  0  0  0  0  0  0  0  0
    7.0291    2.3978    0.8296 H   0  0  0  0  0  0  0  0  0  0  0  0
    5.5608    4.0942    1.7374 H   0  0  0  0  0  0  0  0  0  0  0  0
    5.0100   -4.9888   -1.5331 H   0  0  0  0  0  0  0  0  0  0  0  0
    4.9688   -3.4975   -2.4510 H   0  0  0  0  0  0  0  0  0  0  0  0
    6.2856    0.7748   -2.3750 H   0  0  0  0  0  0  0  0  0  0  0  0
    6.8632    0.1107    1.8461 H   0  0  0  0  0  0  0  0  0  0  0  0
    6.0679   -1.6291   -2.7325 H   0  0  0  0  0  0  0  0  0  0  0  0
    6.6571   -2.3150    1.4754 H   0  0  0  0  0  0  0  0  0  0  0  0
  1 12  1  0  0  0  0
  1 13  1  0  0  0  0
  2 11  1  0  0  0  0
  2 20  1  0  0  0  0
  3 32  1  0  0  0  0
  4 33  1  0  0  0  0
  5 34  1  0  0  0  0
  6 17  1  0  0  0  0
  6 35  1  0  0  0  0
  7 25  1  0  0  0  0
  7 27  1  0  0  0  0
  8  3  1  0  0  0  0
  8  9  1  0  0  0  0
  8 10  1  0  0  0  0
  8 36  1  1  0  0  0
  9  4  1  0  0  0  0
  9 12  1  0  0  0  0
  9 37  1  6  0  0  0
 10  5  1  0  0  0  0
 10 13  1  0  0  0  0
 10 38  1  6  0  0  0
 11 14  1  0  0  0  0
 11 15  1  0  0  0  0
 11 39  1  0  0  0  0
 12 16  1  0  0  0  0
 12 40  1  1  0  0  0
 13 17  1  0  0  0  0
 13 41  1  1  0  0  0
 14 15  1  0  0  0  0
 14 42  1  0  0  0  0
 14 43  1  0  0  0  0
 15 44  1  0  0  0  0
 15 45  1  0  0  0  0
 16 18  2  0  0  0  0
 16 19  1  0  0  0  0
 17 46  1  0  0  0  0
 17 47  1  0  0  0  0
 18 21  1  0  0  0  0
 18 48  1  0  0  0  0
 19 22  2  0  0  0  0
 19 49  1  0  0  0  0
 20 25  1  0  0  0  0
 20 50  1  0  0  0  0
 20 51  1  0  0  0  0
 21 23  1  0  0  0  0
 21 24  2  0  0  0  0
 22 24  1  0  0  0  0
 22 52  1  0  0  0  0
 23 26  1  0  0  0  0
 23 53  1  0  0  0  0
 23 54  1  0  0  0  0
 24 55  1  0  0  0  0
 25 56  1  0  0  0  0
 25 57  1  0  0  0  0
 26 28  2  0  0  0  0
 26 29  1  0  0  0  0
 27 30  2  0  0  0  0
 27 31  1  0  0  0  0
 28 30  1  0  0  0  0
 28 58  1  0  0  0  0
 29 31  2  0  0  0  0
 29 59  1  0  0  0  0
 30 60  1  0  0  0  0
 31 61  1  0  0  0  0
M  END
>  <Mol_ID>
6085

>  <Formula>
C24H29ClO7

>  <MolWeight>
464.93586

>  <Cat>
E0141

>  <Name>
Bexagliflozin (EGT1442)

>  <Synonyms>
EGT-0001442, THR-1442

>  <Target>
SGLT

>  <Form>
Free Base

>  <CAS>
1118567-05-7

>  <URL>
http://www.selleckchem.com/products/bexgliflozin-egt1442.html

$$$$
