Bezuclastinib
 OpenBabel08302521353D

 42 45  0  0  0  0  0  0  0  0999 V2000
    1.3914    0.6892    0.9918 N   0  0  0  0  0  0  0  0  0  0  0  0
    2.4359    0.1057    1.6647 C   0  0  0  0  0  0  0  0  0  0  0  0
    2.3211   -0.9138    2.3407 O   0  0  0  0  0  0  0  0  0  0  0  0
    4.8480    0.0868    3.7506 C   0  0  0  0  0  0  0  0  0  0  0  0
    7.1362    1.9642    2.3452 C   0  0  0  0  0  0  0  0  0  0  0  0
   -0.6567   -1.5006   -0.9522 C   0  0  0  0  0  0  0  0  0  0  0  0
   -1.6890   -0.5921   -1.1317 C   0  0  0  0  0  0  0  0  0  0  0  0
   -0.6814   -2.3697   -2.0815 C   0  0  0  0  0  0  0  0  0  0  0  0
    0.2618   -1.2624    0.0834 C   0  0  0  0  0  0  0  0  0  0  0  0
   -2.3111   -0.8971   -2.3065 N   0  0  0  0  0  0  0  0  0  0  0  0
   -1.9599    0.5066   -0.4080 N   0  0  0  0  0  0  0  0  0  0  0  0
   -1.5196   -1.7758   -3.0244 C   0  0  0  0  0  0  0  0  0  0  0  0
    0.2113    0.0371    0.6012 C   0  0  0  0  0  0  0  0  0  0  0  0
   -0.9263    0.8183    0.4018 C   0  0  0  0  0  0  0  0  0  0  0  0
   -1.4954   -1.8229   -4.4961 C   0  0  0  0  0  0  0  0  0  0  0  0
   -0.5836   -2.6513   -5.1670 C   0  0  0  0  0  0  0  0  0  0  0  0
   -2.2610   -0.9318   -5.2671 C   0  0  0  0  0  0  0  0  0  0  0  0
   -0.4285   -2.5787   -6.5556 C   0  0  0  0  0  0  0  0  0  0  0  0
   -2.1033   -0.8550   -6.6543 C   0  0  0  0  0  0  0  0  0  0  0  0
   -1.1825   -1.6746   -7.2976 C   0  0  0  0  0  0  0  0  0  0  0  0
    3.6991    0.8605    1.5524 C   0  0  0  0  0  0  0  0  0  0  0  0
    4.7976    0.8164    2.4582 C   0  0  0  0  0  0  0  0  0  0  0  0
    3.9436    1.7138    0.5282 N   0  0  0  0  0  0  0  0  0  0  0  0
    5.7644    1.6235    1.8881 C   0  0  0  0  0  0  0  0  0  0  0  0
    5.2047    2.1181    0.7416 N   0  0  0  0  0  0  0  0  0  0  0  0
    1.5992    1.5766    0.5393 H   0  0  0  0  0  0  0  0  0  0  0  0
    5.8765   -0.1415    4.0371 H   0  0  0  0  0  0  0  0  0  0  0  0
    4.3975    0.7048    4.5338 H   0  0  0  0  0  0  0  0  0  0  0  0
    4.3096   -0.8623    3.7085 H   0  0  0  0  0  0  0  0  0  0  0  0
    7.1051    2.8261    3.0188 H   0  0  0  0  0  0  0  0  0  0  0  0
    7.5842    1.1220    2.8853 H   0  0  0  0  0  0  0  0  0  0  0  0
    7.7915    2.2003    1.5050 H   0  0  0  0  0  0  0  0  0  0  0  0
    0.0659   -3.1247   -2.2902 H   0  0  0  0  0  0  0  0  0  0  0  0
    1.1267   -1.9052    0.2068 H   0  0  0  0  0  0  0  0  0  0  0  0
   -3.0228   -0.2973   -2.6881 H   0  0  0  0  0  0  0  0  0  0  0  0
   -1.0113    1.7899    0.8815 H   0  0  0  0  0  0  0  0  0  0  0  0
    0.0500   -3.3417   -4.6168 H   0  0  0  0  0  0  0  0  0  0  0  0
   -2.9663   -0.2458   -4.8088 H   0  0  0  0  0  0  0  0  0  0  0  0
    0.2995   -3.2146   -7.0524 H   0  0  0  0  0  0  0  0  0  0  0  0
   -2.6858   -0.1367   -7.2255 H   0  0  0  0  0  0  0  0  0  0  0  0
   -1.0455   -1.6009   -8.3730 H   0  0  0  0  0  0  0  0  0  0  0  0
    5.6479    2.7279    0.0560 H   0  0  0  0  0  0  0  0  0  0  0  0
  1  2  1  0  0  0  0
  1 13  1  0  0  0  0
  1 26  1  0  0  0  0
  2  3  2  0  0  0  0
  2 21  1  0  0  0  0
  4 22  1  0  0  0  0
  4 27  1  0  0  0  0
  4 28  1  0  0  0  0
  4 29  1  0  0  0  0
  5 24  1  0  0  0  0
  5 30  1  0  0  0  0
  5 31  1  0  0  0  0
  5 32  1  0  0  0  0
  6  7  2  0  0  0  0
  6  8  1  0  0  0  0
  6  9  1  0  0  0  0
  7 10  1  0  0  0  0
  7 11  1  0  0  0  0
  8 12  2  0  0  0  0
  8 33  1  0  0  0  0
  9 13  2  0  0  0  0
  9 34  1  0  0  0  0
 10 12  1  0  0  0  0
 10 35  1  0  0  0  0
 11 14  2  0  0  0  0
 12 15  1  0  0  0  0
 13 14  1  0  0  0  0
 14 36  1  0  0  0  0
 15 16  2  0  0  0  0
 15 17  1  0  0  0  0
 16 18  1  0  0  0  0
 16 37  1  0  0  0  0
 17 19  2  0  0  0  0
 17 38  1  0  0  0  0
 18 20  2  0  0  0  0
 18 39  1  0  0  0  0
 19 20  1  0  0  0  0
 19 40  1  0  0  0  0
 20 41  1  0  0  0  0
 21 22  1  0  0  0  0
 21 23  2  0  0  0  0
 22 24  2  0  0  0  0
 23 25  1  0  0  0  0
 24 25  1  0  0  0  0
 25 42  1  0  0  0  0
M  END
>  <Mol_ID>
6943

>  <Formula>
C19H17N5O

>  <MolWeight>
331.37118

>  <Cat>
E1509

>  <Name>
Bezuclastinib

>  <Synonyms>
CGT9486, PLX 9486

>  <Target>
c-Kit

>  <Form>
free base

>  <CAS>
1616385-51-3

>  <URL>
https://www.selleckchem.com/products/bezuclastinib.html

$$$$
