BG45.cdx
 OpenBabel08302519593D

 26 27  0  0  0  0  0  0  0  0999 V2000
   -4.8242   -2.1349   -2.6862 C   0  0  0  0  0  0  0  0  0  0  0  0
   -4.2772   -3.3591   -2.3219 C   0  0  0  0  0  0  0  0  0  0  0  0
   -3.1948   -3.4726   -1.5111 N   0  0  0  0  0  0  0  0  0  0  0  0
   -2.6777   -2.2826   -1.0894 C   0  0  0  0  0  0  0  0  0  0  0  0
   -3.2259   -1.0583   -1.4548 C   0  0  0  0  0  0  0  0  0  0  0  0
   -4.3135   -0.9580   -2.2613 N   0  0  0  0  0  0  0  0  0  0  0  0
   -1.4936   -2.3100   -0.1859 C   0  0  0  0  0  0  0  0  0  0  0  0
   -1.0474   -3.5746    0.1513 N   0  0  0  0  0  0  0  0  0  0  0  0
    0.0453   -3.8981    0.9921 C   0  0  0  0  0  0  0  0  0  0  0  0
    1.0014   -2.9495    1.3758 C   0  0  0  0  0  0  0  0  0  0  0  0
    2.0987   -3.3129    2.1595 C   0  0  0  0  0  0  0  0  0  0  0  0
    2.2596   -4.6332    2.5605 C   0  0  0  0  0  0  0  0  0  0  0  0
    1.3145   -5.5894    2.1875 C   0  0  0  0  0  0  0  0  0  0  0  0
    0.1765   -5.2290    1.4481 C   0  0  0  0  0  0  0  0  0  0  0  0
   -1.0363   -1.2401    0.2062 O   0  0  0  0  0  0  0  0  0  0  0  0
   -0.7146   -6.2465    1.0353 N   0  0  0  0  0  0  0  0  0  0  0  0
   -5.6937   -2.0663   -3.3316 H   0  0  0  0  0  0  0  0  0  0  0  0
   -4.7061   -4.2876   -2.6829 H   0  0  0  0  0  0  0  0  0  0  0  0
   -2.8102   -0.1183   -1.1059 H   0  0  0  0  0  0  0  0  0  0  0  0
   -1.5656   -4.3520   -0.2463 H   0  0  0  0  0  0  0  0  0  0  0  0
    0.9423   -1.9172    1.0469 H   0  0  0  0  0  0  0  0  0  0  0  0
    2.8360   -2.5626    2.4338 H   0  0  0  0  0  0  0  0  0  0  0  0
    3.1235   -4.9199    3.1542 H   0  0  0  0  0  0  0  0  0  0  0  0
    1.4652   -6.6197    2.4987 H   0  0  0  0  0  0  0  0  0  0  0  0
   -0.6643   -7.0661    1.6354 H   0  0  0  0  0  0  0  0  0  0  0  0
   -1.6701   -5.9150    0.9638 H   0  0  0  0  0  0  0  0  0  0  0  0
  1  2  2  0  0  0  0
  1 17  1  0  0  0  0
  2  3  1  0  0  0  0
  2 18  1  0  0  0  0
  3  4  2  0  0  0  0
  4  5  1  0  0  0  0
  4  7  1  0  0  0  0
  5  6  2  0  0  0  0
  5 19  1  0  0  0  0
  6  1  1  0  0  0  0
  7  8  1  0  0  0  0
  7 15  2  0  0  0  0
  8  9  1  0  0  0  0
  8 20  1  0  0  0  0
  9 10  2  0  0  0  0
 10 11  1  0  0  0  0
 10 21  1  0  0  0  0
 11 12  2  0  0  0  0
 11 22  1  0  0  0  0
 12 13  1  0  0  0  0
 12 23  1  0  0  0  0
 13 14  2  0  0  0  0
 13 24  1  0  0  0  0
 14  9  1  0  0  0  0
 14 16  1  0  0  0  0
 16 25  1  0  0  0  0
 16 26  1  0  0  0  0
M  END
>  <Mol_ID>
2599

>  <Formula>
C11H10N4O

>  <MolWeight>
214.2233

>  <Cat>
S7689

>  <Name>
BG45

>  <Synonyms>
N/A

>  <Target>
HDAC

>  <Form>
free base

>  <CAS>
926259-99-6

>  <URL>
http://selleckchem.com/products/bg45.html

$$$$
