BGB-3111.cdx
 OpenBabel08302520433D

 57 60  0  0  0  0  0  0  0  0999 V2000
    1.5132   -0.2710    0.2680 C   0  0  0  0  0  0  0  0  0  0  0  0
    0.5589   -1.2188   -0.1264 C   0  0  0  0  0  0  0  0  0  0  0  0
   -0.7777   -0.8661   -0.3030 C   0  0  0  0  0  0  0  0  0  0  0  0
   -1.2281    0.3967    0.0721 C   0  0  0  0  0  0  0  0  0  0  0  0
   -0.3038    1.3221    0.5710 C   0  0  0  0  0  0  0  0  0  0  0  0
    1.0596    0.9965    0.6591 C   0  0  0  0  0  0  0  0  0  0  0  0
    2.9423   -0.5750    0.1075 C   0  0  0  0  0  0  0  0  0  0  0  0
   -2.5248    0.8436   -0.0800 O   0  0  0  0  0  0  0  0  0  0  0  0
   -3.5780   -0.0457   -0.1219 C   0  0  0  0  0  0  0  0  0  0  0  0
   -3.6409   -1.2253    0.6253 C   0  0  0  0  0  0  0  0  0  0  0  0
   -4.7435   -2.0739    0.5134 C   0  0  0  0  0  0  0  0  0  0  0  0
   -5.8217   -1.7145   -0.2922 C   0  0  0  0  0  0  0  0  0  0  0  0
   -5.7950   -0.5078   -0.9903 C   0  0  0  0  0  0  0  0  0  0  0  0
   -4.6730    0.3225   -0.9096 C   0  0  0  0  0  0  0  0  0  0  0  0
    3.5492   -1.2970   -0.9838 C   0  0  0  0  0  0  0  0  0  0  0  0
    4.8831   -1.3781   -0.6441 C   0  0  0  0  0  0  0  0  0  0  0  0
    5.0365   -0.7127    0.5510 N   0  0  0  0  0  0  0  0  0  0  0  0
    3.8645   -0.2090    1.0224 N   0  0  0  0  0  0  0  0  0  0  0  0
    5.8952   -1.9677   -1.3283 N   0  0  0  0  0  0  0  0  0  0  0  0
    2.9955   -1.9047   -2.1825 C   0  0  0  0  0  0  0  0  0  0  0  0
    3.4871   -2.8993   -2.7137 O   0  0  0  0  0  0  0  0  0  0  0  0
    1.8924   -1.3328   -2.7447 N   0  0  0  0  0  0  0  0  0  0  0  0
    6.2925   -0.5966    1.2926 C   0  0  2  0  0  0  0  0  0  0  0  0
    6.1789   -0.5407    2.8244 C   0  0  0  0  0  0  0  0  0  0  0  0
    5.8583    0.8515    3.3658 C   0  0  0  0  0  0  0  0  0  0  0  0
    6.7026    1.9587    2.7353 C   0  0  0  0  0  0  0  0  0  0  0  0
    6.7502    1.8539    1.2764 N   0  0  0  0  0  0  0  0  0  0  0  0
    7.1775    0.5454    0.7772 C   0  0  0  0  0  0  0  0  0  0  0  0
    6.5544    2.8651    0.3447 C   0  0  0  0  0  0  0  0  0  0  0  0
    6.7173    2.6870   -0.8648 O   0  0  0  0  0  0  0  0  0  0  0  0
    6.1429    4.2108    0.8327 C   0  0  0  0  0  0  0  0  0  0  0  0
    5.8871    5.1991   -0.0367 C   0  0  0  0  0  0  0  0  0  0  0  0
    0.8645   -2.2289   -0.3871 H   0  0  0  0  0  0  0  0  0  0  0  0
   -1.4405   -1.5962   -0.7587 H   0  0  0  0  0  0  0  0  0  0  0  0
   -0.6397    2.3161    0.8582 H   0  0  0  0  0  0  0  0  0  0  0  0
    1.7715    1.7513    1.0005 H   0  0  0  0  0  0  0  0  0  0  0  0
   -2.8318   -1.5069    1.2927 H   0  0  0  0  0  0  0  0  0  0  0  0
   -4.7614   -3.0106    1.0642 H   0  0  0  0  0  0  0  0  0  0  0  0
   -6.6873   -2.3683   -0.3632 H   0  0  0  0  0  0  0  0  0  0  0  0
   -6.6491   -0.2138   -1.5956 H   0  0  0  0  0  0  0  0  0  0  0  0
   -4.6591    1.2602   -1.4592 H   0  0  0  0  0  0  0  0  0  0  0  0
    6.7102   -2.3548   -0.8686 H   0  0  0  0  0  0  0  0  0  0  0  0
    5.6219   -2.5378   -2.1363 H   0  0  0  0  0  0  0  0  0  0  0  0
    1.4789   -0.4728   -2.4133 H   0  0  0  0  0  0  0  0  0  0  0  0
    1.5001   -1.7843   -3.5576 H   0  0  0  0  0  0  0  0  0  0  0  0
    6.8185   -1.5368    1.0802 H   0  0  0  0  0  0  0  0  0  0  0  0
    5.4443   -1.2671    3.1902 H   0  0  0  0  0  0  0  0  0  0  0  0
    7.1485   -0.8463    3.2428 H   0  0  0  0  0  0  0  0  0  0  0  0
    4.7983    1.0701    3.2012 H   0  0  0  0  0  0  0  0  0  0  0  0
    6.0131    0.8574    4.4517 H   0  0  0  0  0  0  0  0  0  0  0  0
    6.3167    2.9175    3.0772 H   0  0  0  0  0  0  0  0  0  0  0  0
    7.7384    1.8925    3.0916 H   0  0  0  0  0  0  0  0  0  0  0  0
    8.2018    0.4002    1.1491 H   0  0  0  0  0  0  0  0  0  0  0  0
    7.2471    0.5249   -0.3148 H   0  0  0  0  0  0  0  0  0  0  0  0
    6.0448    4.4129    1.8844 H   0  0  0  0  0  0  0  0  0  0  0  0
    5.5846    6.1805    0.3117 H   0  0  0  0  0  0  0  0  0  0  0  0
    5.9685    5.0508   -1.1105 H   0  0  0  0  0  0  0  0  0  0  0  0
  1  2  2  0  0  0  0
  1  7  1  0  0  0  0
  2  3  1  0  0  0  0
  2 33  1  0  0  0  0
  3  4  2  0  0  0  0
  3 34  1  0  0  0  0
  4  5  1  0  0  0  0
  4  8  1  0  0  0  0
  5  6  2  0  0  0  0
  5 35  1  0  0  0  0
  6  1  1  0  0  0  0
  6 36  1  0  0  0  0
  7 15  1  0  0  0  0
  8  9  1  0  0  0  0
  9 10  2  0  0  0  0
 10 11  1  0  0  0  0
 10 37  1  0  0  0  0
 11 12  2  0  0  0  0
 11 38  1  0  0  0  0
 12 13  1  0  0  0  0
 12 39  1  0  0  0  0
 13 14  2  0  0  0  0
 13 40  1  0  0  0  0
 14  9  1  0  0  0  0
 14 41  1  0  0  0  0
 15 16  2  0  0  0  0
 15 20  1  0  0  0  0
 16 17  1  0  0  0  0
 16 19  1  0  0  0  0
 17 18  1  0  0  0  0
 18  7  2  0  0  0  0
 19 42  1  0  0  0  0
 19 43  1  0  0  0  0
 20 21  2  0  0  0  0
 20 22  1  0  0  0  0
 22 44  1  0  0  0  0
 22 45  1  0  0  0  0
 23 17  1  0  0  0  0
 23 24  1  0  0  0  0
 23 46  1  6  0  0  0
 24 25  1  0  0  0  0
 24 47  1  0  0  0  0
 24 48  1  0  0  0  0
 25 26  1  0  0  0  0
 25 49  1  0  0  0  0
 25 50  1  0  0  0  0
 26 27  1  0  0  0  0
 26 51  1  0  0  0  0
 26 52  1  0  0  0  0
 27 28  1  0  0  0  0
 27 29  1  0  0  0  0
 28 23  1  0  0  0  0
 28 53  1  0  0  0  0
 28 54  1  0  0  0  0
 29 30  2  0  0  0  0
 29 31  1  0  0  0  0
 31 32  2  0  0  0  0
 31 55  1  0  0  0  0
 32 56  1  0  0  0  0
 32 57  1  0  0  0  0
M  END
>  <Mol_ID>
4199

>  <Formula>
C24H25N5O3

>  <MolWeight>
431.487

>  <Cat>
S8542

>  <Name>
Btk inhibitor 2

>  <Synonyms>
N/A

>  <Target>
BTK

>  <Form>
free base

>  <CAS>
1558036-85-3

>  <URL>
http://selleckchem.com/products/btk-inhibitor-2.html

$$$$
