BGP-15.cdx
 OpenBabel08302520433D

 42 43  0  0  0  0  0  0  0  0999 V2000
   -0.5693    1.1612    0.7777 C   0  0  0  0  0  0  0  0  0  0  0  0
    0.1527    1.8171    1.7631 C   0  0  0  0  0  0  0  0  0  0  0  0
    1.3051    1.3461    2.2875 N   0  0  0  0  0  0  0  0  0  0  0  0
    1.7615    0.1661    1.7950 C   0  0  0  0  0  0  0  0  0  0  0  0
    1.1041   -0.5700    0.8168 C   0  0  0  0  0  0  0  0  0  0  0  0
   -0.0867   -0.0562    0.2999 C   0  0  0  0  0  0  0  0  0  0  0  0
    1.6627   -1.8661    0.3440 C   0  0  0  0  0  0  0  0  0  0  0  0
    0.8043   -2.8239   -0.1454 N   0  0  0  0  0  0  0  0  0  0  0  0
    2.9508   -2.0441    0.4178 N   0  0  0  0  0  0  0  0  0  0  0  0
    3.3169   -3.3321   -0.0269 O   0  0  0  0  0  0  0  0  0  0  0  0
    4.7494   -3.4623    0.0424 C   0  0  0  0  0  0  0  0  0  0  0  0
    5.3674   -2.9670   -1.2709 C   0  0  3  0  0  0  0  0  0  0  0  0
    5.0099   -1.5896   -1.4907 O   0  0  0  0  0  0  0  0  0  0  0  0
    6.9069   -3.0557   -1.2709 C   0  0  0  0  0  0  0  0  0  0  0  0
    7.5031   -4.3943   -1.0594 N   0  0  0  0  0  0  0  0  0  0  0  0
    7.1832   -5.3096   -2.1687 C   0  0  0  0  0  0  0  0  0  0  0  0
    7.8506   -6.6798   -2.0056 C   0  0  0  0  0  0  0  0  0  0  0  0
    9.3551   -6.5592   -1.8017 C   0  0  0  0  0  0  0  0  0  0  0  0
    9.6507   -5.5876   -0.6683 C   0  0  0  0  0  0  0  0  0  0  0  0
    8.9653   -4.2449   -0.9146 C   0  0  0  0  0  0  0  0  0  0  0  0
   -1.4839    1.5932    0.3852 H   0  0  0  0  0  0  0  0  0  0  0  0
   -0.1843    2.7686    2.1661 H   0  0  0  0  0  0  0  0  0  0  0  0
    2.6912   -0.1825    2.2369 H   0  0  0  0  0  0  0  0  0  0  0  0
   -0.6242   -0.5782   -0.4860 H   0  0  0  0  0  0  0  0  0  0  0  0
    1.2758   -3.7196   -0.2262 H   0  0  0  0  0  0  0  0  0  0  0  0
   -0.0843   -2.9021    0.3391 H   0  0  0  0  0  0  0  0  0  0  0  0
    5.1284   -2.9016    0.9053 H   0  0  0  0  0  0  0  0  0  0  0  0
    4.9685   -4.5225    0.2000 H   0  0  0  0  0  0  0  0  0  0  0  0
    4.9410   -3.5218   -2.1131 H   0  0  0  0  0  0  0  0  0  0  0  0
    4.1303   -1.4814   -1.0670 H   0  0  0  0  0  0  0  0  0  0  0  0
    7.2823   -2.6158   -2.2059 H   0  0  0  0  0  0  0  0  0  0  0  0
    7.2626   -2.3823   -0.4778 H   0  0  0  0  0  0  0  0  0  0  0  0
    7.4826   -4.8735   -3.1305 H   0  0  0  0  0  0  0  0  0  0  0  0
    6.1015   -5.4799   -2.2091 H   0  0  0  0  0  0  0  0  0  0  0  0
    7.6495   -7.2940   -2.8909 H   0  0  0  0  0  0  0  0  0  0  0  0
    7.4096   -7.2029   -1.1477 H   0  0  0  0  0  0  0  0  0  0  0  0
    9.7872   -7.5411   -1.5796 H   0  0  0  0  0  0  0  0  0  0  0  0
    9.8259   -6.2013   -2.7257 H   0  0  0  0  0  0  0  0  0  0  0  0
    9.3042   -6.0117    0.2826 H   0  0  0  0  0  0  0  0  0  0  0  0
   10.7331   -5.4413   -0.5781 H   0  0  0  0  0  0  0  0  0  0  0  0
    9.1887   -3.5905   -0.0632 H   0  0  0  0  0  0  0  0  0  0  0  0
    9.3973   -3.7749   -1.8086 H   0  0  0  0  0  0  0  0  0  0  0  0
  1  2  2  0  0  0  0
  1 21  1  0  0  0  0
  2  3  1  0  0  0  0
  2 22  1  0  0  0  0
  3  4  2  0  0  0  0
  4  5  1  0  0  0  0
  4 23  1  0  0  0  0
  5  6  2  0  0  0  0
  5  7  1  0  0  0  0
  6  1  1  0  0  0  0
  6 24  1  0  0  0  0
  7  8  1  0  0  0  0
  7  9  2  0  0  0  0
  8 25  1  0  0  0  0
  8 26  1  0  0  0  0
  9 10  1  0  0  0  0
 10 11  1  0  0  0  0
 11 12  1  0  0  0  0
 11 27  1  0  0  0  0
 11 28  1  0  0  0  0
 12 13  1  0  0  0  0
 12 14  1  0  0  0  0
 12 29  1  0  0  0  0
 13 30  1  0  0  0  0
 14 15  1  0  0  0  0
 14 31  1  0  0  0  0
 14 32  1  0  0  0  0
 15 16  1  0  0  0  0
 16 17  1  0  0  0  0
 16 33  1  0  0  0  0
 16 34  1  0  0  0  0
 17 18  1  0  0  0  0
 17 35  1  0  0  0  0
 17 36  1  0  0  0  0
 18 19  1  0  0  0  0
 18 37  1  0  0  0  0
 18 38  1  0  0  0  0
 19 20  1  0  0  0  0
 19 39  1  0  0  0  0
 19 40  1  0  0  0  0
 20 15  1  0  0  0  0
 20 41  1  0  0  0  0
 20 42  1  0  0  0  0
M  END
>  <Mol_ID>
4080

>  <Formula>
C14H24Cl2N4O2

>  <MolWeight>
351.27196

>  <Cat>
S8370

>  <Name>
BGP-15 2HCl

>  <Synonyms>
N/A

>  <Target>
PARP

>  <Form>
dihydrochloride

>  <CAS>
66611-37-8

>  <URL>
http://selleckchem.com/products/bgp-15.html

$$$$
