BI-1347
 OpenBabel08302520433D

 47 50  0  0  0  0  0  0  0  0999 V2000
    6.2290    1.0690   -1.4894 O   0  0  0  0  0  0  0  0  0  0  0  0
    3.3125    2.2080   -1.9782 N   0  0  0  0  0  0  0  0  0  0  0  0
    2.0314    2.3630   -1.5858 N   0  0  0  0  0  0  0  0  0  0  0  0
    4.9099    0.3990    0.2619 N   0  0  0  0  0  0  0  0  0  0  0  0
    1.1933    0.7316  -11.6047 N   0  0  0  0  0  0  0  0  0  0  0  0
    0.9653    1.1880   -7.8661 C   0  0  0  0  0  0  0  0  0  0  0  0
    1.7981    1.5843   -5.1806 C   0  0  0  0  0  0  0  0  0  0  0  0
    0.5033    1.0473   -9.2722 C   0  0  0  0  0  0  0  0  0  0  0  0
    2.1604    1.8577   -3.8111 C   0  0  0  0  0  0  0  0  0  0  0  0
   -0.8698    1.0682   -9.6825 C   0  0  0  0  0  0  0  0  0  0  0  0
    3.4406    1.9200   -3.3079 C   0  0  0  0  0  0  0  0  0  0  0  0
    0.2291    0.6839   -6.7808 C   0  0  0  0  0  0  0  0  0  0  0  0
    2.1797    1.8284   -7.5602 C   0  0  0  0  0  0  0  0  0  0  0  0
    0.6050    0.9229   -5.4611 C   0  0  0  0  0  0  0  0  0  0  0  0
    2.6053    2.0013   -6.2390 C   0  0  0  0  0  0  0  0  0  0  0  0
    4.3706    2.4799   -1.0289 C   0  0  0  0  0  0  0  0  0  0  0  0
   -1.1697    0.8717  -11.0514 C   0  0  0  0  0  0  0  0  0  0  0  0
    1.3342    2.1432   -2.7000 C   0  0  0  0  0  0  0  0  0  0  0  0
    1.4564    0.8791  -10.2908 C   0  0  0  0  0  0  0  0  0  0  0  0
   -1.9906    1.2849   -8.8319 C   0  0  0  0  0  0  0  0  0  0  0  0
    5.2322    1.2650   -0.7760 C   0  0  0  0  0  0  0  0  0  0  0  0
   -2.4969    0.8371  -11.5051 C   0  0  0  0  0  0  0  0  0  0  0  0
   -0.1059    0.7266  -11.9463 C   0  0  0  0  0  0  0  0  0  0  0  0
   -3.3083    1.2026   -9.2734 C   0  0  0  0  0  0  0  0  0  0  0  0
   -3.5678    0.9803  -10.6142 C   0  0  0  0  0  0  0  0  0  0  0  0
    3.7539    0.4965    1.1420 C   0  0  0  0  0  0  0  0  0  0  0  0
    5.7905   -0.7369    0.4786 C   0  0  0  0  0  0  0  0  0  0  0  0
    4.4093    1.7813   -3.7727 H   0  0  0  0  0  0  0  0  0  0  0  0
   -0.6722    0.1001   -6.9344 H   0  0  0  0  0  0  0  0  0  0  0  0
    2.8242    2.2234   -8.3452 H   0  0  0  0  0  0  0  0  0  0  0  0
   -0.0490    0.5745   -4.6641 H   0  0  0  0  0  0  0  0  0  0  0  0
    3.5540    2.4974   -6.0578 H   0  0  0  0  0  0  0  0  0  0  0  0
    3.9373    2.8726   -0.1082 H   0  0  0  0  0  0  0  0  0  0  0  0
    4.9867    3.2853   -1.4453 H   0  0  0  0  0  0  0  0  0  0  0  0
    0.2548    2.2168   -2.6692 H   0  0  0  0  0  0  0  0  0  0  0  0
    2.5215    0.8511  -10.0671 H   0  0  0  0  0  0  0  0  0  0  0  0
   -1.8670    1.5368   -7.7829 H   0  0  0  0  0  0  0  0  0  0  0  0
   -2.7192    0.6859  -12.5584 H   0  0  0  0  0  0  0  0  0  0  0  0
   -0.2818    0.5976  -13.0109 H   0  0  0  0  0  0  0  0  0  0  0  0
   -4.1238    1.3253   -8.5672 H   0  0  0  0  0  0  0  0  0  0  0  0
   -4.5855    0.9330  -10.9710 H   0  0  0  0  0  0  0  0  0  0  0  0
    3.1572   -0.4143    1.0363 H   0  0  0  0  0  0  0  0  0  0  0  0
    4.1148    0.5723    2.1725 H   0  0  0  0  0  0  0  0  0  0  0  0
    3.1150    1.3514    0.9327 H   0  0  0  0  0  0  0  0  0  0  0  0
    5.8377   -1.3384   -0.4345 H   0  0  0  0  0  0  0  0  0  0  0  0
    6.7934   -0.3694    0.7170 H   0  0  0  0  0  0  0  0  0  0  0  0
    5.4273   -1.3574    1.3033 H   0  0  0  0  0  0  0  0  0  0  0  0
  1 21  2  0  0  0  0
  2  3  1  0  0  0  0
  2 11  1  0  0  0  0
  2 16  1  0  0  0  0
  3 18  2  0  0  0  0
  4 21  1  0  0  0  0
  4 26  1  0  0  0  0
  4 27  1  0  0  0  0
  5 19  2  0  0  0  0
  5 23  1  0  0  0  0
  6  8  1  0  0  0  0
  6 12  2  0  0  0  0
  6 13  1  0  0  0  0
  7  9  1  0  0  0  0
  7 14  2  0  0  0  0
  7 15  1  0  0  0  0
  8 10  2  0  0  0  0
  8 19  1  0  0  0  0
  9 11  2  0  0  0  0
  9 18  1  0  0  0  0
 10 17  1  0  0  0  0
 10 20  1  0  0  0  0
 11 28  1  0  0  0  0
 12 14  1  0  0  0  0
 12 29  1  0  0  0  0
 13 15  2  0  0  0  0
 13 30  1  0  0  0  0
 14 31  1  0  0  0  0
 15 32  1  0  0  0  0
 16 21  1  0  0  0  0
 16 33  1  0  0  0  0
 16 34  1  0  0  0  0
 17 22  1  0  0  0  0
 17 23  2  0  0  0  0
 18 35  1  0  0  0  0
 19 36  1  0  0  0  0
 20 24  2  0  0  0  0
 20 37  1  0  0  0  0
 22 25  2  0  0  0  0
 22 38  1  0  0  0  0
 23 39  1  0  0  0  0
 24 25  1  0  0  0  0
 24 40  1  0  0  0  0
 25 41  1  0  0  0  0
 26 42  1  0  0  0  0
 26 43  1  0  0  0  0
 26 44  1  0  0  0  0
 27 45  1  0  0  0  0
 27 46  1  0  0  0  0
 27 47  1  0  0  0  0
M  END
>  <Mol_ID>
4041

>  <Formula>
C22H20N4O

>  <MolWeight>
356.4204

>  <Cat>
S1058

>  <Name>
BI-1347

>  <Synonyms>
N/A

>  <Target>
CDK

>  <Form>
Free Base

>  <CAS>
2163056-91-3

>  <URL>
http://www.selleck.cn/products/bi-1347.html

$$$$
