BI-3406
 OpenBabel08302521263D

 58 61  0  0  0  0  0  0  0  0999 V2000
    5.0641    2.8874    3.6360 F   0  0  0  0  0  0  0  0  0  0  0  0
    3.5695    3.6474    5.0174 F   0  0  0  0  0  0  0  0  0  0  0  0
    5.4891    4.6501    4.8333 F   0  0  0  0  0  0  0  0  0  0  0  0
    0.9344   -1.6181    2.9775 O   0  0  0  0  0  0  0  0  0  0  0  0
    1.4899   -1.1769   -0.5177 O   0  0  0  0  0  0  0  0  0  0  0  0
    0.5855   -1.9002   -2.9722 O   0  0  0  0  0  0  0  0  0  0  0  0
    2.7238    3.7435   -0.9042 N   0  0  0  0  0  0  0  0  0  0  0  0
    2.2311    4.2420   -3.1829 N   0  0  0  0  0  0  0  0  0  0  0  0
    1.2375    2.5825   -4.5898 N   0  0  0  0  0  0  0  0  0  0  0  0
    2.0903    8.1316    2.7937 N   0  0  0  0  0  0  0  0  0  0  0  0
    1.4861   -0.6980    0.8362 C   0  0  1  0  0  0  0  0  0  0  0  0
    0.1208   -0.1968    1.2539 C   0  0  0  0  0  0  0  0  0  0  0  0
    1.7768   -1.8099    1.8329 C   0  0  0  0  0  0  0  0  0  0  0  0
    0.0250   -0.5477    2.7179 C   0  0  0  0  0  0  0  0  0  0  0  0
    3.4680    4.9927   -0.7894 C   0  0  1  0  0  0  0  0  0  0  0  0
    1.4165   -0.2253   -1.5099 C   0  0  0  0  0  0  0  0  0  0  0  0
    1.7805    2.0494   -2.3325 C   0  0  0  0  0  0  0  0  0  0  0  0
    2.2431    3.3622   -2.1725 C   0  0  0  0  0  0  0  0  0  0  0  0
    1.8405    1.0855   -1.3113 C   0  0  0  0  0  0  0  0  0  0  0  0
    3.4619    5.3962    0.6844 C   0  0  0  0  0  0  0  0  0  0  0  0
    1.2852    1.7052   -3.5864 C   0  0  0  0  0  0  0  0  0  0  0  0
    0.9412   -0.5869   -2.7820 C   0  0  0  0  0  0  0  0  0  0  0  0
    0.8579    0.3982   -3.7891 C   0  0  0  0  0  0  0  0  0  0  0  0
    4.9012    4.7909   -1.2927 C   0  0  0  0  0  0  0  0  0  0  0  0
    4.0102    4.5690    1.6806 C   0  0  0  0  0  0  0  0  0  0  0  0
    2.8487    6.5973    1.0771 C   0  0  0  0  0  0  0  0  0  0  0  0
    3.9448    4.9279    3.0354 C   0  0  0  0  0  0  0  0  0  0  0  0
    1.7210    3.8136   -4.3531 C   0  0  0  0  0  0  0  0  0  0  0  0
    2.8220    7.0008    2.4158 C   0  0  0  0  0  0  0  0  0  0  0  0
    3.3278    6.1377    3.3888 C   0  0  0  0  0  0  0  0  0  0  0  0
    4.5091    4.0368    4.1132 C   0  0  0  0  0  0  0  0  0  0  0  0
    1.7006    4.7712   -5.5028 C   0  0  0  0  0  0  0  0  0  0  0  0
    0.1521   -2.2745   -4.2788 C   0  0  0  0  0  0  0  0  0  0  0  0
    1.9459    3.7072   -0.2491 H   0  0  0  0  0  0  0  0  0  0  0  0
    2.0282    8.8434    2.0720 H   0  0  0  0  0  0  0  0  0  0  0  0
    2.3617    8.5223    3.6910 H   0  0  0  0  0  0  0  0  0  0  0  0
    2.2654    0.0514    1.0094 H   0  0  0  0  0  0  0  0  0  0  0  0
   -0.0001    0.8799    1.0910 H   0  0  0  0  0  0  0  0  0  0  0  0
   -0.6730   -0.6936    0.6848 H   0  0  0  0  0  0  0  0  0  0  0  0
    1.6149   -2.8119    1.4283 H   0  0  0  0  0  0  0  0  0  0  0  0
    2.8175   -1.7521    2.1749 H   0  0  0  0  0  0  0  0  0  0  0  0
    0.2995    0.3011    3.3529 H   0  0  0  0  0  0  0  0  0  0  0  0
   -0.9866   -0.8632    2.9911 H   0  0  0  0  0  0  0  0  0  0  0  0
    2.9892    5.7927   -1.3681 H   0  0  0  0  0  0  0  0  0  0  0  0
    2.2779    1.3959   -0.3715 H   0  0  0  0  0  0  0  0  0  0  0  0
    0.4774    0.1615   -4.7760 H   0  0  0  0  0  0  0  0  0  0  0  0
    4.9130    4.5412   -2.3587 H   0  0  0  0  0  0  0  0  0  0  0  0
    5.4976    5.6980   -1.1517 H   0  0  0  0  0  0  0  0  0  0  0  0
    5.4089    3.9714   -0.7701 H   0  0  0  0  0  0  0  0  0  0  0  0
    4.4685    3.6202    1.3998 H   0  0  0  0  0  0  0  0  0  0  0  0
    2.3809    7.2297    0.3252 H   0  0  0  0  0  0  0  0  0  0  0  0
    3.2408    6.4026    4.4418 H   0  0  0  0  0  0  0  0  0  0  0  0
    2.2987    4.3683   -6.3260 H   0  0  0  0  0  0  0  0  0  0  0  0
    0.6732    4.9145   -5.8511 H   0  0  0  0  0  0  0  0  0  0  0  0
    2.1117    5.7427   -5.2153 H   0  0  0  0  0  0  0  0  0  0  0  0
   -0.8370   -1.8531   -4.4893 H   0  0  0  0  0  0  0  0  0  0  0  0
    0.8732   -1.9852   -5.0523 H   0  0  0  0  0  0  0  0  0  0  0  0
    0.0679   -3.3648   -4.3137 H   0  0  0  0  0  0  0  0  0  0  0  0
  1 31  1  0  0  0  0
  2 31  1  0  0  0  0
  3 31  1  0  0  0  0
  4 13  1  0  0  0  0
  4 14  1  0  0  0  0
  5 16  1  0  0  0  0
  6 22  1  0  0  0  0
  6 33  1  0  0  0  0
  7 18  1  0  0  0  0
  7 34  1  0  0  0  0
  8 18  2  0  0  0  0
  8 28  1  0  0  0  0
  9 21  1  0  0  0  0
  9 28  2  0  0  0  0
 10 29  1  0  0  0  0
 10 35  1  0  0  0  0
 10 36  1  0  0  0  0
 11  5  1  0  0  0  0
 11 12  1  0  0  0  0
 11 13  1  0  0  0  0
 11 37  1  1  0  0  0
 12 14  1  0  0  0  0
 12 38  1  0  0  0  0
 12 39  1  0  0  0  0
 13 40  1  0  0  0  0
 13 41  1  0  0  0  0
 14 42  1  0  0  0  0
 14 43  1  0  0  0  0
 15 24  1  0  0  0  0
 15 44  1  6  0  0  0
 15 20  1  0  0  0  0
 15  7  1  0  0  0  0
 16 19  1  0  0  0  0
 16 22  2  0  0  0  0
 17 18  1  0  0  0  0
 17 19  2  0  0  0  0
 17 21  1  0  0  0  0
 19 45  1  0  0  0  0
 20 25  2  0  0  0  0
 20 26  1  0  0  0  0
 21 23  2  0  0  0  0
 22 23  1  0  0  0  0
 23 46  1  0  0  0  0
 24 47  1  0  0  0  0
 24 48  1  0  0  0  0
 24 49  1  0  0  0  0
 25 27  1  0  0  0  0
 25 50  1  0  0  0  0
 26 29  2  0  0  0  0
 26 51  1  0  0  0  0
 27 30  2  0  0  0  0
 27 31  1  0  0  0  0
 28 32  1  0  0  0  0
 29 30  1  0  0  0  0
 30 52  1  0  0  0  0
 32 53  1  0  0  0  0
 32 54  1  0  0  0  0
 32 55  1  0  0  0  0
 33 56  1  0  0  0  0
 33 57  1  0  0  0  0
 33 58  1  0  0  0  0
M  END
>  <Mol_ID>
5226

>  <Formula>
C23H25F3N4O3

>  <MolWeight>
462.4648096

>  <Cat>
S8916

>  <Name>
BI-3406

>  <Synonyms>
N/A

>  <Target>
Ras

>  <Form>
free base

>  <CAS>
2230836-55-0

>  <URL>
http://www.selleckchem.com/products/bi-3406.html

$$$$
