BI-3802
 OpenBabel08302521453D

 63 66  0  0  0  0  0  0  0  0999 V2000
   -1.1349    0.7891    0.2092 N   0  0  0  0  0  0  0  0  0  0  0  0
    0.0106    1.1514    0.8040 C   0  0  0  0  0  0  0  0  0  0  0  0
    1.1205    0.4064    0.7127 N   0  0  0  0  0  0  0  0  0  0  0  0
    1.1091   -0.7288   -0.0080 C   0  0  0  0  0  0  0  0  0  0  0  0
   -0.0255   -1.1512   -0.6569 C   0  0  0  0  0  0  0  0  0  0  0  0
   -1.1232   -0.3396   -0.5223 C   0  0  0  0  0  0  0  0  0  0  0  0
    0.0829    2.3850    1.4397 N   0  0  0  0  0  0  0  0  0  0  0  0
    2.3068   -1.4592   -0.1781 N   0  0  0  0  0  0  0  0  0  0  0  0
    3.6038   -0.9448    0.0147 C   0  0  0  0  0  0  0  0  0  0  0  0
    3.9154    0.3611   -0.3778 C   0  0  0  0  0  0  0  0  0  0  0  0
    5.1988    0.8930   -0.2032 C   0  0  0  0  0  0  0  0  0  0  0  0
    6.2079    0.1153    0.3669 C   0  0  0  0  0  0  0  0  0  0  0  0
    5.8992   -1.1873    0.7793 C   0  0  0  0  0  0  0  0  0  0  0  0
    4.6096   -1.7139    0.5988 C   0  0  0  0  0  0  0  0  0  0  0  0
    5.4560    2.2671   -0.6069 C   0  0  0  0  0  0  0  0  0  0  0  0
    6.6906    2.7910   -0.5469 C   0  0  0  0  0  0  0  0  0  0  0  0
    7.8267    1.9241   -0.0568 C   0  0  0  0  0  0  0  0  0  0  0  0
    7.5174    0.6709    0.4688 N   0  0  0  0  0  0  0  0  0  0  0  0
    8.5862   -0.1141    1.0617 C   0  0  0  0  0  0  0  0  0  0  0  0
    8.9802    2.3529   -0.1438 O   0  0  0  0  0  0  0  0  0  0  0  0
    7.0344    4.0790   -0.9257 O   0  0  0  0  0  0  0  0  0  0  0  0
    6.1532    4.7848   -1.7926 C   0  0  0  0  0  0  0  0  0  0  0  0
    6.0999    4.2049   -3.2091 C   0  0  0  0  0  0  0  0  0  0  0  0
    7.3102    3.7176   -3.6550 N   0  0  0  0  0  0  0  0  0  0  0  0
    5.0717    4.2105   -3.8796 O   0  0  0  0  0  0  0  0  0  0  0  0
    7.4715    3.0555   -4.9236 C   0  0  0  0  0  0  0  0  0  0  0  0
    1.3543    2.7080    2.0821 C   0  0  0  0  0  0  0  0  0  0  0  0
    1.4663    4.2341    2.2121 C   0  0  1  0  0  0  0  0  0  0  0  0
    0.2539    4.8085    2.9576 C   0  0  0  0  0  0  0  0  0  0  0  0
   -1.0708    4.3470    2.3259 C   0  0  1  0  0  0  0  0  0  0  0  0
   -1.1112    2.8159    2.1609 C   0  0  0  0  0  0  0  0  0  0  0  0
    2.7698    4.6189    2.9082 C   0  0  0  0  0  0  0  0  0  0  0  0
   -2.2522    4.8423    3.1590 C   0  0  0  0  0  0  0  0  0  0  0  0
   -0.0413   -2.0300   -1.2839 H   0  0  0  0  0  0  0  0  0  0  0  0
   -2.0510   -0.5629   -1.0396 H   0  0  0  0  0  0  0  0  0  0  0  0
    2.1961   -2.4408    0.0373 H   0  0  0  0  0  0  0  0  0  0  0  0
    3.1436    0.9742   -0.8367 H   0  0  0  0  0  0  0  0  0  0  0  0
    6.6426   -1.8281    1.2427 H   0  0  0  0  0  0  0  0  0  0  0  0
    4.4041   -2.7256    0.9372 H   0  0  0  0  0  0  0  0  0  0  0  0
    4.5966    2.8381   -0.9368 H   0  0  0  0  0  0  0  0  0  0  0  0
    8.3041   -0.4022    2.0797 H   0  0  0  0  0  0  0  0  0  0  0  0
    8.7665   -1.0040    0.4507 H   0  0  0  0  0  0  0  0  0  0  0  0
    9.5205    0.4507    1.1269 H   0  0  0  0  0  0  0  0  0  0  0  0
    5.1456    4.8589   -1.3690 H   0  0  0  0  0  0  0  0  0  0  0  0
    6.5313    5.8092   -1.8804 H   0  0  0  0  0  0  0  0  0  0  0  0
    8.1029    3.7626   -3.0203 H   0  0  0  0  0  0  0  0  0  0  0  0
    8.1775    3.6345   -5.5236 H   0  0  0  0  0  0  0  0  0  0  0  0
    7.8878    2.0616   -4.7391 H   0  0  0  0  0  0  0  0  0  0  0  0
    6.5221    2.9614   -5.4552 H   0  0  0  0  0  0  0  0  0  0  0  0
    1.4138    2.2267    3.0675 H   0  0  0  0  0  0  0  0  0  0  0  0
    2.2147    2.3685    1.4927 H   0  0  0  0  0  0  0  0  0  0  0  0
    1.4810    4.6652    1.2014 H   0  0  0  0  0  0  0  0  0  0  0  0
    0.3023    5.9049    2.9427 H   0  0  0  0  0  0  0  0  0  0  0  0
    0.2888    4.5036    4.0113 H   0  0  0  0  0  0  0  0  0  0  0  0
   -1.1464    4.7975    1.3267 H   0  0  0  0  0  0  0  0  0  0  0  0
   -1.1441    2.3287    3.1456 H   0  0  0  0  0  0  0  0  0  0  0  0
   -2.0375    2.5513    1.6374 H   0  0  0  0  0  0  0  0  0  0  0  0
    3.6328    4.2282    2.3582 H   0  0  0  0  0  0  0  0  0  0  0  0
    2.8731    5.7073    2.9652 H   0  0  0  0  0  0  0  0  0  0  0  0
    2.8096    4.2194    3.9272 H   0  0  0  0  0  0  0  0  0  0  0  0
   -2.2476    5.9357    3.2230 H   0  0  0  0  0  0  0  0  0  0  0  0
   -3.2034    4.5368    2.7114 H   0  0  0  0  0  0  0  0  0  0  0  0
   -2.2139    4.4455    4.1793 H   0  0  0  0  0  0  0  0  0  0  0  0
  1  2  2  0  0  0  0
  2  3  1  0  0  0  0
  2  7  1  0  0  0  0
  3  4  2  0  0  0  0
  4  5  1  0  0  0  0
  4  8  1  0  0  0  0
  5  6  2  0  0  0  0
  5 34  1  0  0  0  0
  6  1  1  0  0  0  0
  6 35  1  0  0  0  0
  7 27  1  0  0  0  0
  8  9  1  0  0  0  0
  8 36  1  0  0  0  0
  9 10  2  0  0  0  0
 10 11  1  0  0  0  0
 10 37  1  0  0  0  0
 11 12  2  0  0  0  0
 11 15  1  0  0  0  0
 12 13  1  0  0  0  0
 13 14  2  0  0  0  0
 13 38  1  0  0  0  0
 14  9  1  0  0  0  0
 14 39  1  0  0  0  0
 15 16  2  0  0  0  0
 15 40  1  0  0  0  0
 16 17  1  0  0  0  0
 16 21  1  0  0  0  0
 17 18  1  0  0  0  0
 17 20  2  0  0  0  0
 18 12  1  0  0  0  0
 18 19  1  0  0  0  0
 19 41  1  0  0  0  0
 19 42  1  0  0  0  0
 19 43  1  0  0  0  0
 21 22  1  0  0  0  0
 22 23  1  0  0  0  0
 22 44  1  0  0  0  0
 22 45  1  0  0  0  0
 23 24  1  0  0  0  0
 23 25  2  0  0  0  0
 24 26  1  0  0  0  0
 24 46  1  0  0  0  0
 26 47  1  0  0  0  0
 26 48  1  0  0  0  0
 26 49  1  0  0  0  0
 27 28  1  0  0  0  0
 27 50  1  0  0  0  0
 27 51  1  0  0  0  0
 28 29  1  0  0  0  0
 28 32  1  0  0  0  0
 28 52  1  6  0  0  0
 29 30  1  0  0  0  0
 29 53  1  0  0  0  0
 29 54  1  0  0  0  0
 30 31  1  0  0  0  0
 30 33  1  0  0  0  0
 30 55  1  6  0  0  0
 31  7  1  0  0  0  0
 31 56  1  0  0  0  0
 31 57  1  0  0  0  0
 32 58  1  0  0  0  0
 32 59  1  0  0  0  0
 32 60  1  0  0  0  0
 33 61  1  0  0  0  0
 33 62  1  0  0  0  0
 33 63  1  0  0  0  0
M  END
>  <Mol_ID>
9465

>  <Formula>
C24H29ClN6O3

>  <MolWeight>
484.97846

>  <Cat>
S6937

>  <Name>
BI-3802

>  <Synonyms>
N/A

>  <Target>
Bcl-6

>  <Form>
Free base

>  <CAS>
2166387-65-9

>  <URL>
http://www.selleckchem.com/products/bi-3802.html

$$$$
