BI-409306
 OpenBabel08302521243D

 40 43  0  0  0  0  0  0  0  0999 V2000
   -1.2812    0.0001   -0.3096 O   0  0  0  0  0  0  0  0  0  0  0  0
    2.5648   -1.1158    6.1317 O   0  0  0  0  0  0  0  0  0  0  0  0
    1.7436   -0.0153    1.8065 N   0  0  0  0  0  0  0  0  0  0  0  0
    1.2443    1.0045    2.5581 N   0  0  0  0  0  0  0  0  0  0  0  0
    3.0285   -2.0783    2.1548 N   0  0  0  0  0  0  0  0  0  0  0  0
    3.2796   -2.5273    4.4829 N   0  0  0  0  0  0  0  0  0  0  0  0
    3.6967   -5.6932    4.7066 N   0  0  0  0  0  0  0  0  0  0  0  0
    1.5410   -0.0274    0.3562 C   0  0  0  0  0  0  0  0  0  0  0  0
    0.7707   -1.2673   -0.1294 C   0  0  0  0  0  0  0  0  0  0  0  0
    0.8109    1.2266   -0.1683 C   0  0  0  0  0  0  0  0  0  0  0  0
   -0.6996   -1.1744    0.2536 C   0  0  0  0  0  0  0  0  0  0  0  0
   -0.6747    1.1936    0.1889 C   0  0  0  0  0  0  0  0  0  0  0  0
    2.3943   -0.9536    2.5811 C   0  0  0  0  0  0  0  0  0  0  0  0
    2.1930   -0.5573    3.8808 C   0  0  0  0  0  0  0  0  0  0  0  0
    1.4929    0.6452    3.8193 C   0  0  0  0  0  0  0  0  0  0  0  0
    3.4357   -2.8456    3.1375 C   0  0  0  0  0  0  0  0  0  0  0  0
    2.6763   -1.3844    4.9409 C   0  0  0  0  0  0  0  0  0  0  0  0
    4.1310   -4.1638    2.8552 C   0  0  0  0  0  0  0  0  0  0  0  0
    3.3788   -5.3359    3.4355 C   0  0  0  0  0  0  0  0  0  0  0  0
    2.3573   -5.9547    2.7174 C   0  0  0  0  0  0  0  0  0  0  0  0
    1.6059   -6.9487    3.3421 C   0  0  0  0  0  0  0  0  0  0  0  0
    2.9665   -6.6864    5.2720 C   0  0  0  0  0  0  0  0  0  0  0  0
    1.9064   -7.3178    4.6462 C   0  0  0  0  0  0  0  0  0  0  0  0
    3.6161   -3.1657    5.1992 H   0  0  0  0  0  0  0  0  0  0  0  0
    2.5540   -0.0450   -0.0676 H   0  0  0  0  0  0  0  0  0  0  0  0
    0.8400   -1.3019   -1.2257 H   0  0  0  0  0  0  0  0  0  0  0  0
    1.2011   -2.2004    0.2452 H   0  0  0  0  0  0  0  0  0  0  0  0
    1.2753    2.1483    0.1991 H   0  0  0  0  0  0  0  0  0  0  0  0
    0.8986    1.2394   -1.2626 H   0  0  0  0  0  0  0  0  0  0  0  0
   -1.2420   -2.0347   -0.1516 H   0  0  0  0  0  0  0  0  0  0  0  0
   -0.8408   -1.1794    1.3404 H   0  0  0  0  0  0  0  0  0  0  0  0
   -0.8622    1.2658    1.2649 H   0  0  0  0  0  0  0  0  0  0  0  0
   -1.1841    2.0446   -0.2743 H   0  0  0  0  0  0  0  0  0  0  0  0
    1.1436    1.2737    4.6282 H   0  0  0  0  0  0  0  0  0  0  0  0
    4.2333   -4.2923    1.7750 H   0  0  0  0  0  0  0  0  0  0  0  0
    5.1441   -4.1266    3.2775 H   0  0  0  0  0  0  0  0  0  0  0  0
    2.1265   -5.6573    1.6990 H   0  0  0  0  0  0  0  0  0  0  0  0
    0.7822   -7.4229    2.8147 H   0  0  0  0  0  0  0  0  0  0  0  0
    3.2632   -6.9581    6.2820 H   0  0  0  0  0  0  0  0  0  0  0  0
    1.3277   -8.0756    5.1641 H   0  0  0  0  0  0  0  0  0  0  0  0
  1 11  1  0  0  0  0
  1 12  1  0  0  0  0
  2 17  2  0  0  0  0
  3  4  1  0  0  0  0
  3  8  1  0  0  0  0
  3 13  1  0  0  0  0
  4 15  2  0  0  0  0
  5 13  1  0  0  0  0
  5 16  2  0  0  0  0
  6 16  1  0  0  0  0
  6 17  1  0  0  0  0
  6 24  1  0  0  0  0
  7 19  2  0  0  0  0
  7 22  1  0  0  0  0
  8  9  1  0  0  0  0
  8 10  1  0  0  0  0
  8 25  1  0  0  0  0
  9 11  1  0  0  0  0
  9 26  1  0  0  0  0
  9 27  1  0  0  0  0
 10 12  1  0  0  0  0
 10 28  1  0  0  0  0
 10 29  1  0  0  0  0
 11 30  1  0  0  0  0
 11 31  1  0  0  0  0
 12 32  1  0  0  0  0
 12 33  1  0  0  0  0
 13 14  2  0  0  0  0
 14 15  1  0  0  0  0
 14 17  1  0  0  0  0
 15 34  1  0  0  0  0
 16 18  1  0  0  0  0
 18 19  1  0  0  0  0
 18 35  1  0  0  0  0
 18 36  1  0  0  0  0
 19 20  1  0  0  0  0
 20 21  2  0  0  0  0
 20 37  1  0  0  0  0
 21 23  1  0  0  0  0
 21 38  1  0  0  0  0
 22 23  2  0  0  0  0
 22 39  1  0  0  0  0
 23 40  1  0  0  0  0
M  END
>  <Mol_ID>
4960

>  <Formula>
C16H17N5O2

>  <MolWeight>
311.33848

>  <Cat>
S0039

>  <Name>
BI-409306

>  <Synonyms>
SUB 166499

>  <Target>
PDE

>  <Form>
Free Base

>  <CAS>
1189767-28-9

>  <URL>
http://www.selleckchem.com/products/bi-409306.html

$$$$
