BI-6C9
 OpenBabel08302521333D

 57 59  0  0  0  0  0  0  0  0999 V2000
   -1.1760   -3.4045   -0.1507 S   0  0  0  0  0  0  0  0  0  0  0  0
   -1.6076   -1.7717   -0.2182 N   0  0  0  0  0  0  0  0  0  0  0  0
   -0.9119   -3.8767   -1.4923 O   0  0  0  0  0  0  0  0  0  0  0  0
   -2.1614   -4.0427    0.6947 O   0  0  0  0  0  0  0  0  0  0  0  0
   -1.1596   -1.0256   -1.4057 C   0  0  0  0  0  0  0  0  0  0  0  0
   -1.6752    0.4146   -1.3529 C   0  0  0  0  0  0  0  0  0  0  0  0
   -1.2215    1.2263   -2.5770 C   0  0  0  0  0  0  0  0  0  0  0  0
   -1.8078    0.6716   -3.8678 C   0  0  0  0  0  0  0  0  0  0  0  0
   -1.0309    0.9087   -4.9891 N   0  0  0  0  0  0  0  0  0  0  0  0
   -2.8958    0.0968   -3.8480 O   0  0  0  0  0  0  0  0  0  0  0  0
    3.9933   -3.8237    2.7249 O   0  0  0  0  0  0  0  0  0  0  0  0
    4.0198   -4.0420    4.1310 C   0  0  0  0  0  0  0  0  0  0  0  0
   -2.1904   -0.6120  -10.7152 S   0  0  0  0  0  0  0  0  0  0  0  0
   -5.3637    4.1762  -12.4703 N   0  0  0  0  0  0  0  0  0  0  0  0
    0.3593   -3.3843    0.7438 C   0  0  0  0  0  0  0  0  0  0  0  0
    0.3418   -3.5126    2.1343 C   0  0  0  0  0  0  0  0  0  0  0  0
    1.5712   -3.3861    0.0509 C   0  0  0  0  0  0  0  0  0  0  0  0
    1.5411   -3.6500    2.8369 C   0  0  0  0  0  0  0  0  0  0  0  0
    2.7689   -3.5177    0.7610 C   0  0  0  0  0  0  0  0  0  0  0  0
    2.7584   -3.6633    2.1550 C   0  0  0  0  0  0  0  0  0  0  0  0
   -1.3198    0.4940   -6.3161 C   0  0  0  0  0  0  0  0  0  0  0  0
   -2.4485   -0.2511   -6.6641 C   0  0  0  0  0  0  0  0  0  0  0  0
   -0.4275    0.8543   -7.3359 C   0  0  0  0  0  0  0  0  0  0  0  0
   -2.7011   -0.6058   -7.9957 C   0  0  0  0  0  0  0  0  0  0  0  0
   -0.6903    0.5157   -8.6742 C   0  0  0  0  0  0  0  0  0  0  0  0
   -1.8420   -0.1969   -9.0147 C   0  0  0  0  0  0  0  0  0  0  0  0
   -3.1594    0.7935  -11.2447 C   0  0  0  0  0  0  0  0  0  0  0  0
   -2.7114    1.5875  -12.3050 C   0  0  0  0  0  0  0  0  0  0  0  0
   -4.3773    1.1102  -10.6387 C   0  0  0  0  0  0  0  0  0  0  0  0
   -3.4593    2.6944  -12.7297 C   0  0  0  0  0  0  0  0  0  0  0  0
   -5.1215    2.2151  -11.0687 C   0  0  0  0  0  0  0  0  0  0  0  0
   -4.6916    2.9931  -12.1451 C   0  0  0  0  0  0  0  0  0  0  0  0
   -2.5934   -1.6699    0.0388 H   0  0  0  0  0  0  0  0  0  0  0  0
   -0.0661   -1.0265   -1.4428 H   0  0  0  0  0  0  0  0  0  0  0  0
   -1.5485   -1.5235   -2.2997 H   0  0  0  0  0  0  0  0  0  0  0  0
   -2.7710    0.4112   -1.2881 H   0  0  0  0  0  0  0  0  0  0  0  0
   -1.3158    0.9041   -0.4397 H   0  0  0  0  0  0  0  0  0  0  0  0
   -1.5871    2.2567   -2.4766 H   0  0  0  0  0  0  0  0  0  0  0  0
   -0.1292    1.2595   -2.6256 H   0  0  0  0  0  0  0  0  0  0  0  0
   -0.1821    1.4492   -4.8681 H   0  0  0  0  0  0  0  0  0  0  0  0
    3.5833   -3.1944    4.6694 H   0  0  0  0  0  0  0  0  0  0  0  0
    3.5159   -4.9789    4.3943 H   0  0  0  0  0  0  0  0  0  0  0  0
    5.0656   -4.1267    4.4402 H   0  0  0  0  0  0  0  0  0  0  0  0
   -6.3541    4.1614  -12.2442 H   0  0  0  0  0  0  0  0  0  0  0  0
   -5.1888    4.5087  -13.4128 H   0  0  0  0  0  0  0  0  0  0  0  0
   -0.6018   -3.5356    2.6759 H   0  0  0  0  0  0  0  0  0  0  0  0
    1.5957   -3.3148   -1.0344 H   0  0  0  0  0  0  0  0  0  0  0  0
    1.4872   -3.7656    3.9146 H   0  0  0  0  0  0  0  0  0  0  0  0
    3.7157   -3.5348    0.2261 H   0  0  0  0  0  0  0  0  0  0  0  0
   -3.1698   -0.5795   -5.9235 H   0  0  0  0  0  0  0  0  0  0  0  0
    0.4816    1.4073   -7.1156 H   0  0  0  0  0  0  0  0  0  0  0  0
   -3.5867   -1.1962   -8.2182 H   0  0  0  0  0  0  0  0  0  0  0  0
    0.0114    0.8165   -9.4487 H   0  0  0  0  0  0  0  0  0  0  0  0
   -1.7713    1.3645  -12.8033 H   0  0  0  0  0  0  0  0  0  0  0  0
   -4.7607    0.5116   -9.8173 H   0  0  0  0  0  0  0  0  0  0  0  0
   -3.0678    3.3214  -13.5270 H   0  0  0  0  0  0  0  0  0  0  0  0
   -6.0452    2.4594  -10.5514 H   0  0  0  0  0  0  0  0  0  0  0  0
  1  2  1  0  0  0  0
  1  3  2  0  0  0  0
  1  4  2  0  0  0  0
  1 15  1  0  0  0  0
  2  5  1  0  0  0  0
  2 33  1  0  0  0  0
  5  6  1  0  0  0  0
  5 34  1  0  0  0  0
  5 35  1  0  0  0  0
  6  7  1  0  0  0  0
  6 36  1  0  0  0  0
  6 37  1  0  0  0  0
  7  8  1  0  0  0  0
  7 38  1  0  0  0  0
  7 39  1  0  0  0  0
  8  9  1  0  0  0  0
  8 10  2  0  0  0  0
  9 21  1  0  0  0  0
  9 40  1  0  0  0  0
 11 12  1  0  0  0  0
 11 20  1  0  0  0  0
 12 41  1  0  0  0  0
 12 42  1  0  0  0  0
 12 43  1  0  0  0  0
 13 26  1  0  0  0  0
 13 27  1  0  0  0  0
 14 32  1  0  0  0  0
 14 44  1  0  0  0  0
 14 45  1  0  0  0  0
 15 16  2  0  0  0  0
 15 17  1  0  0  0  0
 16 18  1  0  0  0  0
 16 46  1  0  0  0  0
 17 19  2  0  0  0  0
 17 47  1  0  0  0  0
 18 20  2  0  0  0  0
 18 48  1  0  0  0  0
 19 20  1  0  0  0  0
 19 49  1  0  0  0  0
 21 22  2  0  0  0  0
 21 23  1  0  0  0  0
 22 24  1  0  0  0  0
 22 50  1  0  0  0  0
 23 25  2  0  0  0  0
 23 51  1  0  0  0  0
 24 26  2  0  0  0  0
 24 52  1  0  0  0  0
 25 26  1  0  0  0  0
 25 53  1  0  0  0  0
 27 28  2  0  0  0  0
 27 29  1  0  0  0  0
 28 30  1  0  0  0  0
 28 54  1  0  0  0  0
 29 31  2  0  0  0  0
 29 55  1  0  0  0  0
 30 32  2  0  0  0  0
 30 56  1  0  0  0  0
 31 32  1  0  0  0  0
 31 57  1  0  0  0  0
M  END
>  <Mol_ID>
6355

>  <Formula>
C23H25N3O4S2

>  <MolWeight>
471.5923

>  <Cat>
E0808

>  <Name>
BI-6C9

>  <Target>
Apoptosis related

>  <Form>
free base

>  <CAS>
791835-21-7

>  <URL>
http://www.selleckchem.com/products/bl-6C9.html

$$$$
