BI-7273.cdx
 OpenBabel08302520413D

 49 51  0  0  0  0  0  0  0  0999 V2000
    1.3810   -0.2745    0.0189 C   0  0  0  0  0  0  0  0  0  0  0  0
    0.5399   -1.4289    0.0096 C   0  0  0  0  0  0  0  0  0  0  0  0
   -0.8565   -1.2102   -0.0680 C   0  0  0  0  0  0  0  0  0  0  0  0
   -1.3717    0.0939    0.0403 C   0  0  0  0  0  0  0  0  0  0  0  0
   -0.5356    1.1923    0.1977 C   0  0  0  0  0  0  0  0  0  0  0  0
    0.8395    1.0070    0.1604 C   0  0  0  0  0  0  0  0  0  0  0  0
    2.7369   -0.4639   -0.1028 O   0  0  0  0  0  0  0  0  0  0  0  0
    3.5382    0.6560   -0.4628 C   0  0  0  0  0  0  0  0  0  0  0  0
    1.1591   -2.8237   -0.0003 C   0  0  0  0  0  0  0  0  0  0  0  0
    2.4003   -3.0089    0.7841 N   0  0  0  0  0  0  0  0  0  0  0  0
    2.2027   -2.7477    2.2096 C   0  0  0  0  0  0  0  0  0  0  0  0
    2.9564   -4.3450    0.5873 C   0  0  0  0  0  0  0  0  0  0  0  0
   -1.8663   -2.0792   -0.3830 O   0  0  0  0  0  0  0  0  0  0  0  0
   -1.8810   -3.4103    0.0916 C   0  0  0  0  0  0  0  0  0  0  0  0
   -1.0747    2.5517    0.3594 C   0  0  0  0  0  0  0  0  0  0  0  0
   -1.3417    3.5072   -0.7337 C   0  0  0  0  0  0  0  0  0  0  0  0
   -1.7425    4.8051   -0.4295 C   0  0  0  0  0  0  0  0  0  0  0  0
   -1.9422    5.2160    0.9743 C   0  0  0  0  0  0  0  0  0  0  0  0
   -1.7134    4.2358    1.9429 N   0  0  0  0  0  0  0  0  0  0  0  0
   -1.2764    2.9610    1.6225 C   0  0  0  0  0  0  0  0  0  0  0  0
   -1.2024    3.1498   -2.0798 C   0  0  0  0  0  0  0  0  0  0  0  0
   -1.4614    4.1057   -3.0505 C   0  0  0  0  0  0  0  0  0  0  0  0
   -1.8346    5.3737   -2.7761 N   0  0  0  0  0  0  0  0  0  0  0  0
   -1.9676    5.6996   -1.4658 C   0  0  0  0  0  0  0  0  0  0  0  0
   -2.2942    6.3629    1.2323 O   0  0  0  0  0  0  0  0  0  0  0  0
   -1.9365    4.5973    3.3316 C   0  0  0  0  0  0  0  0  0  0  0  0
   -2.4495    0.2423   -0.0079 H   0  0  0  0  0  0  0  0  0  0  0  0
    1.4747    1.8825    0.2484 H   0  0  0  0  0  0  0  0  0  0  0  0
    3.1952    1.0978   -1.4048 H   0  0  0  0  0  0  0  0  0  0  0  0
    3.5647    1.4035    0.3372 H   0  0  0  0  0  0  0  0  0  0  0  0
    4.5639    0.3059   -0.6098 H   0  0  0  0  0  0  0  0  0  0  0  0
    0.4610   -3.5483    0.4110 H   0  0  0  0  0  0  0  0  0  0  0  0
    1.3325   -3.0881   -1.0512 H   0  0  0  0  0  0  0  0  0  0  0  0
    1.5071   -3.4594    2.6676 H   0  0  0  0  0  0  0  0  0  0  0  0
    3.1599   -2.8065    2.7396 H   0  0  0  0  0  0  0  0  0  0  0  0
    1.8218   -1.7378    2.3921 H   0  0  0  0  0  0  0  0  0  0  0  0
    2.3189   -5.1263    1.0170 H   0  0  0  0  0  0  0  0  0  0  0  0
    3.0965   -4.5621   -0.4772 H   0  0  0  0  0  0  0  0  0  0  0  0
    3.9462   -4.4141    1.0528 H   0  0  0  0  0  0  0  0  0  0  0  0
   -1.2864   -4.0542   -0.5621 H   0  0  0  0  0  0  0  0  0  0  0  0
   -1.5801   -3.4796    1.1398 H   0  0  0  0  0  0  0  0  0  0  0  0
   -2.9137   -3.7702    0.0228 H   0  0  0  0  0  0  0  0  0  0  0  0
   -1.0913    2.2993    2.4660 H   0  0  0  0  0  0  0  0  0  0  0  0
   -0.9017    2.1524   -2.3819 H   0  0  0  0  0  0  0  0  0  0  0  0
   -1.3747    3.8653   -4.1070 H   0  0  0  0  0  0  0  0  0  0  0  0
   -2.2720    6.7245   -1.2751 H   0  0  0  0  0  0  0  0  0  0  0  0
   -1.2687    5.4215    3.6002 H   0  0  0  0  0  0  0  0  0  0  0  0
   -2.9719    4.9353    3.4460 H   0  0  0  0  0  0  0  0  0  0  0  0
   -1.7604    3.7529    4.0048 H   0  0  0  0  0  0  0  0  0  0  0  0
  1  2  2  0  0  0  0
  1  7  1  0  0  0  0
  2  3  1  0  0  0  0
  2  9  1  0  0  0  0
  3  4  2  0  0  0  0
  3 13  1  0  0  0  0
  4  5  1  0  0  0  0
  4 27  1  0  0  0  0
  5  6  2  0  0  0  0
  5 15  1  0  0  0  0
  6  1  1  0  0  0  0
  6 28  1  0  0  0  0
  7  8  1  0  0  0  0
  8 29  1  0  0  0  0
  8 30  1  0  0  0  0
  8 31  1  0  0  0  0
  9 10  1  0  0  0  0
  9 32  1  0  0  0  0
  9 33  1  0  0  0  0
 10 11  1  0  0  0  0
 10 12  1  0  0  0  0
 11 34  1  0  0  0  0
 11 35  1  0  0  0  0
 11 36  1  0  0  0  0
 12 37  1  0  0  0  0
 12 38  1  0  0  0  0
 12 39  1  0  0  0  0
 13 14  1  0  0  0  0
 14 40  1  0  0  0  0
 14 41  1  0  0  0  0
 14 42  1  0  0  0  0
 15 16  1  0  0  0  0
 16 17  2  0  0  0  0
 16 21  1  0  0  0  0
 17 18  1  0  0  0  0
 18 19  1  0  0  0  0
 18 25  2  0  0  0  0
 19 20  1  0  0  0  0
 19 26  1  0  0  0  0
 20 15  2  0  0  0  0
 20 43  1  0  0  0  0
 21 22  2  0  0  0  0
 21 44  1  0  0  0  0
 22 23  1  0  0  0  0
 22 45  1  0  0  0  0
 23 24  2  0  0  0  0
 24 17  1  0  0  0  0
 24 46  1  0  0  0  0
 26 47  1  0  0  0  0
 26 48  1  0  0  0  0
 26 49  1  0  0  0  0
M  END
>  <Mol_ID>
3945

>  <Formula>
C20H23N3O3

>  <MolWeight>
353.41492

>  <Cat>
S8179

>  <Name>
BI-7273

>  <Synonyms>
N/A

>  <Target>
Epigenetic Reader Domain

>  <Form>
free base

>  <CAS>
1883429-21-7

>  <URL>
http://selleckchem.com/products/bi-7273.html

$$$$
