BI-847325.cdx
 OpenBabel08302519553D

 63 66  0  0  0  0  0  0  0  0999 V2000
    2.1402    0.9990    0.1815 C   0  0  0  0  0  0  0  0  0  0  0  0
    2.3359   -0.3965    0.1696 C   0  0  0  0  0  0  0  0  0  0  0  0
    1.2326   -1.2456    0.0750 C   0  0  0  0  0  0  0  0  0  0  0  0
   -0.0231   -0.6642   -0.0184 C   0  0  0  0  0  0  0  0  0  0  0  0
   -0.2467    0.7185   -0.0016 C   0  0  0  0  0  0  0  0  0  0  0  0
    0.8500    1.5615    0.1016 C   0  0  0  0  0  0  0  0  0  0  0  0
   -1.2158   -1.3499   -0.2089 N   0  0  0  0  0  0  0  0  0  0  0  0
   -2.2785   -0.4796   -0.3864 C   0  0  0  0  0  0  0  0  0  0  0  0
   -1.7189    0.9007   -0.1133 C   0  0  0  0  0  0  0  0  0  0  0  0
   -2.5125    1.9955   -0.0098 C   0  0  0  0  0  0  0  0  0  0  0  0
   -1.8918    3.3343   -0.0118 C   0  0  0  0  0  0  0  0  0  0  0  0
   -3.9079    2.0744    0.0572 N   0  0  0  0  0  0  0  0  0  0  0  0
   -1.6512    3.9781   -1.2349 C   0  0  0  0  0  0  0  0  0  0  0  0
   -1.0112    5.2163   -1.2623 C   0  0  0  0  0  0  0  0  0  0  0  0
   -0.6167    5.8204   -0.0693 C   0  0  0  0  0  0  0  0  0  0  0  0
   -0.8840    5.2014    1.1526 C   0  0  0  0  0  0  0  0  0  0  0  0
   -1.5282    3.9640    1.1839 C   0  0  0  0  0  0  0  0  0  0  0  0
   -4.6874    1.2874    0.9472 C   0  0  0  0  0  0  0  0  0  0  0  0
    3.6615   -0.9462    0.2049 C   0  0  0  0  0  0  0  0  0  0  0  0
    4.7857   -1.3842    0.1816 C   0  0  0  0  0  0  0  0  0  0  0  0
    6.1455   -1.8657    0.0975 C   0  0  0  0  0  0  0  0  0  0  0  0
    6.3494   -3.1719    0.4742 N   0  0  0  0  0  0  0  0  0  0  0  0
    7.6640   -3.7838    0.4517 C   0  0  0  0  0  0  0  0  0  0  0  0
    8.4268   -3.5400    1.7413 C   0  0  0  0  0  0  0  0  0  0  0  0
    7.0257   -1.1113   -0.2964 O   0  0  0  0  0  0  0  0  0  0  0  0
   -3.3735   -0.7903   -0.8148 O   0  0  0  0  0  0  0  0  0  0  0  0
   -4.2881    1.0641    2.2706 C   0  0  0  0  0  0  0  0  0  0  0  0
   -4.9840    0.1683    3.0905 C   0  0  0  0  0  0  0  0  0  0  0  0
   -6.1044   -0.5162    2.6049 C   0  0  0  0  0  0  0  0  0  0  0  0
   -6.5812   -0.1936    1.3272 C   0  0  0  0  0  0  0  0  0  0  0  0
   -5.8887    0.7124    0.5141 C   0  0  0  0  0  0  0  0  0  0  0  0
   -6.7056   -1.6752    3.3752 C   0  0  0  0  0  0  0  0  0  0  0  0
   -7.1199   -1.3709    4.7557 N   0  0  0  0  0  0  0  0  0  0  0  0
   -8.2493   -0.4391    4.7739 C   0  0  0  0  0  0  0  0  0  0  0  0
   -7.5002   -2.6153    5.4338 C   0  0  0  0  0  0  0  0  0  0  0  0
    3.0007    1.6649    0.2375 H   0  0  0  0  0  0  0  0  0  0  0  0
    1.3542   -2.3223    0.0543 H   0  0  0  0  0  0  0  0  0  0  0  0
    0.7504    2.6406    0.1018 H   0  0  0  0  0  0  0  0  0  0  0  0
   -1.3042   -2.3403   -0.3730 H   0  0  0  0  0  0  0  0  0  0  0  0
   -4.3142    2.0737   -0.8759 H   0  0  0  0  0  0  0  0  0  0  0  0
   -1.9560    3.5119   -2.1693 H   0  0  0  0  0  0  0  0  0  0  0  0
   -0.8180    5.7060   -2.2132 H   0  0  0  0  0  0  0  0  0  0  0  0
   -0.1053    6.7792   -0.0915 H   0  0  0  0  0  0  0  0  0  0  0  0
   -0.5872    5.6804    2.0819 H   0  0  0  0  0  0  0  0  0  0  0  0
   -1.7331    3.4854    2.1378 H   0  0  0  0  0  0  0  0  0  0  0  0
    5.5642   -3.7008    0.8265 H   0  0  0  0  0  0  0  0  0  0  0  0
    7.5231   -4.8589    0.2964 H   0  0  0  0  0  0  0  0  0  0  0  0
    8.2329   -3.3895   -0.3972 H   0  0  0  0  0  0  0  0  0  0  0  0
    7.8949   -3.9695    2.5965 H   0  0  0  0  0  0  0  0  0  0  0  0
    9.4190   -3.9997    1.6907 H   0  0  0  0  0  0  0  0  0  0  0  0
    8.5552   -2.4694    1.9304 H   0  0  0  0  0  0  0  0  0  0  0  0
   -3.4083    1.5625    2.6650 H   0  0  0  0  0  0  0  0  0  0  0  0
   -4.6227   -0.0272    4.0976 H   0  0  0  0  0  0  0  0  0  0  0  0
   -7.4654   -0.6864    0.9299 H   0  0  0  0  0  0  0  0  0  0  0  0
   -6.2573    0.8966   -0.4912 H   0  0  0  0  0  0  0  0  0  0  0  0
   -7.5427   -2.1085    2.8114 H   0  0  0  0  0  0  0  0  0  0  0  0
   -5.9242   -2.4485    3.3974 H   0  0  0  0  0  0  0  0  0  0  0  0
   -9.1170   -0.8311    4.2308 H   0  0  0  0  0  0  0  0  0  0  0  0
   -8.5563   -0.2333    5.8057 H   0  0  0  0  0  0  0  0  0  0  0  0
   -7.9737    0.5264    4.3381 H   0  0  0  0  0  0  0  0  0  0  0  0
   -8.3377   -3.1193    4.9361 H   0  0  0  0  0  0  0  0  0  0  0  0
   -6.6549   -3.3122    5.4701 H   0  0  0  0  0  0  0  0  0  0  0  0
   -7.7872   -2.4191    6.4729 H   0  0  0  0  0  0  0  0  0  0  0  0
  1  2  2  0  0  0  0
  1 36  1  0  0  0  0
  2  3  1  0  0  0  0
  2 19  1  0  0  0  0
  3  4  2  0  0  0  0
  3 37  1  0  0  0  0
  4  5  1  0  0  0  0
  4  7  1  0  0  0  0
  5  6  2  0  0  0  0
  6  1  1  0  0  0  0
  6 38  1  0  0  0  0
  7  8  1  0  0  0  0
  7 39  1  0  0  0  0
  8  9  1  0  0  0  0
  8 26  2  0  0  0  0
  9  5  1  0  0  0  0
  9 10  2  0  0  0  0
 10 11  1  0  0  0  0
 10 12  1  0  0  0  0
 11 13  2  0  0  0  0
 12 18  1  0  0  0  0
 12 40  1  0  0  0  0
 13 14  1  0  0  0  0
 13 41  1  0  0  0  0
 14 15  2  0  0  0  0
 14 42  1  0  0  0  0
 15 16  1  0  0  0  0
 15 43  1  0  0  0  0
 16 17  2  0  0  0  0
 16 44  1  0  0  0  0
 17 11  1  0  0  0  0
 17 45  1  0  0  0  0
 18 27  2  0  0  0  0
 19 20  3  0  0  0  0
 20 21  1  0  0  0  0
 21 22  1  0  0  0  0
 21 25  2  0  0  0  0
 22 23  1  0  0  0  0
 22 46  1  0  0  0  0
 23 24  1  0  0  0  0
 23 47  1  0  0  0  0
 23 48  1  0  0  0  0
 24 49  1  0  0  0  0
 24 50  1  0  0  0  0
 24 51  1  0  0  0  0
 27 28  1  0  0  0  0
 27 52  1  0  0  0  0
 28 29  2  0  0  0  0
 28 53  1  0  0  0  0
 29 30  1  0  0  0  0
 29 32  1  0  0  0  0
 30 31  2  0  0  0  0
 30 54  1  0  0  0  0
 31 18  1  0  0  0  0
 31 55  1  0  0  0  0
 32 33  1  0  0  0  0
 32 56  1  0  0  0  0
 32 57  1  0  0  0  0
 33 34  1  0  0  0  0
 33 35  1  0  0  0  0
 34 58  1  0  0  0  0
 34 59  1  0  0  0  0
 34 60  1  0  0  0  0
 35 61  1  0  0  0  0
 35 62  1  0  0  0  0
 35 63  1  0  0  0  0
M  END
>  <Mol_ID>
2164

>  <Formula>
C29H28N4O2

>  <MolWeight>
464.55822

>  <Cat>
S7843

>  <Name>
BI-847325

>  <Synonyms>
N/A

>  <Target>
Aurora Kinase,MEK

>  <Form>
free base

>  <CAS>
1207293-36-4

>  <URL>
http://selleckchem.com/products/bi-847325.html

$$$$
