BI-9564.cdx
 OpenBabel08302521403D

 49 51  0  0  0  0  0  0  0  0999 V2000
    4.4386   -1.3108    0.3404 N   0  0  0  0  0  0  0  0  0  0  0  0
    3.3015   -1.6886   -0.2955 C   0  0  0  0  0  0  0  0  0  0  0  0
    2.2069   -0.8559   -0.4618 C   0  0  0  0  0  0  0  0  0  0  0  0
    2.2747    0.4530    0.0149 C   0  0  0  0  0  0  0  0  0  0  0  0
    3.4355    0.8558    0.6867 C   0  0  0  0  0  0  0  0  0  0  0  0
    4.4742   -0.0532    0.8273 C   0  0  0  0  0  0  0  0  0  0  0  0
    0.9833   -1.3469   -1.1217 C   0  0  0  0  0  0  0  0  0  0  0  0
   -0.0722   -0.4319   -1.2220 N   0  0  0  0  0  0  0  0  0  0  0  0
    0.0352    0.8805   -0.8005 C   0  0  0  0  0  0  0  0  0  0  0  0
    1.1360    1.3729   -0.2041 C   0  0  0  0  0  0  0  0  0  0  0  0
    0.9302   -2.4990   -1.5356 O   0  0  0  0  0  0  0  0  0  0  0  0
   -1.2924   -0.8838   -1.8738 C   0  0  0  0  0  0  0  0  0  0  0  0
    1.1629    2.8294    0.0449 C   0  0  0  0  0  0  0  0  0  0  0  0
    1.7940    3.5941   -0.9652 C   0  0  0  0  0  0  0  0  0  0  0  0
    1.9301    4.9787   -0.8580 C   0  0  0  0  0  0  0  0  0  0  0  0
    1.4191    5.6278    0.2705 C   0  0  0  0  0  0  0  0  0  0  0  0
    0.7331    4.8740    1.2430 C   0  0  0  0  0  0  0  0  0  0  0  0
    0.6158    3.4823    1.1569 C   0  0  0  0  0  0  0  0  0  0  0  0
   -0.0976    2.9421    2.1904 O   0  0  0  0  0  0  0  0  0  0  0  0
    0.3093    1.6782    2.6956 C   0  0  0  0  0  0  0  0  0  0  0  0
    1.6608    7.1032    0.5216 C   0  0  0  0  0  0  0  0  0  0  0  0
    2.3867    7.3419    1.7888 N   0  0  0  0  0  0  0  0  0  0  0  0
    3.7219    6.7367    1.7694 C   0  0  0  0  0  0  0  0  0  0  0  0
    2.4978    8.7782    2.0400 C   0  0  0  0  0  0  0  0  0  0  0  0
    2.5169    5.7665   -1.8118 O   0  0  0  0  0  0  0  0  0  0  0  0
    3.5175    5.1549   -2.6163 C   0  0  0  0  0  0  0  0  0  0  0  0
    3.3016   -2.7072   -0.6710 H   0  0  0  0  0  0  0  0  0  0  0  0
    3.5394    1.8490    1.1089 H   0  0  0  0  0  0  0  0  0  0  0  0
    5.3873    0.2178    1.3505 H   0  0  0  0  0  0  0  0  0  0  0  0
   -0.8226    1.5196   -1.0036 H   0  0  0  0  0  0  0  0  0  0  0  0
   -1.0589   -1.1601   -2.9062 H   0  0  0  0  0  0  0  0  0  0  0  0
   -1.6647   -1.7690   -1.3501 H   0  0  0  0  0  0  0  0  0  0  0  0
   -2.0628   -0.1103   -1.8674 H   0  0  0  0  0  0  0  0  0  0  0  0
    2.1674    3.0778   -1.8459 H   0  0  0  0  0  0  0  0  0  0  0  0
    0.3292    5.3850    2.1174 H   0  0  0  0  0  0  0  0  0  0  0  0
   -0.2248    0.8772    2.1787 H   0  0  0  0  0  0  0  0  0  0  0  0
    1.3923    1.5343    2.6581 H   0  0  0  0  0  0  0  0  0  0  0  0
    0.0185    1.6347    3.7504 H   0  0  0  0  0  0  0  0  0  0  0  0
    2.1981    7.5723   -0.3118 H   0  0  0  0  0  0  0  0  0  0  0  0
    0.6757    7.5870    0.5609 H   0  0  0  0  0  0  0  0  0  0  0  0
    4.3487    7.1376    0.9651 H   0  0  0  0  0  0  0  0  0  0  0  0
    4.2299    6.9079    2.7249 H   0  0  0  0  0  0  0  0  0  0  0  0
    3.6710    5.6484    1.6549 H   0  0  0  0  0  0  0  0  0  0  0  0
    3.0629    9.2933    1.2547 H   0  0  0  0  0  0  0  0  0  0  0  0
    1.5053    9.2362    2.1108 H   0  0  0  0  0  0  0  0  0  0  0  0
    2.9964    8.9605    2.9986 H   0  0  0  0  0  0  0  0  0  0  0  0
    4.2580    4.6328   -2.0013 H   0  0  0  0  0  0  0  0  0  0  0  0
    3.0733    4.4838   -3.3575 H   0  0  0  0  0  0  0  0  0  0  0  0
    4.0362    5.9514   -3.1593 H   0  0  0  0  0  0  0  0  0  0  0  0
  1  2  2  0  0  0  0
  2  3  1  0  0  0  0
  2 27  1  0  0  0  0
  3  4  2  0  0  0  0
  3  7  1  0  0  0  0
  4  5  1  0  0  0  0
  5  6  2  0  0  0  0
  5 28  1  0  0  0  0
  6  1  1  0  0  0  0
  6 29  1  0  0  0  0
  7  8  1  0  0  0  0
  7 11  2  0  0  0  0
  8  9  1  0  0  0  0
  8 12  1  0  0  0  0
  9 10  2  0  0  0  0
  9 30  1  0  0  0  0
 10  4  1  0  0  0  0
 10 13  1  0  0  0  0
 12 31  1  0  0  0  0
 12 32  1  0  0  0  0
 12 33  1  0  0  0  0
 13 14  2  0  0  0  0
 14 15  1  0  0  0  0
 14 34  1  0  0  0  0
 15 16  2  0  0  0  0
 15 25  1  0  0  0  0
 16 17  1  0  0  0  0
 16 21  1  0  0  0  0
 17 18  2  0  0  0  0
 17 35  1  0  0  0  0
 18 13  1  0  0  0  0
 18 19  1  0  0  0  0
 19 20  1  0  0  0  0
 20 36  1  0  0  0  0
 20 37  1  0  0  0  0
 20 38  1  0  0  0  0
 21 22  1  0  0  0  0
 21 39  1  0  0  0  0
 21 40  1  0  0  0  0
 22 23  1  0  0  0  0
 22 24  1  0  0  0  0
 23 41  1  0  0  0  0
 23 42  1  0  0  0  0
 23 43  1  0  0  0  0
 24 44  1  0  0  0  0
 24 45  1  0  0  0  0
 24 46  1  0  0  0  0
 25 26  1  0  0  0  0
 26 47  1  0  0  0  0
 26 48  1  0  0  0  0
 26 49  1  0  0  0  0
M  END
>  <Mol_ID>
8242

>  <Formula>
C20H23N3O3

>  <MolWeight>
353.41492

>  <Cat>
S8113

>  <Name>
BI-9564

>  <Synonyms>
N/A

>  <Target>
Epigenetic Reader Domain

>  <Form>
Free Base

>  <CAS>
1883429-22-8

>  <URL>
http://selleckchem.com/products/bi-9564.html

$$$$
