BI-D1870.cdx
 OpenBabel08302522003D

 51 53  0  0  0  0  0  0  0  0999 V2000
    1.7007    2.4731    3.5868 C   0  0  0  0  0  0  0  0  0  0  0  0
    1.7960    1.6995    2.4309 C   0  0  0  0  0  0  0  0  0  0  0  0
    1.1137    2.0564    1.2669 C   0  0  0  0  0  0  0  0  0  0  0  0
    0.2915    3.1915    1.2487 C   0  0  0  0  0  0  0  0  0  0  0  0
    0.2206    3.9726    2.4155 C   0  0  0  0  0  0  0  0  0  0  0  0
    0.9130    3.6135    3.5692 C   0  0  0  0  0  0  0  0  0  0  0  0
    2.3786    2.1274    4.7218 O   0  0  0  0  0  0  0  0  0  0  0  0
    2.5658    0.6081    2.4492 F   0  0  0  0  0  0  0  0  0  0  0  0
    0.8101    4.3913    4.6563 F   0  0  0  0  0  0  0  0  0  0  0  0
   -0.3852    3.5896    0.0771 N   0  0  0  0  0  0  0  0  0  0  0  0
   -1.6224    4.2492    0.0389 C   0  0  0  0  0  0  0  0  0  0  0  0
   -1.8885    5.0513   -1.0056 N   0  0  0  0  0  0  0  0  0  0  0  0
   -3.0437    5.7553   -0.9963 C   0  0  0  0  0  0  0  0  0  0  0  0
   -3.9874    5.5969    0.0288 C   0  0  0  0  0  0  0  0  0  0  0  0
   -3.6395    4.7065    1.0186 C   0  0  0  0  0  0  0  0  0  0  0  0
   -2.4779    4.0412    1.0493 N   0  0  0  0  0  0  0  0  0  0  0  0
   -3.2994    6.6698   -2.0161 N   0  0  0  0  0  0  0  0  0  0  0  0
   -4.7023    7.0353   -2.2503 C   0  0  3  0  0  0  0  0  0  0  0  0
   -5.4579    7.2853   -0.9426 C   0  0  0  0  0  0  0  0  0  0  0  0
   -5.1942    6.3581    0.0621 N   0  0  0  0  0  0  0  0  0  0  0  0
   -6.1742    6.1553    1.1095 C   0  0  0  0  0  0  0  0  0  0  0  0
   -6.3366    8.1447   -0.8632 O   0  0  0  0  0  0  0  0  0  0  0  0
   -2.2745    7.0921   -2.9643 C   0  0  0  0  0  0  0  0  0  0  0  0
   -5.4399    5.9203   -2.9977 C   0  0  0  0  0  0  0  0  0  0  0  0
   -2.0179    8.6109   -2.8775 C   0  0  0  0  0  0  0  0  0  0  0  0
   -1.5610    9.1177   -1.4949 C   0  0  0  0  0  0  0  0  0  0  0  0
   -0.2015    8.5452   -1.0963 C   0  0  0  0  0  0  0  0  0  0  0  0
   -1.4937   10.6487   -1.4780 C   0  0  0  0  0  0  0  0  0  0  0  0
    1.2222    1.4304    0.3873 H   0  0  0  0  0  0  0  0  0  0  0  0
   -0.3693    4.8844    2.4409 H   0  0  0  0  0  0  0  0  0  0  0  0
    2.8721    1.3111    4.5249 H   0  0  0  0  0  0  0  0  0  0  0  0
   -0.3169    2.9766   -0.7237 H   0  0  0  0  0  0  0  0  0  0  0  0
   -4.2788    4.5019    1.8709 H   0  0  0  0  0  0  0  0  0  0  0  0
   -4.7600    7.9580   -2.8377 H   0  0  0  0  0  0  0  0  0  0  0  0
   -6.5428    5.1258    1.0353 H   0  0  0  0  0  0  0  0  0  0  0  0
   -5.7285    6.3294    2.0916 H   0  0  0  0  0  0  0  0  0  0  0  0
   -7.0341    6.8198    0.9891 H   0  0  0  0  0  0  0  0  0  0  0  0
   -1.3284    6.5552   -2.8396 H   0  0  0  0  0  0  0  0  0  0  0  0
   -2.6132    6.8577   -3.9815 H   0  0  0  0  0  0  0  0  0  0  0  0
   -6.4946    6.1855   -3.1339 H   0  0  0  0  0  0  0  0  0  0  0  0
   -4.9970    5.7392   -3.9810 H   0  0  0  0  0  0  0  0  0  0  0  0
   -5.4220    4.9731   -2.4456 H   0  0  0  0  0  0  0  0  0  0  0  0
   -1.2671    8.8808   -3.6317 H   0  0  0  0  0  0  0  0  0  0  0  0
   -2.9313    9.1478   -3.1642 H   0  0  0  0  0  0  0  0  0  0  0  0
   -2.3002    8.8179   -0.7427 H   0  0  0  0  0  0  0  0  0  0  0  0
    0.5797    8.8599   -1.7969 H   0  0  0  0  0  0  0  0  0  0  0  0
    0.0827    8.8903   -0.0967 H   0  0  0  0  0  0  0  0  0  0  0  0
   -0.2137    7.4528   -1.0717 H   0  0  0  0  0  0  0  0  0  0  0  0
   -2.4490   11.0903   -1.7809 H   0  0  0  0  0  0  0  0  0  0  0  0
   -1.2670   11.0115   -0.4691 H   0  0  0  0  0  0  0  0  0  0  0  0
   -0.7165   11.0238   -2.1526 H   0  0  0  0  0  0  0  0  0  0  0  0
  1  2  2  0  0  0  0
  1  7  1  0  0  0  0
  2  3  1  0  0  0  0
  2  8  1  0  0  0  0
  3  4  2  0  0  0  0
  3 29  1  0  0  0  0
  4  5  1  0  0  0  0
  4 10  1  0  0  0  0
  5  6  2  0  0  0  0
  5 30  1  0  0  0  0
  6  1  1  0  0  0  0
  6  9  1  0  0  0  0
  7 31  1  0  0  0  0
 10 11  1  0  0  0  0
 10 32  1  0  0  0  0
 11 12  2  0  0  0  0
 12 13  1  0  0  0  0
 13 14  2  0  0  0  0
 13 17  1  0  0  0  0
 14 15  1  0  0  0  0
 15 16  2  0  0  0  0
 15 33  1  0  0  0  0
 16 11  1  0  0  0  0
 17 18  1  0  0  0  0
 17 23  1  0  0  0  0
 18 19  1  0  0  0  0
 18 24  1  0  0  0  0
 18 34  1  0  0  0  0
 19 20  1  0  0  0  0
 19 22  2  0  0  0  0
 20 14  1  0  0  0  0
 20 21  1  0  0  0  0
 21 35  1  0  0  0  0
 21 36  1  0  0  0  0
 21 37  1  0  0  0  0
 23 25  1  0  0  0  0
 23 38  1  0  0  0  0
 23 39  1  0  0  0  0
 24 40  1  0  0  0  0
 24 41  1  0  0  0  0
 24 42  1  0  0  0  0
 25 26  1  0  0  0  0
 25 43  1  0  0  0  0
 25 44  1  0  0  0  0
 26 27  1  0  0  0  0
 26 28  1  0  0  0  0
 26 45  1  0  0  0  0
 27 46  1  0  0  0  0
 27 47  1  0  0  0  0
 27 48  1  0  0  0  0
 28 49  1  0  0  0  0
 28 50  1  0  0  0  0
 28 51  1  0  0  0  0
M  END
>  <Mol_ID>
1068

>  <Formula>
C19H23F2N5O2

>  <MolWeight>
391.4150264

>  <Cat>
S2843

>  <Name>
BI-D1870

>  <Synonyms>
N/A

>  <Target>
Autophagy,ROS,S6 Kinase

>  <Form>
free base

>  <CAS>
501437-28-1

>  <URL>
http://selleckchem.com/products/bi-d1870.html

$$$$
