BI6015
 OpenBabel08302521323D

 36 38  0  0  0  0  0  0  0  0999 V2000
    1.3313    0.5222   -1.3497 C   0  0  0  0  0  0  0  0  0  0  0  0
    0.9754   -0.7317   -1.1295 N   0  0  0  0  0  0  0  0  0  0  0  0
    0.9477   -0.8943    0.2289 C   0  0  0  0  0  0  0  0  0  0  0  0
    1.2428    0.2997    0.8860 C   0  0  0  0  0  0  0  0  0  0  0  0
    1.5820    1.1546   -0.1483 N   0  0  0  0  0  0  0  0  0  0  0  0
    0.6633   -2.0528    0.9677 C   0  0  0  0  0  0  0  0  0  0  0  0
    0.6653   -1.9825    2.3632 C   0  0  0  0  0  0  0  0  0  0  0  0
    0.9062   -0.7705    3.0080 C   0  0  0  0  0  0  0  0  0  0  0  0
    1.1885    0.3980    2.2863 C   0  0  0  0  0  0  0  0  0  0  0  0
    2.1398    2.7457    0.0496 S   0  0  0  0  0  0  0  0  0  0  0  0
    2.7315    2.8050    1.3690 O   0  0  0  0  0  0  0  0  0  0  0  0
    2.9179    3.0499   -1.1342 O   0  0  0  0  0  0  0  0  0  0  0  0
    0.7278    3.8407    0.0792 C   0  0  0  0  0  0  0  0  0  0  0  0
    0.9367    5.2407    0.1557 C   0  0  0  0  0  0  0  0  0  0  0  0
   -0.1764    6.0848    0.3194 C   0  0  0  0  0  0  0  0  0  0  0  0
   -1.4686    5.5666    0.4105 C   0  0  0  0  0  0  0  0  0  0  0  0
   -1.6584    4.1834    0.3075 C   0  0  0  0  0  0  0  0  0  0  0  0
   -0.5704    3.3174    0.1287 C   0  0  0  0  0  0  0  0  0  0  0  0
   -3.0152    3.6301    0.4242 N   0  3  0  0  0  0  0  0  0  0  0  0
   -3.9427    4.4198    0.6534 O   0  0  0  0  0  0  0  0  0  0  0  0
   -3.1463    2.4089    0.2819 O   0  5  0  0  0  0  0  0  0  0  0  0
    2.3002    5.8791    0.0765 C   0  0  0  0  0  0  0  0  0  0  0  0
    1.4411    1.0785   -2.7232 C   0  0  0  0  0  0  0  0  0  0  0  0
    0.4582   -2.9864    0.4556 H   0  0  0  0  0  0  0  0  0  0  0  0
    0.4745   -2.8814    2.9457 H   0  0  0  0  0  0  0  0  0  0  0  0
    0.8915   -0.7368    4.0964 H   0  0  0  0  0  0  0  0  0  0  0  0
    1.3851    1.3245    2.8172 H   0  0  0  0  0  0  0  0  0  0  0  0
   -0.0428    7.1639    0.3930 H   0  0  0  0  0  0  0  0  0  0  0  0
   -2.3021    6.2461    0.5614 H   0  0  0  0  0  0  0  0  0  0  0  0
   -0.7560    2.2496    0.0596 H   0  0  0  0  0  0  0  0  0  0  0  0
    2.9531    5.5065    0.8704 H   0  0  0  0  0  0  0  0  0  0  0  0
    2.7542    5.6959   -0.9017 H   0  0  0  0  0  0  0  0  0  0  0  0
    2.2378    6.9665    0.1991 H   0  0  0  0  0  0  0  0  0  0  0  0
    2.2130    0.5321   -3.2757 H   0  0  0  0  0  0  0  0  0  0  0  0
    0.4914    0.9297   -3.2482 H   0  0  0  0  0  0  0  0  0  0  0  0
    1.6618    2.1412   -2.7829 H   0  0  0  0  0  0  0  0  0  0  0  0
  1  2  2  0  0  0  0
  1  5  1  0  0  0  0
  1 23  1  0  0  0  0
  2  3  1  0  0  0  0
  3  4  2  0  0  0  0
  4  5  1  0  0  0  0
  5 10  1  0  0  0  0
  6  7  2  0  0  0  0
  6  3  1  0  0  0  0
  6 24  1  0  0  0  0
  7  8  1  0  0  0  0
  7 25  1  0  0  0  0
  8  9  2  0  0  0  0
  8 26  1  0  0  0  0
  9  4  1  0  0  0  0
  9 27  1  0  0  0  0
 10 11  2  0  0  0  0
 10 12  2  0  0  0  0
 10 13  1  0  0  0  0
 13 14  2  0  0  0  0
 13 18  1  0  0  0  0
 14 15  1  0  0  0  0
 14 22  1  0  0  0  0
 15 16  2  0  0  0  0
 15 28  1  0  0  0  0
 16 17  1  0  0  0  0
 16 29  1  0  0  0  0
 17 18  2  0  0  0  0
 17 19  1  0  0  0  0
 18 30  1  0  0  0  0
 19 20  2  0  0  0  0
 19 21  1  0  0  0  0
 22 31  1  0  0  0  0
 22 32  1  0  0  0  0
 22 33  1  0  0  0  0
 23 34  1  0  0  0  0
 23 35  1  0  0  0  0
 23 36  1  0  0  0  0
M  CHG  2  19   1  21  -1
M  END
>  <Mol_ID>
6268

>  <Formula>
C15H13N3O4S

>  <MolWeight>
331.34642

>  <Cat>
E0401

>  <Name>
BI6015

>  <Target>
Others

>  <Form>
free base

>  <CAS>
93987-29-2

>  <URL>
http://www.selleckchem.com/products/bi6015.html

$$$$
