BI 01383298
 OpenBabel08302521323D

 47 49  0  0  0  0  0  0  0  0999 V2000
    0.9470    0.0635    0.0353 S   0  0  0  0  0  0  0  0  0  0  0  0
    0.5601    1.3358    0.6072 O   0  0  0  0  0  0  0  0  0  0  0  0
    0.4950   -0.3115   -1.2907 O   0  0  0  0  0  0  0  0  0  0  0  0
    6.9072   -0.0386   -0.8714 C   0  0  0  0  0  0  0  0  0  0  0  0
    7.6019    1.0103   -1.4307 N   0  0  0  0  0  0  0  0  0  0  0  0
    7.4540   -0.9140   -0.2065 O   0  0  0  0  0  0  0  0  0  0  0  0
    9.0291    1.1630   -1.2298 C   0  0  0  0  0  0  0  0  0  0  0  0
   11.9480   -1.4548   -5.2819 F   0  0  0  0  0  0  0  0  0  0  0  0
    0.4204   -1.2059    1.1752 C   0  0  0  0  0  0  0  0  0  0  0  0
    0.2355   -0.8767    2.5238 C   0  0  0  0  0  0  0  0  0  0  0  0
    0.0034   -2.4497    0.6940 C   0  0  0  0  0  0  0  0  0  0  0  0
   -0.3524   -1.8058    3.3900 C   0  0  0  0  0  0  0  0  0  0  0  0
   -0.5821   -3.3741    1.5660 C   0  0  0  0  0  0  0  0  0  0  0  0
   -0.7591   -3.0482    2.9124 C   0  0  0  0  0  0  0  0  0  0  0  0
    2.6777   -0.0014    0.0209 N   0  0  0  0  0  0  0  0  0  0  0  0
    3.2228   -1.2330   -0.6197 C   0  0  0  0  0  0  0  0  0  0  0  0
    3.2484    1.2301   -0.6098 C   0  0  0  0  0  0  0  0  0  0  0  0
    4.7426   -1.2623   -0.5194 C   0  0  0  0  0  0  0  0  0  0  0  0
    4.7714    1.2432   -0.5327 C   0  0  0  0  0  0  0  0  0  0  0  0
    5.4000   -0.0173   -1.1332 C   0  0  0  0  0  0  0  0  0  0  0  0
    9.8258    0.4759   -2.3091 C   0  0  0  0  0  0  0  0  0  0  0  0
   10.1871    1.1583   -3.4812 C   0  0  0  0  0  0  0  0  0  0  0  0
   10.1946   -0.8718   -2.1625 C   0  0  0  0  0  0  0  0  0  0  0  0
   10.9079    0.5046   -4.4826 C   0  0  0  0  0  0  0  0  0  0  0  0
   10.9147   -1.5230   -3.1643 C   0  0  0  0  0  0  0  0  0  0  0  0
   11.2630   -0.8292   -4.3156 C   0  0  0  0  0  0  0  0  0  0  0  0
    7.1615    1.5867   -2.1334 H   0  0  0  0  0  0  0  0  0  0  0  0
    9.2468    2.2371   -1.2250 H   0  0  0  0  0  0  0  0  0  0  0  0
    9.3125    0.7771   -0.2434 H   0  0  0  0  0  0  0  0  0  0  0  0
    0.5033    0.1086    2.8977 H   0  0  0  0  0  0  0  0  0  0  0  0
    0.0944   -2.6988   -0.3599 H   0  0  0  0  0  0  0  0  0  0  0  0
   -0.5161   -1.5455    4.4348 H   0  0  0  0  0  0  0  0  0  0  0  0
   -0.9268   -4.3350    1.1927 H   0  0  0  0  0  0  0  0  0  0  0  0
   -1.2372   -3.7590    3.5833 H   0  0  0  0  0  0  0  0  0  0  0  0
    2.9219   -1.2768   -1.6725 H   0  0  0  0  0  0  0  0  0  0  0  0
    2.8324   -2.1176   -0.1085 H   0  0  0  0  0  0  0  0  0  0  0  0
    2.8849    2.1162   -0.0785 H   0  0  0  0  0  0  0  0  0  0  0  0
    2.9247    1.2986   -1.6554 H   0  0  0  0  0  0  0  0  0  0  0  0
    5.1205   -2.1612   -1.0225 H   0  0  0  0  0  0  0  0  0  0  0  0
    5.0288   -1.3507    0.5368 H   0  0  0  0  0  0  0  0  0  0  0  0
    5.0865    1.3472    0.5134 H   0  0  0  0  0  0  0  0  0  0  0  0
    5.1419    2.1346   -1.0547 H   0  0  0  0  0  0  0  0  0  0  0  0
    5.2449   -0.0298   -2.2197 H   0  0  0  0  0  0  0  0  0  0  0  0
    9.9138    2.2018   -3.6191 H   0  0  0  0  0  0  0  0  0  0  0  0
    9.9139   -1.4205   -1.2638 H   0  0  0  0  0  0  0  0  0  0  0  0
   11.1938    1.0243   -5.3914 H   0  0  0  0  0  0  0  0  0  0  0  0
   11.1996   -2.5642   -3.0535 H   0  0  0  0  0  0  0  0  0  0  0  0
  1  2  2  0  0  0  0
  1  3  2  0  0  0  0
  1  9  1  0  0  0  0
  1 15  1  0  0  0  0
  4  5  1  0  0  0  0
  4  6  2  0  0  0  0
  4 20  1  0  0  0  0
  5  7  1  0  0  0  0
  5 27  1  0  0  0  0
  7 21  1  0  0  0  0
  7 28  1  0  0  0  0
  7 29  1  0  0  0  0
  8 26  1  0  0  0  0
  9 10  2  0  0  0  0
  9 11  1  0  0  0  0
 10 12  1  0  0  0  0
 10 30  1  0  0  0  0
 11 13  2  0  0  0  0
 11 31  1  0  0  0  0
 12 14  2  0  0  0  0
 12 32  1  0  0  0  0
 13 14  1  0  0  0  0
 13 33  1  0  0  0  0
 14 34  1  0  0  0  0
 15 16  1  0  0  0  0
 15 17  1  0  0  0  0
 16 18  1  0  0  0  0
 16 35  1  0  0  0  0
 16 36  1  0  0  0  0
 17 19  1  0  0  0  0
 17 37  1  0  0  0  0
 17 38  1  0  0  0  0
 18 20  1  0  0  0  0
 18 39  1  0  0  0  0
 18 40  1  0  0  0  0
 19 20  1  0  0  0  0
 19 41  1  0  0  0  0
 19 42  1  0  0  0  0
 20 43  1  0  0  0  0
 21 22  2  0  0  0  0
 21 23  1  0  0  0  0
 22 24  1  0  0  0  0
 22 44  1  0  0  0  0
 23 25  2  0  0  0  0
 23 45  1  0  0  0  0
 24 26  2  0  0  0  0
 24 46  1  0  0  0  0
 25 26  1  0  0  0  0
 25 47  1  0  0  0  0
M  END
>  <Mol_ID>
6142

>  <Formula>
C19H19Cl2FN2O3S

>  <MolWeight>
445.3351632

>  <Cat>
S0073

>  <Name>
BI 01383298

>  <Synonyms>
N/A

>  <Target>
Sodium Channel

>  <Form>
free base

>  <CAS>
2227549-00-8

>  <URL>
http://www.selleckchem.com/products/bi-01383298.html

$$$$
