BI 894999
 OpenBabel08302521263D

 59 63  0  0  0  0  0  0  0  0999 V2000
    3.0782    4.4812   -2.8294 O   0  0  0  0  0  0  0  0  0  0  0  0
    3.8984    2.5764    9.9298 O   0  0  0  0  0  0  0  0  0  0  0  0
    2.3514    2.0524    3.5851 N   0  0  0  0  0  0  0  0  0  0  0  0
    4.7333    1.9671    0.2008 N   0  0  0  0  0  0  0  0  0  0  0  0
    4.5706    2.0713    3.8436 N   0  0  0  0  0  0  0  0  0  0  0  0
    2.4090    2.4054    6.6663 N   0  0  0  0  0  0  0  0  0  0  0  0
    2.5706    2.5534    8.0327 N   0  0  0  0  0  0  0  0  0  0  0  0
    3.0724    1.8672   -1.5457 C   0  0  0  0  0  0  0  0  0  0  0  0
    1.7963    2.5877   -2.0009 C   0  0  0  0  0  0  0  0  0  0  0  0
    4.2299    2.3847   -2.4416 C   0  0  0  0  0  0  0  0  0  0  0  0
    3.4032    1.9716   -0.0557 C   0  0  0  0  0  0  0  0  0  0  0  0
    1.9837    4.1001   -1.9975 C   0  0  0  0  0  0  0  0  0  0  0  0
    4.3140    3.9073   -2.3986 C   0  0  0  0  0  0  0  0  0  0  0  0
    2.9052    2.0206    2.3012 C   0  0  0  0  0  0  0  0  0  0  0  0
    0.9300    2.1046    3.9935 C   0  0  2  0  0  0  0  0  0  0  0  0
    2.4324    1.9826    0.9702 C   0  0  0  0  0  0  0  0  0  0  0  0
    4.2814    2.0276    2.5237 C   0  0  0  0  0  0  0  0  0  0  0  0
    3.4242    2.1349    4.4916 C   0  0  0  0  0  0  0  0  0  0  0  0
    5.1783    1.9956    1.4684 C   0  0  0  0  0  0  0  0  0  0  0  0
   -0.0501    1.3097    3.1238 C   0  0  0  0  0  0  0  0  0  0  0  0
    0.4729    3.5506    4.2367 C   0  0  0  0  0  0  0  0  0  0  0  0
    3.4822    2.2979    5.9458 C   0  0  0  0  0  0  0  0  0  0  0  0
   -0.8708    1.9216    2.1569 C   0  0  0  0  0  0  0  0  0  0  0  0
   -0.2313   -0.0670    3.3537 C   0  0  0  0  0  0  0  0  0  0  0  0
    4.8527    2.3626    6.5331 C   0  0  0  0  0  0  0  0  0  0  0  0
    5.0021    2.4464    7.8571 C   0  0  0  0  0  0  0  0  0  0  0  0
   -1.8172    1.1866    1.4358 C   0  0  0  0  0  0  0  0  0  0  0  0
   -1.1873   -0.7991    2.6389 C   0  0  0  0  0  0  0  0  0  0  0  0
    3.7905    2.5176    8.7065 C   0  0  0  0  0  0  0  0  0  0  0  0
   -1.9750   -0.1739    1.6762 C   0  0  0  0  0  0  0  0  0  0  0  0
    6.3381    2.5311    8.5264 C   0  0  0  0  0  0  0  0  0  0  0  0
    1.3731    2.7799    8.8128 C   0  0  0  0  0  0  0  0  0  0  0  0
    2.9532    0.7939   -1.7457 H   0  0  0  0  0  0  0  0  0  0  0  0
    1.5911    2.2736   -3.0344 H   0  0  0  0  0  0  0  0  0  0  0  0
    0.9235    2.3012   -1.4087 H   0  0  0  0  0  0  0  0  0  0  0  0
    5.1975    1.9439   -2.1754 H   0  0  0  0  0  0  0  0  0  0  0  0
    4.0276    2.0787   -3.4764 H   0  0  0  0  0  0  0  0  0  0  0  0
    1.0868    4.5800   -2.4001 H   0  0  0  0  0  0  0  0  0  0  0  0
    2.1403    4.4892   -0.9851 H   0  0  0  0  0  0  0  0  0  0  0  0
    4.5644    4.2856   -1.4009 H   0  0  0  0  0  0  0  0  0  0  0  0
    5.0955    4.2559   -3.0821 H   0  0  0  0  0  0  0  0  0  0  0  0
    0.8920    1.5974    4.9655 H   0  0  0  0  0  0  0  0  0  0  0  0
    1.3779    1.9474    0.7415 H   0  0  0  0  0  0  0  0  0  0  0  0
    6.2506    1.9995    1.6163 H   0  0  0  0  0  0  0  0  0  0  0  0
   -0.5775    3.5824    4.5524 H   0  0  0  0  0  0  0  0  0  0  0  0
    1.0587    4.0332    5.0235 H   0  0  0  0  0  0  0  0  0  0  0  0
    0.5760    4.1666    3.3373 H   0  0  0  0  0  0  0  0  0  0  0  0
   -0.7967    2.9868    1.9515 H   0  0  0  0  0  0  0  0  0  0  0  0
    0.3468   -0.5811    4.1198 H   0  0  0  0  0  0  0  0  0  0  0  0
    5.7085    2.3415    5.8684 H   0  0  0  0  0  0  0  0  0  0  0  0
   -2.4418    1.6817    0.6957 H   0  0  0  0  0  0  0  0  0  0  0  0
   -1.3282   -1.8582    2.8438 H   0  0  0  0  0  0  0  0  0  0  0  0
   -2.7183   -0.7430    1.1227 H   0  0  0  0  0  0  0  0  0  0  0  0
    6.6171    1.5600    8.9481 H   0  0  0  0  0  0  0  0  0  0  0  0
    7.1237    2.8320    7.8233 H   0  0  0  0  0  0  0  0  0  0  0  0
    6.3343    3.2717    9.3328 H   0  0  0  0  0  0  0  0  0  0  0  0
    1.2546    1.9679    9.5360 H   0  0  0  0  0  0  0  0  0  0  0  0
    1.4860    3.7230    9.3579 H   0  0  0  0  0  0  0  0  0  0  0  0
    0.4965    2.8363    8.1630 H   0  0  0  0  0  0  0  0  0  0  0  0
  1 12  1  0  0  0  0
  1 13  1  0  0  0  0
  2 29  2  0  0  0  0
  3 14  1  0  0  0  0
  3 18  1  0  0  0  0
  4 11  2  0  0  0  0
  4 19  1  0  0  0  0
  5 17  1  0  0  0  0
  5 18  2  0  0  0  0
  6  7  1  0  0  0  0
  6 22  2  0  0  0  0
  7 29  1  0  0  0  0
  7 32  1  0  0  0  0
  8  9  1  0  0  0  0
  8 10  1  0  0  0  0
  8 11  1  0  0  0  0
  8 33  1  0  0  0  0
  9 12  1  0  0  0  0
  9 34  1  0  0  0  0
  9 35  1  0  0  0  0
 10 13  1  0  0  0  0
 10 36  1  0  0  0  0
 10 37  1  0  0  0  0
 11 16  1  0  0  0  0
 12 38  1  0  0  0  0
 12 39  1  0  0  0  0
 13 40  1  0  0  0  0
 13 41  1  0  0  0  0
 14 16  2  0  0  0  0
 14 17  1  0  0  0  0
 15 21  1  0  0  0  0
 15 42  1  1  0  0  0
 15 20  1  0  0  0  0
 15  3  1  0  0  0  0
 16 43  1  0  0  0  0
 17 19  2  0  0  0  0
 18 22  1  0  0  0  0
 19 44  1  0  0  0  0
 20 23  2  0  0  0  0
 20 24  1  0  0  0  0
 21 45  1  0  0  0  0
 21 46  1  0  0  0  0
 21 47  1  0  0  0  0
 22 25  1  0  0  0  0
 23 27  1  0  0  0  0
 23 48  1  0  0  0  0
 24 28  2  0  0  0  0
 24 49  1  0  0  0  0
 25 26  2  0  0  0  0
 25 50  1  0  0  0  0
 26 29  1  0  0  0  0
 26 31  1  0  0  0  0
 27 30  2  0  0  0  0
 27 51  1  0  0  0  0
 28 30  1  0  0  0  0
 28 52  1  0  0  0  0
 30 53  1  0  0  0  0
 31 54  1  0  0  0  0
 31 55  1  0  0  0  0
 31 56  1  0  0  0  0
 32 57  1  0  0  0  0
 32 58  1  0  0  0  0
 32 59  1  0  0  0  0
M  END
>  <Mol_ID>
5217

>  <Formula>
C25H27N5O2

>  <MolWeight>
429.51418

>  <Cat>
S8574

>  <Name>
BI 894999

>  <Synonyms>
N/A

>  <Target>
Epigenetic Reader Domain

>  <Form>
free base

>  <CAS>
1660117-38-3

>  <URL>
http://www.selleckchem.com/products/bi894999.html

$$$$
