BIA
 OpenBabel08302521333D

 32 33  0  0  0  0  0  0  0  0999 V2000
    1.0157   -0.0812   -0.1642 C   0  0  0  0  0  0  0  0  0  0  0  0
    0.3173   -1.3952   -0.1439 C   0  0  0  0  0  0  0  0  0  0  0  0
   -1.0234   -1.4208   -0.1801 C   0  0  0  0  0  0  0  0  0  0  0  0
    0.4487    0.9367   -0.5558 O   0  0  0  0  0  0  0  0  0  0  0  0
   -1.7688   -2.6764   -0.1211 C   0  0  0  0  0  0  0  0  0  0  0  0
   -2.1721   -3.3166   -1.2969 C   0  0  0  0  0  0  0  0  0  0  0  0
   -2.8781   -4.5257   -1.2152 C   0  0  0  0  0  0  0  0  0  0  0  0
   -3.1824   -5.0958    0.0289 C   0  0  0  0  0  0  0  0  0  0  0  0
   -2.7792   -4.4495    1.1970 C   0  0  0  0  0  0  0  0  0  0  0  0
   -2.0751   -3.2457    1.1219 C   0  0  0  0  0  0  0  0  0  0  0  0
   -3.3033   -5.2036   -2.4454 N   0  3  0  0  0  0  0  0  0  0  0  0
   -3.0233   -4.6688   -3.5260 O   0  0  0  0  0  0  0  0  0  0  0  0
   -3.9170   -6.2760   -2.3295 O   0  5  0  0  0  0  0  0  0  0  0  0
    2.4304   -0.0265    0.3088 C   0  0  0  0  0  0  0  0  0  0  0  0
    3.3020    0.9566   -0.2082 C   0  0  0  0  0  0  0  0  0  0  0  0
    4.6192    1.0052    0.2695 C   0  0  0  0  0  0  0  0  0  0  0  0
    5.0444    0.1603    1.2964 C   0  0  0  0  0  0  0  0  0  0  0  0
    4.1690   -0.7790    1.8322 C   0  0  0  0  0  0  0  0  0  0  0  0
    2.8658   -0.8759    1.3412 C   0  0  0  0  0  0  0  0  0  0  0  0
    2.9743    1.7278   -1.3426 N   0  0  0  0  0  0  0  0  0  0  0  0
    0.9122   -2.2989   -0.0964 H   0  0  0  0  0  0  0  0  0  0  0  0
   -1.6135   -0.5079   -0.2281 H   0  0  0  0  0  0  0  0  0  0  0  0
   -1.9384   -2.8693   -2.2617 H   0  0  0  0  0  0  0  0  0  0  0  0
   -3.7299   -6.0336    0.1038 H   0  0  0  0  0  0  0  0  0  0  0  0
   -3.0149   -4.8808    2.1675 H   0  0  0  0  0  0  0  0  0  0  0  0
   -1.7719   -2.7495    2.0421 H   0  0  0  0  0  0  0  0  0  0  0  0
    5.3269    1.7118   -0.1577 H   0  0  0  0  0  0  0  0  0  0  0  0
    6.0627    0.2337    1.6706 H   0  0  0  0  0  0  0  0  0  0  0  0
    4.5014   -1.4352    2.6330 H   0  0  0  0  0  0  0  0  0  0  0  0
    2.1980   -1.6043    1.7925 H   0  0  0  0  0  0  0  0  0  0  0  0
    3.4565    2.6192   -1.3858 H   0  0  0  0  0  0  0  0  0  0  0  0
    1.9577    1.8476   -1.4275 H   0  0  0  0  0  0  0  0  0  0  0  0
  1  2  1  0  0  0  0
  1  4  2  0  0  0  0
  1 14  1  0  0  0  0
  2  3  2  0  0  0  0
  2 21  1  0  0  0  0
  3  5  1  0  0  0  0
  3 22  1  0  0  0  0
  5  6  2  0  0  0  0
  5 10  1  0  0  0  0
  6  7  1  0  0  0  0
  6 23  1  0  0  0  0
  7  8  2  0  0  0  0
  7 11  1  0  0  0  0
  8  9  1  0  0  0  0
  8 24  1  0  0  0  0
  9 10  2  0  0  0  0
  9 25  1  0  0  0  0
 10 26  1  0  0  0  0
 11 12  2  0  0  0  0
 11 13  1  0  0  0  0
 14 15  2  0  0  0  0
 14 19  1  0  0  0  0
 15 16  1  0  0  0  0
 15 20  1  0  0  0  0
 16 17  2  0  0  0  0
 16 27  1  0  0  0  0
 17 18  1  0  0  0  0
 17 28  1  0  0  0  0
 18 19  2  0  0  0  0
 18 29  1  0  0  0  0
 19 30  1  0  0  0  0
 20 31  1  0  0  0  0
 20 32  1  0  0  0  0
M  CHG  2  11   1  13  -1
M  END
>  <Mol_ID>
6376

>  <Formula>
C15H12N2O3

>  <MolWeight>
268.26738

>  <Cat>
E0945

>  <Name>
BIA

>  <Synonyms>
TMBIM6 antagonist BIA

>  <Target>
Akt,Calcium Channel

>  <Form>
free base

>  <CAS>
134271-74-2

>  <URL>
http://www.selleckchem.com/products/bia.html

$$$$
