BIA 10-2474
 OpenBabel08302520403D

 42 44  0  0  0  0  0  0  0  0999 V2000
   -0.3498    0.2663    1.2188 C   0  0  0  0  0  0  0  0  0  0  0  0
    0.0270   -0.9440    0.8652 N   0  0  0  0  0  0  0  0  0  0  0  0
    0.1579   -0.9028   -0.5039 C   0  0  0  0  0  0  0  0  0  0  0  0
   -0.2075    0.3416   -0.9756 C   0  0  0  0  0  0  0  0  0  0  0  0
   -0.5684    1.0828    0.1330 N   0  0  0  0  0  0  0  0  0  0  0  0
   -0.8511    2.4516    0.1810 C   0  0  0  0  0  0  0  0  0  0  0  0
    0.0773    3.2097    0.4253 O   0  0  0  0  0  0  0  0  0  0  0  0
   -2.1860    2.7846   -0.0378 N   0  0  0  0  0  0  0  0  0  0  0  0
    0.8367   -1.9074   -2.6759 C   0  0  0  0  0  0  0  0  0  0  0  0
    0.6382   -2.0251   -1.2986 C   0  0  0  0  0  0  0  0  0  0  0  0
    0.9138   -3.2602   -0.6975 C   0  0  0  0  0  0  0  0  0  0  0  0
    1.3503   -4.3443   -1.4608 C   0  0  0  0  0  0  0  0  0  0  0  0
    1.5159   -4.1855   -2.8327 C   0  0  0  0  0  0  0  0  0  0  0  0
    1.2670   -2.9732   -3.4476 N   0  3  0  0  0  0  0  0  0  0  0  0
    1.4231   -2.8389   -4.7009 O   0  5  0  0  0  0  0  0  0  0  0  0
   -3.2859    1.8227   -0.1155 C   0  0  0  0  0  0  0  0  0  0  0  0
   -2.6085    4.1980    0.0924 C   0  0  0  0  0  0  0  0  0  0  0  0
   -1.9377    5.1605   -0.9022 C   0  0  0  0  0  0  0  0  0  0  0  0
   -2.5344    6.5666   -0.7755 C   0  0  0  0  0  0  0  0  0  0  0  0
   -2.4553    7.0939    0.6565 C   0  0  0  0  0  0  0  0  0  0  0  0
   -3.0735    6.1220    1.6586 C   0  0  0  0  0  0  0  0  0  0  0  0
   -2.4757    4.7218    1.5310 C   0  0  0  0  0  0  0  0  0  0  0  0
   -0.4909    0.6177    2.2325 H   0  0  0  0  0  0  0  0  0  0  0  0
   -0.2154    0.7884   -1.9607 H   0  0  0  0  0  0  0  0  0  0  0  0
    0.6820   -1.0154   -3.2615 H   0  0  0  0  0  0  0  0  0  0  0  0
    0.7862   -3.3861    0.3781 H   0  0  0  0  0  0  0  0  0  0  0  0
    1.5567   -5.3036   -0.9942 H   0  0  0  0  0  0  0  0  0  0  0  0
    1.8398   -4.9558   -3.5157 H   0  0  0  0  0  0  0  0  0  0  0  0
   -3.8818    1.9106    0.8001 H   0  0  0  0  0  0  0  0  0  0  0  0
   -3.9126    2.0763   -0.9765 H   0  0  0  0  0  0  0  0  0  0  0  0
   -2.9556    0.7900   -0.2162 H   0  0  0  0  0  0  0  0  0  0  0  0
   -3.6800    4.2145   -0.1562 H   0  0  0  0  0  0  0  0  0  0  0  0
   -0.8573    5.2196   -0.7292 H   0  0  0  0  0  0  0  0  0  0  0  0
   -2.0736    4.7980   -1.9279 H   0  0  0  0  0  0  0  0  0  0  0  0
   -2.0126    7.2550   -1.4499 H   0  0  0  0  0  0  0  0  0  0  0  0
   -3.5842    6.5459   -1.0947 H   0  0  0  0  0  0  0  0  0  0  0  0
   -1.4058    7.2704    0.9215 H   0  0  0  0  0  0  0  0  0  0  0  0
   -2.9670    8.0613    0.7218 H   0  0  0  0  0  0  0  0  0  0  0  0
   -2.9244    6.4964    2.6776 H   0  0  0  0  0  0  0  0  0  0  0  0
   -4.1571    6.0703    1.4942 H   0  0  0  0  0  0  0  0  0  0  0  0
   -2.9835    4.0438    2.2271 H   0  0  0  0  0  0  0  0  0  0  0  0
   -1.4229    4.7534    1.8359 H   0  0  0  0  0  0  0  0  0  0  0  0
  1  2  2  0  0  0  0
  1  5  1  0  0  0  0
  1 23  1  0  0  0  0
  2  3  1  0  0  0  0
  3  4  2  0  0  0  0
  3 10  1  0  0  0  0
  4  5  1  0  0  0  0
  4 24  1  0  0  0  0
  5  6  1  0  0  0  0
  6  7  2  0  0  0  0
  6  8  1  0  0  0  0
  8 16  1  0  0  0  0
  8 17  1  0  0  0  0
  9 10  2  0  0  0  0
  9 14  1  0  0  0  0
  9 25  1  0  0  0  0
 10 11  1  0  0  0  0
 11 12  2  0  0  0  0
 11 26  1  0  0  0  0
 12 13  1  0  0  0  0
 12 27  1  0  0  0  0
 13 14  2  0  0  0  0
 13 28  1  0  0  0  0
 14 15  1  0  0  0  0
 16 29  1  0  0  0  0
 16 30  1  0  0  0  0
 16 31  1  0  0  0  0
 17 18  1  0  0  0  0
 17 22  1  0  0  0  0
 17 32  1  0  0  0  0
 18 19  1  0  0  0  0
 18 33  1  0  0  0  0
 18 34  1  0  0  0  0
 19 20  1  0  0  0  0
 19 35  1  0  0  0  0
 19 36  1  0  0  0  0
 20 21  1  0  0  0  0
 20 37  1  0  0  0  0
 20 38  1  0  0  0  0
 21 22  1  0  0  0  0
 21 39  1  0  0  0  0
 21 40  1  0  0  0  0
 22 41  1  0  0  0  0
 22 42  1  0  0  0  0
M  CHG  2  14   1  15  -1
M  END
>  <Mol_ID>
3713

>  <Formula>
C16H20N4O2

>  <MolWeight>
300.3556

>  <Cat>
S5932

>  <Name>
BIA 10-2474

>  <Synonyms>
N/A

>  <Target>
FAAH

>  <Form>
Free Base

>  <CAS>
1233855-46-3

>  <URL>
http://www.selleck.cn/products/bia-10-2474.html

$$$$
