Bicinchoninic acid disodium salt
 OpenBabel08302521453D

 38 41  0  0  0  0  0  0  0  0999 V2000
    0.9063   -0.0466    0.0498 C   0  0  0  0  0  0  0  0  0  0  0  0
    0.3426    0.9681   -0.6420 O   0  0  0  0  0  0  0  0  0  0  0  0
    0.2405   -0.8502    0.6781 O   0  0  0  0  0  0  0  0  0  0  0  0
    8.8500    3.5159    0.2249 C   0  0  0  0  0  0  0  0  0  0  0  0
    9.3879    2.4007    0.7676 O   0  0  0  0  0  0  0  0  0  0  0  0
    9.5401    4.4077   -0.2362 O   0  0  0  0  0  0  0  0  0  0  0  0
    3.1070   -1.3119   -0.0440 C   0  0  0  0  0  0  0  0  0  0  0  0
    2.3944   -0.0847   -0.0291 C   0  0  0  0  0  0  0  0  0  0  0  0
    4.5132   -1.2132   -0.0570 C   0  0  0  0  0  0  0  0  0  0  0  0
    2.5303   -2.6102   -0.0409 C   0  0  0  0  0  0  0  0  0  0  0  0
    3.0871    1.1305    0.0016 C   0  0  0  0  0  0  0  0  0  0  0  0
    5.1686   -0.0423   -0.0559 N   0  0  0  0  0  0  0  0  0  0  0  0
    5.2798   -2.3708   -0.0553 C   0  0  0  0  0  0  0  0  0  0  0  0
    3.3217   -3.7597   -0.0296 C   0  0  0  0  0  0  0  0  0  0  0  0
    4.4742    1.1202   -0.0146 C   0  0  0  0  0  0  0  0  0  0  0  0
    4.7017   -3.6398   -0.0380 C   0  0  0  0  0  0  0  0  0  0  0  0
    5.2794    2.3603    0.0761 C   0  0  0  0  0  0  0  0  0  0  0  0
    6.6650    2.3515    0.0523 C   0  0  0  0  0  0  0  0  0  0  0  0
    4.5857    3.5141    0.2279 N   0  0  0  0  0  0  0  0  0  0  0  0
    7.3591    3.5501    0.2521 C   0  0  0  0  0  0  0  0  0  0  0  0
    5.2407    4.6741    0.3876 C   0  0  0  0  0  0  0  0  0  0  0  0
    6.6458    4.7651    0.4261 C   0  0  0  0  0  0  0  0  0  0  0  0
    4.4740    5.8228    0.5251 C   0  0  0  0  0  0  0  0  0  0  0  0
    7.2249    6.0473    0.6340 C   0  0  0  0  0  0  0  0  0  0  0  0
    5.0522    7.0780    0.7110 C   0  0  0  0  0  0  0  0  0  0  0  0
    6.4336    7.1891    0.7721 C   0  0  0  0  0  0  0  0  0  0  0  0
    0.9346    1.4968   -1.2074 H   0  0  0  0  0  0  0  0  0  0  0  0
    8.7779    1.7923    1.2234 H   0  0  0  0  0  0  0  0  0  0  0  0
    1.4499   -2.7449   -0.0301 H   0  0  0  0  0  0  0  0  0  0  0  0
    2.5606    2.0769    0.0894 H   0  0  0  0  0  0  0  0  0  0  0  0
    6.3638   -2.2865   -0.0613 H   0  0  0  0  0  0  0  0  0  0  0  0
    2.8559   -4.7420   -0.0054 H   0  0  0  0  0  0  0  0  0  0  0  0
    5.3317   -4.5258   -0.0226 H   0  0  0  0  0  0  0  0  0  0  0  0
    7.1878    1.4180   -0.1342 H   0  0  0  0  0  0  0  0  0  0  0  0
    3.3923    5.7427    0.4844 H   0  0  0  0  0  0  0  0  0  0  0  0
    8.3033    6.1757    0.6857 H   0  0  0  0  0  0  0  0  0  0  0  0
    4.4249    7.9585    0.8150 H   0  0  0  0  0  0  0  0  0  0  0  0
    6.8999    8.1606    0.9230 H   0  0  0  0  0  0  0  0  0  0  0  0
  1  2  1  0  0  0  0
  1  3  2  0  0  0  0
  1  8  1  0  0  0  0
  2 27  1  0  0  0  0
  4  5  1  0  0  0  0
  4  6  2  0  0  0  0
  4 20  1  0  0  0  0
  5 28  1  0  0  0  0
  7  8  2  0  0  0  0
  7  9  1  0  0  0  0
  7 10  1  0  0  0  0
  8 11  1  0  0  0  0
  9 12  2  0  0  0  0
  9 13  1  0  0  0  0
 10 14  2  0  0  0  0
 10 29  1  0  0  0  0
 11 15  2  0  0  0  0
 11 30  1  0  0  0  0
 12 15  1  0  0  0  0
 13 16  2  0  0  0  0
 13 31  1  0  0  0  0
 14 16  1  0  0  0  0
 14 32  1  0  0  0  0
 15 17  1  0  0  0  0
 16 33  1  0  0  0  0
 17 18  2  0  0  0  0
 17 19  1  0  0  0  0
 18 20  1  0  0  0  0
 18 34  1  0  0  0  0
 19 21  2  0  0  0  0
 20 22  2  0  0  0  0
 21 22  1  0  0  0  0
 21 23  1  0  0  0  0
 22 24  1  0  0  0  0
 23 25  2  0  0  0  0
 23 35  1  0  0  0  0
 24 26  2  0  0  0  0
 24 36  1  0  0  0  0
 25 26  1  0  0  0  0
 25 37  1  0  0  0  0
 26 38  1  0  0  0  0
M  END
>  <Mol_ID>
9423

>  <Formula>
C20H12N2Na2O4

>  <MolWeight>
390.29982

>  <Cat>
E2635

>  <Name>
Bicinchoninic acid disodium salt

>  <Target>
Others

>  <Form>
disodium salt

>  <CAS>
979-88-4

>  <URL>
http://www.selleckchem.com/products/bicinchoninic-acid-disodium-salt.html

$$$$
