Bictegravir Sodium
 OpenBabel08302521453D

 50 54  0  0  0  0  0  0  0  0999 V2000
    2.8651   -3.3365   -0.7088 O   0  0  0  0  0  0  0  0  0  0  0  0
    2.5584   -2.1784   -0.4319 C   0  0  0  0  0  0  0  0  0  0  0  0
    3.3984   -1.3427    0.2629 N   0  0  0  0  0  0  0  0  0  0  0  0
    1.2151   -1.6193   -0.8169 C   0  0  0  0  0  0  0  0  0  0  0  0
    3.1609    0.0927    0.3488 C   0  0  1  0  0  0  0  0  0  0  0  0
    4.6755   -1.8613    0.7680 C   0  0  2  0  0  0  0  0  0  0  0  0
    0.9357   -0.2352   -0.7405 N   0  0  0  0  0  0  0  0  0  0  0  0
    0.2766   -2.5110   -1.1844 C   0  0  0  0  0  0  0  0  0  0  0  0
    1.7017    0.5392    0.2491 C   0  0  0  0  0  0  0  0  0  0  0  0
    3.6601    0.5953    1.5993 O   0  0  0  0  0  0  0  0  0  0  0  0
    4.7681   -1.4383    2.2195 C   0  0  0  0  0  0  0  0  0  0  0  0
    5.9025   -1.1628    0.1636 C   0  0  0  0  0  0  0  0  0  0  0  0
   -0.3955    0.1588   -0.9583 C   0  0  0  0  0  0  0  0  0  0  0  0
    0.2328   -3.8563   -0.8954 O   0  0  0  0  0  0  0  0  0  0  0  0
   -0.8158   -1.9085   -1.9758 C   0  0  0  0  0  0  0  0  0  0  0  0
    4.9271    0.0615    1.9969 C   0  0  1  0  0  0  0  0  0  0  0  0
    5.9353    0.2091    0.8493 C   0  0  0  0  0  0  0  0  0  0  0  0
   -1.3512   -0.6341   -1.4715 C   0  0  0  0  0  0  0  0  0  0  0  0
   -1.1899   -2.4308   -3.0223 O   0  0  0  0  0  0  0  0  0  0  0  0
   -2.7722   -0.2273   -1.3236 C   0  0  0  0  0  0  0  0  0  0  0  0
   -3.7786   -1.1512   -1.3984 N   0  0  0  0  0  0  0  0  0  0  0  0
   -3.0623    0.9233   -1.0044 O   0  0  0  0  0  0  0  0  0  0  0  0
   -3.7014   -2.4729   -1.9728 C   0  0  0  0  0  0  0  0  0  0  0  0
   -4.9615   -3.2610   -1.9215 C   0  0  0  0  0  0  0  0  0  0  0  0
   -5.8410   -3.2386   -3.0004 C   0  0  0  0  0  0  0  0  0  0  0  0
   -5.2238   -4.1234   -0.8564 C   0  0  0  0  0  0  0  0  0  0  0  0
   -5.6118   -2.4361   -4.0447 F   0  0  0  0  0  0  0  0  0  0  0  0
   -6.9425   -4.0803   -3.0414 C   0  0  0  0  0  0  0  0  0  0  0  0
   -4.3821   -4.1761    0.1855 F   0  0  0  0  0  0  0  0  0  0  0  0
   -6.3226   -4.9705   -0.8742 C   0  0  0  0  0  0  0  0  0  0  0  0
   -7.1672   -4.9406   -1.9736 C   0  0  0  0  0  0  0  0  0  0  0  0
   -8.2137   -5.7765   -2.0176 F   0  0  0  0  0  0  0  0  0  0  0  0
    3.6964    0.5569   -0.4862 H   0  0  0  0  0  0  0  0  0  0  0  0
    4.7401   -2.9478    0.6499 H   0  0  0  0  0  0  0  0  0  0  0  0
    1.2109    0.4267    1.2251 H   0  0  0  0  0  0  0  0  0  0  0  0
    1.6701    1.6105    0.0098 H   0  0  0  0  0  0  0  0  0  0  0  0
    5.6421   -1.8808    2.7088 H   0  0  0  0  0  0  0  0  0  0  0  0
    3.8625   -1.7033    2.7769 H   0  0  0  0  0  0  0  0  0  0  0  0
    6.8097   -1.7111    0.4508 H   0  0  0  0  0  0  0  0  0  0  0  0
    5.8810   -1.0962   -0.9275 H   0  0  0  0  0  0  0  0  0  0  0  0
   -0.6304    1.1477   -0.5646 H   0  0  0  0  0  0  0  0  0  0  0  0
    0.8149   -4.0131   -0.1260 H   0  0  0  0  0  0  0  0  0  0  0  0
    5.2411    0.5772    2.9070 H   0  0  0  0  0  0  0  0  0  0  0  0
    5.6524    1.0030    0.1489 H   0  0  0  0  0  0  0  0  0  0  0  0
    6.9384    0.4405    1.2145 H   0  0  0  0  0  0  0  0  0  0  0  0
   -4.6939   -0.7510   -1.2374 H   0  0  0  0  0  0  0  0  0  0  0  0
   -2.9277   -3.0425   -1.4499 H   0  0  0  0  0  0  0  0  0  0  0  0
   -3.4151   -2.3511   -3.0208 H   0  0  0  0  0  0  0  0  0  0  0  0
   -7.5959   -4.0878   -3.9035 H   0  0  0  0  0  0  0  0  0  0  0  0
   -6.5000   -5.6624   -0.0571 H   0  0  0  0  0  0  0  0  0  0  0  0
  1  2  2  0  0  0  0
  2  3  1  0  0  0  0
  2  4  1  0  0  0  0
  3  5  1  0  0  0  0
  3  6  1  0  0  0  0
  4  7  1  0  0  0  0
  4  8  2  0  0  0  0
  5  9  1  0  0  0  0
  5 10  1  0  0  0  0
  5 33  1  6  0  0  0
  6 11  1  0  0  0  0
  6 12  1  0  0  0  0
  6 34  1  6  0  0  0
  7  9  1  0  0  0  0
  7 13  1  0  0  0  0
  8 15  1  0  0  0  0
  8 14  1  0  0  0  0
  9 35  1  0  0  0  0
  9 36  1  0  0  0  0
 10 16  1  0  0  0  0
 11 37  1  0  0  0  0
 11 38  1  0  0  0  0
 12 17  1  0  0  0  0
 12 39  1  0  0  0  0
 12 40  1  0  0  0  0
 13 18  2  0  0  0  0
 13 41  1  0  0  0  0
 14 42  1  0  0  0  0
 15 18  1  0  0  0  0
 15 19  2  0  0  0  0
 16 11  1  0  0  0  0
 16 17  1  0  0  0  0
 16 43  1  1  0  0  0
 17 44  1  0  0  0  0
 17 45  1  0  0  0  0
 18 20  1  0  0  0  0
 20 21  1  0  0  0  0
 20 22  2  0  0  0  0
 21 23  1  0  0  0  0
 21 46  1  0  0  0  0
 23 24  1  0  0  0  0
 23 47  1  0  0  0  0
 23 48  1  0  0  0  0
 24 25  2  0  0  0  0
 24 26  1  0  0  0  0
 25 27  1  0  0  0  0
 25 28  1  0  0  0  0
 26 29  1  0  0  0  0
 26 30  2  0  0  0  0
 28 31  2  0  0  0  0
 28 49  1  0  0  0  0
 30 31  1  0  0  0  0
 30 50  1  0  0  0  0
 31 32  1  0  0  0  0
M  END
>  <Mol_ID>
9399

>  <Formula>
C21H18F3N3NaO5

>  <MolWeight>
472.3696996

>  <Cat>
E0161

>  <Name>
Bictegravir Sodium

>  <Synonyms>
GS-9883 Sodium

>  <Target>
Integrase

>  <Form>
Sodium

>  <CAS>
1807988-02-8

>  <URL>
http://www.selleckchem.com/products/bictegravir-sodium.html

$$$$
