Bictegravir
 OpenBabel08302520143D

 50 54  0  0  0  0  0  0  0  0999 V2000
    2.5422   -0.4005    0.0082 C   0  0  1  0  0  0  0  0  0  0  0  0
    2.7988   -1.8363   -0.1034 N   0  0  0  0  0  0  0  0  0  0  0  0
    1.1012    0.0448    0.3555 C   0  0  0  0  0  0  0  0  0  0  0  0
    0.1789   -1.0795    0.4820 N   0  0  0  0  0  0  0  0  0  0  0  0
    0.6482   -2.2710    1.0346 C   0  0  0  0  0  0  0  0  0  0  0  0
    2.0210   -2.7329    0.6390 C   0  0  0  0  0  0  0  0  0  0  0  0
   -0.9889   -1.1834   -0.2509 C   0  0  0  0  0  0  0  0  0  0  0  0
   -1.8044   -2.2402   -0.1045 C   0  0  0  0  0  0  0  0  0  0  0  0
   -1.5976   -3.0639    1.1282 C   0  0  0  0  0  0  0  0  0  0  0  0
   -0.1694   -3.2058    1.5633 C   0  0  0  0  0  0  0  0  0  0  0  0
    4.2089   -2.2279   -0.2032 C   0  0  1  0  0  0  0  0  0  0  0  0
    5.0901   -1.4167   -1.1670 C   0  0  0  0  0  0  0  0  0  0  0  0
    5.3504   -0.0880   -0.4431 C   0  0  0  0  0  0  0  0  0  0  0  0
    4.7758   -0.3256    0.9568 C   0  0  1  0  0  0  0  0  0  0  0  0
    3.4160    0.1341    1.0219 O   0  0  0  0  0  0  0  0  0  0  0  0
    4.8091   -1.8411    1.1413 C   0  0  0  0  0  0  0  0  0  0  0  0
    2.3911   -3.8780    0.9028 O   0  0  0  0  0  0  0  0  0  0  0  0
   -2.5191   -3.6933    1.6378 O   0  0  0  0  0  0  0  0  0  0  0  0
    0.2120   -4.3329    2.2630 O   0  0  0  0  0  0  0  0  0  0  0  0
   -2.3309   -2.7909   -1.3745 C   0  0  0  0  0  0  0  0  0  0  0  0
   -2.9796   -3.9807   -1.2506 N   0  0  0  0  0  0  0  0  0  0  0  0
   -3.0496   -4.8918   -2.3723 C   0  0  0  0  0  0  0  0  0  0  0  0
   -3.8139   -6.0914   -1.9287 C   0  0  0  0  0  0  0  0  0  0  0  0
   -3.1740   -7.1599   -1.2959 C   0  0  0  0  0  0  0  0  0  0  0  0
   -3.8990   -8.1280   -0.6232 C   0  0  0  0  0  0  0  0  0  0  0  0
   -5.2821   -8.0190   -0.5889 C   0  0  0  0  0  0  0  0  0  0  0  0
   -5.9503   -6.9994   -1.2532 C   0  0  0  0  0  0  0  0  0  0  0  0
   -5.2095   -6.0426   -1.9290 C   0  0  0  0  0  0  0  0  0  0  0  0
   -2.0429   -2.2999   -2.4697 O   0  0  0  0  0  0  0  0  0  0  0  0
   -1.8353   -7.2225   -1.2731 F   0  0  0  0  0  0  0  0  0  0  0  0
   -5.8467   -5.0320   -2.5389 F   0  0  0  0  0  0  0  0  0  0  0  0
   -5.9879   -8.8903    0.1371 F   0  0  0  0  0  0  0  0  0  0  0  0
    2.7852    0.0615   -0.9562 H   0  0  0  0  0  0  0  0  0  0  0  0
    1.1007    0.5857    1.3122 H   0  0  0  0  0  0  0  0  0  0  0  0
    0.7404    0.7697   -0.3853 H   0  0  0  0  0  0  0  0  0  0  0  0
   -1.0191   -0.5411   -1.1270 H   0  0  0  0  0  0  0  0  0  0  0  0
    4.2865   -3.2976   -0.4254 H   0  0  0  0  0  0  0  0  0  0  0  0
    4.6770   -1.2900   -2.1710 H   0  0  0  0  0  0  0  0  0  0  0  0
    6.0555   -1.9333   -1.2716 H   0  0  0  0  0  0  0  0  0  0  0  0
    6.4242    0.1179   -0.4004 H   0  0  0  0  0  0  0  0  0  0  0  0
    4.8658    0.7465   -0.9606 H   0  0  0  0  0  0  0  0  0  0  0  0
    5.3382    0.1905    1.7370 H   0  0  0  0  0  0  0  0  0  0  0  0
    5.8229   -2.2334    1.2558 H   0  0  0  0  0  0  0  0  0  0  0  0
    4.1970   -2.1710    1.9882 H   0  0  0  0  0  0  0  0  0  0  0  0
    1.1901   -4.3314    2.3259 H   0  0  0  0  0  0  0  0  0  0  0  0
   -3.1319   -4.3532   -0.3129 H   0  0  0  0  0  0  0  0  0  0  0  0
   -2.0284   -5.1532   -2.6811 H   0  0  0  0  0  0  0  0  0  0  0  0
   -3.5232   -4.3859   -3.2226 H   0  0  0  0  0  0  0  0  0  0  0  0
   -3.3949   -8.9257   -0.0898 H   0  0  0  0  0  0  0  0  0  0  0  0
   -7.0290   -6.9251   -1.2204 H   0  0  0  0  0  0  0  0  0  0  0  0
  1  3  1  0  0  0  0
  1 15  1  0  0  0  0
  1 33  1  6  0  0  0
  2  1  1  0  0  0  0
  2  6  1  0  0  0  0
  2 11  1  0  0  0  0
  3 34  1  0  0  0  0
  3 35  1  0  0  0  0
  4  3  1  0  0  0  0
  4  7  1  0  0  0  0
  5  4  1  0  0  0  0
  5 10  2  0  0  0  0
  6  5  1  0  0  0  0
  6 17  2  0  0  0  0
  7 36  1  0  0  0  0
  8  7  2  0  0  0  0
  8 20  1  0  0  0  0
  9  8  1  0  0  0  0
  9 18  2  0  0  0  0
 10  9  1  0  0  0  0
 10 19  1  0  0  0  0
 11 12  1  0  0  0  0
 11 16  1  0  0  0  0
 11 37  1  6  0  0  0
 12 13  1  0  0  0  0
 12 38  1  0  0  0  0
 12 39  1  0  0  0  0
 13 40  1  0  0  0  0
 13 41  1  0  0  0  0
 14 13  1  0  0  0  0
 14 16  1  0  0  0  0
 14 42  1  1  0  0  0
 15 14  1  0  0  0  0
 16 43  1  0  0  0  0
 16 44  1  0  0  0  0
 19 45  1  0  0  0  0
 20 21  1  0  0  0  0
 20 29  2  0  0  0  0
 21 22  1  0  0  0  0
 21 46  1  0  0  0  0
 22 23  1  0  0  0  0
 22 47  1  0  0  0  0
 22 48  1  0  0  0  0
 23 28  1  0  0  0  0
 24 23  2  0  0  0  0
 24 30  1  0  0  0  0
 25 24  1  0  0  0  0
 25 49  1  0  0  0  0
 26 25  2  0  0  0  0
 26 32  1  0  0  0  0
 27 26  1  0  0  0  0
 27 50  1  0  0  0  0
 28 27  2  0  0  0  0
 28 31  1  0  0  0  0
M  END
>  <Mol_ID>
3175

>  <Formula>
C21H18F3N3O5

>  <MolWeight>
449.3799296

>  <Cat>
S5911

>  <Name>
Bictegravir

>  <Synonyms>
GS-9883

>  <Target>
COVID-19,Integrase

>  <Form>
Free Base

>  <CAS>
1611493-60-7

>  <URL>
http://www.selleckchem.com/products/bictegravir.html

$$$$
