Bicyclol
 OpenBabel08302520403D

 46 49  0  0  0  0  0  0  0  0999 V2000
   -1.4763   -1.1929    0.2061 O   0  0  0  0  0  0  0  0  0  0  0  0
   -2.2384    0.0173    0.2393 C   0  0  0  0  0  0  0  0  0  0  0  0
   -1.4173    1.1827    0.3810 O   0  0  0  0  0  0  0  0  0  0  0  0
   -0.1593    0.6741    0.1873 C   0  0  0  0  0  0  0  0  0  0  0  0
   -0.2015   -0.7174    0.1434 C   0  0  0  0  0  0  0  0  0  0  0  0
    0.9491   -1.4696    0.0525 C   0  0  0  0  0  0  0  0  0  0  0  0
    2.1488   -0.7656    0.0067 C   0  0  0  0  0  0  0  0  0  0  0  0
    2.1936    0.6554    0.0109 C   0  0  0  0  0  0  0  0  0  0  0  0
    1.0090    1.4428    0.0602 C   0  0  0  0  0  0  0  0  0  0  0  0
    2.9126    5.6236    1.4477 O   0  0  0  0  0  0  0  0  0  0  0  0
    3.5005    4.4255    1.9679 C   0  0  0  0  0  0  0  0  0  0  0  0
    2.7498    3.2465    1.6466 O   0  0  0  0  0  0  0  0  0  0  0  0
    1.8495    3.7327    0.7328 C   0  0  0  0  0  0  0  0  0  0  0  0
    1.9178    5.1201    0.6616 C   0  0  0  0  0  0  0  0  0  0  0  0
    1.0415    5.8446   -0.1109 C   0  0  0  0  0  0  0  0  0  0  0  0
    0.0933    5.1153   -0.8244 C   0  0  0  0  0  0  0  0  0  0  0  0
    0.0454    3.6911   -0.8258 C   0  0  0  0  0  0  0  0  0  0  0  0
    0.9582    2.9438   -0.0114 C   0  0  0  0  0  0  0  0  0  0  0  0
    3.5673    1.2241   -0.0756 C   0  0  0  0  0  0  0  0  0  0  0  0
    3.9410    2.0679   -0.8668 O   0  0  0  0  0  0  0  0  0  0  0  0
    4.3249    0.6152    0.8838 O   0  0  0  0  0  0  0  0  0  0  0  0
    0.9449    7.1943   -0.2683 O   0  0  0  0  0  0  0  0  0  0  0  0
    1.9793    7.9913    0.2891 C   0  0  0  0  0  0  0  0  0  0  0  0
    1.0811   -2.8241    0.0155 O   0  0  0  0  0  0  0  0  0  0  0  0
   -0.1114   -3.5951   -0.0453 C   0  0  0  0  0  0  0  0  0  0  0  0
   -1.0553    3.0623   -1.6607 C   0  0  0  0  0  0  0  0  0  0  0  0
   -1.3750    3.8294   -2.8204 O   0  0  0  0  0  0  0  0  0  0  0  0
    5.6943    1.0227    0.9355 C   0  0  0  0  0  0  0  0  0  0  0  0
   -2.8156    0.1023   -0.6905 H   0  0  0  0  0  0  0  0  0  0  0  0
   -2.9374   -0.0288    1.0802 H   0  0  0  0  0  0  0  0  0  0  0  0
    3.0775   -1.3334   -0.0388 H   0  0  0  0  0  0  0  0  0  0  0  0
    4.5173    4.3233    1.5690 H   0  0  0  0  0  0  0  0  0  0  0  0
    3.5616    4.5157    3.0574 H   0  0  0  0  0  0  0  0  0  0  0  0
   -0.6217    5.6848   -1.4147 H   0  0  0  0  0  0  0  0  0  0  0  0
    1.9720    7.9383    1.3816 H   0  0  0  0  0  0  0  0  0  0  0  0
    2.9562    7.7230   -0.1260 H   0  0  0  0  0  0  0  0  0  0  0  0
    1.7785    9.0313    0.0128 H   0  0  0  0  0  0  0  0  0  0  0  0
   -0.7178   -3.4625    0.8562 H   0  0  0  0  0  0  0  0  0  0  0  0
   -0.6796   -3.3711   -0.9540 H   0  0  0  0  0  0  0  0  0  0  0  0
    0.1775   -4.6495   -0.0894 H   0  0  0  0  0  0  0  0  0  0  0  0
   -0.7658    2.0772   -2.0288 H   0  0  0  0  0  0  0  0  0  0  0  0
   -1.9722    2.9833   -1.0653 H   0  0  0  0  0  0  0  0  0  0  0  0
   -2.0273    4.4954   -2.5450 H   0  0  0  0  0  0  0  0  0  0  0  0
    6.1935    0.8199   -0.0171 H   0  0  0  0  0  0  0  0  0  0  0  0
    5.7645    2.0844    1.1903 H   0  0  0  0  0  0  0  0  0  0  0  0
    6.1945    0.4441    1.7181 H   0  0  0  0  0  0  0  0  0  0  0  0
  1  2  1  0  0  0  0
  1  5  1  0  0  0  0
  2  3  1  0  0  0  0
  2 29  1  0  0  0  0
  2 30  1  0  0  0  0
  3  4  1  0  0  0  0
  4  5  2  0  0  0  0
  4  9  1  0  0  0  0
  5  6  1  0  0  0  0
  6  7  2  0  0  0  0
  6 24  1  0  0  0  0
  7  8  1  0  0  0  0
  7 31  1  0  0  0  0
  8  9  2  0  0  0  0
  8 19  1  0  0  0  0
  9 18  1  0  0  0  0
 10 11  1  0  0  0  0
 10 14  1  0  0  0  0
 11 12  1  0  0  0  0
 11 32  1  0  0  0  0
 11 33  1  0  0  0  0
 12 13  1  0  0  0  0
 13 14  2  0  0  0  0
 13 18  1  0  0  0  0
 14 15  1  0  0  0  0
 15 16  2  0  0  0  0
 15 22  1  0  0  0  0
 16 17  1  0  0  0  0
 16 34  1  0  0  0  0
 17 18  2  0  0  0  0
 17 26  1  0  0  0  0
 19 20  2  0  0  0  0
 19 21  1  0  0  0  0
 21 28  1  0  0  0  0
 22 23  1  0  0  0  0
 23 35  1  0  0  0  0
 23 36  1  0  0  0  0
 23 37  1  0  0  0  0
 24 25  1  0  0  0  0
 25 38  1  0  0  0  0
 25 39  1  0  0  0  0
 25 40  1  0  0  0  0
 26 27  1  0  0  0  0
 26 41  1  0  0  0  0
 26 42  1  0  0  0  0
 27 43  1  0  0  0  0
 28 44  1  0  0  0  0
 28 45  1  0  0  0  0
 28 46  1  0  0  0  0
M  END
>  <Mol_ID>
3766

>  <Formula>
C19H18O9

>  <MolWeight>
390.34082

>  <Cat>
S6453

>  <Name>
Bicyclol

>  <Synonyms>
SY-801

>  <Target>
HBV

>  <Form>
Free Base

>  <CAS>
118159-48-1

>  <URL>
http://www.selleck.cn/products/bicyclol.html

$$$$
