Bikinin.cdx
 OpenBabel08302519583D

 24 24  0  0  0  0  0  0  0  0999 V2000
    1.0783   -0.9098   -0.8663 C   0  0  0  0  0  0  0  0  0  0  0  0
    0.3920    0.2602   -0.6065 C   0  0  0  0  0  0  0  0  0  0  0  0
    1.1030    1.3369   -0.0974 C   0  0  0  0  0  0  0  0  0  0  0  0
    2.4774    1.1979    0.1315 C   0  0  0  0  0  0  0  0  0  0  0  0
    3.0958   -0.0167   -0.1580 C   0  0  0  0  0  0  0  0  0  0  0  0
    2.4081   -1.0609   -0.6511 N   0  0  0  0  0  0  0  0  0  0  0  0
   -1.4570    0.3931   -0.9405 Br  0  0  0  0  0  0  0  0  0  0  0  0
    4.4772   -0.1225    0.0674 N   0  0  0  0  0  0  0  0  0  0  0  0
    5.2134   -1.2647   -0.1576 C   0  0  0  0  0  0  0  0  0  0  0  0
    6.6863   -1.1392    0.1401 C   0  0  0  0  0  0  0  0  0  0  0  0
    6.9767   -1.5263    1.5778 C   0  0  0  0  0  0  0  0  0  0  0  0
    6.7711   -2.9646    2.0092 C   0  0  0  0  0  0  0  0  0  0  0  0
    6.1509   -3.8109    1.1755 O   0  0  0  0  0  0  0  0  0  0  0  0
    4.8081   -2.3710   -0.5014 O   0  0  0  0  0  0  0  0  0  0  0  0
    7.1554   -3.3425    3.1146 O   0  0  0  0  0  0  0  0  0  0  0  0
    0.5828   -1.7907   -1.2653 H   0  0  0  0  0  0  0  0  0  0  0  0
    0.6081    2.2773    0.1233 H   0  0  0  0  0  0  0  0  0  0  0  0
    3.0345    2.0383    0.5309 H   0  0  0  0  0  0  0  0  0  0  0  0
    4.9485    0.6993    0.4111 H   0  0  0  0  0  0  0  0  0  0  0  0
    7.2362   -1.7768   -0.5615 H   0  0  0  0  0  0  0  0  0  0  0  0
    7.0134   -0.1081   -0.0478 H   0  0  0  0  0  0  0  0  0  0  0  0
    8.0421   -1.3237    1.7514 H   0  0  0  0  0  0  0  0  0  0  0  0
    6.3992   -0.8935    2.2609 H   0  0  0  0  0  0  0  0  0  0  0  0
    5.6921   -3.4542    0.3776 H   0  0  0  0  0  0  0  0  0  0  0  0
  1  2  2  0  0  0  0
  1 16  1  0  0  0  0
  2  3  1  0  0  0  0
  2  7  1  0  0  0  0
  3  4  2  0  0  0  0
  3 17  1  0  0  0  0
  4  5  1  0  0  0  0
  4 18  1  0  0  0  0
  5  6  2  0  0  0  0
  5  8  1  0  0  0  0
  6  1  1  0  0  0  0
  8  9  1  0  0  0  0
  8 19  1  0  0  0  0
  9 10  1  0  0  0  0
  9 14  2  0  0  0  0
 10 11  1  0  0  0  0
 10 20  1  0  0  0  0
 10 21  1  0  0  0  0
 11 12  1  0  0  0  0
 11 22  1  0  0  0  0
 11 23  1  0  0  0  0
 12 13  1  0  0  0  0
 12 15  2  0  0  0  0
 13 24  1  0  0  0  0
M  END
>  <Mol_ID>
2538

>  <Formula>
C9H9BrN2O3

>  <MolWeight>
273.08336

>  <Cat>
S7722

>  <Name>
Bikinin

>  <Synonyms>
N/A

>  <Target>
GSK-3

>  <Form>
free base

>  <CAS>
188011-69-0

>  <URL>
http://selleckchem.com/products/bikinin.html

$$$$
