BILTRICIDE (praziquantel).cdx
 OpenBabel08302520413D

 47 50  0  0  0  0  0  0  0  0999 V2000
    2.8787   -0.8265    0.4655 C   0  0  0  0  0  0  0  0  0  0  0  0
    2.8347    0.5647    0.5526 C   0  0  0  0  0  0  0  0  0  0  0  0
    1.6047    1.2422    0.6037 C   0  0  0  0  0  0  0  0  0  0  0  0
    0.4084    0.5403    0.4462 C   0  0  0  0  0  0  0  0  0  0  0  0
    0.5108   -0.8113    0.1156 C   0  0  0  0  0  0  0  0  0  0  0  0
    1.7008   -1.5295    0.2833 C   0  0  0  0  0  0  0  0  0  0  0  0
   -0.9537    1.1922    0.3866 C   0  0  0  0  0  0  0  0  0  0  0  0
   -2.1590    0.2205    0.1261 C   0  0  0  0  0  0  0  0  0  0  0  0
   -1.8591   -1.0050   -0.6337 N   0  0  0  0  0  0  0  0  0  0  0  0
   -0.4704   -1.3043   -0.9064 C   0  0  3  0  0  0  0  0  0  0  0  0
   -2.7626   -1.5355   -1.6232 C   0  0  0  0  0  0  0  0  0  0  0  0
   -2.1076   -1.6777   -3.0453 C   0  0  0  0  0  0  0  0  0  0  0  0
   -1.2892   -0.4750   -3.1246 N   0  0  0  0  0  0  0  0  0  0  0  0
   -0.0652   -0.7257   -2.3211 C   0  0  0  0  0  0  0  0  0  0  0  0
   -3.9388   -1.7832   -1.4041 O   0  0  0  0  0  0  0  0  0  0  0  0
   -2.0008    0.7856   -3.1294 C   0  0  0  0  0  0  0  0  0  0  0  0
   -3.4833    0.7225   -3.7492 C   0  0  0  0  0  0  0  0  0  0  0  0
   -1.5196    1.8503   -2.7219 O   0  0  0  0  0  0  0  0  0  0  0  0
   -3.4545    0.9693   -5.2558 C   0  0  0  0  0  0  0  0  0  0  0  0
   -3.6125    2.4472   -5.5849 C   0  0  0  0  0  0  0  0  0  0  0  0
   -4.9092    3.0153   -5.0168 C   0  0  0  0  0  0  0  0  0  0  0  0
   -5.0051    2.8124   -3.5076 C   0  0  0  0  0  0  0  0  0  0  0  0
   -4.7179    1.3779   -3.1014 C   0  0  0  0  0  0  0  0  0  0  0  0
    3.8289   -1.3537    0.4437 H   0  0  0  0  0  0  0  0  0  0  0  0
    3.7670    1.1249    0.5559 H   0  0  0  0  0  0  0  0  0  0  0  0
    1.6027    2.3278    0.6694 H   0  0  0  0  0  0  0  0  0  0  0  0
    1.7304   -2.6030    0.1093 H   0  0  0  0  0  0  0  0  0  0  0  0
   -0.9246    1.9667   -0.3860 H   0  0  0  0  0  0  0  0  0  0  0  0
   -1.1394    1.7148    1.3343 H   0  0  0  0  0  0  0  0  0  0  0  0
   -2.9587    0.7719   -0.3815 H   0  0  0  0  0  0  0  0  0  0  0  0
   -2.5745   -0.1093    1.0850 H   0  0  0  0  0  0  0  0  0  0  0  0
   -0.4292   -2.4029   -0.9152 H   0  0  0  0  0  0  0  0  0  0  0  0
   -2.7819   -1.7225   -3.8993 H   0  0  0  0  0  0  0  0  0  0  0  0
   -1.4773   -2.5745   -3.1294 H   0  0  0  0  0  0  0  0  0  0  0  0
    0.5982    0.1434   -2.2805 H   0  0  0  0  0  0  0  0  0  0  0  0
    0.5032   -1.5348   -2.8112 H   0  0  0  0  0  0  0  0  0  0  0  0
   -3.8103   -0.3056   -3.6525 H   0  0  0  0  0  0  0  0  0  0  0  0
   -2.5335    0.5752   -5.6959 H   0  0  0  0  0  0  0  0  0  0  0  0
   -4.2826    0.4131   -5.7199 H   0  0  0  0  0  0  0  0  0  0  0  0
   -2.7610    3.0053   -5.1829 H   0  0  0  0  0  0  0  0  0  0  0  0
   -3.6057    2.5771   -6.6707 H   0  0  0  0  0  0  0  0  0  0  0  0
   -4.9766    4.0849   -5.2410 H   0  0  0  0  0  0  0  0  0  0  0  0
   -5.7669    2.5345   -5.5067 H   0  0  0  0  0  0  0  0  0  0  0  0
   -4.3109    3.4748   -2.9875 H   0  0  0  0  0  0  0  0  0  0  0  0
   -6.0169    3.0844   -3.1762 H   0  0  0  0  0  0  0  0  0  0  0  0
   -5.5937    0.7969   -3.4484 H   0  0  0  0  0  0  0  0  0  0  0  0
   -4.7196    1.2616   -2.0134 H   0  0  0  0  0  0  0  0  0  0  0  0
  1  2  2  0  0  0  0
  1 24  1  0  0  0  0
  2  3  1  0  0  0  0
  2 25  1  0  0  0  0
  3  4  2  0  0  0  0
  3 26  1  0  0  0  0
  4  5  1  0  0  0  0
  4  7  1  0  0  0  0
  5  6  2  0  0  0  0
  6  1  1  0  0  0  0
  6 27  1  0  0  0  0
  7  8  1  0  0  0  0
  7 28  1  0  0  0  0
  7 29  1  0  0  0  0
  8  9  1  0  0  0  0
  8 30  1  0  0  0  0
  8 31  1  0  0  0  0
  9 10  1  0  0  0  0
  9 11  1  0  0  0  0
 10  5  1  0  0  0  0
 10 32  1  0  0  0  0
 11 12  1  0  0  0  0
 11 15  2  0  0  0  0
 12 13  1  0  0  0  0
 12 33  1  0  0  0  0
 12 34  1  0  0  0  0
 13 14  1  0  0  0  0
 13 16  1  0  0  0  0
 14 10  1  0  0  0  0
 14 35  1  0  0  0  0
 14 36  1  0  0  0  0
 16 17  1  0  0  0  0
 16 18  2  0  0  0  0
 17 19  1  0  0  0  0
 17 37  1  0  0  0  0
 19 20  1  0  0  0  0
 19 38  1  0  0  0  0
 19 39  1  0  0  0  0
 20 21  1  0  0  0  0
 20 40  1  0  0  0  0
 20 41  1  0  0  0  0
 21 22  1  0  0  0  0
 21 42  1  0  0  0  0
 21 43  1  0  0  0  0
 22 23  1  0  0  0  0
 22 44  1  0  0  0  0
 22 45  1  0  0  0  0
 23 17  1  0  0  0  0
 23 46  1  0  0  0  0
 23 47  1  0  0  0  0
M  END
>  <Mol_ID>
394

>  <Formula>
C19H24N2O2

>  <MolWeight>
312.40606

>  <Cat>
S1691

>  <Name>
Praziquantel

>  <Synonyms>
N/A

>  <Target>
COVID-19,Parasite

>  <Form>
free base

>  <CAS>
55268-74-1

>  <URL>
http://selleckchem.com/products/Praziquantel(Biltricide).html

$$$$
