bimatoprost.cdx
 OpenBabel08302519583D

 67 68  0  0  0  0  0  0  0  0999 V2000
   -1.0722   -4.3398    1.8279 C   0  0  0  0  0  0  0  0  0  0  0  0
   -2.1443   -3.8934    1.0583 C   0  0  0  0  0  0  0  0  0  0  0  0
   -2.2063   -2.5591    0.6520 C   0  0  0  0  0  0  0  0  0  0  0  0
   -1.1934   -1.6583    1.0102 C   0  0  0  0  0  0  0  0  0  0  0  0
   -0.0960   -2.1294    1.7436 C   0  0  0  0  0  0  0  0  0  0  0  0
   -0.0422   -3.4616    2.1592 C   0  0  0  0  0  0  0  0  0  0  0  0
   -1.3304   -0.1870    0.6906 C   0  0  0  0  0  0  0  0  0  0  0  0
   -1.9956    0.5646    1.8579 C   0  0  0  0  0  0  0  0  0  0  0  0
   -2.1426    2.0739    1.6057 C   0  0  3  0  0  0  0  0  0  0  0  0
   -3.0280    2.3627    0.5292 O   0  0  0  0  0  0  0  0  0  0  0  0
   -2.7196    2.7836    2.8005 C   0  0  0  0  0  0  0  0  0  0  0  0
   -2.0946    3.7731    3.4607 C   0  0  0  0  0  0  0  0  0  0  0  0
   -2.6455    4.4960    4.6669 C   0  0  2  0  0  0  0  0  0  0  0  0
   -2.8146    6.0302    4.4645 C   0  0  2  0  0  0  0  0  0  0  0  0
   -2.2906    6.6711    5.7792 C   0  0  2  0  0  0  0  0  0  0  0  0
   -2.1470    5.5252    6.7765 C   0  0  0  0  0  0  0  0  0  0  0  0
   -1.7396    4.3473    5.9101 C   0  0  2  0  0  0  0  0  0  0  0  0
   -0.3437    4.4159    5.6170 O   0  0  0  0  0  0  0  0  0  0  0  0
   -3.1241    7.6743    6.3329 O   0  0  0  0  0  0  0  0  0  0  0  0
   -4.2631    6.4622    4.1523 C   0  0  0  0  0  0  0  0  0  0  0  0
   -4.8849    5.8749    2.9192 C   0  0  0  0  0  0  0  0  0  0  0  0
   -6.1790    5.5379    2.7928 C   0  0  0  0  0  0  0  0  0  0  0  0
   -7.2201    5.5817    3.8795 C   0  0  0  0  0  0  0  0  0  0  0  0
   -7.9076    6.9392    4.0917 C   0  0  0  0  0  0  0  0  0  0  0  0
   -8.7591    7.4420    2.9265 C   0  0  0  0  0  0  0  0  0  0  0  0
   -9.8889    6.4896    2.5621 C   0  0  0  0  0  0  0  0  0  0  0  0
  -10.3614    5.6822    3.3443 O   0  0  0  0  0  0  0  0  0  0  0  0
  -10.3350    6.6531    1.2674 N   0  0  0  0  0  0  0  0  0  0  0  0
  -11.4172    5.8486    0.7377 C   0  0  0  0  0  0  0  0  0  0  0  0
  -11.2096    5.5537   -0.7388 C   0  0  0  0  0  0  0  0  0  0  0  0
   -1.0419   -5.3699    2.1734 H   0  0  0  0  0  0  0  0  0  0  0  0
   -2.9429   -4.5805    0.7905 H   0  0  0  0  0  0  0  0  0  0  0  0
   -3.0623   -2.2237    0.0714 H   0  0  0  0  0  0  0  0  0  0  0  0
    0.7133   -1.4563    2.0175 H   0  0  0  0  0  0  0  0  0  0  0  0
    0.7955   -3.8104    2.7576 H   0  0  0  0  0  0  0  0  0  0  0  0
   -0.3422    0.2372    0.4739 H   0  0  0  0  0  0  0  0  0  0  0  0
   -1.9161   -0.0775   -0.2296 H   0  0  0  0  0  0  0  0  0  0  0  0
   -2.9830    0.1220    2.0465 H   0  0  0  0  0  0  0  0  0  0  0  0
   -1.3991    0.4093    2.7673 H   0  0  0  0  0  0  0  0  0  0  0  0
   -1.1629    2.4929    1.3488 H   0  0  0  0  0  0  0  0  0  0  0  0
   -3.1613    1.5662   -0.0022 H   0  0  0  0  0  0  0  0  0  0  0  0
   -3.7142    2.4705    3.1138 H   0  0  0  0  0  0  0  0  0  0  0  0
   -1.1047    4.0780    3.1255 H   0  0  0  0  0  0  0  0  0  0  0  0
   -3.6267    4.0756    4.9333 H   0  0  0  0  0  0  0  0  0  0  0  0
   -2.1673    6.3705    3.6423 H   0  0  0  0  0  0  0  0  0  0  0  0
   -1.3085    7.1241    5.5961 H   0  0  0  0  0  0  0  0  0  0  0  0
   -1.4052    5.7686    7.5448 H   0  0  0  0  0  0  0  0  0  0  0  0
   -3.1033    5.3330    7.2795 H   0  0  0  0  0  0  0  0  0  0  0  0
   -1.9165    3.3952    6.4206 H   0  0  0  0  0  0  0  0  0  0  0  0
   -0.1295    5.2830    5.2388 H   0  0  0  0  0  0  0  0  0  0  0  0
   -3.1624    8.4187    5.7082 H   0  0  0  0  0  0  0  0  0  0  0  0
   -4.8780    6.2503    5.0332 H   0  0  0  0  0  0  0  0  0  0  0  0
   -4.2752    7.5519    4.0134 H   0  0  0  0  0  0  0  0  0  0  0  0
   -4.2334    5.7502    2.0525 H   0  0  0  0  0  0  0  0  0  0  0  0
   -6.5152    5.1453    1.8331 H   0  0  0  0  0  0  0  0  0  0  0  0
   -7.9616    4.8031    3.6708 H   0  0  0  0  0  0  0  0  0  0  0  0
   -6.7665    5.2766    4.8299 H   0  0  0  0  0  0  0  0  0  0  0  0
   -8.5447    6.8545    4.9818 H   0  0  0  0  0  0  0  0  0  0  0  0
   -7.1530    7.6993    4.3280 H   0  0  0  0  0  0  0  0  0  0  0  0
   -9.2273    8.3929    3.2188 H   0  0  0  0  0  0  0  0  0  0  0  0
   -8.1328    7.6451    2.0500 H   0  0  0  0  0  0  0  0  0  0  0  0
  -10.1419    7.5360    0.8142 H   0  0  0  0  0  0  0  0  0  0  0  0
  -11.5014    4.9090    1.2938 H   0  0  0  0  0  0  0  0  0  0  0  0
  -12.3423    6.4131    0.8863 H   0  0  0  0  0  0  0  0  0  0  0  0
  -10.4778    4.7493   -0.8692 H   0  0  0  0  0  0  0  0  0  0  0  0
  -12.1477    5.2313   -1.2005 H   0  0  0  0  0  0  0  0  0  0  0  0
  -10.8401    6.4302   -1.2810 H   0  0  0  0  0  0  0  0  0  0  0  0
  1  2  2  0  0  0  0
  1 31  1  0  0  0  0
  2  3  1  0  0  0  0
  2 32  1  0  0  0  0
  3  4  2  0  0  0  0
  3 33  1  0  0  0  0
  4  5  1  0  0  0  0
  4  7  1  0  0  0  0
  5  6  2  0  0  0  0
  5 34  1  0  0  0  0
  6  1  1  0  0  0  0
  6 35  1  0  0  0  0
  7  8  1  0  0  0  0
  7 36  1  0  0  0  0
  7 37  1  0  0  0  0
  8  9  1  0  0  0  0
  8 38  1  0  0  0  0
  8 39  1  0  0  0  0
  9 10  1  0  0  0  0
  9 11  1  0  0  0  0
  9 40  1  0  0  0  0
 10 41  1  0  0  0  0
 11 12  2  0  0  0  0
 11 42  1  0  0  0  0
 12 43  1  0  0  0  0
 13 12  1  0  0  0  0
 13 14  1  0  0  0  0
 13 44  1  1  0  0  0
 14 15  1  0  0  0  0
 14 45  1  6  0  0  0
 14 20  1  0  0  0  0
 15 16  1  0  0  0  0
 15 46  1  6  0  0  0
 15 19  1  0  0  0  0
 16 17  1  0  0  0  0
 16 47  1  0  0  0  0
 16 48  1  0  0  0  0
 17 13  1  0  0  0  0
 17 49  1  1  0  0  0
 17 18  1  0  0  0  0
 18 50  1  0  0  0  0
 19 51  1  0  0  0  0
 20 21  1  0  0  0  0
 20 52  1  0  0  0  0
 20 53  1  0  0  0  0
 21 22  2  0  0  0  0
 21 54  1  0  0  0  0
 22 23  1  0  0  0  0
 22 55  1  0  0  0  0
 23 24  1  0  0  0  0
 23 56  1  0  0  0  0
 23 57  1  0  0  0  0
 24 25  1  0  0  0  0
 24 58  1  0  0  0  0
 24 59  1  0  0  0  0
 25 26  1  0  0  0  0
 25 60  1  0  0  0  0
 25 61  1  0  0  0  0
 26 27  2  0  0  0  0
 26 28  1  0  0  0  0
 28 29  1  0  0  0  0
 28 62  1  0  0  0  0
 29 30  1  0  0  0  0
 29 63  1  0  0  0  0
 29 64  1  0  0  0  0
 30 65  1  0  0  0  0
 30 66  1  0  0  0  0
 30 67  1  0  0  0  0
M  END
>  <Mol_ID>
244

>  <Formula>
C25H37NO4

>  <MolWeight>
415.56558

>  <Cat>
S1407

>  <Name>
Bimatoprost

>  <Synonyms>
AGN 192024

>  <Target>
Prostaglandin Receptor

>  <Form>
free base

>  <CAS>
155206-00-1

>  <URL>
http://selleckchem.com/products/Bimatoprost.html

$$$$
