Bindarit.cdx
 OpenBabel08302521313D

 44 46  0  0  0  0  0  0  0  0999 V2000
   -0.4950   -1.4845   -3.5286 C   0  0  0  0  0  0  0  0  0  0  0  0
   -1.3613   -2.3489   -2.5885 C   0  0  0  0  0  0  0  0  0  0  0  0
   -0.4749   -3.3233   -1.8030 C   0  0  0  0  0  0  0  0  0  0  0  0
    0.5580   -1.8354   -4.0385 O   0  0  0  0  0  0  0  0  0  0  0  0
   -1.0449   -0.2625   -3.7684 O   0  0  0  0  0  0  0  0  0  0  0  0
   -2.2203   -1.5640   -1.7401 O   0  0  0  0  0  0  0  0  0  0  0  0
   -1.5642   -0.8077   -0.7104 C   0  0  0  0  0  0  0  0  0  0  0  0
   -3.3855    1.4296    1.3772 N   0  0  0  0  0  0  0  0  0  0  0  0
   -2.5369    1.1961    0.3459 N   0  0  0  0  0  0  0  0  0  0  0  0
   -2.5359   -0.1391    0.2168 C   0  0  0  0  0  0  0  0  0  0  0  0
   -3.4306   -0.7592    1.1330 C   0  0  0  0  0  0  0  0  0  0  0  0
   -3.8108   -2.0818    1.4315 C   0  0  0  0  0  0  0  0  0  0  0  0
   -4.6791   -2.3171    2.5043 C   0  0  0  0  0  0  0  0  0  0  0  0
   -5.1632   -1.2606    3.2724 C   0  0  0  0  0  0  0  0  0  0  0  0
   -4.8136    0.0632    2.9811 C   0  0  0  0  0  0  0  0  0  0  0  0
   -3.9458    0.2847    1.9000 C   0  0  0  0  0  0  0  0  0  0  0  0
   -3.4442    2.7700    1.9538 C   0  0  0  0  0  0  0  0  0  0  0  0
   -4.6233    3.5820    1.4772 C   0  0  0  0  0  0  0  0  0  0  0  0
   -5.5588    4.0832    2.3963 C   0  0  0  0  0  0  0  0  0  0  0  0
   -6.6190    4.8849    1.9668 C   0  0  0  0  0  0  0  0  0  0  0  0
   -6.7533    5.2009    0.6167 C   0  0  0  0  0  0  0  0  0  0  0  0
   -5.8272    4.7177   -0.3052 C   0  0  0  0  0  0  0  0  0  0  0  0
   -4.7668    3.9157    0.1217 C   0  0  0  0  0  0  0  0  0  0  0  0
   -2.3069   -3.1649   -3.4817 C   0  0  0  0  0  0  0  0  0  0  0  0
    0.3303   -2.8008   -1.2747 H   0  0  0  0  0  0  0  0  0  0  0  0
   -1.0570   -3.8736   -1.0554 H   0  0  0  0  0  0  0  0  0  0  0  0
    0.0095   -4.0488   -2.4672 H   0  0  0  0  0  0  0  0  0  0  0  0
   -1.8889   -0.1610   -3.2722 H   0  0  0  0  0  0  0  0  0  0  0  0
   -0.9304   -1.4584   -0.1008 H   0  0  0  0  0  0  0  0  0  0  0  0
   -0.9233   -0.0506   -1.1752 H   0  0  0  0  0  0  0  0  0  0  0  0
   -3.4313   -2.9128    0.8442 H   0  0  0  0  0  0  0  0  0  0  0  0
   -4.9690   -3.3371    2.7466 H   0  0  0  0  0  0  0  0  0  0  0  0
   -5.8245   -1.4669    4.1115 H   0  0  0  0  0  0  0  0  0  0  0  0
   -5.1969    0.8785    3.5845 H   0  0  0  0  0  0  0  0  0  0  0  0
   -3.4542    2.6513    3.0434 H   0  0  0  0  0  0  0  0  0  0  0  0
   -2.5109    3.2869    1.6997 H   0  0  0  0  0  0  0  0  0  0  0  0
   -5.4652    3.8652    3.4578 H   0  0  0  0  0  0  0  0  0  0  0  0
   -7.3356    5.2711    2.6869 H   0  0  0  0  0  0  0  0  0  0  0  0
   -7.5760    5.8283    0.2833 H   0  0  0  0  0  0  0  0  0  0  0  0
   -5.9257    4.9708   -1.3575 H   0  0  0  0  0  0  0  0  0  0  0  0
   -4.0441    3.5588   -0.6108 H   0  0  0  0  0  0  0  0  0  0  0  0
   -2.9669   -2.5069   -4.0588 H   0  0  0  0  0  0  0  0  0  0  0  0
   -1.7575   -3.7951   -4.1900 H   0  0  0  0  0  0  0  0  0  0  0  0
   -2.9558   -3.8076   -2.8754 H   0  0  0  0  0  0  0  0  0  0  0  0
  1  2  1  0  0  0  0
  1  4  2  0  0  0  0
  1  5  1  0  0  0  0
  2  3  1  0  0  0  0
  2  6  1  0  0  0  0
  2 24  1  0  0  0  0
  3 25  1  0  0  0  0
  3 26  1  0  0  0  0
  3 27  1  0  0  0  0
  5 28  1  0  0  0  0
  6  7  1  0  0  0  0
  7 10  1  0  0  0  0
  7 29  1  0  0  0  0
  7 30  1  0  0  0  0
  8  9  1  0  0  0  0
  8 16  1  0  0  0  0
  8 17  1  0  0  0  0
  9 10  2  0  0  0  0
 10 11  1  0  0  0  0
 11 12  2  0  0  0  0
 11 16  1  0  0  0  0
 12 13  1  0  0  0  0
 12 31  1  0  0  0  0
 13 14  2  0  0  0  0
 13 32  1  0  0  0  0
 14 15  1  0  0  0  0
 14 33  1  0  0  0  0
 15 16  2  0  0  0  0
 15 34  1  0  0  0  0
 17 18  1  0  0  0  0
 17 35  1  0  0  0  0
 17 36  1  0  0  0  0
 18 19  2  0  0  0  0
 18 23  1  0  0  0  0
 19 20  1  0  0  0  0
 19 37  1  0  0  0  0
 20 21  2  0  0  0  0
 20 38  1  0  0  0  0
 21 22  1  0  0  0  0
 21 39  1  0  0  0  0
 22 23  2  0  0  0  0
 22 40  1  0  0  0  0
 23 41  1  0  0  0  0
 24 42  1  0  0  0  0
 24 43  1  0  0  0  0
 24 44  1  0  0  0  0
M  END
>  <Mol_ID>
577

>  <Formula>
C19H20N2O3

>  <MolWeight>
324.3737

>  <Cat>
S3032

>  <Name>
Bindarit (AF?2838)

>  <Synonyms>
AF 2838

>  <Target>
CCR,Immunology & Inflammation related

>  <Form>
free base

>  <CAS>
130641-38-2

>  <URL>
http://selleckchem.com/products/bindarit.html

$$$$
