BIO-acetoxime (GSK-3 Inhibitor X).cdx
 OpenBabel08302519563D

 37 40  0  0  0  0  0  0  0  0999 V2000
    1.8053    1.0550   -0.0030 C   0  0  0  0  0  0  0  0  0  0  0  0
    2.0214   -0.3310   -0.0038 C   0  0  0  0  0  0  0  0  0  0  0  0
    0.9441   -1.2192   -0.0022 C   0  0  0  0  0  0  0  0  0  0  0  0
   -0.3359   -0.6978   -0.0002 C   0  0  0  0  0  0  0  0  0  0  0  0
   -0.5557    0.6841    0.0002 C   0  0  0  0  0  0  0  0  0  0  0  0
    0.5071    1.5745   -0.0014 C   0  0  0  0  0  0  0  0  0  0  0  0
   -1.5233   -1.4006    0.0039 N   0  0  0  0  0  0  0  0  0  0  0  0
   -2.6217   -0.5552    0.0050 C   0  0  0  0  0  0  0  0  0  0  0  0
   -2.0388    0.8797    0.0028 C   0  0  0  0  0  0  0  0  0  0  0  0
   -2.7066    1.9881    0.0029 N   0  0  0  0  0  0  0  0  0  0  0  0
   -3.9031   -0.9720    0.0066 C   0  0  0  0  0  0  0  0  0  0  0  0
   -4.1718   -2.4698    0.0077 C   0  0  0  0  0  0  0  0  0  0  0  0
   -5.5471   -2.6077    0.0047 N   0  0  0  0  0  0  0  0  0  0  0  0
   -6.1730   -1.3665    0.0037 C   0  0  0  0  0  0  0  0  0  0  0  0
   -5.2242   -0.3281    0.0052 C   0  0  0  0  0  0  0  0  0  0  0  0
   -3.3556   -3.3759    0.0103 O   0  0  0  0  0  0  0  0  0  0  0  0
   -7.5396   -1.1523    0.0020 C   0  0  0  0  0  0  0  0  0  0  0  0
   -7.9686    0.1721    0.0011 C   0  0  0  0  0  0  0  0  0  0  0  0
   -7.0461    1.2288    0.0026 C   0  0  0  0  0  0  0  0  0  0  0  0
   -5.6669    0.9789    0.0049 C   0  0  0  0  0  0  0  0  0  0  0  0
   -1.8959    3.1417   -0.0005 O   0  0  0  0  0  0  0  0  0  0  0  0
   -2.6673    4.2792   -0.0008 C   0  0  0  0  0  0  0  0  0  0  0  0
   -1.8006    5.5110   -0.0023 C   0  0  0  0  0  0  0  0  0  0  0  0
   -3.8949    4.3355    0.0003 O   0  0  0  0  0  0  0  0  0  0  0  0
   -9.8200    0.5583   -0.0022 Br  0  0  0  0  0  0  0  0  0  0  0  0
    2.6567    1.7325   -0.0035 H   0  0  0  0  0  0  0  0  0  0  0  0
    3.0389   -0.7163   -0.0054 H   0  0  0  0  0  0  0  0  0  0  0  0
    1.1117   -2.2912   -0.0025 H   0  0  0  0  0  0  0  0  0  0  0  0
    0.3689    2.6466   -0.0010 H   0  0  0  0  0  0  0  0  0  0  0  0
   -1.6318   -2.4099    0.0024 H   0  0  0  0  0  0  0  0  0  0  0  0
   -6.0083   -3.5060    0.0041 H   0  0  0  0  0  0  0  0  0  0  0  0
   -8.2446   -1.9757    0.0018 H   0  0  0  0  0  0  0  0  0  0  0  0
   -7.3868    2.2621    0.0023 H   0  0  0  0  0  0  0  0  0  0  0  0
   -4.9897    1.8217    0.0065 H   0  0  0  0  0  0  0  0  0  0  0  0
   -2.0127    6.1033   -0.8974 H   0  0  0  0  0  0  0  0  0  0  0  0
   -2.0120    6.1045    0.8926 H   0  0  0  0  0  0  0  0  0  0  0  0
   -0.7364    5.2591   -0.0024 H   0  0  0  0  0  0  0  0  0  0  0  0
  1  2  2  0  0  0  0
  1 26  1  0  0  0  0
  2  3  1  0  0  0  0
  2 27  1  0  0  0  0
  3  4  2  0  0  0  0
  3 28  1  0  0  0  0
  4  5  1  0  0  0  0
  4  7  1  0  0  0  0
  5  6  2  0  0  0  0
  6  1  1  0  0  0  0
  6 29  1  0  0  0  0
  7  8  1  0  0  0  0
  7 30  1  0  0  0  0
  8  9  1  0  0  0  0
  8 11  2  0  0  0  0
  9  5  1  0  0  0  0
  9 10  2  0  0  0  0
 10 21  1  0  0  0  0
 11 12  1  0  0  0  0
 12 13  1  0  0  0  0
 12 16  2  0  0  0  0
 13 14  1  0  0  0  0
 13 31  1  0  0  0  0
 14 15  2  0  0  0  0
 14 17  1  0  0  0  0
 15 11  1  0  0  0  0
 17 18  2  0  0  0  0
 17 32  1  0  0  0  0
 18 19  1  0  0  0  0
 18 25  1  0  0  0  0
 19 20  2  0  0  0  0
 19 33  1  0  0  0  0
 20 15  1  0  0  0  0
 20 34  1  0  0  0  0
 21 22  1  0  0  0  0
 22 23  1  0  0  0  0
 22 24  2  0  0  0  0
 23 35  1  0  0  0  0
 23 36  1  0  0  0  0
 23 37  1  0  0  0  0
M  END
>  <Mol_ID>
2212

>  <Formula>
C18H12BrN3O3

>  <MolWeight>
398.21018

>  <Cat>
S7915

>  <Name>
BIO-acetoxime

>  <Synonyms>
GSK-3 Inhibitor X

>  <Target>
GSK-3

>  <Form>
free base

>  <CAS>
667463-85-6

>  <URL>
http://selleckchem.com/products/bio-acetoxime.html

$$$$
