BIO (6-bromoindirubin-3-oxime).cdx
 OpenBabel08302519573D

 32 35  0  0  0  0  0  0  0  0999 V2000
    1.8133    1.0252   -0.0025 C   0  0  0  0  0  0  0  0  0  0  0  0
    2.0438   -0.3592   -0.0028 C   0  0  0  0  0  0  0  0  0  0  0  0
    0.9743   -1.2602   -0.0023 C   0  0  0  0  0  0  0  0  0  0  0  0
   -0.3120   -0.7548   -0.0011 C   0  0  0  0  0  0  0  0  0  0  0  0
   -0.5428    0.6251   -0.0010 C   0  0  0  0  0  0  0  0  0  0  0  0
    0.5090    1.5287   -0.0017 C   0  0  0  0  0  0  0  0  0  0  0  0
   -1.4991   -1.4656   -0.0027 N   0  0  0  0  0  0  0  0  0  0  0  0
   -2.5990   -0.6211   -0.0023 C   0  0  0  0  0  0  0  0  0  0  0  0
   -2.0246    0.8050   -0.0012 C   0  0  0  0  0  0  0  0  0  0  0  0
   -2.7127    1.9002   -0.0009 N   0  0  0  0  0  0  0  0  0  0  0  0
   -1.9305    3.0535    0.0010 O   0  0  0  0  0  0  0  0  0  0  0  0
   -3.8910   -1.0029   -0.0027 C   0  0  0  0  0  0  0  0  0  0  0  0
   -4.1876   -2.4915   -0.0058 C   0  0  0  0  0  0  0  0  0  0  0  0
   -5.5658   -2.5988   -0.0098 N   0  0  0  0  0  0  0  0  0  0  0  0
   -6.1687   -1.3472   -0.0069 C   0  0  0  0  0  0  0  0  0  0  0  0
   -5.2026   -0.3272   -0.0020 C   0  0  0  0  0  0  0  0  0  0  0  0
   -7.5332   -1.1133   -0.0075 C   0  0  0  0  0  0  0  0  0  0  0  0
   -7.9464    0.2162   -0.0013 C   0  0  0  0  0  0  0  0  0  0  0  0
   -7.0105    1.2589    0.0042 C   0  0  0  0  0  0  0  0  0  0  0  0
   -5.6339    0.9867    0.0039 C   0  0  0  0  0  0  0  0  0  0  0  0
   -9.7928    0.6256    0.0011 Br  0  0  0  0  0  0  0  0  0  0  0  0
   -3.3912   -3.4143   -0.0047 O   0  0  0  0  0  0  0  0  0  0  0  0
    2.6566    1.7126   -0.0032 H   0  0  0  0  0  0  0  0  0  0  0  0
    3.0654   -0.7328   -0.0036 H   0  0  0  0  0  0  0  0  0  0  0  0
    1.1564   -2.3294   -0.0030 H   0  0  0  0  0  0  0  0  0  0  0  0
    0.3478    2.5992   -0.0021 H   0  0  0  0  0  0  0  0  0  0  0  0
   -1.6035   -2.4742   -0.0002 H   0  0  0  0  0  0  0  0  0  0  0  0
   -2.5974    3.7643   -0.0005 H   0  0  0  0  0  0  0  0  0  0  0  0
   -6.0438   -3.4866   -0.0126 H   0  0  0  0  0  0  0  0  0  0  0  0
   -8.2482   -1.9269   -0.0115 H   0  0  0  0  0  0  0  0  0  0  0  0
   -7.3414    2.2954    0.0089 H   0  0  0  0  0  0  0  0  0  0  0  0
   -4.9502    1.8223    0.0090 H   0  0  0  0  0  0  0  0  0  0  0  0
  1  2  2  0  0  0  0
  1 23  1  0  0  0  0
  2  3  1  0  0  0  0
  2 24  1  0  0  0  0
  3  4  2  0  0  0  0
  3 25  1  0  0  0  0
  4  5  1  0  0  0  0
  4  7  1  0  0  0  0
  5  6  2  0  0  0  0
  6  1  1  0  0  0  0
  6 26  1  0  0  0  0
  7  8  1  0  0  0  0
  7 27  1  0  0  0  0
  8  9  1  0  0  0  0
  8 12  2  0  0  0  0
  9  5  1  0  0  0  0
  9 10  2  0  0  0  0
 10 11  1  0  0  0  0
 11 28  1  0  0  0  0
 12 13  1  0  0  0  0
 13 14  1  0  0  0  0
 13 22  2  0  0  0  0
 14 15  1  0  0  0  0
 14 29  1  0  0  0  0
 15 16  2  0  0  0  0
 15 17  1  0  0  0  0
 16 12  1  0  0  0  0
 17 18  2  0  0  0  0
 17 30  1  0  0  0  0
 18 19  1  0  0  0  0
 18 21  1  0  0  0  0
 19 20  2  0  0  0  0
 19 31  1  0  0  0  0
 20 16  1  0  0  0  0
 20 32  1  0  0  0  0
M  END
>  <Mol_ID>
2251

>  <Formula>
C16H10BrN3O2

>  <MolWeight>
356.1735

>  <Cat>
S7198

>  <Name>
BIO

>  <Synonyms>
GSK-3 Inhibitor IX, 6-bromoindirubin-3-oxime, 6-Bromoindirubin-3'-oxime, MLS 2052

>  <Target>
Apoptosis related,CDK,GSK-3,JAK

>  <Form>
free base

>  <CAS>
667463-62-9

>  <URL>
http://selleckchem.com/products/bio.html

$$$$
