Biocytin
 OpenBabel08302521313D

 53 54  0  0  0  0  0  0  0  0999 V2000
    7.0364   -2.0621   -3.1886 C   0  0  0  0  0  0  0  0  0  0  0  0
    6.2486   -3.4883   -1.3315 N   0  0  0  0  0  0  0  0  0  0  0  0
    7.2956   -3.3499   -2.3892 C   0  0  1  0  0  0  0  0  0  0  0  0
    7.3956   -4.5959   -3.2858 C   0  0  0  0  0  0  0  0  0  0  0  0
    6.1158   -5.0630   -4.0027 C   0  0  0  0  0  0  0  0  0  0  0  0
    5.5663   -4.0655   -5.0285 C   0  0  0  0  0  0  0  0  0  0  0  0
    4.3026   -4.5402   -5.7377 C   0  0  0  0  0  0  0  0  0  0  0  0
    3.2199   -4.7815   -4.7968 N   0  0  0  0  0  0  0  0  0  0  0  0
    7.7616   -1.6120   -4.0599 O   0  0  0  0  0  0  0  0  0  0  0  0
    5.8520   -1.4920   -2.8319 O   0  0  0  0  0  0  0  0  0  0  0  0
    2.2399   -5.7105   -5.0491 C   0  0  0  0  0  0  0  0  0  0  0  0
    1.2489   -5.8936   -3.9219 C   0  0  0  0  0  0  0  0  0  0  0  0
    0.0728   -4.9256   -3.9666 C   0  0  0  0  0  0  0  0  0  0  0  0
   -0.8203   -4.9777   -5.2178 C   0  0  0  0  0  0  0  0  0  0  0  0
   -1.5050   -6.3315   -5.4678 C   0  0  0  0  0  0  0  0  0  0  0  0
    2.1713   -6.3650   -6.0828 O   0  0  0  0  0  0  0  0  0  0  0  0
   -4.7202   -8.9656   -5.8187 C   0  0  0  0  0  0  0  0  0  0  0  0
   -5.3562   -8.4036   -6.8992 N   0  0  0  0  0  0  0  0  0  0  0  0
   -4.4700   -7.5615   -7.6789 C   0  0  2  0  0  0  0  0  0  0  0  0
   -3.1022   -7.7171   -6.9692 C   0  0  2  0  0  0  0  0  0  0  0  0
   -3.4264   -8.5031   -5.7950 N   0  0  0  0  0  0  0  0  0  0  0  0
   -4.9127   -6.1007   -7.6945 C   0  0  0  0  0  0  0  0  0  0  0  0
   -2.4669   -6.3438   -6.6772 C   0  0  1  0  0  0  0  0  0  0  0  0
   -3.8940   -5.2276   -6.4806 S   0  0  0  0  0  0  0  0  0  0  0  0
   -5.2037   -9.7652   -5.0404 O   0  0  0  0  0  0  0  0  0  0  0  0
    6.4067   -4.3872   -0.8633 H   0  0  0  0  0  0  0  0  0  0  0  0
    6.4562   -2.8011   -0.5963 H   0  0  0  0  0  0  0  0  0  0  0  0
    8.2530   -3.2033   -1.8754 H   0  0  0  0  0  0  0  0  0  0  0  0
    8.1804   -4.4370   -4.0362 H   0  0  0  0  0  0  0  0  0  0  0  0
    7.7425   -5.4320   -2.6617 H   0  0  0  0  0  0  0  0  0  0  0  0
    6.3466   -6.0024   -4.5231 H   0  0  0  0  0  0  0  0  0  0  0  0
    5.3519   -5.3078   -3.2565 H   0  0  0  0  0  0  0  0  0  0  0  0
    5.3053   -3.1301   -4.5380 H   0  0  0  0  0  0  0  0  0  0  0  0
    6.3406   -3.8431   -5.7726 H   0  0  0  0  0  0  0  0  0  0  0  0
    3.9599   -3.7604   -6.4275 H   0  0  0  0  0  0  0  0  0  0  0  0
    4.5012   -5.4444   -6.3211 H   0  0  0  0  0  0  0  0  0  0  0  0
    3.0680   -4.1010   -4.0604 H   0  0  0  0  0  0  0  0  0  0  0  0
    5.4311   -2.1214   -2.1955 H   0  0  0  0  0  0  0  0  0  0  0  0
    0.9144   -6.9357   -3.9294 H   0  0  0  0  0  0  0  0  0  0  0  0
    1.7838   -5.7590   -2.9719 H   0  0  0  0  0  0  0  0  0  0  0  0
   -0.5505   -5.1117   -3.0826 H   0  0  0  0  0  0  0  0  0  0  0  0
    0.4519   -3.9010   -3.8651 H   0  0  0  0  0  0  0  0  0  0  0  0
   -1.5867   -4.2061   -5.0805 H   0  0  0  0  0  0  0  0  0  0  0  0
   -0.2406   -4.6870   -6.1007 H   0  0  0  0  0  0  0  0  0  0  0  0
   -0.7350   -7.0932   -5.6404 H   0  0  0  0  0  0  0  0  0  0  0  0
   -2.0412   -6.6260   -4.5572 H   0  0  0  0  0  0  0  0  0  0  0  0
   -6.3001   -8.6811   -7.1347 H   0  0  0  0  0  0  0  0  0  0  0  0
   -4.4580   -7.9710   -8.6948 H   0  0  0  0  0  0  0  0  0  0  0  0
   -2.4228   -8.3312   -7.5723 H   0  0  0  0  0  0  0  0  0  0  0  0
   -2.7608   -8.9268   -5.1629 H   0  0  0  0  0  0  0  0  0  0  0  0
   -4.7227   -5.6615   -8.6794 H   0  0  0  0  0  0  0  0  0  0  0  0
   -5.9755   -5.9731   -7.4651 H   0  0  0  0  0  0  0  0  0  0  0  0
   -1.9270   -6.0126   -7.5734 H   0  0  0  0  0  0  0  0  0  0  0  0
  1  3  1  0  0  0  0
  1  9  2  0  0  0  0
  1 10  1  0  0  0  0
  2 26  1  0  0  0  0
  2 27  1  0  0  0  0
  3  2  1  0  0  0  0
  3  4  1  0  0  0  0
  3 28  1  1  0  0  0
  4  5  1  0  0  0  0
  4 29  1  0  0  0  0
  4 30  1  0  0  0  0
  5  6  1  0  0  0  0
  5 31  1  0  0  0  0
  5 32  1  0  0  0  0
  6  7  1  0  0  0  0
  6 33  1  0  0  0  0
  6 34  1  0  0  0  0
  7  8  1  0  0  0  0
  7 35  1  0  0  0  0
  7 36  1  0  0  0  0
  8 11  1  0  0  0  0
  8 37  1  0  0  0  0
 10 38  1  0  0  0  0
 11 12  1  0  0  0  0
 11 16  2  0  0  0  0
 12 13  1  0  0  0  0
 12 39  1  0  0  0  0
 12 40  1  0  0  0  0
 13 14  1  0  0  0  0
 13 41  1  0  0  0  0
 13 42  1  0  0  0  0
 14 15  1  0  0  0  0
 14 43  1  0  0  0  0
 14 44  1  0  0  0  0
 15 45  1  0  0  0  0
 15 46  1  0  0  0  0
 17 18  1  0  0  0  0
 17 21  1  0  0  0  0
 17 25  2  0  0  0  0
 18 19  1  0  0  0  0
 18 47  1  0  0  0  0
 19 20  1  0  0  0  0
 19 22  1  0  0  0  0
 19 48  1  6  0  0  0
 20 21  1  0  0  0  0
 20 49  1  6  0  0  0
 21 50  1  0  0  0  0
 22 24  1  0  0  0  0
 22 51  1  0  0  0  0
 22 52  1  0  0  0  0
 23 24  1  0  0  0  0
 23 20  1  0  0  0  0
 23 53  1  6  0  0  0
 23 15  1  0  0  0  0
M  END
>  <Mol_ID>
5941

>  <Formula>
C16H28N4O4S

>  <MolWeight>
372.48292

>  <Cat>
S9886

>  <Name>
Biocytin

>  <Synonyms>
(+)-Biocytin, Biotinyl-L-lysine

>  <Target>
Dyes

>  <Form>
Free Base

>  <CAS>
576-19-2

>  <URL>
http://www.selleckchem.com/products/biocytin.html

$$$$
