Biochanin A.cdx
 OpenBabel08302521263D

 33 35  0  0  0  0  0  0  0  0999 V2000
    2.3579   -0.2696   -0.0052 C   0  0  0  0  0  0  0  0  0  0  0  0
    1.9398    1.0571   -0.0219 C   0  0  0  0  0  0  0  0  0  0  0  0
    0.5717    1.3434   -0.0375 C   0  0  0  0  0  0  0  0  0  0  0  0
   -0.3747    0.3072   -0.0390 C   0  0  0  0  0  0  0  0  0  0  0  0
    0.0702   -1.0190   -0.0228 C   0  0  0  0  0  0  0  0  0  0  0  0
    1.4359   -1.3088   -0.0016 C   0  0  0  0  0  0  0  0  0  0  0  0
   -1.8369    0.5532   -0.0564 C   0  0  0  0  0  0  0  0  0  0  0  0
   -2.7087   -0.6513   -0.1116 C   0  0  0  0  0  0  0  0  0  0  0  0
   -2.1258   -1.8557   -0.0918 C   0  0  0  0  0  0  0  0  0  0  0  0
   -0.7773   -2.1003   -0.0299 O   0  0  0  0  0  0  0  0  0  0  0  0
    3.6813   -0.5970    0.0045 O   0  0  0  0  0  0  0  0  0  0  0  0
   -2.3283    1.6749   -0.0225 O   0  0  0  0  0  0  0  0  0  0  0  0
   -4.1682   -0.5196   -0.1792 C   0  0  0  0  0  0  0  0  0  0  0  0
   -4.9276   -0.4680    0.9948 C   0  0  0  0  0  0  0  0  0  0  0  0
   -6.3129   -0.2769    0.9363 C   0  0  0  0  0  0  0  0  0  0  0  0
   -6.9516   -0.1437   -0.2970 C   0  0  0  0  0  0  0  0  0  0  0  0
   -6.1940   -0.2091   -1.4691 C   0  0  0  0  0  0  0  0  0  0  0  0
   -4.8104   -0.3962   -1.4149 C   0  0  0  0  0  0  0  0  0  0  0  0
   -8.2908    0.0547   -0.4917 O   0  0  0  0  0  0  0  0  0  0  0  0
   -9.0966    0.1766    0.6736 C   0  0  0  0  0  0  0  0  0  0  0  0
    0.1778    2.6511   -0.0586 O   0  0  0  0  0  0  0  0  0  0  0  0
    2.6679    1.8612   -0.0254 H   0  0  0  0  0  0  0  0  0  0  0  0
    1.7793   -2.3396    0.0129 H   0  0  0  0  0  0  0  0  0  0  0  0
   -2.6707   -2.7917   -0.1222 H   0  0  0  0  0  0  0  0  0  0  0  0
    4.2146    0.2142   -0.0359 H   0  0  0  0  0  0  0  0  0  0  0  0
   -4.4436   -0.5462    1.9658 H   0  0  0  0  0  0  0  0  0  0  0  0
   -6.8575   -0.2213    1.8725 H   0  0  0  0  0  0  0  0  0  0  0  0
   -6.6833   -0.0938   -2.4332 H   0  0  0  0  0  0  0  0  0  0  0  0
   -4.2399   -0.4157   -2.3403 H   0  0  0  0  0  0  0  0  0  0  0  0
   -9.0449   -0.7283    1.2879 H   0  0  0  0  0  0  0  0  0  0  0  0
   -8.8199    1.0644    1.2521 H   0  0  0  0  0  0  0  0  0  0  0  0
  -10.1351    0.2976    0.3511 H   0  0  0  0  0  0  0  0  0  0  0  0
    0.9405    3.2468   -0.0124 H   0  0  0  0  0  0  0  0  0  0  0  0
  1  2  2  0  0  0  0
  1 11  1  0  0  0  0
  2  3  1  0  0  0  0
  2 22  1  0  0  0  0
  3  4  2  0  0  0  0
  3 21  1  0  0  0  0
  4  5  1  0  0  0  0
  4  7  1  0  0  0  0
  5  6  2  0  0  0  0
  6  1  1  0  0  0  0
  6 23  1  0  0  0  0
  7  8  1  0  0  0  0
  7 12  2  0  0  0  0
  8  9  2  0  0  0  0
  8 13  1  0  0  0  0
  9 10  1  0  0  0  0
  9 24  1  0  0  0  0
 10  5  1  0  0  0  0
 11 25  1  0  0  0  0
 13 14  2  0  0  0  0
 14 15  1  0  0  0  0
 14 26  1  0  0  0  0
 15 16  2  0  0  0  0
 15 27  1  0  0  0  0
 16 17  1  0  0  0  0
 16 19  1  0  0  0  0
 17 18  2  0  0  0  0
 17 28  1  0  0  0  0
 18 13  1  0  0  0  0
 18 29  1  0  0  0  0
 19 20  1  0  0  0  0
 20 30  1  0  0  0  0
 20 31  1  0  0  0  0
 20 32  1  0  0  0  0
 21 33  1  0  0  0  0
M  END
>  <Mol_ID>
496

>  <Formula>
C16H12O5

>  <MolWeight>
284.26348

>  <Cat>
S2377

>  <Name>
Biochanin A

>  <Synonyms>
4-Methylgenistein

>  <Target>
FAAH

>  <Form>
free base

>  <CAS>
491-80-5

>  <URL>
http://selleckchem.com/products/Biochanin-A(4-Methylgenistein).html

$$$$
