Biotin.cdx
 OpenBabel08302521333D

 32 33  0  0  0  0  0  0  0  0999 V2000
   -1.8529   -0.1686   -0.0849 C   0  0  0  0  0  0  0  0  0  0  0  0
   -1.1220   -1.2956    0.2116 N   0  0  0  0  0  0  0  0  0  0  0  0
    0.0992   -0.9893    0.9270 C   0  0  2  0  0  0  0  0  0  0  0  0
    0.0565    0.5501    1.0773 C   0  0  2  0  0  0  0  0  0  0  0  0
   -1.1759    0.9188    0.4090 N   0  0  0  0  0  0  0  0  0  0  0  0
    1.3494   -1.4206    0.1618 C   0  0  0  0  0  0  0  0  0  0  0  0
    1.3300    1.1736    0.4721 C   0  0  1  0  0  0  0  0  0  0  0  0
    1.8313    0.0124   -0.8316 S   0  0  0  0  0  0  0  0  0  0  0  0
   -1.8415    4.7728    0.0862 C   0  0  0  0  0  0  0  0  0  0  0  0
   -0.4900    5.2374   -0.3842 C   0  0  0  0  0  0  0  0  0  0  0  0
    0.6153    5.0211    0.6487 C   0  0  0  0  0  0  0  0  0  0  0  0
    0.8472    3.5746    1.0956 C   0  0  0  0  0  0  0  0  0  0  0  0
    1.1870    2.6078   -0.0451 C   0  0  0  0  0  0  0  0  0  0  0  0
   -2.1379    3.6338    0.4181 O   0  0  0  0  0  0  0  0  0  0  0  0
   -2.7614    5.7535    0.1016 O   0  0  0  0  0  0  0  0  0  0  0  0
   -2.9228   -0.1507   -0.6627 O   0  0  0  0  0  0  0  0  0  0  0  0
   -1.4677   -2.2105   -0.0457 H   0  0  0  0  0  0  0  0  0  0  0  0
    0.0405   -1.4977    1.8955 H   0  0  0  0  0  0  0  0  0  0  0  0
   -0.0488    0.8433    2.1291 H   0  0  0  0  0  0  0  0  0  0  0  0
   -1.5961    1.8478    0.3723 H   0  0  0  0  0  0  0  0  0  0  0  0
    2.1659   -1.6295    0.8602 H   0  0  0  0  0  0  0  0  0  0  0  0
    1.1874   -2.3044   -0.4611 H   0  0  0  0  0  0  0  0  0  0  0  0
    2.1301    1.1416    1.2218 H   0  0  0  0  0  0  0  0  0  0  0  0
   -0.5463    6.3095   -0.6088 H   0  0  0  0  0  0  0  0  0  0  0  0
   -0.2681    4.7390   -1.3334 H   0  0  0  0  0  0  0  0  0  0  0  0
    0.3855    5.6151    1.5421 H   0  0  0  0  0  0  0  0  0  0  0  0
    1.5531    5.4177    0.2420 H   0  0  0  0  0  0  0  0  0  0  0  0
   -0.0292    3.2265    1.6506 H   0  0  0  0  0  0  0  0  0  0  0  0
    1.6726    3.5668    1.8187 H   0  0  0  0  0  0  0  0  0  0  0  0
    2.1273    2.9322   -0.5093 H   0  0  0  0  0  0  0  0  0  0  0  0
    0.4219    2.6494   -0.8280 H   0  0  0  0  0  0  0  0  0  0  0  0
   -3.5890    5.3085    0.3835 H   0  0  0  0  0  0  0  0  0  0  0  0
  1  2  1  0  0  0  0
  1  5  1  0  0  0  0
  1 16  2  0  0  0  0
  2  3  1  0  0  0  0
  2 17  1  0  0  0  0
  3  4  1  0  0  0  0
  3  6  1  0  0  0  0
  3 18  1  1  0  0  0
  4  5  1  0  0  0  0
  4  7  1  0  0  0  0
  4 19  1  1  0  0  0
  5 20  1  0  0  0  0
  6  8  1  0  0  0  0
  6 21  1  0  0  0  0
  6 22  1  0  0  0  0
  7  8  1  0  0  0  0
  7 13  1  0  0  0  0
  7 23  1  1  0  0  0
  9 10  1  0  0  0  0
  9 14  2  0  0  0  0
  9 15  1  0  0  0  0
 10 11  1  0  0  0  0
 10 24  1  0  0  0  0
 10 25  1  0  0  0  0
 11 12  1  0  0  0  0
 11 26  1  0  0  0  0
 11 27  1  0  0  0  0
 12 13  1  0  0  0  0
 12 28  1  0  0  0  0
 12 29  1  0  0  0  0
 13 30  1  0  0  0  0
 13 31  1  0  0  0  0
 15 32  1  0  0  0  0
M  END
>  <Mol_ID>
610

>  <Formula>
C10H16N2O3S

>  <MolWeight>
244.31064

>  <Cat>
S3130

>  <Name>
Biotin (Vitamin B7)

>  <Synonyms>
N/A

>  <Target>
Dyes,Vitamin

>  <Form>
free base

>  <CAS>
58-85-5

>  <URL>
http://selleckchem.com/products/biotin-vitamin-b7.html

$$$$
