Bioymifi.cdx
 OpenBabel08302520003D

 43 47  0  0  0  0  0  0  0  0999 V2000
    2.1114   -0.6337    5.4186 C   0  0  0  0  0  0  0  0  0  0  0  0
    3.3840   -0.5136    4.8510 C   0  0  0  0  0  0  0  0  0  0  0  0
    4.1883    0.5949    5.1476 C   0  0  0  0  0  0  0  0  0  0  0  0
    3.6926    1.5961    5.9946 C   0  0  0  0  0  0  0  0  0  0  0  0
    2.4082    1.4913    6.5357 C   0  0  0  0  0  0  0  0  0  0  0  0
    1.6267    0.3730    6.2516 C   0  0  0  0  0  0  0  0  0  0  0  0
   -0.1038    0.2249    6.9970 Br  0  0  0  0  0  0  0  0  0  0  0  0
    5.5007    0.6837    4.6225 N   0  0  0  0  0  0  0  0  0  0  0  0
    6.6166    0.8126    5.4072 C   0  0  0  0  0  0  0  0  0  0  0  0
    8.0685    0.8387    4.4578 S   0  0  0  0  0  0  0  0  0  0  0  0
    7.1965    0.7544    2.9775 C   0  0  0  0  0  0  0  0  0  0  0  0
    5.7303    0.6483    3.2527 C   0  0  0  0  0  0  0  0  0  0  0  0
    4.8920    0.5838    2.3615 O   0  0  0  0  0  0  0  0  0  0  0  0
    6.6874    0.8563    6.6912 N   0  0  0  0  0  0  0  0  0  0  0  0
    7.6789    0.8262    1.7289 C   0  0  0  0  0  0  0  0  0  0  0  0
    9.0689    0.8573    1.4199 C   0  0  0  0  0  0  0  0  0  0  0  0
    9.7059    1.4743    0.3514 C   0  0  0  0  0  0  0  0  0  0  0  0
   11.0892    1.1947    0.4487 C   0  0  0  0  0  0  0  0  0  0  0  0
   11.2514    0.3974    1.5603 C   0  0  0  0  0  0  0  0  0  0  0  0
   10.0386    0.1953    2.1444 O   0  0  0  0  0  0  0  0  0  0  0  0
   12.4019   -0.2695    2.1669 C   0  0  0  0  0  0  0  0  0  0  0  0
   12.2793   -1.0483    3.3490 C   0  0  0  0  0  0  0  0  0  0  0  0
   13.3700   -1.7497    3.8889 C   0  0  0  0  0  0  0  0  0  0  0  0
   14.5762   -1.6455    3.2284 C   0  0  0  0  0  0  0  0  0  0  0  0
   14.7135   -0.8698    2.0933 C   0  0  0  0  0  0  0  0  0  0  0  0
   13.6572   -0.1720    1.5432 C   0  0  0  0  0  0  0  0  0  0  0  0
   15.8751   -2.2674    3.4892 C   0  0  0  0  0  0  0  0  0  0  0  0
   16.7152   -1.8264    2.5119 N   0  0  0  0  0  0  0  0  0  0  0  0
   16.0959   -0.9901    1.6373 C   0  0  0  0  0  0  0  0  0  0  0  0
   16.5621   -0.4446    0.6576 O   0  0  0  0  0  0  0  0  0  0  0  0
   16.1227   -3.0336    4.3974 O   0  0  0  0  0  0  0  0  0  0  0  0
    1.5095   -1.5142    5.2065 H   0  0  0  0  0  0  0  0  0  0  0  0
    3.7518   -1.3130    4.2110 H   0  0  0  0  0  0  0  0  0  0  0  0
    4.2843    2.4832    6.2126 H   0  0  0  0  0  0  0  0  0  0  0  0
    2.0260    2.2867    7.1711 H   0  0  0  0  0  0  0  0  0  0  0  0
    5.7637    0.7751    7.1141 H   0  0  0  0  0  0  0  0  0  0  0  0
    6.9878    0.8653    0.8892 H   0  0  0  0  0  0  0  0  0  0  0  0
    9.2237    2.0656   -0.4149 H   0  0  0  0  0  0  0  0  0  0  0  0
   11.8681    1.5195   -0.2256 H   0  0  0  0  0  0  0  0  0  0  0  0
   11.3156   -1.1219    3.8542 H   0  0  0  0  0  0  0  0  0  0  0  0
   13.2695   -2.3596    4.7811 H   0  0  0  0  0  0  0  0  0  0  0  0
   13.8133    0.4095    0.6407 H   0  0  0  0  0  0  0  0  0  0  0  0
   17.6792   -2.1077    2.4299 H   0  0  0  0  0  0  0  0  0  0  0  0
  1  2  2  0  0  0  0
  1 32  1  0  0  0  0
  2  3  1  0  0  0  0
  2 33  1  0  0  0  0
  3  4  2  0  0  0  0
  3  8  1  0  0  0  0
  4  5  1  0  0  0  0
  4 34  1  0  0  0  0
  5  6  2  0  0  0  0
  5 35  1  0  0  0  0
  6  1  1  0  0  0  0
  6  7  1  0  0  0  0
  8  9  1  0  0  0  0
  9 10  1  0  0  0  0
  9 14  2  0  0  0  0
 10 11  1  0  0  0  0
 11 12  1  0  0  0  0
 11 15  2  0  0  0  0
 12  8  1  0  0  0  0
 12 13  2  0  0  0  0
 14 36  1  0  0  0  0
 15 16  1  0  0  0  0
 15 37  1  0  0  0  0
 16 17  2  0  0  0  0
 17 18  1  0  0  0  0
 17 38  1  0  0  0  0
 18 19  2  0  0  0  0
 18 39  1  0  0  0  0
 19 20  1  0  0  0  0
 19 21  1  0  0  0  0
 20 16  1  0  0  0  0
 21 22  2  0  0  0  0
 22 23  1  0  0  0  0
 22 40  1  0  0  0  0
 23 24  2  0  0  0  0
 23 41  1  0  0  0  0
 24 25  1  0  0  0  0
 24 27  1  0  0  0  0
 25 26  2  0  0  0  0
 26 21  1  0  0  0  0
 26 42  1  0  0  0  0
 27 28  1  0  0  0  0
 27 31  2  0  0  0  0
 28 29  1  0  0  0  0
 28 43  1  0  0  0  0
 29 25  1  0  0  0  0
 29 30  2  0  0  0  0
M  END
>  <Mol_ID>
2733

>  <Formula>
C22H12BrN3O4S

>  <MolWeight>
494.31738

>  <Cat>
S7942

>  <Name>
Bioymifi

>  <Synonyms>
N/A

>  <Target>
TNF-alpha

>  <Form>
free base

>  <CAS>
1420071-30-2

>  <URL>
http://selleckchem.com/products/bioymifi.html

$$$$
