Bis(2-methyl-3-furyl)disulphide
 OpenBabel08302520393D

 24 25  0  0  0  0  0  0  0  0999 V2000
   -0.0095   -1.1543   -0.0278 C   0  0  0  0  0  0  0  0  0  0  0  0
    0.2332   -2.8378   -0.4181 S   0  0  0  0  0  0  0  0  0  0  0  0
   -0.9889   -0.3343   -0.5516 C   0  0  0  0  0  0  0  0  0  0  0  0
    0.7455   -0.3594    0.8660 C   0  0  0  0  0  0  0  0  0  0  0  0
    2.2092   -3.2297   -0.0407 S   0  0  0  0  0  0  0  0  0  0  0  0
   -0.8620    0.9240   -0.0397 O   0  0  0  0  0  0  0  0  0  0  0  0
   -2.0931   -0.5183   -1.5170 C   0  0  0  0  0  0  0  0  0  0  0  0
    0.1940    0.9006    0.8131 C   0  0  0  0  0  0  0  0  0  0  0  0
    3.1508   -2.3755   -1.2421 C   0  0  0  0  0  0  0  0  0  0  0  0
    2.8724   -1.9990   -2.5429 C   0  0  0  0  0  0  0  0  0  0  0  0
    4.4751   -1.9357   -0.9758 C   0  0  0  0  0  0  0  0  0  0  0  0
    3.9508   -1.3393   -3.0679 O   0  0  0  0  0  0  0  0  0  0  0  0
    1.7370   -2.1302   -3.4785 C   0  0  0  0  0  0  0  0  0  0  0  0
    4.9128   -1.3088   -2.1143 C   0  0  0  0  0  0  0  0  0  0  0  0
    1.5935   -0.6445    1.4707 H   0  0  0  0  0  0  0  0  0  0  0  0
   -3.0567   -0.3499   -1.0260 H   0  0  0  0  0  0  0  0  0  0  0  0
   -1.9999    0.1940   -2.3429 H   0  0  0  0  0  0  0  0  0  0  0  0
   -2.1015   -1.5258   -1.9419 H   0  0  0  0  0  0  0  0  0  0  0  0
    0.4234    1.8396    1.2960 H   0  0  0  0  0  0  0  0  0  0  0  0
    5.0424   -2.0584   -0.0641 H   0  0  0  0  0  0  0  0  0  0  0  0
    1.2749   -1.1526   -3.6493 H   0  0  0  0  0  0  0  0  0  0  0  0
    2.0856   -2.5143   -4.4426 H   0  0  0  0  0  0  0  0  0  0  0  0
    0.9701   -2.8180   -3.1230 H   0  0  0  0  0  0  0  0  0  0  0  0
    5.8331   -0.8157   -2.3949 H   0  0  0  0  0  0  0  0  0  0  0  0
  1  2  1  0  0  0  0
  1  3  2  0  0  0  0
  1  4  1  0  0  0  0
  2  5  1  0  0  0  0
  3  6  1  0  0  0  0
  3  7  1  0  0  0  0
  4  8  2  0  0  0  0
  4 15  1  0  0  0  0
  5  9  1  0  0  0  0
  6  8  1  0  0  0  0
  7 16  1  0  0  0  0
  7 17  1  0  0  0  0
  7 18  1  0  0  0  0
  8 19  1  0  0  0  0
  9 10  2  0  0  0  0
  9 11  1  0  0  0  0
 10 12  1  0  0  0  0
 10 13  1  0  0  0  0
 11 14  2  0  0  0  0
 11 20  1  0  0  0  0
 12 14  1  0  0  0  0
 13 21  1  0  0  0  0
 13 22  1  0  0  0  0
 13 23  1  0  0  0  0
 14 24  1  0  0  0  0
M  END
>  <Mol_ID>
3655

>  <Formula>
C10H10O2S2

>  <MolWeight>
226.3152

>  <Cat>
S6314

>  <Name>
Bis(2-methyl-3-furyl)disulphide

>  <Synonyms>
N/A

>  <Target>
Others

>  <Form>
free base

>  <CAS>
28588-75-2

>  <URL>
http://www.selleck.cn/products/bis-2-methyl-3-furyl-disulphide.html

$$$$
