(¡À)-¦Á-Bisabolol
 OpenBabel08302520393D

 42 42  0  0  0  0  0  0  0  0999 V2000
   -2.4844    0.8267    2.4712 C   0  0  2  0  0  0  0  0  0  0  0  0
   -1.4150   -0.1613    1.8477 C   0  0  2  0  0  0  0  0  0  0  0  0
   -2.2865    1.1747    3.9675 C   0  0  0  0  0  0  0  0  0  0  0  0
   -3.9640    0.4269    2.3002 C   0  0  0  0  0  0  0  0  0  0  0  0
   -1.5872   -0.2601    0.2992 C   0  0  0  0  0  0  0  0  0  0  0  0
   -1.3646   -1.5767    2.4458 C   0  0  0  0  0  0  0  0  0  0  0  0
   -0.1247    0.4280    2.0846 O   0  0  0  0  0  0  0  0  0  0  0  0
   -2.7247    0.0718    4.9447 C   0  0  0  0  0  0  0  0  0  0  0  0
   -4.3369   -0.7112    3.2010 C   0  0  0  0  0  0  0  0  0  0  0  0
   -0.4648   -1.0233   -0.4358 C   0  0  0  0  0  0  0  0  0  0  0  0
   -3.7233   -0.9149    4.3806 C   0  0  0  0  0  0  0  0  0  0  0  0
   -0.6195   -1.0032   -1.9412 C   0  0  0  0  0  0  0  0  0  0  0  0
   -3.8812   -2.2033    5.1311 C   0  0  0  0  0  0  0  0  0  0  0  0
   -0.7628   -2.0464   -2.7768 C   0  0  0  0  0  0  0  0  0  0  0  0
   -0.7505   -1.8499   -4.2705 C   0  0  0  0  0  0  0  0  0  0  0  0
   -0.9113   -3.4771   -2.3243 C   0  0  0  0  0  0  0  0  0  0  0  0
   -2.3478    1.7784    1.9361 H   0  0  0  0  0  0  0  0  0  0  0  0
   -1.2560    1.4785    4.1798 H   0  0  0  0  0  0  0  0  0  0  0  0
   -2.8926    2.0676    4.1841 H   0  0  0  0  0  0  0  0  0  0  0  0
   -4.1829    0.1719    1.2597 H   0  0  0  0  0  0  0  0  0  0  0  0
   -4.6116    1.2808    2.5455 H   0  0  0  0  0  0  0  0  0  0  0  0
   -2.5449   -0.7365    0.0604 H   0  0  0  0  0  0  0  0  0  0  0  0
   -1.6212    0.7583   -0.1108 H   0  0  0  0  0  0  0  0  0  0  0  0
   -0.4753   -2.1231    2.1067 H   0  0  0  0  0  0  0  0  0  0  0  0
   -1.2478   -1.5583    3.5265 H   0  0  0  0  0  0  0  0  0  0  0  0
   -2.2436   -2.1707    2.1812 H   0  0  0  0  0  0  0  0  0  0  0  0
    0.1087    0.2760    3.0170 H   0  0  0  0  0  0  0  0  0  0  0  0
   -3.1509    0.5375    5.8421 H   0  0  0  0  0  0  0  0  0  0  0  0
   -1.8303   -0.4631    5.2838 H   0  0  0  0  0  0  0  0  0  0  0  0
   -5.0487   -1.4336    2.8098 H   0  0  0  0  0  0  0  0  0  0  0  0
    0.4995   -0.5582   -0.2095 H   0  0  0  0  0  0  0  0  0  0  0  0
   -0.4035   -2.0580   -0.0784 H   0  0  0  0  0  0  0  0  0  0  0  0
   -0.5301   -0.0060   -2.3733 H   0  0  0  0  0  0  0  0  0  0  0  0
   -2.9235   -2.7391    5.1395 H   0  0  0  0  0  0  0  0  0  0  0  0
   -4.1854   -2.0274    6.1690 H   0  0  0  0  0  0  0  0  0  0  0  0
   -4.6146   -2.8674    4.6640 H   0  0  0  0  0  0  0  0  0  0  0  0
   -0.0203   -2.5248   -4.7359 H   0  0  0  0  0  0  0  0  0  0  0  0
   -1.7351   -2.0556   -4.6960 H   0  0  0  0  0  0  0  0  0  0  0  0
   -0.4667   -0.8292   -4.5481 H   0  0  0  0  0  0  0  0  0  0  0  0
    0.0300   -3.8486   -1.9080 H   0  0  0  0  0  0  0  0  0  0  0  0
   -1.7037   -3.5715   -1.5748 H   0  0  0  0  0  0  0  0  0  0  0  0
   -1.1834   -4.1278   -3.1604 H   0  0  0  0  0  0  0  0  0  0  0  0
  1  3  1  0  0  0  0
  1  4  1  0  0  0  0
  1 17  1  6  0  0  0
  2  6  1  0  0  0  0
  2  7  1  1  0  0  0
  2  5  1  0  0  0  0
  2  1  1  0  0  0  0
  3  8  1  0  0  0  0
  3 18  1  0  0  0  0
  3 19  1  0  0  0  0
  4  9  1  0  0  0  0
  4 20  1  0  0  0  0
  4 21  1  0  0  0  0
  5 10  1  0  0  0  0
  5 22  1  0  0  0  0
  5 23  1  0  0  0  0
  6 24  1  0  0  0  0
  6 25  1  0  0  0  0
  6 26  1  0  0  0  0
  7 27  1  0  0  0  0
  8 11  1  0  0  0  0
  8 28  1  0  0  0  0
  8 29  1  0  0  0  0
  9 11  2  0  0  0  0
  9 30  1  0  0  0  0
 10 12  1  0  0  0  0
 10 31  1  0  0  0  0
 10 32  1  0  0  0  0
 11 13  1  0  0  0  0
 12 14  2  0  0  0  0
 12 33  1  0  0  0  0
 13 34  1  0  0  0  0
 13 35  1  0  0  0  0
 13 36  1  0  0  0  0
 14 15  1  0  0  0  0
 14 16  1  0  0  0  0
 15 37  1  0  0  0  0
 15 38  1  0  0  0  0
 15 39  1  0  0  0  0
 16 40  1  0  0  0  0
 16 41  1  0  0  0  0
 16 42  1  0  0  0  0
M  END
>  <Mol_ID>
3583

>  <Formula>
C15H26O

>  <MolWeight>
222.36634

>  <Cat>
S6136

>  <Name>
(¡À)-¦Á-Bisabolol

>  <Synonyms>
N/A

>  <Target>
Anti-infection,Immunology & Inflammation related

>  <Form>
free base

>  <CAS>
515-69-5

>  <URL>
http://www.selleck.cn/products/bisabolol.html

$$$$
