bisBenzimide H 33258 Trihydrochloride
 OpenBabel08302521373D

 56 61  0  0  0  0  0  0  0  0999 V2000
    1.9597   -1.3176   -1.2279 C   0  0  0  0  0  0  0  0  0  0  0  0
  -17.7776    3.3849    5.8202 O   0  0  0  0  0  0  0  0  0  0  0  0
   -7.5291    0.6846    1.4771 C   0  0  0  0  0  0  0  0  0  0  0  0
   -6.6364    1.0181    0.4830 N   0  0  0  0  0  0  0  0  0  0  0  0
   -6.9110    0.0462    2.4516 N   0  0  0  0  0  0  0  0  0  0  0  0
   -5.3991    0.5453    0.8298 C   0  0  0  0  0  0  0  0  0  0  0  0
   -5.6050   -0.0680    2.0561 C   0  0  0  0  0  0  0  0  0  0  0  0
   -4.1531    0.5967    0.1947 C   0  0  0  0  0  0  0  0  0  0  0  0
   -4.5332   -0.6904    2.6944 C   0  0  0  0  0  0  0  0  0  0  0  0
   -3.0591   -0.0116    0.8349 C   0  0  0  0  0  0  0  0  0  0  0  0
   -3.2809   -0.6548    2.0676 C   0  0  0  0  0  0  0  0  0  0  0  0
   -8.9494    1.0291    1.4458 C   0  0  0  0  0  0  0  0  0  0  0  0
   -9.6108    1.2613    2.6645 C   0  0  0  0  0  0  0  0  0  0  0  0
   -9.6556    1.1066    0.2346 C   0  0  0  0  0  0  0  0  0  0  0  0
  -10.9665    1.5840    2.6032 C   0  0  0  0  0  0  0  0  0  0  0  0
  -11.0212    1.4270    0.2055 C   0  0  0  0  0  0  0  0  0  0  0  0
  -11.6781    1.6769    1.4168 C   0  0  0  0  0  0  0  0  0  0  0  0
  -11.8911    1.8643    3.5712 N   0  0  0  0  0  0  0  0  0  0  0  0
  -12.9852    2.0184    1.6555 N   0  0  0  0  0  0  0  0  0  0  0  0
  -13.1042    2.1085    2.9676 C   0  0  0  0  0  0  0  0  0  0  0  0
   -1.7988   -0.0528    0.2673 N   0  0  0  0  0  0  0  0  0  0  0  0
   -1.5789    0.0964   -1.1767 C   0  0  0  0  0  0  0  0  0  0  0  0
   -0.6139    0.2685    1.0838 C   0  0  0  0  0  0  0  0  0  0  0  0
   -0.3691   -0.7760   -1.5919 C   0  0  0  0  0  0  0  0  0  0  0  0
    0.5772   -0.6005    0.6219 C   0  0  0  0  0  0  0  0  0  0  0  0
    0.8570   -0.4500   -0.8258 N   0  0  0  0  0  0  0  0  0  0  0  0
  -14.3196    2.4405    3.7111 C   0  0  0  0  0  0  0  0  0  0  0  0
  -15.3110    3.2309    3.1114 C   0  0  0  0  0  0  0  0  0  0  0  0
  -14.5234    1.9738    5.0183 C   0  0  0  0  0  0  0  0  0  0  0  0
  -16.4783    3.5638    3.8064 C   0  0  0  0  0  0  0  0  0  0  0  0
  -15.6903    2.3046    5.7127 C   0  0  0  0  0  0  0  0  0  0  0  0
  -16.6550    3.0951    5.1033 C   0  0  0  0  0  0  0  0  0  0  0  0
    2.8704   -1.0548   -0.6790 H   0  0  0  0  0  0  0  0  0  0  0  0
    1.7437   -2.3776   -1.0528 H   0  0  0  0  0  0  0  0  0  0  0  0
    2.1815   -1.1811   -2.2919 H   0  0  0  0  0  0  0  0  0  0  0  0
  -18.3821    3.8956    5.2569 H   0  0  0  0  0  0  0  0  0  0  0  0
   -6.8586    1.5347   -0.3537 H   0  0  0  0  0  0  0  0  0  0  0  0
   -4.0432    1.1071   -0.7551 H   0  0  0  0  0  0  0  0  0  0  0  0
   -4.6739   -1.2035    3.6377 H   0  0  0  0  0  0  0  0  0  0  0  0
   -2.4674   -1.1912    2.5497 H   0  0  0  0  0  0  0  0  0  0  0  0
   -9.0823    1.1909    3.6115 H   0  0  0  0  0  0  0  0  0  0  0  0
   -9.1628    0.8915   -0.7099 H   0  0  0  0  0  0  0  0  0  0  0  0
  -11.5679    1.4731   -0.7295 H   0  0  0  0  0  0  0  0  0  0  0  0
  -11.7096    1.9028    4.5638 H   0  0  0  0  0  0  0  0  0  0  0  0
   -1.3946    1.1488   -1.4273 H   0  0  0  0  0  0  0  0  0  0  0  0
   -2.4463   -0.2440   -1.7540 H   0  0  0  0  0  0  0  0  0  0  0  0
   -0.3689    1.3327    0.9695 H   0  0  0  0  0  0  0  0  0  0  0  0
   -0.7709    0.0982    2.1540 H   0  0  0  0  0  0  0  0  0  0  0  0
   -0.1880   -0.6322   -2.6631 H   0  0  0  0  0  0  0  0  0  0  0  0
   -0.6353   -1.8322   -1.4421 H   0  0  0  0  0  0  0  0  0  0  0  0
    0.3552   -1.6507    0.8581 H   0  0  0  0  0  0  0  0  0  0  0  0
    1.4617   -0.3129    1.2020 H   0  0  0  0  0  0  0  0  0  0  0  0
  -15.1717    3.5948    2.0937 H   0  0  0  0  0  0  0  0  0  0  0  0
  -13.7992    1.3319    5.5059 H   0  0  0  0  0  0  0  0  0  0  0  0
  -17.2266    4.1824    3.3208 H   0  0  0  0  0  0  0  0  0  0  0  0
  -15.8473    1.9357    6.7225 H   0  0  0  0  0  0  0  0  0  0  0  0
  1 26  1  0  0  0  0
  1 33  1  0  0  0  0
  1 34  1  0  0  0  0
  1 35  1  0  0  0  0
  2 32  1  0  0  0  0
  2 36  1  0  0  0  0
  3  4  1  0  0  0  0
  3  5  2  0  0  0  0
  3 12  1  0  0  0  0
  4  6  1  0  0  0  0
  4 37  1  0  0  0  0
  5  7  1  0  0  0  0
  6  7  2  0  0  0  0
  6  8  1  0  0  0  0
  7  9  1  0  0  0  0
  8 10  2  0  0  0  0
  8 38  1  0  0  0  0
  9 11  2  0  0  0  0
  9 39  1  0  0  0  0
 10 11  1  0  0  0  0
 10 21  1  0  0  0  0
 11 40  1  0  0  0  0
 12 13  2  0  0  0  0
 12 14  1  0  0  0  0
 13 15  1  0  0  0  0
 13 41  1  0  0  0  0
 14 16  2  0  0  0  0
 14 42  1  0  0  0  0
 15 17  2  0  0  0  0
 15 18  1  0  0  0  0
 16 17  1  0  0  0  0
 16 43  1  0  0  0  0
 17 19  1  0  0  0  0
 18 20  1  0  0  0  0
 18 44  1  0  0  0  0
 19 20  2  0  0  0  0
 20 27  1  0  0  0  0
 21 22  1  0  0  0  0
 21 23  1  0  0  0  0
 22 24  1  0  0  0  0
 22 45  1  0  0  0  0
 22 46  1  0  0  0  0
 23 25  1  0  0  0  0
 23 47  1  0  0  0  0
 23 48  1  0  0  0  0
 24 26  1  0  0  0  0
 24 49  1  0  0  0  0
 24 50  1  0  0  0  0
 25 26  1  0  0  0  0
 25 51  1  0  0  0  0
 25 52  1  0  0  0  0
 27 28  2  0  0  0  0
 27 29  1  0  0  0  0
 28 30  1  0  0  0  0
 28 53  1  0  0  0  0
 29 31  2  0  0  0  0
 29 54  1  0  0  0  0
 30 32  2  0  0  0  0
 30 55  1  0  0  0  0
 31 32  1  0  0  0  0
 31 56  1  0  0  0  0
M  END
>  <Mol_ID>
7596

>  <Formula>
C25H25ClN6O

>  <MolWeight>
460.9586

>  <Cat>
E2910

>  <Name>
bisBenzimide H 33258 Trihydrochloride

>  <Synonyms>
Hoechst 33258 trihydrochloride; H 33258 trihydrochloride

>  <Target>
Others

>  <Form>
Trihydrochloride

>  <CAS>
23491-45-4

>  <URL>
https://www.selleckchem.com/products/bisbenzimide-h-33258.html

$$$$
