Bisindolylmaleimide IV
 OpenBabel08302521313D

 38 42  0  0  0  0  0  0  0  0999 V2000
   -2.2581    0.4468   -0.0166 O   0  0  0  0  0  0  0  0  0  0  0  0
    2.2578    0.4186    0.0365 O   0  0  0  0  0  0  0  0  0  0  0  0
   -2.9812   -4.0277   -0.6968 N   0  0  0  0  0  0  0  0  0  0  0  0
    2.7488   -4.2553    0.5850 N   0  0  0  0  0  0  0  0  0  0  0  0
    0.0021    0.7905    0.0172 N   0  0  0  0  0  0  0  0  0  0  0  0
   -0.6826   -1.3812    0.0474 C   0  0  0  0  0  0  0  0  0  0  0  0
    0.6582   -1.3910    0.0438 C   0  0  0  0  0  0  0  0  0  0  0  0
   -1.5872   -2.4700    0.0415 C   0  0  0  0  0  0  0  0  0  0  0  0
    1.5305   -2.5042   -0.0187 C   0  0  0  0  0  0  0  0  0  0  0  0
   -2.1222   -3.1553    1.1707 C   0  0  0  0  0  0  0  0  0  0  0  0
    2.0564   -3.1058   -1.1986 C   0  0  0  0  0  0  0  0  0  0  0  0
   -3.0063   -4.1174    0.6771 C   0  0  0  0  0  0  0  0  0  0  0  0
    2.8105   -4.2075   -0.7906 C   0  0  0  0  0  0  0  0  0  0  0  0
   -1.1155    0.0326    0.0184 C   0  0  0  0  0  0  0  0  0  0  0  0
    1.1099    0.0177    0.0316 C   0  0  0  0  0  0  0  0  0  0  0  0
   -2.1371   -3.0236   -1.0931 C   0  0  0  0  0  0  0  0  0  0  0  0
    1.9899   -3.2184    1.0653 C   0  0  0  0  0  0  0  0  0  0  0  0
   -1.9658   -3.0392    2.5680 C   0  0  0  0  0  0  0  0  0  0  0  0
    1.9573   -2.8288   -2.5777 C   0  0  0  0  0  0  0  0  0  0  0  0
   -3.7513   -4.9600    1.5113 C   0  0  0  0  0  0  0  0  0  0  0  0
    3.4691   -5.0485   -1.6963 C   0  0  0  0  0  0  0  0  0  0  0  0
   -2.7145   -3.8643    3.4153 C   0  0  0  0  0  0  0  0  0  0  0  0
    2.6206   -3.6515   -3.4946 C   0  0  0  0  0  0  0  0  0  0  0  0
   -3.5954   -4.8076    2.8918 C   0  0  0  0  0  0  0  0  0  0  0  0
    3.3643   -4.7450   -3.0573 C   0  0  0  0  0  0  0  0  0  0  0  0
   -3.5354   -4.6014   -1.3171 H   0  0  0  0  0  0  0  0  0  0  0  0
    3.2011   -4.9581    1.1529 H   0  0  0  0  0  0  0  0  0  0  0  0
    0.0065    1.7954   -0.0087 H   0  0  0  0  0  0  0  0  0  0  0  0
   -2.0179   -2.7868   -2.1424 H   0  0  0  0  0  0  0  0  0  0  0  0
    1.8381   -3.0961    2.1296 H   0  0  0  0  0  0  0  0  0  0  0  0
   -1.2879   -2.3030    2.9889 H   0  0  0  0  0  0  0  0  0  0  0  0
    1.3813   -1.9787   -2.9306 H   0  0  0  0  0  0  0  0  0  0  0  0
   -4.4416   -5.6935    1.1077 H   0  0  0  0  0  0  0  0  0  0  0  0
    4.0473   -5.9036   -1.3616 H   0  0  0  0  0  0  0  0  0  0  0  0
   -2.6151   -3.7581    4.4926 H   0  0  0  0  0  0  0  0  0  0  0  0
    2.5560   -3.4308   -4.5571 H   0  0  0  0  0  0  0  0  0  0  0  0
   -4.1772   -5.4316    3.5671 H   0  0  0  0  0  0  0  0  0  0  0  0
    3.8748   -5.3708   -3.7858 H   0  0  0  0  0  0  0  0  0  0  0  0
  1 14  2  0  0  0  0
  2 15  2  0  0  0  0
  3 12  1  0  0  0  0
  3 16  1  0  0  0  0
  3 26  1  0  0  0  0
  4 13  1  0  0  0  0
  4 17  1  0  0  0  0
  4 27  1  0  0  0  0
  5 14  1  0  0  0  0
  5 15  1  0  0  0  0
  5 28  1  0  0  0  0
  6  7  2  0  0  0  0
  6  8  1  0  0  0  0
  6 14  1  0  0  0  0
  7  9  1  0  0  0  0
  7 15  1  0  0  0  0
  8 10  1  0  0  0  0
  8 16  2  0  0  0  0
  9 11  1  0  0  0  0
  9 17  2  0  0  0  0
 10 12  2  0  0  0  0
 10 18  1  0  0  0  0
 11 13  2  0  0  0  0
 11 19  1  0  0  0  0
 12 20  1  0  0  0  0
 13 21  1  0  0  0  0
 16 29  1  0  0  0  0
 17 30  1  0  0  0  0
 18 22  2  0  0  0  0
 18 31  1  0  0  0  0
 19 23  2  0  0  0  0
 19 32  1  0  0  0  0
 20 24  2  0  0  0  0
 20 33  1  0  0  0  0
 21 25  2  0  0  0  0
 21 34  1  0  0  0  0
 22 24  1  0  0  0  0
 22 35  1  0  0  0  0
 23 25  1  0  0  0  0
 23 36  1  0  0  0  0
 24 37  1  0  0  0  0
 25 38  1  0  0  0  0
M  END
>  <Mol_ID>
5851

>  <Formula>
C20H13N3O2

>  <MolWeight>
327.33612

>  <Cat>
S0754

>  <Name>
Bisindolylmaleimide IV

>  <Synonyms>
Arcyriarubin A, BIM IV, Compound 5/1a

>  <Target>
CMV,PKA,PKC

>  <Form>
Free Base

>  <CAS>
119139-23-0

>  <URL>
http://www.selleckchem.com/products/bisindolylmaleimide-iv.html

$$$$
