Bisphenol A
 OpenBabel08302520383D

 33 34  0  0  0  0  0  0  0  0999 V2000
    0.9791   -0.0788    0.0081 C   0  0  0  0  0  0  0  0  0  0  0  0
    0.4682    1.3831   -0.1536 C   0  0  0  0  0  0  0  0  0  0  0  0
    0.5491   -1.0255   -1.1409 C   0  0  0  0  0  0  0  0  0  0  0  0
    0.4967   -0.6120    1.3915 C   0  0  0  0  0  0  0  0  0  0  0  0
    2.5309   -0.1329    0.0687 C   0  0  0  0  0  0  0  0  0  0  0  0
   -0.7935    1.7770    0.3401 C   0  0  0  0  0  0  0  0  0  0  0  0
    1.2448    2.3793   -0.7801 C   0  0  0  0  0  0  0  0  0  0  0  0
    0.3130   -0.5507   -2.4468 C   0  0  0  0  0  0  0  0  0  0  0  0
    0.4768   -2.4206   -0.9467 C   0  0  0  0  0  0  0  0  0  0  0  0
   -1.2212    3.1098    0.2880 C   0  0  0  0  0  0  0  0  0  0  0  0
    0.8109    3.7080   -0.8517 C   0  0  0  0  0  0  0  0  0  0  0  0
   -0.0036   -1.4260   -3.4970 C   0  0  0  0  0  0  0  0  0  0  0  0
    0.1602   -3.2953   -1.9898 C   0  0  0  0  0  0  0  0  0  0  0  0
   -0.4071    4.0674   -0.2981 C   0  0  0  0  0  0  0  0  0  0  0  0
   -0.0794   -2.7914   -3.2572 C   0  0  0  0  0  0  0  0  0  0  0  0
   -0.7707    5.3798   -0.3493 O   0  0  0  0  0  0  0  0  0  0  0  0
   -0.3772   -3.6777   -4.2483 O   0  0  0  0  0  0  0  0  0  0  0  0
    1.0006   -1.5419    1.6791 H   0  0  0  0  0  0  0  0  0  0  0  0
    0.7079    0.1095    2.1911 H   0  0  0  0  0  0  0  0  0  0  0  0
   -0.5782   -0.8234    1.3998 H   0  0  0  0  0  0  0  0  0  0  0  0
    2.9988    0.1857   -0.8692 H   0  0  0  0  0  0  0  0  0  0  0  0
    2.9189    0.5025    0.8745 H   0  0  0  0  0  0  0  0  0  0  0  0
    2.8889   -1.1530    0.2553 H   0  0  0  0  0  0  0  0  0  0  0  0
   -1.4655    1.0547    0.7968 H   0  0  0  0  0  0  0  0  0  0  0  0
    2.2072    2.1472   -1.2274 H   0  0  0  0  0  0  0  0  0  0  0  0
    0.3810    0.5084   -2.6766 H   0  0  0  0  0  0  0  0  0  0  0  0
    0.6854   -2.8667    0.0228 H   0  0  0  0  0  0  0  0  0  0  0  0
   -2.1843    3.3737    0.7135 H   0  0  0  0  0  0  0  0  0  0  0  0
    1.4330    4.4605   -1.3285 H   0  0  0  0  0  0  0  0  0  0  0  0
   -0.1751   -1.0182   -4.4873 H   0  0  0  0  0  0  0  0  0  0  0  0
    0.1146   -4.3647   -1.8133 H   0  0  0  0  0  0  0  0  0  0  0  0
   -1.6003    5.4894    0.1435 H   0  0  0  0  0  0  0  0  0  0  0  0
   -0.5276   -3.1805   -5.0703 H   0  0  0  0  0  0  0  0  0  0  0  0
  1  2  1  0  0  0  0
  1  3  1  0  0  0  0
  1  4  1  0  0  0  0
  1  5  1  0  0  0  0
  2  6  2  0  0  0  0
  2  7  1  0  0  0  0
  3  8  2  0  0  0  0
  3  9  1  0  0  0  0
  4 18  1  0  0  0  0
  4 19  1  0  0  0  0
  4 20  1  0  0  0  0
  5 21  1  0  0  0  0
  5 22  1  0  0  0  0
  5 23  1  0  0  0  0
  6 10  1  0  0  0  0
  6 24  1  0  0  0  0
  7 11  2  0  0  0  0
  7 25  1  0  0  0  0
  8 12  1  0  0  0  0
  8 26  1  0  0  0  0
  9 13  2  0  0  0  0
  9 27  1  0  0  0  0
 10 14  2  0  0  0  0
 10 28  1  0  0  0  0
 11 14  1  0  0  0  0
 11 29  1  0  0  0  0
 12 15  2  0  0  0  0
 12 30  1  0  0  0  0
 13 15  1  0  0  0  0
 13 31  1  0  0  0  0
 14 16  1  0  0  0  0
 15 17  1  0  0  0  0
 16 32  1  0  0  0  0
 17 33  1  0  0  0  0
M  END
>  <Mol_ID>
3459

>  <Formula>
C15H16O2

>  <MolWeight>
228.28634

>  <Cat>
S6007

>  <Name>
Bisphenol A

>  <Synonyms>
N/A

>  <Target>
Others

>  <Form>
free base

>  <CAS>
80-05-7

>  <URL>
http://www.selleck.cn/products/bisphenol-a.html

$$$$
