BIX02188.cdx
 OpenBabel08302520013D

 58 61  0  0  0  0  0  0  0  0999 V2000
    2.7565   -0.7321   -0.0821 C   0  0  0  0  0  0  0  0  0  0  0  0
    2.8721    0.6722    0.0229 C   0  0  0  0  0  0  0  0  0  0  0  0
    1.7184    1.4618    0.0578 C   0  0  0  0  0  0  0  0  0  0  0  0
    0.4970    0.8021    0.0191 C   0  0  0  0  0  0  0  0  0  0  0  0
    0.3625   -0.5935   -0.0368 C   0  0  0  0  0  0  0  0  0  0  0  0
    1.5035   -1.3708   -0.1128 C   0  0  0  0  0  0  0  0  0  0  0  0
   -0.7520    1.4115   -0.0057 N   0  0  0  0  0  0  0  0  0  0  0  0
   -1.7684    0.4773   -0.1020 C   0  0  0  0  0  0  0  0  0  0  0  0
   -1.0945   -0.8733   -0.0596 C   0  0  0  0  0  0  0  0  0  0  0  0
    4.2473    1.2539    0.0457 C   0  0  0  0  0  0  0  0  0  0  0  0
    4.4190    2.4482    0.7159 N   0  0  0  0  0  0  0  0  0  0  0  0
    5.1649    0.6463   -0.4951 O   0  0  0  0  0  0  0  0  0  0  0  0
   -2.9577    0.7418   -0.2114 O   0  0  0  0  0  0  0  0  0  0  0  0
   -1.8019   -2.0252   -0.0014 C   0  0  0  0  0  0  0  0  0  0  0  0
   -3.1797   -2.1847   -0.1192 N   0  0  0  0  0  0  0  0  0  0  0  0
   -1.1225   -3.3384    0.1173 C   0  0  0  0  0  0  0  0  0  0  0  0
   -0.8009   -3.8608    1.3780 C   0  0  0  0  0  0  0  0  0  0  0  0
   -0.2638   -5.1445    1.4964 C   0  0  0  0  0  0  0  0  0  0  0  0
   -0.0533   -5.9203    0.3593 C   0  0  0  0  0  0  0  0  0  0  0  0
   -0.3588   -5.4067   -0.9011 C   0  0  0  0  0  0  0  0  0  0  0  0
   -0.8870   -4.1190   -1.0237 C   0  0  0  0  0  0  0  0  0  0  0  0
   -4.1515   -2.0082    0.8973 C   0  0  0  0  0  0  0  0  0  0  0  0
   -3.8241   -1.8419    2.2476 C   0  0  0  0  0  0  0  0  0  0  0  0
   -4.8051   -1.8754    3.2575 C   0  0  0  0  0  0  0  0  0  0  0  0
   -6.1423   -2.0756    2.9020 C   0  0  0  0  0  0  0  0  0  0  0  0
   -6.4955   -2.2061    1.5600 C   0  0  0  0  0  0  0  0  0  0  0  0
   -5.5060   -2.1739    0.5716 C   0  0  0  0  0  0  0  0  0  0  0  0
   -4.3896   -1.7394    4.7102 C   0  0  0  0  0  0  0  0  0  0  0  0
   -4.6810   -2.9373    5.5225 N   0  0  0  0  0  0  0  0  0  0  0  0
   -3.9511   -4.1065    5.0224 C   0  0  0  0  0  0  0  0  0  0  0  0
   -4.3216   -2.6966    6.9225 C   0  0  0  0  0  0  0  0  0  0  0  0
    5.7203    3.0630    0.8500 C   0  0  0  0  0  0  0  0  0  0  0  0
    3.6608   -1.3388   -0.1421 H   0  0  0  0  0  0  0  0  0  0  0  0
    1.7620    2.5436    0.0775 H   0  0  0  0  0  0  0  0  0  0  0  0
    1.4648   -2.4501   -0.2104 H   0  0  0  0  0  0  0  0  0  0  0  0
   -0.9351    2.4005   -0.0107 H   0  0  0  0  0  0  0  0  0  0  0  0
    3.6505    2.8650    1.2223 H   0  0  0  0  0  0  0  0  0  0  0  0
   -3.5385   -1.8872   -1.0246 H   0  0  0  0  0  0  0  0  0  0  0  0
   -0.9975   -3.2844    2.2769 H   0  0  0  0  0  0  0  0  0  0  0  0
   -0.0376   -5.5484    2.4819 H   0  0  0  0  0  0  0  0  0  0  0  0
    0.3356   -6.9309    0.4546 H   0  0  0  0  0  0  0  0  0  0  0  0
   -0.2070   -6.0186   -1.7871 H   0  0  0  0  0  0  0  0  0  0  0  0
   -1.1380   -3.7382   -2.0103 H   0  0  0  0  0  0  0  0  0  0  0  0
   -2.7865   -1.6972    2.5322 H   0  0  0  0  0  0  0  0  0  0  0  0
   -6.9089   -2.1522    3.6715 H   0  0  0  0  0  0  0  0  0  0  0  0
   -7.5355   -2.3578    1.2832 H   0  0  0  0  0  0  0  0  0  0  0  0
   -5.8058   -2.2990   -0.4681 H   0  0  0  0  0  0  0  0  0  0  0  0
   -3.3208   -1.4986    4.7660 H   0  0  0  0  0  0  0  0  0  0  0  0
   -4.9226   -0.8714    5.1185 H   0  0  0  0  0  0  0  0  0  0  0  0
   -2.8658   -3.9588    5.0576 H   0  0  0  0  0  0  0  0  0  0  0  0
   -4.2011   -4.9935    5.6141 H   0  0  0  0  0  0  0  0  0  0  0  0
   -4.2334   -4.3456    3.9922 H   0  0  0  0  0  0  0  0  0  0  0  0
   -3.2578   -2.4589    7.0436 H   0  0  0  0  0  0  0  0  0  0  0  0
   -4.9085   -1.8712    7.3406 H   0  0  0  0  0  0  0  0  0  0  0  0
   -4.5440   -3.5786    7.5345 H   0  0  0  0  0  0  0  0  0  0  0  0
    5.6664    4.0704    0.4296 H   0  0  0  0  0  0  0  0  0  0  0  0
    5.9637    3.1326    1.9145 H   0  0  0  0  0  0  0  0  0  0  0  0
    6.5002    2.4942    0.3374 H   0  0  0  0  0  0  0  0  0  0  0  0
  1  2  2  0  0  0  0
  1 33  1  0  0  0  0
  2  3  1  0  0  0  0
  2 10  1  0  0  0  0
  3  4  2  0  0  0  0
  3 34  1  0  0  0  0
  4  5  1  0  0  0  0
  4  7  1  0  0  0  0
  5  6  2  0  0  0  0
  6  1  1  0  0  0  0
  6 35  1  0  0  0  0
  7  8  1  0  0  0  0
  7 36  1  0  0  0  0
  8  9  1  0  0  0  0
  8 13  2  0  0  0  0
  9  5  1  0  0  0  0
  9 14  2  0  0  0  0
 10 11  1  0  0  0  0
 10 12  2  0  0  0  0
 11 32  1  0  0  0  0
 11 37  1  0  0  0  0
 14 15  1  0  0  0  0
 14 16  1  0  0  0  0
 15 22  1  0  0  0  0
 15 38  1  0  0  0  0
 16 17  2  0  0  0  0
 17 18  1  0  0  0  0
 17 39  1  0  0  0  0
 18 19  2  0  0  0  0
 18 40  1  0  0  0  0
 19 20  1  0  0  0  0
 19 41  1  0  0  0  0
 20 21  2  0  0  0  0
 20 42  1  0  0  0  0
 21 16  1  0  0  0  0
 21 43  1  0  0  0  0
 22 23  2  0  0  0  0
 23 24  1  0  0  0  0
 23 44  1  0  0  0  0
 24 25  2  0  0  0  0
 24 28  1  0  0  0  0
 25 26  1  0  0  0  0
 25 45  1  0  0  0  0
 26 27  2  0  0  0  0
 26 46  1  0  0  0  0
 27 22  1  0  0  0  0
 27 47  1  0  0  0  0
 28 29  1  0  0  0  0
 28 48  1  0  0  0  0
 28 49  1  0  0  0  0
 29 30  1  0  0  0  0
 29 31  1  0  0  0  0
 30 50  1  0  0  0  0
 30 51  1  0  0  0  0
 30 52  1  0  0  0  0
 31 53  1  0  0  0  0
 31 54  1  0  0  0  0
 31 55  1  0  0  0  0
 32 56  1  0  0  0  0
 32 57  1  0  0  0  0
 32 58  1  0  0  0  0
M  END
>  <Mol_ID>
307

>  <Formula>
C26H26N4O2

>  <MolWeight>
426.51024

>  <Cat>
S1530

>  <Name>
BIX 02188

>  <Synonyms>
N/A

>  <Target>
MEK

>  <Form>
free base

>  <CAS>
1094614-84-2

>  <URL>
http://selleckchem.com/products/BIX-02188.html

$$$$
