BKM-120.cdx
 OpenBabel08302521413D

 50 53  0  0  0  0  0  0  0  0999 V2000
    0.2677   -0.3257   -1.1302 C   0  0  0  0  0  0  0  0  0  0  0  0
    0.8589   -0.3358    0.1191 C   0  0  0  0  0  0  0  0  0  0  0  0
    0.1635   -0.1375    1.2413 N   0  0  0  0  0  0  0  0  0  0  0  0
   -1.1695    0.0681    1.1137 C   0  0  0  0  0  0  0  0  0  0  0  0
   -1.8891    0.0726   -0.0851 C   0  0  0  0  0  0  0  0  0  0  0  0
   -1.1212   -0.1117   -1.2551 C   0  0  0  0  0  0  0  0  0  0  0  0
    2.2113   -0.6168    0.2616 N   0  0  0  0  0  0  0  0  0  0  0  0
   -3.3553    0.2272   -0.0702 C   0  0  0  0  0  0  0  0  0  0  0  0
   -1.7132   -0.1241   -2.6463 C   0  0  0  0  0  0  0  0  0  0  0  0
   -0.7936   -0.4863   -3.5953 F   0  0  0  0  0  0  0  0  0  0  0  0
   -2.7314   -1.0141   -2.7984 F   0  0  0  0  0  0  0  0  0  0  0  0
   -2.1603    1.0908   -3.0660 F   0  0  0  0  0  0  0  0  0  0  0  0
   -3.8784    0.9277   -1.0786 N   0  0  0  0  0  0  0  0  0  0  0  0
   -5.2083    1.0550   -1.1548 C   0  0  0  0  0  0  0  0  0  0  0  0
   -6.0368    0.5270   -0.2380 N   0  0  0  0  0  0  0  0  0  0  0  0
   -5.5260   -0.1635    0.7993 C   0  0  0  0  0  0  0  0  0  0  0  0
   -4.1580   -0.3209    0.9073 C   0  0  0  0  0  0  0  0  0  0  0  0
   -5.7156    1.6995   -2.2601 N   0  0  0  0  0  0  0  0  0  0  0  0
   -6.3784   -0.6804    1.7501 N   0  0  0  0  0  0  0  0  0  0  0  0
   -6.0598   -1.8433    2.5947 C   0  0  0  0  0  0  0  0  0  0  0  0
   -7.0683   -2.9756    2.3513 C   0  0  0  0  0  0  0  0  0  0  0  0
   -8.4183   -2.5265    2.5343 O   0  0  0  0  0  0  0  0  0  0  0  0
   -8.7160   -1.4746    1.5994 C   0  0  0  0  0  0  0  0  0  0  0  0
   -7.7902   -0.2651    1.7951 C   0  0  0  0  0  0  0  0  0  0  0  0
   -4.9220    2.7820   -2.8535 C   0  0  0  0  0  0  0  0  0  0  0  0
   -5.5198    4.1490   -2.4813 C   0  0  0  0  0  0  0  0  0  0  0  0
   -6.9145    4.2285   -2.8194 O   0  0  0  0  0  0  0  0  0  0  0  0
   -7.6542    3.2164   -2.1138 C   0  0  0  0  0  0  0  0  0  0  0  0
   -7.1587    1.8077   -2.4681 C   0  0  0  0  0  0  0  0  0  0  0  0
    0.8801   -0.5106   -2.0094 H   0  0  0  0  0  0  0  0  0  0  0  0
   -1.6640    0.2386    2.0702 H   0  0  0  0  0  0  0  0  0  0  0  0
    2.4368   -0.5256    1.2508 H   0  0  0  0  0  0  0  0  0  0  0  0
    2.7917   -0.0193   -0.3158 H   0  0  0  0  0  0  0  0  0  0  0  0
   -3.7198   -0.8466    1.7413 H   0  0  0  0  0  0  0  0  0  0  0  0
   -6.1122   -1.5243    3.6422 H   0  0  0  0  0  0  0  0  0  0  0  0
   -5.0586   -2.2484    2.4236 H   0  0  0  0  0  0  0  0  0  0  0  0
   -6.9618   -3.3873    1.3406 H   0  0  0  0  0  0  0  0  0  0  0  0
   -6.8873   -3.7882    3.0618 H   0  0  0  0  0  0  0  0  0  0  0  0
   -9.7556   -1.1751    1.7684 H   0  0  0  0  0  0  0  0  0  0  0  0
   -8.6423   -1.8724    0.5803 H   0  0  0  0  0  0  0  0  0  0  0  0
   -7.9726    0.1604    2.7879 H   0  0  0  0  0  0  0  0  0  0  0  0
   -8.0434    0.5142    1.0686 H   0  0  0  0  0  0  0  0  0  0  0  0
   -4.9499    2.6614   -3.9420 H   0  0  0  0  0  0  0  0  0  0  0  0
   -3.8668    2.7726   -2.5600 H   0  0  0  0  0  0  0  0  0  0  0  0
   -5.4039    4.3558   -1.4107 H   0  0  0  0  0  0  0  0  0  0  0  0
   -5.0005    4.9409   -3.0307 H   0  0  0  0  0  0  0  0  0  0  0  0
   -8.7049    3.3212   -2.4028 H   0  0  0  0  0  0  0  0  0  0  0  0
   -7.5805    3.4079   -1.0374 H   0  0  0  0  0  0  0  0  0  0  0  0
   -7.3460    1.6332   -3.5351 H   0  0  0  0  0  0  0  0  0  0  0  0
   -7.7352    1.0508   -1.9254 H   0  0  0  0  0  0  0  0  0  0  0  0
  1  2  2  0  0  0  0
  1 30  1  0  0  0  0
  2  3  1  0  0  0  0
  2  7  1  0  0  0  0
  3  4  2  0  0  0  0
  4  5  1  0  0  0  0
  4 31  1  0  0  0  0
  5  6  2  0  0  0  0
  5  8  1  0  0  0  0
  6  1  1  0  0  0  0
  6  9  1  0  0  0  0
  7 32  1  0  0  0  0
  7 33  1  0  0  0  0
  8 13  2  0  0  0  0
  9 10  1  0  0  0  0
  9 11  1  0  0  0  0
  9 12  1  0  0  0  0
 13 14  1  0  0  0  0
 14 15  2  0  0  0  0
 14 18  1  0  0  0  0
 15 16  1  0  0  0  0
 16 17  2  0  0  0  0
 16 19  1  0  0  0  0
 17  8  1  0  0  0  0
 17 34  1  0  0  0  0
 18 25  1  0  0  0  0
 19 20  1  0  0  0  0
 20 21  1  0  0  0  0
 20 35  1  0  0  0  0
 20 36  1  0  0  0  0
 21 22  1  0  0  0  0
 21 37  1  0  0  0  0
 21 38  1  0  0  0  0
 22 23  1  0  0  0  0
 23 24  1  0  0  0  0
 23 39  1  0  0  0  0
 23 40  1  0  0  0  0
 24 19  1  0  0  0  0
 24 41  1  0  0  0  0
 24 42  1  0  0  0  0
 25 26  1  0  0  0  0
 25 43  1  0  0  0  0
 25 44  1  0  0  0  0
 26 27  1  0  0  0  0
 26 45  1  0  0  0  0
 26 46  1  0  0  0  0
 27 28  1  0  0  0  0
 28 29  1  0  0  0  0
 28 47  1  0  0  0  0
 28 48  1  0  0  0  0
 29 18  1  0  0  0  0
 29 49  1  0  0  0  0
 29 50  1  0  0  0  0
M  END
>  <Mol_ID>
820

>  <Formula>
C18H21F3N6O2

>  <MolWeight>
410.3935496

>  <Cat>
S2247

>  <Name>
Buparlisib (BKM120)

>  <Synonyms>
NVP-BKM120

>  <Target>
Apoptosis related,PI3K

>  <Form>
free base

>  <CAS>
944396-07-0

>  <URL>
http://selleckchem.com/products/BKM-120.html

$$$$
