Blebbistatin
 OpenBabel08302521373D

 38 41  0  0  0  0  0  0  0  0999 V2000
    1.0613   -0.6564    2.1351 O   0  0  0  0  0  0  0  0  0  0  0  0
    1.0404    0.6498   -0.7679 O   0  0  0  0  0  0  0  0  0  0  0  0
   -2.4201    4.1282    1.3164 C   0  0  0  0  0  0  0  0  0  0  0  0
   -0.6314   -2.0138    0.9002 C   0  0  0  0  0  0  0  0  0  0  0  0
    0.6208   -1.1124    0.8623 C   0  0  3  0  0  0  0  0  0  0  0  0
   -0.2472   -3.3362    0.8641 N   0  0  0  0  0  0  0  0  0  0  0  0
   -1.8359   -1.5335    0.9478 N   0  0  0  0  0  0  0  0  0  0  0  0
    0.2858    0.1193    0.0315 C   0  0  0  0  0  0  0  0  0  0  0  0
    1.6662   -2.0933    0.3257 C   0  0  0  0  0  0  0  0  0  0  0  0
    1.2023   -3.4638    0.8575 C   0  0  0  0  0  0  0  0  0  0  0  0
   -1.9825   -0.1401    0.9413 C   0  0  0  0  0  0  0  0  0  0  0  0
   -1.0047    0.7265    0.4350 C   0  0  0  0  0  0  0  0  0  0  0  0
   -3.1497    0.4033    1.4769 C   0  0  0  0  0  0  0  0  0  0  0  0
   -1.1621    2.1135    0.4879 C   0  0  0  0  0  0  0  0  0  0  0  0
   -3.3062    1.7873    1.5689 C   0  0  0  0  0  0  0  0  0  0  0  0
   -2.3090    2.6497    1.0936 C   0  0  0  0  0  0  0  0  0  0  0  0
   -1.0751   -4.4395    0.6607 C   0  0  0  0  0  0  0  0  0  0  0  0
   -2.2057   -4.3581   -0.1716 C   0  0  0  0  0  0  0  0  0  0  0  0
   -0.8262   -5.6685    1.2876 C   0  0  0  0  0  0  0  0  0  0  0  0
   -3.0464   -5.4552   -0.3777 C   0  0  0  0  0  0  0  0  0  0  0  0
   -1.6791   -6.7650    1.1030 C   0  0  0  0  0  0  0  0  0  0  0  0
   -2.7857   -6.6588    0.2661 C   0  0  0  0  0  0  0  0  0  0  0  0
    1.7578    0.0019    1.9714 H   0  0  0  0  0  0  0  0  0  0  0  0
   -1.6718    4.4472    2.0501 H   0  0  0  0  0  0  0  0  0  0  0  0
   -2.2644    4.6698    0.3811 H   0  0  0  0  0  0  0  0  0  0  0  0
   -3.4066    4.4006    1.7045 H   0  0  0  0  0  0  0  0  0  0  0  0
    2.6777   -1.8746    0.6861 H   0  0  0  0  0  0  0  0  0  0  0  0
    1.6851   -2.1036   -0.7701 H   0  0  0  0  0  0  0  0  0  0  0  0
    1.5683   -3.6320    1.8779 H   0  0  0  0  0  0  0  0  0  0  0  0
    1.5643   -4.2697    0.2093 H   0  0  0  0  0  0  0  0  0  0  0  0
   -3.9172   -0.2609    1.8662 H   0  0  0  0  0  0  0  0  0  0  0  0
   -0.3693    2.7628    0.1303 H   0  0  0  0  0  0  0  0  0  0  0  0
   -4.2011    2.1846    2.0429 H   0  0  0  0  0  0  0  0  0  0  0  0
   -2.4360   -3.4300   -0.6890 H   0  0  0  0  0  0  0  0  0  0  0  0
    0.0155   -5.7747    1.9683 H   0  0  0  0  0  0  0  0  0  0  0  0
   -3.9070   -5.3589   -1.0359 H   0  0  0  0  0  0  0  0  0  0  0  0
   -1.4810   -7.6974    1.6238 H   0  0  0  0  0  0  0  0  0  0  0  0
   -3.4475   -7.5073    0.1212 H   0  0  0  0  0  0  0  0  0  0  0  0
  1  5  1  0  0  0  0
  1 23  1  0  0  0  0
  2  8  2  0  0  0  0
  3 16  1  0  0  0  0
  3 24  1  0  0  0  0
  3 25  1  0  0  0  0
  3 26  1  0  0  0  0
  4  5  1  0  0  0  0
  4  6  1  0  0  0  0
  4  7  2  0  0  0  0
  5  8  1  0  0  0  0
  5  9  1  0  0  0  0
  6 10  1  0  0  0  0
  6 17  1  0  0  0  0
  7 11  1  0  0  0  0
  8 12  1  0  0  0  0
  9 10  1  0  0  0  0
  9 27  1  0  0  0  0
  9 28  1  0  0  0  0
 10 29  1  0  0  0  0
 10 30  1  0  0  0  0
 11 12  2  0  0  0  0
 11 13  1  0  0  0  0
 12 14  1  0  0  0  0
 13 15  2  0  0  0  0
 13 31  1  0  0  0  0
 14 16  2  0  0  0  0
 14 32  1  0  0  0  0
 15 16  1  0  0  0  0
 15 33  1  0  0  0  0
 17 18  2  0  0  0  0
 17 19  1  0  0  0  0
 18 20  1  0  0  0  0
 18 34  1  0  0  0  0
 19 21  2  0  0  0  0
 19 35  1  0  0  0  0
 20 22  2  0  0  0  0
 20 36  1  0  0  0  0
 21 22  1  0  0  0  0
 21 37  1  0  0  0  0
 22 38  1  0  0  0  0
M  END
>  <Mol_ID>
7496

>  <Formula>
C18H16N2O2

>  <MolWeight>
292.33184

>  <Cat>
E1249

>  <Name>
Blebbistatin

>  <Target>
Others

>  <Form>
free base

>  <CAS>
674289-55-5

>  <URL>
https://www.selleckchem.com/products/blebbistatin-.html

$$$$
