BLT-1
 OpenBabel08302521383D

 39 39  0  0  0  0  0  0  0  0999 V2000
    1.5025    0.0670    0.1692 C   0  0  0  0  0  0  0  0  0  0  0  0
    1.9086   -0.6172    1.4855 C   0  0  0  0  0  0  0  0  0  0  0  0
    2.5345   -2.0050    1.2992 C   0  0  0  0  0  0  0  0  0  0  0  0
    3.8455   -2.0502    0.5084 C   0  0  0  0  0  0  0  0  0  0  0  0
    4.9996   -1.2203    1.0762 C   0  0  0  0  0  0  0  0  0  0  0  0
    5.4282   -1.6386    2.4744 C   0  0  0  0  0  0  0  0  0  0  0  0
   -0.2986    1.9489   -1.8878 N   0  0  0  0  0  0  0  0  0  0  0  0
   -0.4176    0.6482   -2.2410 N   0  0  0  0  0  0  0  0  0  0  0  0
   -1.1063    0.2722   -3.3598 C   0  0  0  0  0  0  0  0  0  0  0  0
   -2.0126    1.1491   -3.8434 N   0  0  0  0  0  0  0  0  0  0  0  0
   -0.8363   -1.1939   -4.0930 S   0  0  0  0  0  0  0  0  0  0  0  0
    0.7821    1.3995    0.3950 C   0  0  3  0  0  0  0  0  0  0  0  0
    0.3172    2.2626   -0.7852 C   0  0  0  0  0  0  0  0  0  0  0  0
    1.6853    2.4187    1.1195 C   0  0  0  0  0  0  0  0  0  0  0  0
    0.5601    3.7385   -0.5251 C   0  0  0  0  0  0  0  0  0  0  0  0
    0.9842    3.7541    0.9319 C   0  0  0  0  0  0  0  0  0  0  0  0
    0.8371   -0.6357   -0.3373 H   0  0  0  0  0  0  0  0  0  0  0  0
    2.3725    0.2203   -0.4782 H   0  0  0  0  0  0  0  0  0  0  0  0
    2.5879    0.0156    2.0639 H   0  0  0  0  0  0  0  0  0  0  0  0
    1.0055   -0.7441    2.0973 H   0  0  0  0  0  0  0  0  0  0  0  0
    2.6953   -2.4477    2.2895 H   0  0  0  0  0  0  0  0  0  0  0  0
    1.8086   -2.6569    0.7965 H   0  0  0  0  0  0  0  0  0  0  0  0
    4.1676   -3.0975    0.4435 H   0  0  0  0  0  0  0  0  0  0  0  0
    3.6592   -1.7302   -0.5234 H   0  0  0  0  0  0  0  0  0  0  0  0
    5.8610   -1.3313    0.4061 H   0  0  0  0  0  0  0  0  0  0  0  0
    4.7414   -0.1558    1.0746 H   0  0  0  0  0  0  0  0  0  0  0  0
    5.6857   -2.7022    2.5066 H   0  0  0  0  0  0  0  0  0  0  0  0
    6.3122   -1.0696    2.7812 H   0  0  0  0  0  0  0  0  0  0  0  0
    4.6412   -1.4494    3.2099 H   0  0  0  0  0  0  0  0  0  0  0  0
    0.3296    0.0174   -1.9899 H   0  0  0  0  0  0  0  0  0  0  0  0
   -2.5824    0.9089   -4.6396 H   0  0  0  0  0  0  0  0  0  0  0  0
   -2.2569    1.9442   -3.2654 H   0  0  0  0  0  0  0  0  0  0  0  0
   -0.1132    1.2229    1.0070 H   0  0  0  0  0  0  0  0  0  0  0  0
    1.8156    2.1879    2.1806 H   0  0  0  0  0  0  0  0  0  0  0  0
    2.6790    2.4543    0.6525 H   0  0  0  0  0  0  0  0  0  0  0  0
    1.3674    4.0799   -1.1807 H   0  0  0  0  0  0  0  0  0  0  0  0
   -0.3373    4.3366   -0.7024 H   0  0  0  0  0  0  0  0  0  0  0  0
    0.1042    3.8096    1.5840 H   0  0  0  0  0  0  0  0  0  0  0  0
    1.6327    4.6035    1.1653 H   0  0  0  0  0  0  0  0  0  0  0  0
  1  2  1  0  0  0  0
  1 12  1  0  0  0  0
  1 17  1  0  0  0  0
  1 18  1  0  0  0  0
  2  3  1  0  0  0  0
  2 19  1  0  0  0  0
  2 20  1  0  0  0  0
  3  4  1  0  0  0  0
  3 21  1  0  0  0  0
  3 22  1  0  0  0  0
  4  5  1  0  0  0  0
  4 23  1  0  0  0  0
  4 24  1  0  0  0  0
  5  6  1  0  0  0  0
  5 25  1  0  0  0  0
  5 26  1  0  0  0  0
  6 27  1  0  0  0  0
  6 28  1  0  0  0  0
  6 29  1  0  0  0  0
  7  8  1  0  0  0  0
  7 13  2  3  0  0  0
  8  9  1  0  0  0  0
  8 30  1  0  0  0  0
  9 10  1  0  0  0  0
  9 11  2  0  0  0  0
 10 31  1  0  0  0  0
 10 32  1  0  0  0  0
 12 13  1  0  0  0  0
 12 14  1  0  0  0  0
 12 33  1  0  0  0  0
 13 15  1  0  0  0  0
 14 16  1  0  0  0  0
 14 34  1  0  0  0  0
 14 35  1  0  0  0  0
 15 16  1  0  0  0  0
 15 36  1  0  0  0  0
 15 37  1  0  0  0  0
 16 38  1  0  0  0  0
 16 39  1  0  0  0  0
M  END
>  <Mol_ID>
7673

>  <Formula>
C12H23N3S

>  <MolWeight>
241.39612

>  <Cat>
S0857

>  <Name>
BLT-1

>  <Synonyms>
Block lipid transport-1

>  <Target>
Others

>  <Form>
free base

>  <CAS>
321673-30-7

>  <URL>
https://www.selleckchem.com/products/blt-1.html

$$$$
