Blumeatin
 OpenBabel08302521463D

 36 38  0  0  1  0  0  0  0  0999 V2000
    0.9354    2.3390   -0.0886 O   0  0  0  0  0  0  0  0  0  0  0  0
   -1.6621    2.0699   -0.1363 O   0  0  0  0  0  0  0  0  0  0  0  0
   -3.2500   -2.4631    0.0312 O   0  0  0  0  0  0  0  0  0  0  0  0
   -4.5939   -1.9964   -0.0405 C   0  0  0  0  0  0  0  0  0  0  0  0
    7.2256   -1.6962   -1.3076 O   0  0  0  0  0  0  0  0  0  0  0  0
    5.4185   -3.6480    2.5767 O   0  0  0  0  0  0  0  0  0  0  0  0
    0.1378   -1.1450    0.0738 C   0  0  0  0  0  0  0  0  0  0  0  0
   -0.0750    0.2292   -0.0081 C   0  0  0  0  0  0  0  0  0  0  0  0
    1.3777   -1.7179    0.1884 O   0  0  0  0  0  0  0  0  0  0  0  0
   -0.9588   -2.0105    0.0902 C   0  0  0  0  0  0  0  0  0  0  0  0
    1.0905    1.1259    0.0325 C   0  0  0  0  0  0  0  0  0  0  0  0
   -1.3785    0.7313   -0.0783 C   0  0  0  0  0  0  0  0  0  0  0  0
    2.4524   -0.8968   -0.3011 C   0  0  1  0  0  0  0  0  0  0  0  0
   -2.2660   -1.5117    0.0123 C   0  0  0  0  0  0  0  0  0  0  0  0
    2.4217    0.4973    0.3128 C   0  0  0  0  0  0  0  0  0  0  0  0
   -2.4713   -0.1341   -0.0703 C   0  0  0  0  0  0  0  0  0  0  0  0
    3.7871   -1.5613    0.0149 C   0  0  0  0  0  0  0  0  0  0  0  0
    4.8933   -1.3434   -0.8276 C   0  0  0  0  0  0  0  0  0  0  0  0
    3.9666   -2.3426    1.1711 C   0  0  0  0  0  0  0  0  0  0  0  0
    6.1354   -1.8967   -0.5125 C   0  0  0  0  0  0  0  0  0  0  0  0
    5.2167   -2.8872    1.4621 C   0  0  0  0  0  0  0  0  0  0  0  0
    6.3042   -2.6655    0.6289 C   0  0  0  0  0  0  0  0  0  0  0  0
   -0.8121    2.5660   -0.1260 H   0  0  0  0  0  0  0  0  0  0  0  0
   -4.8397   -1.3675    0.8219 H   0  0  0  0  0  0  0  0  0  0  0  0
   -4.7784   -1.4664   -0.9812 H   0  0  0  0  0  0  0  0  0  0  0  0
   -5.2552   -2.8678   -0.0151 H   0  0  0  0  0  0  0  0  0  0  0  0
    6.9689   -1.1537   -2.0701 H   0  0  0  0  0  0  0  0  0  0  0  0
    4.5715   -3.7535    3.0414 H   0  0  0  0  0  0  0  0  0  0  0  0
   -0.7995   -3.0844    0.1602 H   0  0  0  0  0  0  0  0  0  0  0  0
    2.3450   -0.8455   -1.3942 H   0  0  0  0  0  0  0  0  0  0  0  0
    3.2054    1.1269   -0.1238 H   0  0  0  0  0  0  0  0  0  0  0  0
    2.5540    0.4721    1.4004 H   0  0  0  0  0  0  0  0  0  0  0  0
   -3.4645    0.3000   -0.1198 H   0  0  0  0  0  0  0  0  0  0  0  0
    4.7817   -0.7351   -1.7207 H   0  0  0  0  0  0  0  0  0  0  0  0
    3.1281   -2.5164    1.8413 H   0  0  0  0  0  0  0  0  0  0  0  0
    7.2756   -3.0904    0.8690 H   0  0  0  0  0  0  0  0  0  0  0  0
  1 11  2  0  0  0  0
  2 12  1  0  0  0  0
  2 23  1  0  0  0  0
  3  4  1  0  0  0  0
  3 14  1  0  0  0  0
  4 24  1  0  0  0  0
  4 25  1  0  0  0  0
  4 26  1  0  0  0  0
  5 20  1  0  0  0  0
  5 27  1  0  0  0  0
  6 21  1  0  0  0  0
  6 28  1  0  0  0  0
  7  8  2  0  0  0  0
  7  9  1  0  0  0  0
  7 10  1  0  0  0  0
  8 11  1  0  0  0  0
  8 12  1  0  0  0  0
  9 13  1  0  0  0  0
 10 14  2  0  0  0  0
 10 29  1  0  0  0  0
 11 15  1  0  0  0  0
 12 16  2  0  0  0  0
 13 15  1  0  0  0  0
 13 30  1  6  0  0  0
 13 17  1  0  0  0  0
 14 16  1  0  0  0  0
 15 31  1  0  0  0  0
 15 32  1  0  0  0  0
 16 33  1  0  0  0  0
 17 18  2  0  0  0  0
 17 19  1  0  0  0  0
 18 20  1  0  0  0  0
 18 34  1  0  0  0  0
 19 21  2  0  0  0  0
 19 35  1  0  0  0  0
 20 22  2  0  0  0  0
 21 22  1  0  0  0  0
 22 36  1  0  0  0  0
M  END
>  <Mol_ID>
9687

>  <Formula>
C16H14O6

>  <MolWeight>
302.27876

>  <Cat>
E0690

>  <Name>
Blumeatin

>  <Synonyms>
NA

>  <Target>
antioxidant, superoxide radical, hepatoprotective

>  <Form>
Free Base

>  <CAS>
118024-26-3

>  <URL>
https://www.selleckchem.com/products/blumeatin.html

$$$$
