BLZ945.cdx
 OpenBabel08302519593D

 50 53  0  0  0  0  0  0  0  0999 V2000
   14.9144   11.0910  -11.0340 C   0  0  0  0  0  0  0  0  0  0  0  0
   15.2099   12.2015  -10.2987 N   0  0  0  0  0  0  0  0  0  0  0  0
   14.8487   12.1726   -8.9995 C   0  0  0  0  0  0  0  0  0  0  0  0
   14.2009   11.1041   -8.4008 C   0  0  0  0  0  0  0  0  0  0  0  0
   13.8508   10.0122   -9.1927 C   0  0  0  0  0  0  0  0  0  0  0  0
   14.2447    9.9847  -10.5281 C   0  0  0  0  0  0  0  0  0  0  0  0
   15.3660   11.1114  -12.4665 C   0  0  0  0  0  0  0  0  0  0  0  0
   16.0100   12.2715  -12.8444 N   0  0  0  0  0  0  0  0  0  0  0  0
   16.5269   12.4981  -14.1687 C   0  0  0  0  0  0  0  0  0  0  0  0
   15.1690   10.1593  -13.2121 O   0  0  0  0  0  0  0  0  0  0  0  0
   13.1842    8.9004   -8.7199 O   0  0  0  0  0  0  0  0  0  0  0  0
   12.2096    9.0365   -7.7490 C   0  0  0  0  0  0  0  0  0  0  0  0
   11.3623   10.1388   -7.6487 C   0  0  0  0  0  0  0  0  0  0  0  0
   10.4130   10.2180   -6.6220 C   0  0  0  0  0  0  0  0  0  0  0  0
   10.2634    9.1496   -5.7107 C   0  0  0  0  0  0  0  0  0  0  0  0
   11.0694    8.0255   -5.8689 C   0  0  0  0  0  0  0  0  0  0  0  0
   12.0511    7.9460   -6.8804 C   0  0  0  0  0  0  0  0  0  0  0  0
    9.3611    9.1001   -4.6585 N   0  0  0  0  0  0  0  0  0  0  0  0
    9.4327    7.9470   -4.0378 C   0  0  0  0  0  0  0  0  0  0  0  0
   10.6269    6.8695   -4.6674 S   0  0  0  0  0  0  0  0  0  0  0  0
    8.6646    7.5663   -2.9794 N   0  0  0  0  0  0  0  0  0  0  0  0
    8.0602    8.5935   -2.1156 C   0  0  2  0  0  0  0  0  0  0  0  0
    7.7478    7.9999   -0.7261 C   0  0  0  0  0  0  0  0  0  0  0  0
    6.5161    7.0920   -0.6605 C   0  0  0  0  0  0  0  0  0  0  0  0
    5.3023    7.5558   -1.4625 C   0  0  0  0  0  0  0  0  0  0  0  0
    5.6372    8.2010   -2.8052 C   0  0  0  0  0  0  0  0  0  0  0  0
    6.7788    9.2158   -2.7205 C   0  0  1  0  0  0  0  0  0  0  0  0
    6.3538   10.3470   -1.9398 O   0  0  0  0  0  0  0  0  0  0  0  0
   15.0975   13.0633   -8.4283 H   0  0  0  0  0  0  0  0  0  0  0  0
   13.9689   11.1427   -7.3426 H   0  0  0  0  0  0  0  0  0  0  0  0
   14.0324    9.1289  -11.1604 H   0  0  0  0  0  0  0  0  0  0  0  0
   16.1045   12.9873  -12.1280 H   0  0  0  0  0  0  0  0  0  0  0  0
   15.9905   13.3440  -14.6055 H   0  0  0  0  0  0  0  0  0  0  0  0
   17.5871   12.7513  -14.0869 H   0  0  0  0  0  0  0  0  0  0  0  0
   16.4079   11.6186  -14.8062 H   0  0  0  0  0  0  0  0  0  0  0  0
   11.4269   10.9606   -8.3576 H   0  0  0  0  0  0  0  0  0  0  0  0
    9.7845   11.0959   -6.5212 H   0  0  0  0  0  0  0  0  0  0  0  0
   12.6680    7.0582   -6.9870 H   0  0  0  0  0  0  0  0  0  0  0  0
    8.9965    6.7399   -2.4930 H   0  0  0  0  0  0  0  0  0  0  0  0
    8.7983    9.3897   -1.9456 H   0  0  0  0  0  0  0  0  0  0  0  0
    7.5993    8.8285   -0.0216 H   0  0  0  0  0  0  0  0  0  0  0  0
    8.6139    7.4407   -0.3481 H   0  0  0  0  0  0  0  0  0  0  0  0
    6.2143    6.9921    0.3914 H   0  0  0  0  0  0  0  0  0  0  0  0
    6.7952    6.0843   -0.9878 H   0  0  0  0  0  0  0  0  0  0  0  0
    4.7160    8.2586   -0.8579 H   0  0  0  0  0  0  0  0  0  0  0  0
    4.6404    6.6969   -1.6348 H   0  0  0  0  0  0  0  0  0  0  0  0
    4.7336    8.7010   -3.1755 H   0  0  0  0  0  0  0  0  0  0  0  0
    5.8919    7.4190   -3.5293 H   0  0  0  0  0  0  0  0  0  0  0  0
    6.9817    9.6032   -3.7244 H   0  0  0  0  0  0  0  0  0  0  0  0
    5.9183   10.0296   -1.1311 H   0  0  0  0  0  0  0  0  0  0  0  0
  1  2  2  0  0  0  0
  1  7  1  0  0  0  0
  2  3  1  0  0  0  0
  3  4  2  0  0  0  0
  3 29  1  0  0  0  0
  4  5  1  0  0  0  0
  4 30  1  0  0  0  0
  5  6  2  0  0  0  0
  5 11  1  0  0  0  0
  6  1  1  0  0  0  0
  6 31  1  0  0  0  0
  7  8  1  0  0  0  0
  7 10  2  0  0  0  0
  8  9  1  0  0  0  0
  8 32  1  0  0  0  0
  9 33  1  0  0  0  0
  9 34  1  0  0  0  0
  9 35  1  0  0  0  0
 11 12  1  0  0  0  0
 12 13  2  0  0  0  0
 13 14  1  0  0  0  0
 13 36  1  0  0  0  0
 14 15  2  0  0  0  0
 14 37  1  0  0  0  0
 15 16  1  0  0  0  0
 15 18  1  0  0  0  0
 16 17  2  0  0  0  0
 17 12  1  0  0  0  0
 17 38  1  0  0  0  0
 18 19  2  0  0  0  0
 19 20  1  0  0  0  0
 19 21  1  0  0  0  0
 20 16  1  0  0  0  0
 21 39  1  0  0  0  0
 22 23  1  0  0  0  0
 22 40  1  1  0  0  0
 22 21  1  0  0  0  0
 23 24  1  0  0  0  0
 23 41  1  0  0  0  0
 23 42  1  0  0  0  0
 24 25  1  0  0  0  0
 24 43  1  0  0  0  0
 24 44  1  0  0  0  0
 25 26  1  0  0  0  0
 25 45  1  0  0  0  0
 25 46  1  0  0  0  0
 26 27  1  0  0  0  0
 26 47  1  0  0  0  0
 26 48  1  0  0  0  0
 27 22  1  0  0  0  0
 27 49  1  6  0  0  0
 27 28  1  0  0  0  0
 28 50  1  0  0  0  0
M  END
>  <Mol_ID>
2548

>  <Formula>
C20H22N4O3S

>  <MolWeight>
398.47868

>  <Cat>
S7725

>  <Name>
BLZ945

>  <Synonyms>
Sotuletinib

>  <Target>
CSF-1R

>  <Form>
free base

>  <CAS>
953769-46-5

>  <URL>
http://selleckchem.com/products/blz945.html

$$$$
