BMH-21.cdx
 OpenBabel08302519583D

 47 50  0  0  0  0  0  0  0  0999 V2000
    0.7090   -0.3025    0.8845 C   0  0  0  0  0  0  0  0  0  0  0  0
    0.5828   -1.7006    1.3365 C   0  0  0  0  0  0  0  0  0  0  0  0
    1.5145   -2.5139    0.7770 C   0  0  0  0  0  0  0  0  0  0  0  0
    2.8383   -2.0011    1.3058 C   0  0  0  0  0  0  0  0  0  0  0  0
    3.0391   -0.6269    1.1018 N   0  0  0  0  0  0  0  0  0  0  0  0
    1.9566    0.1825    0.7555 C   0  0  0  0  0  0  0  0  0  0  0  0
    3.6673   -2.7545    1.9617 N   0  0  0  0  0  0  0  0  0  0  0  0
    4.8262   -2.1517    2.4873 C   0  0  0  0  0  0  0  0  0  0  0  0
    5.1985   -0.8464    2.1740 C   0  0  0  0  0  0  0  0  0  0  0  0
    4.2660   -0.0270    1.3867 C   0  0  0  0  0  0  0  0  0  0  0  0
    5.6576   -2.8970    3.3300 C   0  0  0  0  0  0  0  0  0  0  0  0
    6.9074   -2.3967    3.7440 C   0  0  0  0  0  0  0  0  0  0  0  0
    7.2950   -1.0907    3.3639 C   0  0  0  0  0  0  0  0  0  0  0  0
    6.4072   -0.3025    2.6238 C   0  0  0  0  0  0  0  0  0  0  0  0
    7.8067   -3.1865    4.4769 C   0  0  0  0  0  0  0  0  0  0  0  0
    9.0955   -2.7255    4.7548 C   0  0  0  0  0  0  0  0  0  0  0  0
    9.4822   -1.4491    4.3566 C   0  0  0  0  0  0  0  0  0  0  0  0
    8.5755   -0.6217    3.6948 C   0  0  0  0  0  0  0  0  0  0  0  0
    4.5683    1.1283    1.0889 O   0  0  0  0  0  0  0  0  0  0  0  0
    1.2624   -2.7048   -0.7021 C   0  0  0  0  0  0  0  0  0  0  0  0
    0.1930   -2.3551   -1.2132 O   0  0  0  0  0  0  0  0  0  0  0  0
    2.2237   -3.3341   -1.4604 N   0  0  0  0  0  0  0  0  0  0  0  0
    1.9110   -3.5750   -2.8664 C   0  0  0  0  0  0  0  0  0  0  0  0
    3.0106   -4.2745   -3.6788 C   0  0  0  0  0  0  0  0  0  0  0  0
    3.4037   -5.6124   -3.1877 N   0  0  0  0  0  0  0  0  0  0  0  0
    2.2857   -6.5606   -3.2406 C   0  0  0  0  0  0  0  0  0  0  0  0
    4.5052   -6.1221   -4.0152 C   0  0  0  0  0  0  0  0  0  0  0  0
   -0.1820    0.2676    0.6555 H   0  0  0  0  0  0  0  0  0  0  0  0
    0.5239   -1.6749    2.4307 H   0  0  0  0  0  0  0  0  0  0  0  0
    2.1615    1.2057    0.4595 H   0  0  0  0  0  0  0  0  0  0  0  0
    5.3464   -3.8978    3.6219 H   0  0  0  0  0  0  0  0  0  0  0  0
    6.6659    0.7222    2.3637 H   0  0  0  0  0  0  0  0  0  0  0  0
    7.5269   -4.1880    4.7963 H   0  0  0  0  0  0  0  0  0  0  0  0
    9.8051   -3.3734    5.2633 H   0  0  0  0  0  0  0  0  0  0  0  0
   10.4941   -1.1010    4.5477 H   0  0  0  0  0  0  0  0  0  0  0  0
    8.8934    0.3751    3.3958 H   0  0  0  0  0  0  0  0  0  0  0  0
    2.9640   -3.8755   -1.0261 H   0  0  0  0  0  0  0  0  0  0  0  0
    0.9724   -4.1385   -2.9158 H   0  0  0  0  0  0  0  0  0  0  0  0
    1.7064   -2.5993   -3.3251 H   0  0  0  0  0  0  0  0  0  0  0  0
    2.6718   -4.3402   -4.7227 H   0  0  0  0  0  0  0  0  0  0  0  0
    3.8932   -3.6223   -3.6726 H   0  0  0  0  0  0  0  0  0  0  0  0
    1.8806   -6.6700   -4.2535 H   0  0  0  0  0  0  0  0  0  0  0  0
    2.6077   -7.5487   -2.8924 H   0  0  0  0  0  0  0  0  0  0  0  0
    1.4746   -6.2594   -2.5708 H   0  0  0  0  0  0  0  0  0  0  0  0
    4.2464   -6.1452   -5.0812 H   0  0  0  0  0  0  0  0  0  0  0  0
    5.3970   -5.4986   -3.8901 H   0  0  0  0  0  0  0  0  0  0  0  0
    4.7849   -7.1371   -3.7119 H   0  0  0  0  0  0  0  0  0  0  0  0
  1  2  1  0  0  0  0
  1 28  1  0  0  0  0
  2  3  2  0  0  0  0
  2 29  1  0  0  0  0
  3  4  1  0  0  0  0
  3 20  1  0  0  0  0
  4  5  1  0  0  0  0
  4  7  2  0  0  0  0
  5  6  1  0  0  0  0
  6  1  2  0  0  0  0
  6 30  1  0  0  0  0
  7  8  1  0  0  0  0
  8  9  2  0  0  0  0
  8 11  1  0  0  0  0
  9 10  1  0  0  0  0
 10  5  1  0  0  0  0
 10 19  2  0  0  0  0
 11 12  2  0  0  0  0
 11 31  1  0  0  0  0
 12 13  1  0  0  0  0
 12 15  1  0  0  0  0
 13 14  2  0  0  0  0
 14  9  1  0  0  0  0
 14 32  1  0  0  0  0
 15 16  2  0  0  0  0
 15 33  1  0  0  0  0
 16 17  1  0  0  0  0
 16 34  1  0  0  0  0
 17 18  2  0  0  0  0
 17 35  1  0  0  0  0
 18 13  1  0  0  0  0
 18 36  1  0  0  0  0
 20 21  2  0  0  0  0
 20 22  1  0  0  0  0
 22 23  1  0  0  0  0
 22 37  1  0  0  0  0
 23 24  1  0  0  0  0
 23 38  1  0  0  0  0
 23 39  1  0  0  0  0
 24 25  1  0  0  0  0
 24 40  1  0  0  0  0
 24 41  1  0  0  0  0
 25 26  1  0  0  0  0
 25 27  1  0  0  0  0
 26 42  1  0  0  0  0
 26 43  1  0  0  0  0
 26 44  1  0  0  0  0
 27 45  1  0  0  0  0
 27 46  1  0  0  0  0
 27 47  1  0  0  0  0
M  END
>  <Mol_ID>
2520

>  <Formula>
C21H20N4O2

>  <MolWeight>
360.4091

>  <Cat>
S7718

>  <Name>
BMH-21

>  <Synonyms>
N/A

>  <Target>
DNA/RNA Synthesis

>  <Form>
free base

>  <CAS>
896705-16-1

>  <URL>
http://selleckchem.com/products/bmh-21.html

$$$$
