BML-210 (CAY10433)
 OpenBabel08302520433D

 50 51  0  0  0  0  0  0  0  0999 V2000
    3.7999    3.2631    3.4050 N   0  0  0  0  0  0  0  0  0  0  0  0
    3.6390    2.7251    4.7127 C   0  0  0  0  0  0  0  0  0  0  0  0
    4.2172    2.5351    2.3081 C   0  0  0  0  0  0  0  0  0  0  0  0
   10.8327    3.3337    1.8023 C   0  0  0  0  0  0  0  0  0  0  0  0
   11.5700    4.2943    1.1411 N   0  0  0  0  0  0  0  0  0  0  0  0
    4.4306    1.6879    5.2626 C   0  0  0  0  0  0  0  0  0  0  0  0
    4.4809    1.3349    2.3230 O   0  0  0  0  0  0  0  0  0  0  0  0
   11.2833    2.4464    2.5172 O   0  0  0  0  0  0  0  0  0  0  0  0
    5.6696    1.2943    4.7040 N   0  0  0  0  0  0  0  0  0  0  0  0
   12.9515    4.2330    0.8725 C   0  0  0  0  0  0  0  0  0  0  0  0
    4.2793    3.3421    1.0205 C   0  0  0  0  0  0  0  0  0  0  0  0
    9.3405    3.4844    1.5628 C   0  0  0  0  0  0  0  0  0  0  0  0
    2.5901    3.2636    5.4740 C   0  0  0  0  0  0  0  0  0  0  0  0
    4.1310    1.2153    6.5495 C   0  0  0  0  0  0  0  0  0  0  0  0
   13.7347    3.1066    1.1354 C   0  0  0  0  0  0  0  0  0  0  0  0
   13.5368    5.3361    0.2420 C   0  0  0  0  0  0  0  0  0  0  0  0
    8.6937    2.1045    1.5071 C   0  0  0  0  0  0  0  0  0  0  0  0
    5.1192    2.6628   -0.0714 C   0  0  0  0  0  0  0  0  0  0  0  0
    7.1773    2.1483    1.3766 C   0  0  0  0  0  0  0  0  0  0  0  0
    6.6440    2.7937    0.0976 C   0  0  0  0  0  0  0  0  0  0  0  0
    2.2762    2.7389    6.7295 C   0  0  0  0  0  0  0  0  0  0  0  0
    3.0380    1.7051    7.2612 C   0  0  0  0  0  0  0  0  0  0  0  0
   14.8848    5.3077   -0.1227 C   0  0  0  0  0  0  0  0  0  0  0  0
   15.0813    3.0756    0.7677 C   0  0  0  0  0  0  0  0  0  0  0  0
   15.6549    4.1768    0.1353 C   0  0  0  0  0  0  0  0  0  0  0  0
    3.3028    4.1224    3.2115 H   0  0  0  0  0  0  0  0  0  0  0  0
   11.0773    5.1060    0.7967 H   0  0  0  0  0  0  0  0  0  0  0  0
    5.9460    0.3613    4.9910 H   0  0  0  0  0  0  0  0  0  0  0  0
    5.6083    1.3179    3.6839 H   0  0  0  0  0  0  0  0  0  0  0  0
    3.2449    3.4198    0.6630 H   0  0  0  0  0  0  0  0  0  0  0  0
    4.6433    4.3570    1.2139 H   0  0  0  0  0  0  0  0  0  0  0  0
    9.1704    4.0148    0.6197 H   0  0  0  0  0  0  0  0  0  0  0  0
    8.9220    4.0853    2.3766 H   0  0  0  0  0  0  0  0  0  0  0  0
    1.9735    4.0671    5.0815 H   0  0  0  0  0  0  0  0  0  0  0  0
    4.7542    0.4481    7.0026 H   0  0  0  0  0  0  0  0  0  0  0  0
   13.3234    2.2185    1.6039 H   0  0  0  0  0  0  0  0  0  0  0  0
   12.9550    6.2266    0.0218 H   0  0  0  0  0  0  0  0  0  0  0  0
    8.9263    1.5575    2.4308 H   0  0  0  0  0  0  0  0  0  0  0  0
    9.1275    1.5182    0.6883 H   0  0  0  0  0  0  0  0  0  0  0  0
    4.8547    1.6009   -0.1499 H   0  0  0  0  0  0  0  0  0  0  0  0
    4.8533    3.1150   -1.0352 H   0  0  0  0  0  0  0  0  0  0  0  0
    6.7931    2.6874    2.2465 H   0  0  0  0  0  0  0  0  0  0  0  0
    6.8189    1.1139    1.4304 H   0  0  0  0  0  0  0  0  0  0  0  0
    7.1234    2.3191   -0.7678 H   0  0  0  0  0  0  0  0  0  0  0  0
    6.9145    3.8548    0.0675 H   0  0  0  0  0  0  0  0  0  0  0  0
    1.4342    3.1347    7.2905 H   0  0  0  0  0  0  0  0  0  0  0  0
    2.8002    1.2922    8.2377 H   0  0  0  0  0  0  0  0  0  0  0  0
   15.3323    6.1678   -0.6131 H   0  0  0  0  0  0  0  0  0  0  0  0
   15.6692    2.1858    0.9649 H   0  0  0  0  0  0  0  0  0  0  0  0
   16.7001    4.1454   -0.1562 H   0  0  0  0  0  0  0  0  0  0  0  0
  1 26  1  0  0  0  0
  2  1  1  0  0  0  0
  3  1  1  0  0  0  0
  4 12  1  0  0  0  0
  5  4  1  0  0  0  0
  5 27  1  0  0  0  0
  6  2  2  0  0  0  0
  7  3  2  0  0  0  0
  8  4  2  0  0  0  0
  9  6  1  0  0  0  0
  9 28  1  0  0  0  0
  9 29  1  0  0  0  0
 10  5  1  0  0  0  0
 11  3  1  0  0  0  0
 11 30  1  0  0  0  0
 11 31  1  0  0  0  0
 12 17  1  0  0  0  0
 12 32  1  0  0  0  0
 12 33  1  0  0  0  0
 13  2  1  0  0  0  0
 13 34  1  0  0  0  0
 14  6  1  0  0  0  0
 14 22  2  0  0  0  0
 14 35  1  0  0  0  0
 15 10  2  0  0  0  0
 15 36  1  0  0  0  0
 16 10  1  0  0  0  0
 16 37  1  0  0  0  0
 17 19  1  0  0  0  0
 17 38  1  0  0  0  0
 17 39  1  0  0  0  0
 18 11  1  0  0  0  0
 18 40  1  0  0  0  0
 18 41  1  0  0  0  0
 19 20  1  0  0  0  0
 19 42  1  0  0  0  0
 19 43  1  0  0  0  0
 20 18  1  0  0  0  0
 20 44  1  0  0  0  0
 20 45  1  0  0  0  0
 21 13  2  0  0  0  0
 21 46  1  0  0  0  0
 22 21  1  0  0  0  0
 22 47  1  0  0  0  0
 23 16  2  0  0  0  0
 23 48  1  0  0  0  0
 24 15  1  0  0  0  0
 24 25  2  0  0  0  0
 24 49  1  0  0  0  0
 25 23  1  0  0  0  0
 25 50  1  0  0  0  0
M  END
>  <Mol_ID>
4076

>  <Formula>
C20H25N3O2

>  <MolWeight>
339.4314

>  <Cat>
S1073

>  <Name>
BML-210 (CAY10433)

>  <Synonyms>
N/A

>  <Target>
HDAC

>  <Form>
Free Base

>  <CAS>
537034-17-6

>  <URL>
http://www.selleck.cn/products/bml210-cay10433.html

$$$$
