BMS-687453
 OpenBabel08302521303D

 52 54  0  0  0  0  0  0  0  0999 V2000
    1.1408   -0.4532   -0.3401 O   0  0  0  0  0  0  0  0  0  0  0  0
    4.0599    1.5621   -2.6652 O   0  0  0  0  0  0  0  0  0  0  0  0
   -0.8431   -1.0179    3.2486 O   0  0  0  0  0  0  0  0  0  0  0  0
   -1.3812   -1.2170    5.4368 O   0  0  0  0  0  0  0  0  0  0  0  0
   -1.8615   -4.7079    5.3442 O   0  0  0  0  0  0  0  0  0  0  0  0
   -0.7463   -5.1044    7.2690 O   0  0  0  0  0  0  0  0  0  0  0  0
   -0.1615   -2.8771    4.4320 N   0  0  0  0  0  0  0  0  0  0  0  0
    1.8454    1.9800   -2.7955 N   0  0  0  0  0  0  0  0  0  0  0  0
    0.5168   -3.5449    3.2983 C   0  0  0  0  0  0  0  0  0  0  0  0
    0.1289   -3.1121    1.9122 C   0  0  0  0  0  0  0  0  0  0  0  0
    0.8592   -2.0901    1.2843 C   0  0  0  0  0  0  0  0  0  0  0  0
    0.3946   -1.5032    0.1092 C   0  0  0  0  0  0  0  0  0  0  0  0
    2.0504    0.7668   -2.1823 C   0  0  0  0  0  0  0  0  0  0  0  0
    0.9255   -0.0719   -1.7008 C   0  0  0  0  0  0  0  0  0  0  0  0
   -1.0224   -3.6079    1.2891 C   0  0  0  0  0  0  0  0  0  0  0  0
    0.1437   -3.4299    5.7611 C   0  0  0  0  0  0  0  0  0  0  0  0
    3.4039    0.5062   -2.1094 C   0  0  0  0  0  0  0  0  0  0  0  0
   -0.7877   -1.9611   -0.4685 C   0  0  0  0  0  0  0  0  0  0  0  0
   -1.4766   -3.0314    0.1034 C   0  0  0  0  0  0  0  0  0  0  0  0
    3.0646    2.4234   -3.0484 C   0  0  0  0  0  0  0  0  0  0  0  0
    3.4923    3.6888   -3.6318 C   0  0  0  0  0  0  0  0  0  0  0  0
   -0.8296   -1.6545    4.4353 C   0  0  0  0  0  0  0  0  0  0  0  0
    4.2234   -0.5888   -1.5676 C   0  0  0  0  0  0  0  0  0  0  0  0
   -0.8530   -4.4857    6.2199 C   0  0  0  0  0  0  0  0  0  0  0  0
    4.8514    3.9888   -3.8087 C   0  0  0  0  0  0  0  0  0  0  0  0
    2.5381    4.6471   -4.0023 C   0  0  0  0  0  0  0  0  0  0  0  0
    5.2476    5.2211   -4.3304 C   0  0  0  0  0  0  0  0  0  0  0  0
    2.9351    5.8786   -4.5251 C   0  0  0  0  0  0  0  0  0  0  0  0
    4.2889    6.1671   -4.6851 C   0  0  0  0  0  0  0  0  0  0  0  0
   -1.4825    0.2612    3.1996 C   0  0  0  0  0  0  0  0  0  0  0  0
   -1.8152   -4.0618    4.6101 H   0  0  0  0  0  0  0  0  0  0  0  0
    0.3054   -4.6192    3.3905 H   0  0  0  0  0  0  0  0  0  0  0  0
    1.5984   -3.4342    3.4408 H   0  0  0  0  0  0  0  0  0  0  0  0
    1.7490   -1.6827    1.7613 H   0  0  0  0  0  0  0  0  0  0  0  0
    0.8746   -0.9592   -2.3441 H   0  0  0  0  0  0  0  0  0  0  0  0
   -0.0137    0.4895   -1.7757 H   0  0  0  0  0  0  0  0  0  0  0  0
   -1.5992   -4.4108    1.7413 H   0  0  0  0  0  0  0  0  0  0  0  0
    1.1430   -3.8765    5.7331 H   0  0  0  0  0  0  0  0  0  0  0  0
    0.1483   -2.6298    6.5100 H   0  0  0  0  0  0  0  0  0  0  0  0
   -1.2137   -1.4880   -1.3469 H   0  0  0  0  0  0  0  0  0  0  0  0
   -2.3944   -3.3862   -0.3584 H   0  0  0  0  0  0  0  0  0  0  0  0
    4.8983   -0.9818   -2.3366 H   0  0  0  0  0  0  0  0  0  0  0  0
    4.8266   -0.2327   -0.7276 H   0  0  0  0  0  0  0  0  0  0  0  0
    3.6027   -1.4160   -1.2133 H   0  0  0  0  0  0  0  0  0  0  0  0
    5.6155    3.2653   -3.5316 H   0  0  0  0  0  0  0  0  0  0  0  0
    1.4787    4.4378   -3.8751 H   0  0  0  0  0  0  0  0  0  0  0  0
    6.3043    5.4411   -4.4520 H   0  0  0  0  0  0  0  0  0  0  0  0
    2.1871    6.6171   -4.8035 H   0  0  0  0  0  0  0  0  0  0  0  0
    4.5970    7.1291   -5.0854 H   0  0  0  0  0  0  0  0  0  0  0  0
   -2.5568    0.1266    3.0520 H   0  0  0  0  0  0  0  0  0  0  0  0
   -1.2836    0.8490    4.1013 H   0  0  0  0  0  0  0  0  0  0  0  0
   -1.0770    0.8035    2.3429 H   0  0  0  0  0  0  0  0  0  0  0  0
  1 12  1  0  0  0  0
  1 14  1  0  0  0  0
  2 17  1  0  0  0  0
  2 20  1  0  0  0  0
  3 22  1  0  0  0  0
  3 30  1  0  0  0  0
  4 22  2  0  0  0  0
  5 24  1  0  0  0  0
  5 31  1  0  0  0  0
  6 24  2  0  0  0  0
  7  9  1  0  0  0  0
  7 16  1  0  0  0  0
  7 22  1  0  0  0  0
  8 13  1  0  0  0  0
  8 20  2  0  0  0  0
  9 10  1  0  0  0  0
  9 32  1  0  0  0  0
  9 33  1  0  0  0  0
 10 11  2  0  0  0  0
 10 15  1  0  0  0  0
 11 12  1  0  0  0  0
 11 34  1  0  0  0  0
 12 18  2  0  0  0  0
 13 14  1  0  0  0  0
 13 17  2  0  0  0  0
 14 35  1  0  0  0  0
 14 36  1  0  0  0  0
 15 19  2  0  0  0  0
 15 37  1  0  0  0  0
 16 24  1  0  0  0  0
 16 38  1  0  0  0  0
 16 39  1  0  0  0  0
 17 23  1  0  0  0  0
 18 19  1  0  0  0  0
 18 40  1  0  0  0  0
 19 41  1  0  0  0  0
 20 21  1  0  0  0  0
 21 25  2  0  0  0  0
 21 26  1  0  0  0  0
 23 42  1  0  0  0  0
 23 43  1  0  0  0  0
 23 44  1  0  0  0  0
 25 27  1  0  0  0  0
 25 45  1  0  0  0  0
 26 28  2  0  0  0  0
 26 46  1  0  0  0  0
 27 29  2  0  0  0  0
 27 47  1  0  0  0  0
 28 29  1  0  0  0  0
 28 48  1  0  0  0  0
 29 49  1  0  0  0  0
 30 50  1  0  0  0  0
 30 51  1  0  0  0  0
 30 52  1  0  0  0  0
M  END
>  <Mol_ID>
5660

>  <Formula>
C22H21ClN2O6

>  <MolWeight>
444.86494

>  <Cat>
S0170

>  <Name>
BMS-687453

>  <Synonyms>
N/A

>  <Target>
PPAR

>  <Form>
Free Base

>  <CAS>
1000998-59-3

>  <URL>
http://www.selleckchem.com/products/bms-687453.html

$$$$
