BMS-582949.cdx
 OpenBabel08302520413D

 56 59  0  0  0  0  0  0  0  0999 V2000
   -0.4342   -0.7060    0.0996 C   0  0  0  0  0  0  0  0  0  0  0  0
   -0.3827    0.6500   -0.0577 N   0  0  0  0  0  0  0  0  0  0  0  0
    0.7468    1.3727   -0.1156 N   0  0  0  0  0  0  0  0  0  0  0  0
    1.8264    0.6612   -0.0546 C   0  0  0  0  0  0  0  0  0  0  0  0
    1.9041   -0.7052   -0.0262 N   0  0  0  0  0  0  0  0  0  0  0  0
    0.8183   -1.4248    0.0321 C   0  0  0  0  0  0  0  0  0  0  0  0
    0.8984   -2.8095    0.0044 N   0  0  0  0  0  0  0  0  0  0  0  0
    1.8250   -3.5623   -0.7714 C   0  0  0  0  0  0  0  0  0  0  0  0
    2.4316   -3.0098   -1.9145 C   0  0  0  0  0  0  0  0  0  0  0  0
    3.2646   -3.7713   -2.7456 C   0  0  0  0  0  0  0  0  0  0  0  0
    3.5142   -5.1065   -2.4254 C   0  0  0  0  0  0  0  0  0  0  0  0
    2.9394   -5.6684   -1.2853 C   0  0  0  0  0  0  0  0  0  0  0  0
    2.0874   -4.9131   -0.4562 C   0  0  0  0  0  0  0  0  0  0  0  0
    1.4771   -5.6174    0.7269 C   0  0  0  0  0  0  0  0  0  0  0  0
    3.8026   -3.2279   -4.0272 C   0  0  0  0  0  0  0  0  0  0  0  0
    3.9314   -1.8524   -4.1131 N   0  0  0  0  0  0  0  0  0  0  0  0
    4.0970   -3.9976   -4.9368 O   0  0  0  0  0  0  0  0  0  0  0  0
    4.3570   -1.1934   -5.3097 C   0  0  0  0  0  0  0  0  0  0  0  0
    5.5679   -0.3036   -5.2923 C   0  0  0  0  0  0  0  0  0  0  0  0
    4.2038    0.2966   -5.4650 C   0  0  0  0  0  0  0  0  0  0  0  0
   -1.7639   -1.0501    0.3142 C   0  0  0  0  0  0  0  0  0  0  0  0
   -2.5579    0.1346    0.0500 C   0  0  0  0  0  0  0  0  0  0  0  0
   -1.6521    1.1631   -0.1375 C   0  0  0  0  0  0  0  0  0  0  0  0
   -2.3463   -2.3586    0.7186 C   0  0  0  0  0  0  0  0  0  0  0  0
   -4.0237    0.1838    0.0088 C   0  0  0  0  0  0  0  0  0  0  0  0
   -4.6099    1.3895   -0.3072 N   0  0  0  0  0  0  0  0  0  0  0  0
   -4.7070   -0.8156    0.2238 O   0  0  0  0  0  0  0  0  0  0  0  0
   -6.0571    1.5108   -0.3590 C   0  0  0  0  0  0  0  0  0  0  0  0
   -6.6706    1.7690    1.0162 C   0  0  0  0  0  0  0  0  0  0  0  0
   -6.2501    3.1144    1.5862 C   0  0  0  0  0  0  0  0  0  0  0  0
    2.7923    1.1899   -0.0505 H   0  0  0  0  0  0  0  0  0  0  0  0
    0.0062   -3.2863    0.0023 H   0  0  0  0  0  0  0  0  0  0  0  0
    2.1902   -1.9903   -2.1944 H   0  0  0  0  0  0  0  0  0  0  0  0
    4.1392   -5.7196   -3.0728 H   0  0  0  0  0  0  0  0  0  0  0  0
    3.1419   -6.7137   -1.0557 H   0  0  0  0  0  0  0  0  0  0  0  0
    0.8000   -6.4047    0.3781 H   0  0  0  0  0  0  0  0  0  0  0  0
    2.2623   -6.0716    1.3412 H   0  0  0  0  0  0  0  0  0  0  0  0
    0.9072   -4.9459    1.3741 H   0  0  0  0  0  0  0  0  0  0  0  0
    3.8410   -1.2942   -3.2746 H   0  0  0  0  0  0  0  0  0  0  0  0
    4.1873   -1.7800   -6.2120 H   0  0  0  0  0  0  0  0  0  0  0  0
    6.0789   -0.1463   -4.3503 H   0  0  0  0  0  0  0  0  0  0  0  0
    6.2254   -0.3413   -6.1531 H   0  0  0  0  0  0  0  0  0  0  0  0
    3.9427    0.6790   -6.4459 H   0  0  0  0  0  0  0  0  0  0  0  0
    3.7914    0.8711   -4.6449 H   0  0  0  0  0  0  0  0  0  0  0  0
   -1.7753    2.2229   -0.3145 H   0  0  0  0  0  0  0  0  0  0  0  0
   -3.1001   -2.2062    1.5003 H   0  0  0  0  0  0  0  0  0  0  0  0
   -2.8225   -2.8477   -0.1362 H   0  0  0  0  0  0  0  0  0  0  0  0
   -1.6053   -3.0299    1.1522 H   0  0  0  0  0  0  0  0  0  0  0  0
   -4.0407    2.2132   -0.4305 H   0  0  0  0  0  0  0  0  0  0  0  0
   -6.3051    2.3168   -1.0567 H   0  0  0  0  0  0  0  0  0  0  0  0
   -6.4763    0.5827   -0.7669 H   0  0  0  0  0  0  0  0  0  0  0  0
   -7.7634    1.7460    0.9289 H   0  0  0  0  0  0  0  0  0  0  0  0
   -6.3887    0.9750    1.7180 H   0  0  0  0  0  0  0  0  0  0  0  0
   -6.4924    3.9248    0.8915 H   0  0  0  0  0  0  0  0  0  0  0  0
   -6.7704    3.3063    2.5294 H   0  0  0  0  0  0  0  0  0  0  0  0
   -5.1739    3.1397    1.7837 H   0  0  0  0  0  0  0  0  0  0  0  0
  1 21  2  0  0  0  0
  1  2  1  0  0  0  0
  2  3  1  0  0  0  0
  3  4  2  0  0  0  0
  4  5  1  0  0  0  0
  4 31  1  0  0  0  0
  5  6  2  0  0  0  0
  6  1  1  0  0  0  0
  6  7  1  0  0  0  0
  7  8  1  0  0  0  0
  7 32  1  0  0  0  0
  8  9  2  0  0  0  0
  9 10  1  0  0  0  0
  9 33  1  0  0  0  0
 10 11  2  0  0  0  0
 10 15  1  0  0  0  0
 11 12  1  0  0  0  0
 11 34  1  0  0  0  0
 12 13  2  0  0  0  0
 12 35  1  0  0  0  0
 13  8  1  0  0  0  0
 13 14  1  0  0  0  0
 14 36  1  0  0  0  0
 14 37  1  0  0  0  0
 14 38  1  0  0  0  0
 15 16  1  0  0  0  0
 15 17  2  0  0  0  0
 16 18  1  0  0  0  0
 16 39  1  0  0  0  0
 18 19  1  0  0  0  0
 18 40  1  0  0  0  0
 19 20  1  0  0  0  0
 19 41  1  0  0  0  0
 19 42  1  0  0  0  0
 20 18  1  0  0  0  0
 20 43  1  0  0  0  0
 20 44  1  0  0  0  0
 21 22  1  0  0  0  0
 21 24  1  0  0  0  0
 22 23  2  0  0  0  0
 22 25  1  0  0  0  0
 23  2  1  0  0  0  0
 23 45  1  0  0  0  0
 24 46  1  0  0  0  0
 24 47  1  0  0  0  0
 24 48  1  0  0  0  0
 25 26  1  0  0  0  0
 25 27  2  0  0  0  0
 26 28  1  0  0  0  0
 26 49  1  0  0  0  0
 28 29  1  0  0  0  0
 28 50  1  0  0  0  0
 28 51  1  0  0  0  0
 29 30  1  0  0  0  0
 29 52  1  0  0  0  0
 29 53  1  0  0  0  0
 30 54  1  0  0  0  0
 30 55  1  0  0  0  0
 30 56  1  0  0  0  0
M  END
>  <Mol_ID>
3934

>  <Formula>
C22H26N6O2

>  <MolWeight>
406.48084

>  <Cat>
S8124

>  <Name>
BMS-582949

>  <Synonyms>
PS540446

>  <Target>
p38 MAPK

>  <Form>
free base

>  <CAS>
623152-17-0

>  <URL>
http://selleckchem.com/products/bms-582949.html

$$$$
