BMS-754807.cdx
 OpenBabel08302521423D

 58 63  0  0  0  0  0  0  0  0999 V2000
    0.3784   -0.4678    0.1995 C   0  0  0  0  0  0  0  0  0  0  0  0
   -0.4772   -0.7363   -0.8288 N   0  0  0  0  0  0  0  0  0  0  0  0
   -1.6709   -0.1446   -1.0198 N   0  0  0  0  0  0  0  0  0  0  0  0
   -2.0285    0.6378   -0.0439 C   0  0  0  0  0  0  0  0  0  0  0  0
   -1.2171    0.9993    0.9862 N   0  0  0  0  0  0  0  0  0  0  0  0
   -0.0066    0.5558    1.1264 C   0  0  0  0  0  0  0  0  0  0  0  0
    1.4632   -1.3148    0.0960 C   0  0  0  0  0  0  0  0  0  0  0  0
    1.2502   -2.1203   -1.0526 C   0  0  0  0  0  0  0  0  0  0  0  0
    0.0527   -1.7261   -1.6105 C   0  0  0  0  0  0  0  0  0  0  0  0
    0.8473    1.0466    2.0982 N   0  0  0  0  0  0  0  0  0  0  0  0
    0.7376    2.3172    2.5707 C   0  0  0  0  0  0  0  0  0  0  0  0
   -3.2769    1.1918   -0.0353 N   0  0  0  0  0  0  0  0  0  0  0  0
   -0.4209    3.1334    2.5806 C   0  0  0  0  0  0  0  0  0  0  0  0
   -0.0124    4.3718    3.0044 C   0  0  0  0  0  0  0  0  0  0  0  0
    1.3049    4.2153    3.3372 N   0  0  0  0  0  0  0  0  0  0  0  0
    1.7811    2.9828    3.0839 N   0  0  0  0  0  0  0  0  0  0  0  0
   -4.0957    1.0926    1.1736 C   0  0  0  0  0  0  0  0  0  0  0  0
   -5.0398    2.2823    1.1604 C   0  0  0  0  0  0  0  0  0  0  0  0
   -4.5122    3.1873    0.0677 C   0  0  0  0  0  0  0  0  0  0  0  0
   -3.7660    2.2613   -0.9233 C   0  0  2  0  0  0  0  0  0  0  0  0
   -0.8263    5.6468    3.0550 C   0  0  0  0  0  0  0  0  0  0  0  0
   -2.3267    5.5666    3.2504 C   0  0  0  0  0  0  0  0  0  0  0  0
   -1.7825    5.9102    1.9051 C   0  0  0  0  0  0  0  0  0  0  0  0
   -4.7325    1.6443   -1.9387 C   0  0  0  0  0  0  0  0  0  0  0  0
   -2.7236    3.1543   -1.6597 C   0  0  0  0  0  0  0  0  0  0  0  0
   -2.9893    4.3472   -1.8464 O   0  0  0  0  0  0  0  0  0  0  0  0
   -1.6028    2.5473   -2.1923 N   0  0  0  0  0  0  0  0  0  0  0  0
   -0.5296    3.2036   -2.8479 C   0  0  0  0  0  0  0  0  0  0  0  0
   -0.3855    4.5904   -2.9284 C   0  0  0  0  0  0  0  0  0  0  0  0
    0.6552    5.1472   -3.6733 C   0  0  0  0  0  0  0  0  0  0  0  0
    1.5423    4.2946   -4.3000 C   0  0  0  0  0  0  0  0  0  0  0  0
    1.4859    2.9514   -4.2018 N   0  0  0  0  0  0  0  0  0  0  0  0
    0.4590    2.4428   -3.4731 C   0  0  0  0  0  0  0  0  0  0  0  0
    2.5116    4.8267   -5.0585 F   0  0  0  0  0  0  0  0  0  0  0  0
    2.3058   -1.3734    0.7727 H   0  0  0  0  0  0  0  0  0  0  0  0
    1.8916   -2.9083   -1.4273 H   0  0  0  0  0  0  0  0  0  0  0  0
   -0.4877   -2.0855   -2.4749 H   0  0  0  0  0  0  0  0  0  0  0  0
    1.7918    0.6876    2.0844 H   0  0  0  0  0  0  0  0  0  0  0  0
   -1.4209    2.8893    2.2595 H   0  0  0  0  0  0  0  0  0  0  0  0
    1.9361    4.9189    3.7021 H   0  0  0  0  0  0  0  0  0  0  0  0
   -4.6696    0.1590    1.1456 H   0  0  0  0  0  0  0  0  0  0  0  0
   -3.4971    1.0855    2.0902 H   0  0  0  0  0  0  0  0  0  0  0  0
   -6.0642    1.9641    0.9435 H   0  0  0  0  0  0  0  0  0  0  0  0
   -5.0520    2.7923    2.1301 H   0  0  0  0  0  0  0  0  0  0  0  0
   -5.3111    3.7683   -0.4057 H   0  0  0  0  0  0  0  0  0  0  0  0
   -3.8175    3.9063    0.5211 H   0  0  0  0  0  0  0  0  0  0  0  0
   -0.3105    6.5153    3.4608 H   0  0  0  0  0  0  0  0  0  0  0  0
   -2.7975    4.6004    3.3764 H   0  0  0  0  0  0  0  0  0  0  0  0
   -2.8103    6.3571    3.8133 H   0  0  0  0  0  0  0  0  0  0  0  0
   -1.8924    6.9304    1.5559 H   0  0  0  0  0  0  0  0  0  0  0  0
   -1.8640    5.1785    1.1108 H   0  0  0  0  0  0  0  0  0  0  0  0
   -5.2230    2.4178   -2.5397 H   0  0  0  0  0  0  0  0  0  0  0  0
   -4.2099    0.9700   -2.6253 H   0  0  0  0  0  0  0  0  0  0  0  0
   -5.5185    1.0604   -1.4442 H   0  0  0  0  0  0  0  0  0  0  0  0
   -1.5705    1.5297   -2.1533 H   0  0  0  0  0  0  0  0  0  0  0  0
   -1.0651    5.2731   -2.4297 H   0  0  0  0  0  0  0  0  0  0  0  0
    0.7634    6.2204   -3.7744 H   0  0  0  0  0  0  0  0  0  0  0  0
    0.4517    1.3574   -3.4228 H   0  0  0  0  0  0  0  0  0  0  0  0
  1  2  1  0  0  0  0
  1  7  2  0  0  0  0
  2  3  1  0  0  0  0
  3  4  2  0  0  0  0
  4  5  1  0  0  0  0
  4 12  1  0  0  0  0
  5  6  2  0  0  0  0
  6  1  1  0  0  0  0
  6 10  1  0  0  0  0
  7  8  1  0  0  0  0
  7 35  1  0  0  0  0
  8  9  2  0  0  0  0
  8 36  1  0  0  0  0
  9  2  1  0  0  0  0
  9 37  1  0  0  0  0
 10 11  1  0  0  0  0
 10 38  1  0  0  0  0
 11 13  1  0  0  0  0
 12 17  1  0  0  0  0
 13 14  2  0  0  0  0
 13 39  1  0  0  0  0
 14 15  1  0  0  0  0
 14 21  1  0  0  0  0
 15 16  1  0  0  0  0
 15 40  1  0  0  0  0
 16 11  2  0  0  0  0
 17 18  1  0  0  0  0
 17 41  1  0  0  0  0
 17 42  1  0  0  0  0
 18 19  1  0  0  0  0
 18 43  1  0  0  0  0
 18 44  1  0  0  0  0
 19 20  1  0  0  0  0
 19 45  1  0  0  0  0
 19 46  1  0  0  0  0
 20 12  1  0  0  0  0
 20 25  1  6  0  0  0
 20 24  1  0  0  0  0
 21 22  1  0  0  0  0
 21 47  1  0  0  0  0
 22 23  1  0  0  0  0
 22 48  1  0  0  0  0
 22 49  1  0  0  0  0
 23 21  1  0  0  0  0
 23 50  1  0  0  0  0
 23 51  1  0  0  0  0
 24 52  1  0  0  0  0
 24 53  1  0  0  0  0
 24 54  1  0  0  0  0
 25 26  2  0  0  0  0
 25 27  1  0  0  0  0
 27 28  1  0  0  0  0
 27 55  1  0  0  0  0
 28 29  2  0  0  0  0
 29 30  1  0  0  0  0
 29 56  1  0  0  0  0
 30 31  2  0  0  0  0
 30 57  1  0  0  0  0
 31 32  1  0  0  0  0
 31 34  1  0  0  0  0
 32 33  2  0  0  0  0
 33 28  1  0  0  0  0
 33 58  1  0  0  0  0
M  END
>  <Mol_ID>
848

>  <Formula>
C23H24FN9O

>  <MolWeight>
461.4947632

>  <Cat>
S1124

>  <Name>
BMS-754807

>  <Synonyms>
N/A

>  <Target>
c-Met,IGF-1R,RON,Trk receptor

>  <Form>
free base

>  <CAS>
1001350-96-4

>  <URL>
http://selleckchem.com/products/BMS-754807.html

$$$$
