BMS-986299
 OpenBabel08302521313D

 45 48  0  0  0  0  0  0  0  0999 V2000
   -0.1635   -1.7785    0.1186 N   0  0  0  0  0  0  0  0  0  0  0  0
   -1.0949   -0.8127    0.0627 C   0  0  0  0  0  0  0  0  0  0  0  0
   -0.7973    0.5699    0.0286 C   0  0  0  0  0  0  0  0  0  0  0  0
    0.5778    0.8834    0.0680 C   0  0  0  0  0  0  0  0  0  0  0  0
    1.5493   -0.1116    0.1263 C   0  0  0  0  0  0  0  0  0  0  0  0
    1.1518   -1.4660    0.1637 C   0  0  0  0  0  0  0  0  0  0  0  0
    1.3029    2.0547    0.0677 N   0  0  0  0  0  0  0  0  0  0  0  0
    2.6432    1.7410    0.0734 C   0  0  0  0  0  0  0  0  0  0  0  0
    2.8169    0.4341    0.1089 N   0  0  0  0  0  0  0  0  0  0  0  0
   -2.4245   -1.1903    0.0508 C   0  0  0  0  0  0  0  0  0  0  0  0
   -3.4712   -0.2529    0.0027 C   0  0  0  0  0  0  0  0  0  0  0  0
   -3.1561    1.1110   -0.0607 C   0  0  0  0  0  0  0  0  0  0  0  0
   -1.8242    1.5322   -0.0442 C   0  0  0  0  0  0  0  0  0  0  0  0
   -4.8623   -0.7067    0.0440 C   0  0  0  0  0  0  0  0  0  0  0  0
    3.7160    2.7771   -0.0218 C   0  0  0  0  0  0  0  0  0  0  0  0
    4.1463    3.2369    1.2992 N   0  0  0  0  0  0  0  0  0  0  0  0
    5.1808    2.4521    1.9822 C   0  0  0  0  0  0  0  0  0  0  0  0
    3.5042    4.3397    1.8385 C   0  0  0  0  0  0  0  0  0  0  0  0
    3.9483    4.8694    3.1867 C   0  0  0  0  0  0  0  0  0  0  0  0
    2.5939    4.9155    1.2325 O   0  0  0  0  0  0  0  0  0  0  0  0
    4.6145    1.4058    2.9296 C   0  0  0  0  0  0  0  0  0  0  0  0
   -5.3734   -1.8749    0.6757 C   0  0  0  0  0  0  0  0  0  0  0  0
   -6.7231   -1.8712    0.4310 C   0  0  0  0  0  0  0  0  0  0  0  0
   -6.9585   -0.7516   -0.3057 N   0  0  0  0  0  0  0  0  0  0  0  0
   -5.8585   -0.0162   -0.5366 N   0  0  0  0  0  0  0  0  0  0  0  0
    2.0618   -2.5201    0.2170 N   0  0  0  0  0  0  0  0  0  0  0  0
    0.9278    2.9944    0.0506 H   0  0  0  0  0  0  0  0  0  0  0  0
   -2.6481   -2.2552    0.0662 H   0  0  0  0  0  0  0  0  0  0  0  0
   -3.9545    1.8506   -0.1092 H   0  0  0  0  0  0  0  0  0  0  0  0
   -1.6009    2.5945   -0.0823 H   0  0  0  0  0  0  0  0  0  0  0  0
    4.5835    2.3692   -0.5535 H   0  0  0  0  0  0  0  0  0  0  0  0
    3.3598    3.6248   -0.6176 H   0  0  0  0  0  0  0  0  0  0  0  0
    5.8209    1.9738    1.2330 H   0  0  0  0  0  0  0  0  0  0  0  0
    5.8311    3.1345    2.5381 H   0  0  0  0  0  0  0  0  0  0  0  0
    4.5475    5.7693    3.0352 H   0  0  0  0  0  0  0  0  0  0  0  0
    3.0566    5.1227    3.7677 H   0  0  0  0  0  0  0  0  0  0  0  0
    4.5192    4.1578    3.7787 H   0  0  0  0  0  0  0  0  0  0  0  0
    4.1069    0.6077    2.3821 H   0  0  0  0  0  0  0  0  0  0  0  0
    5.4221    0.9452    3.5072 H   0  0  0  0  0  0  0  0  0  0  0  0
    3.8943    1.8382    3.6302 H   0  0  0  0  0  0  0  0  0  0  0  0
   -4.8243   -2.6158    1.2415 H   0  0  0  0  0  0  0  0  0  0  0  0
   -7.5166   -2.5500    0.7081 H   0  0  0  0  0  0  0  0  0  0  0  0
   -7.8423   -0.4224   -0.6805 H   0  0  0  0  0  0  0  0  0  0  0  0
    2.9786   -2.2512   -0.1183 H   0  0  0  0  0  0  0  0  0  0  0  0
    1.6519   -3.3660   -0.1588 H   0  0  0  0  0  0  0  0  0  0  0  0
  1  2  2  0  0  0  0
  2  3  1  0  0  0  0
  2 10  1  0  0  0  0
  3  4  2  0  0  0  0
  4  5  1  0  0  0  0
  4  7  1  0  0  0  0
  5  6  2  0  0  0  0
  6  1  1  0  0  0  0
  6 26  1  0  0  0  0
  7  8  1  0  0  0  0
  7 27  1  0  0  0  0
  8  9  2  0  0  0  0
  8 15  1  0  0  0  0
  9  5  1  0  0  0  0
 10 11  2  0  0  0  0
 10 28  1  0  0  0  0
 11 12  1  0  0  0  0
 11 14  1  0  0  0  0
 12 13  2  0  0  0  0
 12 29  1  0  0  0  0
 13  3  1  0  0  0  0
 13 30  1  0  0  0  0
 14 22  1  0  0  0  0
 15 16  1  0  0  0  0
 15 31  1  0  0  0  0
 15 32  1  0  0  0  0
 16 17  1  0  0  0  0
 16 18  1  0  0  0  0
 17 21  1  0  0  0  0
 17 33  1  0  0  0  0
 17 34  1  0  0  0  0
 18 19  1  0  0  0  0
 18 20  2  0  0  0  0
 19 35  1  0  0  0  0
 19 36  1  0  0  0  0
 19 37  1  0  0  0  0
 21 38  1  0  0  0  0
 21 39  1  0  0  0  0
 21 40  1  0  0  0  0
 22 23  2  0  0  0  0
 22 41  1  0  0  0  0
 23 24  1  0  0  0  0
 23 42  1  0  0  0  0
 24 25  1  0  0  0  0
 24 43  1  0  0  0  0
 25 14  2  0  0  0  0
 26 44  1  0  0  0  0
 26 45  1  0  0  0  0
M  END
>  <Mol_ID>
6040

>  <Formula>
C18H19N7O

>  <MolWeight>
349.38976

>  <Cat>
S9899

>  <Name>
BMS-986299

>  <Synonyms>
N/A

>  <Target>
NLRP3

>  <Form>
Free Base

>  <CAS>
2242952-69-6

>  <URL>
http://www.selleckchem.com/products/bms-986299.html

$$$$
