BMS-911543.cdx
 OpenBabel08302520003D

 60 65  0  0  0  0  0  0  0  0999 V2000
   -0.6889   -0.5023    0.1401 C   0  0  0  0  0  0  0  0  0  0  0  0
   -1.3706    0.6833    0.0815 C   0  0  0  0  0  0  0  0  0  0  0  0
   -0.7914    1.8984    0.0220 N   0  0  0  0  0  0  0  0  0  0  0  0
    0.5868    1.9444    0.0215 C   0  0  0  0  0  0  0  0  0  0  0  0
    1.3364    0.7311    0.0857 C   0  0  0  0  0  0  0  0  0  0  0  0
    0.6664   -0.4732    0.1297 C   0  0  0  0  0  0  0  0  0  0  0  0
   -1.5903   -1.5807    0.1991 C   0  0  0  0  0  0  0  0  0  0  0  0
   -2.8702   -1.0200    0.1881 C   0  0  0  0  0  0  0  0  0  0  0  0
   -2.7046    0.3671    0.0660 N   0  0  0  0  0  0  0  0  0  0  0  0
   -3.7633    1.3632   -0.0002 C   0  0  0  0  0  0  0  0  0  0  0  0
   -4.2072    1.6780   -1.4217 C   0  0  0  0  0  0  0  0  0  0  0  0
   -4.1683   -1.6808    0.1999 C   0  0  0  0  0  0  0  0  0  0  0  0
   -4.3423   -2.8625    0.9513 N   0  0  0  0  0  0  0  0  0  0  0  0
   -5.1145   -1.2147   -0.4400 O   0  0  0  0  0  0  0  0  0  0  0  0
   -5.6250   -3.5265    0.8386 C   0  0  0  0  0  0  0  0  0  0  0  0
   -3.4327   -3.3867    1.9443 C   0  0  0  0  0  0  0  0  0  0  0  0
   -3.9103   -3.5879    3.3677 C   0  0  0  0  0  0  0  0  0  0  0  0
   -2.8466   -2.5802    3.0763 C   0  0  0  0  0  0  0  0  0  0  0  0
   -5.8546   -5.0075    0.9784 C   0  0  0  0  0  0  0  0  0  0  0  0
   -5.9194   -4.3729   -0.3760 C   0  0  0  0  0  0  0  0  0  0  0  0
    2.6975    0.4869    0.0715 N   0  0  0  0  0  0  0  0  0  0  0  0
    2.8090   -0.8282    0.0824 C   0  0  0  0  0  0  0  0  0  0  0  0
    1.5831   -1.4528    0.1142 N   0  0  0  0  0  0  0  0  0  0  0  0
    1.3895   -2.8768    0.0626 C   0  0  0  0  0  0  0  0  0  0  0  0
    1.2781    3.1647   -0.1010 N   0  0  0  0  0  0  0  0  0  0  0  0
    0.8448    4.3325   -0.6155 C   0  0  0  0  0  0  0  0  0  0  0  0
   -0.4998    4.7540   -0.7120 C   0  0  0  0  0  0  0  0  0  0  0  0
   -0.4765    5.9462   -1.3996 C   0  0  0  0  0  0  0  0  0  0  0  0
    0.8475    6.1818   -1.6521 N   0  0  0  0  0  0  0  0  0  0  0  0
    1.6678    5.2440   -1.1428 N   0  0  0  0  0  0  0  0  0  0  0  0
   -1.5844    6.8198   -1.8436 C   0  0  0  0  0  0  0  0  0  0  0  0
    1.4028    7.2643   -2.4295 C   0  0  0  0  0  0  0  0  0  0  0  0
   -1.3742   -2.6369    0.2384 H   0  0  0  0  0  0  0  0  0  0  0  0
   -4.6034    1.0116    0.6054 H   0  0  0  0  0  0  0  0  0  0  0  0
   -3.3953    2.2762    0.4815 H   0  0  0  0  0  0  0  0  0  0  0  0
   -4.5667    0.7869   -1.9451 H   0  0  0  0  0  0  0  0  0  0  0  0
   -5.0217    2.4101   -1.4074 H   0  0  0  0  0  0  0  0  0  0  0  0
   -3.3854    2.0973   -2.0110 H   0  0  0  0  0  0  0  0  0  0  0  0
   -6.4348   -2.8885    1.1914 H   0  0  0  0  0  0  0  0  0  0  0  0
   -2.8079   -4.1798    1.5387 H   0  0  0  0  0  0  0  0  0  0  0  0
   -4.8876   -3.2102    3.6472 H   0  0  0  0  0  0  0  0  0  0  0  0
   -3.6318   -4.5072    3.8686 H   0  0  0  0  0  0  0  0  0  0  0  0
   -1.8370   -2.8127    3.3989 H   0  0  0  0  0  0  0  0  0  0  0  0
   -3.1040   -1.5322    3.1665 H   0  0  0  0  0  0  0  0  0  0  0  0
   -5.0189   -5.6608    1.1891 H   0  0  0  0  0  0  0  0  0  0  0  0
   -6.7901   -5.3281    1.4257 H   0  0  0  0  0  0  0  0  0  0  0  0
   -6.8849   -4.2360   -0.8494 H   0  0  0  0  0  0  0  0  0  0  0  0
   -5.1128   -4.5810   -1.0690 H   0  0  0  0  0  0  0  0  0  0  0  0
    3.7428   -1.3760    0.0532 H   0  0  0  0  0  0  0  0  0  0  0  0
    0.8296   -3.1883    0.9475 H   0  0  0  0  0  0  0  0  0  0  0  0
    0.8437   -3.1198   -0.8528 H   0  0  0  0  0  0  0  0  0  0  0  0
    2.3590   -3.3817    0.0516 H   0  0  0  0  0  0  0  0  0  0  0  0
    2.2800    3.0041   -0.1490 H   0  0  0  0  0  0  0  0  0  0  0  0
   -1.3811    4.2394   -0.3605 H   0  0  0  0  0  0  0  0  0  0  0  0
   -1.4592    7.8363   -1.4595 H   0  0  0  0  0  0  0  0  0  0  0  0
   -1.6318    6.8578   -2.9362 H   0  0  0  0  0  0  0  0  0  0  0  0
   -2.5449    6.4389   -1.4804 H   0  0  0  0  0  0  0  0  0  0  0  0
    0.9674    7.2244   -3.4314 H   0  0  0  0  0  0  0  0  0  0  0  0
    1.1534    8.2073   -1.9377 H   0  0  0  0  0  0  0  0  0  0  0  0
    2.4881    7.1519   -2.4957 H   0  0  0  0  0  0  0  0  0  0  0  0
  1  2  1  0  0  0  0
  1  7  1  0  0  0  0
  2  3  2  0  0  0  0
  3  4  1  0  0  0  0
  4  5  2  0  0  0  0
  4 25  1  0  0  0  0
  5  6  1  0  0  0  0
  5 21  1  0  0  0  0
  6  1  2  0  0  0  0
  7  8  2  0  0  0  0
  7 33  1  0  0  0  0
  8  9  1  0  0  0  0
  8 12  1  0  0  0  0
  9  2  1  0  0  0  0
  9 10  1  0  0  0  0
 10 11  1  0  0  0  0
 10 34  1  0  0  0  0
 10 35  1  0  0  0  0
 11 36  1  0  0  0  0
 11 37  1  0  0  0  0
 11 38  1  0  0  0  0
 12 13  1  0  0  0  0
 12 14  2  0  0  0  0
 13 15  1  0  0  0  0
 13 16  1  0  0  0  0
 15 19  1  0  0  0  0
 15 39  1  0  0  0  0
 16 17  1  0  0  0  0
 16 40  1  0  0  0  0
 17 18  1  0  0  0  0
 17 41  1  0  0  0  0
 17 42  1  0  0  0  0
 18 16  1  0  0  0  0
 18 43  1  0  0  0  0
 18 44  1  0  0  0  0
 19 20  1  0  0  0  0
 19 45  1  0  0  0  0
 19 46  1  0  0  0  0
 20 15  1  0  0  0  0
 20 47  1  0  0  0  0
 20 48  1  0  0  0  0
 21 22  2  0  0  0  0
 22 23  1  0  0  0  0
 22 49  1  0  0  0  0
 23  6  1  0  0  0  0
 23 24  1  0  0  0  0
 24 50  1  0  0  0  0
 24 51  1  0  0  0  0
 24 52  1  0  0  0  0
 25 26  1  0  0  0  0
 25 53  1  0  0  0  0
 26 27  1  0  0  0  0
 27 28  2  0  0  0  0
 27 54  1  0  0  0  0
 28 29  1  0  0  0  0
 28 31  1  0  0  0  0
 29 30  1  0  0  0  0
 29 32  1  0  0  0  0
 30 26  2  0  0  0  0
 31 55  1  0  0  0  0
 31 56  1  0  0  0  0
 31 57  1  0  0  0  0
 32 58  1  0  0  0  0
 32 59  1  0  0  0  0
 32 60  1  0  0  0  0
M  END
>  <Mol_ID>
2702

>  <Formula>
C23H28N8O

>  <MolWeight>
432.52142

>  <Cat>
S7144

>  <Name>
BMS-911543

>  <Target>
JAK

>  <Form>
free base

>  <CAS>
1271022-90-2

>  <URL>
http://selleckchem.com/products/bms-911543.html

$$$$
