bms-707035.cdx
 OpenBabel08302521393D

 35 38  0  0  0  0  0  0  0  0999 V2000
    2.5268   -0.6015   -0.0563 C   0  0  0  0  0  0  0  0  0  0  0  0
    2.4363    0.7818   -0.0053 C   0  0  0  0  0  0  0  0  0  0  0  0
    1.1789    1.3868   -0.0176 C   0  0  0  0  0  0  0  0  0  0  0  0
    0.0018    0.6502   -0.0319 C   0  0  0  0  0  0  0  0  0  0  0  0
    0.0608   -0.7662   -0.0631 C   0  0  0  0  0  0  0  0  0  0  0  0
    1.3516   -1.3547   -0.1433 C   0  0  0  0  0  0  0  0  0  0  0  0
   -1.1457    1.3394   -0.0073 N   0  0  0  0  0  0  0  0  0  0  0  0
   -2.2972    0.6492    0.0187 C   0  0  0  0  0  0  0  0  0  0  0  0
   -2.3635   -0.7293    0.0323 C   0  0  0  0  0  0  0  0  0  0  0  0
   -1.1793   -1.4873   -0.0052 C   0  0  0  0  0  0  0  0  0  0  0  0
   -1.2863   -2.9785    0.0325 C   0  0  0  0  0  0  0  0  0  0  0  0
   -2.3088   -3.6555   -0.6526 C   0  0  0  0  0  0  0  0  0  0  0  0
   -2.3674   -5.0428   -0.6121 C   0  0  0  0  0  0  0  0  0  0  0  0
   -1.4687   -5.8132    0.0292 N   0  0  0  0  0  0  0  0  0  0  0  0
   -0.5018   -5.1644    0.7026 C   0  0  0  0  0  0  0  0  0  0  0  0
   -0.4017   -3.7812    0.7677 C   0  0  0  0  0  0  0  0  0  0  0  0
    3.8211   -1.2806    0.0399 C   0  0  0  0  0  0  0  0  0  0  0  0
    4.4144   -1.6201    1.1936 C   0  0  0  0  0  0  0  0  0  0  0  0
    5.7255   -2.3185    1.2351 C   0  0  0  0  0  0  0  0  0  0  0  0
    6.1124   -2.5045    2.5303 N   0  0  0  0  0  0  0  0  0  0  0  0
    5.2826   -2.0731    3.5141 C   0  0  0  0  0  0  0  0  0  0  0  0
    3.8494   -1.3521    2.8055 S   0  0  0  0  0  0  0  0  0  0  0  0
    6.3630   -2.6740    0.2564 O   0  0  0  0  0  0  0  0  0  0  0  0
    5.4841   -2.1712    4.7113 O   0  0  0  0  0  0  0  0  0  0  0  0
    3.3279    1.4014    0.0465 H   0  0  0  0  0  0  0  0  0  0  0  0
    1.1145    2.4737    0.0076 H   0  0  0  0  0  0  0  0  0  0  0  0
    1.4601   -2.4282   -0.2633 H   0  0  0  0  0  0  0  0  0  0  0  0
   -3.1995    1.2545    0.0383 H   0  0  0  0  0  0  0  0  0  0  0  0
   -3.3412   -1.1977    0.0900 H   0  0  0  0  0  0  0  0  0  0  0  0
   -3.0649   -3.1237   -1.2209 H   0  0  0  0  0  0  0  0  0  0  0  0
   -3.1644   -5.5838   -1.1145 H   0  0  0  0  0  0  0  0  0  0  0  0
    0.2196   -5.8002    1.2084 H   0  0  0  0  0  0  0  0  0  0  0  0
    0.3776   -3.3527    1.3892 H   0  0  0  0  0  0  0  0  0  0  0  0
    4.2911   -1.5203   -0.9116 H   0  0  0  0  0  0  0  0  0  0  0  0
    6.9782   -2.9561    2.7456 H   0  0  0  0  0  0  0  0  0  0  0  0
  1  2  2  0  0  0  0
  1 17  1  0  0  0  0
  2  3  1  0  0  0  0
  2 25  1  0  0  0  0
  3  4  2  0  0  0  0
  3 26  1  0  0  0  0
  4  5  1  0  0  0  0
  4  7  1  0  0  0  0
  5  6  2  0  0  0  0
  6  1  1  0  0  0  0
  6 27  1  0  0  0  0
  7  8  2  0  0  0  0
  8  9  1  0  0  0  0
  8 28  1  0  0  0  0
  9 10  2  0  0  0  0
  9 29  1  0  0  0  0
 10  5  1  0  0  0  0
 10 11  1  0  0  0  0
 11 12  2  0  0  0  0
 12 13  1  0  0  0  0
 12 30  1  0  0  0  0
 13 14  2  0  0  0  0
 13 31  1  0  0  0  0
 14 15  1  0  0  0  0
 15 16  2  0  0  0  0
 15 32  1  0  0  0  0
 16 11  1  0  0  0  0
 16 33  1  0  0  0  0
 17 18  2  0  0  0  0
 17 34  1  0  0  0  0
 18 19  1  0  0  0  0
 19 20  1  0  0  0  0
 19 23  2  0  0  0  0
 20 21  1  0  0  0  0
 20 35  1  0  0  0  0
 21 22  1  0  0  0  0
 21 24  2  0  0  0  0
 22 18  1  0  0  0  0
M  END
>  <Mol_ID>
8219

>  <Formula>
C18H11N3O2S

>  <MolWeight>
333.36384

>  <Cat>
S1360

>  <Name>
GSK1059615

>  <Synonyms>
N/A

>  <Target>
mTOR,PI3K

>  <Form>
Free Base

>  <CAS>
958852-01-2

>  <URL>
http://selleckchem.com/products/GSK1059615.html

$$$$
