BMS-P5
 OpenBabel08302521353D

 67 72  0  0  0  0  0  0  0  0999 V2000
    2.5909   -0.6417   -2.9201 C   0  0  0  0  0  0  0  0  0  0  0  0
   -2.3019   -1.9272   -0.9619 C   0  0  0  0  0  0  0  0  0  0  0  0
   -2.5831   -4.9665    0.1543 O   0  0  0  0  0  0  0  0  0  0  0  0
   -2.5870   -4.1142    1.2854 C   0  0  0  0  0  0  0  0  0  0  0  0
    0.2925   -7.9964   -2.1869 C   0  0  0  0  0  0  0  0  0  0  0  0
    1.3896   -8.1363   -2.7354 O   0  0  0  0  0  0  0  0  0  0  0  0
   -2.8915   -9.7562   -2.3674 C   0  0  0  0  0  0  0  0  0  0  0  0
    0.5912  -12.5423   -0.6733 N   0  0  0  0  0  0  0  0  0  0  0  0
    0.0325   -0.6526   -2.6404 C   0  0  0  0  0  0  0  0  0  0  0  0
    1.2730   -0.0317   -2.7401 N   0  0  0  0  0  0  0  0  0  0  0  0
   -0.9029    0.3691   -2.7813 C   0  0  0  0  0  0  0  0  0  0  0  0
    1.1163    1.3421   -2.6420 C   0  0  0  0  0  0  0  0  0  0  0  0
   -0.2431    1.6145   -2.6664 C   0  0  0  0  0  0  0  0  0  0  0  0
    2.1102    2.2538   -2.5560 N   0  0  0  0  0  0  0  0  0  0  0  0
   -0.6554    2.9523   -2.5757 C   0  0  0  0  0  0  0  0  0  0  0  0
    1.6648    3.5289   -2.4801 C   0  0  0  0  0  0  0  0  0  0  0  0
    0.3349    3.9254   -2.4750 C   0  0  0  0  0  0  0  0  0  0  0  0
   -0.2261   -2.0589   -2.4266 C   0  0  0  0  0  0  0  0  0  0  0  0
   -1.2020   -2.6017   -1.5998 N   0  0  0  0  0  0  0  0  0  0  0  0
    0.4655   -3.0263   -2.9883 N   0  0  0  0  0  0  0  0  0  0  0  0
   -0.9404   -3.9507   -1.4363 C   0  0  0  0  0  0  0  0  0  0  0  0
    0.0189   -4.2050   -2.4162 C   0  0  0  0  0  0  0  0  0  0  0  0
   -1.4403   -4.9811   -0.6225 C   0  0  0  0  0  0  0  0  0  0  0  0
    0.3872   -5.5384   -2.6969 C   0  0  0  0  0  0  0  0  0  0  0  0
   -0.8999   -6.2618   -0.8010 C   0  0  0  0  0  0  0  0  0  0  0  0
   -0.1099   -6.5827   -1.8903 C   0  0  0  0  0  0  0  0  0  0  0  0
    3.0780   -0.4821   -4.3390 C   0  0  0  0  0  0  0  0  0  0  0  0
    4.4922   -0.8254   -4.7502 C   0  0  0  0  0  0  0  0  0  0  0  0
    4.0651    0.6117   -4.6820 C   0  0  0  0  0  0  0  0  0  0  0  0
   -0.5101   -9.1073   -1.8462 N   0  0  0  0  0  0  0  0  0  0  0  0
   -1.9154   -9.1192   -1.3723 C   0  0  2  0  0  0  0  0  0  0  0  0
    0.1113  -10.4431   -1.9360 C   0  0  0  0  0  0  0  0  0  0  0  0
   -1.9740   -9.7959    0.0093 C   0  0  0  0  0  0  0  0  0  0  0  0
    0.0649  -11.1748   -0.5730 C   0  0  1  0  0  0  0  0  0  0  0  0
   -1.3629  -11.1976   -0.0037 C   0  0  0  0  0  0  0  0  0  0  0  0
    2.5407   -1.6956   -2.6430 H   0  0  0  0  0  0  0  0  0  0  0  0
    3.2716   -0.1552   -2.2094 H   0  0  0  0  0  0  0  0  0  0  0  0
   -3.2156   -2.4895   -1.1764 H   0  0  0  0  0  0  0  0  0  0  0  0
   -2.1000   -1.8638    0.1065 H   0  0  0  0  0  0  0  0  0  0  0  0
   -2.4464   -0.9192   -1.3259 H   0  0  0  0  0  0  0  0  0  0  0  0
   -1.6142   -3.6704    1.5119 H   0  0  0  0  0  0  0  0  0  0  0  0
   -3.3405   -3.3399    1.1154 H   0  0  0  0  0  0  0  0  0  0  0  0
   -2.9278   -4.6869    2.1536 H   0  0  0  0  0  0  0  0  0  0  0  0
   -2.9710   -9.1318   -3.2628 H   0  0  0  0  0  0  0  0  0  0  0  0
   -2.5968  -10.7588   -2.6831 H   0  0  0  0  0  0  0  0  0  0  0  0
   -3.8942   -9.8272   -1.9270 H   0  0  0  0  0  0  0  0  0  0  0  0
   -0.1406  -13.2268   -0.4860 H   0  0  0  0  0  0  0  0  0  0  0  0
    1.2918  -12.6878    0.0540 H   0  0  0  0  0  0  0  0  0  0  0  0
   -1.9721    0.2540   -2.8675 H   0  0  0  0  0  0  0  0  0  0  0  0
   -1.7072    3.2177   -2.5677 H   0  0  0  0  0  0  0  0  0  0  0  0
    2.4516    4.2777   -2.4176 H   0  0  0  0  0  0  0  0  0  0  0  0
    0.0712    4.9738   -2.3962 H   0  0  0  0  0  0  0  0  0  0  0  0
    1.0605   -5.7429   -3.5249 H   0  0  0  0  0  0  0  0  0  0  0  0
   -1.1699   -7.0195   -0.0707 H   0  0  0  0  0  0  0  0  0  0  0  0
    2.3038   -0.7256   -5.0584 H   0  0  0  0  0  0  0  0  0  0  0  0
    5.1860   -1.1882   -4.0016 H   0  0  0  0  0  0  0  0  0  0  0  0
    4.6538   -1.2426   -5.7393 H   0  0  0  0  0  0  0  0  0  0  0  0
    4.4822    1.2190   -3.8852 H   0  0  0  0  0  0  0  0  0  0  0  0
    3.9058    1.1569   -5.6055 H   0  0  0  0  0  0  0  0  0  0  0  0
   -2.2981   -8.1075   -1.2743 H   0  0  0  0  0  0  0  0  0  0  0  0
   -0.4236  -11.0154   -2.7025 H   0  0  0  0  0  0  0  0  0  0  0  0
    1.1525  -10.3757   -2.2682 H   0  0  0  0  0  0  0  0  0  0  0  0
   -1.4182   -9.1887    0.7353 H   0  0  0  0  0  0  0  0  0  0  0  0
   -3.0075   -9.8465    0.3707 H   0  0  0  0  0  0  0  0  0  0  0  0
    0.6995  -10.6165    0.1281 H   0  0  0  0  0  0  0  0  0  0  0  0
   -1.3511  -11.5959    1.0192 H   0  0  0  0  0  0  0  0  0  0  0  0
   -2.0022  -11.8668   -0.5930 H   0  0  0  0  0  0  0  0  0  0  0  0
  1 10  1  0  0  0  0
  1 27  1  0  0  0  0
  1 36  1  0  0  0  0
  1 37  1  0  0  0  0
  2 19  1  0  0  0  0
  2 38  1  0  0  0  0
  2 39  1  0  0  0  0
  2 40  1  0  0  0  0
  3  4  1  0  0  0  0
  3 23  1  0  0  0  0
  4 41  1  0  0  0  0
  4 42  1  0  0  0  0
  4 43  1  0  0  0  0
  5  6  2  0  0  0  0
  5 26  1  0  0  0  0
  5 30  1  0  0  0  0
  7 44  1  0  0  0  0
  7 45  1  0  0  0  0
  7 46  1  0  0  0  0
  8 47  1  0  0  0  0
  8 48  1  0  0  0  0
  9 10  1  0  0  0  0
  9 11  2  0  0  0  0
  9 18  1  0  0  0  0
 10 12  1  0  0  0  0
 11 13  1  0  0  0  0
 11 49  1  0  0  0  0
 12 13  2  0  0  0  0
 12 14  1  0  0  0  0
 13 15  1  0  0  0  0
 14 16  2  0  0  0  0
 15 17  2  0  0  0  0
 15 50  1  0  0  0  0
 16 17  1  0  0  0  0
 16 51  1  0  0  0  0
 17 52  1  0  0  0  0
 18 19  1  0  0  0  0
 18 20  2  0  0  0  0
 19 21  1  0  0  0  0
 20 22  1  0  0  0  0
 21 22  2  0  0  0  0
 21 23  1  0  0  0  0
 22 24  1  0  0  0  0
 23 25  2  0  0  0  0
 24 26  2  0  0  0  0
 24 53  1  0  0  0  0
 25 26  1  0  0  0  0
 25 54  1  0  0  0  0
 27 28  1  0  0  0  0
 27 29  1  0  0  0  0
 27 55  1  0  0  0  0
 28 29  1  0  0  0  0
 28 56  1  0  0  0  0
 28 57  1  0  0  0  0
 29 58  1  0  0  0  0
 29 59  1  0  0  0  0
 30 31  1  0  0  0  0
 30 32  1  0  0  0  0
 31 33  1  0  0  0  0
 31 60  1  1  0  0  0
 31  7  1  0  0  0  0
 32 34  1  0  0  0  0
 32 61  1  0  0  0  0
 32 62  1  0  0  0  0
 33 35  1  0  0  0  0
 33 63  1  0  0  0  0
 33 64  1  0  0  0  0
 34 35  1  0  0  0  0
 34 65  1  1  0  0  0
 34  8  1  0  0  0  0
 35 66  1  0  0  0  0
 35 67  1  0  0  0  0
M  END
>  <Mol_ID>
6769

>  <Formula>
C27H32N6O2

>  <MolWeight>
472.58198

>  <Cat>
S9644

>  <Name>
BMS-P5

>  <Target>
PAD

>  <Form>
Free base

>  <CAS>
1550371-22-6

>  <URL>
http://www.selleckchem.com/products/bms-p5.html

$$$$
