bms-345541.cdx
 OpenBabel08302520413D

 36 38  0  0  0  0  0  0  0  0999 V2000
   -2.7106    1.4003   -0.0098 C   0  0  0  0  0  0  0  0  0  0  0  0
   -3.2301    0.1030   -0.0280 C   0  0  0  0  0  0  0  0  0  0  0  0
   -2.3723   -0.9964   -0.0464 C   0  0  0  0  0  0  0  0  0  0  0  0
   -0.9866   -0.8238   -0.0408 C   0  0  0  0  0  0  0  0  0  0  0  0
   -0.4611    0.4828   -0.0086 C   0  0  0  0  0  0  0  0  0  0  0  0
   -1.3187    1.5883   -0.0001 C   0  0  0  0  0  0  0  0  0  0  0  0
   -0.1949   -1.9905   -0.0433 N   0  0  0  0  0  0  0  0  0  0  0  0
    1.1046   -1.8972    0.0346 C   0  0  0  0  0  0  0  0  0  0  0  0
    1.7081   -0.5795    0.0624 C   0  0  0  0  0  0  0  0  0  0  0  0
    0.9492    0.5705    0.0293 N   0  0  0  0  0  0  0  0  0  0  0  0
    3.0038   -0.3376    0.0822 N   0  0  0  0  0  0  0  0  0  0  0  0
    3.0939    1.0263    0.0762 C   0  0  0  0  0  0  0  0  0  0  0  0
    1.8469    1.6276    0.0403 C   0  0  0  0  0  0  0  0  0  0  0  0
   -3.6322    2.5871    0.0035 C   0  0  0  0  0  0  0  0  0  0  0  0
    1.5315    3.0735    0.0102 C   0  0  0  0  0  0  0  0  0  0  0  0
    1.8780   -3.0384    0.0932 N   0  0  0  0  0  0  0  0  0  0  0  0
    1.4860   -4.2874   -0.5406 C   0  0  0  0  0  0  0  0  0  0  0  0
    1.9558   -4.3352   -2.0060 C   0  0  0  0  0  0  0  0  0  0  0  0
    3.4132   -4.2002   -2.1377 N   0  0  0  0  0  0  0  0  0  0  0  0
   -4.3049   -0.0663   -0.0230 H   0  0  0  0  0  0  0  0  0  0  0  0
   -2.7830   -2.0031   -0.0557 H   0  0  0  0  0  0  0  0  0  0  0  0
   -0.9505    2.6052    0.0244 H   0  0  0  0  0  0  0  0  0  0  0  0
    4.0579    1.5211    0.0930 H   0  0  0  0  0  0  0  0  0  0  0  0
   -3.4583    3.1916    0.8996 H   0  0  0  0  0  0  0  0  0  0  0  0
   -3.4672    3.2019   -0.8865 H   0  0  0  0  0  0  0  0  0  0  0  0
   -4.6832    2.2786    0.0076 H   0  0  0  0  0  0  0  0  0  0  0  0
    0.9731    3.3377   -0.8927 H   0  0  0  0  0  0  0  0  0  0  0  0
    0.9655    3.3734    0.8971 H   0  0  0  0  0  0  0  0  0  0  0  0
    2.4517    3.6690    0.0018 H   0  0  0  0  0  0  0  0  0  0  0  0
    2.8786   -2.8701    0.1154 H   0  0  0  0  0  0  0  0  0  0  0  0
    1.9375   -5.1158    0.0156 H   0  0  0  0  0  0  0  0  0  0  0  0
    0.4006   -4.4366   -0.4990 H   0  0  0  0  0  0  0  0  0  0  0  0
    1.6516   -5.2914   -2.4474 H   0  0  0  0  0  0  0  0  0  0  0  0
    1.4757   -3.5376   -2.5832 H   0  0  0  0  0  0  0  0  0  0  0  0
    3.6598   -4.2384   -3.1270 H   0  0  0  0  0  0  0  0  0  0  0  0
    3.6863   -3.2673   -1.8267 H   0  0  0  0  0  0  0  0  0  0  0  0
  1  2  2  0  0  0  0
  1 14  1  0  0  0  0
  2  3  1  0  0  0  0
  2 20  1  0  0  0  0
  3  4  2  0  0  0  0
  3 21  1  0  0  0  0
  4  5  1  0  0  0  0
  4  7  1  0  0  0  0
  5  6  2  0  0  0  0
  6  1  1  0  0  0  0
  6 22  1  0  0  0  0
  7  8  2  0  0  0  0
  8  9  1  0  0  0  0
  8 16  1  0  0  0  0
  9 10  1  0  0  0  0
  9 11  2  0  0  0  0
 10  5  1  0  0  0  0
 11 12  1  0  0  0  0
 12 13  2  0  0  0  0
 12 23  1  0  0  0  0
 13 10  1  0  0  0  0
 13 15  1  0  0  0  0
 14 24  1  0  0  0  0
 14 25  1  0  0  0  0
 14 26  1  0  0  0  0
 15 27  1  0  0  0  0
 15 28  1  0  0  0  0
 15 29  1  0  0  0  0
 16 17  1  0  0  0  0
 16 30  1  0  0  0  0
 17 18  1  0  0  0  0
 17 31  1  0  0  0  0
 17 32  1  0  0  0  0
 18 19  1  0  0  0  0
 18 33  1  0  0  0  0
 18 34  1  0  0  0  0
 19 35  1  0  0  0  0
 19 36  1  0  0  0  0
M  END
>  <Mol_ID>
3892

>  <Formula>
C14H17N5

>  <MolWeight>
255.31828

>  <Cat>
S8044

>  <Name>
BMS-345541

>  <Synonyms>
N/A

>  <Target>
I¦ÊB/IKK

>  <Form>
free base

>  <CAS>
445430-58-0

>  <URL>
http://selleckchem.com/products/bms-345541.html

$$$$
