BMS-986122
 OpenBabel08302521323D

 39 41  0  0  0  0  0  0  0  0999 V2000
    1.1443    0.1256   -0.4539 S   0  0  0  0  0  0  0  0  0  0  0  0
   -0.1056   -1.1833   -0.3402 C   0  0  3  0  0  0  0  0  0  0  0  0
   -1.1692   -0.6345    0.5070 N   0  0  0  0  0  0  0  0  0  0  0  0
   -1.3947    0.7825    0.1262 C   0  0  0  0  0  0  0  0  0  0  0  0
   -0.0606    1.4469   -0.2040 C   0  0  0  0  0  0  0  0  0  0  0  0
   -1.4318   -1.0831    2.1001 S   0  0  0  0  0  0  0  0  0  0  0  0
   -2.5698   -0.3293    2.5846 O   0  0  0  0  0  0  0  0  0  0  0  0
   -1.4357   -2.5257    2.1836 O   0  0  0  0  0  0  0  0  0  0  0  0
   -0.0166   -0.4930    3.0168 C   0  0  0  0  0  0  0  0  0  0  0  0
    0.0752    0.8558    3.3774 C   0  0  0  0  0  0  0  0  0  0  0  0
    1.1732    1.2977    4.1182 C   0  0  0  0  0  0  0  0  0  0  0  0
    2.1606    0.3970    4.5201 C   0  0  0  0  0  0  0  0  0  0  0  0
    2.0391   -0.9547    4.2059 C   0  0  0  0  0  0  0  0  0  0  0  0
    0.9401   -1.4045    3.4743 C   0  0  0  0  0  0  0  0  0  0  0  0
    0.4188   -2.5921   -0.1756 C   0  0  0  0  0  0  0  0  0  0  0  0
    1.5852   -2.9032    0.5374 C   0  0  0  0  0  0  0  0  0  0  0  0
    2.0797   -4.2180    0.6240 C   0  0  0  0  0  0  0  0  0  0  0  0
    1.4365   -5.2535   -0.0599 C   0  0  0  0  0  0  0  0  0  0  0  0
    0.2555   -4.9576   -0.7526 C   0  0  0  0  0  0  0  0  0  0  0  0
   -0.2532   -3.6539   -0.8015 C   0  0  0  0  0  0  0  0  0  0  0  0
    1.7640   -6.5818   -0.0951 O   0  0  0  0  0  0  0  0  0  0  0  0
    3.1422   -6.9123   -0.2155 C   0  0  0  0  0  0  0  0  0  0  0  0
    3.5696   -4.4411    1.7839 Br  0  0  0  0  0  0  0  0  0  0  0  0
   -0.5299   -1.1851   -1.3558 H   0  0  0  0  0  0  0  0  0  0  0  0
   -2.0437    0.7871   -0.7595 H   0  0  0  0  0  0  0  0  0  0  0  0
   -1.9320    1.3584    0.8865 H   0  0  0  0  0  0  0  0  0  0  0  0
   -0.1435    2.0455   -1.1162 H   0  0  0  0  0  0  0  0  0  0  0  0
    0.2701    2.1051    0.6039 H   0  0  0  0  0  0  0  0  0  0  0  0
   -0.7044    1.5625    3.1051 H   0  0  0  0  0  0  0  0  0  0  0  0
    1.2544    2.3472    4.4005 H   0  0  0  0  0  0  0  0  0  0  0  0
    3.0137    0.7434    5.0974 H   0  0  0  0  0  0  0  0  0  0  0  0
    2.7935   -1.6641    4.5405 H   0  0  0  0  0  0  0  0  0  0  0  0
    0.8348   -2.4686    3.2706 H   0  0  0  0  0  0  0  0  0  0  0  0
    2.1281   -2.1103    1.0472 H   0  0  0  0  0  0  0  0  0  0  0  0
   -0.2785   -5.7553   -1.2660 H   0  0  0  0  0  0  0  0  0  0  0  0
   -1.1772   -3.4753   -1.3502 H   0  0  0  0  0  0  0  0  0  0  0  0
    3.7207   -6.1573   -0.7590 H   0  0  0  0  0  0  0  0  0  0  0  0
    3.5637   -7.1065    0.7744 H   0  0  0  0  0  0  0  0  0  0  0  0
    3.2169   -7.8493   -0.7771 H   0  0  0  0  0  0  0  0  0  0  0  0
  1  2  1  0  0  0  0
  1  5  1  0  0  0  0
  2  3  1  0  0  0  0
  2 15  1  0  0  0  0
  2 24  1  0  0  0  0
  3  4  1  0  0  0  0
  3  6  1  0  0  0  0
  4  5  1  0  0  0  0
  4 25  1  0  0  0  0
  4 26  1  0  0  0  0
  5 27  1  0  0  0  0
  5 28  1  0  0  0  0
  6  7  2  0  0  0  0
  6  8  2  0  0  0  0
  6  9  1  0  0  0  0
  9 10  2  0  0  0  0
  9 14  1  0  0  0  0
 10 11  1  0  0  0  0
 10 29  1  0  0  0  0
 11 12  2  0  0  0  0
 11 30  1  0  0  0  0
 12 13  1  0  0  0  0
 12 31  1  0  0  0  0
 13 14  2  0  0  0  0
 13 32  1  0  0  0  0
 14 33  1  0  0  0  0
 15 16  2  0  0  0  0
 15 20  1  0  0  0  0
 16 17  1  0  0  0  0
 16 34  1  0  0  0  0
 17 18  2  0  0  0  0
 17 23  1  0  0  0  0
 18 19  1  0  0  0  0
 18 21  1  0  0  0  0
 19 20  2  0  0  0  0
 19 35  1  0  0  0  0
 20 36  1  0  0  0  0
 21 22  1  0  0  0  0
 22 37  1  0  0  0  0
 22 38  1  0  0  0  0
 22 39  1  0  0  0  0
M  END
>  <Mol_ID>
6283

>  <Formula>
C16H15BrClNO3S2

>  <MolWeight>
448.7822

>  <Cat>
E0472

>  <Name>
BMS-986122

>  <Target>
Opioid Receptor

>  <Form>
free base

>  <CAS>
313669-88-4

>  <URL>
http://www.selleckchem.com/products/bms-986122.html

$$$$
