BMS-813160
 OpenBabel08302521243D

 75 78  0  0  0  0  0  0  0  0999 V2000
   -0.9644   -0.5887   -1.9949 O   0  0  0  0  0  0  0  0  0  0  0  0
    2.2583   -1.6513    3.5977 O   0  0  0  0  0  0  0  0  0  0  0  0
   -0.0964   -0.9730    0.1582 N   0  0  0  0  0  0  0  0  0  0  0  0
    3.6719   -3.7986   -0.7064 N   0  0  0  0  0  0  0  0  0  0  0  0
    2.4234   -1.8516    1.3092 N   0  0  0  0  0  0  0  0  0  0  0  0
   -2.2885    1.6653   -0.8376 N   0  0  0  0  0  0  0  0  0  0  0  0
   -3.7626    3.3889   -1.5446 N   0  0  0  0  0  0  0  0  0  0  0  0
   -1.7545    3.9336   -0.5129 N   0  0  0  0  0  0  0  0  0  0  0  0
   -4.6962    2.5223   -2.0004 N   0  0  0  0  0  0  0  0  0  0  0  0
   -3.2484    5.6676   -1.2192 N   0  0  0  0  0  0  0  0  0  0  0  0
    0.3173   -2.3947    0.0472 C   0  0  2  0  0  0  0  0  0  0  0  0
    1.3410   -2.8368    1.1522 C   0  0  1  0  0  0  0  0  0  0  0  0
    2.4252   -4.5366   -0.5100 C   0  0  1  0  0  0  0  0  0  0  0  0
    0.8658   -2.7308   -1.3513 C   0  0  0  0  0  0  0  0  0  0  0  0
    1.9011   -4.2620    0.9231 C   0  0  0  0  0  0  0  0  0  0  0  0
    1.2790   -4.1925   -1.4589 C   0  0  0  0  0  0  0  0  0  0  0  0
   -0.2636   -0.3115    1.4397 C   0  0  0  0  0  0  0  0  0  0  0  0
   -1.0672    1.1311   -0.2782 C   0  0  1  0  0  0  0  0  0  0  0  0
   -1.2442    0.8163    1.1954 C   0  0  0  0  0  0  0  0  0  0  0  0
   -0.7284   -0.2371   -0.8497 C   0  0  0  0  0  0  0  0  0  0  0  0
    4.4677   -3.8756   -1.9376 C   0  0  0  0  0  0  0  0  0  0  0  0
    3.7865   -3.3387   -3.2078 C   0  0  0  0  0  0  0  0  0  0  0  0
    5.6893   -2.9628   -1.6817 C   0  0  0  0  0  0  0  0  0  0  0  0
    4.9658   -5.3050   -2.1849 C   0  0  0  0  0  0  0  0  0  0  0  0
    2.7608   -1.3128    2.5330 C   0  0  0  0  0  0  0  0  0  0  0  0
   -2.5552    3.0001   -0.9462 C   0  0  0  0  0  0  0  0  0  0  0  0
    3.7605   -0.1924    2.4267 C   0  0  0  0  0  0  0  0  0  0  0  0
   -4.0963    4.7055   -1.6607 C   0  0  0  0  0  0  0  0  0  0  0  0
   -6.9976    2.7766   -2.9565 C   0  0  0  0  0  0  0  0  0  0  0  0
   -5.6872    3.3305   -2.4201 C   0  0  0  0  0  0  0  0  0  0  0  0
   -5.3451    4.7061   -2.2379 C   0  0  0  0  0  0  0  0  0  0  0  0
   -2.1385    5.2493   -0.6779 C   0  0  0  0  0  0  0  0  0  0  0  0
   -6.9902    1.2347   -3.0359 C   0  0  0  0  0  0  0  0  0  0  0  0
   -8.1512    3.2021   -2.0249 C   0  0  0  0  0  0  0  0  0  0  0  0
   -7.2783    3.3210   -4.3716 C   0  0  0  0  0  0  0  0  0  0  0  0
    3.5950   -2.8450   -0.3765 H   0  0  0  0  0  0  0  0  0  0  0  0
    2.7380   -1.3590    0.4842 H   0  0  0  0  0  0  0  0  0  0  0  0
   -2.9359    1.0128   -1.2816 H   0  0  0  0  0  0  0  0  0  0  0  0
   -0.6022   -2.9779    0.1894 H   0  0  0  0  0  0  0  0  0  0  0  0
    0.7971   -2.8676    2.1048 H   0  0  0  0  0  0  0  0  0  0  0  0
    2.6327   -5.6107   -0.5818 H   0  0  0  0  0  0  0  0  0  0  0  0
    0.1095   -2.5690   -2.1223 H   0  0  0  0  0  0  0  0  0  0  0  0
    1.6966   -2.0578   -1.5865 H   0  0  0  0  0  0  0  0  0  0  0  0
    2.6793   -4.4904    1.6625 H   0  0  0  0  0  0  0  0  0  0  0  0
    1.0843   -4.9723    1.1190 H   0  0  0  0  0  0  0  0  0  0  0  0
    1.5127   -4.4507   -2.4909 H   0  0  0  0  0  0  0  0  0  0  0  0
    0.4089   -4.8180   -1.2153 H   0  0  0  0  0  0  0  0  0  0  0  0
    0.6974    0.0948    1.7573 H   0  0  0  0  0  0  0  0  0  0  0  0
   -0.6487   -1.0094    2.1884 H   0  0  0  0  0  0  0  0  0  0  0  0
   -0.2026    1.7816   -0.4604 H   0  0  0  0  0  0  0  0  0  0  0  0
   -1.0480    1.6819    1.8358 H   0  0  0  0  0  0  0  0  0  0  0  0
   -2.2654    0.4751    1.4057 H   0  0  0  0  0  0  0  0  0  0  0  0
    3.2831   -2.3846   -3.0273 H   0  0  0  0  0  0  0  0  0  0  0  0
    4.5221   -3.1548   -4.0000 H   0  0  0  0  0  0  0  0  0  0  0  0
    3.0718   -4.0466   -3.6318 H   0  0  0  0  0  0  0  0  0  0  0  0
    6.2746   -3.2991   -0.8186 H   0  0  0  0  0  0  0  0  0  0  0  0
    6.3597   -2.9438   -2.5488 H   0  0  0  0  0  0  0  0  0  0  0  0
    5.3769   -1.9274   -1.4915 H   0  0  0  0  0  0  0  0  0  0  0  0
    5.5624   -5.6718   -1.3419 H   0  0  0  0  0  0  0  0  0  0  0  0
    4.1370   -6.0031   -2.3428 H   0  0  0  0  0  0  0  0  0  0  0  0
    5.6004   -5.3464   -3.0781 H   0  0  0  0  0  0  0  0  0  0  0  0
    4.7018   -0.5684    2.0193 H   0  0  0  0  0  0  0  0  0  0  0  0
    3.3635    0.5950    1.7781 H   0  0  0  0  0  0  0  0  0  0  0  0
    3.9432    0.2348    3.4167 H   0  0  0  0  0  0  0  0  0  0  0  0
   -5.9397    5.5755   -2.4669 H   0  0  0  0  0  0  0  0  0  0  0  0
   -1.4274    6.0078   -0.3070 H   0  0  0  0  0  0  0  0  0  0  0  0
   -6.8195    0.7825   -2.0519 H   0  0  0  0  0  0  0  0  0  0  0  0
   -7.9465    0.8522   -3.4110 H   0  0  0  0  0  0  0  0  0  0  0  0
   -6.2036    0.8731   -3.7089 H   0  0  0  0  0  0  0  0  0  0  0  0
   -8.2331    4.2934   -1.9584 H   0  0  0  0  0  0  0  0  0  0  0  0
   -9.1147    2.8216   -2.3829 H   0  0  0  0  0  0  0  0  0  0  0  0
   -7.9970    2.8235   -1.0074 H   0  0  0  0  0  0  0  0  0  0  0  0
   -7.3344    4.4153   -4.3825 H   0  0  0  0  0  0  0  0  0  0  0  0
   -6.4921    3.0242   -5.0753 H   0  0  0  0  0  0  0  0  0  0  0  0
   -8.2321    2.9415   -4.7580 H   0  0  0  0  0  0  0  0  0  0  0  0
  1 20  2  0  0  0  0
  2 25  2  0  0  0  0
  3 17  1  0  0  0  0
  3 20  1  0  0  0  0
  4 21  1  0  0  0  0
  4 36  1  0  0  0  0
  5 25  1  0  0  0  0
  5 37  1  0  0  0  0
  6 26  1  0  0  0  0
  6 38  1  0  0  0  0
  7  9  1  0  0  0  0
  7 26  1  0  0  0  0
  7 28  1  0  0  0  0
  8 26  2  0  0  0  0
  8 32  1  0  0  0  0
  9 30  2  0  0  0  0
 10 28  1  0  0  0  0
 10 32  2  0  0  0  0
 11  3  1  0  0  0  0
 11 12  1  0  0  0  0
 11 14  1  0  0  0  0
 11 39  1  1  0  0  0
 12  5  1  0  0  0  0
 12 15  1  0  0  0  0
 12 40  1  1  0  0  0
 13  4  1  0  0  0  0
 13 15  1  0  0  0  0
 13 16  1  0  0  0  0
 13 41  1  6  0  0  0
 14 16  1  0  0  0  0
 14 42  1  0  0  0  0
 14 43  1  0  0  0  0
 15 44  1  0  0  0  0
 15 45  1  0  0  0  0
 16 46  1  0  0  0  0
 16 47  1  0  0  0  0
 17 19  1  0  0  0  0
 17 48  1  0  0  0  0
 17 49  1  0  0  0  0
 18 19  1  0  0  0  0
 18 20  1  0  0  0  0
 18 50  1  6  0  0  0
 18  6  1  0  0  0  0
 19 51  1  0  0  0  0
 19 52  1  0  0  0  0
 21 22  1  0  0  0  0
 21 23  1  0  0  0  0
 21 24  1  0  0  0  0
 22 53  1  0  0  0  0
 22 54  1  0  0  0  0
 22 55  1  0  0  0  0
 23 56  1  0  0  0  0
 23 57  1  0  0  0  0
 23 58  1  0  0  0  0
 24 59  1  0  0  0  0
 24 60  1  0  0  0  0
 24 61  1  0  0  0  0
 25 27  1  0  0  0  0
 27 62  1  0  0  0  0
 27 63  1  0  0  0  0
 27 64  1  0  0  0  0
 28 31  2  0  0  0  0
 29 30  1  0  0  0  0
 29 33  1  0  0  0  0
 29 34  1  0  0  0  0
 29 35  1  0  0  0  0
 30 31  1  0  0  0  0
 31 65  1  0  0  0  0
 32 66  1  0  0  0  0
 33 67  1  0  0  0  0
 33 68  1  0  0  0  0
 33 69  1  0  0  0  0
 34 70  1  0  0  0  0
 34 71  1  0  0  0  0
 34 72  1  0  0  0  0
 35 73  1  0  0  0  0
 35 74  1  0  0  0  0
 35 75  1  0  0  0  0
M  END
>  <Mol_ID>
5036

>  <Formula>
C25H40N8O2

>  <MolWeight>
484.6375

>  <Cat>
S0085

>  <Name>
BMS-813160

>  <Synonyms>
N/A

>  <Target>
CCR

>  <Form>
free base

>  <CAS>
1286279-29-5

>  <URL>
http://www.selleckchem.com/products/bms813160.html

$$$$
