BMS265246.cdx
 OpenBabel08302521303D

 42 44  0  0  0  0  0  0  0  0999 V2000
    0.9038   -0.1651   -0.1719 C   0  0  0  0  0  0  0  0  0  0  0  0
    0.4803    0.4031    0.8357 O   0  0  0  0  0  0  0  0  0  0  0  0
   -0.0831   -0.7481   -1.1285 C   0  0  0  0  0  0  0  0  0  0  0  0
    0.1555   -0.7445   -2.5111 C   0  0  0  0  0  0  0  0  0  0  0  0
   -0.7064   -1.3956   -3.3848 C   0  0  0  0  0  0  0  0  0  0  0  0
   -1.8540   -1.9891   -2.8926 C   0  0  0  0  0  0  0  0  0  0  0  0
   -2.1526   -1.9452   -1.5297 C   0  0  0  0  0  0  0  0  0  0  0  0
   -1.2559   -1.3219   -0.6540 C   0  0  0  0  0  0  0  0  0  0  0  0
   -2.8122   -2.6980   -3.8354 C   0  0  0  0  0  0  0  0  0  0  0  0
   -1.5408   -1.3640    0.6599 F   0  0  0  0  0  0  0  0  0  0  0  0
    1.2500   -0.1570   -3.0281 F   0  0  0  0  0  0  0  0  0  0  0  0
    5.0000   -0.6900   -0.8842 C   0  0  0  0  0  0  0  0  0  0  0  0
    4.6117    0.1185    0.1651 C   0  0  0  0  0  0  0  0  0  0  0  0
    3.2844    0.5679    0.2066 C   0  0  0  0  0  0  0  0  0  0  0  0
    2.3687   -0.2814   -0.4230 C   0  0  0  0  0  0  0  0  0  0  0  0
    2.8959   -1.3022   -1.2332 C   0  0  0  0  0  0  0  0  0  0  0  0
    4.1903   -1.4212   -1.6625 N   0  0  0  0  0  0  0  0  0  0  0  0
    6.7740   -0.5615    0.4684 N   0  0  0  0  0  0  0  0  0  0  0  0
    6.3658   -0.6387   -0.8222 N   0  0  0  0  0  0  0  0  0  0  0  0
    5.6458   -0.1730    1.0844 C   0  0  0  0  0  0  0  0  0  0  0  0
    2.8713    1.6587    0.9335 O   0  0  0  0  0  0  0  0  0  0  0  0
    3.7637    2.7882    0.9134 C   0  0  0  0  0  0  0  0  0  0  0  0
    3.0965    3.9570    1.6470 C   0  0  0  0  0  0  0  0  0  0  0  0
    2.6482    3.5502    3.0523 C   0  0  0  0  0  0  0  0  0  0  0  0
    1.9622    4.6858    3.7915 C   0  0  0  0  0  0  0  0  0  0  0  0
   -0.4435   -1.4279   -4.4377 H   0  0  0  0  0  0  0  0  0  0  0  0
   -3.0493   -2.3880   -1.1271 H   0  0  0  0  0  0  0  0  0  0  0  0
   -2.8974   -3.7546   -3.5632 H   0  0  0  0  0  0  0  0  0  0  0  0
   -3.7993   -2.2274   -3.7840 H   0  0  0  0  0  0  0  0  0  0  0  0
   -2.4649   -2.6429   -4.8719 H   0  0  0  0  0  0  0  0  0  0  0  0
    2.2695   -2.1181   -1.5841 H   0  0  0  0  0  0  0  0  0  0  0  0
    7.0504   -0.6848   -1.5691 H   0  0  0  0  0  0  0  0  0  0  0  0
    5.5671   -0.2251    2.1635 H   0  0  0  0  0  0  0  0  0  0  0  0
    4.6999    2.5384    1.4236 H   0  0  0  0  0  0  0  0  0  0  0  0
    3.9902    3.0971   -0.1162 H   0  0  0  0  0  0  0  0  0  0  0  0
    3.7945    4.8018    1.7037 H   0  0  0  0  0  0  0  0  0  0  0  0
    2.2230    4.2955    1.0763 H   0  0  0  0  0  0  0  0  0  0  0  0
    1.9510    2.7069    2.9945 H   0  0  0  0  0  0  0  0  0  0  0  0
    3.5173    3.2134    3.6290 H   0  0  0  0  0  0  0  0  0  0  0  0
    1.0256    4.9629    3.2976 H   0  0  0  0  0  0  0  0  0  0  0  0
    1.7250    4.3744    4.8138 H   0  0  0  0  0  0  0  0  0  0  0  0
    2.6024    5.5715    3.8441 H   0  0  0  0  0  0  0  0  0  0  0  0
  1  2  2  0  0  0  0
  1  3  1  0  0  0  0
  1 15  1  0  0  0  0
  3  4  2  0  0  0  0
  3  8  1  0  0  0  0
  4  5  1  0  0  0  0
  4 11  1  0  0  0  0
  5  6  2  0  0  0  0
  5 26  1  0  0  0  0
  6  7  1  0  0  0  0
  6  9  1  0  0  0  0
  7  8  2  0  0  0  0
  7 27  1  0  0  0  0
  8 10  1  0  0  0  0
  9 28  1  0  0  0  0
  9 29  1  0  0  0  0
  9 30  1  0  0  0  0
 12 13  1  0  0  0  0
 12 17  2  0  0  0  0
 12 19  1  0  0  0  0
 13 14  2  0  0  0  0
 13 20  1  0  0  0  0
 14 15  1  0  0  0  0
 14 21  1  0  0  0  0
 15 16  2  0  0  0  0
 16 17  1  0  0  0  0
 16 31  1  0  0  0  0
 18 19  1  0  0  0  0
 18 20  2  0  0  0  0
 19 32  1  0  0  0  0
 20 33  1  0  0  0  0
 21 22  1  0  0  0  0
 22 23  1  0  0  0  0
 22 34  1  0  0  0  0
 22 35  1  0  0  0  0
 23 24  1  0  0  0  0
 23 36  1  0  0  0  0
 23 37  1  0  0  0  0
 24 25  1  0  0  0  0
 24 38  1  0  0  0  0
 24 39  1  0  0  0  0
 25 40  1  0  0  0  0
 25 41  1  0  0  0  0
 25 42  1  0  0  0  0
M  END
>  <Mol_ID>
549

>  <Formula>
C18H17F2N3O2

>  <MolWeight>
345.3432864

>  <Cat>
S2014

>  <Name>
BMS-265246

>  <Synonyms>
N/A

>  <Target>
CDK

>  <Form>
free base

>  <CAS>
582315-72-8

>  <URL>
http://selleckchem.com/products/bms-265246.html

$$$$
