BMS707035.cdx
 OpenBabel08302519553D

 47 49  0  0  0  0  0  0  0  0999 V2000
    0.8291   -1.0179    0.6793 C   0  0  0  0  0  0  0  0  0  0  0  0
    0.4430    0.2769    0.3522 C   0  0  0  0  0  0  0  0  0  0  0  0
   -0.9000    0.5509    0.0873 C   0  0  0  0  0  0  0  0  0  0  0  0
   -1.8539   -0.4772    0.1392 C   0  0  0  0  0  0  0  0  0  0  0  0
   -1.4462   -1.7712    0.5043 C   0  0  0  0  0  0  0  0  0  0  0  0
   -0.1044   -2.0425    0.7663 C   0  0  0  0  0  0  0  0  0  0  0  0
    2.1210   -1.2808    0.9157 F   0  0  0  0  0  0  0  0  0  0  0  0
   -3.3062   -0.2049   -0.1576 C   0  0  0  0  0  0  0  0  0  0  0  0
   -3.7843   -0.9946   -1.2797 N   0  0  0  0  0  0  0  0  0  0  0  0
   -4.8251   -1.8668   -1.1258 C   0  0  0  0  0  0  0  0  0  0  0  0
   -5.3470   -2.5768   -2.3626 C   0  0  0  0  0  0  0  0  0  0  0  0
   -5.3621   -2.0429   -0.0276 O   0  0  0  0  0  0  0  0  0  0  0  0
   -4.5580   -2.7698   -3.4916 N   0  0  0  0  0  0  0  0  0  0  0  0
   -5.0297   -3.5593   -4.4160 C   0  0  0  0  0  0  0  0  0  0  0  0
   -6.3005   -4.1072   -4.3725 N   0  0  0  0  0  0  0  0  0  0  0  0
   -7.1624   -3.8081   -3.3384 C   0  0  0  0  0  0  0  0  0  0  0  0
   -6.6164   -3.0095   -2.2263 C   0  0  0  0  0  0  0  0  0  0  0  0
   -7.4527   -2.7940   -1.1415 O   0  0  0  0  0  0  0  0  0  0  0  0
   -8.3309   -4.1971   -3.3036 O   0  0  0  0  0  0  0  0  0  0  0  0
   -6.8903   -4.9656   -5.3856 C   0  0  0  0  0  0  0  0  0  0  0  0
   -4.2217   -3.8403   -5.5599 N   0  0  0  0  0  0  0  0  0  0  0  0
   -3.7655   -5.4166   -5.9925 S   0  0  0  0  0  0  0  0  0  0  0  0
   -2.0159   -5.2204   -6.1403 C   0  0  0  0  0  0  0  0  0  0  0  0
   -1.6989   -4.1123   -7.1357 C   0  0  0  0  0  0  0  0  0  0  0  0
   -2.3052   -2.7705   -6.7122 C   0  0  0  0  0  0  0  0  0  0  0  0
   -3.8254   -2.8163   -6.5567 C   0  0  0  0  0  0  0  0  0  0  0  0
   -4.0375   -6.3008   -4.8777 O   0  0  0  0  0  0  0  0  0  0  0  0
   -4.2817   -5.6983   -7.3147 O   0  0  0  0  0  0  0  0  0  0  0  0
    1.1903    1.0625    0.3056 H   0  0  0  0  0  0  0  0  0  0  0  0
   -1.1946    1.5694   -0.1566 H   0  0  0  0  0  0  0  0  0  0  0  0
   -2.1801   -2.5717    0.5839 H   0  0  0  0  0  0  0  0  0  0  0  0
    0.2154   -3.0437    1.0365 H   0  0  0  0  0  0  0  0  0  0  0  0
   -3.8871   -0.3989    0.7526 H   0  0  0  0  0  0  0  0  0  0  0  0
   -3.4658    0.8494   -0.4116 H   0  0  0  0  0  0  0  0  0  0  0  0
   -3.3787   -0.8690   -2.1981 H   0  0  0  0  0  0  0  0  0  0  0  0
   -6.9153   -2.4606   -0.3898 H   0  0  0  0  0  0  0  0  0  0  0  0
   -7.2073   -5.8964   -4.9023 H   0  0  0  0  0  0  0  0  0  0  0  0
   -7.7613   -4.4737   -5.8269 H   0  0  0  0  0  0  0  0  0  0  0  0
   -6.2367   -5.2125   -6.2055 H   0  0  0  0  0  0  0  0  0  0  0  0
   -1.6208   -5.0055   -5.1464 H   0  0  0  0  0  0  0  0  0  0  0  0
   -1.6245   -6.1801   -6.4836 H   0  0  0  0  0  0  0  0  0  0  0  0
   -0.6120   -4.0147   -7.2263 H   0  0  0  0  0  0  0  0  0  0  0  0
   -2.0779   -4.3817   -8.1308 H   0  0  0  0  0  0  0  0  0  0  0  0
   -1.8515   -2.4546   -5.7653 H   0  0  0  0  0  0  0  0  0  0  0  0
   -2.0451   -2.0158   -7.4636 H   0  0  0  0  0  0  0  0  0  0  0  0
   -4.3000   -3.0560   -7.5155 H   0  0  0  0  0  0  0  0  0  0  0  0
   -4.2020   -1.8295   -6.2656 H   0  0  0  0  0  0  0  0  0  0  0  0
  1  2  2  0  0  0  0
  1  7  1  0  0  0  0
  2  3  1  0  0  0  0
  2 29  1  0  0  0  0
  3  4  2  0  0  0  0
  3 30  1  0  0  0  0
  4  5  1  0  0  0  0
  4  8  1  0  0  0  0
  5  6  2  0  0  0  0
  5 31  1  0  0  0  0
  6  1  1  0  0  0  0
  6 32  1  0  0  0  0
  8  9  1  0  0  0  0
  8 33  1  0  0  0  0
  8 34  1  0  0  0  0
  9 10  1  0  0  0  0
  9 35  1  0  0  0  0
 10 11  1  0  0  0  0
 10 12  2  0  0  0  0
 11 13  1  0  0  0  0
 13 14  2  0  0  0  0
 14 15  1  0  0  0  0
 14 21  1  0  0  0  0
 15 16  1  0  0  0  0
 15 20  1  0  0  0  0
 16 17  1  0  0  0  0
 16 19  2  0  0  0  0
 17 11  2  0  0  0  0
 17 18  1  0  0  0  0
 18 36  1  0  0  0  0
 20 37  1  0  0  0  0
 20 38  1  0  0  0  0
 20 39  1  0  0  0  0
 21 22  1  0  0  0  0
 22 23  1  0  0  0  0
 22 27  2  0  0  0  0
 22 28  2  0  0  0  0
 23 24  1  0  0  0  0
 23 40  1  0  0  0  0
 23 41  1  0  0  0  0
 24 25  1  0  0  0  0
 24 42  1  0  0  0  0
 24 43  1  0  0  0  0
 25 26  1  0  0  0  0
 25 44  1  0  0  0  0
 25 45  1  0  0  0  0
 26 21  1  0  0  0  0
 26 46  1  0  0  0  0
 26 47  1  0  0  0  0
M  END
>  <Mol_ID>
223

>  <Formula>
C17H19FN4O5S

>  <MolWeight>
410.4199632

>  <Cat>
S1366

>  <Name>
BMS-707035

>  <Synonyms>
N/A

>  <Target>
Integrase

>  <Form>
free base

>  <CAS>
729607-74-3

>  <URL>
http://selleckchem.com/products/BMS-707035.html

$$$$
