BMS863233.cdx
 OpenBabel08302521363D

 32 35  0  0  0  0  0  0  0  0999 V2000
   -1.2527   -0.8054    0.0173 C   0  0  0  0  0  0  0  0  0  0  0  0
   -1.0949    0.5827    0.0225 C   0  0  0  0  0  0  0  0  0  0  0  0
    0.2935    0.7799    0.0255 C   0  0  0  0  0  0  0  0  0  0  0  0
    0.8944   -0.4461    0.0358 C   0  0  0  0  0  0  0  0  0  0  0  0
   -0.0338   -1.4387    0.0285 O   0  0  0  0  0  0  0  0  0  0  0  0
   -2.4947   -1.4361    0.0009 C   0  0  0  0  0  0  0  0  0  0  0  0
   -3.6212   -0.6028   -0.0053 C   0  0  0  0  0  0  0  0  0  0  0  0
   -3.4973    0.7899    0.0066 C   0  0  0  0  0  0  0  0  0  0  0  0
   -2.2370    1.4005    0.0197 C   0  0  0  0  0  0  0  0  0  0  0  0
    1.0004    1.9842    0.0091 N   0  0  0  0  0  0  0  0  0  0  0  0
    2.2930    1.8220    0.0032 C   0  0  0  0  0  0  0  0  0  0  0  0
    2.9537    0.6012    0.0491 N   0  0  0  0  0  0  0  0  0  0  0  0
    2.3100   -0.6226    0.0449 C   0  0  0  0  0  0  0  0  0  0  0  0
    2.9243   -1.6838    0.0371 O   0  0  0  0  0  0  0  0  0  0  0  0
    3.2103    3.0406   -0.0010 C   0  0  1  0  0  0  0  0  0  0  0  0
    4.4807    2.7618   -0.7174 N   0  0  0  0  0  0  0  0  0  0  0  0
    5.0222    4.0976   -1.0441 C   0  0  0  0  0  0  0  0  0  0  0  0
    3.8568    5.0806   -1.0043 C   0  0  0  0  0  0  0  0  0  0  0  0
    2.6357    4.2171   -0.7671 C   0  0  0  0  0  0  0  0  0  0  0  0
   -2.5796   -2.5159   -0.0079 H   0  0  0  0  0  0  0  0  0  0  0  0
   -4.6134   -1.0493   -0.0192 H   0  0  0  0  0  0  0  0  0  0  0  0
   -4.3901    1.4114    0.0041 H   0  0  0  0  0  0  0  0  0  0  0  0
   -2.1396    2.4819    0.0285 H   0  0  0  0  0  0  0  0  0  0  0  0
    3.9642    0.5977    0.0371 H   0  0  0  0  0  0  0  0  0  0  0  0
    3.4228    3.3103    1.0411 H   0  0  0  0  0  0  0  0  0  0  0  0
    4.2460    2.3206   -1.6109 H   0  0  0  0  0  0  0  0  0  0  0  0
    5.4874    4.0792   -2.0354 H   0  0  0  0  0  0  0  0  0  0  0  0
    5.7928    4.3839   -0.3206 H   0  0  0  0  0  0  0  0  0  0  0  0
    3.7659    5.6647   -1.9250 H   0  0  0  0  0  0  0  0  0  0  0  0
    3.9844    5.7784   -0.1683 H   0  0  0  0  0  0  0  0  0  0  0  0
    2.2086    3.8954   -1.7260 H   0  0  0  0  0  0  0  0  0  0  0  0
    1.8532    4.7458   -0.2135 H   0  0  0  0  0  0  0  0  0  0  0  0
  1  2  2  0  0  0  0
  1  6  1  0  0  0  0
  2  3  1  0  0  0  0
  3  4  2  0  0  0  0
  3 10  1  0  0  0  0
  4  5  1  0  0  0  0
  5  1  1  0  0  0  0
  6  7  2  0  0  0  0
  6 20  1  0  0  0  0
  7  8  1  0  0  0  0
  7 21  1  0  0  0  0
  8  9  2  0  0  0  0
  8 22  1  0  0  0  0
  9  2  1  0  0  0  0
  9 23  1  0  0  0  0
 10 11  2  0  0  0  0
 11 12  1  0  0  0  0
 12 24  1  0  0  0  0
 13  4  1  0  0  0  0
 13 14  2  0  0  0  0
 13 12  1  0  0  0  0
 15 11  1  0  0  0  0
 15 16  1  0  0  0  0
 15 25  1  1  0  0  0
 16 17  1  0  0  0  0
 16 26  1  0  0  0  0
 17 18  1  0  0  0  0
 17 27  1  0  0  0  0
 17 28  1  0  0  0  0
 18 19  1  0  0  0  0
 18 29  1  0  0  0  0
 18 30  1  0  0  0  0
 19 15  1  0  0  0  0
 19 31  1  0  0  0  0
 19 32  1  0  0  0  0
M  END
>  <Mol_ID>
7130

>  <Formula>
C14H13Cl2N3O2

>  <MolWeight>
326.17792

>  <Cat>
S7547

>  <Name>
XL413 (BMS-863233)

>  <Synonyms>
N/A

>  <Target>
CDK

>  <Form>
free base

>  <CAS>
1169562-71-3

>  <URL>
http://selleckchem.com/products/xl413-bms-863233.html

$$$$
