BMS806.cdx
 OpenBabel08302521413D

 52 55  0  0  0  0  0  0  0  0999 V2000
   -4.6773   -4.6308   -2.1129 C   0  0  0  0  0  0  0  0  0  0  0  0
   -5.4112   -4.1347   -1.0984 C   0  0  0  0  0  0  0  0  0  0  0  0
   -4.8222   -3.5934    0.0143 N   0  0  0  0  0  0  0  0  0  0  0  0
   -3.4628   -3.5251    0.1133 C   0  0  0  0  0  0  0  0  0  0  0  0
   -2.5961   -3.9984   -1.0124 C   0  0  0  0  0  0  0  0  0  0  0  0
   -3.2037   -4.5834   -2.0577 C   0  0  0  0  0  0  0  0  0  0  0  0
   -2.7449   -3.1033    1.1222 N   0  0  0  0  0  0  0  0  0  0  0  0
   -1.4295   -3.2375    0.6978 C   0  0  0  0  0  0  0  0  0  0  0  0
   -1.2723   -3.7301   -0.5441 C   0  0  0  0  0  0  0  0  0  0  0  0
    0.0096   -3.8642   -1.2577 C   0  0  0  0  0  0  0  0  0  0  0  0
   -2.4628   -5.2181   -3.0332 O   0  0  0  0  0  0  0  0  0  0  0  0
   -3.0303   -5.3640   -4.3290 C   0  0  0  0  0  0  0  0  0  0  0  0
    1.2738   -3.8593   -0.3993 C   0  0  0  0  0  0  0  0  0  0  0  0
    0.1206   -3.9939   -2.4675 O   0  0  0  0  0  0  0  0  0  0  0  0
    1.7108   -5.0955    0.0794 N   0  0  0  0  0  0  0  0  0  0  0  0
    1.7978   -2.7751   -0.1602 O   0  0  0  0  0  0  0  0  0  0  0  0
    2.9121   -5.2844    0.9350 C   0  0  1  0  0  0  0  0  0  0  0  0
    3.9330   -6.1725    0.1776 C   0  0  0  0  0  0  0  0  0  0  0  0
    3.2950   -7.4644   -0.1296 N   0  0  0  0  0  0  0  0  0  0  0  0
    2.1166   -7.3167   -0.9917 C   0  0  0  0  0  0  0  0  0  0  0  0
    1.0889   -6.3663   -0.3535 C   0  0  0  0  0  0  0  0  0  0  0  0
    3.5998   -4.0539    1.5199 C   0  0  0  0  0  0  0  0  0  0  0  0
    3.5838   -8.7260    0.3944 C   0  0  0  0  0  0  0  0  0  0  0  0
    2.9125   -9.7177    0.1046 O   0  0  0  0  0  0  0  0  0  0  0  0
    4.7624   -8.9496    1.2771 C   0  0  0  0  0  0  0  0  0  0  0  0
    5.1235   -8.0828    2.3117 C   0  0  0  0  0  0  0  0  0  0  0  0
    6.3246   -8.2710    2.9982 C   0  0  0  0  0  0  0  0  0  0  0  0
    7.1148   -9.3874    2.7317 C   0  0  0  0  0  0  0  0  0  0  0  0
    6.6920  -10.3316    1.7985 C   0  0  0  0  0  0  0  0  0  0  0  0
    5.5228  -10.1107    1.0675 C   0  0  0  0  0  0  0  0  0  0  0  0
   -5.1836   -5.0568   -2.9697 H   0  0  0  0  0  0  0  0  0  0  0  0
   -6.4963   -4.1387   -1.0971 H   0  0  0  0  0  0  0  0  0  0  0  0
   -5.3851   -3.2740    0.7910 H   0  0  0  0  0  0  0  0  0  0  0  0
   -0.6358   -2.9043    1.3567 H   0  0  0  0  0  0  0  0  0  0  0  0
   -3.7599   -6.1809   -4.3413 H   0  0  0  0  0  0  0  0  0  0  0  0
   -3.4839   -4.4311   -4.6787 H   0  0  0  0  0  0  0  0  0  0  0  0
   -2.2256   -5.6305   -5.0205 H   0  0  0  0  0  0  0  0  0  0  0  0
    2.5353   -5.8507    1.7996 H   0  0  0  0  0  0  0  0  0  0  0  0
    4.1980   -5.7060   -0.7795 H   0  0  0  0  0  0  0  0  0  0  0  0
    4.8676   -6.2854    0.7222 H   0  0  0  0  0  0  0  0  0  0  0  0
    2.4706   -6.8994   -1.9422 H   0  0  0  0  0  0  0  0  0  0  0  0
    1.6441   -8.2785   -1.2092 H   0  0  0  0  0  0  0  0  0  0  0  0
    0.6583   -6.8221    0.5452 H   0  0  0  0  0  0  0  0  0  0  0  0
    0.2735   -6.2097   -1.0623 H   0  0  0  0  0  0  0  0  0  0  0  0
    2.8891   -3.3697    1.9930 H   0  0  0  0  0  0  0  0  0  0  0  0
    4.3047   -4.3644    2.3028 H   0  0  0  0  0  0  0  0  0  0  0  0
    4.1744   -3.5078    0.7663 H   0  0  0  0  0  0  0  0  0  0  0  0
    4.4937   -7.2442    2.5869 H   0  0  0  0  0  0  0  0  0  0  0  0
    6.6457   -7.5420    3.7377 H   0  0  0  0  0  0  0  0  0  0  0  0
    8.0512   -9.5305    3.2653 H   0  0  0  0  0  0  0  0  0  0  0  0
    7.2772  -11.2327    1.6307 H   0  0  0  0  0  0  0  0  0  0  0  0
    5.2044  -10.8484    0.3319 H   0  0  0  0  0  0  0  0  0  0  0  0
  1  2  2  0  0  0  0
  1 31  1  0  0  0  0
  2  3  1  0  0  0  0
  2 32  1  0  0  0  0
  3  4  1  0  0  0  0
  3 33  1  0  0  0  0
  4  5  1  0  0  0  0
  4  7  2  0  0  0  0
  5  6  2  0  0  0  0
  6  1  1  0  0  0  0
  6 11  1  0  0  0  0
  7  8  1  0  0  0  0
  8  9  2  0  0  0  0
  8 34  1  0  0  0  0
  9  5  1  0  0  0  0
  9 10  1  0  0  0  0
 10 13  1  0  0  0  0
 10 14  2  0  0  0  0
 11 12  1  0  0  0  0
 12 35  1  0  0  0  0
 12 36  1  0  0  0  0
 12 37  1  0  0  0  0
 13 15  1  0  0  0  0
 13 16  2  0  0  0  0
 15 17  1  0  0  0  0
 17 18  1  0  0  0  0
 17 22  1  0  0  0  0
 17 38  1  1  0  0  0
 18 19  1  0  0  0  0
 18 39  1  0  0  0  0
 18 40  1  0  0  0  0
 19 20  1  0  0  0  0
 19 23  1  0  0  0  0
 20 21  1  0  0  0  0
 20 41  1  0  0  0  0
 20 42  1  0  0  0  0
 21 15  1  0  0  0  0
 21 43  1  0  0  0  0
 21 44  1  0  0  0  0
 22 45  1  0  0  0  0
 22 46  1  0  0  0  0
 22 47  1  0  0  0  0
 23 24  2  0  0  0  0
 23 25  1  0  0  0  0
 25 26  2  0  0  0  0
 26 27  1  0  0  0  0
 26 48  1  0  0  0  0
 27 28  2  0  0  0  0
 27 49  1  0  0  0  0
 28 29  1  0  0  0  0
 28 50  1  0  0  0  0
 29 30  2  0  0  0  0
 29 51  1  0  0  0  0
 30 25  1  0  0  0  0
 30 52  1  0  0  0  0
M  END
>  <Mol_ID>
828

>  <Formula>
C22H22N4O4

>  <MolWeight>
406.43448

>  <Cat>
S2632

>  <Name>
BMS-378806

>  <Synonyms>
BMS 806

>  <Target>
CD markers,gp120/CD4

>  <Form>
free base

>  <CAS>
357263-13-9

>  <URL>
http://selleckchem.com/products/bms806.html

$$$$
