BMY7378.cdx
 OpenBabel08302521433D

 59 62  0  0  0  0  0  0  0  0999 V2000
   -7.7011    6.8265    4.7838 C   0  0  0  0  0  0  0  0  0  0  0  0
   -7.3302    6.6946    6.1105 C   0  0  0  0  0  0  0  0  0  0  0  0
   -6.1036    6.1179    6.4228 C   0  0  0  0  0  0  0  0  0  0  0  0
   -5.2341    5.6539    5.4133 C   0  0  0  0  0  0  0  0  0  0  0  0
   -5.5926    5.7733    4.0376 C   0  0  0  0  0  0  0  0  0  0  0  0
   -6.8482    6.3696    3.7717 C   0  0  0  0  0  0  0  0  0  0  0  0
   -4.0096    5.1120    5.7193 O   0  0  0  0  0  0  0  0  0  0  0  0
   -3.6782    4.8843    7.0816 C   0  0  0  0  0  0  0  0  0  0  0  0
   -4.8418    5.2942    2.9308 N   0  0  0  0  0  0  0  0  0  0  0  0
   -4.5925    6.2808    1.8514 C   0  0  0  0  0  0  0  0  0  0  0  0
   -3.8815    5.6430    0.6221 C   0  0  0  0  0  0  0  0  0  0  0  0
   -2.6624    4.8384    0.9160 N   0  0  0  0  0  0  0  0  0  0  0  0
   -3.0779    3.8143    1.8965 C   0  0  0  0  0  0  0  0  0  0  0  0
   -3.7283    4.3572    3.1898 C   0  0  0  0  0  0  0  0  0  0  0  0
   -1.5729    5.7297    1.3871 C   0  0  0  0  0  0  0  0  0  0  0  0
   -0.1880    5.1228    1.7521 C   0  0  0  0  0  0  0  0  0  0  0  0
    0.4256    4.2148    0.7874 N   0  0  0  0  0  0  0  0  0  0  0  0
    0.3877    4.5533   -0.5465 C   0  0  0  0  0  0  0  0  0  0  0  0
    0.5204    3.3429   -1.4308 C   0  0  0  0  0  0  0  0  0  0  0  0
    1.9133    2.7392   -1.2598 C   0  0  0  0  0  0  0  0  0  0  0  0
    2.1965    2.5481    0.2429 C   0  0  0  0  0  0  0  0  0  0  0  0
    1.5869    3.5730    1.2018 C   0  0  0  0  0  0  0  0  0  0  0  0
    2.9823    3.6183   -1.9710 C   0  0  0  0  0  0  0  0  0  0  0  0
    3.7786    2.6727   -2.8632 C   0  0  0  0  0  0  0  0  0  0  0  0
    2.7439    1.6487   -3.2926 C   0  0  0  0  0  0  0  0  0  0  0  0
    1.9944    1.3745   -1.9980 C   0  0  0  0  0  0  0  0  0  0  0  0
    2.1048    3.7642    2.3006 O   0  0  0  0  0  0  0  0  0  0  0  0
    0.3322    5.6950   -0.9873 O   0  0  0  0  0  0  0  0  0  0  0  0
   -8.6601    7.2682    4.5256 H   0  0  0  0  0  0  0  0  0  0  0  0
   -7.9926    7.0373    6.9029 H   0  0  0  0  0  0  0  0  0  0  0  0
   -5.8485    6.0437    7.4751 H   0  0  0  0  0  0  0  0  0  0  0  0
   -7.2079    6.4467    2.7495 H   0  0  0  0  0  0  0  0  0  0  0  0
   -3.5665    5.8304    7.6222 H   0  0  0  0  0  0  0  0  0  0  0  0
   -4.4095    4.2299    7.5665 H   0  0  0  0  0  0  0  0  0  0  0  0
   -2.7107    4.3735    7.1073 H   0  0  0  0  0  0  0  0  0  0  0  0
   -5.5301    6.7067    1.4786 H   0  0  0  0  0  0  0  0  0  0  0  0
   -3.9940    7.1144    2.2397 H   0  0  0  0  0  0  0  0  0  0  0  0
   -4.6024    4.9839    0.1179 H   0  0  0  0  0  0  0  0  0  0  0  0
   -3.6470    6.4240   -0.1111 H   0  0  0  0  0  0  0  0  0  0  0  0
   -3.8047    3.1493    1.3982 H   0  0  0  0  0  0  0  0  0  0  0  0
   -2.2324    3.1706    2.1517 H   0  0  0  0  0  0  0  0  0  0  0  0
   -2.9316    4.8437    3.7603 H   0  0  0  0  0  0  0  0  0  0  0  0
   -4.1079    3.4940    3.7513 H   0  0  0  0  0  0  0  0  0  0  0  0
   -1.4013    6.4757    0.6009 H   0  0  0  0  0  0  0  0  0  0  0  0
   -1.8931    6.3036    2.2609 H   0  0  0  0  0  0  0  0  0  0  0  0
    0.5172    5.9463    1.9287 H   0  0  0  0  0  0  0  0  0  0  0  0
   -0.2828    4.5792    2.7024 H   0  0  0  0  0  0  0  0  0  0  0  0
   -0.2522    2.6266   -1.1184 H   0  0  0  0  0  0  0  0  0  0  0  0
    0.2991    3.6165   -2.4668 H   0  0  0  0  0  0  0  0  0  0  0  0
    1.8023    1.5792    0.5778 H   0  0  0  0  0  0  0  0  0  0  0  0
    3.2797    2.5254    0.4175 H   0  0  0  0  0  0  0  0  0  0  0  0
    2.5051    4.3694   -2.6119 H   0  0  0  0  0  0  0  0  0  0  0  0
    3.6368    4.1583   -1.2764 H   0  0  0  0  0  0  0  0  0  0  0  0
    4.2305    3.1872   -3.7172 H   0  0  0  0  0  0  0  0  0  0  0  0
    4.5785    2.1893   -2.2910 H   0  0  0  0  0  0  0  0  0  0  0  0
    2.0689    2.0744   -4.0426 H   0  0  0  0  0  0  0  0  0  0  0  0
    3.1958    0.7452   -3.7072 H   0  0  0  0  0  0  0  0  0  0  0  0
    2.5625    0.6442   -1.4091 H   0  0  0  0  0  0  0  0  0  0  0  0
    1.0098    0.9359   -2.1958 H   0  0  0  0  0  0  0  0  0  0  0  0
  1  2  2  0  0  0  0
  1 29  1  0  0  0  0
  2  3  1  0  0  0  0
  2 30  1  0  0  0  0
  3  4  2  0  0  0  0
  3 31  1  0  0  0  0
  4  5  1  0  0  0  0
  4  7  1  0  0  0  0
  5  6  2  0  0  0  0
  5  9  1  0  0  0  0
  6  1  1  0  0  0  0
  6 32  1  0  0  0  0
  7  8  1  0  0  0  0
  8 33  1  0  0  0  0
  8 34  1  0  0  0  0
  8 35  1  0  0  0  0
  9 10  1  0  0  0  0
 10 11  1  0  0  0  0
 10 36  1  0  0  0  0
 10 37  1  0  0  0  0
 11 12  1  0  0  0  0
 11 38  1  0  0  0  0
 11 39  1  0  0  0  0
 12 13  1  0  0  0  0
 12 15  1  0  0  0  0
 13 14  1  0  0  0  0
 13 40  1  0  0  0  0
 13 41  1  0  0  0  0
 14  9  1  0  0  0  0
 14 42  1  0  0  0  0
 14 43  1  0  0  0  0
 15 16  1  0  0  0  0
 15 44  1  0  0  0  0
 15 45  1  0  0  0  0
 16 17  1  0  0  0  0
 16 46  1  0  0  0  0
 16 47  1  0  0  0  0
 17 18  1  0  0  0  0
 18 19  1  0  0  0  0
 18 28  2  0  0  0  0
 19 20  1  0  0  0  0
 19 48  1  0  0  0  0
 19 49  1  0  0  0  0
 20 21  1  0  0  0  0
 20 23  1  0  0  0  0
 21 22  1  0  0  0  0
 21 50  1  0  0  0  0
 21 51  1  0  0  0  0
 22 17  1  0  0  0  0
 22 27  2  0  0  0  0
 23 24  1  0  0  0  0
 23 52  1  0  0  0  0
 23 53  1  0  0  0  0
 24 25  1  0  0  0  0
 24 54  1  0  0  0  0
 24 55  1  0  0  0  0
 25 26  1  0  0  0  0
 25 56  1  0  0  0  0
 25 57  1  0  0  0  0
 26 20  1  0  0  0  0
 26 58  1  0  0  0  0
 26 59  1  0  0  0  0
M  END
>  <Mol_ID>
864

>  <Formula>
C22H33Cl2N3O3

>  <MolWeight>
458.42172

>  <Cat>
S2691

>  <Name>
BMY 7378 Dihydrochloride

>  <Synonyms>
N/A

>  <Target>
5-HT Receptor,Adrenergic Receptor

>  <Form>
Dihydrochloride

>  <CAS>
21102-95-4

>  <URL>
http://selleckchem.com/products/bmy-7378.html

$$$$
