BNC210
 OpenBabel08302521263D

 46 47  0  0  0  0  0  0  0  0999 V2000
    0.3660   -0.0340   -1.4917 O   0  0  0  0  0  0  0  0  0  0  0  0
   -2.2514   -3.9868   -2.1146 O   0  0  0  0  0  0  0  0  0  0  0  0
   -1.4884   -4.1665   -4.2216 O   0  0  0  0  0  0  0  0  0  0  0  0
   -0.3802   -2.2058   -1.3270 N   0  0  0  0  0  0  0  0  0  0  0  0
    0.7828   -2.1871    1.2896 N   0  0  0  0  0  0  0  0  0  0  0  0
    2.9209   -5.3533   -3.7052 N   0  0  0  0  0  0  0  0  0  0  0  0
    0.7124    0.2731    1.4890 C   0  0  2  0  0  0  0  0  0  0  0  0
    0.1140   -0.9749    0.7785 C   0  0  1  0  0  0  0  0  0  0  0  0
   -0.0103    1.6235    1.2765 C   0  0  0  0  0  0  0  0  0  0  0  0
   -0.5481   -2.4006   -2.7868 C   0  0  1  0  0  0  0  0  0  0  0  0
    0.7377   -2.3891   -3.6257 C   0  0  0  0  0  0  0  0  0  0  0  0
    0.0842   -1.0005   -0.7900 C   0  0  0  0  0  0  0  0  0  0  0  0
    1.7299   -3.4899   -3.3868 C   0  0  0  0  0  0  0  0  0  0  0  0
    2.2137    0.4920    1.2444 C   0  0  0  0  0  0  0  0  0  0  0  0
    2.8928   -3.4468   -2.5501 C   0  0  0  0  0  0  0  0  0  0  0  0
   -1.5166    1.5919    1.4704 C   0  0  0  0  0  0  0  0  0  0  0  0
    3.6195   -4.6171   -2.7783 C   0  0  0  0  0  0  0  0  0  0  0  0
    1.7609   -4.7096   -4.0387 C   0  0  0  0  0  0  0  0  0  0  0  0
   -1.4240   -3.6243   -3.1283 C   0  0  0  0  0  0  0  0  0  0  0  0
    3.4211   -2.5000   -1.6489 C   0  0  0  0  0  0  0  0  0  0  0  0
    4.8413   -4.8899   -2.1511 C   0  0  0  0  0  0  0  0  0  0  0  0
    4.6198   -2.7757   -0.9799 C   0  0  0  0  0  0  0  0  0  0  0  0
    5.3193   -3.9534   -1.2312 C   0  0  0  0  0  0  0  0  0  0  0  0
   -2.2101   -3.3304   -1.3922 H   0  0  0  0  0  0  0  0  0  0  0  0
   -0.1950   -3.0328   -0.7728 H   0  0  0  0  0  0  0  0  0  0  0  0
    1.6903   -2.3097    0.8388 H   0  0  0  0  0  0  0  0  0  0  0  0
    0.2345   -3.0260    1.1463 H   0  0  0  0  0  0  0  0  0  0  0  0
    3.2330   -6.2328   -4.0949 H   0  0  0  0  0  0  0  0  0  0  0  0
    0.6154    0.0655    2.5664 H   0  0  0  0  0  0  0  0  0  0  0  0
   -0.9416   -1.0467    1.0774 H   0  0  0  0  0  0  0  0  0  0  0  0
    0.3966    2.3381    2.0074 H   0  0  0  0  0  0  0  0  0  0  0  0
    0.2196    2.0405    0.2898 H   0  0  0  0  0  0  0  0  0  0  0  0
   -1.1493   -1.5393   -3.1170 H   0  0  0  0  0  0  0  0  0  0  0  0
    0.4566   -2.4300   -4.6886 H   0  0  0  0  0  0  0  0  0  0  0  0
    1.2471   -1.4275   -3.5030 H   0  0  0  0  0  0  0  0  0  0  0  0
    2.5987    1.2460    1.9438 H   0  0  0  0  0  0  0  0  0  0  0  0
    2.7992   -0.4159    1.4085 H   0  0  0  0  0  0  0  0  0  0  0  0
    2.4093    0.8554    0.2313 H   0  0  0  0  0  0  0  0  0  0  0  0
   -1.7933    1.0560    2.3833 H   0  0  0  0  0  0  0  0  0  0  0  0
   -1.9027    2.6144    1.5532 H   0  0  0  0  0  0  0  0  0  0  0  0
   -2.0111    1.1200    0.6171 H   0  0  0  0  0  0  0  0  0  0  0  0
    1.0815   -5.1482   -4.7595 H   0  0  0  0  0  0  0  0  0  0  0  0
    2.9104   -1.5578   -1.4760 H   0  0  0  0  0  0  0  0  0  0  0  0
    5.4024   -5.7937   -2.3674 H   0  0  0  0  0  0  0  0  0  0  0  0
    5.0167   -2.0543   -0.2696 H   0  0  0  0  0  0  0  0  0  0  0  0
    6.2577   -4.1433   -0.7146 H   0  0  0  0  0  0  0  0  0  0  0  0
  1 12  2  0  0  0  0
  2 19  1  0  0  0  0
  2 24  1  0  0  0  0
  3 19  2  0  0  0  0
  4 12  1  0  0  0  0
  4 25  1  0  0  0  0
  5 26  1  0  0  0  0
  5 27  1  0  0  0  0
  6 17  1  0  0  0  0
  6 18  1  0  0  0  0
  6 28  1  0  0  0  0
  7 14  1  0  0  0  0
  7 29  1  1  0  0  0
  7  9  1  0  0  0  0
  7  8  1  0  0  0  0
  8 30  1  1  0  0  0
  8 12  1  0  0  0  0
  8  5  1  0  0  0  0
  9 16  1  0  0  0  0
  9 31  1  0  0  0  0
  9 32  1  0  0  0  0
 10  4  1  0  0  0  0
 10 11  1  0  0  0  0
 10 19  1  0  0  0  0
 10 33  1  6  0  0  0
 11 13  1  0  0  0  0
 11 34  1  0  0  0  0
 11 35  1  0  0  0  0
 13 15  1  0  0  0  0
 13 18  2  0  0  0  0
 14 36  1  0  0  0  0
 14 37  1  0  0  0  0
 14 38  1  0  0  0  0
 15 17  2  0  0  0  0
 15 20  1  0  0  0  0
 16 39  1  0  0  0  0
 16 40  1  0  0  0  0
 16 41  1  0  0  0  0
 17 21  1  0  0  0  0
 18 42  1  0  0  0  0
 20 22  2  0  0  0  0
 20 43  1  0  0  0  0
 21 23  2  0  0  0  0
 21 44  1  0  0  0  0
 22 23  1  0  0  0  0
 22 45  1  0  0  0  0
 23 46  1  0  0  0  0
M  END
>  <Mol_ID>
5272

>  <Formula>
C17H23N3O3

>  <MolWeight>
317.38282

>  <Cat>
S0552

>  <Name>
BNC210

>  <Synonyms>
H-Ile-Trp-OH, IW-2143

>  <Target>
AChR

>  <Form>
Free Base

>  <CAS>
13589-06-5

>  <URL>
https://www.selleckchem.com/products/bnc210.html

$$$$
