BO-264
 OpenBabel08302521263D

 45 48  0  0  0  0  0  0  0  0999 V2000
   -1.4126    0.3718   -2.8354 C   0  0  0  0  0  0  0  0  0  0  0  0
   -1.6719   -0.3983   -1.6941 C   0  0  0  0  0  0  0  0  0  0  0  0
   -1.7434   -1.7954   -1.7710 C   0  0  0  0  0  0  0  0  0  0  0  0
   -1.5396   -2.4092   -3.0100 C   0  0  0  0  0  0  0  0  0  0  0  0
   -1.2715   -1.6396   -4.1493 C   0  0  0  0  0  0  0  0  0  0  0  0
   -1.2086   -0.2468   -4.0687 C   0  0  0  0  0  0  0  0  0  0  0  0
   -0.9358    0.3813   -5.2514 O   0  0  0  0  0  0  0  0  0  0  0  0
   -0.8969    1.8020   -5.2277 C   0  0  0  0  0  0  0  0  0  0  0  0
   -2.0425   -2.5939   -0.5862 C   0  0  0  0  0  0  0  0  0  0  0  0
   -2.6603   -3.8679   -0.5366 C   0  0  0  0  0  0  0  0  0  0  0  0
   -2.7260   -4.1870    0.7942 C   0  0  0  0  0  0  0  0  0  0  0  0
   -2.1595   -3.1798    1.5131 O   0  0  0  0  0  0  0  0  0  0  0  0
   -1.7545   -2.1698    0.6566 N   0  0  0  0  0  0  0  0  0  0  0  0
   -3.1863   -5.2621    1.4674 N   0  0  0  0  0  0  0  0  0  0  0  0
   -4.2962   -6.0132    1.0195 C   0  0  0  0  0  0  0  0  0  0  0  0
   -5.2038   -5.4494    0.2011 N   0  0  0  0  0  0  0  0  0  0  0  0
   -6.2685   -6.1623   -0.1899 C   0  0  0  0  0  0  0  0  0  0  0  0
   -6.4442   -7.4388    0.1817 N   0  0  0  0  0  0  0  0  0  0  0  0
   -5.5060   -7.9983    0.9641 C   0  0  0  0  0  0  0  0  0  0  0  0
   -4.4119   -7.3203    1.4324 C   0  0  0  0  0  0  0  0  0  0  0  0
   -7.1818   -5.5838   -1.0414 N   0  0  0  0  0  0  0  0  0  0  0  0
   -7.0311   -4.1802   -1.4366 C   0  0  0  0  0  0  0  0  0  0  0  0
   -8.0567   -3.2939   -0.7162 C   0  0  0  0  0  0  0  0  0  0  0  0
   -9.3960   -3.7857   -0.8984 O   0  0  0  0  0  0  0  0  0  0  0  0
   -9.5096   -5.1157   -0.3649 C   0  0  0  0  0  0  0  0  0  0  0  0
   -8.5548   -6.0947   -1.0695 C   0  0  0  0  0  0  0  0  0  0  0  0
   -1.3768    1.4496   -2.7215 H   0  0  0  0  0  0  0  0  0  0  0  0
   -1.8288    0.1071   -0.7423 H   0  0  0  0  0  0  0  0  0  0  0  0
   -1.5678   -3.4912   -3.1163 H   0  0  0  0  0  0  0  0  0  0  0  0
   -1.1058   -2.1306   -5.1048 H   0  0  0  0  0  0  0  0  0  0  0  0
   -1.8848    2.2146   -4.9979 H   0  0  0  0  0  0  0  0  0  0  0  0
   -0.1408    2.1700   -4.5263 H   0  0  0  0  0  0  0  0  0  0  0  0
   -0.6137    2.1451   -6.2274 H   0  0  0  0  0  0  0  0  0  0  0  0
   -3.0208   -4.4718   -1.3546 H   0  0  0  0  0  0  0  0  0  0  0  0
   -3.1622   -5.2100    2.4794 H   0  0  0  0  0  0  0  0  0  0  0  0
   -5.6654   -9.0452    1.2037 H   0  0  0  0  0  0  0  0  0  0  0  0
   -3.6703   -7.8001    2.0550 H   0  0  0  0  0  0  0  0  0  0  0  0
   -7.2192   -4.1257   -2.5156 H   0  0  0  0  0  0  0  0  0  0  0  0
   -6.0222   -3.7821   -1.2810 H   0  0  0  0  0  0  0  0  0  0  0  0
   -7.8466   -3.2250    0.3573 H   0  0  0  0  0  0  0  0  0  0  0  0
   -8.0220   -2.2798   -1.1288 H   0  0  0  0  0  0  0  0  0  0  0  0
  -10.5451   -5.4398   -0.5110 H   0  0  0  0  0  0  0  0  0  0  0  0
   -9.3208   -5.0801    0.7145 H   0  0  0  0  0  0  0  0  0  0  0  0
   -8.8526   -6.1835   -2.1211 H   0  0  0  0  0  0  0  0  0  0  0  0
   -8.6669   -7.0894   -0.6244 H   0  0  0  0  0  0  0  0  0  0  0  0
  1  2  2  0  0  0  0
  1 27  1  0  0  0  0
  2  3  1  0  0  0  0
  2 28  1  0  0  0  0
  3  4  2  0  0  0  0
  3  9  1  0  0  0  0
  4  5  1  0  0  0  0
  4 29  1  0  0  0  0
  5  6  2  0  0  0  0
  5 30  1  0  0  0  0
  6  1  1  0  0  0  0
  6  7  1  0  0  0  0
  7  8  1  0  0  0  0
  8 31  1  0  0  0  0
  8 32  1  0  0  0  0
  8 33  1  0  0  0  0
  9 10  1  0  0  0  0
 10 11  2  0  0  0  0
 10 34  1  0  0  0  0
 11 12  1  0  0  0  0
 11 14  1  0  0  0  0
 12 13  1  0  0  0  0
 13  9  2  0  0  0  0
 14 15  1  0  0  0  0
 14 35  1  0  0  0  0
 15 16  2  0  0  0  0
 16 17  1  0  0  0  0
 17 18  2  0  0  0  0
 17 21  1  0  0  0  0
 18 19  1  0  0  0  0
 19 20  2  0  0  0  0
 19 36  1  0  0  0  0
 20 15  1  0  0  0  0
 20 37  1  0  0  0  0
 21 22  1  0  0  0  0
 22 23  1  0  0  0  0
 22 38  1  0  0  0  0
 22 39  1  0  0  0  0
 23 24  1  0  0  0  0
 23 40  1  0  0  0  0
 23 41  1  0  0  0  0
 24 25  1  0  0  0  0
 25 26  1  0  0  0  0
 25 42  1  0  0  0  0
 25 43  1  0  0  0  0
 26 21  1  0  0  0  0
 26 44  1  0  0  0  0
 26 45  1  0  0  0  0
M  END
>  <Mol_ID>
5231

>  <Formula>
C18H19N5O3

>  <MolWeight>
353.37516

>  <Cat>
S8965

>  <Name>
BO-264

>  <Synonyms>
N/A

>  <Target>
Apoptosis related,FGFR,TACC3

>  <Form>
free base

>  <CAS>
2408648-20-2

>  <URL>
http://www.selleckchem.com/products/bo-264.html

$$$$
