Boc-D-Tyr-OH
 OpenBabel08302521363D

 39 39  0  0  1  0  0  0  0  0999 V2000
    1.0940   -0.0408    0.1261 C   0  0  0  0  0  0  0  0  0  0  0  0
    2.6363   -0.0853    0.0351 C   0  0  1  0  0  0  0  0  0  0  0  0
    3.2827    1.2312    0.2008 N   0  0  0  0  0  0  0  0  0  0  0  0
    3.1940   -1.1841    0.9572 C   0  0  0  0  0  0  0  0  0  0  0  0
    3.1023    2.2009   -0.7527 C   0  0  0  0  0  0  0  0  0  0  0  0
    4.3528   -0.8349    1.5708 O   0  0  0  0  0  0  0  0  0  0  0  0
    2.6913   -2.2839    1.1080 O   0  0  0  0  0  0  0  0  0  0  0  0
    3.6509    3.3697   -0.3336 O   0  0  0  0  0  0  0  0  0  0  0  0
    2.5281    2.0175   -1.8134 O   0  0  0  0  0  0  0  0  0  0  0  0
    3.6366    4.5454   -1.1981 C   0  0  0  0  0  0  0  0  0  0  0  0
    2.2189    5.1130   -1.3306 C   0  0  0  0  0  0  0  0  0  0  0  0
    4.5150    5.5956   -0.4939 C   0  0  0  0  0  0  0  0  0  0  0  0
    4.2598    4.2652   -2.5730 C   0  0  0  0  0  0  0  0  0  0  0  0
   -1.0819    3.0246    4.3686 O   0  0  0  0  0  0  0  0  0  0  0  0
    0.5029    0.7155    1.2975 C   0  0  0  0  0  0  0  0  0  0  0  0
   -0.7075    1.4019    1.1081 C   0  0  0  0  0  0  0  0  0  0  0  0
    1.0933    0.7388    2.5693 C   0  0  0  0  0  0  0  0  0  0  0  0
   -1.2633    2.1705    2.1321 C   0  0  0  0  0  0  0  0  0  0  0  0
    0.5467    1.5166    3.5890 C   0  0  0  0  0  0  0  0  0  0  0  0
   -0.6118    2.2428    3.3568 C   0  0  0  0  0  0  0  0  0  0  0  0
    0.7306    0.4339   -0.7952 H   0  0  0  0  0  0  0  0  0  0  0  0
    0.6748   -1.0550    0.1244 H   0  0  0  0  0  0  0  0  0  0  0  0
    2.9027   -0.4265   -0.9757 H   0  0  0  0  0  0  0  0  0  0  0  0
    3.3915    1.6295    1.1280 H   0  0  0  0  0  0  0  0  0  0  0  0
    4.6857    0.0210    1.2220 H   0  0  0  0  0  0  0  0  0  0  0  0
    1.7799    5.3019   -0.3443 H   0  0  0  0  0  0  0  0  0  0  0  0
    2.2185    6.0537   -1.8922 H   0  0  0  0  0  0  0  0  0  0  0  0
    1.5487    4.4164   -1.8439 H   0  0  0  0  0  0  0  0  0  0  0  0
    5.5010    5.1832   -0.2517 H   0  0  0  0  0  0  0  0  0  0  0  0
    4.6570    6.4861   -1.1171 H   0  0  0  0  0  0  0  0  0  0  0  0
    4.0672    5.9154    0.4539 H   0  0  0  0  0  0  0  0  0  0  0  0
    5.2514    3.8129   -2.4653 H   0  0  0  0  0  0  0  0  0  0  0  0
    3.6577    3.5755   -3.1703 H   0  0  0  0  0  0  0  0  0  0  0  0
    4.3579    5.1862   -3.1590 H   0  0  0  0  0  0  0  0  0  0  0  0
   -1.8129    3.5630    4.0246 H   0  0  0  0  0  0  0  0  0  0  0  0
   -1.2240    1.3491    0.1504 H   0  0  0  0  0  0  0  0  0  0  0  0
    1.9835    0.1644    2.8038 H   0  0  0  0  0  0  0  0  0  0  0  0
   -2.1928    2.7013    1.9545 H   0  0  0  0  0  0  0  0  0  0  0  0
    1.0279    1.5572    4.5617 H   0  0  0  0  0  0  0  0  0  0  0  0
  1 15  1  0  0  0  0
  1 21  1  0  0  0  0
  1 22  1  0  0  0  0
  2  1  1  0  0  0  0
  2  3  1  0  0  0  0
  2  4  1  0  0  0  0
  2 23  1  6  0  0  0
  3  5  1  0  0  0  0
  3 24  1  0  0  0  0
  4  6  1  0  0  0  0
  4  7  2  0  0  0  0
  5  8  1  0  0  0  0
  5  9  2  0  0  0  0
  6 25  1  0  0  0  0
  8 10  1  0  0  0  0
 10 11  1  0  0  0  0
 10 12  1  0  0  0  0
 10 13  1  0  0  0  0
 11 26  1  0  0  0  0
 11 27  1  0  0  0  0
 11 28  1  0  0  0  0
 12 29  1  0  0  0  0
 12 30  1  0  0  0  0
 12 31  1  0  0  0  0
 13 32  1  0  0  0  0
 13 33  1  0  0  0  0
 13 34  1  0  0  0  0
 14 20  1  0  0  0  0
 14 35  1  0  0  0  0
 15 16  2  0  0  0  0
 15 17  1  0  0  0  0
 16 18  1  0  0  0  0
 16 36  1  0  0  0  0
 17 19  2  0  0  0  0
 17 37  1  0  0  0  0
 18 20  2  0  0  0  0
 18 38  1  0  0  0  0
 19 20  1  0  0  0  0
 19 39  1  0  0  0  0
M  END
>  <Mol_ID>
7325

>  <Formula>
C14H19NO5

>  <MolWeight>
281.30436

>  <Cat>
E4367

>  <Name>
Boc-D-Tyr-OH

>  <Target>
Others

>  <Form>
Free base

>  <CAS>
70642-86-3

>  <URL>
https://www.selleckchem.com/products/boc-d-tyr-oh.html

$$$$
