Bohemine
 OpenBabel08302521223D

 49 51  0  0  0  0  0  0  0  0999 V2000
    0.1318   -0.6450   -0.0169 C   0  0  0  0  0  0  0  0  0  0  0  0
    1.4278   -1.1053    0.0257 N   0  0  0  0  0  0  0  0  0  0  0  0
    0.2406    0.7330   -0.0779 C   0  0  0  0  0  0  0  0  0  0  0  0
   -1.0066   -1.3603    0.0022 N   0  0  0  0  0  0  0  0  0  0  0  0
    1.5660    1.1282   -0.0645 N   0  0  0  0  0  0  0  0  0  0  0  0
   -2.1249    0.7652   -0.1179 N   0  0  0  0  0  0  0  0  0  0  0  0
   -0.9589    1.4715   -0.1253 C   0  0  0  0  0  0  0  0  0  0  0  0
    2.2455    0.0027   -0.0053 C   0  0  0  0  0  0  0  0  0  0  0  0
   -2.1022   -0.5856   -0.0542 C   0  0  0  0  0  0  0  0  0  0  0  0
   -0.9479    2.8626   -0.1867 N   0  0  0  0  0  0  0  0  0  0  0  0
    1.8909   -2.4816    0.0758 C   0  0  0  0  0  0  0  0  0  0  0  0
   -3.2967   -1.2746    0.0489 N   0  0  0  0  0  0  0  0  0  0  0  0
   -2.0490    3.5800    0.4293 C   0  0  0  0  0  0  0  0  0  0  0  0
   -1.5732    4.4608    1.5643 C   0  0  0  0  0  0  0  0  0  0  0  0
   -5.6477   -0.6519    0.0780 C   0  0  0  0  0  0  0  0  0  0  0  0
   -5.1265    1.6454    0.6249 O   0  0  0  0  0  0  0  0  0  0  0  0
   -4.3991   -0.8304   -0.7865 C   0  0  0  0  0  0  0  0  0  0  0  0
   -5.4554    0.3804    1.1837 C   0  0  0  0  0  0  0  0  0  0  0  0
    1.3935   -3.2375    1.2998 C   0  0  0  0  0  0  0  0  0  0  0  0
    1.5869   -3.2352   -1.2199 C   0  0  0  0  0  0  0  0  0  0  0  0
   -1.7589    5.8489    1.5215 C   0  0  0  0  0  0  0  0  0  0  0  0
   -0.9995    3.8893    2.7124 C   0  0  0  0  0  0  0  0  0  0  0  0
   -0.6240    4.6912    3.7909 C   0  0  0  0  0  0  0  0  0  0  0  0
   -1.3840    6.6483    2.6017 C   0  0  0  0  0  0  0  0  0  0  0  0
   -0.8163    6.0709    3.7368 C   0  0  0  0  0  0  0  0  0  0  0  0
    3.3302   -0.0760    0.0154 H   0  0  0  0  0  0  0  0  0  0  0  0
   -0.0212    3.2341    0.0120 H   0  0  0  0  0  0  0  0  0  0  0  0
    2.9888   -2.4209    0.1589 H   0  0  0  0  0  0  0  0  0  0  0  0
   -3.0949   -2.2668    0.0140 H   0  0  0  0  0  0  0  0  0  0  0  0
   -2.5296    4.1922   -0.3429 H   0  0  0  0  0  0  0  0  0  0  0  0
   -2.8252    2.9297    0.8384 H   0  0  0  0  0  0  0  0  0  0  0  0
   -6.4735   -0.3361   -0.5711 H   0  0  0  0  0  0  0  0  0  0  0  0
   -5.9290   -1.6108    0.5280 H   0  0  0  0  0  0  0  0  0  0  0  0
   -4.2097    1.5519    0.2945 H   0  0  0  0  0  0  0  0  0  0  0  0
   -4.1898    0.0901   -1.3439 H   0  0  0  0  0  0  0  0  0  0  0  0
   -4.5979   -1.5960   -1.5449 H   0  0  0  0  0  0  0  0  0  0  0  0
   -6.3818    0.4937    1.7550 H   0  0  0  0  0  0  0  0  0  0  0  0
   -4.6700    0.0900    1.8869 H   0  0  0  0  0  0  0  0  0  0  0  0
    0.3046   -3.3456    1.3022 H   0  0  0  0  0  0  0  0  0  0  0  0
    1.8273   -4.2447    1.3333 H   0  0  0  0  0  0  0  0  0  0  0  0
    1.6802   -2.7187    2.2227 H   0  0  0  0  0  0  0  0  0  0  0  0
    0.5103   -3.3456   -1.3827 H   0  0  0  0  0  0  0  0  0  0  0  0
    2.0046   -2.7082   -2.0879 H   0  0  0  0  0  0  0  0  0  0  0  0
    2.0298   -4.2377   -1.1943 H   0  0  0  0  0  0  0  0  0  0  0  0
   -2.2149    6.3157    0.6507 H   0  0  0  0  0  0  0  0  0  0  0  0
   -0.8610    2.8117    2.7747 H   0  0  0  0  0  0  0  0  0  0  0  0
   -0.1883    4.2379    4.6781 H   0  0  0  0  0  0  0  0  0  0  0  0
   -1.5433    7.7229    2.5627 H   0  0  0  0  0  0  0  0  0  0  0  0
   -0.5332    6.6930    4.5803 H   0  0  0  0  0  0  0  0  0  0  0  0
  2  1  1  0  0  0  0
  3  1  2  0  0  0  0
  4  1  1  0  0  0  0
  5  3  1  0  0  0  0
  6  9  1  0  0  0  0
  7  3  1  0  0  0  0
  7  6  2  0  0  0  0
  8  2  1  0  0  0  0
  8  5  2  0  0  0  0
  8 26  1  0  0  0  0
  9  4  2  0  0  0  0
 10  7  1  0  0  0  0
 10 27  1  0  0  0  0
 11  2  1  0  0  0  0
 11 28  1  0  0  0  0
 12  9  1  0  0  0  0
 12 29  1  0  0  0  0
 13 10  1  0  0  0  0
 13 30  1  0  0  0  0
 13 31  1  0  0  0  0
 14 13  1  0  0  0  0
 15 17  1  0  0  0  0
 15 32  1  0  0  0  0
 15 33  1  0  0  0  0
 16 18  1  0  0  0  0
 16 34  1  0  0  0  0
 17 12  1  0  0  0  0
 17 35  1  0  0  0  0
 17 36  1  0  0  0  0
 18 15  1  0  0  0  0
 18 37  1  0  0  0  0
 18 38  1  0  0  0  0
 19 11  1  0  0  0  0
 19 39  1  0  0  0  0
 19 40  1  0  0  0  0
 19 41  1  0  0  0  0
 20 11  1  0  0  0  0
 20 42  1  0  0  0  0
 20 43  1  0  0  0  0
 20 44  1  0  0  0  0
 21 14  2  0  0  0  0
 21 45  1  0  0  0  0
 22 14  1  0  0  0  0
 22 46  1  0  0  0  0
 23 22  2  0  0  0  0
 23 47  1  0  0  0  0
 24 21  1  0  0  0  0
 24 25  2  0  0  0  0
 24 48  1  0  0  0  0
 25 23  1  0  0  0  0
 25 49  1  0  0  0  0
M  END
>  <Mol_ID>
4716

>  <Formula>
C18H24N6O

>  <MolWeight>
340.42276

>  <Cat>
S6531

>  <Name>
Bohemine

>  <Synonyms>
N/A

>  <Target>
CDK

>  <Form>
Free Base

>  <CAS>
189232-42-6

>  <URL>
http://www.selleck.cn/products/bohemine.html

$$$$
