Bozitinib (PLB-1001)
 OpenBabel08302521253D

 46 51  0  0  0  0  0  0  0  0999 V2000
    1.0708    0.0889   -0.1980 F   0  0  0  0  0  0  0  0  0  0  0  0
    2.8306   -0.9187    0.5343 F   0  0  0  0  0  0  0  0  0  0  0  0
    5.0533    1.0471    0.5714 F   0  0  0  0  0  0  0  0  0  0  0  0
    2.5919    7.2607   -2.3818 N   0  0  0  0  0  0  0  0  0  0  0  0
    2.3112    6.9137   -1.1190 N   0  0  0  0  0  0  0  0  0  0  0  0
    3.1047    1.5033   -2.1624 N   0  0  0  0  0  0  0  0  0  0  0  0
    2.8081    2.7832   -1.7790 N   0  0  0  0  0  0  0  0  0  0  0  0
    3.4354   -0.6673   -2.1648 N   0  0  0  0  0  0  0  0  0  0  0  0
    2.1394    4.6705    3.8476 N   0  0  0  0  0  0  0  0  0  0  0  0
    3.7897   -0.1897   -3.4014 N   0  0  0  0  0  0  0  0  0  0  0  0
    3.4410    4.3905    3.6282 N   0  0  0  0  0  0  0  0  0  0  0  0
    2.6118    8.6558   -2.7646 C   0  0  0  0  0  0  0  0  0  0  0  0
    2.1951    9.1554   -4.1376 C   0  0  0  0  0  0  0  0  0  0  0  0
    3.6308    9.2143   -3.7454 C   0  0  0  0  0  0  0  0  0  0  0  0
    2.8655    6.1874   -3.1891 C   0  0  0  0  0  0  0  0  0  0  0  0
    2.7914    5.0588   -2.3886 C   0  0  0  0  0  0  0  0  0  0  0  0
    2.4474    5.5876   -1.1176 C   0  0  0  0  0  0  0  0  0  0  0  0
    3.0178    3.6614   -2.7140 C   0  0  0  0  0  0  0  0  0  0  0  0
    2.4288    0.2569   -0.0507 C   0  0  0  0  0  0  0  0  0  0  0  0
    3.4878    3.3708   -4.0959 C   0  0  0  0  0  0  0  0  0  0  0  0
    3.0157    0.3481   -1.4225 C   0  0  0  0  0  0  0  0  0  0  0  0
    2.7232    1.4073    0.9054 C   0  0  0  0  0  0  0  0  0  0  0  0
    3.5822    1.1054   -3.3976 C   0  0  0  0  0  0  0  0  0  0  0  0
    3.7543    2.0914   -4.3896 C   0  0  0  0  0  0  0  0  0  0  0  0
    2.0708    3.0562    2.4128 C   0  0  0  0  0  0  0  0  0  0  0  0
    1.6324    2.0803    1.5272 C   0  0  0  0  0  0  0  0  0  0  0  0
    3.4341    3.3952    2.7273 C   0  0  0  0  0  0  0  0  0  0  0  0
    4.0870    1.7287    1.2065 C   0  0  0  0  0  0  0  0  0  0  0  0
    4.5005    2.7219    2.1174 C   0  0  0  0  0  0  0  0  0  0  0  0
    1.2678    3.8809    3.1510 C   0  0  0  0  0  0  0  0  0  0  0  0
    1.7810    5.7546    4.7299 C   0  0  0  0  0  0  0  0  0  0  0  0
    2.3568    9.3006   -1.9269 H   0  0  0  0  0  0  0  0  0  0  0  0
    1.8976    8.4419   -4.8964 H   0  0  0  0  0  0  0  0  0  0  0  0
    1.6428   10.0885   -4.1816 H   0  0  0  0  0  0  0  0  0  0  0  0
    4.0611   10.1834   -3.5125 H   0  0  0  0  0  0  0  0  0  0  0  0
    4.3249    8.5400   -4.2320 H   0  0  0  0  0  0  0  0  0  0  0  0
    3.0937    6.3296   -4.2348 H   0  0  0  0  0  0  0  0  0  0  0  0
    2.2977    5.0474   -0.1906 H   0  0  0  0  0  0  0  0  0  0  0  0
    3.6094    4.1552   -4.8286 H   0  0  0  0  0  0  0  0  0  0  0  0
    4.0989    1.7881   -5.3723 H   0  0  0  0  0  0  0  0  0  0  0  0
    0.5940    1.8427    1.3331 H   0  0  0  0  0  0  0  0  0  0  0  0
    5.5379    2.9396    2.3222 H   0  0  0  0  0  0  0  0  0  0  0  0
    0.1959    3.9907    3.2332 H   0  0  0  0  0  0  0  0  0  0  0  0
    1.3411    6.5516    4.1252 H   0  0  0  0  0  0  0  0  0  0  0  0
    1.0599    5.3847    5.4630 H   0  0  0  0  0  0  0  0  0  0  0  0
    2.6751    6.1215    5.2404 H   0  0  0  0  0  0  0  0  0  0  0  0
  1 19  1  0  0  0  0
  2 19  1  0  0  0  0
  3 28  1  0  0  0  0
  4  5  1  0  0  0  0
  4 12  1  0  0  0  0
  4 15  1  0  0  0  0
  5 17  2  0  0  0  0
  6  7  1  0  0  0  0
  6 21  1  0  0  0  0
  6 23  1  0  0  0  0
  7 18  2  0  0  0  0
  8 10  1  0  0  0  0
  8 21  2  0  0  0  0
  9 11  1  0  0  0  0
  9 30  1  0  0  0  0
  9 31  1  0  0  0  0
 10 23  2  0  0  0  0
 11 27  2  0  0  0  0
 12 13  1  0  0  0  0
 12 14  1  0  0  0  0
 12 32  1  0  0  0  0
 13 14  1  0  0  0  0
 13 33  1  0  0  0  0
 13 34  1  0  0  0  0
 14 35  1  0  0  0  0
 14 36  1  0  0  0  0
 15 16  2  0  0  0  0
 15 37  1  0  0  0  0
 16 17  1  0  0  0  0
 16 18  1  0  0  0  0
 17 38  1  0  0  0  0
 18 20  1  0  0  0  0
 19 21  1  0  0  0  0
 19 22  1  0  0  0  0
 20 24  2  0  0  0  0
 20 39  1  0  0  0  0
 22 26  2  0  0  0  0
 22 28  1  0  0  0  0
 23 24  1  0  0  0  0
 24 40  1  0  0  0  0
 25 26  1  0  0  0  0
 25 27  1  0  0  0  0
 25 30  2  0  0  0  0
 26 41  1  0  0  0  0
 27 29  1  0  0  0  0
 28 29  2  0  0  0  0
 29 42  1  0  0  0  0
 30 43  1  0  0  0  0
 31 44  1  0  0  0  0
 31 45  1  0  0  0  0
 31 46  1  0  0  0  0
M  END
>  <Mol_ID>
5185

>  <Formula>
C20H15F3N8

>  <MolWeight>
424.3819096

>  <Cat>
S6762

>  <Name>
Bozitinib (PLB-1001)

>  <Synonyms>
CBT-101, APL-101, CBI-3103

>  <Target>
c-Met

>  <Form>
free base

>  <CAS>
1440964-89-5

>  <URL>
http://www.selleckchem.com/products/bozitinib.html

$$$$
