BQCA
 OpenBabel08302520143D

 38 40  0  0  0  0  0  0  0  0999 V2000
   -0.0898   -0.6322   -0.1917 C   0  0  0  0  0  0  0  0  0  0  0  0
   -0.1166    0.7649   -0.0019 C   0  0  0  0  0  0  0  0  0  0  0  0
    1.1306   -1.3351   -0.0513 N   0  0  0  0  0  0  0  0  0  0  0  0
   -1.3082   -1.2381   -0.5274 C   0  0  0  0  0  0  0  0  0  0  0  0
    1.1577    1.4997    0.1583 C   0  0  0  0  0  0  0  0  0  0  0  0
   -1.3165    1.4918   -0.0024 C   0  0  0  0  0  0  0  0  0  0  0  0
    2.3118   -0.6018    0.0012 C   0  0  0  0  0  0  0  0  0  0  0  0
    1.1396   -2.8183    0.0035 C   0  0  0  0  0  0  0  0  0  0  0  0
   -2.5098   -0.5191   -0.5413 C   0  0  0  0  0  0  0  0  0  0  0  0
    2.4175    0.7355    0.0719 C   0  0  0  0  0  0  0  0  0  0  0  0
    1.1911    2.7196    0.3104 O   0  0  0  0  0  0  0  0  0  0  0  0
   -2.5186    0.8391   -0.2486 C   0  0  0  0  0  0  0  0  0  0  0  0
    0.3640   -3.3993    1.1768 C   0  0  0  0  0  0  0  0  0  0  0  0
    3.7490    1.3698    0.0504 C   0  0  0  0  0  0  0  0  0  0  0  0
   -0.7274   -4.2517    0.9485 C   0  0  0  0  0  0  0  0  0  0  0  0
    0.7089   -3.1107    2.5064 C   0  0  0  0  0  0  0  0  0  0  0  0
    3.7352    2.7205    0.0826 O   0  0  0  0  0  0  0  0  0  0  0  0
    4.7954    0.7343   -0.0157 O   0  0  0  0  0  0  0  0  0  0  0  0
   -1.4876   -4.7457    2.0112 C   0  0  0  0  0  0  0  0  0  0  0  0
   -0.0379   -3.6365    3.5745 C   0  0  0  0  0  0  0  0  0  0  0  0
   -1.1451   -4.4470    3.3280 C   0  0  0  0  0  0  0  0  0  0  0  0
   -2.0019   -4.9435    4.2722 O   0  0  0  0  0  0  0  0  0  0  0  0
   -1.4334   -5.2490    5.5386 C   0  0  0  0  0  0  0  0  0  0  0  0
   -1.3613   -2.2851   -0.7996 H   0  0  0  0  0  0  0  0  0  0  0  0
   -1.3140    2.5633    0.1843 H   0  0  0  0  0  0  0  0  0  0  0  0
    3.2103   -1.2169   -0.0435 H   0  0  0  0  0  0  0  0  0  0  0  0
    0.7711   -3.2197   -0.9490 H   0  0  0  0  0  0  0  0  0  0  0  0
    2.1697   -3.1898    0.0917 H   0  0  0  0  0  0  0  0  0  0  0  0
   -3.4399   -1.0311   -0.7771 H   0  0  0  0  0  0  0  0  0  0  0  0
   -3.4550    1.3905   -0.2360 H   0  0  0  0  0  0  0  0  0  0  0  0
   -1.0207   -4.5175   -0.0649 H   0  0  0  0  0  0  0  0  0  0  0  0
    1.5523   -2.4571    2.7206 H   0  0  0  0  0  0  0  0  0  0  0  0
    2.8292    3.1078    0.1613 H   0  0  0  0  0  0  0  0  0  0  0  0
   -2.3581   -5.3652    1.8098 H   0  0  0  0  0  0  0  0  0  0  0  0
    0.2477   -3.3586    4.5837 H   0  0  0  0  0  0  0  0  0  0  0  0
   -0.6733   -6.0305    5.4403 H   0  0  0  0  0  0  0  0  0  0  0  0
   -1.0298   -4.3642    6.0372 H   0  0  0  0  0  0  0  0  0  0  0  0
   -2.2377   -5.6395    6.1718 H   0  0  0  0  0  0  0  0  0  0  0  0
  1  2  1  0  0  0  0
  1  3  1  0  0  0  0
  1  4  2  0  0  0  0
  2  5  1  0  0  0  0
  2  6  2  0  0  0  0
  3  7  1  0  0  0  0
  3  8  1  0  0  0  0
  4  9  1  0  0  0  0
  4 24  1  0  0  0  0
  5 10  1  0  0  0  0
  5 11  2  0  0  0  0
  6 12  1  0  0  0  0
  6 25  1  0  0  0  0
  7 10  2  0  0  0  0
  7 26  1  0  0  0  0
  8 13  1  0  0  0  0
  8 27  1  0  0  0  0
  8 28  1  0  0  0  0
  9 12  2  0  0  0  0
  9 29  1  0  0  0  0
 10 14  1  0  0  0  0
 12 30  1  0  0  0  0
 13 15  2  0  0  0  0
 13 16  1  0  0  0  0
 14 17  1  0  0  0  0
 14 18  2  0  0  0  0
 15 19  1  0  0  0  0
 15 31  1  0  0  0  0
 16 20  2  0  0  0  0
 16 32  1  0  0  0  0
 17 33  1  0  0  0  0
 19 21  2  0  0  0  0
 19 34  1  0  0  0  0
 20 21  1  0  0  0  0
 20 35  1  0  0  0  0
 21 22  1  0  0  0  0
 22 23  1  0  0  0  0
 23 36  1  0  0  0  0
 23 37  1  0  0  0  0
 23 38  1  0  0  0  0
M  END
>  <Mol_ID>
3192

>  <Formula>
C18H15NO4

>  <MolWeight>
309.316

>  <Cat>
S5931

>  <Name>
BQCA

>  <Synonyms>
benzylquinolone carboxylic acid

>  <Target>
AChR

>  <Form>
Free Base

>  <CAS>
338747-41-4

>  <URL>
http://www.selleckchem.com/products/bqca.html

$$$$
