BQR695
 OpenBabel08302520403D

 46 48  0  0  0  0  0  0  0  0999 V2000
    0.4471   -2.1146   -2.2262 C   0  0  0  0  0  0  0  0  0  0  0  0
   -0.2452   -1.1590   -1.2548 C   0  0  0  0  0  0  0  0  0  0  0  0
    1.5991   -2.5037   -2.0505 O   0  0  0  0  0  0  0  0  0  0  0  0
   -0.3374   -2.5143   -3.2871 N   0  0  0  0  0  0  0  0  0  0  0  0
    0.1201   -3.4805   -4.2552 C   0  0  0  0  0  0  0  0  0  0  0  0
   -0.7228    0.0646   -1.9153 N   0  0  0  0  0  0  0  0  0  0  0  0
   -2.9332   -0.7863   -1.8430 N   0  0  0  0  0  0  0  0  0  0  0  0
   -2.1013    0.2680   -1.9207 C   0  0  0  0  0  0  0  0  0  0  0  0
   -2.6182    1.5572   -2.0314 C   0  0  0  0  0  0  0  0  0  0  0  0
   -3.9429    1.8425   -1.9974 N   0  0  0  0  0  0  0  0  0  0  0  0
   -4.7646    0.7879   -1.8672 C   0  0  0  0  0  0  0  0  0  0  0  0
   -6.1361    0.9768   -1.7876 C   0  0  0  0  0  0  0  0  0  0  0  0
   -7.0126   -0.1071   -1.6695 C   0  0  0  0  0  0  0  0  0  0  0  0
   -6.5330   -1.4246   -1.6454 C   0  0  0  0  0  0  0  0  0  0  0  0
   -5.1406   -1.5951   -1.7164 C   0  0  0  0  0  0  0  0  0  0  0  0
   -4.2559   -0.5286   -1.8097 C   0  0  0  0  0  0  0  0  0  0  0  0
   -7.4438   -2.5894   -1.5523 C   0  0  0  0  0  0  0  0  0  0  0  0
   -7.0729   -3.7581   -0.8543 C   0  0  0  0  0  0  0  0  0  0  0  0
   -7.9088   -4.8887   -0.7660 C   0  0  0  0  0  0  0  0  0  0  0  0
   -9.1629   -4.8510   -1.3925 C   0  0  0  0  0  0  0  0  0  0  0  0
   -9.5455   -3.6923   -2.0817 C   0  0  0  0  0  0  0  0  0  0  0  0
   -8.7014   -2.5837   -2.1656 C   0  0  0  0  0  0  0  0  0  0  0  0
  -10.1289   -5.8202   -1.4479 O   0  0  0  0  0  0  0  0  0  0  0  0
   -9.9006   -7.0567   -0.7906 C   0  0  0  0  0  0  0  0  0  0  0  0
   -7.5464   -6.0260   -0.0944 O   0  0  0  0  0  0  0  0  0  0  0  0
   -6.2569   -6.0890    0.5003 C   0  0  0  0  0  0  0  0  0  0  0  0
   -1.0222   -1.7147   -0.7175 H   0  0  0  0  0  0  0  0  0  0  0  0
    0.4952   -0.8584   -0.5058 H   0  0  0  0  0  0  0  0  0  0  0  0
   -1.3059   -2.2051   -3.3037 H   0  0  0  0  0  0  0  0  0  0  0  0
   -0.5425   -4.3492   -4.2136 H   0  0  0  0  0  0  0  0  0  0  0  0
    0.0623   -3.0288   -5.2481 H   0  0  0  0  0  0  0  0  0  0  0  0
    1.1469   -3.8007   -4.0584 H   0  0  0  0  0  0  0  0  0  0  0  0
   -0.3348    0.2016   -2.8462 H   0  0  0  0  0  0  0  0  0  0  0  0
   -1.9617    2.4174   -2.1067 H   0  0  0  0  0  0  0  0  0  0  0  0
   -6.5335    1.9891   -1.8146 H   0  0  0  0  0  0  0  0  0  0  0  0
   -8.0784    0.1043   -1.5905 H   0  0  0  0  0  0  0  0  0  0  0  0
   -4.7085   -2.5930   -1.7111 H   0  0  0  0  0  0  0  0  0  0  0  0
   -6.1072   -3.7666   -0.3598 H   0  0  0  0  0  0  0  0  0  0  0  0
  -10.5189   -3.6573   -2.5665 H   0  0  0  0  0  0  0  0  0  0  0  0
   -9.0437   -1.7226   -2.7345 H   0  0  0  0  0  0  0  0  0  0  0  0
   -9.0329   -7.5766   -1.2078 H   0  0  0  0  0  0  0  0  0  0  0  0
   -9.8216   -6.9208    0.2929 H   0  0  0  0  0  0  0  0  0  0  0  0
  -10.7725   -7.6919   -0.9747 H   0  0  0  0  0  0  0  0  0  0  0  0
   -5.4694   -6.0289   -0.2584 H   0  0  0  0  0  0  0  0  0  0  0  0
   -6.1342   -5.3154    1.2652 H   0  0  0  0  0  0  0  0  0  0  0  0
   -6.1663   -7.0595    0.9975 H   0  0  0  0  0  0  0  0  0  0  0  0
  1  2  1  0  0  0  0
  1  3  2  0  0  0  0
  1  4  1  0  0  0  0
  2  6  1  0  0  0  0
  2 27  1  0  0  0  0
  2 28  1  0  0  0  0
  4  5  1  0  0  0  0
  4 29  1  0  0  0  0
  5 30  1  0  0  0  0
  5 31  1  0  0  0  0
  5 32  1  0  0  0  0
  6  8  1  0  0  0  0
  6 33  1  0  0  0  0
  7  8  2  0  0  0  0
  7 16  1  0  0  0  0
  8  9  1  0  0  0  0
  9 10  2  0  0  0  0
  9 34  1  0  0  0  0
 10 11  1  0  0  0  0
 11 12  1  0  0  0  0
 11 16  2  0  0  0  0
 12 13  2  0  0  0  0
 12 35  1  0  0  0  0
 13 14  1  0  0  0  0
 13 36  1  0  0  0  0
 14 15  2  0  0  0  0
 14 17  1  0  0  0  0
 15 16  1  0  0  0  0
 15 37  1  0  0  0  0
 17 18  2  0  0  0  0
 17 22  1  0  0  0  0
 18 19  1  0  0  0  0
 18 38  1  0  0  0  0
 19 20  2  0  0  0  0
 19 25  1  0  0  0  0
 20 21  1  0  0  0  0
 20 23  1  0  0  0  0
 21 22  2  0  0  0  0
 21 39  1  0  0  0  0
 22 40  1  0  0  0  0
 23 24  1  0  0  0  0
 24 41  1  0  0  0  0
 24 42  1  0  0  0  0
 24 43  1  0  0  0  0
 25 26  1  0  0  0  0
 26 44  1  0  0  0  0
 26 45  1  0  0  0  0
 26 46  1  0  0  0  0
M  END
>  <Mol_ID>
3841

>  <Formula>
C19H20N4O3

>  <MolWeight>
352.3871

>  <Cat>
S6571

>  <Name>
BQR695

>  <Synonyms>
NVP-BQR695

>  <Target>
PI4K

>  <Form>
free base

>  <CAS>
1513879-21-4

>  <URL>
http://www.selleck.cn/products/bqr695.html

$$$$
