Bractoppin
 OpenBabel08302521323D

 54 58  0  0  0  0  0  0  0  0999 V2000
    0.8105   -0.1484    0.2130 C   0  0  0  0  0  0  0  0  0  0  0  0
    0.2797   -1.1347   -0.2817 O   0  0  0  0  0  0  0  0  0  0  0  0
   -1.4117    4.8039    2.6543 C   0  0  0  0  0  0  0  0  0  0  0  0
   -2.0363    4.5230    1.5222 N   0  0  0  0  0  0  0  0  0  0  0  0
   -1.5105    3.3344    1.0809 C   0  0  0  0  0  0  0  0  0  0  0  0
   -0.5411    2.8743    1.9538 C   0  0  0  0  0  0  0  0  0  0  0  0
   -0.4890    3.8265    2.9374 N   0  0  0  0  0  0  0  0  0  0  0  0
   -1.8096    2.5825   -0.0664 C   0  0  0  0  0  0  0  0  0  0  0  0
   -1.0519    1.4229   -0.3233 C   0  0  0  0  0  0  0  0  0  0  0  0
   -0.0395    1.0237    0.5557 C   0  0  0  0  0  0  0  0  0  0  0  0
    0.1844    1.7051    1.7640 C   0  0  0  0  0  0  0  0  0  0  0  0
   -1.5992    5.9864    3.4934 C   0  0  0  0  0  0  0  0  0  0  0  0
   -1.3104    5.9689    4.8689 C   0  0  0  0  0  0  0  0  0  0  0  0
   -1.4820    7.1185    5.6425 C   0  0  0  0  0  0  0  0  0  0  0  0
   -1.9431    8.2934    5.0533 C   0  0  0  0  0  0  0  0  0  0  0  0
   -2.2395    8.3212    3.6929 C   0  0  0  0  0  0  0  0  0  0  0  0
   -2.0730    7.1724    2.9180 C   0  0  0  0  0  0  0  0  0  0  0  0
    2.1834   -0.0844    0.5124 N   0  0  0  0  0  0  0  0  0  0  0  0
    2.9923   -1.2829    0.2789 C   0  0  0  0  0  0  0  0  0  0  0  0
    4.2656   -1.2907    1.1525 C   0  0  0  0  0  0  0  0  0  0  0  0
    5.0885   -0.0558    1.1192 N   0  0  0  0  0  0  0  0  0  0  0  0
    4.2200    1.1184    1.3122 C   0  0  0  0  0  0  0  0  0  0  0  0
    2.9526    1.1629    0.4391 C   0  0  0  0  0  0  0  0  0  0  0  0
    5.9188    0.0717   -0.0932 C   0  0  0  0  0  0  0  0  0  0  0  0
    6.9796   -1.0019   -0.1791 C   0  0  0  0  0  0  0  0  0  0  0  0
    7.0329   -1.8521   -1.2854 C   0  0  0  0  0  0  0  0  0  0  0  0
    7.8914   -2.9469   -1.3144 C   0  0  0  0  0  0  0  0  0  0  0  0
    8.7427   -3.1874   -0.2378 C   0  0  0  0  0  0  0  0  0  0  0  0
    8.7639   -2.3029    0.8407 C   0  0  0  0  0  0  0  0  0  0  0  0
    7.8915   -1.2113    0.8685 C   0  0  0  0  0  0  0  0  0  0  0  0
    6.2256   -1.6377   -2.3341 F   0  0  0  0  0  0  0  0  0  0  0  0
    0.1573    3.8406    3.7121 H   0  0  0  0  0  0  0  0  0  0  0  0
   -2.5879    2.9097   -0.7473 H   0  0  0  0  0  0  0  0  0  0  0  0
   -1.2520    0.8431   -1.2269 H   0  0  0  0  0  0  0  0  0  0  0  0
    0.9288    1.3708    2.4760 H   0  0  0  0  0  0  0  0  0  0  0  0
   -0.9729    5.0612    5.3619 H   0  0  0  0  0  0  0  0  0  0  0  0
   -1.2651    7.0926    6.7072 H   0  0  0  0  0  0  0  0  0  0  0  0
   -2.0791    9.1857    5.6559 H   0  0  0  0  0  0  0  0  0  0  0  0
   -2.6058    9.2354    3.2315 H   0  0  0  0  0  0  0  0  0  0  0  0
   -2.3114    7.2013    1.8561 H   0  0  0  0  0  0  0  0  0  0  0  0
    2.3974   -2.1772    0.4962 H   0  0  0  0  0  0  0  0  0  0  0  0
    3.2500   -1.3082   -0.7866 H   0  0  0  0  0  0  0  0  0  0  0  0
    3.9521   -1.4281    2.1961 H   0  0  0  0  0  0  0  0  0  0  0  0
    4.8641   -2.1779    0.9188 H   0  0  0  0  0  0  0  0  0  0  0  0
    3.9084    1.1203    2.3658 H   0  0  0  0  0  0  0  0  0  0  0  0
    4.7892    2.0463    1.1749 H   0  0  0  0  0  0  0  0  0  0  0  0
    3.2073    1.3177   -0.6154 H   0  0  0  0  0  0  0  0  0  0  0  0
    2.3628    2.0301    0.7334 H   0  0  0  0  0  0  0  0  0  0  0  0
    5.2974    0.0824   -0.9964 H   0  0  0  0  0  0  0  0  0  0  0  0
    6.4511    1.0316   -0.0741 H   0  0  0  0  0  0  0  0  0  0  0  0
    7.8757   -3.6157   -2.1691 H   0  0  0  0  0  0  0  0  0  0  0  0
    9.3874   -4.0624   -0.2379 H   0  0  0  0  0  0  0  0  0  0  0  0
    9.4414   -2.4768    1.6730 H   0  0  0  0  0  0  0  0  0  0  0  0
    7.8940   -0.5452    1.7296 H   0  0  0  0  0  0  0  0  0  0  0  0
  1  2  2  0  0  0  0
  1 10  1  0  0  0  0
  1 18  1  0  0  0  0
  3  4  2  0  0  0  0
  3  7  1  0  0  0  0
  3 12  1  0  0  0  0
  4  5  1  0  0  0  0
  5  6  2  0  0  0  0
  6  7  1  0  0  0  0
  7 32  1  0  0  0  0
  8  9  2  0  0  0  0
  8  5  1  0  0  0  0
  8 33  1  0  0  0  0
  9 10  1  0  0  0  0
  9 34  1  0  0  0  0
 10 11  2  0  0  0  0
 11  6  1  0  0  0  0
 11 35  1  0  0  0  0
 12 13  2  0  0  0  0
 12 17  1  0  0  0  0
 13 14  1  0  0  0  0
 13 36  1  0  0  0  0
 14 15  2  0  0  0  0
 14 37  1  0  0  0  0
 15 16  1  0  0  0  0
 15 38  1  0  0  0  0
 16 17  2  0  0  0  0
 16 39  1  0  0  0  0
 17 40  1  0  0  0  0
 18 19  1  0  0  0  0
 18 23  1  0  0  0  0
 19 20  1  0  0  0  0
 19 41  1  0  0  0  0
 19 42  1  0  0  0  0
 20 21  1  0  0  0  0
 20 43  1  0  0  0  0
 20 44  1  0  0  0  0
 21 22  1  0  0  0  0
 21 24  1  0  0  0  0
 22 23  1  0  0  0  0
 22 45  1  0  0  0  0
 22 46  1  0  0  0  0
 23 47  1  0  0  0  0
 23 48  1  0  0  0  0
 24 25  1  0  0  0  0
 24 49  1  0  0  0  0
 24 50  1  0  0  0  0
 25 26  2  0  0  0  0
 25 30  1  0  0  0  0
 26 27  1  0  0  0  0
 26 31  1  0  0  0  0
 27 28  2  0  0  0  0
 27 51  1  0  0  0  0
 28 29  1  0  0  0  0
 28 52  1  0  0  0  0
 29 30  2  0  0  0  0
 29 53  1  0  0  0  0
 30 54  1  0  0  0  0
M  END
>  <Mol_ID>
6223

>  <Formula>
C25H23FN4O

>  <MolWeight>
414.4747232

>  <Cat>
S3547

>  <Name>
Bractoppin

>  <Synonyms>
N/A

>  <Target>
Others

>  <Form>
free base

>  <CAS>
2290527-07-8

>  <URL>
http://www.selleckchem.com/products/bractoppin.html

$$$$
