Branebrutinib (BMS-986195)
 OpenBabel08302521343D

 50 52  0  0  0  0  0  0  0  0999 V2000
    1.1269   -0.3957    0.1675 C   0  0  0  0  0  0  0  0  0  0  0  0
   -2.3647   -0.0738   -4.4038 F   0  0  0  0  0  0  0  0  0  0  0  0
   -1.1834   -4.7250   -3.6310 C   0  0  0  0  0  0  0  0  0  0  0  0
   -1.8941   -5.1148   -4.7327 N   0  0  0  0  0  0  0  0  0  0  0  0
   -0.5854   -5.5583   -2.9550 O   0  0  0  0  0  0  0  0  0  0  0  0
    1.7032   -3.4485    0.7943 C   0  0  0  0  0  0  0  0  0  0  0  0
    0.0744    4.1177   -3.8385 N   0  0  0  0  0  0  0  0  0  0  0  0
    1.1801    4.8430   -4.2043 C   0  0  0  0  0  0  0  0  0  0  0  0
    2.4929    4.2480   -4.1103 C   0  0  0  0  0  0  0  0  0  0  0  0
    1.0666    5.9825   -4.6349 O   0  0  0  0  0  0  0  0  0  0  0  0
    3.5970    3.7687   -4.0869 C   0  0  0  0  0  0  0  0  0  0  0  0
    4.9462    3.2042   -4.1118 C   0  0  0  0  0  0  0  0  0  0  0  0
   -0.3315   -1.5198   -1.7231 C   0  0  0  0  0  0  0  0  0  0  0  0
   -0.9822   -0.4882   -2.4913 C   0  0  0  0  0  0  0  0  0  0  0  0
   -0.4502   -2.8596   -2.1273 C   0  0  0  0  0  0  0  0  0  0  0  0
    0.5592   -1.5453   -0.5748 C   0  0  0  0  0  0  0  0  0  0  0  0
   -1.6988   -0.9502   -3.6295 C   0  0  0  0  0  0  0  0  0  0  0  0
   -1.1562   -3.2788   -3.2707 C   0  0  0  0  0  0  0  0  0  0  0  0
    0.2607   -3.6363   -1.2314 N   0  0  0  0  0  0  0  0  0  0  0  0
    0.8588   -2.8627   -0.2809 C   0  0  0  0  0  0  0  0  0  0  0  0
   -1.7831   -2.2867   -4.0175 C   0  0  0  0  0  0  0  0  0  0  0  0
   -0.8723    0.8769   -2.1958 N   0  0  0  0  0  0  0  0  0  0  0  0
   -0.9349    1.8991   -3.2530 C   0  0  0  0  0  0  0  0  0  0  0  0
   -1.3360    1.3658   -0.8974 C   0  0  0  0  0  0  0  0  0  0  0  0
    0.0745    3.0122   -2.8851 C   0  0  2  0  0  0  0  0  0  0  0  0
   -0.3695    2.4664   -0.4359 C   0  0  0  0  0  0  0  0  0  0  0  0
   -0.2102    3.5703   -1.4766 C   0  0  0  0  0  0  0  0  0  0  0  0
    0.3795    0.0484    0.8292 H   0  0  0  0  0  0  0  0  0  0  0  0
    1.5245    0.3274   -0.5452 H   0  0  0  0  0  0  0  0  0  0  0  0
    1.9682   -0.6750    0.8055 H   0  0  0  0  0  0  0  0  0  0  0  0
   -1.8897   -6.1013   -4.9569 H   0  0  0  0  0  0  0  0  0  0  0  0
   -2.4264   -4.5039   -5.3336 H   0  0  0  0  0  0  0  0  0  0  0  0
    1.1476   -4.2013    1.3600 H   0  0  0  0  0  0  0  0  0  0  0  0
    2.6017   -3.9065    0.3709 H   0  0  0  0  0  0  0  0  0  0  0  0
    2.0294   -2.6883    1.5113 H   0  0  0  0  0  0  0  0  0  0  0  0
   -0.7709    4.6682   -3.9188 H   0  0  0  0  0  0  0  0  0  0  0  0
    5.2052    2.8629   -5.1194 H   0  0  0  0  0  0  0  0  0  0  0  0
    5.6890    3.9494   -3.8098 H   0  0  0  0  0  0  0  0  0  0  0  0
    5.0281    2.3474   -3.4362 H   0  0  0  0  0  0  0  0  0  0  0  0
    0.3421   -4.6445   -1.3230 H   0  0  0  0  0  0  0  0  0  0  0  0
   -2.3410   -2.5085   -4.9187 H   0  0  0  0  0  0  0  0  0  0  0  0
   -1.9524    2.3090   -3.3297 H   0  0  0  0  0  0  0  0  0  0  0  0
   -0.6654    1.5030   -4.2389 H   0  0  0  0  0  0  0  0  0  0  0  0
   -1.4222    0.5754   -0.1470 H   0  0  0  0  0  0  0  0  0  0  0  0
   -2.3442    1.7887   -0.9971 H   0  0  0  0  0  0  0  0  0  0  0  0
    1.0691    2.5512   -2.8725 H   0  0  0  0  0  0  0  0  0  0  0  0
    0.6307    2.0686   -0.2648 H   0  0  0  0  0  0  0  0  0  0  0  0
   -0.6959    2.8820    0.5224 H   0  0  0  0  0  0  0  0  0  0  0  0
    0.6104    4.2334   -1.1737 H   0  0  0  0  0  0  0  0  0  0  0  0
   -1.1195    4.1823   -1.4865 H   0  0  0  0  0  0  0  0  0  0  0  0
  1 16  1  0  0  0  0
  1 28  1  0  0  0  0
  1 29  1  0  0  0  0
  1 30  1  0  0  0  0
  2 17  1  0  0  0  0
  3  4  1  0  0  0  0
  3  5  2  0  0  0  0
  3 18  1  0  0  0  0
  4 31  1  0  0  0  0
  4 32  1  0  0  0  0
  6 20  1  0  0  0  0
  6 33  1  0  0  0  0
  6 34  1  0  0  0  0
  6 35  1  0  0  0  0
  7  8  1  0  0  0  0
  7 36  1  0  0  0  0
  8  9  1  0  0  0  0
  8 10  2  0  0  0  0
  9 11  3  0  0  0  0
 11 12  1  0  0  0  0
 12 37  1  0  0  0  0
 12 38  1  0  0  0  0
 12 39  1  0  0  0  0
 13 14  2  0  0  0  0
 13 15  1  0  0  0  0
 13 16  1  0  0  0  0
 14 17  1  0  0  0  0
 14 22  1  0  0  0  0
 15 18  2  0  0  0  0
 15 19  1  0  0  0  0
 16 20  2  0  0  0  0
 17 21  2  0  0  0  0
 18 21  1  0  0  0  0
 19 20  1  0  0  0  0
 19 40  1  0  0  0  0
 21 41  1  0  0  0  0
 22 23  1  0  0  0  0
 22 24  1  0  0  0  0
 23 25  1  0  0  0  0
 23 42  1  0  0  0  0
 23 43  1  0  0  0  0
 24 26  1  0  0  0  0
 24 44  1  0  0  0  0
 24 45  1  0  0  0  0
 25  7  1  0  0  0  0
 25 27  1  0  0  0  0
 25 46  1  1  0  0  0
 26 27  1  0  0  0  0
 26 47  1  0  0  0  0
 26 48  1  0  0  0  0
 27 49  1  0  0  0  0
 27 50  1  0  0  0  0
M  END
>  <Mol_ID>
6575

>  <Formula>
C20H23FN4O2

>  <MolWeight>
370.4206232

>  <Cat>
S8832

>  <Name>
Branebrutinib (BMS-986195)

>  <Synonyms>
N/A

>  <Target>
BTK

>  <Form>
free base

>  <CAS>
1912445-55-6

>  <URL>
http://www.selleckchem.com/products/branebrutinib.html

$$$$
