Branaplam (LMI070)
 OpenBabel08302521453D

 56 59  0  0  0  0  0  0  0  0999 V2000
    1.0723   -0.1110    0.0091 O   0  0  0  0  0  0  0  0  0  0  0  0
    6.3807   -2.2603    2.2437 O   0  0  0  0  0  0  0  0  0  0  0  0
   -1.7641   -2.9364   -1.2605 N   0  0  0  0  0  0  0  0  0  0  0  0
    2.9778   -1.3663    0.6170 N   0  0  0  0  0  0  0  0  0  0  0  0
    4.3363   -1.5051    0.6656 N   0  0  0  0  0  0  0  0  0  0  0  0
   12.8337   -1.9251    1.2929 N   0  0  0  0  0  0  0  0  0  0  0  0
   13.0925   -0.7067    0.7957 N   0  0  0  0  0  0  0  0  0  0  0  0
   -0.3703   -3.2549   -1.5828 C   0  0  0  0  0  0  0  0  0  0  0  0
   -2.0628   -2.2235   -0.0134 C   0  0  0  0  0  0  0  0  0  0  0  0
    0.5547   -2.0519   -1.3605 C   0  0  0  0  0  0  0  0  0  0  0  0
   -1.1224   -1.0248    0.2005 C   0  0  0  0  0  0  0  0  0  0  0  0
    0.3557   -1.3634   -0.0070 C   0  0  0  0  0  0  0  0  0  0  0  0
   -0.3487   -3.5970   -3.0889 C   0  0  0  0  0  0  0  0  0  0  0  0
    0.1407   -4.4985   -0.8345 C   0  0  0  0  0  0  0  0  0  0  0  0
   -3.5035   -1.6901   -0.1746 C   0  0  0  0  0  0  0  0  0  0  0  0
   -2.0722   -3.1574    1.2100 C   0  0  0  0  0  0  0  0  0  0  0  0
    2.4398   -0.2528    0.0849 C   0  0  0  0  0  0  0  0  0  0  0  0
    3.2121    0.7823   -0.3927 C   0  0  0  0  0  0  0  0  0  0  0  0
    4.5950    0.6408   -0.3389 C   0  0  0  0  0  0  0  0  0  0  0  0
    5.1429   -0.5236    0.1930 C   0  0  0  0  0  0  0  0  0  0  0  0
    6.5919   -0.7537    0.3299 C   0  0  0  0  0  0  0  0  0  0  0  0
    7.1442   -1.5592    1.3446 C   0  0  0  0  0  0  0  0  0  0  0  0
    7.5011   -0.1354   -0.5500 C   0  0  0  0  0  0  0  0  0  0  0  0
    9.4085   -1.0316    0.6524 C   0  0  0  0  0  0  0  0  0  0  0  0
    8.5257   -1.6872    1.5137 C   0  0  0  0  0  0  0  0  0  0  0  0
    8.8839   -0.2626   -0.3879 C   0  0  0  0  0  0  0  0  0  0  0  0
   10.8450   -1.1372    0.8204 C   0  0  0  0  0  0  0  0  0  0  0  0
   11.5054   -2.2311    1.3310 C   0  0  0  0  0  0  0  0  0  0  0  0
   11.8813   -0.2257    0.5078 C   0  0  0  0  0  0  0  0  0  0  0  0
    5.4508   -2.2442    1.9368 H   0  0  0  0  0  0  0  0  0  0  0  0
   -2.3552   -3.7627   -1.3562 H   0  0  0  0  0  0  0  0  0  0  0  0
   13.6186   -2.5013    1.5843 H   0  0  0  0  0  0  0  0  0  0  0  0
    1.5999   -2.3739   -1.4629 H   0  0  0  0  0  0  0  0  0  0  0  0
    0.4139   -1.3042   -2.1549 H   0  0  0  0  0  0  0  0  0  0  0  0
   -1.2515   -0.6159    1.2124 H   0  0  0  0  0  0  0  0  0  0  0  0
   -1.3940   -0.1994   -0.4730 H   0  0  0  0  0  0  0  0  0  0  0  0
    0.6787   -2.0017    0.8245 H   0  0  0  0  0  0  0  0  0  0  0  0
   -0.9932   -4.4539   -3.3174 H   0  0  0  0  0  0  0  0  0  0  0  0
   -0.6907   -2.7517   -3.6985 H   0  0  0  0  0  0  0  0  0  0  0  0
    0.6660   -3.8491   -3.4206 H   0  0  0  0  0  0  0  0  0  0  0  0
    0.2889   -4.3249    0.2319 H   0  0  0  0  0  0  0  0  0  0  0  0
   -0.5481   -5.3437   -0.9501 H   0  0  0  0  0  0  0  0  0  0  0  0
    1.1127   -4.8176   -1.2300 H   0  0  0  0  0  0  0  0  0  0  0  0
   -4.2217   -2.5089   -0.3059 H   0  0  0  0  0  0  0  0  0  0  0  0
   -3.8141   -1.1182    0.7077 H   0  0  0  0  0  0  0  0  0  0  0  0
   -3.5939   -1.0282   -1.0442 H   0  0  0  0  0  0  0  0  0  0  0  0
   -2.4983   -2.6490    2.0834 H   0  0  0  0  0  0  0  0  0  0  0  0
   -2.6847   -4.0481    1.0255 H   0  0  0  0  0  0  0  0  0  0  0  0
   -1.0756   -3.4876    1.5047 H   0  0  0  0  0  0  0  0  0  0  0  0
    2.7594    1.6744   -0.8092 H   0  0  0  0  0  0  0  0  0  0  0  0
    5.2230    1.4503   -0.6959 H   0  0  0  0  0  0  0  0  0  0  0  0
    7.1472    0.4576   -1.3910 H   0  0  0  0  0  0  0  0  0  0  0  0
    8.8933   -2.2935    2.3377 H   0  0  0  0  0  0  0  0  0  0  0  0
    9.5389    0.2421   -1.0945 H   0  0  0  0  0  0  0  0  0  0  0  0
   11.1631   -3.1907    1.6948 H   0  0  0  0  0  0  0  0  0  0  0  0
   11.8014    0.7695    0.0876 H   0  0  0  0  0  0  0  0  0  0  0  0
  1 12  1  0  0  0  0
  1 17  1  0  0  0  0
  2 22  1  0  0  0  0
  2 30  1  0  0  0  0
  3  8  1  0  0  0  0
  3  9  1  0  0  0  0
  3 31  1  0  0  0  0
  4  5  2  0  0  0  0
  4 17  1  0  0  0  0
  5 20  1  0  0  0  0
  6  7  1  0  0  0  0
  6 28  1  0  0  0  0
  6 32  1  0  0  0  0
  7 29  2  0  0  0  0
  8 10  1  0  0  0  0
  8 13  1  0  0  0  0
  8 14  1  0  0  0  0
  9 11  1  0  0  0  0
  9 15  1  0  0  0  0
  9 16  1  0  0  0  0
 10 12  1  0  0  0  0
 10 33  1  0  0  0  0
 10 34  1  0  0  0  0
 11 12  1  0  0  0  0
 11 35  1  0  0  0  0
 11 36  1  0  0  0  0
 12 37  1  0  0  0  0
 13 38  1  0  0  0  0
 13 39  1  0  0  0  0
 13 40  1  0  0  0  0
 14 41  1  0  0  0  0
 14 42  1  0  0  0  0
 14 43  1  0  0  0  0
 15 44  1  0  0  0  0
 15 45  1  0  0  0  0
 15 46  1  0  0  0  0
 16 47  1  0  0  0  0
 16 48  1  0  0  0  0
 16 49  1  0  0  0  0
 17 18  2  0  0  0  0
 18 19  1  0  0  0  0
 18 50  1  0  0  0  0
 19 20  2  0  0  0  0
 19 51  1  0  0  0  0
 20 21  1  0  0  0  0
 21 22  2  0  0  0  0
 21 23  1  0  0  0  0
 22 25  1  0  0  0  0
 23 26  2  0  0  0  0
 23 52  1  0  0  0  0
 24 25  2  0  0  0  0
 24 26  1  0  0  0  0
 24 27  1  0  0  0  0
 25 53  1  0  0  0  0
 26 54  1  0  0  0  0
 27 28  2  0  0  0  0
 27 29  1  0  0  0  0
 28 55  1  0  0  0  0
 29 56  1  0  0  0  0
M  END
>  <Mol_ID>
9347

>  <Formula>
C22H27N5O2

>  <MolWeight>
393.48208

>  <Cat>
S6642

>  <Name>
Branaplam (LMI070)

>  <Synonyms>
N/A

>  <Target>
SMN

>  <Form>
Free Base

>  <CAS>
1562338-42-4

>  <URL>
http://www.selleck.cn/products/branaplam-lmi070.html

$$$$
