Brassinazole
 OpenBabel08302521243D

 41 43  0  0  0  0  0  0  0  0999 V2000
    1.0155    0.1232   -0.0375 C   0  0  3  0  0  0  0  0  0  0  0  0
    0.4169    1.3358    0.5068 N   0  0  0  0  0  0  0  0  0  0  0  0
    0.4459   -0.2957   -1.4357 C   0  0  3  0  0  0  0  0  0  0  0  0
    0.0717    3.3669    1.2580 N   0  0  0  0  0  0  0  0  0  0  0  0
   -0.8444    1.3012    0.9900 N   0  0  0  0  0  0  0  0  0  0  0  0
    0.9581    2.5707    0.7011 C   0  0  0  0  0  0  0  0  0  0  0  0
   -1.0078    2.5544    1.4174 C   0  0  0  0  0  0  0  0  0  0  0  0
    2.5753    0.0950    0.0415 C   0  0  0  0  0  0  0  0  0  0  0  0
    0.5674    0.7555   -2.5579 C   0  0  0  0  0  0  0  0  0  0  0  0
    1.1155   -1.5314   -1.8094 O   0  0  0  0  0  0  0  0  0  0  0  0
    3.0903    0.0582    1.4706 C   0  0  0  0  0  0  0  0  0  0  0  0
    3.8005    0.1094    4.1850 C   0  0  0  0  0  0  0  0  0  0  0  0
    2.7112   -0.9843    2.3314 C   0  0  0  0  0  0  0  0  0  0  0  0
    3.9078    1.0798    1.9714 C   0  0  0  0  0  0  0  0  0  0  0  0
   -1.0194   -0.7875   -1.3025 C   0  0  0  0  0  0  0  0  0  0  0  0
    4.2519    1.1095    3.3245 C   0  0  0  0  0  0  0  0  0  0  0  0
    3.0478   -0.9488    3.6842 C   0  0  0  0  0  0  0  0  0  0  0  0
    1.6564    0.8082   -3.4431 C   0  0  0  0  0  0  0  0  0  0  0  0
   -0.4860    1.6674   -2.7963 C   0  0  0  0  0  0  0  0  0  0  0  0
   -0.5050    2.4950   -3.9237 C   0  0  0  0  0  0  0  0  0  0  0  0
    1.6358    1.6355   -4.5737 C   0  0  0  0  0  0  0  0  0  0  0  0
    0.5470    2.4596   -4.8277 C   0  0  0  0  0  0  0  0  0  0  0  0
    0.6797   -0.6656    0.6505 H   0  0  0  0  0  0  0  0  0  0  0  0
    1.9725    2.8407    0.4524 H   0  0  0  0  0  0  0  0  0  0  0  0
   -1.9403    2.8798    1.8592 H   0  0  0  0  0  0  0  0  0  0  0  0
    2.9798   -0.7979   -0.4500 H   0  0  0  0  0  0  0  0  0  0  0  0
    3.0020    0.9504   -0.4967 H   0  0  0  0  0  0  0  0  0  0  0  0
    1.8978   -1.3459   -2.3404 H   0  0  0  0  0  0  0  0  0  0  0  0
    4.0343    0.1540    5.2457 H   0  0  0  0  0  0  0  0  0  0  0  0
    2.1207   -1.8218    1.9651 H   0  0  0  0  0  0  0  0  0  0  0  0
    4.2621    1.8794    1.3256 H   0  0  0  0  0  0  0  0  0  0  0  0
   -1.0813   -1.6348   -0.6095 H   0  0  0  0  0  0  0  0  0  0  0  0
   -1.7170   -0.0238   -0.9503 H   0  0  0  0  0  0  0  0  0  0  0  0
   -1.3939   -1.1530   -2.2666 H   0  0  0  0  0  0  0  0  0  0  0  0
    4.8537    1.9251    3.7163 H   0  0  0  0  0  0  0  0  0  0  0  0
    2.7042   -1.7372    4.3490 H   0  0  0  0  0  0  0  0  0  0  0  0
    2.5334    0.1834   -3.3180 H   0  0  0  0  0  0  0  0  0  0  0  0
   -1.3444    1.7256   -2.1289 H   0  0  0  0  0  0  0  0  0  0  0  0
   -1.3570    3.1454   -4.1057 H   0  0  0  0  0  0  0  0  0  0  0  0
    2.4662    1.6122   -5.2753 H   0  0  0  0  0  0  0  0  0  0  0  0
    0.5151    3.0674   -5.7293 H   0  0  0  0  0  0  0  0  0  0  0  0
  1 23  1  0  0  0  0
  2  1  1  0  0  0  0
  3  1  1  0  0  0  0
  4  6  2  0  0  0  0
  5  2  1  0  0  0  0
  6  2  1  0  0  0  0
  6 24  1  0  0  0  0
  7  4  1  0  0  0  0
  7  5  2  0  0  0  0
  7 25  1  0  0  0  0
  8  1  1  0  0  0  0
  8 26  1  0  0  0  0
  8 27  1  0  0  0  0
  9  3  1  0  0  0  0
 10  3  1  0  0  0  0
 10 28  1  0  0  0  0
 11  8  1  0  0  0  0
 12 16  2  0  0  0  0
 12 17  1  0  0  0  0
 12 29  1  0  0  0  0
 13 11  1  0  0  0  0
 13 30  1  0  0  0  0
 14 11  2  0  0  0  0
 14 31  1  0  0  0  0
 15  3  1  0  0  0  0
 15 32  1  0  0  0  0
 15 33  1  0  0  0  0
 15 34  1  0  0  0  0
 16 14  1  0  0  0  0
 16 35  1  0  0  0  0
 17 13  2  0  0  0  0
 17 36  1  0  0  0  0
 18  9  2  0  0  0  0
 18 37  1  0  0  0  0
 19  9  1  0  0  0  0
 19 38  1  0  0  0  0
 20 19  2  0  0  0  0
 20 39  1  0  0  0  0
 21 18  1  0  0  0  0
 21 40  1  0  0  0  0
 22 20  1  0  0  0  0
 22 21  2  0  0  0  0
 22 41  1  0  0  0  0
M  END
>  <Mol_ID>
4929

>  <Formula>
C18H18ClN3O

>  <MolWeight>
327.80802

>  <Cat>
S6781

>  <Name>
Brassinazole

>  <Synonyms>
BRZ

>  <Target>
Others

>  <Form>
Free Base

>  <CAS>
224047-41-0

>  <URL>
http://www.selleckchem.com/products/brassinazole.html

$$$$
