BRD0705
 OpenBabel08302521353D

 47 50  0  0  0  0  0  0  0  0999 V2000
    1.2507    1.4228   -0.1466 N   0  0  0  0  0  0  0  0  0  0  0  0
    2.3769    0.7786   -0.1519 C   0  0  0  0  0  0  0  0  0  0  0  0
    2.4965   -0.6990   -0.0677 C   0  0  0  0  0  0  0  0  0  0  0  0
    1.2698   -1.5559   -0.0707 C   0  0  1  0  0  0  0  0  0  0  0  0
    0.0242   -0.6696   -0.0580 C   0  0  0  0  0  0  0  0  0  0  0  0
   -1.3027   -1.3552    0.0996 C   0  0  0  0  0  0  0  0  0  0  0  0
   -2.5147   -0.5311    0.4187 C   0  0  0  0  0  0  0  0  0  0  0  0
   -2.4938    0.8030   -0.3267 C   0  0  0  0  0  0  0  0  0  0  0  0
   -1.1796    1.5447    0.0077 C   0  0  0  0  0  0  0  0  0  0  0  0
    0.0768    0.6913   -0.0743 C   0  0  0  0  0  0  0  0  0  0  0  0
    4.5165    0.2989    0.2041 N   0  0  0  0  0  0  0  0  0  0  0  0
    3.6575    1.3247   -0.1500 N   0  0  0  0  0  0  0  0  0  0  0  0
    3.8046   -0.8864    0.1402 C   0  0  0  0  0  0  0  0  0  0  0  0
   -1.4058   -2.5828    0.0488 O   0  0  0  0  0  0  0  0  0  0  0  0
    1.3186   -2.4523   -1.3400 C   0  0  0  0  0  0  0  0  0  0  0  0
    1.3274   -3.8527   -1.2581 C   0  0  0  0  0  0  0  0  0  0  0  0
    1.4032   -4.6510   -2.4082 C   0  0  0  0  0  0  0  0  0  0  0  0
    1.4294   -4.0726   -3.6731 C   0  0  0  0  0  0  0  0  0  0  0  0
    1.4249   -2.6910   -3.7892 C   0  0  0  0  0  0  0  0  0  0  0  0
    1.3929   -1.8927   -2.6376 C   0  0  0  0  0  0  0  0  0  0  0  0
   -2.6230    0.5842   -1.8489 C   0  0  0  0  0  0  0  0  0  0  0  0
   -3.7090    1.6185    0.1412 C   0  0  0  0  0  0  0  0  0  0  0  0
    1.3022   -2.3245    1.3067 C   0  0  0  0  0  0  0  0  0  0  0  0
    1.2836   -1.4047    2.5435 C   0  0  0  0  0  0  0  0  0  0  0  0
   -2.5394   -0.3870    1.5075 H   0  0  0  0  0  0  0  0  0  0  0  0
   -3.4064   -1.1105    0.1439 H   0  0  0  0  0  0  0  0  0  0  0  0
   -1.0730    2.4093   -0.6612 H   0  0  0  0  0  0  0  0  0  0  0  0
   -1.2325    1.9477    1.0292 H   0  0  0  0  0  0  0  0  0  0  0  0
    5.4327    0.2616   -0.2455 H   0  0  0  0  0  0  0  0  0  0  0  0
    3.7362    2.2194    0.3308 H   0  0  0  0  0  0  0  0  0  0  0  0
    4.3235   -1.8255    0.2993 H   0  0  0  0  0  0  0  0  0  0  0  0
    1.2857   -4.3544   -0.2965 H   0  0  0  0  0  0  0  0  0  0  0  0
    1.4430   -5.7325   -2.3093 H   0  0  0  0  0  0  0  0  0  0  0  0
    1.4563   -4.6963   -4.5629 H   0  0  0  0  0  0  0  0  0  0  0  0
    1.4432   -2.2236   -4.7714 H   0  0  0  0  0  0  0  0  0  0  0  0
    1.4492   -0.8153   -2.7871 H   0  0  0  0  0  0  0  0  0  0  0  0
   -3.5239    0.0068   -2.0893 H   0  0  0  0  0  0  0  0  0  0  0  0
   -2.6927    1.5432   -2.3752 H   0  0  0  0  0  0  0  0  0  0  0  0
   -1.7676    0.0472   -2.2696 H   0  0  0  0  0  0  0  0  0  0  0  0
   -3.6933    1.7664    1.2269 H   0  0  0  0  0  0  0  0  0  0  0  0
   -3.7357    2.6030   -0.3350 H   0  0  0  0  0  0  0  0  0  0  0  0
   -4.6428    1.0976   -0.1043 H   0  0  0  0  0  0  0  0  0  0  0  0
    0.4573   -3.0143    1.3941 H   0  0  0  0  0  0  0  0  0  0  0  0
    2.1930   -2.9624    1.3701 H   0  0  0  0  0  0  0  0  0  0  0  0
    0.3737   -0.7985    2.5931 H   0  0  0  0  0  0  0  0  0  0  0  0
    1.3251   -2.0006    3.4585 H   0  0  0  0  0  0  0  0  0  0  0  0
    2.1390   -0.7238    2.5575 H   0  0  0  0  0  0  0  0  0  0  0  0
  1  2  2  0  0  0  0
  1 10  1  0  0  0  0
  2  3  1  0  0  0  0
  3  4  1  0  0  0  0
  4  5  1  0  0  0  0
  4 23  1  1  0  0  0
  4 15  1  0  0  0  0
  5  6  1  0  0  0  0
  5 10  2  0  0  0  0
  6  7  1  0  0  0  0
  6 14  2  0  0  0  0
  7  8  1  0  0  0  0
  7 25  1  0  0  0  0
  7 26  1  0  0  0  0
  8  9  1  0  0  0  0
  8 21  1  0  0  0  0
  8 22  1  0  0  0  0
  9 10  1  0  0  0  0
  9 27  1  0  0  0  0
  9 28  1  0  0  0  0
 11 12  1  0  0  0  0
 11 13  1  0  0  0  0
 11 29  1  0  0  0  0
 12  2  1  0  0  0  0
 12 30  1  0  0  0  0
 13  3  2  0  0  0  0
 13 31  1  0  0  0  0
 15 16  2  0  0  0  0
 15 20  1  0  0  0  0
 16 17  1  0  0  0  0
 16 32  1  0  0  0  0
 17 18  2  0  0  0  0
 17 33  1  0  0  0  0
 18 19  1  0  0  0  0
 18 34  1  0  0  0  0
 19 20  2  0  0  0  0
 19 35  1  0  0  0  0
 20 36  1  0  0  0  0
 21 37  1  0  0  0  0
 21 38  1  0  0  0  0
 21 39  1  0  0  0  0
 22 40  1  0  0  0  0
 22 41  1  0  0  0  0
 22 42  1  0  0  0  0
 23 24  1  0  0  0  0
 23 43  1  0  0  0  0
 23 44  1  0  0  0  0
 24 45  1  0  0  0  0
 24 46  1  0  0  0  0
 24 47  1  0  0  0  0
M  END
>  <Mol_ID>
6768

>  <Formula>
C20H23N3O

>  <MolWeight>
321.41612

>  <Cat>
S9638

>  <Name>
BRD0705

>  <Synonyms>
N/A

>  <Target>
GSK-3

>  <Form>
Free base

>  <CAS>
2056261-41-5

>  <URL>
http://www.selleckchem.com/products/brd0705.html

$$$$
