BRD3308
 OpenBabel08302521233D

 35 36  0  0  0  0  0  0  0  0999 V2000
    1.3369   -0.2587    0.0142 C   0  0  0  0  0  0  0  0  0  0  0  0
    0.4587   -1.3461   -0.0487 C   0  0  0  0  0  0  0  0  0  0  0  0
   -0.9166   -1.1012   -0.0275 C   0  0  0  0  0  0  0  0  0  0  0  0
   -1.3941    0.2070    0.0868 C   0  0  0  0  0  0  0  0  0  0  0  0
   -0.5072    1.2896    0.1897 C   0  0  0  0  0  0  0  0  0  0  0  0
    0.8634    1.0585    0.1328 C   0  0  0  0  0  0  0  0  0  0  0  0
    0.8913   -2.6878   -0.1249 N   0  0  0  0  0  0  0  0  0  0  0  0
    2.2052   -3.1289   -0.1098 C   0  0  0  0  0  0  0  0  0  0  0  0
    2.3511   -4.6281   -0.1433 C   0  0  0  0  0  0  0  0  0  0  0  0
    3.2119   -2.4299   -0.0673 O   0  0  0  0  0  0  0  0  0  0  0  0
   -1.0957    2.6488    0.3018 C   0  0  0  0  0  0  0  0  0  0  0  0
   -0.3552    3.6138    0.9617 N   0  0  0  0  0  0  0  0  0  0  0  0
   -2.2011    2.8158   -0.2084 O   0  0  0  0  0  0  0  0  0  0  0  0
   -0.8067    4.9260    1.2579 C   0  0  0  0  0  0  0  0  0  0  0  0
   -2.1653    5.2698    1.2235 C   0  0  0  0  0  0  0  0  0  0  0  0
   -2.5865    6.5549    1.5592 C   0  0  0  0  0  0  0  0  0  0  0  0
   -1.6500    7.4902    1.9636 C   0  0  0  0  0  0  0  0  0  0  0  0
   -0.2971    7.1695    2.0273 C   0  0  0  0  0  0  0  0  0  0  0  0
    0.1469    5.9042    1.6211 C   0  0  0  0  0  0  0  0  0  0  0  0
   -2.0551    8.7214    2.3013 F   0  0  0  0  0  0  0  0  0  0  0  0
    1.5210    5.5864    1.7296 N   0  0  0  0  0  0  0  0  0  0  0  0
    2.4132   -0.3900   -0.0350 H   0  0  0  0  0  0  0  0  0  0  0  0
   -1.6404   -1.9101   -0.0949 H   0  0  0  0  0  0  0  0  0  0  0  0
   -2.4689    0.3867    0.0979 H   0  0  0  0  0  0  0  0  0  0  0  0
    1.5887    1.8613    0.1449 H   0  0  0  0  0  0  0  0  0  0  0  0
    0.1626   -3.3929   -0.1599 H   0  0  0  0  0  0  0  0  0  0  0  0
    2.9395   -4.9007   -1.0247 H   0  0  0  0  0  0  0  0  0  0  0  0
    2.8849   -4.9426    0.7595 H   0  0  0  0  0  0  0  0  0  0  0  0
    1.3924   -5.1461   -0.1834 H   0  0  0  0  0  0  0  0  0  0  0  0
    0.5726    3.3971    1.3013 H   0  0  0  0  0  0  0  0  0  0  0  0
   -2.9318    4.5430    0.9737 H   0  0  0  0  0  0  0  0  0  0  0  0
   -3.6398    6.8130    1.5240 H   0  0  0  0  0  0  0  0  0  0  0  0
    0.3979    7.9295    2.3679 H   0  0  0  0  0  0  0  0  0  0  0  0
    2.1066    6.4192    1.7521 H   0  0  0  0  0  0  0  0  0  0  0  0
    1.8249    4.9680    0.9840 H   0  0  0  0  0  0  0  0  0  0  0  0
  1  2  2  0  0  0  0
  1 22  1  0  0  0  0
  2  3  1  0  0  0  0
  2  7  1  0  0  0  0
  3  4  2  0  0  0  0
  3 23  1  0  0  0  0
  4  5  1  0  0  0  0
  4 24  1  0  0  0  0
  5  6  2  0  0  0  0
  5 11  1  0  0  0  0
  6  1  1  0  0  0  0
  6 25  1  0  0  0  0
  7  8  1  0  0  0  0
  7 26  1  0  0  0  0
  8  9  1  0  0  0  0
  8 10  2  0  0  0  0
  9 27  1  0  0  0  0
  9 28  1  0  0  0  0
  9 29  1  0  0  0  0
 11 12  1  0  0  0  0
 11 13  2  0  0  0  0
 12 14  1  0  0  0  0
 12 30  1  0  0  0  0
 14 15  2  0  0  0  0
 15 16  1  0  0  0  0
 15 31  1  0  0  0  0
 16 17  2  0  0  0  0
 16 32  1  0  0  0  0
 17 18  1  0  0  0  0
 17 20  1  0  0  0  0
 18 19  2  0  0  0  0
 18 33  1  0  0  0  0
 19 14  1  0  0  0  0
 19 21  1  0  0  0  0
 21 34  1  0  0  0  0
 21 35  1  0  0  0  0
M  END
>  <Mol_ID>
4908

>  <Formula>
C15H14FN3O2

>  <MolWeight>
287.2889632

>  <Cat>
S8962

>  <Name>
BRD3308

>  <Synonyms>
N/A

>  <Target>
HDAC

>  <Form>
Free Base

>  <CAS>
1550053-02-5

>  <URL>
http://www.selleckchem.com/products/brd3308.html

$$$$
