BRD73954.cdx
 OpenBabel08302519593D

 37 38  0  0  0  0  0  0  0  0999 V2000
    1.0450   -0.0453   -0.5355 C   0  0  0  0  0  0  0  0  0  0  0  0
    0.1272   -1.0785   -0.3316 C   0  0  0  0  0  0  0  0  0  0  0  0
   -0.9663   -0.8825    0.5105 C   0  0  0  0  0  0  0  0  0  0  0  0
   -1.1317    0.3419    1.1730 C   0  0  0  0  0  0  0  0  0  0  0  0
   -0.2114    1.3816    0.9633 C   0  0  0  0  0  0  0  0  0  0  0  0
    0.8711    1.1950    0.0925 C   0  0  0  0  0  0  0  0  0  0  0  0
    1.8574    2.2740   -0.2132 C   0  0  0  0  0  0  0  0  0  0  0  0
   -2.3065    0.5927    2.0525 C   0  0  0  0  0  0  0  0  0  0  0  0
   -2.9191   -0.5096    2.6009 N   0  0  0  0  0  0  0  0  0  0  0  0
   -3.9901   -0.2467    3.4862 O   0  0  0  0  0  0  0  0  0  0  0  0
   -2.6952    1.7381    2.2751 O   0  0  0  0  0  0  0  0  0  0  0  0
    1.3927    3.5738   -0.1463 N   0  0  0  0  0  0  0  0  0  0  0  0
    2.2214    4.6907   -0.5849 C   0  0  0  0  0  0  0  0  0  0  0  0
    1.4552    6.0114   -0.5140 C   0  0  0  0  0  0  0  0  0  0  0  0
    2.9958    1.9831   -0.5593 O   0  0  0  0  0  0  0  0  0  0  0  0
    2.2554    7.2199   -0.9339 C   0  0  0  0  0  0  0  0  0  0  0  0
    2.2416    7.6597   -2.2649 C   0  0  0  0  0  0  0  0  0  0  0  0
    2.9193    8.8240   -2.6337 C   0  0  0  0  0  0  0  0  0  0  0  0
    3.6260    9.5543   -1.6808 C   0  0  0  0  0  0  0  0  0  0  0  0
    3.6713    9.1078   -0.3611 C   0  0  0  0  0  0  0  0  0  0  0  0
    2.9925    7.9465    0.0104 C   0  0  0  0  0  0  0  0  0  0  0  0
    1.8897   -0.2037   -1.2058 H   0  0  0  0  0  0  0  0  0  0  0  0
    0.2582   -2.0274   -0.8483 H   0  0  0  0  0  0  0  0  0  0  0  0
   -1.6902   -1.6859    0.6110 H   0  0  0  0  0  0  0  0  0  0  0  0
   -0.3414    2.3212    1.4946 H   0  0  0  0  0  0  0  0  0  0  0  0
   -2.4906   -1.4249    2.6751 H   0  0  0  0  0  0  0  0  0  0  0  0
   -4.0720    0.7311    3.4318 H   0  0  0  0  0  0  0  0  0  0  0  0
    0.4030    3.7356   -0.0174 H   0  0  0  0  0  0  0  0  0  0  0  0
    3.1166    4.7148    0.0490 H   0  0  0  0  0  0  0  0  0  0  0  0
    2.5526    4.4863   -1.6095 H   0  0  0  0  0  0  0  0  0  0  0  0
    0.5555    5.9457   -1.1397 H   0  0  0  0  0  0  0  0  0  0  0  0
    1.0804    6.1671    0.5067 H   0  0  0  0  0  0  0  0  0  0  0  0
    1.6857    7.1102   -3.0210 H   0  0  0  0  0  0  0  0  0  0  0  0
    2.8869    9.1681   -3.6652 H   0  0  0  0  0  0  0  0  0  0  0  0
    4.1403   10.4690   -1.9657 H   0  0  0  0  0  0  0  0  0  0  0  0
    4.2256    9.6768    0.3832 H   0  0  0  0  0  0  0  0  0  0  0  0
    3.0281    7.6240    1.0486 H   0  0  0  0  0  0  0  0  0  0  0  0
  1  2  2  0  0  0  0
  1 22  1  0  0  0  0
  2  3  1  0  0  0  0
  2 23  1  0  0  0  0
  3  4  2  0  0  0  0
  3 24  1  0  0  0  0
  4  5  1  0  0  0  0
  4  8  1  0  0  0  0
  5  6  2  0  0  0  0
  5 25  1  0  0  0  0
  6  1  1  0  0  0  0
  6  7  1  0  0  0  0
  7 12  1  0  0  0  0
  7 15  2  0  0  0  0
  8  9  1  0  0  0  0
  8 11  2  0  0  0  0
  9 10  1  0  0  0  0
  9 26  1  0  0  0  0
 10 27  1  0  0  0  0
 12 13  1  0  0  0  0
 12 28  1  0  0  0  0
 13 14  1  0  0  0  0
 13 29  1  0  0  0  0
 13 30  1  0  0  0  0
 14 16  1  0  0  0  0
 14 31  1  0  0  0  0
 14 32  1  0  0  0  0
 16 17  2  0  0  0  0
 17 18  1  0  0  0  0
 17 33  1  0  0  0  0
 18 19  2  0  0  0  0
 18 34  1  0  0  0  0
 19 20  1  0  0  0  0
 19 35  1  0  0  0  0
 20 21  2  0  0  0  0
 20 36  1  0  0  0  0
 21 16  1  0  0  0  0
 21 37  1  0  0  0  0
M  END
>  <Mol_ID>
2572

>  <Formula>
C16H16N2O3

>  <MolWeight>
284.30984

>  <Cat>
S7726

>  <Name>
BRD73954

>  <Synonyms>
N/A

>  <Target>
HDAC

>  <Form>
free base

>  <CAS>
1440209-96-0

>  <URL>
http://selleckchem.com/products/brd73954.html

$$$$
