BRD9539
 OpenBabel08302521353D

 51 54  0  0  0  0  0  0  0  0999 V2000
    0.6402   -0.0488    0.0338 C   0  0  0  0  0  0  0  0  0  0  0  0
    2.1388   -0.3050    0.2900 C   0  0  0  0  0  0  0  0  0  0  0  0
    2.5130   -0.4910    1.7659 C   0  0  0  0  0  0  0  0  0  0  0  0
   -1.5909    0.4099    2.1681 N   0  0  0  0  0  0  0  0  0  0  0  0
   -2.4168   -0.3947    1.4017 C   0  0  0  0  0  0  0  0  0  0  0  0
   -2.5159   -0.3250    0.1798 O   0  0  0  0  0  0  0  0  0  0  0  0
    1.7828    6.5464    0.2577 C   0  0  0  0  0  0  0  0  0  0  0  0
    0.8652    7.4359    0.6844 O   0  0  0  0  0  0  0  0  0  0  0  0
    2.8939    6.8679   -0.1284 O   0  0  0  0  0  0  0  0  0  0  0  0
    0.6175    2.4566    0.2358 C   0  0  0  0  0  0  0  0  0  0  0  0
    0.1257    1.2030    0.5659 N   0  0  0  0  0  0  0  0  0  0  0  0
    0.0673    3.2964    1.1966 C   0  0  0  0  0  0  0  0  0  0  0  0
    1.5086    2.9137   -0.7441 C   0  0  0  0  0  0  0  0  0  0  0  0
   -0.7974    1.3745    1.5828 C   0  0  0  0  0  0  0  0  0  0  0  0
   -0.7564    2.6046    2.0453 N   0  0  0  0  0  0  0  0  0  0  0  0
    0.4074    4.6580    1.2150 C   0  0  0  0  0  0  0  0  0  0  0  0
    1.8529    4.2706   -0.7068 C   0  0  0  0  0  0  0  0  0  0  0  0
    1.3111    5.1367    0.2536 C   0  0  0  0  0  0  0  0  0  0  0  0
   -3.2173   -1.4292    2.1485 C   0  0  0  0  0  0  0  0  0  0  0  0
   -2.9820   -1.7434    3.4956 C   0  0  0  0  0  0  0  0  0  0  0  0
   -4.1451   -2.2009    1.4300 C   0  0  0  0  0  0  0  0  0  0  0  0
   -3.5997   -2.8557    4.0816 C   0  0  0  0  0  0  0  0  0  0  0  0
   -4.7573   -3.3135    2.0175 C   0  0  0  0  0  0  0  0  0  0  0  0
   -4.4633   -3.6554    3.3346 C   0  0  0  0  0  0  0  0  0  0  0  0
    3.9876   -0.8046    1.9136 C   0  0  0  0  0  0  0  0  0  0  0  0
    4.9275    0.2249    2.0954 C   0  0  0  0  0  0  0  0  0  0  0  0
    4.4510   -2.1257    1.8175 C   0  0  0  0  0  0  0  0  0  0  0  0
    6.2909   -0.0589    2.1612 C   0  0  0  0  0  0  0  0  0  0  0  0
    5.8202   -2.4062    1.8827 C   0  0  0  0  0  0  0  0  0  0  0  0
    6.7376   -1.3708    2.0503 C   0  0  0  0  0  0  0  0  0  0  0  0
    0.0597   -0.8806    0.4397 H   0  0  0  0  0  0  0  0  0  0  0  0
    0.4597   -0.0185   -1.0471 H   0  0  0  0  0  0  0  0  0  0  0  0
    2.4232   -1.2080   -0.2661 H   0  0  0  0  0  0  0  0  0  0  0  0
    2.7468    0.5034   -0.1314 H   0  0  0  0  0  0  0  0  0  0  0  0
    2.2768    0.4115    2.3422 H   0  0  0  0  0  0  0  0  0  0  0  0
    1.9232   -1.3027    2.2087 H   0  0  0  0  0  0  0  0  0  0  0  0
   -1.9687    0.7063    3.0580 H   0  0  0  0  0  0  0  0  0  0  0  0
   -0.0339    7.0882    0.8070 H   0  0  0  0  0  0  0  0  0  0  0  0
    1.9384    2.2531   -1.4914 H   0  0  0  0  0  0  0  0  0  0  0  0
   -0.0012    5.2842    1.9986 H   0  0  0  0  0  0  0  0  0  0  0  0
    2.5693    4.6533   -1.4345 H   0  0  0  0  0  0  0  0  0  0  0  0
   -2.2917   -1.1693    4.1055 H   0  0  0  0  0  0  0  0  0  0  0  0
   -4.3721   -1.9626    0.3921 H   0  0  0  0  0  0  0  0  0  0  0  0
   -3.3829   -3.1166    5.1158 H   0  0  0  0  0  0  0  0  0  0  0  0
   -5.4415   -3.9281    1.4366 H   0  0  0  0  0  0  0  0  0  0  0  0
   -4.8989   -4.5490    3.7777 H   0  0  0  0  0  0  0  0  0  0  0  0
    4.5924    1.2587    2.1742 H   0  0  0  0  0  0  0  0  0  0  0  0
    3.7505   -2.9467    1.6814 H   0  0  0  0  0  0  0  0  0  0  0  0
    7.0041    0.7524    2.2954 H   0  0  0  0  0  0  0  0  0  0  0  0
    6.1679   -3.4331    1.8006 H   0  0  0  0  0  0  0  0  0  0  0  0
    7.8018   -1.5888    2.0923 H   0  0  0  0  0  0  0  0  0  0  0  0
  1  2  1  0  0  0  0
  1 11  1  0  0  0  0
  1 31  1  0  0  0  0
  1 32  1  0  0  0  0
  2  3  1  0  0  0  0
  2 33  1  0  0  0  0
  2 34  1  0  0  0  0
  3 25  1  0  0  0  0
  3 35  1  0  0  0  0
  3 36  1  0  0  0  0
  4  5  1  0  0  0  0
  4 14  1  0  0  0  0
  4 37  1  0  0  0  0
  5  6  2  0  0  0  0
  5 19  1  0  0  0  0
  7  8  1  0  0  0  0
  7  9  2  0  0  0  0
  7 18  1  0  0  0  0
  8 38  1  0  0  0  0
 10 11  1  0  0  0  0
 10 12  1  0  0  0  0
 10 13  2  0  0  0  0
 11 14  1  0  0  0  0
 12 15  1  0  0  0  0
 12 16  2  0  0  0  0
 13 17  1  0  0  0  0
 13 39  1  0  0  0  0
 14 15  2  0  0  0  0
 16 18  1  0  0  0  0
 16 40  1  0  0  0  0
 17 18  2  0  0  0  0
 17 41  1  0  0  0  0
 19 20  2  0  0  0  0
 19 21  1  0  0  0  0
 20 22  1  0  0  0  0
 20 42  1  0  0  0  0
 21 23  2  0  0  0  0
 21 43  1  0  0  0  0
 22 24  2  0  0  0  0
 22 44  1  0  0  0  0
 23 24  1  0  0  0  0
 23 45  1  0  0  0  0
 24 46  1  0  0  0  0
 25 26  2  0  0  0  0
 25 27  1  0  0  0  0
 26 28  1  0  0  0  0
 26 47  1  0  0  0  0
 27 29  2  0  0  0  0
 27 48  1  0  0  0  0
 28 30  2  0  0  0  0
 28 49  1  0  0  0  0
 29 30  1  0  0  0  0
 29 50  1  0  0  0  0
 30 51  1  0  0  0  0
M  END
>  <Mol_ID>
6895

>  <Formula>
C24H21N3O3

>  <MolWeight>
399.44184

>  <Cat>
S2943

>  <Name>
BRD9539

>  <Synonyms>
N/A

>  <Target>
Epigenetic Reader Domain,G9a/GLP

>  <Form>
Free bC22H16Cl3N7O6ase

>  <CAS>
1374601-41-8

>  <URL>
http://www.selleckchem.com/products/brd9539.html

$$$$
