brefeldin A.cdx
 OpenBabel08302519573D

 44 45  0  0  0  0  0  0  0  0999 V2000
    1.3724   -1.6093   -0.2805 C   0  0  0  0  0  0  0  0  0  0  0  0
   -0.1697   -1.7681   -0.4600 C   0  0  0  0  0  0  0  0  0  0  0  0
   -0.9970   -1.7956    0.8579 C   0  0  1  0  0  0  0  0  0  0  0  0
   -1.1207   -0.4063    1.2851 O   0  0  0  0  0  0  0  0  0  0  0  0
   -2.2460    0.2074    1.7103 C   0  0  0  0  0  0  0  0  0  0  0  0
   -2.2498    1.5651    1.1049 C   0  0  0  0  0  0  0  0  0  0  0  0
   -1.3376    2.5347    1.3509 C   0  0  0  0  0  0  0  0  0  0  0  0
    1.2785    0.7378    0.2688 C   0  0  0  0  0  0  0  0  0  0  0  0
    1.8601   -0.5448    0.7233 C   0  0  0  0  0  0  0  0  0  0  0  0
   -1.1899    3.7995    0.5322 C   0  0  2  0  0  0  0  0  0  0  0  0
    0.2461    4.0467   -0.0238 C   0  0  1  0  0  0  0  0  0  0  0  0
    0.8239    2.8355   -0.7725 C   0  0  2  0  0  0  0  0  0  0  0  0
    1.7504    1.9596    0.0378 C   0  0  0  0  0  0  0  0  0  0  0  0
    0.3214    5.1487   -1.0949 C   0  0  0  0  0  0  0  0  0  0  0  0
    1.6060    4.8227   -1.8629 C   0  0  2  0  0  0  0  0  0  0  0  0
    1.5244    3.3227   -2.0432 C   0  0  0  0  0  0  0  0  0  0  0  0
   -2.3325   -2.5027    0.6372 C   0  0  0  0  0  0  0  0  0  0  0  0
   -3.2220   -0.3024    2.2252 O   0  0  0  0  0  0  0  0  0  0  0  0
   -1.5434    4.9048    1.3582 O   0  0  0  0  0  0  0  0  0  0  0  0
    2.7429    5.1497   -1.0734 O   0  0  0  0  0  0  0  0  0  0  0  0
    1.7941   -1.3706   -1.2699 H   0  0  0  0  0  0  0  0  0  0  0  0
    1.7915   -2.5782    0.0052 H   0  0  0  0  0  0  0  0  0  0  0  0
   -0.3252   -2.6829   -1.0425 H   0  0  0  0  0  0  0  0  0  0  0  0
   -0.5426   -0.9541   -1.1004 H   0  0  0  0  0  0  0  0  0  0  0  0
   -0.4192   -2.3338    1.6161 H   0  0  0  0  0  0  0  0  0  0  0  0
   -3.0054    1.6863    0.3358 H   0  0  0  0  0  0  0  0  0  0  0  0
   -0.5930    2.3765    2.1199 H   0  0  0  0  0  0  0  0  0  0  0  0
    0.2474    0.6327   -0.0273 H   0  0  0  0  0  0  0  0  0  0  0  0
    1.5177   -0.7927    1.7334 H   0  0  0  0  0  0  0  0  0  0  0  0
    2.9543   -0.5072    0.7417 H   0  0  0  0  0  0  0  0  0  0  0  0
   -1.9001    3.7852   -0.3051 H   0  0  0  0  0  0  0  0  0  0  0  0
    0.9001    4.3416    0.8093 H   0  0  0  0  0  0  0  0  0  0  0  0
   -0.0275    2.2444   -1.1430 H   0  0  0  0  0  0  0  0  0  0  0  0
    2.7621    2.2680    0.2800 H   0  0  0  0  0  0  0  0  0  0  0  0
    0.3520    6.1450   -0.6448 H   0  0  0  0  0  0  0  0  0  0  0  0
   -0.5355    5.0888   -1.7760 H   0  0  0  0  0  0  0  0  0  0  0  0
    1.6815    5.3448   -2.8201 H   0  0  0  0  0  0  0  0  0  0  0  0
    0.8881    3.0795   -2.9044 H   0  0  0  0  0  0  0  0  0  0  0  0
    2.4961    2.8433   -2.2075 H   0  0  0  0  0  0  0  0  0  0  0  0
   -3.1018   -1.8328    0.2431 H   0  0  0  0  0  0  0  0  0  0  0  0
   -2.2375   -3.3487   -0.0510 H   0  0  0  0  0  0  0  0  0  0  0  0
   -2.6931   -2.9029    1.5937 H   0  0  0  0  0  0  0  0  0  0  0  0
   -2.3052    4.6389    1.9019 H   0  0  0  0  0  0  0  0  0  0  0  0
    3.5114    4.6867   -1.4502 H   0  0  0  0  0  0  0  0  0  0  0  0
  1  2  1  0  0  0  0
  1 21  1  0  0  0  0
  1 22  1  0  0  0  0
  2  3  1  0  0  0  0
  2 23  1  0  0  0  0
  2 24  1  0  0  0  0
  3  4  1  0  0  0  0
  3 25  1  1  0  0  0
  3 17  1  0  0  0  0
  4  5  1  0  0  0  0
  5  6  1  0  0  0  0
  5 18  2  0  0  0  0
  6  7  2  0  0  0  0
  6 26  1  0  0  0  0
  7 10  1  0  0  0  0
  7 27  1  0  0  0  0
  8  9  1  0  0  0  0
  8 28  1  0  0  0  0
  9  1  1  0  0  0  0
  9 29  1  0  0  0  0
  9 30  1  0  0  0  0
 10 11  1  0  0  0  0
 10 31  1  6  0  0  0
 10 19  1  0  0  0  0
 11 12  1  0  0  0  0
 11 14  1  0  0  0  0
 11 32  1  1  0  0  0
 12 13  1  0  0  0  0
 12 16  1  0  0  0  0
 12 33  1  6  0  0  0
 13  8  2  0  0  0  0
 13 34  1  0  0  0  0
 14 15  1  0  0  0  0
 14 35  1  0  0  0  0
 14 36  1  0  0  0  0
 15 16  1  0  0  0  0
 15 37  1  6  0  0  0
 15 20  1  0  0  0  0
 16 38  1  0  0  0  0
 16 39  1  0  0  0  0
 17 40  1  0  0  0  0
 17 41  1  0  0  0  0
 17 42  1  0  0  0  0
 19 43  1  0  0  0  0
 20 44  1  0  0  0  0
M  END
>  <Mol_ID>
2245

>  <Formula>
C16H24O4

>  <MolWeight>
280.35936

>  <Cat>
S7046

>  <Name>
Brefeldin A

>  <Synonyms>
BFA, Cyanein, Decumbin

>  <Target>
Antibiotics,Apoptosis related,ATPase,Autophagy,CRISPR/Cas9,Mitophagy

>  <Form>
free base

>  <CAS>
20350-15-6

>  <URL>
http://selleckchem.com/products/brefeldin-a.html

$$$$
