Brevianamide F
 OpenBabel08302521233D

 38 41  0  0  0  0  0  0  0  0999 V2000
    0.6940   -0.5362    0.5586 C   0  0  1  0  0  0  0  0  0  0  0  0
    1.4659    0.6717    0.0108 C   0  0  0  0  0  0  0  0  0  0  0  0
   -0.6697   -0.5134    0.0347 N   0  0  0  0  0  0  0  0  0  0  0  0
    0.6934    1.8156   -0.0841 N   0  0  0  0  0  0  0  0  0  0  0  0
   -0.6312    1.8655    0.5574 C   0  0  2  0  0  0  0  0  0  0  0  0
   -1.4293    0.6461    0.0258 C   0  0  0  0  0  0  0  0  0  0  0  0
    1.2275   -1.8982    0.1385 C   0  0  0  0  0  0  0  0  0  0  0  0
   -0.0358   -2.7607    0.1158 C   0  0  0  0  0  0  0  0  0  0  0  0
   -1.1049   -1.8146   -0.4215 C   0  0  0  0  0  0  0  0  0  0  0  0
    2.6729    0.6936   -0.1968 O   0  0  0  0  0  0  0  0  0  0  0  0
   -2.6125    0.6752   -0.2926 O   0  0  0  0  0  0  0  0  0  0  0  0
   -1.3747    3.1833    0.3262 C   0  0  0  0  0  0  0  0  0  0  0  0
    0.6542    6.1620    1.1134 N   0  0  0  0  0  0  0  0  0  0  0  0
    0.2642    5.1622    0.2656 C   0  0  0  0  0  0  0  0  0  0  0  0
   -0.6648    4.3719    0.9166 C   0  0  0  0  0  0  0  0  0  0  0  0
   -0.8231    4.9234    2.2335 C   0  0  0  0  0  0  0  0  0  0  0  0
   -1.6016    4.5873    3.3617 C   0  0  0  0  0  0  0  0  0  0  0  0
   -1.5360    5.3862    4.5125 C   0  0  0  0  0  0  0  0  0  0  0  0
   -0.7107    6.5043    4.5561 C   0  0  0  0  0  0  0  0  0  0  0  0
    0.0802    6.8537    3.4583 C   0  0  0  0  0  0  0  0  0  0  0  0
    0.0030    6.0458    2.3173 C   0  0  0  0  0  0  0  0  0  0  0  0
    0.6403   -0.4538    1.6508 H   0  0  0  0  0  0  0  0  0  0  0  0
    1.2083    2.6713   -0.2495 H   0  0  0  0  0  0  0  0  0  0  0  0
   -0.4826    1.7113    1.6342 H   0  0  0  0  0  0  0  0  0  0  0  0
    1.6771   -1.8609   -0.8607 H   0  0  0  0  0  0  0  0  0  0  0  0
    1.9813   -2.2798    0.8342 H   0  0  0  0  0  0  0  0  0  0  0  0
   -0.2886   -3.0641    1.1396 H   0  0  0  0  0  0  0  0  0  0  0  0
    0.0753   -3.6646   -0.4891 H   0  0  0  0  0  0  0  0  0  0  0  0
   -2.1098   -2.0439   -0.0571 H   0  0  0  0  0  0  0  0  0  0  0  0
   -1.1128   -1.8019   -1.5165 H   0  0  0  0  0  0  0  0  0  0  0  0
   -1.5191    3.3510   -0.7490 H   0  0  0  0  0  0  0  0  0  0  0  0
   -2.3807    3.1214    0.7612 H   0  0  0  0  0  0  0  0  0  0  0  0
    1.3136    6.8936    0.8889 H   0  0  0  0  0  0  0  0  0  0  0  0
    0.6710    5.1057   -0.7355 H   0  0  0  0  0  0  0  0  0  0  0  0
   -2.2585    3.7232    3.3440 H   0  0  0  0  0  0  0  0  0  0  0  0
   -2.1429    5.1326    5.3786 H   0  0  0  0  0  0  0  0  0  0  0  0
   -0.6797    7.1208    5.4536 H   0  0  0  0  0  0  0  0  0  0  0  0
    0.7225    7.7265    3.4927 H   0  0  0  0  0  0  0  0  0  0  0  0
  1  2  1  0  0  0  0
  1  3  1  0  0  0  0
  1  7  1  0  0  0  0
  1 22  1  1  0  0  0
  2  4  1  0  0  0  0
  2 10  2  0  0  0  0
  3  6  1  0  0  0  0
  3  9  1  0  0  0  0
  4  5  1  0  0  0  0
  4 23  1  0  0  0  0
  5  6  1  0  0  0  0
  5 12  1  0  0  0  0
  5 24  1  1  0  0  0
  6 11  2  0  0  0  0
  7  8  1  0  0  0  0
  7 25  1  0  0  0  0
  7 26  1  0  0  0  0
  8  9  1  0  0  0  0
  8 27  1  0  0  0  0
  8 28  1  0  0  0  0
  9 29  1  0  0  0  0
  9 30  1  0  0  0  0
 12 15  1  0  0  0  0
 12 31  1  0  0  0  0
 12 32  1  0  0  0  0
 13 14  1  0  0  0  0
 13 21  1  0  0  0  0
 13 33  1  0  0  0  0
 14 15  2  0  0  0  0
 14 34  1  0  0  0  0
 15 16  1  0  0  0  0
 16 17  1  0  0  0  0
 16 21  2  0  0  0  0
 17 18  2  0  0  0  0
 17 35  1  0  0  0  0
 18 19  1  0  0  0  0
 18 36  1  0  0  0  0
 19 20  2  0  0  0  0
 19 37  1  0  0  0  0
 20 21  1  0  0  0  0
 20 38  1  0  0  0  0
M  END
>  <Mol_ID>
4794

>  <Formula>
C16H17N3O2

>  <MolWeight>
283.32508

>  <Cat>
S6751

>  <Name>
Brevianamide F

>  <Synonyms>
N/A

>  <Target>
Others

>  <Form>
Free Base

>  <CAS>
38136-70-8

>  <URL>
http://www.selleck.cn/products/brevianamide-f.html

$$$$
