Briciclib
 OpenBabel08302520403D

 54 55  0  0  0  0  0  0  0  0999 V2000
   -1.4943    5.6667   -1.8235 C   0  0  0  0  0  0  0  0  0  0  0  0
   -0.2573    5.9018   -2.4539 C   0  0  0  0  0  0  0  0  0  0  0  0
    0.7580    4.9522   -2.3030 C   0  0  0  0  0  0  0  0  0  0  0  0
    0.5774    3.8264   -1.4916 C   0  0  0  0  0  0  0  0  0  0  0  0
   -0.6429    3.6063   -0.8390 C   0  0  0  0  0  0  0  0  0  0  0  0
   -1.6923    4.5218   -1.0501 C   0  0  0  0  0  0  0  0  0  0  0  0
   -0.7989    2.4771    0.1552 C   0  0  0  0  0  0  0  0  0  0  0  0
   -0.3927    3.1234    1.7835 S   0  0  0  0  0  0  0  0  0  0  0  0
    1.0249    3.4319    1.7983 O   0  0  0  0  0  0  0  0  0  0  0  0
   -1.3694    4.1410    2.1338 O   0  0  0  0  0  0  0  0  0  0  0  0
   -0.6108    1.7841    2.8766 C   0  0  0  0  0  0  0  0  0  0  0  0
   -1.8194    1.2233    3.0450 C   0  0  0  0  0  0  0  0  0  0  0  0
   -2.1261    0.2845    4.1442 C   0  0  0  0  0  0  0  0  0  0  0  0
   -2.7312    0.7634    5.3333 C   0  0  0  0  0  0  0  0  0  0  0  0
   -3.2428   -0.1258    6.2960 C   0  0  0  0  0  0  0  0  0  0  0  0
   -3.1630   -1.4998    6.1167 C   0  0  0  0  0  0  0  0  0  0  0  0
   -2.5351   -1.9828    4.9716 C   0  0  0  0  0  0  0  0  0  0  0  0
   -2.0055   -1.1160    3.9959 C   0  0  0  0  0  0  0  0  0  0  0  0
   -1.5397   -1.7889    2.8943 O   0  0  0  0  0  0  0  0  0  0  0  0
   -0.3125   -1.3371    2.3420 C   0  0  0  0  0  0  0  0  0  0  0  0
   -3.6729   -2.4510    6.9569 O   0  0  0  0  0  0  0  0  0  0  0  0
   -4.4169   -1.9902    8.0816 C   0  0  0  0  0  0  0  0  0  0  0  0
   -3.0497    2.0678    5.6321 O   0  0  0  0  0  0  0  0  0  0  0  0
   -2.0412    3.0498    5.4441 C   0  0  0  0  0  0  0  0  0  0  0  0
   -0.1109    7.0626   -3.1705 O   0  0  0  0  0  0  0  0  0  0  0  0
    1.2090    7.3991   -3.6071 C   0  0  0  0  0  0  0  0  0  0  0  0
   -2.1797    8.2134   -1.8940 P   0  0  0  0  0  0  0  0  0  0  0  0
   -3.6552    8.5777   -2.0744 O   0  0  0  0  0  0  0  0  0  0  0  0
   -1.9824    8.2509   -0.2738 O   0  0  0  0  0  0  0  0  0  0  0  0
   -1.7841    9.8974   -1.9176 O   0  0  0  0  0  0  0  0  0  0  0  0
   -2.5754    6.5295   -1.8704 O   0  0  0  0  0  0  0  0  0  0  0  0
    1.7260    5.0619   -2.7830 H   0  0  0  0  0  0  0  0  0  0  0  0
    1.4154    3.1450   -1.3423 H   0  0  0  0  0  0  0  0  0  0  0  0
   -2.6448    4.3866   -0.5443 H   0  0  0  0  0  0  0  0  0  0  0  0
   -1.8280    2.1088    0.1620 H   0  0  0  0  0  0  0  0  0  0  0  0
   -0.1185    1.6503   -0.0698 H   0  0  0  0  0  0  0  0  0  0  0  0
    0.2364    1.5506    3.5101 H   0  0  0  0  0  0  0  0  0  0  0  0
   -2.6848    1.5210    2.4578 H   0  0  0  0  0  0  0  0  0  0  0  0
   -3.7362    0.3011    7.1636 H   0  0  0  0  0  0  0  0  0  0  0  0
   -2.4868   -3.0597    4.8137 H   0  0  0  0  0  0  0  0  0  0  0  0
   -0.5217   -0.6830    1.4909 H   0  0  0  0  0  0  0  0  0  0  0  0
    0.3370   -0.8482    3.0750 H   0  0  0  0  0  0  0  0  0  0  0  0
    0.2296   -2.2050    1.9550 H   0  0  0  0  0  0  0  0  0  0  0  0
   -3.7878   -1.3969    8.7530 H   0  0  0  0  0  0  0  0  0  0  0  0
   -5.3032   -1.4262    7.7700 H   0  0  0  0  0  0  0  0  0  0  0  0
   -4.7619   -2.8661    8.6403 H   0  0  0  0  0  0  0  0  0  0  0  0
   -1.0332    2.6708    5.6425 H   0  0  0  0  0  0  0  0  0  0  0  0
   -2.1286    3.4729    4.4445 H   0  0  0  0  0  0  0  0  0  0  0  0
   -2.2345    3.8702    6.1417 H   0  0  0  0  0  0  0  0  0  0  0  0
    1.2015    8.4474   -3.9214 H   0  0  0  0  0  0  0  0  0  0  0  0
    1.9439    7.3135   -2.7991 H   0  0  0  0  0  0  0  0  0  0  0  0
    1.4986    6.7902   -4.4696 H   0  0  0  0  0  0  0  0  0  0  0  0
   -2.8702    8.4300    0.0953 H   0  0  0  0  0  0  0  0  0  0  0  0
   -0.8879    9.9931   -1.5517 H   0  0  0  0  0  0  0  0  0  0  0  0
  1  2  2  0  0  0  0
  1  6  1  0  0  0  0
  1 31  1  0  0  0  0
  2  3  1  0  0  0  0
  2 25  1  0  0  0  0
  3  4  2  0  0  0  0
  3 32  1  0  0  0  0
  4  5  1  0  0  0  0
  4 33  1  0  0  0  0
  5  6  2  0  0  0  0
  5  7  1  0  0  0  0
  6 34  1  0  0  0  0
  7  8  1  0  0  0  0
  7 35  1  0  0  0  0
  7 36  1  0  0  0  0
  8  9  2  0  0  0  0
  8 10  2  0  0  0  0
  8 11  1  0  0  0  0
 11 12  2  0  0  0  0
 11 37  1  0  0  0  0
 12 13  1  0  0  0  0
 12 38  1  0  0  0  0
 13 14  2  0  0  0  0
 13 18  1  0  0  0  0
 14 15  1  0  0  0  0
 14 23  1  0  0  0  0
 15 16  2  0  0  0  0
 15 39  1  0  0  0  0
 16 17  1  0  0  0  0
 16 21  1  0  0  0  0
 17 18  2  0  0  0  0
 17 40  1  0  0  0  0
 18 19  1  0  0  0  0
 19 20  1  0  0  0  0
 20 41  1  0  0  0  0
 20 42  1  0  0  0  0
 20 43  1  0  0  0  0
 21 22  1  0  0  0  0
 22 44  1  0  0  0  0
 22 45  1  0  0  0  0
 22 46  1  0  0  0  0
 23 24  1  0  0  0  0
 24 47  1  0  0  0  0
 24 48  1  0  0  0  0
 24 49  1  0  0  0  0
 25 26  1  0  0  0  0
 26 50  1  0  0  0  0
 26 51  1  0  0  0  0
 26 52  1  0  0  0  0
 27 28  2  0  0  0  0
 27 29  1  0  0  0  0
 27 30  1  0  0  0  0
 27 31  1  0  0  0  0
 29 53  1  0  0  0  0
 30 54  1  0  0  0  0
M  END
>  <Mol_ID>
3823

>  <Formula>
C19H23O10PS

>  <MolWeight>
474.418681

>  <Cat>
S6533

>  <Name>
Briciclib

>  <Synonyms>
ON-014185

>  <Target>
eIF

>  <Form>
free base

>  <CAS>
865783-99-9

>  <URL>
http://www.selleck.cn/products/briciclib.html

$$$$
