Brimonidine
 OpenBabel08302521223D

 27 29  0  0  0  0  0  0  0  0999 V2000
    0.1737   -0.6958   -0.0255 C   0  0  0  0  0  0  0  0  0  0  0  0
    0.0827    0.7189   -0.0345 C   0  0  0  0  0  0  0  0  0  0  0  0
   -1.0280   -1.4331    0.0402 C   0  0  0  0  0  0  0  0  0  0  0  0
    1.4027   -1.2809   -0.0637 N   0  0  0  0  0  0  0  0  0  0  0  0
   -1.1523    1.3286   -0.0227 C   0  0  0  0  0  0  0  0  0  0  0  0
    1.1668    1.5166   -0.0587 N   0  0  0  0  0  0  0  0  0  0  0  0
   -2.2903   -0.8119    0.1395 C   0  0  0  0  0  0  0  0  0  0  0  0
   -0.9404   -3.3476    0.0035 Br  0  0  0  0  0  0  0  0  0  0  0  0
    2.4813   -0.4677   -0.0814 C   0  0  0  0  0  0  0  0  0  0  0  0
   -2.3215    0.5809    0.0457 C   0  0  0  0  0  0  0  0  0  0  0  0
    2.3655    0.9053   -0.0717 C   0  0  0  0  0  0  0  0  0  0  0  0
   -3.4876   -1.5534    0.2981 N   0  0  0  0  0  0  0  0  0  0  0  0
   -4.6049   -1.0852    0.9252 C   0  0  0  0  0  0  0  0  0  0  0  0
   -5.6784   -1.9273    0.8973 N   0  0  0  0  0  0  0  0  0  0  0  0
   -4.7809    0.0653    1.5114 N   0  0  0  0  0  0  0  0  0  0  0  0
   -6.8372   -1.1484    1.2988 C   0  0  0  0  0  0  0  0  0  0  0  0
   -6.1828    0.0509    1.9821 C   0  0  0  0  0  0  0  0  0  0  0  0
   -1.2168    2.4130   -0.0485 H   0  0  0  0  0  0  0  0  0  0  0  0
    3.4491   -0.9535   -0.0967 H   0  0  0  0  0  0  0  0  0  0  0  0
   -3.2661    1.1199    0.0434 H   0  0  0  0  0  0  0  0  0  0  0  0
    3.2308    1.5549   -0.0723 H   0  0  0  0  0  0  0  0  0  0  0  0
   -3.3324   -2.5503    0.4021 H   0  0  0  0  0  0  0  0  0  0  0  0
   -5.7898   -2.4351    0.0289 H   0  0  0  0  0  0  0  0  0  0  0  0
   -7.4985   -1.6981    1.9758 H   0  0  0  0  0  0  0  0  0  0  0  0
   -7.4008   -0.8283    0.4177 H   0  0  0  0  0  0  0  0  0  0  0  0
   -6.6800    0.9882    1.7099 H   0  0  0  0  0  0  0  0  0  0  0  0
   -6.1944   -0.0446    3.0732 H   0  0  0  0  0  0  0  0  0  0  0  0
  1  2  1  0  0  0  0
  1  3  2  0  0  0  0
  1  4  1  0  0  0  0
  2  5  2  0  0  0  0
  2  6  1  0  0  0  0
  3  7  1  0  0  0  0
  3  8  1  0  0  0  0
  4  9  2  0  0  0  0
  5 10  1  0  0  0  0
  5 18  1  0  0  0  0
  6 11  2  0  0  0  0
  7 12  1  0  0  0  0
  7 10  2  0  0  0  0
  9 11  1  0  0  0  0
  9 19  1  0  0  0  0
 10 20  1  0  0  0  0
 11 21  1  0  0  0  0
 12 13  1  0  0  0  0
 12 22  1  0  0  0  0
 13 14  1  0  0  0  0
 13 15  2  0  0  0  0
 14 16  1  0  0  0  0
 14 23  1  0  0  0  0
 15 17  1  0  0  0  0
 16 17  1  0  0  0  0
 16 24  1  0  0  0  0
 16 25  1  0  0  0  0
 17 26  1  0  0  0  0
 17 27  1  0  0  0  0
M  END
>  <Mol_ID>
4646

>  <Formula>
C11H10BrN5

>  <MolWeight>
292.1346

>  <Cat>
S9508

>  <Name>
Brimonidine

>  <Synonyms>
Bromoxidine, UK 14304

>  <Target>
Adrenergic Receptor

>  <Form>
Free Base

>  <CAS>
59803-98-4

>  <URL>
http://www.selleckchem.com/products/brimonidine.html

$$$$
