Britannin
 OpenBabel08302521553D

 52 54  0  0  1  0  0  0  0  0999 V2000
    5.1575   -2.4012    5.6708 C   0  0  0  0  0  0  0  0  0  0  0  0
    8.1892   -2.3045    3.3297 O   0  0  0  0  0  0  0  0  0  0  0  0
    8.4929   -3.4901    2.6930 C   0  0  0  0  0  0  0  0  0  0  0  0
    8.7003   -3.2851    1.2054 C   0  0  0  0  0  0  0  0  0  0  0  0
    8.5376   -4.5962    3.2142 O   0  0  0  0  0  0  0  0  0  0  0  0
    5.8604   -3.2469    2.1676 O   0  0  0  0  0  0  0  0  0  0  0  0
    5.1057    0.6802    1.7694 O   0  0  0  0  0  0  0  0  0  0  0  0
    4.0458    1.4924    1.9551 C   0  0  0  0  0  0  0  0  0  0  0  0
    4.1944    2.6712    1.0392 C   0  0  0  0  0  0  0  0  0  0  0  0
    3.1489    1.3206    2.7804 O   0  0  0  0  0  0  0  0  0  0  0  0
    6.5811    2.0736    3.9366 C   0  0  0  0  0  0  0  0  0  0  0  0
   10.4096   -2.9486    6.1138 C   0  0  0  0  0  0  0  0  0  0  0  0
    9.5465   -1.7987    8.8745 O   0  0  0  0  0  0  0  0  0  0  0  0
    5.9254   -1.9808    4.3709 C   0  0  1  0  0  0  0  0  0  0  0  0
    5.7572   -0.4012    4.0229 C   0  0  3  0  0  0  0  0  0  0  0  0
    7.4399   -2.4666    4.5497 C   0  0  3  0  0  0  0  0  0  0  0  0
    5.0764   -2.6820    3.2049 C   0  0  3  0  0  0  0  0  0  0  0  0
    5.3626   -0.4888    2.5416 C   0  0  3  0  0  0  0  0  0  0  0  0
    6.9153    0.6068    4.2608 C   0  0  3  0  0  0  0  0  0  0  0  0
    8.0801   -1.8277    5.8198 C   0  0  3  0  0  0  0  0  0  0  0  0
    4.2710   -1.5407    2.5800 C   0  0  0  0  0  0  0  0  0  0  0  0
    7.3709    0.6160    5.7137 C   0  0  0  0  0  0  0  0  0  0  0  0
    8.4890   -0.3678    5.9121 C   0  0  3  0  0  0  0  0  0  0  0  0
    9.3142   -2.2830    6.5003 C   0  0  0  0  0  0  0  0  0  0  0  0
    8.9355   -0.2233    7.2868 O   0  0  0  0  0  0  0  0  0  0  0  0
    9.3541   -1.4464    7.7212 C   0  0  1  0  0  0  0  0  0  0  0  0
    4.1062   -2.6491    5.4890 H   0  0  0  0  0  0  0  0  0  0  0  0
    5.5921   -3.3230    6.0897 H   0  0  0  0  0  0  0  0  0  0  0  0
    5.1831   -1.6349    6.4472 H   0  0  0  0  0  0  0  0  0  0  0  0
    9.5761   -3.8465    0.8820 H   0  0  0  0  0  0  0  0  0  0  0  0
    7.8228   -3.6486    0.6592 H   0  0  0  0  0  0  0  0  0  0  0  0
    8.8449   -2.2295    0.9679 H   0  0  0  0  0  0  0  0  0  0  0  0
    5.2953   -3.3456    1.3782 H   0  0  0  0  0  0  0  0  0  0  0  0
    3.2550    2.8846    0.5431 H   0  0  0  0  0  0  0  0  0  0  0  0
    4.5396    3.5400    1.6212 H   0  0  0  0  0  0  0  0  0  0  0  0
    4.9359    2.4715    0.2680 H   0  0  0  0  0  0  0  0  0  0  0  0
    7.4420    2.7177    4.1602 H   0  0  0  0  0  0  0  0  0  0  0  0
    6.3857    2.2421    2.8811 H   0  0  0  0  0  0  0  0  0  0  0  0
    5.7345    2.4358    4.5295 H   0  0  0  0  0  0  0  0  0  0  0  0
   11.2789   -2.9854    6.7679 H   0  0  0  0  0  0  0  0  0  0  0  0
   10.5244   -3.3398    5.1119 H   0  0  0  0  0  0  0  0  0  0  0  0
    4.9013   -0.0267    4.6024 H   0  0  0  0  0  0  0  0  0  0  0  0
    7.3782   -3.5354    4.7907 H   0  0  0  0  0  0  0  0  0  0  0  0
    4.4198   -3.4819    3.5625 H   0  0  0  0  0  0  0  0  0  0  0  0
    6.2300   -0.8928    2.0059 H   0  0  0  0  0  0  0  0  0  0  0  0
    7.7514    0.3376    3.6030 H   0  0  0  0  0  0  0  0  0  0  0  0
    7.3200   -1.9883    6.5966 H   0  0  0  0  0  0  0  0  0  0  0  0
    3.8578   -1.7553    1.5900 H   0  0  0  0  0  0  0  0  0  0  0  0
    3.4450   -1.2448    3.2383 H   0  0  0  0  0  0  0  0  0  0  0  0
    7.7589    1.5986    6.0078 H   0  0  0  0  0  0  0  0  0  0  0  0
    6.5426    0.4303    6.4097 H   0  0  0  0  0  0  0  0  0  0  0  0
    9.3318   -0.1073    5.2535 H   0  0  0  0  0  0  0  0  0  0  0  0
  1 27  1  0  0  0  0
  1 28  1  0  0  0  0
  1 29  1  0  0  0  0
  2  3  1  0  0  0  0
  3  4  1  0  0  0  0
  3  5  2  0  0  0  0
  4 30  1  0  0  0  0
  4 31  1  0  0  0  0
  4 32  1  0  0  0  0
  6 33  1  0  0  0  0
  7  8  1  0  0  0  0
  8  9  1  0  0  0  0
  8 10  2  0  0  0  0
  9 34  1  0  0  0  0
  9 35  1  0  0  0  0
  9 36  1  0  0  0  0
 11 37  1  0  0  0  0
 11 38  1  0  0  0  0
 11 39  1  0  0  0  0
 12 40  1  0  0  0  0
 12 41  1  0  0  0  0
 12 24  2  0  0  0  0
 14 15  1  0  0  0  0
 14 16  1  0  0  0  0
 14 17  1  0  0  0  0
 14  1  1  1  0  0  0
 15 18  1  0  0  0  0
 15 19  1  0  0  0  0
 15 42  1  0  0  0  0
 16 20  1  0  0  0  0
 16  2  1  0  0  0  0
 16 43  1  0  0  0  0
 17 21  1  0  0  0  0
 17  6  1  0  0  0  0
 17 44  1  0  0  0  0
 18 21  1  0  0  0  0
 18  7  1  0  0  0  0
 18 45  1  0  0  0  0
 19 22  1  0  0  0  0
 19 11  1  0  0  0  0
 19 46  1  0  0  0  0
 20 23  1  0  0  0  0
 20 24  1  0  0  0  0
 20 47  1  0  0  0  0
 21 48  1  0  0  0  0
 21 49  1  0  0  0  0
 22 50  1  0  0  0  0
 22 51  1  0  0  0  0
 23 22  1  0  0  0  0
 23 25  1  0  0  0  0
 23 52  1  0  0  0  0
 24 26  1  0  0  0  0
 25 26  1  0  0  0  0
 26 13  2  1  0  0  0
M  END
>  <Mol_ID>
10027

>  <Formula>
C19H26O7

>  <MolWeight>
366.40554

>  <Cat>
E5556

>  <Name>
Britannin

>  <Synonyms>
NA

>  <Target>
NLRP3 Inflammasome

>  <Form>
Free Base

>  <CAS>
33627-28-0

>  <URL>
https://www.selleckchem.com/products/britannin.html

$$$$
