Brivanib.cdx
 OpenBabel08302521213D

 46 49  0  0  0  0  0  0  0  0999 V2000
   -0.0032    0.0844    1.8664 C   0  0  0  0  0  0  0  0  0  0  0  0
    0.2657   -1.2792    1.7364 C   0  0  0  0  0  0  0  0  0  0  0  0
    1.4505   -1.6699    1.0846 C   0  0  0  0  0  0  0  0  0  0  0  0
    2.2909   -0.6865    0.5516 C   0  0  0  0  0  0  0  0  0  0  0  0
    2.0036    0.6696    0.7014 C   0  0  0  0  0  0  0  0  0  0  0  0
    0.8604    1.0787    1.3924 C   0  0  0  0  0  0  0  0  0  0  0  0
   -1.2289    0.2009    2.4795 N   0  0  0  0  0  0  0  0  0  0  0  0
   -1.7962   -1.0377    2.6481 C   0  0  0  0  0  0  0  0  0  0  0  0
   -0.8488   -1.9747    2.2861 C   0  0  0  0  0  0  0  0  0  0  0  0
   -3.1998   -1.2022    3.0991 C   0  0  0  0  0  0  0  0  0  0  0  0
    1.7293   -2.9703    0.9035 F   0  0  0  0  0  0  0  0  0  0  0  0
    3.3206   -1.1149   -0.3147 O   0  0  0  0  0  0  0  0  0  0  0  0
    4.5505   -0.4853   -0.3198 C   0  0  0  0  0  0  0  0  0  0  0  0
    5.0085    0.2359    0.6447 N   0  0  0  0  0  0  0  0  0  0  0  0
    6.2706    0.7467    0.4965 C   0  0  0  0  0  0  0  0  0  0  0  0
    7.0696    0.5514   -0.5028 N   0  0  0  0  0  0  0  0  0  0  0  0
    6.5622   -0.2096   -1.4830 N   0  0  0  0  0  0  0  0  0  0  0  0
    5.3053   -0.7340   -1.4965 C   0  0  0  0  0  0  0  0  0  0  0  0
    7.2179   -0.5605   -2.6202 C   0  0  0  0  0  0  0  0  0  0  0  0
    6.3691   -1.3372   -3.3742 C   0  0  0  0  0  0  0  0  0  0  0  0
    5.0954   -1.3505   -2.7283 C   0  0  0  0  0  0  0  0  0  0  0  0
    3.8219   -1.9011   -3.2710 C   0  0  0  0  0  0  0  0  0  0  0  0
    6.6993   -1.9118   -4.5573 O   0  0  0  0  0  0  0  0  0  0  0  0
    7.9938   -2.5496   -4.5268 C   0  0  0  0  0  0  0  0  0  0  0  0
    8.9624   -1.9357   -5.5511 C   0  0  1  0  0  0  0  0  0  0  0  0
    8.5973   -2.2545   -6.9927 C   0  0  0  0  0  0  0  0  0  0  0  0
    9.0375   -0.5173   -5.4058 O   0  0  0  0  0  0  0  0  0  0  0  0
    2.6441    1.4250    0.2553 H   0  0  0  0  0  0  0  0  0  0  0  0
    0.6260    2.1331    1.4976 H   0  0  0  0  0  0  0  0  0  0  0  0
   -1.6832    1.0814    2.6797 H   0  0  0  0  0  0  0  0  0  0  0  0
   -0.9764   -3.0497    2.3194 H   0  0  0  0  0  0  0  0  0  0  0  0
   -3.7803   -1.7128    2.3230 H   0  0  0  0  0  0  0  0  0  0  0  0
   -3.2497   -1.7958    4.0161 H   0  0  0  0  0  0  0  0  0  0  0  0
   -3.6779   -0.2351    3.2871 H   0  0  0  0  0  0  0  0  0  0  0  0
    6.6331    1.3811    1.3229 H   0  0  0  0  0  0  0  0  0  0  0  0
    8.2346   -0.2360   -2.7827 H   0  0  0  0  0  0  0  0  0  0  0  0
    3.3556   -1.1606   -3.9312 H   0  0  0  0  0  0  0  0  0  0  0  0
    3.9914   -2.8148   -3.8459 H   0  0  0  0  0  0  0  0  0  0  0  0
    3.0980   -2.1375   -2.4870 H   0  0  0  0  0  0  0  0  0  0  0  0
    8.4587   -2.5106   -3.5329 H   0  0  0  0  0  0  0  0  0  0  0  0
    7.8461   -3.6137   -4.7452 H   0  0  0  0  0  0  0  0  0  0  0  0
    9.9649   -2.3328   -5.3556 H   0  0  0  0  0  0  0  0  0  0  0  0
    7.6986   -1.7171   -7.3105 H   0  0  0  0  0  0  0  0  0  0  0  0
    9.4072   -1.9322   -7.6575 H   0  0  0  0  0  0  0  0  0  0  0  0
    8.4473   -3.3284   -7.1390 H   0  0  0  0  0  0  0  0  0  0  0  0
    8.1213   -0.1858   -5.4673 H   0  0  0  0  0  0  0  0  0  0  0  0
  1  2  1  0  0  0  0
  1  7  1  0  0  0  0
  2  3  2  0  0  0  0
  3  4  1  0  0  0  0
  3 11  1  0  0  0  0
  4  5  2  0  0  0  0
  4 12  1  0  0  0  0
  5  6  1  0  0  0  0
  5 28  1  0  0  0  0
  6  1  2  0  0  0  0
  6 29  1  0  0  0  0
  7  8  1  0  0  0  0
  7 30  1  0  0  0  0
  8  9  2  0  0  0  0
  8 10  1  0  0  0  0
  9  2  1  0  0  0  0
  9 31  1  0  0  0  0
 10 32  1  0  0  0  0
 10 33  1  0  0  0  0
 10 34  1  0  0  0  0
 12 13  1  0  0  0  0
 13 14  2  0  0  0  0
 14 15  1  0  0  0  0
 15 16  2  0  0  0  0
 15 35  1  0  0  0  0
 16 17  1  0  0  0  0
 17 18  1  0  0  0  0
 17 19  1  0  0  0  0
 18 13  1  0  0  0  0
 19 20  2  0  0  0  0
 19 36  1  0  0  0  0
 20 21  1  0  0  0  0
 20 23  1  0  0  0  0
 21 18  2  0  0  0  0
 21 22  1  0  0  0  0
 22 37  1  0  0  0  0
 22 38  1  0  0  0  0
 22 39  1  0  0  0  0
 23 24  1  0  0  0  0
 24 25  1  0  0  0  0
 24 40  1  0  0  0  0
 24 41  1  0  0  0  0
 25 26  1  0  0  0  0
 25 27  1  0  0  0  0
 25 42  1  1  0  0  0
 26 43  1  0  0  0  0
 26 44  1  0  0  0  0
 26 45  1  0  0  0  0
 27 46  1  0  0  0  0
M  END
>  <Mol_ID>
50

>  <Formula>
C19H19FN4O3

>  <MolWeight>
370.3775632

>  <Cat>
S1084

>  <Name>
Brivanib (BMS-540215)

>  <Synonyms>
N/A

>  <Target>
FGFR,VEGFR

>  <Form>
free base

>  <CAS>
649735-46-6

>  <URL>
http://selleckchem.com/products/Brivanib.html

$$$$
