BRL54443.cdx
 OpenBabel08302521333D

 35 37  0  0  0  0  0  0  0  0999 V2000
   -1.7279    0.7758    0.7553 N   0  0  0  0  0  0  0  0  0  0  0  0
   -1.9011   -0.5579    1.0390 C   0  0  0  0  0  0  0  0  0  0  0  0
   -1.6686   -1.2858   -0.1101 C   0  0  0  0  0  0  0  0  0  0  0  0
   -1.4385   -0.3177   -1.1541 C   0  0  0  0  0  0  0  0  0  0  0  0
   -1.1818   -0.4210   -2.5338 C   0  0  0  0  0  0  0  0  0  0  0  0
   -0.7221    0.6963   -3.2224 C   0  0  0  0  0  0  0  0  0  0  0  0
   -0.6015    1.9319   -2.6011 C   0  0  0  0  0  0  0  0  0  0  0  0
   -0.9582    2.0852   -1.2540 C   0  0  0  0  0  0  0  0  0  0  0  0
   -1.3622    0.9414   -0.5568 C   0  0  0  0  0  0  0  0  0  0  0  0
    0.6930   -3.7620    1.4310 N   0  0  0  0  0  0  0  0  0  0  0  0
   -0.6664   -3.6473    1.9792 C   0  0  0  0  0  0  0  0  0  0  0  0
   -1.8012   -3.6630    0.9387 C   0  0  0  0  0  0  0  0  0  0  0  0
   -1.5323   -2.7900   -0.2962 C   0  0  0  0  0  0  0  0  0  0  0  0
   -0.1255   -3.1534   -0.8040 C   0  0  0  0  0  0  0  0  0  0  0  0
    0.9151   -2.8845    0.2797 C   0  0  0  0  0  0  0  0  0  0  0  0
    1.6816   -3.4666    2.4726 C   0  0  0  0  0  0  0  0  0  0  0  0
   -0.3464    0.5158   -4.5212 O   0  0  0  0  0  0  0  0  0  0  0  0
   -1.7888    1.5201    1.4335 H   0  0  0  0  0  0  0  0  0  0  0  0
   -2.1191   -0.8690    2.0520 H   0  0  0  0  0  0  0  0  0  0  0  0
   -1.2666   -1.3741   -3.0462 H   0  0  0  0  0  0  0  0  0  0  0  0
   -0.2411    2.7946   -3.1533 H   0  0  0  0  0  0  0  0  0  0  0  0
   -0.8742    3.0495   -0.7646 H   0  0  0  0  0  0  0  0  0  0  0  0
   -0.8303   -4.5006    2.6542 H   0  0  0  0  0  0  0  0  0  0  0  0
   -0.7659   -2.7471    2.5931 H   0  0  0  0  0  0  0  0  0  0  0  0
   -1.9288   -4.6978    0.5967 H   0  0  0  0  0  0  0  0  0  0  0  0
   -2.7456   -3.3821    1.4206 H   0  0  0  0  0  0  0  0  0  0  0  0
   -2.2610   -3.0715   -1.0699 H   0  0  0  0  0  0  0  0  0  0  0  0
   -0.0994   -4.2139   -1.0899 H   0  0  0  0  0  0  0  0  0  0  0  0
    0.1476   -2.5975   -1.7053 H   0  0  0  0  0  0  0  0  0  0  0  0
    0.9053   -1.8289    0.5767 H   0  0  0  0  0  0  0  0  0  0  0  0
    1.9060   -3.0831   -0.1487 H   0  0  0  0  0  0  0  0  0  0  0  0
    2.6946   -3.4139    2.0561 H   0  0  0  0  0  0  0  0  0  0  0  0
    1.4802   -2.5110    2.9725 H   0  0  0  0  0  0  0  0  0  0  0  0
    1.6886   -4.2591    3.2272 H   0  0  0  0  0  0  0  0  0  0  0  0
    0.3568    1.1549   -4.7141 H   0  0  0  0  0  0  0  0  0  0  0  0
  1  2  1  0  0  0  0
  1  9  1  0  0  0  0
  1 18  1  0  0  0  0
  2  3  2  0  0  0  0
  2 19  1  0  0  0  0
  3  4  1  0  0  0  0
  3 13  1  0  0  0  0
  4  5  1  0  0  0  0
  4  9  2  0  0  0  0
  5  6  2  0  0  0  0
  5 20  1  0  0  0  0
  6  7  1  0  0  0  0
  6 17  1  0  0  0  0
  7  8  2  0  0  0  0
  7 21  1  0  0  0  0
  8  9  1  0  0  0  0
  8 22  1  0  0  0  0
 10 11  1  0  0  0  0
 10 15  1  0  0  0  0
 10 16  1  0  0  0  0
 11 12  1  0  0  0  0
 11 23  1  0  0  0  0
 11 24  1  0  0  0  0
 12 13  1  0  0  0  0
 12 25  1  0  0  0  0
 12 26  1  0  0  0  0
 13 14  1  0  0  0  0
 13 27  1  0  0  0  0
 14 15  1  0  0  0  0
 14 28  1  0  0  0  0
 14 29  1  0  0  0  0
 15 30  1  0  0  0  0
 15 31  1  0  0  0  0
 16 32  1  0  0  0  0
 16 33  1  0  0  0  0
 16 34  1  0  0  0  0
 17 35  1  0  0  0  0
M  END
>  <Mol_ID>
614

>  <Formula>
C14H18N2O

>  <MolWeight>
230.30552

>  <Cat>
S2852

>  <Name>
BRL-54443

>  <Synonyms>
N/A

>  <Target>
5-HT Receptor

>  <Form>
free base

>  <CAS>
57477-39-1

>  <URL>
http://selleckchem.com/products/brl-54443.html

$$$$
