Bromosporine.cdx
 OpenBabel08302519563D

 48 50  0  0  0  0  0  0  0  0999 V2000
   -1.1354    1.0734   -0.4851 C   0  0  0  0  0  0  0  0  0  0  0  0
    0.2595    1.0337   -0.5004 C   0  0  0  0  0  0  0  0  0  0  0  0
    0.9507   -0.0602    0.0394 C   0  0  0  0  0  0  0  0  0  0  0  0
    0.2148   -1.1138    0.6039 C   0  0  0  0  0  0  0  0  0  0  0  0
   -1.1837   -1.0923    0.5915 C   0  0  0  0  0  0  0  0  0  0  0  0
   -1.8625    0.0014    0.0437 C   0  0  0  0  0  0  0  0  0  0  0  0
   -3.3534   -0.0035    0.0510 C   0  0  0  0  0  0  0  0  0  0  0  0
    2.4522   -0.0550    0.0355 C   0  0  0  0  0  0  0  0  0  0  0  0
    0.8845   -2.2452    1.1825 N   0  0  0  0  0  0  0  0  0  0  0  0
    1.1172   -3.5725    0.1389 S   0  0  0  0  0  0  0  0  0  0  0  0
    2.6460   -4.2031    0.7950 C   0  0  0  0  0  0  0  0  0  0  0  0
    0.0654   -4.5156    0.4505 O   0  0  0  0  0  0  0  0  0  0  0  0
    1.3627   -3.1137   -1.2094 O   0  0  0  0  0  0  0  0  0  0  0  0
   -3.9870   -0.5779    1.0309 N   0  0  0  0  0  0  0  0  0  0  0  0
   -5.3463   -0.5103    0.9067 N   0  0  0  0  0  0  0  0  0  0  0  0
   -6.0741    0.0811   -0.1090 C   0  0  0  0  0  0  0  0  0  0  0  0
   -5.3528    0.6789   -1.1716 C   0  0  0  0  0  0  0  0  0  0  0  0
   -4.0141    0.6468   -1.1209 C   0  0  0  0  0  0  0  0  0  0  0  0
   -6.2821   -1.0248    1.7739 C   0  0  0  0  0  0  0  0  0  0  0  0
   -7.4918   -0.7514    1.3227 N   0  0  0  0  0  0  0  0  0  0  0  0
   -7.3616   -0.0563    0.1374 N   0  0  0  0  0  0  0  0  0  0  0  0
   -5.9259   -1.7653    3.0034 C   0  0  0  0  0  0  0  0  0  0  0  0
   -6.0831    1.2374   -2.2000 N   0  0  0  0  0  0  0  0  0  0  0  0
   -5.6179    1.8563   -3.3333 C   0  0  0  0  0  0  0  0  0  0  0  0
   -4.4476    2.0378   -3.6372 O   0  0  0  0  0  0  0  0  0  0  0  0
   -6.6725    2.2495   -4.0946 O   0  0  0  0  0  0  0  0  0  0  0  0
   -6.3341    2.8577   -5.3558 C   0  0  0  0  0  0  0  0  0  0  0  0
   -6.0256    4.3350   -5.1840 C   0  0  0  0  0  0  0  0  0  0  0  0
   -1.6281    1.9574   -0.8827 H   0  0  0  0  0  0  0  0  0  0  0  0
    0.8048    1.8717   -0.9314 H   0  0  0  0  0  0  0  0  0  0  0  0
   -1.7476   -1.9271    1.0014 H   0  0  0  0  0  0  0  0  0  0  0  0
    2.8301   -0.0869    1.0620 H   0  0  0  0  0  0  0  0  0  0  0  0
    2.8437   -0.9075   -0.5263 H   0  0  0  0  0  0  0  0  0  0  0  0
    2.8468    0.8531   -0.4333 H   0  0  0  0  0  0  0  0  0  0  0  0
    0.3808   -2.5928    2.0028 H   0  0  0  0  0  0  0  0  0  0  0  0
    2.4772   -4.5428    1.8190 H   0  0  0  0  0  0  0  0  0  0  0  0
    2.9643   -5.0425    0.1733 H   0  0  0  0  0  0  0  0  0  0  0  0
    3.3990   -3.4134    0.7646 H   0  0  0  0  0  0  0  0  0  0  0  0
   -3.3889    1.0432   -1.9055 H   0  0  0  0  0  0  0  0  0  0  0  0
   -5.3308   -2.6524    2.7659 H   0  0  0  0  0  0  0  0  0  0  0  0
   -5.3496   -1.1332    3.6872 H   0  0  0  0  0  0  0  0  0  0  0  0
   -6.8264   -2.0958    3.5299 H   0  0  0  0  0  0  0  0  0  0  0  0
   -7.0941    1.1790   -2.1297 H   0  0  0  0  0  0  0  0  0  0  0  0
   -5.5056    2.3308   -5.8422 H   0  0  0  0  0  0  0  0  0  0  0  0
   -7.2091    2.7432   -6.0054 H   0  0  0  0  0  0  0  0  0  0  0  0
   -5.1016    4.4808   -4.6156 H   0  0  0  0  0  0  0  0  0  0  0  0
   -5.9081    4.8211   -6.1579 H   0  0  0  0  0  0  0  0  0  0  0  0
   -6.8251    4.8368   -4.6310 H   0  0  0  0  0  0  0  0  0  0  0  0
  1  2  2  0  0  0  0
  1 29  1  0  0  0  0
  2  3  1  0  0  0  0
  2 30  1  0  0  0  0
  3  4  2  0  0  0  0
  3  8  1  0  0  0  0
  4  5  1  0  0  0  0
  4  9  1  0  0  0  0
  5  6  2  0  0  0  0
  5 31  1  0  0  0  0
  6  1  1  0  0  0  0
  6  7  1  0  0  0  0
  7 14  2  0  0  0  0
  8 32  1  0  0  0  0
  8 33  1  0  0  0  0
  8 34  1  0  0  0  0
  9 10  1  0  0  0  0
  9 35  1  0  0  0  0
 10 11  1  0  0  0  0
 10 12  2  0  0  0  0
 10 13  2  0  0  0  0
 11 36  1  0  0  0  0
 11 37  1  0  0  0  0
 11 38  1  0  0  0  0
 14 15  1  0  0  0  0
 15 16  1  0  0  0  0
 15 19  1  0  0  0  0
 16 17  1  0  0  0  0
 17 18  2  0  0  0  0
 17 23  1  0  0  0  0
 18  7  1  0  0  0  0
 18 39  1  0  0  0  0
 19 20  2  0  0  0  0
 19 22  1  0  0  0  0
 20 21  1  0  0  0  0
 21 16  2  0  0  0  0
 22 40  1  0  0  0  0
 22 41  1  0  0  0  0
 22 42  1  0  0  0  0
 23 24  1  0  0  0  0
 23 43  1  0  0  0  0
 24 25  2  0  0  0  0
 24 26  1  0  0  0  0
 26 27  1  0  0  0  0
 27 28  1  0  0  0  0
 27 44  1  0  0  0  0
 27 45  1  0  0  0  0
 28 46  1  0  0  0  0
 28 47  1  0  0  0  0
 28 48  1  0  0  0  0
M  END
>  <Mol_ID>
2239

>  <Formula>
C17H20N6O4S

>  <MolWeight>
404.4435

>  <Cat>
S7233

>  <Name>
Bromosporine

>  <Synonyms>
N/A

>  <Target>
Epigenetic Reader Domain

>  <Form>
free base

>  <CAS>
1619994-69-2

>  <URL>
http://selleckchem.com/products/bromosporine.html

$$$$
