Brompheniramine maleate.cdx
 OpenBabel08302521433D

 50 50  0  0  0  0  0  0  0  0999 V2000
    3.0795    0.1158   -0.3479 C   0  0  0  0  0  0  0  0  0  0  0  0
    4.5973    0.0944   -0.1435 C   0  0  3  0  0  0  0  0  0  0  0  0
    5.3178    0.9846   -1.1980 C   0  0  0  0  0  0  0  0  0  0  0  0
    5.2582    0.2395    1.2284 C   0  0  0  0  0  0  0  0  0  0  0  0
    4.9888    2.4928   -1.2267 C   0  0  0  0  0  0  0  0  0  0  0  0
    5.1999    3.2372    0.0220 N   0  0  0  0  0  0  0  0  0  0  0  0
    6.6193    3.3255    0.3795 C   0  0  0  0  0  0  0  0  0  0  0  0
    4.6486    4.5923   -0.0672 C   0  0  0  0  0  0  0  0  0  0  0  0
    4.7374    0.9621    2.2965 C   0  0  0  0  0  0  0  0  0  0  0  0
    5.5681    1.2932    3.3708 C   0  0  0  0  0  0  0  0  0  0  0  0
    6.8844    0.8558    3.3871 C   0  0  0  0  0  0  0  0  0  0  0  0
    7.3057    0.0555    2.3457 C   0  0  0  0  0  0  0  0  0  0  0  0
    6.5303   -0.2626    1.2858 N   0  0  0  0  0  0  0  0  0  0  0  0
    2.4828   -0.8843   -1.1426 C   0  0  0  0  0  0  0  0  0  0  0  0
    1.1280   -0.8285   -1.4910 C   0  0  0  0  0  0  0  0  0  0  0  0
    0.3420    0.2285   -1.0420 C   0  0  0  0  0  0  0  0  0  0  0  0
    0.9044    1.2261   -0.2576 C   0  0  0  0  0  0  0  0  0  0  0  0
    2.2591    1.1754    0.0736 C   0  0  0  0  0  0  0  0  0  0  0  0
   -1.4802    0.3277   -1.5245 Br  0  0  0  0  0  0  0  0  0  0  0  0
   -1.0733   -1.1846    2.1712 O   0  0  0  0  0  0  0  0  0  0  0  0
    0.2458   -1.3208    2.2732 C   0  0  0  0  0  0  0  0  0  0  0  0
    0.7495   -2.6791    2.0342 C   0  0  0  0  0  0  0  0  0  0  0  0
    0.1120   -3.8182    1.7269 C   0  0  0  0  0  0  0  0  0  0  0  0
   -1.3282   -4.0157    1.4653 C   0  0  0  0  0  0  0  0  0  0  0  0
   -1.7361   -5.2217    1.9194 O   0  0  0  0  0  0  0  0  0  0  0  0
    0.9647   -0.3862    2.5839 O   0  0  0  0  0  0  0  0  0  0  0  0
   -2.0524   -3.2651    0.8423 O   0  0  0  0  0  0  0  0  0  0  0  0
    4.8823   -0.9376   -0.4111 H   0  0  0  0  0  0  0  0  0  0  0  0
    6.4038    0.8570   -1.1095 H   0  0  0  0  0  0  0  0  0  0  0  0
    5.0647    0.5909   -2.1926 H   0  0  0  0  0  0  0  0  0  0  0  0
    5.5696    2.9542   -2.0356 H   0  0  0  0  0  0  0  0  0  0  0  0
    3.9396    2.5905   -1.5305 H   0  0  0  0  0  0  0  0  0  0  0  0
    7.1991    3.8717   -0.3730 H   0  0  0  0  0  0  0  0  0  0  0  0
    6.7372    3.8360    1.3425 H   0  0  0  0  0  0  0  0  0  0  0  0
    7.0767    2.3415    0.4944 H   0  0  0  0  0  0  0  0  0  0  0  0
    5.3019    5.2718   -0.6270 H   0  0  0  0  0  0  0  0  0  0  0  0
    3.6633    4.6017   -0.5456 H   0  0  0  0  0  0  0  0  0  0  0  0
    4.5099    5.0004    0.9405 H   0  0  0  0  0  0  0  0  0  0  0  0
    3.7268    1.3430    2.2975 H   0  0  0  0  0  0  0  0  0  0  0  0
    5.1934    1.9302    4.1676 H   0  0  0  0  0  0  0  0  0  0  0  0
    7.5641    1.1413    4.1808 H   0  0  0  0  0  0  0  0  0  0  0  0
    8.3197   -0.3317    2.3095 H   0  0  0  0  0  0  0  0  0  0  0  0
    3.0830   -1.7016   -1.5426 H   0  0  0  0  0  0  0  0  0  0  0  0
    0.7022   -1.5953   -2.1318 H   0  0  0  0  0  0  0  0  0  0  0  0
    0.3020    2.0627    0.0951 H   0  0  0  0  0  0  0  0  0  0  0  0
    2.6697    2.0045    0.6405 H   0  0  0  0  0  0  0  0  0  0  0  0
   -1.2459   -0.2251    2.2421 H   0  0  0  0  0  0  0  0  0  0  0  0
    1.8306   -2.7199    2.1498 H   0  0  0  0  0  0  0  0  0  0  0  0
    0.7130   -4.7154    1.6211 H   0  0  0  0  0  0  0  0  0  0  0  0
   -1.0714   -5.7361    2.4115 H   0  0  0  0  0  0  0  0  0  0  0  0
  1  2  1  0  0  0  0
  1 14  2  0  0  0  0
  2  3  1  0  0  0  0
  2  4  1  0  0  0  0
  2 28  1  0  0  0  0
  3  5  1  0  0  0  0
  3 29  1  0  0  0  0
  3 30  1  0  0  0  0
  4  9  2  0  0  0  0
  5  6  1  0  0  0  0
  5 31  1  0  0  0  0
  5 32  1  0  0  0  0
  6  7  1  0  0  0  0
  6  8  1  0  0  0  0
  7 33  1  0  0  0  0
  7 34  1  0  0  0  0
  7 35  1  0  0  0  0
  8 36  1  0  0  0  0
  8 37  1  0  0  0  0
  8 38  1  0  0  0  0
  9 10  1  0  0  0  0
  9 39  1  0  0  0  0
 10 11  2  0  0  0  0
 10 40  1  0  0  0  0
 11 12  1  0  0  0  0
 11 41  1  0  0  0  0
 12 13  2  0  0  0  0
 12 42  1  0  0  0  0
 13  4  1  0  0  0  0
 14 15  1  0  0  0  0
 14 43  1  0  0  0  0
 15 16  2  0  0  0  0
 15 44  1  0  0  0  0
 16 17  1  0  0  0  0
 16 19  1  0  0  0  0
 17 18  2  0  0  0  0
 17 45  1  0  0  0  0
 18  1  1  0  0  0  0
 18 46  1  0  0  0  0
 20 21  1  0  0  0  0
 20 47  1  0  0  0  0
 21 22  1  0  0  0  0
 21 26  2  0  0  0  0
 22 23  2  0  0  0  0
 22 48  1  0  0  0  0
 23 24  1  0  0  0  0
 23 49  1  0  0  0  0
 24 25  1  0  0  0  0
 24 27  2  0  0  0  0
 25 50  1  0  0  0  0
M  END
>  <Mol_ID>
882

>  <Formula>
C20H23BrN2O4

>  <MolWeight>
435.31162

>  <Cat>
S2585

>  <Name>
Brompheniramine hydrogen maleate

>  <Synonyms>
Brompheniramine maleate

>  <Target>
Histamine Receptor

>  <Form>
Maleate

>  <CAS>
980-71-2

>  <URL>
http://selleckchem.com/products/brompheniramine.html

$$$$
