Bromhexine hydrochloride.cdx
 OpenBabel08302522013D

 38 39  0  0  0  0  0  0  0  0999 V2000
   -0.5169   -5.0161   -3.6121 C   0  0  0  0  0  0  0  0  0  0  0  0
   -1.8027   -4.5847   -3.9095 C   0  0  0  0  0  0  0  0  0  0  0  0
   -2.5468   -3.9280   -2.9217 C   0  0  0  0  0  0  0  0  0  0  0  0
   -2.0037   -3.6599   -1.6442 C   0  0  0  0  0  0  0  0  0  0  0  0
   -0.7078   -4.1417   -1.3456 C   0  0  0  0  0  0  0  0  0  0  0  0
    0.0272   -4.8102   -2.3469 C   0  0  0  0  0  0  0  0  0  0  0  0
   -2.8144   -3.1121   -0.6388 N   0  0  0  0  0  0  0  0  0  0  0  0
   -0.8378   -5.8246    1.1317 C   0  0  0  0  0  0  0  0  0  0  0  0
   -0.7305   -4.3558    1.1964 N   0  0  0  0  0  0  0  0  0  0  0  0
   -0.0161   -3.8748   -0.0097 C   0  0  0  0  0  0  0  0  0  0  0  0
   -0.0876   -3.8985    2.4673 C   0  0  0  0  0  0  0  0  0  0  0  0
   -0.8502   -4.3974    3.7245 C   0  0  0  0  0  0  0  0  0  0  0  0
   -0.2645   -3.8638    5.0355 C   0  0  0  0  0  0  0  0  0  0  0  0
   -0.2054   -2.3440    5.0490 C   0  0  0  0  0  0  0  0  0  0  0  0
    0.5801   -1.8348    3.8533 C   0  0  0  0  0  0  0  0  0  0  0  0
    0.0058   -2.3523    2.5360 C   0  0  0  0  0  0  0  0  0  0  0  0
   -4.3067   -3.3686   -3.3760 Br  0  0  0  0  0  0  0  0  0  0  0  0
    0.5115   -5.8782   -4.9451 Br  0  0  0  0  0  0  0  0  0  0  0  0
   -2.2280   -4.7549   -4.8929 H   0  0  0  0  0  0  0  0  0  0  0  0
    1.0324   -5.1660   -2.1321 H   0  0  0  0  0  0  0  0  0  0  0  0
   -3.5898   -2.5476   -0.9686 H   0  0  0  0  0  0  0  0  0  0  0  0
   -2.3197   -2.7448    0.1670 H   0  0  0  0  0  0  0  0  0  0  0  0
    0.1423   -6.3088    1.2045 H   0  0  0  0  0  0  0  0  0  0  0  0
   -1.4873   -6.2198    1.9172 H   0  0  0  0  0  0  0  0  0  0  0  0
   -1.3082   -6.1547    0.1987 H   0  0  0  0  0  0  0  0  0  0  0  0
    1.0008   -4.2890   -0.0209 H   0  0  0  0  0  0  0  0  0  0  0  0
    0.0975   -2.7875    0.0071 H   0  0  0  0  0  0  0  0  0  0  0  0
    0.9338   -4.3029    2.5121 H   0  0  0  0  0  0  0  0  0  0  0  0
   -1.9051   -4.0999    3.6595 H   0  0  0  0  0  0  0  0  0  0  0  0
   -0.8270   -5.4911    3.7878 H   0  0  0  0  0  0  0  0  0  0  0  0
   -0.8685   -4.2128    5.8807 H   0  0  0  0  0  0  0  0  0  0  0  0
    0.7442   -4.2695    5.1752 H   0  0  0  0  0  0  0  0  0  0  0  0
   -1.2215   -1.9306    5.0298 H   0  0  0  0  0  0  0  0  0  0  0  0
    0.2639   -1.9961    5.9764 H   0  0  0  0  0  0  0  0  0  0  0  0
    0.5746   -0.7388    3.8485 H   0  0  0  0  0  0  0  0  0  0  0  0
    1.6280   -2.1472    3.9411 H   0  0  0  0  0  0  0  0  0  0  0  0
    0.6546   -1.9624    1.7460 H   0  0  0  0  0  0  0  0  0  0  0  0
   -0.9907   -1.9177    2.3829 H   0  0  0  0  0  0  0  0  0  0  0  0
  1  2  2  0  0  0  0
  1 18  1  0  0  0  0
  2  3  1  0  0  0  0
  2 19  1  0  0  0  0
  3  4  2  0  0  0  0
  3 17  1  0  0  0  0
  4  5  1  0  0  0  0
  4  7  1  0  0  0  0
  5  6  2  0  0  0  0
  6  1  1  0  0  0  0
  6 20  1  0  0  0  0
  7 21  1  0  0  0  0
  7 22  1  0  0  0  0
  8  9  1  0  0  0  0
  8 23  1  0  0  0  0
  8 24  1  0  0  0  0
  8 25  1  0  0  0  0
  9 10  1  0  0  0  0
  9 11  1  0  0  0  0
 10  5  1  0  0  0  0
 10 26  1  0  0  0  0
 10 27  1  0  0  0  0
 11 12  1  0  0  0  0
 11 28  1  0  0  0  0
 12 13  1  0  0  0  0
 12 29  1  0  0  0  0
 12 30  1  0  0  0  0
 13 14  1  0  0  0  0
 13 31  1  0  0  0  0
 13 32  1  0  0  0  0
 14 15  1  0  0  0  0
 14 33  1  0  0  0  0
 14 34  1  0  0  0  0
 15 16  1  0  0  0  0
 15 35  1  0  0  0  0
 15 36  1  0  0  0  0
 16 11  1  0  0  0  0
 16 37  1  0  0  0  0
 16 38  1  0  0  0  0
M  END
>  <Mol_ID>
1127

>  <Formula>
C14H21Br2ClN2

>  <MolWeight>
412.59094

>  <Cat>
S2060

>  <Name>
Bromhexine HCl

>  <Synonyms>
N/A

>  <Target>
Others

>  <Form>
HCl

>  <CAS>
611-75-6

>  <URL>
http://selleckchem.com/products/bromhexine-hydrochloride.html

$$$$
