Bromodeoxyuridine.cdx
 OpenBabel08302519553D

 28 29  0  0  0  0  0  0  0  0999 V2000
   -0.8417   -1.0729   -0.1501 C   0  0  0  0  0  0  0  0  0  0  0  0
    0.6394   -1.1413    0.1616 C   0  0  3  0  0  0  0  0  0  0  0  0
    1.1256    0.3111    0.0796 C   0  0  2  0  0  0  0  0  0  0  0  0
   -0.0395    1.1341   -0.1584 O   0  0  0  0  0  0  0  0  0  0  0  0
   -1.1895    0.3582    0.2201 C   0  0  1  0  0  0  0  0  0  0  0  0
    0.8419   -1.6898    1.4624 O   0  0  0  0  0  0  0  0  0  0  0  0
   -2.3867    0.8613   -0.4405 N   0  0  0  0  0  0  0  0  0  0  0  0
   -2.3104    1.4659   -1.6862 C   0  0  0  0  0  0  0  0  0  0  0  0
   -3.3748    1.9821   -2.3066 C   0  0  0  0  0  0  0  0  0  0  0  0
   -4.6921    1.8918   -1.6219 C   0  0  0  0  0  0  0  0  0  0  0  0
   -4.6964    1.1961   -0.4395 N   0  0  0  0  0  0  0  0  0  0  0  0
   -3.6019    0.6798    0.2030 C   0  0  0  0  0  0  0  0  0  0  0  0
   -5.7190    2.3962   -2.0668 O   0  0  0  0  0  0  0  0  0  0  0  0
   -3.2582    2.8118   -3.9682 Br  0  0  0  0  0  0  0  0  0  0  0  0
    2.1321    0.5260   -1.0520 C   0  0  0  0  0  0  0  0  0  0  0  0
    2.5741    1.8811   -1.0922 O   0  0  0  0  0  0  0  0  0  0  0  0
   -3.7282    0.1032    1.2809 O   0  0  0  0  0  0  0  0  0  0  0  0
   -0.9931   -1.2322   -1.2247 H   0  0  0  0  0  0  0  0  0  0  0  0
   -1.4491   -1.8021    0.3953 H   0  0  0  0  0  0  0  0  0  0  0  0
    1.1610   -1.8029   -0.5374 H   0  0  0  0  0  0  0  0  0  0  0  0
    1.5608    0.6502    1.0270 H   0  0  0  0  0  0  0  0  0  0  0  0
   -1.3053    0.4536    1.3070 H   0  0  0  0  0  0  0  0  0  0  0  0
    0.4999   -1.0775    2.1373 H   0  0  0  0  0  0  0  0  0  0  0  0
   -1.3261    1.5158   -2.1393 H   0  0  0  0  0  0  0  0  0  0  0  0
   -5.5832    1.1147    0.0336 H   0  0  0  0  0  0  0  0  0  0  0  0
    3.0134   -0.1047   -0.9023 H   0  0  0  0  0  0  0  0  0  0  0  0
    1.6934    0.2955   -2.0278 H   0  0  0  0  0  0  0  0  0  0  0  0
    1.7950    2.4235   -1.3125 H   0  0  0  0  0  0  0  0  0  0  0  0
  1  2  1  0  0  0  0
  1 18  1  0  0  0  0
  1 19  1  0  0  0  0
  2  6  1  0  0  0  0
  2 20  1  0  0  0  0
  3  2  1  0  0  0  0
  3  4  1  0  0  0  0
  3 21  1  1  0  0  0
  3 15  1  0  0  0  0
  4  5  1  0  0  0  0
  5  1  1  0  0  0  0
  5  7  1  0  0  0  0
  5 22  1  1  0  0  0
  6 23  1  0  0  0  0
  7  8  1  0  0  0  0
  8  9  2  0  0  0  0
  8 24  1  0  0  0  0
  9 10  1  0  0  0  0
  9 14  1  0  0  0  0
 10 11  1  0  0  0  0
 10 13  2  0  0  0  0
 11 12  1  0  0  0  0
 11 25  1  0  0  0  0
 12  7  1  0  0  0  0
 12 17  2  0  0  0  0
 15 16  1  0  0  0  0
 15 26  1  0  0  0  0
 15 27  1  0  0  0  0
 16 28  1  0  0  0  0
M  END
>  <Mol_ID>
2187

>  <Formula>
C9H11BrN2O5

>  <MolWeight>
307.09804

>  <Cat>
S7918

>  <Name>
Bromodeoxyuridine (BrdU)

>  <Synonyms>
5-Bromo-2'-deoxyuridine, BUdR

>  <Target>
DNA/RNA Synthesis

>  <Form>
free base

>  <CAS>
59-14-3

>  <URL>
http://selleckchem.com/products/bromodeoxyuridine-brdu.html

$$$$
