Broxyquinoline.cdx
 OpenBabel08302522043D

 18 19  0  0  0  0  0  0  0  0999 V2000
    2.4555    0.7067    0.0055 C   0  0  0  0  0  0  0  0  0  0  0  0
    2.4419   -0.6785   -0.0385 C   0  0  0  0  0  0  0  0  0  0  0  0
    1.2266   -1.3695   -0.0461 C   0  0  0  0  0  0  0  0  0  0  0  0
   -0.0038   -0.7006   -0.0330 C   0  0  0  0  0  0  0  0  0  0  0  0
    0.0007    0.7157    0.0054 C   0  0  0  0  0  0  0  0  0  0  0  0
    1.2446    1.3994    0.0358 C   0  0  0  0  0  0  0  0  0  0  0  0
   -1.1595   -1.4038   -0.0696 N   0  0  0  0  0  0  0  0  0  0  0  0
   -2.3345   -0.7448   -0.0880 C   0  0  0  0  0  0  0  0  0  0  0  0
   -2.4371    0.6255   -0.0569 C   0  0  0  0  0  0  0  0  0  0  0  0
   -1.2591    1.3594    0.0013 C   0  0  0  0  0  0  0  0  0  0  0  0
    1.3651    3.3012    0.1008 Br  0  0  0  0  0  0  0  0  0  0  0  0
    4.0944   -1.6061   -0.1062 Br  0  0  0  0  0  0  0  0  0  0  0  0
    1.2252   -2.7490   -0.0765 O   0  0  0  0  0  0  0  0  0  0  0  0
    3.3999    1.2462    0.0122 H   0  0  0  0  0  0  0  0  0  0  0  0
   -3.2173   -1.3767   -0.1358 H   0  0  0  0  0  0  0  0  0  0  0  0
   -3.4047    1.1139   -0.0791 H   0  0  0  0  0  0  0  0  0  0  0  0
   -1.3392    2.4431    0.0278 H   0  0  0  0  0  0  0  0  0  0  0  0
    2.1477   -3.0556   -0.0945 H   0  0  0  0  0  0  0  0  0  0  0  0
  1  2  2  0  0  0  0
  1 14  1  0  0  0  0
  2  3  1  0  0  0  0
  2 12  1  0  0  0  0
  3  4  2  0  0  0  0
  3 13  1  0  0  0  0
  4  5  1  0  0  0  0
  4  7  1  0  0  0  0
  5  6  2  0  0  0  0
  6  1  1  0  0  0  0
  6 11  1  0  0  0  0
  7  8  2  0  0  0  0
  8  9  1  0  0  0  0
  8 15  1  0  0  0  0
  9 10  2  0  0  0  0
  9 16  1  0  0  0  0
 10  5  1  0  0  0  0
 10 17  1  0  0  0  0
 13 18  1  0  0  0  0
M  END
>  <Mol_ID>
1304

>  <Formula>
C9H5Br2NO

>  <MolWeight>
302.9501

>  <Cat>
S4195

>  <Name>
Broxyquinoline

>  <Synonyms>
Dibromohydroxyquinoline

>  <Target>
Anti-infection

>  <Form>
free base

>  <CAS>
521-74-4

>  <URL>
http://selleckchem.com/products/broxyquinoline.html

$$$$
