BS-181.cdx
 OpenBabel08302520303D

 60 62  0  0  0  0  0  0  0  0999 V2000
   -0.7818    1.4681   -0.0089 C   0  0  0  0  0  0  0  0  0  0  0  0
   -1.9839    0.8654   -0.0189 C   0  0  0  0  0  0  0  0  0  0  0  0
   -2.0345   -0.6331    0.0149 C   0  0  0  0  0  0  0  0  0  0  0  0
   -0.9591   -1.3756    0.0519 N   0  0  0  0  0  0  0  0  0  0  0  0
    0.2524   -0.7462    0.0352 C   0  0  0  0  0  0  0  0  0  0  0  0
    0.3764    0.6535    0.0038 N   0  0  0  0  0  0  0  0  0  0  0  0
    1.5205   -1.2836   -0.0116 C   0  0  0  0  0  0  0  0  0  0  0  0
    2.3598   -0.1546   -0.0271 C   0  0  0  0  0  0  0  0  0  0  0  0
    1.6915    1.0138   -0.0162 N   0  0  0  0  0  0  0  0  0  0  0  0
    1.9033   -2.7407   -0.0381 C   0  0  0  0  0  0  0  0  0  0  0  0
    1.3989   -3.4910    1.2002 C   0  0  0  0  0  0  0  0  0  0  0  0
    1.4215   -3.4384   -1.3152 C   0  0  0  0  0  0  0  0  0  0  0  0
   -3.2632   -1.2438   -0.0163 N   0  0  0  0  0  0  0  0  0  0  0  0
   -3.5366   -2.5117    0.6412 C   0  0  0  0  0  0  0  0  0  0  0  0
   -3.9173   -2.3057    2.1115 C   0  0  0  0  0  0  0  0  0  0  0  0
   -5.1910   -1.4714    2.2970 C   0  0  0  0  0  0  0  0  0  0  0  0
   -5.5738   -1.2642    3.7677 C   0  0  0  0  0  0  0  0  0  0  0  0
   -4.5166   -0.5553    4.6240 C   0  0  0  0  0  0  0  0  0  0  0  0
   -4.1627    0.8417    4.1115 C   0  0  0  0  0  0  0  0  0  0  0  0
   -3.1544    1.4575    4.9649 N   0  0  0  0  0  0  0  0  0  0  0  0
   -0.7456    2.8705   -0.0629 N   0  0  0  0  0  0  0  0  0  0  0  0
   -0.5209    3.7160    1.0949 C   0  0  0  0  0  0  0  0  0  0  0  0
   -1.6103    4.7660    1.1099 C   0  0  0  0  0  0  0  0  0  0  0  0
   -2.8332    4.4967    1.7447 C   0  0  0  0  0  0  0  0  0  0  0  0
   -3.8581    5.4436    1.7493 C   0  0  0  0  0  0  0  0  0  0  0  0
   -3.6753    6.6678    1.1099 C   0  0  0  0  0  0  0  0  0  0  0  0
   -2.4770    6.9369    0.4495 C   0  0  0  0  0  0  0  0  0  0  0  0
   -1.4506    5.9887    0.4411 C   0  0  0  0  0  0  0  0  0  0  0  0
   -2.9048    1.4212   -0.0331 H   0  0  0  0  0  0  0  0  0  0  0  0
    3.4392   -0.1387   -0.0525 H   0  0  0  0  0  0  0  0  0  0  0  0
    2.9992   -2.8036   -0.0299 H   0  0  0  0  0  0  0  0  0  0  0  0
    0.3054   -3.4992    1.2563 H   0  0  0  0  0  0  0  0  0  0  0  0
    1.7359   -4.5334    1.1903 H   0  0  0  0  0  0  0  0  0  0  0  0
    1.7751   -3.0246    2.1173 H   0  0  0  0  0  0  0  0  0  0  0  0
    1.8200   -2.9405   -2.2065 H   0  0  0  0  0  0  0  0  0  0  0  0
    1.7524   -4.4822   -1.3401 H   0  0  0  0  0  0  0  0  0  0  0  0
    0.3288   -3.4361   -1.3960 H   0  0  0  0  0  0  0  0  0  0  0  0
   -4.0756   -0.6673   -0.1904 H   0  0  0  0  0  0  0  0  0  0  0  0
   -4.3524   -3.0189    0.1134 H   0  0  0  0  0  0  0  0  0  0  0  0
   -2.6677   -3.1779    0.5865 H   0  0  0  0  0  0  0  0  0  0  0  0
   -4.0674   -3.2879    2.5772 H   0  0  0  0  0  0  0  0  0  0  0  0
   -3.0762   -1.8332    2.6295 H   0  0  0  0  0  0  0  0  0  0  0  0
   -5.0825   -0.4947    1.8146 H   0  0  0  0  0  0  0  0  0  0  0  0
   -6.0249   -1.9713    1.7887 H   0  0  0  0  0  0  0  0  0  0  0  0
   -6.5067   -0.6872    3.8063 H   0  0  0  0  0  0  0  0  0  0  0  0
   -5.7961   -2.2385    4.2207 H   0  0  0  0  0  0  0  0  0  0  0  0
   -4.9029   -0.4801    5.6489 H   0  0  0  0  0  0  0  0  0  0  0  0
   -3.6137   -1.1741    4.6866 H   0  0  0  0  0  0  0  0  0  0  0  0
   -3.7630    0.7939    3.0945 H   0  0  0  0  0  0  0  0  0  0  0  0
   -5.0584    1.4720    4.0910 H   0  0  0  0  0  0  0  0  0  0  0  0
   -2.9848    2.4153    4.6624 H   0  0  0  0  0  0  0  0  0  0  0  0
   -3.4937    1.5128    5.9236 H   0  0  0  0  0  0  0  0  0  0  0  0
   -0.2850    3.2184   -0.9012 H   0  0  0  0  0  0  0  0  0  0  0  0
   -0.5528    3.1498    2.0365 H   0  0  0  0  0  0  0  0  0  0  0  0
    0.4658    4.1964    1.0557 H   0  0  0  0  0  0  0  0  0  0  0  0
   -2.9886    3.5371    2.2317 H   0  0  0  0  0  0  0  0  0  0  0  0
   -4.7984    5.2257    2.2481 H   0  0  0  0  0  0  0  0  0  0  0  0
   -4.4689    7.4102    1.1197 H   0  0  0  0  0  0  0  0  0  0  0  0
   -2.3431    7.8866   -0.0620 H   0  0  0  0  0  0  0  0  0  0  0  0
   -0.5289    6.2087   -0.0925 H   0  0  0  0  0  0  0  0  0  0  0  0
  1  2  2  0  0  0  0
  1 21  1  0  0  0  0
  2  3  1  0  0  0  0
  2 29  1  0  0  0  0
  3  4  2  0  0  0  0
  3 13  1  0  0  0  0
  4  5  1  0  0  0  0
  5  6  1  0  0  0  0
  5  7  2  0  0  0  0
  6  1  1  0  0  0  0
  7  8  1  0  0  0  0
  7 10  1  0  0  0  0
  8  9  2  0  0  0  0
  8 30  1  0  0  0  0
  9  6  1  0  0  0  0
 10 11  1  0  0  0  0
 10 12  1  0  0  0  0
 10 31  1  0  0  0  0
 11 32  1  0  0  0  0
 11 33  1  0  0  0  0
 11 34  1  0  0  0  0
 12 35  1  0  0  0  0
 12 36  1  0  0  0  0
 12 37  1  0  0  0  0
 13 14  1  0  0  0  0
 13 38  1  0  0  0  0
 14 15  1  0  0  0  0
 14 39  1  0  0  0  0
 14 40  1  0  0  0  0
 15 16  1  0  0  0  0
 15 41  1  0  0  0  0
 15 42  1  0  0  0  0
 16 17  1  0  0  0  0
 16 43  1  0  0  0  0
 16 44  1  0  0  0  0
 17 18  1  0  0  0  0
 17 45  1  0  0  0  0
 17 46  1  0  0  0  0
 18 19  1  0  0  0  0
 18 47  1  0  0  0  0
 18 48  1  0  0  0  0
 19 20  1  0  0  0  0
 19 49  1  0  0  0  0
 19 50  1  0  0  0  0
 20 51  1  0  0  0  0
 20 52  1  0  0  0  0
 21 22  1  0  0  0  0
 21 53  1  0  0  0  0
 22 23  1  0  0  0  0
 22 54  1  0  0  0  0
 22 55  1  0  0  0  0
 23 24  2  0  0  0  0
 24 25  1  0  0  0  0
 24 56  1  0  0  0  0
 25 26  2  0  0  0  0
 25 57  1  0  0  0  0
 26 27  1  0  0  0  0
 26 58  1  0  0  0  0
 27 28  2  0  0  0  0
 27 59  1  0  0  0  0
 28 23  1  0  0  0  0
 28 60  1  0  0  0  0
M  END
>  <Mol_ID>
332

>  <Formula>
C22H33ClN6

>  <MolWeight>
416.99062

>  <Cat>
S1572

>  <Name>
BS-181 HCl

>  <Synonyms>
N/A

>  <Target>
CDK

>  <Form>
Hydrochloride

>  <CAS>
1397219-81-6

>  <URL>
http://selleckchem.com/products/BS-181.html

$$$$
