BSI-201.cdx
 OpenBabel08302521233D

 18 18  0  0  0  0  0  0  0  0999 V2000
    2.9153    1.1630   -0.0045 C   0  0  0  0  0  0  0  0  0  0  0  0
    1.5159    1.1865    0.0208 C   0  0  0  0  0  0  0  0  0  0  0  0
    0.7866   -0.0071    0.0302 C   0  0  0  0  0  0  0  0  0  0  0  0
    1.4913   -1.2144    0.0225 C   0  0  0  0  0  0  0  0  0  0  0  0
    2.8989   -1.2489   -0.0064 C   0  0  0  0  0  0  0  0  0  0  0  0
    3.6183   -0.0508   -0.0235 C   0  0  0  0  0  0  0  0  0  0  0  0
    5.1085    0.0127   -0.0634 C   0  0  0  0  0  0  0  0  0  0  0  0
    5.8167   -1.1528   -0.0898 N   0  0  0  0  0  0  0  0  0  0  0  0
    5.6959    1.0891   -0.0766 O   0  0  0  0  0  0  0  0  0  0  0  0
   -1.2984    0.1712   -0.0011 I   0  0  0  0  0  0  0  0  0  0  0  0
    0.8143   -2.4979    0.0472 N   0  3  0  0  0  0  0  0  0  0  0  0
    0.1224   -2.7602    1.0370 O   0  0  0  0  0  0  0  0  0  0  0  0
    1.0514   -3.2683   -0.8945 O   0  5  0  0  0  0  0  0  0  0  0  0
    3.4591    2.1084   -0.0147 H   0  0  0  0  0  0  0  0  0  0  0  0
    1.0144    2.1533    0.0271 H   0  0  0  0  0  0  0  0  0  0  0  0
    3.4004   -2.2114   -0.0135 H   0  0  0  0  0  0  0  0  0  0  0  0
    6.8254   -1.0660   -0.1338 H   0  0  0  0  0  0  0  0  0  0  0  0
    5.4343   -2.0848   -0.1000 H   0  0  0  0  0  0  0  0  0  0  0  0
  1  2  2  0  0  0  0
  1 14  1  0  0  0  0
  2  3  1  0  0  0  0
  2 15  1  0  0  0  0
  3  4  2  0  0  0  0
  3 10  1  0  0  0  0
  4  5  1  0  0  0  0
  4 11  1  0  0  0  0
  5  6  2  0  0  0  0
  5 16  1  0  0  0  0
  6  1  1  0  0  0  0
  6  7  1  0  0  0  0
  7  8  1  0  0  0  0
  7  9  2  0  0  0  0
  8 17  1  0  0  0  0
  8 18  1  0  0  0  0
 11 12  2  0  0  0  0
 11 13  1  0  0  0  0
M  CHG  2  11   1  13  -1
M  END
>  <Mol_ID>
52

>  <Formula>
C7H5IN2O3

>  <MolWeight>
292.03067

>  <Cat>
S1087

>  <Name>
Iniparib (BSI-201)

>  <Synonyms>
NSC-746045, IND-71677

>  <Target>
PARP

>  <Form>
free base

>  <CAS>
160003-66-7

>  <URL>
http://selleckchem.com/products/BSI-201.html

$$$$
