BSO (L-Buthionine-(S,R)-sulfoximine)
 OpenBabel08302521393D

 32 31  0  0  0  0  0  0  0  0999 V2000
    3.7336    0.0814   -0.1061 C   0  0  0  0  0  0  0  0  0  0  0  0
    3.5119   -1.0261    0.9415 C   0  0  2  0  0  0  0  0  0  0  0  0
    2.1962   -1.7942    0.7599 C   0  0  0  0  0  0  0  0  0  0  0  0
    0.9096   -0.9868    0.9658 C   0  0  0  0  0  0  0  0  0  0  0  0
    3.9287    1.2557    0.1793 O   0  0  0  0  0  0  0  0  0  0  0  0
    3.7377   -0.3514   -1.3861 O   0  0  0  0  0  0  0  0  0  0  0  0
   -0.5364   -2.0342    0.7159 S   0  0  3  0  0  0  0  0  0  0  0  0
   -0.4508   -2.5399   -0.6403 O   0  0  0  0  0  0  0  0  0  0  0  0
   -0.6585   -2.9393    1.9588 N   0  0  0  0  0  0  0  0  0  0  0  0
   -1.9124   -0.8837    0.7691 C   0  0  0  0  0  0  0  0  0  0  0  0
   -3.2578   -1.6004    0.6236 C   0  0  0  0  0  0  0  0  0  0  0  0
   -4.4294   -0.6170    0.6564 C   0  0  0  0  0  0  0  0  0  0  0  0
   -5.7739   -1.3217    0.5241 C   0  0  0  0  0  0  0  0  0  0  0  0
    3.6064   -0.4636    2.3053 N   0  0  0  0  0  0  0  0  0  0  0  0
    4.3453   -1.7299    0.8315 H   0  0  0  0  0  0  0  0  0  0  0  0
    2.1767   -2.2398   -0.2421 H   0  0  0  0  0  0  0  0  0  0  0  0
    2.1978   -2.6430    1.4556 H   0  0  0  0  0  0  0  0  0  0  0  0
    0.8381   -0.5764    1.9776 H   0  0  0  0  0  0  0  0  0  0  0  0
    0.8411   -0.1694    0.2414 H   0  0  0  0  0  0  0  0  0  0  0  0
    3.6288   -1.3136   -1.5081 H   0  0  0  0  0  0  0  0  0  0  0  0
    0.0717   -3.6514    1.9864 H   0  0  0  0  0  0  0  0  0  0  0  0
   -1.8578   -0.3464    1.7213 H   0  0  0  0  0  0  0  0  0  0  0  0
   -1.7665   -0.1717   -0.0494 H   0  0  0  0  0  0  0  0  0  0  0  0
   -3.2770   -2.1594   -0.3205 H   0  0  0  0  0  0  0  0  0  0  0  0
   -3.3800   -2.3381    1.4249 H   0  0  0  0  0  0  0  0  0  0  0  0
   -4.4157   -0.0490    1.5944 H   0  0  0  0  0  0  0  0  0  0  0  0
   -4.3239    0.1048   -0.1618 H   0  0  0  0  0  0  0  0  0  0  0  0
   -5.9996   -1.9072    1.4221 H   0  0  0  0  0  0  0  0  0  0  0  0
   -6.5744   -0.5866    0.3892 H   0  0  0  0  0  0  0  0  0  0  0  0
   -5.7875   -1.9972   -0.3378 H   0  0  0  0  0  0  0  0  0  0  0  0
    4.5373   -0.0416    2.4059 H   0  0  0  0  0  0  0  0  0  0  0  0
    2.9883    0.3490    2.3676 H   0  0  0  0  0  0  0  0  0  0  0  0
  1  5  2  0  0  0  0
  1  6  1  0  0  0  0
  2 14  1  0  0  0  0
  2 15  1  6  0  0  0
  2  3  1  0  0  0  0
  2  1  1  0  0  0  0
  3  4  1  0  0  0  0
  3 16  1  0  0  0  0
  3 17  1  0  0  0  0
  4  7  1  0  0  0  0
  4 18  1  0  0  0  0
  4 19  1  0  0  0  0
  6 20  1  0  0  0  0
  7  8  2  0  0  0  0
  7  9  2  0  0  0  0
  7 10  1  0  0  0  0
  9 21  1  0  0  0  0
 10 11  1  0  0  0  0
 10 22  1  0  0  0  0
 10 23  1  0  0  0  0
 11 12  1  0  0  0  0
 11 24  1  0  0  0  0
 11 25  1  0  0  0  0
 12 13  1  0  0  0  0
 12 26  1  0  0  0  0
 12 27  1  0  0  0  0
 13 28  1  0  0  0  0
 13 29  1  0  0  0  0
 13 30  1  0  0  0  0
 14 31  1  0  0  0  0
 14 32  1  0  0  0  0
M  END
>  <Mol_ID>
7978

>  <Formula>
C8H18N2O3S

>  <MolWeight>
222.30512

>  <Cat>
S9728

>  <Name>
BSO (L-Buthionine-(S,R)-sulfoximine)

>  <Synonyms>
L-Buthionine sulfoximine, l-BSO

>  <Target>
¦ÃGCS

>  <Form>
Free Base

>  <CAS>
83730-53-4

>  <URL>
https://www.selleckchem.com/products/bso-l-buthionine-s-r-sulfoximine.html

$$$$
