BT2
 OpenBabel08302521343D

 18 19  0  0  0  0  0  0  0  0999 V2000
    0.0787    0.4473    0.0021 C   0  0  0  0  0  0  0  0  0  0  0  0
   -0.2037   -0.9201   -0.0038 C   0  0  0  0  0  0  0  0  0  0  0  0
    0.9942   -1.7015   -0.0040 C   0  0  0  0  0  0  0  0  0  0  0  0
    2.1463   -0.9422   -0.0035 C   0  0  0  0  0  0  0  0  0  0  0  0
    1.7815    0.7264    0.0025 S   0  0  0  0  0  0  0  0  0  0  0  0
   -1.5575   -1.3302   -0.0083 C   0  0  0  0  0  0  0  0  0  0  0  0
   -2.5832   -0.3830   -0.0053 C   0  0  0  0  0  0  0  0  0  0  0  0
   -2.2833    0.9716    0.0023 C   0  0  0  0  0  0  0  0  0  0  0  0
   -0.9536    1.4070    0.0062 C   0  0  0  0  0  0  0  0  0  0  0  0
    3.5161   -1.3942   -0.0084 C   0  0  0  0  0  0  0  0  0  0  0  0
    4.5473   -0.7356   -0.0116 O   0  0  0  0  0  0  0  0  0  0  0  0
    3.5882   -2.7462   -0.0116 O   0  0  0  0  0  0  0  0  0  0  0  0
    1.0063   -2.7845   -0.0069 H   0  0  0  0  0  0  0  0  0  0  0  0
   -1.8005   -2.3899   -0.0142 H   0  0  0  0  0  0  0  0  0  0  0  0
   -3.6176   -0.7138   -0.0107 H   0  0  0  0  0  0  0  0  0  0  0  0
   -3.0903    1.7006    0.0050 H   0  0  0  0  0  0  0  0  0  0  0  0
   -0.7269    2.4697    0.0121 H   0  0  0  0  0  0  0  0  0  0  0  0
    4.5499   -2.9226   -0.0190 H   0  0  0  0  0  0  0  0  0  0  0  0
  1  2  2  0  0  0  0
  1  5  1  0  0  0  0
  2  3  1  0  0  0  0
  3  4  2  0  0  0  0
  3 13  1  0  0  0  0
  4  5  1  0  0  0  0
  4 10  1  0  0  0  0
  6  7  2  0  0  0  0
  6  2  1  0  0  0  0
  6 14  1  0  0  0  0
  7  8  1  0  0  0  0
  7 15  1  0  0  0  0
  8  9  2  0  0  0  0
  8 16  1  0  0  0  0
  9  1  1  0  0  0  0
  9 17  1  0  0  0  0
 10 11  2  0  0  0  0
 10 12  1  0  0  0  0
 12 18  1  0  0  0  0
M  END
>  <Mol_ID>
6489

>  <Formula>
C9H4Cl2O2S

>  <MolWeight>
247.09786

>  <Cat>
E2663

>  <Name>
BT2

>  <Target>
Bcl-2

>  <Form>
free base

>  <CAS>
34576-94-8

>  <URL>
http://www.selleckchem.com/products/bt2.html

$$$$
