BTdCPU
 OpenBabel08302521343D

 29 31  0  0  0  0  0  0  0  0999 V2000
    0.7911   -0.0745   -0.1810 N   0  0  0  0  0  0  0  0  0  0  0  0
    0.1845   -1.2412    0.2663 C   0  0  0  0  0  0  0  0  0  0  0  0
   -1.0037   -1.3277    0.5495 O   0  0  0  0  0  0  0  0  0  0  0  0
    1.0777   -2.2974    0.3077 N   0  0  0  0  0  0  0  0  0  0  0  0
    0.7593   -3.6525    0.5674 C   0  0  0  0  0  0  0  0  0  0  0  0
   -0.5390   -4.1239    0.7857 C   0  0  0  0  0  0  0  0  0  0  0  0
   -0.7816   -5.4776    1.0265 C   0  0  0  0  0  0  0  0  0  0  0  0
    0.2749   -6.3818    1.0439 C   0  0  0  0  0  0  0  0  0  0  0  0
    1.5726   -5.9292    0.8191 C   0  0  0  0  0  0  0  0  0  0  0  0
    1.8148   -4.5718    0.5835 C   0  0  0  0  0  0  0  0  0  0  0  0
    0.4836    4.5307   -2.6859 S   0  0  0  0  0  0  0  0  0  0  0  0
   -0.9918    5.2962   -2.5204 N   0  0  0  0  0  0  0  0  0  0  0  0
   -1.8161    4.6575   -1.7090 N   0  0  0  0  0  0  0  0  0  0  0  0
   -1.2491    3.4938   -1.2057 C   0  0  0  0  0  0  0  0  0  0  0  0
    0.0515    3.2295   -1.6418 C   0  0  0  0  0  0  0  0  0  0  0  0
   -1.8524    2.5846   -0.3223 C   0  0  0  0  0  0  0  0  0  0  0  0
   -1.1589    1.4280    0.0557 C   0  0  0  0  0  0  0  0  0  0  0  0
    0.1186    1.1464   -0.4356 C   0  0  0  0  0  0  0  0  0  0  0  0
    0.7664    2.0818   -1.2556 C   0  0  0  0  0  0  0  0  0  0  0  0
    1.7104   -0.1748   -0.5831 H   0  0  0  0  0  0  0  0  0  0  0  0
    2.0530   -2.0807    0.1998 H   0  0  0  0  0  0  0  0  0  0  0  0
   -1.4024   -3.4653    0.7759 H   0  0  0  0  0  0  0  0  0  0  0  0
   -1.7982   -5.8193    1.1977 H   0  0  0  0  0  0  0  0  0  0  0  0
    0.0848   -7.4357    1.2297 H   0  0  0  0  0  0  0  0  0  0  0  0
    2.3997   -6.6353    0.8258 H   0  0  0  0  0  0  0  0  0  0  0  0
    2.8376   -4.2511    0.4067 H   0  0  0  0  0  0  0  0  0  0  0  0
   -2.8583    2.7632    0.0460 H   0  0  0  0  0  0  0  0  0  0  0  0
   -1.6682    0.7554    0.7405 H   0  0  0  0  0  0  0  0  0  0  0  0
    1.7681    1.9129   -1.6363 H   0  0  0  0  0  0  0  0  0  0  0  0
  1  2  1  0  0  0  0
  1 18  1  0  0  0  0
  1 20  1  0  0  0  0
  2  3  2  0  0  0  0
  2  4  1  0  0  0  0
  4  5  1  0  0  0  0
  4 21  1  0  0  0  0
  5  6  2  0  0  0  0
  5 10  1  0  0  0  0
  6  7  1  0  0  0  0
  6 22  1  0  0  0  0
  7  8  2  0  0  0  0
  7 23  1  0  0  0  0
  8  9  1  0  0  0  0
  8 24  1  0  0  0  0
  9 10  2  0  0  0  0
  9 25  1  0  0  0  0
 10 26  1  0  0  0  0
 11 12  1  0  0  0  0
 11 15  1  0  0  0  0
 12 13  2  0  0  0  0
 13 14  1  0  0  0  0
 14 15  2  0  0  0  0
 16 17  2  0  0  0  0
 16 14  1  0  0  0  0
 16 27  1  0  0  0  0
 17 18  1  0  0  0  0
 17 28  1  0  0  0  0
 18 19  2  0  0  0  0
 19 15  1  0  0  0  0
 19 29  1  0  0  0  0
M  END
>  <Mol_ID>
6579

>  <Formula>
C13H8Cl2N4OS

>  <MolWeight>
339.19982

>  <Cat>
S0006

>  <Name>
BTdCPU

>  <Synonyms>
N/A

>  <Target>
PERK

>  <Form>
Free base

>  <CAS>
1257423-87-2

>  <URL>
http://www.selleckchem.com/products/btdcpu.html

$$$$
