BTK IN-1
 OpenBabel08302521313D

 48 51  0  0  0  0  0  0  0  0999 V2000
    0.8813    0.0458   -0.9175 N   0  0  0  0  0  0  0  0  0  0  0  0
    0.3195   -0.5374   -2.0628 C   0  0  0  0  0  0  0  0  0  0  0  0
    1.2116   -1.4777   -2.8935 C   0  0  0  0  0  0  0  0  0  0  0  0
   -0.8395   -0.3095   -2.4139 O   0  0  0  0  0  0  0  0  0  0  0  0
    0.6336   -2.8356   -3.0046 N   0  0  0  0  0  0  0  0  0  0  0  0
    0.5405   -1.9016    1.5783 C   0  0  0  0  0  0  0  0  0  0  0  0
    1.5405   -2.3740    2.4870 C   0  0  0  0  0  0  0  0  0  0  0  0
    0.5521   -2.4998    0.3442 N   0  0  0  0  0  0  0  0  0  0  0  0
    2.4278   -3.3321    2.0071 C   0  0  0  0  0  0  0  0  0  0  0  0
    1.9450   -2.1577    3.8408 C   0  0  0  0  0  0  0  0  0  0  0  0
    1.4638   -3.4464    0.0357 C   0  0  0  0  0  0  0  0  0  0  0  0
    2.4593   -3.8949    0.7976 N   0  0  0  0  0  0  0  0  0  0  0  0
    3.3211   -3.6617    2.9884 N   0  0  0  0  0  0  0  0  0  0  0  0
    3.0312   -2.9572    4.1217 C   0  0  0  0  0  0  0  0  0  0  0  0
   -0.4268   -0.9166    1.8107 N   0  0  0  0  0  0  0  0  0  0  0  0
   -1.0445   -0.2667    0.6340 C   0  0  0  0  0  0  0  0  0  0  0  0
   -0.2964    0.0308    2.9005 C   0  0  0  0  0  0  0  0  0  0  0  0
   -0.0535    0.7359   -0.0101 C   0  0  3  0  0  0  0  0  0  0  0  0
    0.6963    1.1272    2.5207 C   0  0  0  0  0  0  0  0  0  0  0  0
    0.5872    1.6559    1.0683 C   0  0  0  0  0  0  0  0  0  0  0  0
    0.8663   -3.5768   -4.1808 C   0  0  0  0  0  0  0  0  0  0  0  0
    1.9692   -3.3524   -5.0204 C   0  0  0  0  0  0  0  0  0  0  0  0
    0.0419   -4.6701   -4.4875 C   0  0  0  0  0  0  0  0  0  0  0  0
    2.1515   -4.0908   -6.1907 C   0  0  0  0  0  0  0  0  0  0  0  0
    0.2229   -5.4185   -5.6546 C   0  0  0  0  0  0  0  0  0  0  0  0
    1.2651   -5.1082   -6.5286 C   0  0  0  0  0  0  0  0  0  0  0  0
    1.5752   -0.5387   -0.4575 H   0  0  0  0  0  0  0  0  0  0  0  0
    1.2733   -0.9996   -3.8779 H   0  0  0  0  0  0  0  0  0  0  0  0
    2.2166   -1.5381   -2.4660 H   0  0  0  0  0  0  0  0  0  0  0  0
   -0.3525   -2.8532   -2.7471 H   0  0  0  0  0  0  0  0  0  0  0  0
    1.4995   -1.4976    4.5734 H   0  0  0  0  0  0  0  0  0  0  0  0
    1.3970   -3.8875   -0.9520 H   0  0  0  0  0  0  0  0  0  0  0  0
    4.0554   -4.3417    2.8658 H   0  0  0  0  0  0  0  0  0  0  0  0
    3.6143   -3.0916    5.0235 H   0  0  0  0  0  0  0  0  0  0  0  0
   -1.9128    0.3182    0.9712 H   0  0  0  0  0  0  0  0  0  0  0  0
   -1.4502   -0.9969   -0.0703 H   0  0  0  0  0  0  0  0  0  0  0  0
   -0.0582   -0.4425    3.8519 H   0  0  0  0  0  0  0  0  0  0  0  0
   -1.2793    0.4875    3.0859 H   0  0  0  0  0  0  0  0  0  0  0  0
   -0.6213    1.4068   -0.6694 H   0  0  0  0  0  0  0  0  0  0  0  0
    1.7165    0.7692    2.6926 H   0  0  0  0  0  0  0  0  0  0  0  0
    0.5541    1.9664    3.2153 H   0  0  0  0  0  0  0  0  0  0  0  0
    1.5649    2.0347    0.7466 H   0  0  0  0  0  0  0  0  0  0  0  0
   -0.0581    2.5457    1.1332 H   0  0  0  0  0  0  0  0  0  0  0  0
    2.6934   -2.5835   -4.7812 H   0  0  0  0  0  0  0  0  0  0  0  0
   -0.7681   -4.9511   -3.8191 H   0  0  0  0  0  0  0  0  0  0  0  0
    2.9837   -3.8512   -6.8516 H   0  0  0  0  0  0  0  0  0  0  0  0
   -0.4453   -6.2441   -5.8921 H   0  0  0  0  0  0  0  0  0  0  0  0
    1.3969   -5.6641   -7.4493 H   0  0  0  0  0  0  0  0  0  0  0  0
  1  2  1  0  0  0  0
  1 18  1  0  0  0  0
  1 27  1  0  0  0  0
  2  3  1  0  0  0  0
  2  4  2  0  0  0  0
  3  5  1  0  0  0  0
  3 28  1  0  0  0  0
  3 29  1  0  0  0  0
  5 21  1  0  0  0  0
  5 30  1  0  0  0  0
  6  7  1  0  0  0  0
  6  8  2  0  0  0  0
  6 15  1  0  0  0  0
  7  9  2  0  0  0  0
  7 10  1  0  0  0  0
  8 11  1  0  0  0  0
  9 12  1  0  0  0  0
  9 13  1  0  0  0  0
 10 14  2  0  0  0  0
 10 31  1  0  0  0  0
 11 12  2  0  0  0  0
 11 32  1  0  0  0  0
 13 14  1  0  0  0  0
 13 33  1  0  0  0  0
 14 34  1  0  0  0  0
 15 16  1  0  0  0  0
 15 17  1  0  0  0  0
 16 18  1  0  0  0  0
 16 35  1  0  0  0  0
 16 36  1  0  0  0  0
 17 19  1  0  0  0  0
 17 37  1  0  0  0  0
 17 38  1  0  0  0  0
 18 20  1  0  0  0  0
 18 39  1  0  0  0  0
 19 20  1  0  0  0  0
 19 40  1  0  0  0  0
 19 41  1  0  0  0  0
 20 42  1  0  0  0  0
 20 43  1  0  0  0  0
 21 22  2  0  0  0  0
 21 23  1  0  0  0  0
 22 24  1  0  0  0  0
 22 44  1  0  0  0  0
 23 25  2  0  0  0  0
 23 45  1  0  0  0  0
 24 26  2  0  0  0  0
 24 46  1  0  0  0  0
 25 26  1  0  0  0  0
 25 47  1  0  0  0  0
 26 48  1  0  0  0  0
M  END
>  <Mol_ID>
6096

>  <Formula>
C19H21ClN6O

>  <MolWeight>
384.86264

>  <Cat>
S8571

>  <Name>
BTK IN-1

>  <Synonyms>
SNS062 analog

>  <Target>
BTK

>  <Form>
free base

>  <CAS>
1270014-40-8

>  <URL>
http://www.selleckchem.com/products/btk-in-1.html

$$$$
