BTK inhibitor 1 (Compound 27)
 OpenBabel08302521043D

 58 62  0  0  0  0  0  0  0  0999 V2000
   -0.9048    0.8446   -1.1540 N   0  0  0  0  0  0  0  0  0  0  0  0
   -0.7897   -0.4950   -1.2372 C   0  0  0  0  0  0  0  0  0  0  0  0
   -0.7373   -1.3870   -0.2345 N   0  0  0  0  0  0  0  0  0  0  0  0
   -0.8006   -0.7849    0.9628 C   0  0  0  0  0  0  0  0  0  0  0  0
   -0.9121    0.5749    1.2089 C   0  0  0  0  0  0  0  0  0  0  0  0
   -0.9834    1.4075    0.0813 C   0  0  0  0  0  0  0  0  0  0  0  0
   -1.1336    2.8631    0.1801 C   0  0  0  0  0  0  0  0  0  0  0  0
   -0.7709   -1.4355    2.1649 N   0  0  0  0  0  0  0  0  0  0  0  0
   -0.8402   -0.5270    3.1878 C   0  0  0  0  0  0  0  0  0  0  0  0
   -0.9136    0.7266    2.6256 C   0  0  0  0  0  0  0  0  0  0  0  0
   -1.8315    3.4601    1.2459 C   0  0  0  0  0  0  0  0  0  0  0  0
   -1.9436    4.8424    1.3746 C   0  0  0  0  0  0  0  0  0  0  0  0
   -1.3932    5.6807    0.4052 C   0  0  0  0  0  0  0  0  0  0  0  0
   -0.7140    5.0993   -0.6681 C   0  0  0  0  0  0  0  0  0  0  0  0
   -0.5848    3.7168   -0.7878 C   0  0  0  0  0  0  0  0  0  0  0  0
   -0.1663    5.8850   -1.6057 F   0  0  0  0  0  0  0  0  0  0  0  0
   -1.5203    7.1679    0.5307 C   0  0  0  0  0  0  0  0  0  0  0  0
   -0.4085    7.7412    1.2493 N   0  0  0  0  0  0  0  0  0  0  0  0
   -0.4200    7.8806    2.6244 C   0  0  0  0  0  0  0  0  0  0  0  0
    0.7971    8.4773    3.1895 C   0  0  0  0  0  0  0  0  0  0  0  0
   -1.3889    7.5421    3.3115 O   0  0  0  0  0  0  0  0  0  0  0  0
    1.8706    8.9055    2.4197 N   0  0  0  0  0  0  0  0  0  0  0  0
    2.6682    9.4404    3.3214 C   0  0  0  0  0  0  0  0  0  0  0  0
    2.1818    9.3380    4.5942 O   0  0  0  0  0  0  0  0  0  0  0  0
    0.9504    8.7018    4.5055 N   0  0  0  0  0  0  0  0  0  0  0  0
    3.9871   10.1433    3.1584 C   0  0  0  0  0  0  0  0  0  0  0  0
    4.3909   10.1915    1.6742 C   0  0  0  0  0  0  0  0  0  0  0  0
    3.8828   11.5850    3.6879 C   0  0  0  0  0  0  0  0  0  0  0  0
    5.0757    9.3921    3.9415 C   0  0  0  0  0  0  0  0  0  0  0  0
   -0.8324   -0.8436    4.6249 C   0  0  0  0  0  0  0  0  0  0  0  0
   -0.7235   -2.1002    5.2490 C   0  0  0  0  0  0  0  0  0  0  0  0
   -0.7393   -2.0064    6.5787 N   0  0  0  0  0  0  0  0  0  0  0  0
   -0.8571   -0.6829    6.8013 N   0  0  0  0  0  0  0  0  0  0  0  0
   -0.9301    0.0584    5.6580 C   0  0  0  0  0  0  0  0  0  0  0  0
   -0.8735   -0.1878    8.1563 C   0  0  0  0  0  0  0  0  0  0  0  0
   -0.7319   -0.9049   -2.2411 H   0  0  0  0  0  0  0  0  0  0  0  0
   -0.7130   -2.4375    2.2601 H   0  0  0  0  0  0  0  0  0  0  0  0
   -0.9688    1.6512    3.1846 H   0  0  0  0  0  0  0  0  0  0  0  0
   -2.3167    2.8535    2.0053 H   0  0  0  0  0  0  0  0  0  0  0  0
   -2.4658    5.2542    2.2366 H   0  0  0  0  0  0  0  0  0  0  0  0
   -0.0449    3.3116   -1.6409 H   0  0  0  0  0  0  0  0  0  0  0  0
   -1.5755    7.6313   -0.4600 H   0  0  0  0  0  0  0  0  0  0  0  0
   -2.4547    7.4219    1.0471 H   0  0  0  0  0  0  0  0  0  0  0  0
    0.4522    7.9600    0.7534 H   0  0  0  0  0  0  0  0  0  0  0  0
    3.6618   10.7525    1.0773 H   0  0  0  0  0  0  0  0  0  0  0  0
    5.3659   10.6757    1.5453 H   0  0  0  0  0  0  0  0  0  0  0  0
    4.4613    9.1849    1.2457 H   0  0  0  0  0  0  0  0  0  0  0  0
    3.5850   11.6077    4.7429 H   0  0  0  0  0  0  0  0  0  0  0  0
    4.8437   12.1062    3.6065 H   0  0  0  0  0  0  0  0  0  0  0  0
    3.1405   12.1647    3.1266 H   0  0  0  0  0  0  0  0  0  0  0  0
    4.8376    9.3391    5.0104 H   0  0  0  0  0  0  0  0  0  0  0  0
    5.1862    8.3640    3.5779 H   0  0  0  0  0  0  0  0  0  0  0  0
    6.0479    9.8888    3.8442 H   0  0  0  0  0  0  0  0  0  0  0  0
   -0.6286   -3.0768    4.7932 H   0  0  0  0  0  0  0  0  0  0  0  0
   -1.0356    1.1338    5.6823 H   0  0  0  0  0  0  0  0  0  0  0  0
   -1.6576   -0.7127    8.7072 H   0  0  0  0  0  0  0  0  0  0  0  0
    0.1060   -0.3803    8.6005 H   0  0  0  0  0  0  0  0  0  0  0  0
   -1.0779    0.8856    8.1491 H   0  0  0  0  0  0  0  0  0  0  0  0
  1  2  2  0  0  0  0
  2  3  1  0  0  0  0
  2 36  1  0  0  0  0
  3  4  2  0  0  0  0
  4  5  1  0  0  0  0
  4  8  1  0  0  0  0
  5  6  2  0  0  0  0
  6  1  1  0  0  0  0
  6  7  1  0  0  0  0
  7 11  2  0  0  0  0
  8  9  1  0  0  0  0
  8 37  1  0  0  0  0
  9 10  2  0  0  0  0
  9 30  1  0  0  0  0
 10  5  1  0  0  0  0
 10 38  1  0  0  0  0
 11 12  1  0  0  0  0
 11 39  1  0  0  0  0
 12 13  2  0  0  0  0
 12 40  1  0  0  0  0
 13 14  1  0  0  0  0
 13 17  1  0  0  0  0
 14 15  2  0  0  0  0
 14 16  1  0  0  0  0
 15  7  1  0  0  0  0
 15 41  1  0  0  0  0
 17 18  1  0  0  0  0
 17 42  1  0  0  0  0
 17 43  1  0  0  0  0
 18 19  1  0  0  0  0
 18 44  1  0  0  0  0
 19 20  1  0  0  0  0
 19 21  2  0  0  0  0
 20 22  1  0  0  0  0
 22 23  2  0  0  0  0
 23 24  1  0  0  0  0
 23 26  1  0  0  0  0
 24 25  1  0  0  0  0
 25 20  2  0  0  0  0
 26 27  1  0  0  0  0
 26 28  1  0  0  0  0
 26 29  1  0  0  0  0
 27 45  1  0  0  0  0
 27 46  1  0  0  0  0
 27 47  1  0  0  0  0
 28 48  1  0  0  0  0
 28 49  1  0  0  0  0
 28 50  1  0  0  0  0
 29 51  1  0  0  0  0
 29 52  1  0  0  0  0
 29 53  1  0  0  0  0
 30 31  1  0  0  0  0
 31 32  2  0  0  0  0
 31 54  1  0  0  0  0
 32 33  1  0  0  0  0
 33 34  1  0  0  0  0
 33 35  1  0  0  0  0
 34 30  2  0  0  0  0
 34 55  1  0  0  0  0
 35 56  1  0  0  0  0
 35 57  1  0  0  0  0
 35 58  1  0  0  0  0
M  END
>  <Mol_ID>
4300

>  <Formula>
C24H23FN8O2

>  <MolWeight>
474.4902232

>  <Cat>
S8679

>  <Name>
BTK inhibitor 1 (Compound 27)

>  <Synonyms>
N/A

>  <Target>
BTK

>  <Form>
Free Base

>  <CAS>
2230724-66-8

>  <URL>
http://www.selleckchem.com/products/btk-inhibitor-1-compound27.html

$$$$
