BTYNB
 OpenBabel08302521313D

 26 27  0  0  0  0  0  0  0  0999 V2000
    0.9525    0.4183   -0.2000 C   0  0  0  0  0  0  0  0  0  0  0  0
    0.3343   -0.6404   -1.0571 C   0  0  0  0  0  0  0  0  0  0  0  0
    0.8561   -1.9474   -1.2213 C   0  0  0  0  0  0  0  0  0  0  0  0
    0.1661   -2.8264   -2.0804 C   0  0  0  0  0  0  0  0  0  0  0  0
   -1.0211   -2.4552   -2.7153 C   0  0  0  0  0  0  0  0  0  0  0  0
   -1.5290   -1.1756   -2.5401 C   0  0  0  0  0  0  0  0  0  0  0  0
   -0.8503   -0.2718   -1.7252 C   0  0  0  0  0  0  0  0  0  0  0  0
    0.4794    1.5491   -0.1220 O   0  0  0  0  0  0  0  0  0  0  0  0
    2.0673    0.0965    0.5154 N   0  0  0  0  0  0  0  0  0  0  0  0
    2.0665   -2.3424   -0.5941 N   0  0  0  0  0  0  0  0  0  0  0  0
    2.1988   -3.5626   -0.1736 C   0  0  0  0  0  0  0  0  0  0  0  0
    3.4140   -3.9862    0.4774 C   0  0  0  0  0  0  0  0  0  0  0  0
    4.5394   -3.2529    0.8062 C   0  0  0  0  0  0  0  0  0  0  0  0
    5.5199   -4.0434    1.4801 C   0  0  0  0  0  0  0  0  0  0  0  0
    5.1015   -5.3429    1.6141 C   0  0  0  0  0  0  0  0  0  0  0  0
    3.5673   -5.6240    0.9560 S   0  0  0  0  0  0  0  0  0  0  0  0
    6.1170   -6.6797    2.4446 Br  0  0  0  0  0  0  0  0  0  0  0  0
    0.5509   -3.8235   -2.2786 H   0  0  0  0  0  0  0  0  0  0  0  0
   -1.5405   -3.1645   -3.3551 H   0  0  0  0  0  0  0  0  0  0  0  0
   -2.4458   -0.8747   -3.0409 H   0  0  0  0  0  0  0  0  0  0  0  0
   -1.2510    0.7347   -1.6082 H   0  0  0  0  0  0  0  0  0  0  0  0
    2.4951   -0.8186    0.4040 H   0  0  0  0  0  0  0  0  0  0  0  0
    2.5139    0.8061    1.0764 H   0  0  0  0  0  0  0  0  0  0  0  0
    1.3981   -4.3157   -0.2832 H   0  0  0  0  0  0  0  0  0  0  0  0
    4.6512   -2.1982    0.5845 H   0  0  0  0  0  0  0  0  0  0  0  0
    6.4707   -3.6679    1.8390 H   0  0  0  0  0  0  0  0  0  0  0  0
  1  2  1  0  0  0  0
  1  8  2  0  0  0  0
  1  9  1  0  0  0  0
  2  3  2  0  0  0  0
  2  7  1  0  0  0  0
  3  4  1  0  0  0  0
  3 10  1  0  0  0  0
  4  5  2  0  0  0  0
  4 18  1  0  0  0  0
  5  6  1  0  0  0  0
  5 19  1  0  0  0  0
  6  7  2  0  0  0  0
  6 20  1  0  0  0  0
  7 21  1  0  0  0  0
  9 22  1  0  0  0  0
  9 23  1  0  0  0  0
 10 11  2  0  0  0  0
 11 12  1  0  0  0  0
 11 24  1  0  0  0  0
 12 13  2  0  0  0  0
 12 16  1  0  0  0  0
 13 14  1  0  0  0  0
 13 25  1  0  0  0  0
 14 15  2  0  0  0  0
 14 26  1  0  0  0  0
 15 16  1  0  0  0  0
 15 17  1  0  0  0  0
M  END
>  <Mol_ID>
5935

>  <Formula>
C12H9BrN2OS

>  <MolWeight>
309.18166

>  <Cat>
S9871

>  <Name>
BTYNB

>  <Synonyms>
BTYNB IMP1 Inhibitor, MDK6620

>  <Target>
Myc,NF-¦ÊB

>  <Form>
Free Base

>  <CAS>
304456-62-0

>  <URL>
http://www.selleckchem.com/products/btynb.html

$$$$
