BTZ043 Racemate
 OpenBabel08302521303D

 45 48  0  0  0  0  0  0  0  0999 V2000
    1.8008   -2.0324   -0.9279 C   0  0  0  0  0  0  0  0  0  0  0  0
    1.1410   -2.1670   -2.1508 C   0  0  0  0  0  0  0  0  0  0  0  0
   -0.1171   -1.5713   -2.3299 C   0  0  0  0  0  0  0  0  0  0  0  0
   -0.7706   -0.8441   -1.3184 C   0  0  0  0  0  0  0  0  0  0  0  0
   -0.1063   -0.7066   -0.0986 C   0  0  0  0  0  0  0  0  0  0  0  0
    1.1696   -1.2934    0.0853 C   0  0  0  0  0  0  0  0  0  0  0  0
   -2.3811   -0.1694   -1.5547 S   0  0  0  0  0  0  0  0  0  0  0  0
   -2.6960    0.6673   -0.0575 C   0  0  0  0  0  0  0  0  0  0  0  0
   -1.9216    0.6470    0.9713 N   0  0  0  0  0  0  0  0  0  0  0  0
   -0.7021    0.0406    1.0389 C   0  0  0  0  0  0  0  0  0  0  0  0
    3.1524   -2.6662   -0.6927 C   0  0  0  0  0  0  0  0  0  0  0  0
    3.6193   -3.3403   -1.7781 F   0  0  0  0  0  0  0  0  0  0  0  0
    4.1059   -1.7499   -0.3801 F   0  0  0  0  0  0  0  0  0  0  0  0
    3.1315   -3.5635    0.3277 F   0  0  0  0  0  0  0  0  0  0  0  0
   -0.7273   -1.7463   -3.6387 N   0  3  0  0  0  0  0  0  0  0  0  0
   -0.9701   -2.9089   -3.9868 O   0  0  0  0  0  0  0  0  0  0  0  0
   -0.8949   -0.7319   -4.3271 O   0  5  0  0  0  0  0  0  0  0  0  0
   -0.0310    0.1016    2.0661 O   0  0  0  0  0  0  0  0  0  0  0  0
   -3.8982    1.3406   -0.0297 N   0  0  0  0  0  0  0  0  0  0  0  0
   -4.3061    2.2847   -1.0702 C   0  0  0  0  0  0  0  0  0  0  0  0
   -4.5537    3.6559   -0.4537 C   0  0  0  0  0  0  0  0  0  0  0  0
   -5.5769    3.5571    0.6729 C   0  0  0  0  0  0  0  0  0  0  0  0
   -5.0868    2.5678    1.7325 C   0  0  0  0  0  0  0  0  0  0  0  0
   -4.8129    1.2110    1.1035 C   0  0  0  0  0  0  0  0  0  0  0  0
   -6.8383    3.1197    0.1371 O   0  0  0  0  0  0  0  0  0  0  0  0
   -7.8152    3.8786    0.8461 C   0  0  0  0  0  0  0  0  0  0  0  0
   -7.1271    5.1998    1.0897 C   0  0  3  0  0  0  0  0  0  0  0  0
   -5.7516    4.8467    1.2849 O   0  0  0  0  0  0  0  0  0  0  0  0
   -7.2443    6.1506   -0.0941 C   0  0  0  0  0  0  0  0  0  0  0  0
    1.6005   -2.7338   -2.9618 H   0  0  0  0  0  0  0  0  0  0  0  0
    1.6806   -1.1754    1.0451 H   0  0  0  0  0  0  0  0  0  0  0  0
   -3.5310    2.3986   -1.8368 H   0  0  0  0  0  0  0  0  0  0  0  0
   -5.2047    1.9118   -1.5759 H   0  0  0  0  0  0  0  0  0  0  0  0
   -3.6146    4.0721   -0.0645 H   0  0  0  0  0  0  0  0  0  0  0  0
   -4.8982    4.3462   -1.2316 H   0  0  0  0  0  0  0  0  0  0  0  0
   -4.1783    2.9542    2.2118 H   0  0  0  0  0  0  0  0  0  0  0  0
   -5.8327    2.4545    2.5281 H   0  0  0  0  0  0  0  0  0  0  0  0
   -5.7488    0.7608    0.7497 H   0  0  0  0  0  0  0  0  0  0  0  0
   -4.4161    0.5260    1.8626 H   0  0  0  0  0  0  0  0  0  0  0  0
   -8.7385    3.9537    0.2659 H   0  0  0  0  0  0  0  0  0  0  0  0
   -8.0300    3.3596    1.7866 H   0  0  0  0  0  0  0  0  0  0  0  0
   -7.5081    5.6926    1.9902 H   0  0  0  0  0  0  0  0  0  0  0  0
   -8.2875    6.4322   -0.2666 H   0  0  0  0  0  0  0  0  0  0  0  0
   -6.6631    7.0605    0.0908 H   0  0  0  0  0  0  0  0  0  0  0  0
   -6.8507    5.7073   -1.0139 H   0  0  0  0  0  0  0  0  0  0  0  0
  1  2  2  0  0  0  0
  1 11  1  0  0  0  0
  2  3  1  0  0  0  0
  2 30  1  0  0  0  0
  3  4  2  0  0  0  0
  3 15  1  0  0  0  0
  4  5  1  0  0  0  0
  4  7  1  0  0  0  0
  5  6  2  0  0  0  0
  6  1  1  0  0  0  0
  6 31  1  0  0  0  0
  7  8  1  0  0  0  0
  8  9  2  0  0  0  0
  8 19  1  0  0  0  0
  9 10  1  0  0  0  0
 10  5  1  0  0  0  0
 10 18  2  0  0  0  0
 11 12  1  0  0  0  0
 11 13  1  0  0  0  0
 11 14  1  0  0  0  0
 15 16  2  0  0  0  0
 15 17  1  0  0  0  0
 19 20  1  0  0  0  0
 20 21  1  0  0  0  0
 20 32  1  0  0  0  0
 20 33  1  0  0  0  0
 21 22  1  0  0  0  0
 21 34  1  0  0  0  0
 21 35  1  0  0  0  0
 22 23  1  0  0  0  0
 22 25  1  0  0  0  0
 23 24  1  0  0  0  0
 23 36  1  0  0  0  0
 23 37  1  0  0  0  0
 24 19  1  0  0  0  0
 24 38  1  0  0  0  0
 24 39  1  0  0  0  0
 25 26  1  0  0  0  0
 26 27  1  0  0  0  0
 26 40  1  0  0  0  0
 26 41  1  0  0  0  0
 27 28  1  0  0  0  0
 27 29  1  0  0  0  0
 27 42  1  0  0  0  0
 28 22  1  0  0  0  0
 29 43  1  0  0  0  0
 29 44  1  0  0  0  0
 29 45  1  0  0  0  0
M  CHG  2  15   1  17  -1
M  END
>  <Mol_ID>
63

>  <Formula>
C17H16F3N3O5S

>  <MolWeight>
431.3862496

>  <Cat>
S1097

>  <Name>
BTZ043 Racemate

>  <Synonyms>
N/A

>  <Target>
Bacterial

>  <Form>
free base

>  <CAS>
957217-65-1

>  <URL>
http://selleckchem.com/products/BTZ043.html

$$$$
