BTZO-1
 OpenBabel08302521263D

 25 27  0  0  0  0  0  0  0  0999 V2000
    1.1554    1.8083    0.3675 S   0  0  0  0  0  0  0  0  0  0  0  0
    1.2993   -2.4951    0.2231 O   0  0  0  0  0  0  0  0  0  0  0  0
    2.4138   -0.5510   -0.0537 N   0  0  0  0  0  0  0  0  0  0  0  0
    3.8672    2.7650    0.0496 N   0  0  0  0  0  0  0  0  0  0  0  0
   -0.0806   -0.6384    0.0555 C   0  0  0  0  0  0  0  0  0  0  0  0
   -0.2181    0.7421    0.1236 C   0  0  0  0  0  0  0  0  0  0  0  0
    2.4994    0.7352    0.0474 C   0  0  0  0  0  0  0  0  0  0  0  0
   -1.2278   -1.4451   -0.0422 C   0  0  0  0  0  0  0  0  0  0  0  0
   -1.4945    1.3171    0.0463 C   0  0  0  0  0  0  0  0  0  0  0  0
    3.8367    1.4133   -0.0999 C   0  0  0  0  0  0  0  0  0  0  0  0
    1.2593   -1.2747    0.0964 C   0  0  0  0  0  0  0  0  0  0  0  0
   -2.4975   -0.8675   -0.1056 C   0  0  0  0  0  0  0  0  0  0  0  0
   -2.6294    0.5167   -0.0744 C   0  0  0  0  0  0  0  0  0  0  0  0
    4.9791    0.6634   -0.3629 C   0  0  0  0  0  0  0  0  0  0  0  0
    6.2003    1.3279   -0.4698 C   0  0  0  0  0  0  0  0  0  0  0  0
    6.2454    2.7092   -0.3128 C   0  0  0  0  0  0  0  0  0  0  0  0
    5.0625    3.3784   -0.0579 C   0  0  0  0  0  0  0  0  0  0  0  0
   -1.1353   -2.5297   -0.0690 H   0  0  0  0  0  0  0  0  0  0  0  0
   -1.6127    2.3988    0.0874 H   0  0  0  0  0  0  0  0  0  0  0  0
   -3.3804   -1.4976   -0.1803 H   0  0  0  0  0  0  0  0  0  0  0  0
   -3.6131    0.9763   -0.1324 H   0  0  0  0  0  0  0  0  0  0  0  0
    4.9307   -0.4151   -0.4791 H   0  0  0  0  0  0  0  0  0  0  0  0
    7.1112    0.7703   -0.6705 H   0  0  0  0  0  0  0  0  0  0  0  0
    7.1813    3.2526   -0.3847 H   0  0  0  0  0  0  0  0  0  0  0  0
    5.0418    4.4569    0.0730 H   0  0  0  0  0  0  0  0  0  0  0  0
  1  6  1  0  0  0  0
  1  7  1  0  0  0  0
  2 11  2  0  0  0  0
  3  7  2  0  0  0  0
  3 11  1  0  0  0  0
  4 10  2  0  0  0  0
  4 17  1  0  0  0  0
  5  6  2  0  0  0  0
  5  8  1  0  0  0  0
  5 11  1  0  0  0  0
  6  9  1  0  0  0  0
  7 10  1  0  0  0  0
  8 12  2  0  0  0  0
  8 18  1  0  0  0  0
  9 13  2  0  0  0  0
  9 19  1  0  0  0  0
 10 14  1  0  0  0  0
 12 13  1  0  0  0  0
 12 20  1  0  0  0  0
 13 21  1  0  0  0  0
 14 15  2  0  0  0  0
 14 22  1  0  0  0  0
 15 16  1  0  0  0  0
 15 23  1  0  0  0  0
 16 17  2  0  0  0  0
 16 24  1  0  0  0  0
 17 25  1  0  0  0  0
M  END
>  <Mol_ID>
5269

>  <Formula>
C13H8N2OS

>  <MolWeight>
240.28042

>  <Cat>
S0539

>  <Name>
BTZO-1

>  <Synonyms>
N/A

>  <Target>
Apoptosis related,MIF

>  <Form>
Free Base

>  <CAS>
99420-15-2

>  <URL>
https://www.selleckchem.com/products/btzo-1.html

$$$$
