Budesonide.cdx
 OpenBabel08302522152D

 65 69  0  0  0  0  0  0  0  0999 V2000
    1.2082    2.1000    0.0000 C   0  0  0  0  0  0  0  0  0  0  0  0
    1.2082    0.7000    0.0000 C   0  0  0  0  0  0  0  0  0  0  0  0
    2.4207    0.0000    0.0000 C   0  0  0  0  0  0  0  0  0  0  0  0
    3.6331    0.7000    0.0000 C   0  0  0  0  0  0  0  0  0  0  0  0
    3.6331    2.1000    0.0000 C   0  0  2  0  0  0  0  0  0  0  0  0
    2.4207    2.8000    0.0000 C   0  0  0  0  0  0  0  0  0  0  0  0
    4.8455    0.0000    0.0000 C   0  0  0  0  0  0  0  0  0  0  0  0
    6.0580    0.7000    0.0000 C   0  0  0  0  0  0  0  0  0  0  0  0
    6.0580    2.1000    0.0000 C   0  0  2  0  0  0  0  0  0  0  0  0
    4.8455    2.8000    0.0000 C   0  0  3  0  0  0  0  0  0  0  0  0
    0.0000    0.0024    0.0000 O   0  0  0  0  0  0  0  0  0  0  0  0
    7.2704    2.8000    0.0000 C   0  0  3  0  0  0  0  0  0  0  0  0
    7.2704    4.2000    0.0000 C   0  0  3  0  0  0  0  0  0  0  0  0
    6.0580    4.9000    0.0000 C   0  0  0  0  0  0  0  0  0  0  0  0
    4.8455    4.2000    0.0000 C   0  0  3  0  0  0  0  0  0  0  0  0
    3.6331    3.4951    0.0000 C   0  0  0  0  0  0  0  0  0  0  0  0
    3.6373    4.8976    0.0000 O   0  0  0  0  0  0  0  0  0  0  0  0
    8.6019    2.3674    0.0000 C   0  0  0  0  0  0  0  0  0  0  0  0
    9.4248    3.5000    0.0000 C   0  0  3  0  0  0  0  0  0  0  0  0
    8.6019    4.6326    0.0000 C   0  0  3  0  0  0  0  0  0  0  0  0
    7.2704    5.6000    0.0000 C   0  0  0  0  0  0  0  0  0  0  0  0
   10.7563    3.9326    0.0000 O   0  0  0  0  0  0  0  0  0  0  0  0
   10.7563    5.3326    0.0000 C   0  0  3  0  0  0  0  0  0  0  0  0
    9.4248    5.7652    0.0000 O   0  0  0  0  0  0  0  0  0  0  0  0
    8.6019    6.0326    0.0000 C   0  0  0  0  0  0  0  0  0  0  0  0
    9.8143    6.7326    0.0000 C   0  0  0  0  0  0  0  0  0  0  0  0
    9.8143    8.1326    0.0000 O   0  0  0  0  0  0  0  0  0  0  0  0
    7.3937    6.7302    0.0000 O   0  0  0  0  0  0  0  0  0  0  0  0
   11.8850    6.1527    0.0000 C   0  0  0  0  0  0  0  0  0  0  0  0
   13.1595    5.5852    0.0000 C   0  0  0  0  0  0  0  0  0  0  0  0
   14.2882    6.4053    0.0000 C   0  0  0  0  0  0  0  0  0  0  0  0
    0.3145    2.6160    0.0000 H   0  0  0  0  0  0  0  0  0  0  0  0
    2.4207   -1.0320    0.0000 H   0  0  0  0  0  0  0  0  0  0  0  0
    2.4207    3.8320    0.0000 H   0  0  0  0  0  0  0  0  0  0  0  0
    4.8455   -1.0700    0.0000 H   0  0  0  0  0  0  0  0  0  0  0  0
    5.7721   -0.5350    0.0000 H   0  0  0  0  0  0  0  0  0  0  0  0
    6.9846    0.1650    0.0000 H   0  0  0  0  0  0  0  0  0  0  0  0
    6.9847    1.2350    0.0000 H   0  0  0  0  0  0  0  0  0  0  0  0
    5.1314    1.5650    0.0000 H   0  0  0  0  0  0  0  0  0  0  0  0
    4.8455    1.7300    0.0000 H   0  0  0  0  0  0  0  0  0  0  0  0
    6.3437    3.3350    0.0000 H   0  0  0  0  0  0  0  0  0  0  0  0
    6.0580    5.9700    0.0000 H   0  0  0  0  0  0  0  0  0  0  0  0
    5.1314    5.4350    0.0000 H   0  0  0  0  0  0  0  0  0  0  0  0
    5.7721    3.6650    0.0000 H   0  0  0  0  0  0  0  0  0  0  0  0
    4.5597    4.0301    0.0000 H   0  0  0  0  0  0  0  0  0  0  0  0
    2.7065    4.0301    0.0000 H   0  0  0  0  0  0  0  0  0  0  0  0
    3.6331    4.5651    0.0000 H   0  0  0  0  0  0  0  0  0  0  0  0
    3.6373    5.8676    0.0000 H   0  0  0  0  0  0  0  0  0  0  0  0
    8.9326    1.3498    0.0000 H   0  0  0  0  0  0  0  0  0  0  0  0
    9.6587    2.2000    0.0000 H   0  0  0  0  0  0  0  0  0  0  0  0
    8.3548    3.5000    0.0000 H   0  0  0  0  0  0  0  0  0  0  0  0
    8.1970    6.1350    0.0000 H   0  0  0  0  0  0  0  0  0  0  0  0
    6.3438    6.1350    0.0000 H   0  0  0  0  0  0  0  0  0  0  0  0
    7.2704    6.6700    0.0000 H   0  0  0  0  0  0  0  0  0  0  0  0
    9.8907    4.7037    0.0000 H   0  0  0  0  0  0  0  0  0  0  0  0
   10.7410    6.1976    0.0000 H   0  0  0  0  0  0  0  0  0  0  0  0
   10.7409    7.2676    0.0000 H   0  0  0  0  0  0  0  0  0  0  0  0
   10.6543    8.6176    0.0000 H   0  0  0  0  0  0  0  0  0  0  0  0
   11.7732    7.2168    0.0000 H   0  0  0  0  0  0  0  0  0  0  0  0
   12.7507    6.7816    0.0000 H   0  0  0  0  0  0  0  0  0  0  0  0
   13.2713    4.5211    0.0000 H   0  0  0  0  0  0  0  0  0  0  0  0
   14.1370    5.1500    0.0000 H   0  0  0  0  0  0  0  0  0  0  0  0
   15.2657    5.9701    0.0000 H   0  0  0  0  0  0  0  0  0  0  0  0
   14.1763    7.4694    0.0000 H   0  0  0  0  0  0  0  0  0  0  0  0
   15.1538    7.0343    0.0000 H   0  0  0  0  0  0  0  0  0  0  0  0
  1  2  1  0  0  0  0
  1 32  1  0  0  0  0
  2  3  1  0  0  0  0
  2 11  2  0  0  0  0
  3  4  2  0  0  0  0
  3 33  1  0  0  0  0
  4  5  1  0  0  0  0
  4  7  1  0  0  0  0
  5  6  1  0  0  0  0
  5 16  1  1  0  0  0
  6  1  2  0  0  0  0
  6 34  1  0  0  0  0
  7  8  1  0  0  0  0
  7 35  1  0  0  0  0
  7 36  1  0  0  0  0
  8 37  1  0  0  0  0
  8 38  1  0  0  0  0
  9  8  1  0  0  0  0
  9 10  1  0  0  0  0
  9 12  1  0  0  0  0
  9 39  1  1  0  0  0
 10  5  1  0  0  0  0
 10 15  1  0  0  0  0
 10 40  1  0  0  0  0
 12 13  1  0  0  0  0
 12 18  1  0  0  0  0
 12 41  1  0  0  0  0
 13 14  1  0  0  0  0
 13 21  1  0  0  0  0
 14 15  1  0  0  0  0
 14 42  1  0  0  0  0
 14 43  1  0  0  0  0
 15 17  1  0  0  0  0
 15 44  1  0  0  0  0
 16 45  1  0  0  0  0
 16 46  1  0  0  0  0
 16 47  1  0  0  0  0
 17 48  1  0  0  0  0
 18 49  1  0  0  0  0
 18 50  1  0  0  0  0
 19 18  1  0  0  0  0
 19 20  1  0  0  0  0
 19 22  1  0  0  0  0
 19 51  1  0  0  0  0
 20 13  1  0  0  0  0
 20 24  1  0  0  0  0
 20 25  1  0  0  0  0
 21 52  1  0  0  0  0
 21 53  1  0  0  0  0
 21 54  1  0  0  0  0
 22 23  1  0  0  0  0
 23 24  1  0  0  0  0
 23 29  1  0  0  0  0
 23 55  1  0  0  0  0
 25 26  1  0  0  0  0
 25 28  2  0  0  0  0
 26 27  1  0  0  0  0
 26 56  1  0  0  0  0
 26 57  1  0  0  0  0
 27 58  1  0  0  0  0
 29 30  1  0  0  0  0
 29 59  1  0  0  0  0
 29 60  1  0  0  0  0
 30 31  1  0  0  0  0
 30 61  1  0  0  0  0
 30 62  1  0  0  0  0
 31 63  1  0  0  0  0
 31 64  1  0  0  0  0
 31 65  1  0  0  0  0
M  END
>  <Mol_ID>
156

>  <Formula>
C25H34O6

>  <MolWeight>
430.53386

>  <Cat>
S1286

>  <Name>
Budesonide

>  <Synonyms>
Labazenit

>  <Target>
Glucocorticoid Receptor

>  <Form>
free base

>  <CAS>
51333-22-3

>  <URL>
http://selleckchem.com/products/Budesonide.html

$$$$
