Bufalin
 OpenBabel08302521243D

 62 66  0  0  0  0  0  0  0  0999 V2000
    0.9816   -3.0906    1.4851 C   0  0  1  0  0  0  0  0  0  0  0  0
    1.9611   -1.9258    1.2010 C   0  0  1  0  0  0  0  0  0  0  0  0
   -0.4449   -2.8388    0.8950 C   0  0  1  0  0  0  0  0  0  0  0  0
    1.7895   -4.3158    0.9892 C   0  0  0  0  0  0  0  0  0  0  0  0
    0.7868   -3.2620    2.8967 O   0  0  0  0  0  0  0  0  0  0  0  0
    2.3792   -2.3323   -0.2595 C   0  0  2  0  0  0  0  0  0  0  0  0
    1.2699   -0.5590    1.3086 C   0  0  0  0  0  0  0  0  0  0  0  0
    3.1292   -1.9126    2.2285 C   0  0  0  0  0  0  0  0  0  0  0  0
   -0.7188   -1.5551    0.0494 C   0  0  2  0  0  0  0  0  0  0  0  0
   -1.0413   -4.0252    0.1063 C   0  0  0  0  0  0  0  0  0  0  0  0
    2.6593   -3.8351   -0.1804 C   0  0  0  0  0  0  0  0  0  0  0  0
    3.3466   -1.4341   -0.9761 C   0  0  0  0  0  0  0  0  0  0  0  0
    0.1958   -0.3393    0.2692 C   0  0  0  0  0  0  0  0  0  0  0  0
   -2.2431   -1.1888    0.1589 C   0  0  2  0  0  0  0  0  0  0  0  0
   -2.4092   -3.6914   -0.5172 C   0  0  0  0  0  0  0  0  0  0  0  0
    4.6465   -1.1901   -0.4342 C   0  0  0  0  0  0  0  0  0  0  0  0
    2.9731   -0.7154   -2.0421 C   0  0  0  0  0  0  0  0  0  0  0  0
   -3.0935   -2.5106    0.1988 C   0  0  2  0  0  0  0  0  0  0  0  0
   -2.6350   -0.2754   -1.0576 C   0  0  0  0  0  0  0  0  0  0  0  0
   -2.5188   -0.4158    1.4936 C   0  0  0  0  0  0  0  0  0  0  0  0
    5.3114   -0.0809   -0.7872 C   0  0  0  0  0  0  0  0  0  0  0  0
    3.7099    0.3642   -2.5520 O   0  0  0  0  0  0  0  0  0  0  0  0
   -4.5071   -2.2161   -0.2864 C   0  0  0  0  0  0  0  0  0  0  0  0
   -3.3389   -0.9989   -2.2086 C   0  0  0  0  0  0  0  0  0  0  0  0
    4.7829    0.8085   -1.8417 C   0  0  0  0  0  0  0  0  0  0  0  0
   -4.5481   -1.8222   -1.7569 C   0  0  2  0  0  0  0  0  0  0  0  0
    5.3559    1.8656   -2.0811 O   0  0  0  0  0  0  0  0  0  0  0  0
   -5.7491   -1.0923   -1.9964 O   0  0  0  0  0  0  0  0  0  0  0  0
   -1.0787   -2.7337    1.7867 H   0  0  0  0  0  0  0  0  0  0  0  0
    1.1767   -5.1830    0.7311 H   0  0  0  0  0  0  0  0  0  0  0  0
    2.4516   -4.6729    1.7913 H   0  0  0  0  0  0  0  0  0  0  0  0
    0.2688   -4.0749    3.0307 H   0  0  0  0  0  0  0  0  0  0  0  0
    1.4850   -2.3040   -0.8913 H   0  0  0  0  0  0  0  0  0  0  0  0
    0.8273   -0.4509    2.3074 H   0  0  0  0  0  0  0  0  0  0  0  0
    2.0018    0.2533    1.2115 H   0  0  0  0  0  0  0  0  0  0  0  0
    3.5881   -0.9200    2.3036 H   0  0  0  0  0  0  0  0  0  0  0  0
    2.7944   -2.1586    3.2415 H   0  0  0  0  0  0  0  0  0  0  0  0
    3.9189   -2.6257    1.9809 H   0  0  0  0  0  0  0  0  0  0  0  0
   -0.5548   -1.8333   -1.0039 H   0  0  0  0  0  0  0  0  0  0  0  0
   -1.1446   -4.8916    0.7688 H   0  0  0  0  0  0  0  0  0  0  0  0
   -0.3675   -4.3213   -0.7085 H   0  0  0  0  0  0  0  0  0  0  0  0
    2.3650   -4.3374   -1.1091 H   0  0  0  0  0  0  0  0  0  0  0  0
    3.7147   -4.0629   -0.0018 H   0  0  0  0  0  0  0  0  0  0  0  0
    0.6691   -0.0899   -0.6875 H   0  0  0  0  0  0  0  0  0  0  0  0
   -0.3535    0.5782    0.5071 H   0  0  0  0  0  0  0  0  0  0  0  0
   -2.2596   -3.4769   -1.5805 H   0  0  0  0  0  0  0  0  0  0  0  0
   -3.0457   -4.5830   -0.4813 H   0  0  0  0  0  0  0  0  0  0  0  0
    5.0782   -1.8715    0.2888 H   0  0  0  0  0  0  0  0  0  0  0  0
    2.0221   -0.7798   -2.5569 H   0  0  0  0  0  0  0  0  0  0  0  0
   -3.1982   -2.8430    1.2411 H   0  0  0  0  0  0  0  0  0  0  0  0
   -1.7468    0.2189   -1.4722 H   0  0  0  0  0  0  0  0  0  0  0  0
   -3.2906    0.5411   -0.7354 H   0  0  0  0  0  0  0  0  0  0  0  0
   -1.6074   -0.1711    2.0458 H   0  0  0  0  0  0  0  0  0  0  0  0
   -3.0558    0.5230    1.3313 H   0  0  0  0  0  0  0  0  0  0  0  0
   -3.1221   -1.0007    2.1952 H   0  0  0  0  0  0  0  0  0  0  0  0
    6.2570    0.1929   -0.3447 H   0  0  0  0  0  0  0  0  0  0  0  0
   -4.9308   -1.4083    0.3276 H   0  0  0  0  0  0  0  0  0  0  0  0
   -5.1635   -3.0758   -0.1094 H   0  0  0  0  0  0  0  0  0  0  0  0
   -2.6129   -1.6537   -2.7034 H   0  0  0  0  0  0  0  0  0  0  0  0
   -3.6429   -0.2612   -2.9615 H   0  0  0  0  0  0  0  0  0  0  0  0
   -4.6074   -2.7261   -2.3730 H   0  0  0  0  0  0  0  0  0  0  0  0
   -5.6962   -0.2595   -1.4966 H   0  0  0  0  0  0  0  0  0  0  0  0
  1  2  1  0  0  0  0
  1  3  1  0  0  0  0
  1  4  1  0  0  0  0
  1  5  1  1  0  0  0
  2  6  1  0  0  0  0
  2  7  1  0  0  0  0
  2  8  1  1  0  0  0
  3  9  1  0  0  0  0
  3 10  1  0  0  0  0
  3 29  1  1  0  0  0
  4 11  1  0  0  0  0
  4 30  1  0  0  0  0
  4 31  1  0  0  0  0
  5 32  1  0  0  0  0
  6 12  1  0  0  0  0
  6 11  1  0  0  0  0
  6 33  1  6  0  0  0
  7 13  1  0  0  0  0
  7 34  1  0  0  0  0
  7 35  1  0  0  0  0
  8 36  1  0  0  0  0
  8 37  1  0  0  0  0
  8 38  1  0  0  0  0
  9 14  1  0  0  0  0
  9 13  1  0  0  0  0
  9 39  1  6  0  0  0
 10 15  1  0  0  0  0
 10 40  1  0  0  0  0
 10 41  1  0  0  0  0
 11 42  1  0  0  0  0
 11 43  1  0  0  0  0
 12 16  1  0  0  0  0
 12 17  2  0  0  0  0
 13 44  1  0  0  0  0
 13 45  1  0  0  0  0
 14 18  1  0  0  0  0
 14 19  1  0  0  0  0
 14 20  1  1  0  0  0
 15 46  1  0  0  0  0
 15 47  1  0  0  0  0
 16 21  2  0  0  0  0
 16 48  1  0  0  0  0
 17 22  1  0  0  0  0
 17 49  1  0  0  0  0
 18 15  1  0  0  0  0
 18 23  1  0  0  0  0
 18 50  1  1  0  0  0
 19 24  1  0  0  0  0
 19 51  1  0  0  0  0
 19 52  1  0  0  0  0
 20 53  1  0  0  0  0
 20 54  1  0  0  0  0
 20 55  1  0  0  0  0
 21 25  1  0  0  0  0
 21 56  1  0  0  0  0
 22 25  1  0  0  0  0
 23 26  1  0  0  0  0
 23 57  1  0  0  0  0
 23 58  1  0  0  0  0
 24 26  1  0  0  0  0
 24 59  1  0  0  0  0
 24 60  1  0  0  0  0
 25 27  2  0  0  0  0
 26 28  1  0  0  0  0
 26 61  1  6  0  0  0
 28 62  1  0  0  0  0
M  END
>  <Mol_ID>
5019

>  <Formula>
C24H34O4

>  <MolWeight>
386.52436

>  <Cat>
S7821

>  <Name>
Bufalin

>  <Synonyms>
BF

>  <Target>
ATPase,Others

>  <Form>
Free Base

>  <CAS>
465-21-4

>  <URL>
http://www.selleckchem.com/products/bufalin.html

$$$$
