Bufexamac.cdx
 OpenBabel08302521313D

 33 33  0  0  0  0  0  0  0  0999 V2000
    1.4554   -0.0138    0.2786 C   0  0  0  0  0  0  0  0  0  0  0  0
    0.5740   -1.0188    0.6745 C   0  0  0  0  0  0  0  0  0  0  0  0
   -0.8145   -0.8160    0.6334 C   0  0  0  0  0  0  0  0  0  0  0  0
   -1.3304    0.3961    0.1744 C   0  0  0  0  0  0  0  0  0  0  0  0
   -0.4534    1.4187   -0.1812 C   0  0  0  0  0  0  0  0  0  0  0  0
    0.9380    1.2278   -0.1177 C   0  0  0  0  0  0  0  0  0  0  0  0
    3.3332   -0.9316   -1.2052 C   0  0  0  0  0  0  0  0  0  0  0  0
    2.9341   -0.3062    0.1364 C   0  0  0  0  0  0  0  0  0  0  0  0
    4.4493   -1.4266   -1.3733 O   0  0  0  0  0  0  0  0  0  0  0  0
    2.4038   -0.8932   -2.2029 N   0  0  0  0  0  0  0  0  0  0  0  0
    2.7149   -1.5530   -3.4154 O   0  0  0  0  0  0  0  0  0  0  0  0
   -2.6612    0.6726   -0.0255 O   0  0  0  0  0  0  0  0  0  0  0  0
   -3.6098   -0.1369    0.6731 C   0  0  0  0  0  0  0  0  0  0  0  0
   -5.0322    0.1860    0.2033 C   0  0  0  0  0  0  0  0  0  0  0  0
   -5.3104   -0.1261   -1.2730 C   0  0  0  0  0  0  0  0  0  0  0  0
   -5.2346   -1.6058   -1.6287 C   0  0  0  0  0  0  0  0  0  0  0  0
    0.9480   -1.9948    0.9891 H   0  0  0  0  0  0  0  0  0  0  0  0
   -1.4503   -1.6460    0.9164 H   0  0  0  0  0  0  0  0  0  0  0  0
   -0.8479    2.3739   -0.5298 H   0  0  0  0  0  0  0  0  0  0  0  0
    1.5963    2.0342   -0.4237 H   0  0  0  0  0  0  0  0  0  0  0  0
    3.5165    0.6122    0.2766 H   0  0  0  0  0  0  0  0  0  0  0  0
    3.2345   -1.0018    0.9289 H   0  0  0  0  0  0  0  0  0  0  0  0
    1.4413   -0.5856   -2.0943 H   0  0  0  0  0  0  0  0  0  0  0  0
    3.4968   -2.0930   -3.1661 H   0  0  0  0  0  0  0  0  0  0  0  0
   -3.4276   -1.2055    0.5201 H   0  0  0  0  0  0  0  0  0  0  0  0
   -3.5319    0.0835    1.7435 H   0  0  0  0  0  0  0  0  0  0  0  0
   -5.7481   -0.3588    0.8303 H   0  0  0  0  0  0  0  0  0  0  0  0
   -5.2159    1.2575    0.3546 H   0  0  0  0  0  0  0  0  0  0  0  0
   -6.3194    0.2285   -1.5173 H   0  0  0  0  0  0  0  0  0  0  0  0
   -4.6183    0.4360   -1.9075 H   0  0  0  0  0  0  0  0  0  0  0  0
   -6.0883   -2.1510   -1.2115 H   0  0  0  0  0  0  0  0  0  0  0  0
   -5.2624   -1.7278   -2.7167 H   0  0  0  0  0  0  0  0  0  0  0  0
   -4.3175   -2.0764   -1.2698 H   0  0  0  0  0  0  0  0  0  0  0  0
  1  2  2  0  0  0  0
  1  6  1  0  0  0  0
  1  8  1  0  0  0  0
  2  3  1  0  0  0  0
  2 17  1  0  0  0  0
  3  4  2  0  0  0  0
  3 18  1  0  0  0  0
  4  5  1  0  0  0  0
  4 12  1  0  0  0  0
  5  6  2  0  0  0  0
  5 19  1  0  0  0  0
  6 20  1  0  0  0  0
  7  8  1  0  0  0  0
  7  9  2  0  0  0  0
  7 10  1  0  0  0  0
  8 21  1  0  0  0  0
  8 22  1  0  0  0  0
 10 11  1  0  0  0  0
 10 23  1  0  0  0  0
 11 24  1  0  0  0  0
 12 13  1  0  0  0  0
 13 14  1  0  0  0  0
 13 25  1  0  0  0  0
 13 26  1  0  0  0  0
 14 15  1  0  0  0  0
 14 27  1  0  0  0  0
 14 28  1  0  0  0  0
 15 16  1  0  0  0  0
 15 29  1  0  0  0  0
 15 30  1  0  0  0  0
 16 31  1  0  0  0  0
 16 32  1  0  0  0  0
 16 33  1  0  0  0  0
M  END
>  <Mol_ID>
568

>  <Formula>
C12H17NO3

>  <MolWeight>
223.26828

>  <Cat>
S3023

>  <Name>
Bufexamac

>  <Synonyms>
Bufexamic acid

>  <Target>
COX,IFN

>  <Form>
free base

>  <CAS>
2438-72-4

>  <URL>
http://selleckchem.com/products/bufexamac.html

$$$$
