Buflomedil hydrochloride.cdx
 OpenBabel08302521443D

 47 48  0  0  0  0  0  0  0  0999 V2000
    0.5920    0.4818    2.2604 C   0  0  0  0  0  0  0  0  0  0  0  0
   -0.0456    1.6488    1.8481 C   0  0  0  0  0  0  0  0  0  0  0  0
   -1.0808    1.6034    0.9028 C   0  0  0  0  0  0  0  0  0  0  0  0
   -1.5114    0.3541    0.3841 C   0  0  0  0  0  0  0  0  0  0  0  0
   -0.7872   -0.8167    0.7289 C   0  0  0  0  0  0  0  0  0  0  0  0
    0.2538   -0.7324    1.6576 C   0  0  0  0  0  0  0  0  0  0  0  0
    1.5671    0.3912    3.2155 O   0  0  0  0  0  0  0  0  0  0  0  0
   -1.1169   -1.9770    0.0784 O   0  0  0  0  0  0  0  0  0  0  0  0
   -1.7142    2.7259    0.4391 O   0  0  0  0  0  0  0  0  0  0  0  0
   -1.3772    3.9916    0.9863 C   0  0  0  0  0  0  0  0  0  0  0  0
    1.7600    1.5332    4.0461 C   0  0  0  0  0  0  0  0  0  0  0  0
   -0.6185   -3.2008    0.6056 C   0  0  0  0  0  0  0  0  0  0  0  0
   -2.7393    0.2913   -0.4929 C   0  0  0  0  0  0  0  0  0  0  0  0
   -2.9998    1.2139   -1.2645 O   0  0  0  0  0  0  0  0  0  0  0  0
   -3.6440   -0.9413   -0.4389 C   0  0  0  0  0  0  0  0  0  0  0  0
   -5.1431   -0.6817   -0.2568 C   0  0  0  0  0  0  0  0  0  0  0  0
   -5.7998    0.2113   -1.3195 C   0  0  0  0  0  0  0  0  0  0  0  0
   -7.2720    0.2682   -1.1942 N   0  0  0  0  0  0  0  0  0  0  0  0
   -7.8554    1.1400   -2.2314 C   0  0  0  0  0  0  0  0  0  0  0  0
   -8.3726    2.3735   -1.5138 C   0  0  0  0  0  0  0  0  0  0  0  0
   -8.7794    1.8298   -0.1640 C   0  0  0  0  0  0  0  0  0  0  0  0
   -7.7146    0.7837    0.1148 C   0  0  0  0  0  0  0  0  0  0  0  0
    0.2713    2.5974    2.2622 H   0  0  0  0  0  0  0  0  0  0  0  0
    0.8256   -1.6079    1.9452 H   0  0  0  0  0  0  0  0  0  0  0  0
   -1.6406    4.0272    2.0475 H   0  0  0  0  0  0  0  0  0  0  0  0
   -0.3217    4.2404    0.8297 H   0  0  0  0  0  0  0  0  0  0  0  0
   -1.9727    4.7487    0.4668 H   0  0  0  0  0  0  0  0  0  0  0  0
    2.2322    2.3420    3.4815 H   0  0  0  0  0  0  0  0  0  0  0  0
    0.8205    1.8660    4.5031 H   0  0  0  0  0  0  0  0  0  0  0  0
    2.4380    1.2485    4.8567 H   0  0  0  0  0  0  0  0  0  0  0  0
    0.4078   -3.3686    0.2663 H   0  0  0  0  0  0  0  0  0  0  0  0
   -0.6867   -3.2433    1.6978 H   0  0  0  0  0  0  0  0  0  0  0  0
   -1.2441   -4.0084    0.2134 H   0  0  0  0  0  0  0  0  0  0  0  0
   -3.4679   -1.5134   -1.3574 H   0  0  0  0  0  0  0  0  0  0  0  0
   -3.3647   -1.5760    0.4076 H   0  0  0  0  0  0  0  0  0  0  0  0
   -5.6473   -1.6590   -0.2611 H   0  0  0  0  0  0  0  0  0  0  0  0
   -5.2961   -0.2577    0.7420 H   0  0  0  0  0  0  0  0  0  0  0  0
   -5.3966    1.2263   -1.2610 H   0  0  0  0  0  0  0  0  0  0  0  0
   -5.5503   -0.1940   -2.3089 H   0  0  0  0  0  0  0  0  0  0  0  0
   -8.6961    0.6066   -2.6912 H   0  0  0  0  0  0  0  0  0  0  0  0
   -7.1634    1.4052   -3.0385 H   0  0  0  0  0  0  0  0  0  0  0  0
   -7.5700    3.1117   -1.3974 H   0  0  0  0  0  0  0  0  0  0  0  0
   -9.2071    2.8485   -2.0377 H   0  0  0  0  0  0  0  0  0  0  0  0
   -8.8056    2.6088    0.6043 H   0  0  0  0  0  0  0  0  0  0  0  0
   -9.7711    1.3669   -0.2218 H   0  0  0  0  0  0  0  0  0  0  0  0
   -6.9002    1.2658    0.6675 H   0  0  0  0  0  0  0  0  0  0  0  0
   -8.1113   -0.0278    0.7342 H   0  0  0  0  0  0  0  0  0  0  0  0
  1  2  2  0  0  0  0
  1  7  1  0  0  0  0
  2  3  1  0  0  0  0
  2 23  1  0  0  0  0
  3  4  2  0  0  0  0
  3  9  1  0  0  0  0
  4  5  1  0  0  0  0
  4 13  1  0  0  0  0
  5  6  2  0  0  0  0
  5  8  1  0  0  0  0
  6  1  1  0  0  0  0
  6 24  1  0  0  0  0
  7 11  1  0  0  0  0
  8 12  1  0  0  0  0
  9 10  1  0  0  0  0
 10 25  1  0  0  0  0
 10 26  1  0  0  0  0
 10 27  1  0  0  0  0
 11 28  1  0  0  0  0
 11 29  1  0  0  0  0
 11 30  1  0  0  0  0
 12 31  1  0  0  0  0
 12 32  1  0  0  0  0
 12 33  1  0  0  0  0
 13 14  2  0  0  0  0
 13 15  1  0  0  0  0
 15 16  1  0  0  0  0
 15 34  1  0  0  0  0
 15 35  1  0  0  0  0
 16 17  1  0  0  0  0
 16 36  1  0  0  0  0
 16 37  1  0  0  0  0
 17 18  1  0  0  0  0
 17 38  1  0  0  0  0
 17 39  1  0  0  0  0
 18 19  1  0  0  0  0
 19 20  1  0  0  0  0
 19 40  1  0  0  0  0
 19 41  1  0  0  0  0
 20 21  1  0  0  0  0
 20 42  1  0  0  0  0
 20 43  1  0  0  0  0
 21 22  1  0  0  0  0
 21 44  1  0  0  0  0
 21 45  1  0  0  0  0
 22 18  1  0  0  0  0
 22 46  1  0  0  0  0
 22 47  1  0  0  0  0
M  END
>  <Mol_ID>
933

>  <Formula>
C17H26ClNO4

>  <MolWeight>
343.84564

>  <Cat>
S2607

>  <Name>
Buflomedil HCl

>  <Synonyms>
NSC 759291

>  <Target>
Adrenergic Receptor

>  <Form>
Hydrochloride

>  <CAS>
35543-24-9

>  <URL>
http://selleckchem.com/products/auflomedil-hcl.html

$$$$
