Bupivacaine hydrochloride.cdx
 OpenBabel08302521373D

 49 50  0  0  0  0  0  0  0  0999 V2000
    0.9905    0.1997    3.5754 C   0  0  0  0  0  0  0  0  0  0  0  0
   -0.0169   -0.7425    3.6034 C   0  0  0  0  0  0  0  0  0  0  0  0
   -1.1661   -0.5173    2.8595 C   0  0  0  0  0  0  0  0  0  0  0  0
   -1.3402    0.6512    2.0729 C   0  0  0  0  0  0  0  0  0  0  0  0
   -0.3237    1.6332    2.0408 C   0  0  0  0  0  0  0  0  0  0  0  0
    0.8589    1.3804    2.8112 C   0  0  0  0  0  0  0  0  0  0  0  0
    2.0496    2.3107    2.8420 C   0  0  0  0  0  0  0  0  0  0  0  0
   -2.6439    0.7026    1.3319 C   0  0  0  0  0  0  0  0  0  0  0  0
   -0.3492    2.8772    1.3221 N   0  0  0  0  0  0  0  0  0  0  0  0
   -1.2761    3.4601    0.4491 C   0  0  0  0  0  0  0  0  0  0  0  0
   -0.8506    4.8897   -0.0280 C   0  0  3  0  0  0  0  0  0  0  0  0
   -2.3317    2.9792    0.0647 O   0  0  0  0  0  0  0  0  0  0  0  0
   -0.6981    5.0175   -1.5153 N   0  0  0  0  0  0  0  0  0  0  0  0
   -1.9737    5.2021   -2.2192 C   0  0  0  0  0  0  0  0  0  0  0  0
   -2.7682    6.3786   -1.6642 C   0  0  0  0  0  0  0  0  0  0  0  0
   -3.0997    6.1353   -0.2054 C   0  0  0  0  0  0  0  0  0  0  0  0
   -1.8125    5.9317    0.5891 C   0  0  0  0  0  0  0  0  0  0  0  0
    0.1142    3.9271   -2.0893 C   0  0  0  0  0  0  0  0  0  0  0  0
    0.2951    3.9098   -3.6224 C   0  0  0  0  0  0  0  0  0  0  0  0
    0.8946    5.1643   -4.2608 C   0  0  0  0  0  0  0  0  0  0  0  0
    2.3284    5.4371   -3.8413 C   0  0  0  0  0  0  0  0  0  0  0  0
    1.8930    0.0080    4.1535 H   0  0  0  0  0  0  0  0  0  0  0  0
    0.0863   -1.6500    4.1915 H   0  0  0  0  0  0  0  0  0  0  0  0
   -1.9476   -1.2753    2.8899 H   0  0  0  0  0  0  0  0  0  0  0  0
    2.5146    2.3557    1.8527 H   0  0  0  0  0  0  0  0  0  0  0  0
    1.7544    3.3113    3.1703 H   0  0  0  0  0  0  0  0  0  0  0  0
    2.8155    1.9628    3.5452 H   0  0  0  0  0  0  0  0  0  0  0  0
   -3.2457    1.5484    1.6755 H   0  0  0  0  0  0  0  0  0  0  0  0
   -2.4657    0.7148    0.2539 H   0  0  0  0  0  0  0  0  0  0  0  0
   -3.2526   -0.1908    1.5139 H   0  0  0  0  0  0  0  0  0  0  0  0
    0.4767    3.4401    1.4623 H   0  0  0  0  0  0  0  0  0  0  0  0
    0.1380    5.1068    0.3963 H   0  0  0  0  0  0  0  0  0  0  0  0
   -2.5806    4.2899   -2.1946 H   0  0  0  0  0  0  0  0  0  0  0  0
   -1.7958    5.4379   -3.2738 H   0  0  0  0  0  0  0  0  0  0  0  0
   -3.6884    6.5129   -2.2445 H   0  0  0  0  0  0  0  0  0  0  0  0
   -2.1910    7.3071   -1.7691 H   0  0  0  0  0  0  0  0  0  0  0  0
   -3.6617    6.9859    0.1964 H   0  0  0  0  0  0  0  0  0  0  0  0
   -3.7496    5.2567   -0.1180 H   0  0  0  0  0  0  0  0  0  0  0  0
   -1.2941    6.8970    0.6494 H   0  0  0  0  0  0  0  0  0  0  0  0
   -2.0773    5.6505    1.6158 H   0  0  0  0  0  0  0  0  0  0  0  0
    1.1074    3.9539   -1.6253 H   0  0  0  0  0  0  0  0  0  0  0  0
   -0.3239    2.9555   -1.8316 H   0  0  0  0  0  0  0  0  0  0  0  0
    0.9266    3.0490   -3.8778 H   0  0  0  0  0  0  0  0  0  0  0  0
   -0.6727    3.7062   -4.0979 H   0  0  0  0  0  0  0  0  0  0  0  0
    0.8759    5.0337   -5.3506 H   0  0  0  0  0  0  0  0  0  0  0  0
    0.2798    6.0439   -4.0461 H   0  0  0  0  0  0  0  0  0  0  0  0
    2.9841    4.6105   -4.1325 H   0  0  0  0  0  0  0  0  0  0  0  0
    2.6939    6.3450   -4.3321 H   0  0  0  0  0  0  0  0  0  0  0  0
    2.4109    5.5850   -2.7615 H   0  0  0  0  0  0  0  0  0  0  0  0
  1  2  2  0  0  0  0
  1 22  1  0  0  0  0
  2  3  1  0  0  0  0
  2 23  1  0  0  0  0
  3  4  2  0  0  0  0
  3 24  1  0  0  0  0
  4  5  1  0  0  0  0
  4  8  1  0  0  0  0
  5  6  2  0  0  0  0
  5  9  1  0  0  0  0
  6  1  1  0  0  0  0
  6  7  1  0  0  0  0
  7 25  1  0  0  0  0
  7 26  1  0  0  0  0
  7 27  1  0  0  0  0
  8 28  1  0  0  0  0
  8 29  1  0  0  0  0
  8 30  1  0  0  0  0
  9 10  1  0  0  0  0
  9 31  1  0  0  0  0
 10 11  1  0  0  0  0
 10 12  2  0  0  0  0
 11 13  1  0  0  0  0
 11 32  1  0  0  0  0
 13 14  1  0  0  0  0
 13 18  1  0  0  0  0
 14 15  1  0  0  0  0
 14 33  1  0  0  0  0
 14 34  1  0  0  0  0
 15 16  1  0  0  0  0
 15 35  1  0  0  0  0
 15 36  1  0  0  0  0
 16 17  1  0  0  0  0
 16 37  1  0  0  0  0
 16 38  1  0  0  0  0
 17 11  1  0  0  0  0
 17 39  1  0  0  0  0
 17 40  1  0  0  0  0
 18 19  1  0  0  0  0
 18 41  1  0  0  0  0
 18 42  1  0  0  0  0
 19 20  1  0  0  0  0
 19 43  1  0  0  0  0
 19 44  1  0  0  0  0
 20 21  1  0  0  0  0
 20 45  1  0  0  0  0
 20 46  1  0  0  0  0
 21 47  1  0  0  0  0
 21 48  1  0  0  0  0
 21 49  1  0  0  0  0
M  END
>  <Mol_ID>
735

>  <Formula>
C18H29ClN2O

>  <MolWeight>
324.88866

>  <Cat>
S2454

>  <Name>
Bupivacaine HCl

>  <Synonyms>
N/A

>  <Target>
Sodium Channel

>  <Form>
Hydrochloride

>  <CAS>
18010-40-7

>  <URL>
http://selleckchem.com/products/Bupivacaine-hydrochloride(Marcain).html

$$$$
