Buspirone hydrochloride.cdx
 OpenBabel08302522063D

 59 62  0  0  0  0  0  0  0  0999 V2000
   -4.0081    7.7249   -2.2407 C   0  0  0  0  0  0  0  0  0  0  0  0
   -4.9134    6.7064   -2.3697 C   0  0  0  0  0  0  0  0  0  0  0  0
   -4.8304    5.7411   -1.4032 C   0  0  0  0  0  0  0  0  0  0  0  0
   -3.9254    5.7470   -0.4009 N   0  0  0  0  0  0  0  0  0  0  0  0
   -3.0606    6.7775   -0.3585 C   0  0  0  0  0  0  0  0  0  0  0  0
   -3.0918    7.7806   -1.2579 N   0  0  0  0  0  0  0  0  0  0  0  0
   -2.0814    6.8087    0.6434 N   0  0  0  0  0  0  0  0  0  0  0  0
   -1.7907    5.4928    1.2292 C   0  0  0  0  0  0  0  0  0  0  0  0
   -0.6745    5.5804    2.3012 C   0  0  0  0  0  0  0  0  0  0  0  0
    0.5576    6.3138    1.9251 N   0  0  0  0  0  0  0  0  0  0  0  0
    0.1512    7.6302    1.3760 C   0  0  0  0  0  0  0  0  0  0  0  0
   -0.9006    7.5873    0.2465 C   0  0  0  0  0  0  0  0  0  0  0  0
    1.4430    5.5906    0.9974 C   0  0  0  0  0  0  0  0  0  0  0  0
    2.0985    4.3554    1.6441 C   0  0  0  0  0  0  0  0  0  0  0  0
    3.0795    3.6029    0.7236 C   0  0  0  0  0  0  0  0  0  0  0  0
    4.3206    4.4350    0.4139 C   0  0  0  0  0  0  0  0  0  0  0  0
    5.3879    3.7673   -0.3175 N   0  0  0  0  0  0  0  0  0  0  0  0
    6.2078    2.8878    0.3716 C   0  0  0  0  0  0  0  0  0  0  0  0
    7.5918    2.7126   -0.2032 C   0  0  0  0  0  0  0  0  0  0  0  0
    7.6302    2.6128   -1.7225 C   0  0  0  0  0  0  0  0  0  0  0  0
    6.8022    3.7496   -2.3269 C   0  0  0  0  0  0  0  0  0  0  0  0
    5.4436    3.9433   -1.6947 C   0  0  0  0  0  0  0  0  0  0  0  0
    7.1527    1.2363   -2.2327 C   0  0  0  0  0  0  0  0  0  0  0  0
    8.0323    0.9574   -3.4434 C   0  0  0  0  0  0  0  0  0  0  0  0
    9.3949    1.4481   -2.9921 C   0  0  0  0  0  0  0  0  0  0  0  0
    9.0998    2.7257   -2.2179 C   0  0  0  0  0  0  0  0  0  0  0  0
    4.4881    4.3320   -2.3657 O   0  0  0  0  0  0  0  0  0  0  0  0
    5.9002    2.3564    1.4365 O   0  0  0  0  0  0  0  0  0  0  0  0
   -3.9807    8.5525   -2.9431 H   0  0  0  0  0  0  0  0  0  0  0  0
   -5.6353    6.6733   -3.1731 H   0  0  0  0  0  0  0  0  0  0  0  0
   -5.5095    4.8843   -1.4053 H   0  0  0  0  0  0  0  0  0  0  0  0
   -2.6864    5.0903    1.7221 H   0  0  0  0  0  0  0  0  0  0  0  0
   -1.4849    4.7856    0.4487 H   0  0  0  0  0  0  0  0  0  0  0  0
   -1.0908    6.0907    3.1803 H   0  0  0  0  0  0  0  0  0  0  0  0
   -0.4388    4.5715    2.6545 H   0  0  0  0  0  0  0  0  0  0  0  0
   -0.2556    8.2251    2.2048 H   0  0  0  0  0  0  0  0  0  0  0  0
    1.0313    8.1838    1.0261 H   0  0  0  0  0  0  0  0  0  0  0  0
   -0.4505    7.1539   -0.6561 H   0  0  0  0  0  0  0  0  0  0  0  0
   -1.1772    8.6259    0.0246 H   0  0  0  0  0  0  0  0  0  0  0  0
    0.9283    5.3056    0.0736 H   0  0  0  0  0  0  0  0  0  0  0  0
    2.2495    6.2785    0.7142 H   0  0  0  0  0  0  0  0  0  0  0  0
    2.6278    4.6617    2.5573 H   0  0  0  0  0  0  0  0  0  0  0  0
    1.3305    3.6396    1.9497 H   0  0  0  0  0  0  0  0  0  0  0  0
    3.3714    2.6779    1.2347 H   0  0  0  0  0  0  0  0  0  0  0  0
    2.5761    3.3013   -0.2015 H   0  0  0  0  0  0  0  0  0  0  0  0
    4.0354    5.3278   -0.1530 H   0  0  0  0  0  0  0  0  0  0  0  0
    4.7627    4.7872    1.3546 H   0  0  0  0  0  0  0  0  0  0  0  0
    8.1608    3.5878    0.1371 H   0  0  0  0  0  0  0  0  0  0  0  0
    8.0554    1.8323    0.2579 H   0  0  0  0  0  0  0  0  0  0  0  0
    7.3215    4.7087   -2.1995 H   0  0  0  0  0  0  0  0  0  0  0  0
    6.6631    3.5987   -3.4043 H   0  0  0  0  0  0  0  0  0  0  0  0
    7.3233    0.4584   -1.4783 H   0  0  0  0  0  0  0  0  0  0  0  0
    6.0894    1.2150   -2.4918 H   0  0  0  0  0  0  0  0  0  0  0  0
    8.0441   -0.1011   -3.7143 H   0  0  0  0  0  0  0  0  0  0  0  0
    7.6876    1.5321   -4.3108 H   0  0  0  0  0  0  0  0  0  0  0  0
    9.8607    0.7126   -2.3261 H   0  0  0  0  0  0  0  0  0  0  0  0
   10.0759    1.6257   -3.8290 H   0  0  0  0  0  0  0  0  0  0  0  0
    9.2309    3.5925   -2.8773 H   0  0  0  0  0  0  0  0  0  0  0  0
    9.8162    2.8456   -1.3971 H   0  0  0  0  0  0  0  0  0  0  0  0
  1  2  2  0  0  0  0
  1 29  1  0  0  0  0
  2  3  1  0  0  0  0
  2 30  1  0  0  0  0
  3  4  2  0  0  0  0
  3 31  1  0  0  0  0
  4  5  1  0  0  0  0
  5  6  2  0  0  0  0
  5  7  1  0  0  0  0
  6  1  1  0  0  0  0
  7  8  1  0  0  0  0
  8  9  1  0  0  0  0
  8 32  1  0  0  0  0
  8 33  1  0  0  0  0
  9 10  1  0  0  0  0
  9 34  1  0  0  0  0
  9 35  1  0  0  0  0
 10 11  1  0  0  0  0
 10 13  1  0  0  0  0
 11 12  1  0  0  0  0
 11 36  1  0  0  0  0
 11 37  1  0  0  0  0
 12  7  1  0  0  0  0
 12 38  1  0  0  0  0
 12 39  1  0  0  0  0
 13 14  1  0  0  0  0
 13 40  1  0  0  0  0
 13 41  1  0  0  0  0
 14 15  1  0  0  0  0
 14 42  1  0  0  0  0
 14 43  1  0  0  0  0
 15 16  1  0  0  0  0
 15 44  1  0  0  0  0
 15 45  1  0  0  0  0
 16 17  1  0  0  0  0
 16 46  1  0  0  0  0
 16 47  1  0  0  0  0
 17 18  1  0  0  0  0
 18 19  1  0  0  0  0
 18 28  2  0  0  0  0
 19 20  1  0  0  0  0
 19 48  1  0  0  0  0
 19 49  1  0  0  0  0
 20 21  1  0  0  0  0
 20 23  1  0  0  0  0
 21 22  1  0  0  0  0
 21 50  1  0  0  0  0
 21 51  1  0  0  0  0
 22 17  1  0  0  0  0
 22 27  2  0  0  0  0
 23 24  1  0  0  0  0
 23 52  1  0  0  0  0
 23 53  1  0  0  0  0
 24 25  1  0  0  0  0
 24 54  1  0  0  0  0
 24 55  1  0  0  0  0
 25 26  1  0  0  0  0
 25 56  1  0  0  0  0
 25 57  1  0  0  0  0
 26 20  1  0  0  0  0
 26 58  1  0  0  0  0
 26 59  1  0  0  0  0
M  END
>  <Mol_ID>
1397

>  <Formula>
C21H32ClN5O2

>  <MolWeight>
421.96408

>  <Cat>
S4256

>  <Name>
Buspirone HCl

>  <Synonyms>
Buspirone hydrochloride

>  <Target>
5-HT Receptor

>  <Form>
Hydrochloride

>  <CAS>
33386-08-2

>  <URL>
http://selleckchem.com/products/buspirone-hcl.html

$$$$
