BUSULFEX (busulfan).cdx
 OpenBabel08302520413D

 28 27  0  0  0  0  0  0  0  0999 V2000
   -1.9708    1.6522   -0.1907 C   0  0  0  0  0  0  0  0  0  0  0  0
   -0.8136    3.0079   -0.3150 S   0  0  0  0  0  0  0  0  0  0  0  0
    0.5409    2.1517   -0.6311 O   0  0  0  0  0  0  0  0  0  0  0  0
    1.7229    2.8449   -1.0299 C   0  0  0  0  0  0  0  0  0  0  0  0
    2.4342    3.5984    0.0990 C   0  0  0  0  0  0  0  0  0  0  0  0
    2.7514    2.7957    1.3664 C   0  0  0  0  0  0  0  0  0  0  0  0
    3.7635    1.6549    1.2181 C   0  0  0  0  0  0  0  0  0  0  0  0
    4.9920    2.0258    0.5986 O   0  0  0  0  0  0  0  0  0  0  0  0
    6.0756    2.9109    1.4485 S   0  0  0  0  0  0  0  0  0  0  0  0
    7.4620    2.7914    0.3257 C   0  0  0  0  0  0  0  0  0  0  0  0
   -1.1563    3.8042   -1.4701 O   0  0  0  0  0  0  0  0  0  0  0  0
   -0.6677    3.5902    1.0079 O   0  0  0  0  0  0  0  0  0  0  0  0
    5.6217    4.2844    1.4475 O   0  0  0  0  0  0  0  0  0  0  0  0
    6.4106    2.2104    2.6665 O   0  0  0  0  0  0  0  0  0  0  0  0
   -2.3926    1.4441   -1.1767 H   0  0  0  0  0  0  0  0  0  0  0  0
   -2.7712    1.9543    0.4902 H   0  0  0  0  0  0  0  0  0  0  0  0
   -1.4725    0.7689    0.2087 H   0  0  0  0  0  0  0  0  0  0  0  0
    2.4061    2.0996   -1.4485 H   0  0  0  0  0  0  0  0  0  0  0  0
    1.4889    3.5408   -1.8457 H   0  0  0  0  0  0  0  0  0  0  0  0
    3.3568    4.0371   -0.2979 H   0  0  0  0  0  0  0  0  0  0  0  0
    1.8043    4.4446    0.3994 H   0  0  0  0  0  0  0  0  0  0  0  0
    3.1372    3.5028    2.1107 H   0  0  0  0  0  0  0  0  0  0  0  0
    1.8234    2.3922    1.7880 H   0  0  0  0  0  0  0  0  0  0  0  0
    3.9610    1.2076    2.2006 H   0  0  0  0  0  0  0  0  0  0  0  0
    3.3207    0.8626    0.6039 H   0  0  0  0  0  0  0  0  0  0  0  0
    7.1078    2.7289   -0.7032 H   0  0  0  0  0  0  0  0  0  0  0  0
    8.0666    3.6956    0.4452 H   0  0  0  0  0  0  0  0  0  0  0  0
    8.0646    1.9155    0.5820 H   0  0  0  0  0  0  0  0  0  0  0  0
  1  2  1  0  0  0  0
  1 15  1  0  0  0  0
  1 16  1  0  0  0  0
  1 17  1  0  0  0  0
  2  3  1  0  0  0  0
  2 11  2  0  0  0  0
  2 12  2  0  0  0  0
  3  4  1  0  0  0  0
  4  5  1  0  0  0  0
  4 18  1  0  0  0  0
  4 19  1  0  0  0  0
  5  6  1  0  0  0  0
  5 20  1  0  0  0  0
  5 21  1  0  0  0  0
  6  7  1  0  0  0  0
  6 22  1  0  0  0  0
  6 23  1  0  0  0  0
  7  8  1  0  0  0  0
  7 24  1  0  0  0  0
  7 25  1  0  0  0  0
  8  9  1  0  0  0  0
  9 10  1  0  0  0  0
  9 13  2  0  0  0  0
  9 14  2  0  0  0  0
 10 26  1  0  0  0  0
 10 27  1  0  0  0  0
 10 28  1  0  0  0  0
M  END
>  <Mol_ID>
395

>  <Formula>
C6H14O6S2

>  <MolWeight>
246.30176

>  <Cat>
S1692

>  <Name>
Busulfan (NSC-750)

>  <Synonyms>
NSC-750

>  <Target>
Apoptosis related,DNA alkylator

>  <Form>
free base

>  <CAS>
55-98-1

>  <URL>
http://selleckchem.com/products/Busulfan(Busulfex).html

$$$$
