Butylscopolamine bromide.cdx
 OpenBabel08302521263D

 57 59  0  0  0  0  0  0  0  0999 V2000
   73.7288   -0.0253    0.0358 Br  0  5  0  0  0  0  0  0  0  0  0  0
    3.5640    2.6523    2.4276 C   0  0  0  0  0  0  0  0  0  0  0  0
    2.8403    3.0853    1.3028 C   0  0  0  0  0  0  0  0  0  0  0  0
    2.3853    2.1164    0.3911 C   0  0  0  0  0  0  0  0  0  0  0  0
    2.6982    0.7640    0.5730 C   0  0  0  0  0  0  0  0  0  0  0  0
    3.4542    0.3623    1.6719 C   0  0  0  0  0  0  0  0  0  0  0  0
    3.8643    1.3018    2.6120 C   0  0  0  0  0  0  0  0  0  0  0  0
    0.5669    5.3408    1.6657 O   0  0  0  0  0  0  0  0  0  0  0  0
    1.4275    5.1023    0.5930 C   0  0  0  0  0  0  0  0  0  0  0  0
    2.7730    4.5793    1.0214 C   0  0  2  0  0  0  0  0  0  0  0  0
   -3.3298    6.1017    1.8747 C   0  0  2  0  0  0  0  0  0  0  0  0
   -3.8766    4.8206    2.4525 C   0  0  2  0  0  0  0  0  0  0  0  0
   -3.6074    3.7616    1.4513 C   0  0  2  0  0  0  0  0  0  0  0  0
   -2.8172    4.4530    0.3216 C   0  0  1  0  0  0  0  0  0  0  0  0
   -3.3271    5.9625    0.2913 N   0  3  3  0  0  0  0  0  0  0  0  0
   -1.3573    4.3316    0.6985 C   0  0  0  0  0  0  0  0  0  0  0  0
   -1.7709    6.2130    2.3093 C   0  0  0  0  0  0  0  0  0  0  0  0
   -4.9456    4.2045    1.7377 O   0  0  0  0  0  0  0  0  0  0  0  0
   -0.7865    5.6211    1.2407 C   0  0  1  0  0  0  0  0  0  0  0  0
    3.8328    4.9771   -0.0346 C   0  0  0  0  0  0  0  0  0  0  0  0
    1.0977    5.2708   -0.5862 O   0  0  0  0  0  0  0  0  0  0  0  0
    3.6873    4.3029   -1.2855 O   0  0  0  0  0  0  0  0  0  0  0  0
   -4.6280    5.8345   -0.6157 C   0  0  0  0  0  0  0  0  0  0  0  0
   -4.1430    5.8141   -2.1047 C   0  0  0  0  0  0  0  0  0  0  0  0
   -5.2041    5.5273   -3.1531 C   0  0  0  0  0  0  0  0  0  0  0  0
   -4.5708    5.5160   -4.5479 C   0  0  0  0  0  0  0  0  0  0  0  0
   -2.6904    7.2703   -0.2306 C   0  0  0  0  0  0  0  0  0  0  0  0
    3.9479    3.3683    3.1490 H   0  0  0  0  0  0  0  0  0  0  0  0
    1.8549    2.4009   -0.5154 H   0  0  0  0  0  0  0  0  0  0  0  0
    2.3976    0.0282   -0.1712 H   0  0  0  0  0  0  0  0  0  0  0  0
    3.7477   -0.6809    1.7788 H   0  0  0  0  0  0  0  0  0  0  0  0
    4.4750    0.9905    3.4567 H   0  0  0  0  0  0  0  0  0  0  0  0
    3.0237    5.1321    1.9361 H   0  0  0  0  0  0  0  0  0  0  0  0
   -3.9211    6.9799    2.1529 H   0  0  0  0  0  0  0  0  0  0  0  0
   -3.7608    4.6481    3.5110 H   0  0  0  0  0  0  0  0  0  0  0  0
   -3.3232    2.7595    1.7218 H   0  0  0  0  0  0  0  0  0  0  0  0
   -3.0156    3.9548   -0.6284 H   0  0  0  0  0  0  0  0  0  0  0  0
   -0.8010    3.9490   -0.1604 H   0  0  0  0  0  0  0  0  0  0  0  0
   -1.2057    3.5572    1.4673 H   0  0  0  0  0  0  0  0  0  0  0  0
   -1.5158    7.2706    2.4654 H   0  0  0  0  0  0  0  0  0  0  0  0
   -1.6034    5.7415    3.2851 H   0  0  0  0  0  0  0  0  0  0  0  0
   -0.6743    6.3658    0.4542 H   0  0  0  0  0  0  0  0  0  0  0  0
    4.8346    4.7415    0.3393 H   0  0  0  0  0  0  0  0  0  0  0  0
    3.7958    6.0519   -0.2395 H   0  0  0  0  0  0  0  0  0  0  0  0
    2.8230    4.5511   -1.6628 H   0  0  0  0  0  0  0  0  0  0  0  0
   -5.2831    6.6814   -0.3901 H   0  0  0  0  0  0  0  0  0  0  0  0
   -5.1475    4.9008   -0.4008 H   0  0  0  0  0  0  0  0  0  0  0  0
   -3.7123    6.7837   -2.3744 H   0  0  0  0  0  0  0  0  0  0  0  0
   -3.3331    5.0861   -2.2451 H   0  0  0  0  0  0  0  0  0  0  0  0
   -5.6882    4.5644   -2.9617 H   0  0  0  0  0  0  0  0  0  0  0  0
   -5.9681    6.3078   -3.1097 H   0  0  0  0  0  0  0  0  0  0  0  0
   -3.7156    6.1994   -4.6254 H   0  0  0  0  0  0  0  0  0  0  0  0
   -5.3018    5.8128   -5.3049 H   0  0  0  0  0  0  0  0  0  0  0  0
   -4.2110    4.5135   -4.8027 H   0  0  0  0  0  0  0  0  0  0  0  0
   -1.9547    7.0507   -1.0016 H   0  0  0  0  0  0  0  0  0  0  0  0
   -3.4884    7.9186   -0.6198 H   0  0  0  0  0  0  0  0  0  0  0  0
   -2.2807    7.8694    0.5869 H   0  0  0  0  0  0  0  0  0  0  0  0
  2  3  2  0  0  0  0
  2 28  1  0  0  0  0
  3  4  1  0  0  0  0
  4  5  2  0  0  0  0
  4 29  1  0  0  0  0
  5  6  1  0  0  0  0
  5 30  1  0  0  0  0
  6  7  2  0  0  0  0
  6 31  1  0  0  0  0
  7  2  1  0  0  0  0
  7 32  1  0  0  0  0
  8  9  1  0  0  0  0
  9 21  2  0  0  0  0
 10 20  1  0  0  0  0
 10 33  1  1  0  0  0
 10  3  1  0  0  0  0
 10  9  1  0  0  0  0
 11 12  1  0  0  0  0
 11 15  1  0  0  0  0
 11 17  1  0  0  0  0
 11 34  1  1  0  0  0
 12 13  1  0  0  0  0
 12 18  1  0  0  0  0
 12 35  1  1  0  0  0
 13 14  1  0  0  0  0
 13 18  1  0  0  0  0
 13 36  1  1  0  0  0
 14 15  1  0  0  0  0
 14 16  1  0  0  0  0
 14 37  1  6  0  0  0
 15 23  1  0  0  0  0
 15 27  1  0  0  0  0
 16 19  1  0  0  0  0
 16 38  1  0  0  0  0
 16 39  1  0  0  0  0
 17 19  1  0  0  0  0
 17 40  1  0  0  0  0
 17 41  1  0  0  0  0
 19  8  1  0  0  0  0
 19 42  1  6  0  0  0
 20 22  1  0  0  0  0
 20 43  1  0  0  0  0
 20 44  1  0  0  0  0
 22 45  1  0  0  0  0
 23 24  1  0  0  0  0
 23 46  1  0  0  0  0
 23 47  1  0  0  0  0
 24 25  1  0  0  0  0
 24 48  1  0  0  0  0
 24 49  1  0  0  0  0
 25 26  1  0  0  0  0
 25 50  1  0  0  0  0
 25 51  1  0  0  0  0
 26 52  1  0  0  0  0
 26 53  1  0  0  0  0
 26 54  1  0  0  0  0
 27 55  1  0  0  0  0
 27 56  1  0  0  0  0
 27 57  1  0  0  0  0
M  CHG  2   1  -1  15   1
M  END
>  <Mol_ID>
497

>  <Formula>
C21H30BrNO4

>  <MolWeight>
440.3712

>  <Cat>
S2378

>  <Name>
Butylscopolamine Bromide

>  <Synonyms>
Scopolamine Butylbromide,(-)-Scopolamine butylbromide, Hyoscine butylbromide

>  <Target>
AChR

>  <Form>
Bromide

>  <CAS>
149-64-4

>  <URL>
http://selleckchem.com/products/butylscopolamine-bromide.html

$$$$
