Butylated hydroxytoluene
 OpenBabel08302520383D

 40 40  0  0  0  0  0  0  0  0999 V2000
   -0.6302   -1.2714   -0.0185 C   0  0  0  0  0  0  0  0  0  0  0  0
   -1.3236   -0.0291   -0.0101 C   0  0  0  0  0  0  0  0  0  0  0  0
   -1.3140   -2.6665   -0.0579 C   0  0  0  0  0  0  0  0  0  0  0  0
    0.7785   -1.1994   -0.0062 C   0  0  0  0  0  0  0  0  0  0  0  0
   -0.6647    1.2279   -0.0443 C   0  0  0  0  0  0  0  0  0  0  0  0
   -2.6872    0.0223    0.0780 O   0  0  0  0  0  0  0  0  0  0  0  0
   -2.0970   -2.8360   -1.3810 C   0  0  0  0  0  0  0  0  0  0  0  0
   -0.3113   -3.8569   -0.0224 C   0  0  0  0  0  0  0  0  0  0  0  0
   -2.2376   -2.8921    1.1615 C   0  0  0  0  0  0  0  0  0  0  0  0
    1.4676    0.0152    0.0180 C   0  0  0  0  0  0  0  0  0  0  0  0
   -1.3944    2.5988   -0.0777 C   0  0  0  0  0  0  0  0  0  0  0  0
    0.7426    1.2063    0.0039 C   0  0  0  0  0  0  0  0  0  0  0  0
    2.9677    0.0562    0.0598 C   0  0  0  0  0  0  0  0  0  0  0  0
   -1.6459    3.0469    1.3748 C   0  0  0  0  0  0  0  0  0  0  0  0
   -0.5457    3.6921   -0.7855 C   0  0  0  0  0  0  0  0  0  0  0  0
   -2.7443    2.6057   -0.8372 C   0  0  0  0  0  0  0  0  0  0  0  0
    1.3874   -2.0992   -0.0037 H   0  0  0  0  0  0  0  0  0  0  0  0
   -3.0748   -0.8381   -0.1179 H   0  0  0  0  0  0  0  0  0  0  0  0
   -1.4282   -2.7330   -2.2443 H   0  0  0  0  0  0  0  0  0  0  0  0
   -2.5601   -3.8283   -1.4382 H   0  0  0  0  0  0  0  0  0  0  0  0
   -2.9010   -2.1099   -1.5168 H   0  0  0  0  0  0  0  0  0  0  0  0
    0.2881   -3.8528    0.8961 H   0  0  0  0  0  0  0  0  0  0  0  0
   -0.8366   -4.8194   -0.0553 H   0  0  0  0  0  0  0  0  0  0  0  0
    0.3700   -3.8427   -0.8815 H   0  0  0  0  0  0  0  0  0  0  0  0
   -1.6768   -2.7972    2.0989 H   0  0  0  0  0  0  0  0  0  0  0  0
   -3.0804   -2.2017    1.2206 H   0  0  0  0  0  0  0  0  0  0  0  0
   -2.6721   -3.8995    1.1382 H   0  0  0  0  0  0  0  0  0  0  0  0
    1.3129    2.1305    0.0417 H   0  0  0  0  0  0  0  0  0  0  0  0
    3.3544    0.5958   -0.8107 H   0  0  0  0  0  0  0  0  0  0  0  0
    3.3051    0.5569    0.9730 H   0  0  0  0  0  0  0  0  0  0  0  0
    3.4004   -0.9495    0.0497 H   0  0  0  0  0  0  0  0  0  0  0  0
   -0.7060    3.1607    1.9277 H   0  0  0  0  0  0  0  0  0  0  0  0
   -2.1663    4.0111    1.4070 H   0  0  0  0  0  0  0  0  0  0  0  0
   -2.2602    2.3197    1.9179 H   0  0  0  0  0  0  0  0  0  0  0  0
   -0.2470    3.3683   -1.7897 H   0  0  0  0  0  0  0  0  0  0  0  0
   -1.1076    4.6272   -0.8936 H   0  0  0  0  0  0  0  0  0  0  0  0
    0.3590    3.9530   -0.2263 H   0  0  0  0  0  0  0  0  0  0  0  0
   -2.6390    2.1769   -1.8401 H   0  0  0  0  0  0  0  0  0  0  0  0
   -3.5376    2.0709   -0.3084 H   0  0  0  0  0  0  0  0  0  0  0  0
   -3.1254    3.6283   -0.9530 H   0  0  0  0  0  0  0  0  0  0  0  0
  1  2  2  0  0  0  0
  1  3  1  0  0  0  0
  1  4  1  0  0  0  0
  2  5  1  0  0  0  0
  2  6  1  0  0  0  0
  3  7  1  0  0  0  0
  3  8  1  0  0  0  0
  3  9  1  0  0  0  0
  4 10  2  0  0  0  0
  4 17  1  0  0  0  0
  5 11  1  0  0  0  0
  5 12  2  0  0  0  0
  6 18  1  0  0  0  0
  7 19  1  0  0  0  0
  7 20  1  0  0  0  0
  7 21  1  0  0  0  0
  8 22  1  0  0  0  0
  8 23  1  0  0  0  0
  8 24  1  0  0  0  0
  9 25  1  0  0  0  0
  9 26  1  0  0  0  0
  9 27  1  0  0  0  0
 10 13  1  0  0  0  0
 10 12  1  0  0  0  0
 11 14  1  0  0  0  0
 11 15  1  0  0  0  0
 11 16  1  0  0  0  0
 12 28  1  0  0  0  0
 13 29  1  0  0  0  0
 13 30  1  0  0  0  0
 13 31  1  0  0  0  0
 14 32  1  0  0  0  0
 14 33  1  0  0  0  0
 14 34  1  0  0  0  0
 15 35  1  0  0  0  0
 15 36  1  0  0  0  0
 15 37  1  0  0  0  0
 16 38  1  0  0  0  0
 16 39  1  0  0  0  0
 16 40  1  0  0  0  0
M  END
>  <Mol_ID>
3485

>  <Formula>
C15H24O

>  <MolWeight>
220.35046

>  <Cat>
S6202

>  <Name>
Butylated hydroxytoluene

>  <Synonyms>
dibutylhydroxytoluene, Dibutylated hydroxytoluene, AO-29, BHT

>  <Target>
Others

>  <Form>
free base

>  <CAS>
128-37-0

>  <URL>
http://www.selleck.cn/products/butylated-hydroxytoluene.html

$$$$
