Butyl isothiocyanate
 OpenBabel08302521363D

 16 15  0  0  0  0  0  0  0  0999 V2000
    1.1073   -0.0049   -0.3268 C   0  0  0  0  0  0  0  0  0  0  0  0
    0.4969    1.3127    0.1466 C   0  0  0  0  0  0  0  0  0  0  0  0
    0.5681   -1.0894    0.5078 N   0  0  0  0  0  0  0  0  0  0  0  0
    1.0010    2.4919   -0.6831 C   0  0  0  0  0  0  0  0  0  0  0  0
    0.9595   -2.1629    0.2378 C   0  0  0  0  0  0  0  0  0  0  0  0
    0.3803    3.8032   -0.2244 C   0  0  0  0  0  0  0  0  0  0  0  0
    1.4807   -3.6223   -0.1191 S   0  0  0  0  0  0  0  0  0  0  0  0
    2.2013    0.0413   -0.2360 H   0  0  0  0  0  0  0  0  0  0  0  0
    0.8563   -0.1708   -1.3826 H   0  0  0  0  0  0  0  0  0  0  0  0
   -0.5967    1.2549    0.0887 H   0  0  0  0  0  0  0  0  0  0  0  0
    0.7477    1.4709    1.2036 H   0  0  0  0  0  0  0  0  0  0  0  0
    2.0912    2.5628   -0.5989 H   0  0  0  0  0  0  0  0  0  0  0  0
    0.7659    2.3362   -1.7422 H   0  0  0  0  0  0  0  0  0  0  0  0
    0.5001    3.9439    0.8548 H   0  0  0  0  0  0  0  0  0  0  0  0
    0.8597    4.6474   -0.7313 H   0  0  0  0  0  0  0  0  0  0  0  0
   -0.6884    3.8318   -0.4580 H   0  0  0  0  0  0  0  0  0  0  0  0
  1  2  1  0  0  0  0
  1  3  1  0  0  0  0
  1  8  1  0  0  0  0
  1  9  1  0  0  0  0
  2  4  1  0  0  0  0
  2 10  1  0  0  0  0
  2 11  1  0  0  0  0
  3  5  2  0  0  0  0
  4  6  1  0  0  0  0
  4 12  1  0  0  0  0
  4 13  1  0  0  0  0
  5  7  2  0  0  0  0
  6 14  1  0  0  0  0
  6 15  1  0  0  0  0
  6 16  1  0  0  0  0
M  END
>  <Mol_ID>
7275

>  <Formula>
C5H9NS

>  <MolWeight>
115.19666

>  <Cat>
E4295

>  <Name>
Butyl isothiocyanate

>  <Synonyms>
Butyl isothiocyanate

>  <Target>
Others

>  <Form>
free base

>  <CAS>
592-82-5

>  <URL>
https://www.selleckchem.com/products/butyl-isothiocyanate.html

$$$$
