BVD-523.cdx
 OpenBabel08302519593D

 51 53  0  0  0  0  0  0  0  0999 V2000
   10.2656    7.5889   -2.1089 C   0  0  0  0  0  0  0  0  0  0  0  0
   10.4615    8.9401   -2.3345 C   0  0  0  0  0  0  0  0  0  0  0  0
   11.3676    9.4426   -3.2036 N   0  0  0  0  0  0  0  0  0  0  0  0
   12.1440    8.5763   -3.8793 C   0  0  0  0  0  0  0  0  0  0  0  0
   12.0303    7.2000   -3.6780 C   0  0  0  0  0  0  0  0  0  0  0  0
   11.0673    6.6871   -2.8014 C   0  0  0  0  0  0  0  0  0  0  0  0
   10.8885    5.2489   -2.6322 C   0  0  0  0  0  0  0  0  0  0  0  0
   11.8959    4.3144   -2.7699 C   0  0  0  0  0  0  0  0  0  0  0  0
   11.3667    3.0643   -2.5640 N   0  0  0  0  0  0  0  0  0  0  0  0
   10.0171    3.1549   -2.3165 C   0  0  0  0  0  0  0  0  0  0  0  0
    9.7157    4.5094   -2.3132 C   0  0  0  0  0  0  0  0  0  0  0  0
   13.1699    9.0366   -4.7204 N   0  0  0  0  0  0  0  0  0  0  0  0
   13.0382   10.3963   -5.2515 C   0  0  0  0  0  0  0  0  0  0  0  0
   14.4432   10.9722   -5.4358 C   0  0  0  0  0  0  0  0  0  0  0  0
   12.3158   10.3471   -6.6009 C   0  0  0  0  0  0  0  0  0  0  0  0
    9.0952    2.0570   -2.0941 C   0  0  0  0  0  0  0  0  0  0  0  0
    9.4706    0.8421   -2.6324 N   0  0  0  0  0  0  0  0  0  0  0  0
    8.0224    2.2067   -1.5153 O   0  0  0  0  0  0  0  0  0  0  0  0
    8.4566   -0.1849   -2.8733 C   0  0  2  0  0  0  0  0  0  0  0  0
    9.0708   -1.5997   -2.8601 C   0  0  0  0  0  0  0  0  0  0  0  0
    7.6982    0.0796   -4.1730 C   0  0  0  0  0  0  0  0  0  0  0  0
   10.0352   -1.7755   -3.9021 O   0  0  0  0  0  0  0  0  0  0  0  0
    6.3455   -0.2820   -4.2715 C   0  0  0  0  0  0  0  0  0  0  0  0
    5.6138    0.0026   -5.4273 C   0  0  0  0  0  0  0  0  0  0  0  0
    6.2233    0.6463   -6.5017 C   0  0  0  0  0  0  0  0  0  0  0  0
    7.5724    0.9798   -6.4353 C   0  0  0  0  0  0  0  0  0  0  0  0
    8.3076    0.6877   -5.2855 C   0  0  0  0  0  0  0  0  0  0  0  0
    9.5148    7.2615   -1.3984 H   0  0  0  0  0  0  0  0  0  0  0  0
    9.8786    9.6843   -1.7986 H   0  0  0  0  0  0  0  0  0  0  0  0
   12.6776    6.5299   -4.2326 H   0  0  0  0  0  0  0  0  0  0  0  0
   12.9510    4.4262   -2.9825 H   0  0  0  0  0  0  0  0  0  0  0  0
   11.9007    2.2063   -2.5664 H   0  0  0  0  0  0  0  0  0  0  0  0
    8.7220    4.9080   -2.1401 H   0  0  0  0  0  0  0  0  0  0  0  0
   13.3582    8.3638   -5.4551 H   0  0  0  0  0  0  0  0  0  0  0  0
   12.4973   11.0673   -4.5743 H   0  0  0  0  0  0  0  0  0  0  0  0
   15.0487   10.3482   -6.1031 H   0  0  0  0  0  0  0  0  0  0  0  0
   14.4003   11.9810   -5.8590 H   0  0  0  0  0  0  0  0  0  0  0  0
   14.9651   11.0316   -4.4742 H   0  0  0  0  0  0  0  0  0  0  0  0
   11.3014    9.9488   -6.4899 H   0  0  0  0  0  0  0  0  0  0  0  0
   12.2427   11.3448   -7.0455 H   0  0  0  0  0  0  0  0  0  0  0  0
   12.8449    9.7018   -7.3107 H   0  0  0  0  0  0  0  0  0  0  0  0
   10.2811    0.7937   -3.2310 H   0  0  0  0  0  0  0  0  0  0  0  0
    7.7384   -0.1317   -2.0449 H   0  0  0  0  0  0  0  0  0  0  0  0
    9.5859   -1.7757   -1.9097 H   0  0  0  0  0  0  0  0  0  0  0  0
    8.2994   -2.3709   -2.9685 H   0  0  0  0  0  0  0  0  0  0  0  0
    9.5266   -1.8913   -4.7269 H   0  0  0  0  0  0  0  0  0  0  0  0
    5.8410   -0.7657   -3.4376 H   0  0  0  0  0  0  0  0  0  0  0  0
    4.5604   -0.2595   -5.4811 H   0  0  0  0  0  0  0  0  0  0  0  0
    5.6449    0.8957   -7.3877 H   0  0  0  0  0  0  0  0  0  0  0  0
    8.0504    1.4836   -7.2717 H   0  0  0  0  0  0  0  0  0  0  0  0
    9.3579    0.9663   -5.2658 H   0  0  0  0  0  0  0  0  0  0  0  0
  1  2  2  0  0  0  0
  1 28  1  0  0  0  0
  2  3  1  0  0  0  0
  2 29  1  0  0  0  0
  3  4  2  0  0  0  0
  4  5  1  0  0  0  0
  4 12  1  0  0  0  0
  5  6  2  0  0  0  0
  5 30  1  0  0  0  0
  6  1  1  0  0  0  0
  6  7  1  0  0  0  0
  7  8  2  0  0  0  0
  8  9  1  0  0  0  0
  8 31  1  0  0  0  0
  9 10  1  0  0  0  0
  9 32  1  0  0  0  0
 10 11  2  0  0  0  0
 10 16  1  0  0  0  0
 11  7  1  0  0  0  0
 11 33  1  0  0  0  0
 12 13  1  0  0  0  0
 12 34  1  0  0  0  0
 13 14  1  0  0  0  0
 13 15  1  0  0  0  0
 13 35  1  0  0  0  0
 14 36  1  0  0  0  0
 14 37  1  0  0  0  0
 14 38  1  0  0  0  0
 15 39  1  0  0  0  0
 15 40  1  0  0  0  0
 15 41  1  0  0  0  0
 16 17  1  0  0  0  0
 16 18  2  0  0  0  0
 17 42  1  0  0  0  0
 19 21  1  0  0  0  0
 19 43  1  1  0  0  0
 19 20  1  0  0  0  0
 19 17  1  0  0  0  0
 20 22  1  0  0  0  0
 20 44  1  0  0  0  0
 20 45  1  0  0  0  0
 21 23  2  0  0  0  0
 22 46  1  0  0  0  0
 23 24  1  0  0  0  0
 23 47  1  0  0  0  0
 24 25  2  0  0  0  0
 24 48  1  0  0  0  0
 25 26  1  0  0  0  0
 25 49  1  0  0  0  0
 26 27  2  0  0  0  0
 26 50  1  0  0  0  0
 27 21  1  0  0  0  0
 27 51  1  0  0  0  0
M  END
>  <Mol_ID>
2602

>  <Formula>
C21H22Cl2N4O2

>  <MolWeight>
433.33098

>  <Cat>
S7854

>  <Name>
Ulixertinib (BVD-523)

>  <Synonyms>
VRT752271

>  <Target>
ERK

>  <Form>
free base

>  <CAS>
869886-67-9

>  <URL>
http://selleckchem.com/products/ulixertinib-bvd-523-vrt752271.html

$$$$
