BVDV IN-1
 OpenBabel08302521333D

 47 50  0  0  0  0  0  0  0  0999 V2000
   -0.9450    0.7888    0.8865 N   0  0  0  0  0  0  0  0  0  0  0  0
   -0.7419    0.9888   -0.5578 C   0  0  0  0  0  0  0  0  0  0  0  0
    0.2161    0.0265   -1.2125 C   0  0  0  0  0  0  0  0  0  0  0  0
    1.4962   -0.0637   -0.5199 N   0  0  0  0  0  0  0  0  0  0  0  0
    1.5243   -0.1478    0.9357 C   0  0  0  0  0  0  0  0  0  0  0  0
    0.3730    0.6810    1.5576 C   0  0  0  0  0  0  0  0  0  0  0  0
   -2.2897   -0.5787    2.6389 C   0  0  0  0  0  0  0  0  0  0  0  0
   -1.9493   -0.2512    1.1662 C   0  0  0  0  0  0  0  0  0  0  0  0
   -2.6991    0.5533    3.3869 O   0  0  0  0  0  0  0  0  0  0  0  0
    5.0569   -0.3757   -2.5415 N   0  0  0  0  0  0  0  0  0  0  0  0
    4.9186    0.2082   -1.3307 C   0  0  0  0  0  0  0  0  0  0  0  0
    3.7954    0.2827   -0.6459 N   0  0  0  0  0  0  0  0  0  0  0  0
    2.6815   -0.2040   -1.2199 C   0  0  0  0  0  0  0  0  0  0  0  0
    2.7156   -0.8125   -2.4859 C   0  0  0  0  0  0  0  0  0  0  0  0
    1.5835   -1.3465   -3.1635 C   0  0  0  0  0  0  0  0  0  0  0  0
    1.6363   -1.9247   -4.3851 C   0  0  0  0  0  0  0  0  0  0  0  0
    2.8724   -2.0151   -4.9792 C   0  0  0  0  0  0  0  0  0  0  0  0
    3.9840   -1.5056   -4.3421 C   0  0  0  0  0  0  0  0  0  0  0  0
    3.9309   -0.8848   -3.0904 C   0  0  0  0  0  0  0  0  0  0  0  0
    6.1185    0.8599   -0.7673 C   0  0  0  0  0  0  0  0  0  0  0  0
    7.3362    0.8808   -1.4630 C   0  0  0  0  0  0  0  0  0  0  0  0
    8.4480    1.5542   -0.9653 C   0  0  0  0  0  0  0  0  0  0  0  0
    8.3660    2.2193    0.2622 C   0  0  0  0  0  0  0  0  0  0  0  0
    7.1806    2.1955    0.9823 C   0  0  0  0  0  0  0  0  0  0  0  0
    6.0659    1.5224    0.4788 C   0  0  0  0  0  0  0  0  0  0  0  0
   -1.6908    0.9818   -1.1152 H   0  0  0  0  0  0  0  0  0  0  0  0
   -0.3366    2.0197   -0.7018 H   0  0  0  0  0  0  0  0  0  0  0  0
   -0.2428   -0.9681   -1.2606 H   0  0  0  0  0  0  0  0  0  0  0  0
    0.3639    0.4339   -2.2236 H   0  0  0  0  0  0  0  0  0  0  0  0
    1.5054   -1.1929    1.2542 H   0  0  0  0  0  0  0  0  0  0  0  0
    2.4640    0.2681    1.3186 H   0  0  0  0  0  0  0  0  0  0  0  0
    0.7453    1.7135    1.5758 H   0  0  0  0  0  0  0  0  0  0  0  0
    0.2544    0.4149    2.6105 H   0  0  0  0  0  0  0  0  0  0  0  0
   -3.1300   -1.2843    2.6601 H   0  0  0  0  0  0  0  0  0  0  0  0
   -1.4579   -1.0701    3.1526 H   0  0  0  0  0  0  0  0  0  0  0  0
   -2.8843    0.1027    0.7031 H   0  0  0  0  0  0  0  0  0  0  0  0
   -1.6848   -1.1903    0.6795 H   0  0  0  0  0  0  0  0  0  0  0  0
   -2.0775    1.2715    3.1560 H   0  0  0  0  0  0  0  0  0  0  0  0
    0.5829   -1.3180   -2.7964 H   0  0  0  0  0  0  0  0  0  0  0  0
    0.7140   -2.2922   -4.8362 H   0  0  0  0  0  0  0  0  0  0  0  0
    2.9302   -2.4918   -5.9409 H   0  0  0  0  0  0  0  0  0  0  0  0
    4.9464   -1.5737   -4.8409 H   0  0  0  0  0  0  0  0  0  0  0  0
    7.4109    0.3751   -2.4279 H   0  0  0  0  0  0  0  0  0  0  0  0
    9.3719    1.5715   -1.5353 H   0  0  0  0  0  0  0  0  0  0  0  0
    9.2299    2.7558    0.6403 H   0  0  0  0  0  0  0  0  0  0  0  0
    7.1135    2.7098    1.9375 H   0  0  0  0  0  0  0  0  0  0  0  0
    5.1427    1.5255    1.0517 H   0  0  0  0  0  0  0  0  0  0  0  0
  1  2  1  0  0  0  0
  1  6  1  0  0  0  0
  1  8  1  0  0  0  0
  2  3  1  0  0  0  0
  2 26  1  0  0  0  0
  2 27  1  0  0  0  0
  3  4  1  0  0  0  0
  3 28  1  0  0  0  0
  3 29  1  0  0  0  0
  4  5  1  0  0  0  0
  4 13  1  0  0  0  0
  5  6  1  0  0  0  0
  5 30  1  0  0  0  0
  5 31  1  0  0  0  0
  6 32  1  0  0  0  0
  6 33  1  0  0  0  0
  7  8  1  0  0  0  0
  7  9  1  0  0  0  0
  7 34  1  0  0  0  0
  7 35  1  0  0  0  0
  8 36  1  0  0  0  0
  8 37  1  0  0  0  0
  9 38  1  0  0  0  0
 10 11  2  0  0  0  0
 10 19  1  0  0  0  0
 11 12  1  0  0  0  0
 11 20  1  0  0  0  0
 12 13  2  0  0  0  0
 13 14  1  0  0  0  0
 14 15  1  0  0  0  0
 14 19  2  0  0  0  0
 15 16  2  0  0  0  0
 15 39  1  0  0  0  0
 16 17  1  0  0  0  0
 16 40  1  0  0  0  0
 17 18  2  0  0  0  0
 17 41  1  0  0  0  0
 18 19  1  0  0  0  0
 18 42  1  0  0  0  0
 20 21  2  0  0  0  0
 20 25  1  0  0  0  0
 21 22  1  0  0  0  0
 21 43  1  0  0  0  0
 22 23  2  0  0  0  0
 22 44  1  0  0  0  0
 23 24  1  0  0  0  0
 23 45  1  0  0  0  0
 24 25  2  0  0  0  0
 24 46  1  0  0  0  0
 25 47  1  0  0  0  0
M  END
>  <Mol_ID>
6373

>  <Formula>
C20H22N4O

>  <MolWeight>
334.41488

>  <Cat>
E0942

>  <Name>
BVDV IN-1

>  <Target>
Antiviral

>  <Form>
free base

>  <CAS>
345651-04-9

>  <URL>
http://www.selleckchem.com/products/bvdv-in-1.html

$$$$
