BX471
 OpenBabel08302521313D

 54 56  0  0  0  0  0  0  0  0999 V2000
   -5.0625   -2.4273    4.8940 F   0  0  0  0  0  0  0  0  0  0  0  0
   -1.1945   -1.5207   -5.1342 O   0  0  0  0  0  0  0  0  0  0  0  0
    1.0705   -2.9968   -3.4720 O   0  0  0  0  0  0  0  0  0  0  0  0
    2.7667    0.1156   -0.9387 O   0  0  0  0  0  0  0  0  0  0  0  0
   -3.9756   -0.7636   -1.0706 N   0  0  0  0  0  0  0  0  0  0  0  0
   -1.8967   -1.7696   -2.9689 N   0  0  0  0  0  0  0  0  0  0  0  0
    3.2415   -1.0683   -2.7749 N   0  0  0  0  0  0  0  0  0  0  0  0
    1.0717   -0.8436   -1.9920 N   0  0  0  0  0  0  0  0  0  0  0  0
   -2.0511   -2.3733   -1.6136 C   0  0  1  0  0  0  0  0  0  0  0  0
   -3.5190   -2.1641   -1.1249 C   0  0  0  0  0  0  0  0  0  0  0  0
   -3.7425   -0.1226   -2.3738 C   0  0  0  0  0  0  0  0  0  0  0  0
   -2.3653   -0.3678   -3.0187 C   0  0  0  0  0  0  0  0  0  0  0  0
   -3.4187   -0.0022    0.0597 C   0  0  0  0  0  0  0  0  0  0  0  0
   -1.7147   -3.8473   -1.4128 C   0  0  0  0  0  0  0  0  0  0  0  0
   -1.1423   -2.1623   -4.0747 C   0  0  0  0  0  0  0  0  0  0  0  0
   -3.8581   -0.5663    1.4031 C   0  0  0  0  0  0  0  0  0  0  0  0
   -0.1905   -3.3578   -4.0470 C   0  0  0  0  0  0  0  0  0  0  0  0
   -2.9121   -0.9540    2.3658 C   0  0  0  0  0  0  0  0  0  0  0  0
   -5.2248   -0.7566    1.6796 C   0  0  0  0  0  0  0  0  0  0  0  0
   -3.3230   -1.5720    3.5503 C   0  0  0  0  0  0  0  0  0  0  0  0
   -5.6319   -1.3798    2.8605 C   0  0  0  0  0  0  0  0  0  0  0  0
   -4.6761   -1.7940    3.7784 C   0  0  0  0  0  0  0  0  0  0  0  0
    2.1398   -2.7795   -4.3099 C   0  0  0  0  0  0  0  0  0  0  0  0
    3.1702   -1.8921   -3.9228 C   0  0  0  0  0  0  0  0  0  0  0  0
    2.3126   -3.5358   -5.4861 C   0  0  0  0  0  0  0  0  0  0  0  0
    4.3195   -1.7918   -4.7389 C   0  0  0  0  0  0  0  0  0  0  0  0
    3.4458   -3.3931   -6.2922 C   0  0  0  0  0  0  0  0  0  0  0  0
    4.4522   -2.5200   -5.9185 C   0  0  0  0  0  0  0  0  0  0  0  0
    2.3748   -0.6006   -1.8597 C   0  0  0  0  0  0  0  0  0  0  0  0
    4.1442   -0.6464   -2.5983 H   0  0  0  0  0  0  0  0  0  0  0  0
    0.8480   -1.7485   -2.3745 H   0  0  0  0  0  0  0  0  0  0  0  0
    0.5046   -0.5255   -1.2222 H   0  0  0  0  0  0  0  0  0  0  0  0
   -1.3827   -1.8065   -0.9556 H   0  0  0  0  0  0  0  0  0  0  0  0
   -3.6687   -2.6482   -0.1535 H   0  0  0  0  0  0  0  0  0  0  0  0
   -4.1912   -2.6996   -1.8104 H   0  0  0  0  0  0  0  0  0  0  0  0
   -4.5069   -0.5058   -3.0620 H   0  0  0  0  0  0  0  0  0  0  0  0
   -3.9253    0.9578   -2.3112 H   0  0  0  0  0  0  0  0  0  0  0  0
   -1.6052    0.2276   -2.4987 H   0  0  0  0  0  0  0  0  0  0  0  0
   -2.4045    0.0082   -4.0466 H   0  0  0  0  0  0  0  0  0  0  0  0
   -3.7799    1.0343    0.0246 H   0  0  0  0  0  0  0  0  0  0  0  0
   -2.3247    0.0496    0.0074 H   0  0  0  0  0  0  0  0  0  0  0  0
   -0.6311   -3.9989   -1.3994 H   0  0  0  0  0  0  0  0  0  0  0  0
   -2.0713   -4.2008   -0.4376 H   0  0  0  0  0  0  0  0  0  0  0  0
   -2.1768   -4.4829   -2.1730 H   0  0  0  0  0  0  0  0  0  0  0  0
   -0.5938   -4.2015   -3.4982 H   0  0  0  0  0  0  0  0  0  0  0  0
   -0.1375   -3.7277   -5.0743 H   0  0  0  0  0  0  0  0  0  0  0  0
   -1.8500   -0.7985    2.1929 H   0  0  0  0  0  0  0  0  0  0  0  0
   -5.9733   -0.4524    0.9499 H   0  0  0  0  0  0  0  0  0  0  0  0
   -2.5968   -1.8962    4.2890 H   0  0  0  0  0  0  0  0  0  0  0  0
   -6.6835   -1.5596    3.0586 H   0  0  0  0  0  0  0  0  0  0  0  0
    1.5966   -4.2872   -5.8006 H   0  0  0  0  0  0  0  0  0  0  0  0
    5.1304   -1.1163   -4.4700 H   0  0  0  0  0  0  0  0  0  0  0  0
    3.5440   -3.9811   -7.2016 H   0  0  0  0  0  0  0  0  0  0  0  0
    5.3417   -2.4090   -6.5331 H   0  0  0  0  0  0  0  0  0  0  0  0
  1 22  1  0  0  0  0
  2 15  2  0  0  0  0
  3 17  1  0  0  0  0
  3 23  1  0  0  0  0
  4 29  2  0  0  0  0
  5 10  1  0  0  0  0
  5 11  1  0  0  0  0
  5 13  1  0  0  0  0
  6  9  1  0  0  0  0
  6 12  1  0  0  0  0
  6 15  1  0  0  0  0
  7 24  1  0  0  0  0
  7 29  1  0  0  0  0
  7 30  1  0  0  0  0
  8 29  1  0  0  0  0
  8 31  1  0  0  0  0
  8 32  1  0  0  0  0
  9 10  1  0  0  0  0
  9 33  1  1  0  0  0
  9 14  1  0  0  0  0
 10 34  1  0  0  0  0
 10 35  1  0  0  0  0
 11 12  1  0  0  0  0
 11 36  1  0  0  0  0
 11 37  1  0  0  0  0
 12 38  1  0  0  0  0
 12 39  1  0  0  0  0
 13 16  1  0  0  0  0
 13 40  1  0  0  0  0
 13 41  1  0  0  0  0
 14 42  1  0  0  0  0
 14 43  1  0  0  0  0
 14 44  1  0  0  0  0
 15 17  1  0  0  0  0
 16 18  2  0  0  0  0
 16 19  1  0  0  0  0
 17 45  1  0  0  0  0
 17 46  1  0  0  0  0
 18 20  1  0  0  0  0
 18 47  1  0  0  0  0
 19 21  2  0  0  0  0
 19 48  1  0  0  0  0
 20 22  2  0  0  0  0
 20 49  1  0  0  0  0
 21 22  1  0  0  0  0
 21 50  1  0  0  0  0
 23 24  2  0  0  0  0
 23 25  1  0  0  0  0
 24 26  1  0  0  0  0
 25 27  2  0  0  0  0
 25 51  1  0  0  0  0
 26 28  2  0  0  0  0
 26 52  1  0  0  0  0
 27 28  1  0  0  0  0
 27 53  1  0  0  0  0
 28 54  1  0  0  0  0
M  END
>  <Mol_ID>
6027

>  <Formula>
C21H24ClFN4O3

>  <MolWeight>
434.8916632

>  <Cat>
S7604

>  <Name>
BX471

>  <Synonyms>
ZK811752, BAY 865047, SH T 04268H

>  <Target>
CCR

>  <Form>
Free Base

>  <CAS>
217645-70-0

>  <URL>
http://www.selleckchem.com/products/bx471.html

$$$$
