Byakangelicin
 OpenBabel08302521463D

 42 44  0  0  1  0  0  0  0  0999 V2000
    2.2876    3.7512    1.8064 O   0  0  0  0  0  0  0  0  0  0  0  0
    1.4894    2.5542    1.7509 C   0  0  0  0  0  0  0  0  0  0  0  0
    0.0080    2.6828    2.2043 C   0  0  2  0  0  0  0  0  0  0  0  0
   -0.7369    1.3107    2.2370 C   0  0  0  0  0  0  0  0  0  0  0  0
   -0.7317    3.5211    1.2963 O   0  0  0  0  0  0  0  0  0  0  0  0
   -0.0713    0.2795    3.1482 C   0  0  0  0  0  0  0  0  0  0  0  0
   -2.2063    1.4892    2.6487 C   0  0  0  0  0  0  0  0  0  0  0  0
   -0.7426    0.8025    0.8900 O   0  0  0  0  0  0  0  0  0  0  0  0
    0.4643    8.4190   -0.6752 O   0  0  0  0  0  0  0  0  0  0  0  0
    0.4887    8.7046   -2.0683 C   0  0  0  0  0  0  0  0  0  0  0  0
    0.8067    2.4151   -2.8223 O   0  0  0  0  0  0  0  0  0  0  0  0
    1.3236    4.8145   -0.2153 C   0  0  0  0  0  0  0  0  0  0  0  0
    1.9358    4.8246    1.0447 C   0  0  0  0  0  0  0  0  0  0  0  0
    0.7588    5.9577   -0.8167 C   0  0  0  0  0  0  0  0  0  0  0  0
    1.3110    3.5795   -0.9198 O   0  0  0  0  0  0  0  0  0  0  0  0
    2.1987    6.1057    1.5322 C   0  0  0  0  0  0  0  0  0  0  0  0
    0.9991    7.2312   -0.2524 C   0  0  0  0  0  0  0  0  0  0  0  0
   -0.1654    5.7006   -1.9227 C   0  0  0  0  0  0  0  0  0  0  0  0
    0.6972    3.4275   -2.1462 C   0  0  0  0  0  0  0  0  0  0  0  0
    1.7889    7.2876    0.9217 C   0  0  0  0  0  0  0  0  0  0  0  0
    2.8901    6.3863    2.6777 O   0  0  0  0  0  0  0  0  0  0  0  0
   -0.1838    4.5254   -2.5468 C   0  0  0  0  0  0  0  0  0  0  0  0
    2.2953    8.3366    1.7444 C   0  0  0  0  0  0  0  0  0  0  0  0
    2.9587    7.7361    2.7872 C   0  0  0  0  0  0  0  0  0  0  0  0
    1.5896    2.0738    0.7752 H   0  0  0  0  0  0  0  0  0  0  0  0
    1.9908    1.8825    2.4563 H   0  0  0  0  0  0  0  0  0  0  0  0
   -0.0308    3.1703    3.1846 H   0  0  0  0  0  0  0  0  0  0  0  0
   -0.9151    2.9458    0.5258 H   0  0  0  0  0  0  0  0  0  0  0  0
    0.0509    0.6645    4.1644 H   0  0  0  0  0  0  0  0  0  0  0  0
   -0.6728   -0.6367    3.1997 H   0  0  0  0  0  0  0  0  0  0  0  0
    0.9038   -0.0321    2.7608 H   0  0  0  0  0  0  0  0  0  0  0  0
   -2.7538    2.1143    1.9334 H   0  0  0  0  0  0  0  0  0  0  0  0
   -2.7284    0.5247    2.6573 H   0  0  0  0  0  0  0  0  0  0  0  0
   -2.2926    1.9373    3.6431 H   0  0  0  0  0  0  0  0  0  0  0  0
   -1.0645   -0.1166    0.9132 H   0  0  0  0  0  0  0  0  0  0  0  0
    1.3353    8.2485   -2.5905 H   0  0  0  0  0  0  0  0  0  0  0  0
   -0.4607    8.4154   -2.5257 H   0  0  0  0  0  0  0  0  0  0  0  0
    0.5585    9.7908   -2.1854 H   0  0  0  0  0  0  0  0  0  0  0  0
   -0.8990    6.4517   -2.1840 H   0  0  0  0  0  0  0  0  0  0  0  0
   -0.8707    4.3108   -3.3594 H   0  0  0  0  0  0  0  0  0  0  0  0
    2.1855    9.3995    1.5847 H   0  0  0  0  0  0  0  0  0  0  0  0
    3.4992    8.1065    3.6472 H   0  0  0  0  0  0  0  0  0  0  0  0
  1  2  1  0  0  0  0
  1 13  1  0  0  0  0
  2 25  1  0  0  0  0
  2 26  1  0  0  0  0
  3  5  1  0  0  0  0
  3 27  1  1  0  0  0
  3  4  1  0  0  0  0
  3  2  1  0  0  0  0
  4  6  1  0  0  0  0
  4  7  1  0  0  0  0
  4  8  1  0  0  0  0
  5 28  1  0  0  0  0
  6 29  1  0  0  0  0
  6 30  1  0  0  0  0
  6 31  1  0  0  0  0
  7 32  1  0  0  0  0
  7 33  1  0  0  0  0
  7 34  1  0  0  0  0
  8 35  1  0  0  0  0
  9 10  1  0  0  0  0
  9 17  1  0  0  0  0
 10 36  1  0  0  0  0
 10 37  1  0  0  0  0
 10 38  1  0  0  0  0
 11 19  2  0  0  0  0
 12 13  2  0  0  0  0
 12 14  1  0  0  0  0
 12 15  1  0  0  0  0
 13 16  1  0  0  0  0
 14 17  2  0  0  0  0
 14 18  1  0  0  0  0
 15 19  1  0  0  0  0
 16 20  2  0  0  0  0
 16 21  1  0  0  0  0
 17 20  1  0  0  0  0
 18 22  2  0  0  0  0
 18 39  1  0  0  0  0
 19 22  1  0  0  0  0
 20 23  1  0  0  0  0
 21 24  1  0  0  0  0
 22 40  1  0  0  0  0
 23 24  2  0  0  0  0
 23 41  1  0  0  0  0
 24 42  1  0  0  0  0
M  END
>  <Mol_ID>
9689

>  <Formula>
C17H18O7

>  <MolWeight>
334.32062

>  <Cat>
E0695

>  <Name>
Byakangelicin

>  <Synonyms>
NA

>  <Target>
CYP3A4-DP-Luc promoter-reporter,  PXR

>  <Form>
Free Base

>  <CAS>
482-25-7

>  <URL>
https://www.selleckchem.com/products/byakangelicin.html

$$$$
