Byakangelicol
 OpenBabel08302521453D

 39 42  0  0  1  0  0  0  0  0999 V2000
    0.9996    0.0893    0.2776 O   0  0  0  0  0  0  0  0  0  0  0  0
    0.1973    1.1259   -0.2921 C   0  0  0  0  0  0  0  0  0  0  0  0
    6.5907   -0.0678   -0.1055 O   0  0  0  0  0  0  0  0  0  0  0  0
    7.5777    0.9375   -0.1313 C   0  0  0  0  0  0  0  0  0  0  0  0
    2.2996    4.8840    0.1316 O   0  0  0  0  0  0  0  0  0  0  0  0
   -0.1496   -1.1067   -2.4105 C   0  0  0  0  0  0  0  0  0  0  0  0
   -2.5753   -1.3495   -1.6316 C   0  0  0  0  0  0  0  0  0  0  0  0
    3.1265    1.3786    0.1251 C   0  0  0  0  0  0  0  0  0  0  0  0
    2.3547    0.2030    0.1574 C   0  0  0  0  0  0  0  0  0  0  0  0
    4.5446    1.4123    0.0367 C   0  0  0  0  0  0  0  0  0  0  0  0
    2.3958    2.5991    0.2141 O   0  0  0  0  0  0  0  0  0  0  0  0
    3.1076   -0.9672    0.1059 C   0  0  0  0  0  0  0  0  0  0  0  0
    5.2568    0.1826   -0.0198 C   0  0  0  0  0  0  0  0  0  0  0  0
    5.1444    2.7545    0.0160 C   0  0  0  0  0  0  0  0  0  0  0  0
    2.9601    3.8523    0.1286 C   0  0  0  0  0  0  0  0  0  0  0  0
    4.4916   -1.0140    0.0173 C   0  0  0  0  0  0  0  0  0  0  0  0
    2.5954   -2.2361    0.1279 O   0  0  0  0  0  0  0  0  0  0  0  0
    4.4162    3.8735    0.0498 C   0  0  0  0  0  0  0  0  0  0  0  0
    4.8229   -2.4047   -0.0148 C   0  0  0  0  0  0  0  0  0  0  0  0
    3.6402   -3.0965    0.0552 C   0  0  0  0  0  0  0  0  0  0  0  0
   -1.1393    0.5617   -0.6550 C   0  0  2  0  0  0  0  0  0  0  0  0
   -1.3320   -0.5201   -1.7046 C   0  0  0  0  0  0  0  0  0  0  0  0
   -1.5720    0.8656   -1.9919 O   0  0  0  0  0  0  0  0  0  0  0  0
    0.0455    1.9038    0.4634 H   0  0  0  0  0  0  0  0  0  0  0  0
    0.6657    1.5629   -1.1827 H   0  0  0  0  0  0  0  0  0  0  0  0
    7.4827    1.5600   -1.0268 H   0  0  0  0  0  0  0  0  0  0  0  0
    7.5763    1.5193    0.7951 H   0  0  0  0  0  0  0  0  0  0  0  0
    8.5543    0.4468   -0.1932 H   0  0  0  0  0  0  0  0  0  0  0  0
    0.5336   -0.3353   -2.7807 H   0  0  0  0  0  0  0  0  0  0  0  0
    0.4063   -1.7624   -1.7338 H   0  0  0  0  0  0  0  0  0  0  0  0
   -0.4620   -1.7041   -3.2731 H   0  0  0  0  0  0  0  0  0  0  0  0
   -2.6168   -1.8843   -0.6777 H   0  0  0  0  0  0  0  0  0  0  0  0
   -3.4750   -0.7294   -1.7127 H   0  0  0  0  0  0  0  0  0  0  0  0
   -2.6126   -2.0888   -2.4377 H   0  0  0  0  0  0  0  0  0  0  0  0
    6.2107    2.8900   -0.0241 H   0  0  0  0  0  0  0  0  0  0  0  0
    4.8733    4.8561    0.0289 H   0  0  0  0  0  0  0  0  0  0  0  0
    5.8136   -2.8315   -0.0807 H   0  0  0  0  0  0  0  0  0  0  0  0
    3.3823   -4.1477    0.0607 H   0  0  0  0  0  0  0  0  0  0  0  0
   -1.8601    0.6413    0.1485 H   0  0  0  0  0  0  0  0  0  0  0  0
  1  2  1  0  0  0  0
  1  9  1  0  0  0  0
  2 24  1  0  0  0  0
  2 25  1  0  0  0  0
  3  4  1  0  0  0  0
  3 13  1  0  0  0  0
  4 26  1  0  0  0  0
  4 27  1  0  0  0  0
  4 28  1  0  0  0  0
  5 15  2  0  0  0  0
  6 22  1  0  0  0  0
  6 29  1  0  0  0  0
  6 30  1  0  0  0  0
  6 31  1  0  0  0  0
  7 22  1  0  0  0  0
  7 32  1  0  0  0  0
  7 33  1  0  0  0  0
  7 34  1  0  0  0  0
  8  9  2  0  0  0  0
  8 10  1  0  0  0  0
  8 11  1  0  0  0  0
  9 12  1  0  0  0  0
 10 13  2  0  0  0  0
 10 14  1  0  0  0  0
 11 15  1  0  0  0  0
 12 16  2  0  0  0  0
 12 17  1  0  0  0  0
 13 16  1  0  0  0  0
 14 18  2  0  0  0  0
 14 35  1  0  0  0  0
 15 18  1  0  0  0  0
 16 19  1  0  0  0  0
 17 20  1  0  0  0  0
 18 36  1  0  0  0  0
 19 20  2  0  0  0  0
 19 37  1  0  0  0  0
 20 38  1  0  0  0  0
 21  2  1  0  0  0  0
 21 22  1  0  0  0  0
 21 23  1  0  0  0  0
 21 39  1  1  0  0  0
 22 23  1  0  0  0  0
M  END
>  <Mol_ID>
9592

>  <Formula>
C17H16O6

>  <MolWeight>
316.30534

>  <Cat>
E2052

>  <Name>
Byakangelicol

>  <Synonyms>
9-[[(2R)-3,3-dimethyloxiran-2-yl]methoxy]-4-methoxyfuro[3,2-g]chromen-7-one

>  <Target>
AChE, BChE, COX-2, PGE2

>  <Form>
Free base

>  <CAS>
26091-79-2

>  <URL>
https://www.selleckchem.com/products/byakangelicol.html

$$$$
