BYL-719.cdx
 OpenBabel08302521313D

 52 54  0  0  0  0  0  0  0  0999 V2000
   -2.1991    1.6211    1.7475 N   0  0  0  0  0  0  0  0  0  0  0  0
   -2.4306    2.8330    0.9514 C   0  0  1  0  0  0  0  0  0  0  0  0
   -1.4148    3.8362    1.5284 C   0  0  0  0  0  0  0  0  0  0  0  0
   -1.2247    3.4248    2.9731 C   0  0  0  0  0  0  0  0  0  0  0  0
   -1.4656    1.9304    2.9682 C   0  0  0  0  0  0  0  0  0  0  0  0
   -2.8347    0.3924    1.7061 C   0  0  0  0  0  0  0  0  0  0  0  0
   -2.8171   -0.3048    2.7234 O   0  0  0  0  0  0  0  0  0  0  0  0
   -3.4263    0.0211    0.5261 N   0  0  0  0  0  0  0  0  0  0  0  0
   -2.1879    2.7389   -0.5628 C   0  0  0  0  0  0  0  0  0  0  0  0
   -2.0137    1.6860   -1.1674 O   0  0  0  0  0  0  0  0  0  0  0  0
   -2.2596    3.9191   -1.2501 N   0  0  0  0  0  0  0  0  0  0  0  0
   -3.2498   -2.5869    1.1857 S   0  0  0  0  0  0  0  0  0  0  0  0
   -3.7690   -1.2890    0.2057 C   0  0  0  0  0  0  0  0  0  0  0  0
   -4.3921   -1.6516   -0.8982 N   0  0  0  0  0  0  0  0  0  0  0  0
   -4.3321   -3.0433   -1.0368 C   0  0  0  0  0  0  0  0  0  0  0  0
   -3.4947   -3.6594   -0.1114 C   0  0  0  0  0  0  0  0  0  0  0  0
   -1.4236   -6.5235   -1.3469 C   0  0  0  0  0  0  0  0  0  0  0  0
   -2.1428   -5.3299   -1.3026 C   0  0  0  0  0  0  0  0  0  0  0  0
   -2.8139   -4.9514   -0.1328 C   0  0  0  0  0  0  0  0  0  0  0  0
   -2.7053   -5.7692    0.9880 C   0  0  0  0  0  0  0  0  0  0  0  0
   -1.9509   -6.9225    0.8813 C   0  0  0  0  0  0  0  0  0  0  0  0
   -1.3234   -7.3139   -0.2517 N   0  0  0  0  0  0  0  0  0  0  0  0
   -0.7254   -6.9713   -2.6338 C   0  0  0  0  0  0  0  0  0  0  0  0
   -1.7600   -7.1730   -3.7674 C   0  0  0  0  0  0  0  0  0  0  0  0
    0.3256   -5.9139   -3.0474 C   0  0  0  0  0  0  0  0  0  0  0  0
    0.0467   -8.2928   -2.4147 C   0  0  0  0  0  0  0  0  0  0  0  0
   -3.0369   -6.9343   -3.3854 F   0  0  0  0  0  0  0  0  0  0  0  0
   -1.5211   -6.3389   -4.8116 F   0  0  0  0  0  0  0  0  0  0  0  0
   -1.7404   -8.4301   -4.2705 F   0  0  0  0  0  0  0  0  0  0  0  0
   -5.0631   -3.7016   -2.1558 C   0  0  0  0  0  0  0  0  0  0  0  0
   -3.4633    3.1556    1.1313 H   0  0  0  0  0  0  0  0  0  0  0  0
   -0.4523    3.7598    1.0052 H   0  0  0  0  0  0  0  0  0  0  0  0
   -1.7519    4.8743    1.4428 H   0  0  0  0  0  0  0  0  0  0  0  0
   -0.2274    3.6737    3.3505 H   0  0  0  0  0  0  0  0  0  0  0  0
   -1.9583    3.9280    3.6121 H   0  0  0  0  0  0  0  0  0  0  0  0
   -0.5295    1.3620    2.9500 H   0  0  0  0  0  0  0  0  0  0  0  0
   -2.0333    1.6345    3.8577 H   0  0  0  0  0  0  0  0  0  0  0  0
   -3.3521    0.6151   -0.2928 H   0  0  0  0  0  0  0  0  0  0  0  0
   -2.4394    4.8165   -0.8214 H   0  0  0  0  0  0  0  0  0  0  0  0
   -2.0884    3.8921   -2.2474 H   0  0  0  0  0  0  0  0  0  0  0  0
   -2.1810   -4.6819   -2.1745 H   0  0  0  0  0  0  0  0  0  0  0  0
   -3.1712   -5.5125    1.9337 H   0  0  0  0  0  0  0  0  0  0  0  0
   -1.8201   -7.5828    1.7342 H   0  0  0  0  0  0  0  0  0  0  0  0
    1.0572   -5.7423   -2.2490 H   0  0  0  0  0  0  0  0  0  0  0  0
    0.8765   -6.2367   -3.9391 H   0  0  0  0  0  0  0  0  0  0  0  0
   -0.1306   -4.9459   -3.2839 H   0  0  0  0  0  0  0  0  0  0  0  0
    0.8147   -8.1873   -1.6389 H   0  0  0  0  0  0  0  0  0  0  0  0
   -0.6245   -9.1044   -2.1105 H   0  0  0  0  0  0  0  0  0  0  0  0
    0.5539   -8.6089   -3.3340 H   0  0  0  0  0  0  0  0  0  0  0  0
   -6.1285   -3.7631   -1.9086 H   0  0  0  0  0  0  0  0  0  0  0  0
   -4.9522   -3.1480   -3.0917 H   0  0  0  0  0  0  0  0  0  0  0  0
   -4.7184   -4.7267   -2.3265 H   0  0  0  0  0  0  0  0  0  0  0  0
  1  2  1  0  0  0  0
  1  5  1  0  0  0  0
  1  6  1  0  0  0  0
  2  3  1  0  0  0  0
  2 31  1  1  0  0  0
  2  9  1  0  0  0  0
  3  4  1  0  0  0  0
  3 32  1  0  0  0  0
  3 33  1  0  0  0  0
  4  5  1  0  0  0  0
  4 34  1  0  0  0  0
  4 35  1  0  0  0  0
  5 36  1  0  0  0  0
  5 37  1  0  0  0  0
  6  7  2  0  0  0  0
  6  8  1  0  0  0  0
  8 13  1  0  0  0  0
  8 38  1  0  0  0  0
  9 10  2  0  0  0  0
  9 11  1  0  0  0  0
 11 39  1  0  0  0  0
 11 40  1  0  0  0  0
 12 13  1  0  0  0  0
 12 16  1  0  0  0  0
 13 14  2  0  0  0  0
 14 15  1  0  0  0  0
 15 16  2  0  0  0  0
 15 30  1  0  0  0  0
 16 19  1  0  0  0  0
 17 18  2  0  0  0  0
 17 22  1  0  0  0  0
 17 23  1  0  0  0  0
 18 19  1  0  0  0  0
 18 41  1  0  0  0  0
 19 20  2  0  0  0  0
 20 21  1  0  0  0  0
 20 42  1  0  0  0  0
 21 22  2  0  0  0  0
 21 43  1  0  0  0  0
 23 24  1  0  0  0  0
 23 25  1  0  0  0  0
 23 26  1  0  0  0  0
 24 27  1  0  0  0  0
 24 28  1  0  0  0  0
 24 29  1  0  0  0  0
 25 44  1  0  0  0  0
 25 45  1  0  0  0  0
 25 46  1  0  0  0  0
 26 47  1  0  0  0  0
 26 48  1  0  0  0  0
 26 49  1  0  0  0  0
 30 50  1  0  0  0  0
 30 51  1  0  0  0  0
 30 52  1  0  0  0  0
M  END
>  <Mol_ID>
586

>  <Formula>
C19H22F3N5O2S

>  <MolWeight>
441.4704896

>  <Cat>
S2814

>  <Name>
Alpelisib (BYL719)

>  <Synonyms>
N/A

>  <Target>
PI3K

>  <Form>
free base

>  <CAS>
1217486-61-7

>  <URL>
http://selleckchem.com/products/byl719.html

$$$$
