C-176
 OpenBabel08302520403D

 25 26  0  0  0  0  0  0  0  0999 V2000
   -2.2663    4.0852    0.1668 O   0  0  0  0  0  0  0  0  0  0  0  0
   -1.9177    2.7652    0.0191 C   0  0  0  0  0  0  0  0  0  0  0  0
   -3.0595    1.9779    0.0029 C   0  0  0  0  0  0  0  0  0  0  0  0
   -4.1687    2.8460    0.1139 C   0  0  0  0  0  0  0  0  0  0  0  0
   -3.6310    4.1061    0.2172 C   0  0  0  0  0  0  0  0  0  0  0  0
   -0.5303    2.3579   -0.1084 C   0  0  0  0  0  0  0  0  0  0  0  0
   -0.2485    1.1713   -0.2488 O   0  0  0  0  0  0  0  0  0  0  0  0
    0.3990    3.3856   -0.0267 N   0  0  0  0  0  0  0  0  0  0  0  0
   -4.2553    5.3849    0.3556 N   0  3  0  0  0  0  0  0  0  0  0  0
   -5.4929    5.3938    0.3622 O   0  0  0  0  0  0  0  0  0  0  0  0
   -3.5201    6.3762    0.4582 O   0  5  0  0  0  0  0  0  0  0  0  0
    1.8013    3.2282   -0.1213 C   0  0  0  0  0  0  0  0  0  0  0  0
    2.4041    2.0868   -0.6620 C   0  0  0  0  0  0  0  0  0  0  0  0
    3.7917    1.9221   -0.6333 C   0  0  0  0  0  0  0  0  0  0  0  0
    4.5910    2.9109   -0.0711 C   0  0  0  0  0  0  0  0  0  0  0  0
    4.0139    4.0856    0.4092 C   0  0  0  0  0  0  0  0  0  0  0  0
    2.6219    4.2503    0.3689 C   0  0  0  0  0  0  0  0  0  0  0  0
    6.6408    2.6118    0.0796 I   0  0  0  0  0  0  0  0  0  0  0  0
   -3.0646    0.8990   -0.0951 H   0  0  0  0  0  0  0  0  0  0  0  0
   -5.2193    2.5853    0.1172 H   0  0  0  0  0  0  0  0  0  0  0  0
    0.0427    4.2927    0.2537 H   0  0  0  0  0  0  0  0  0  0  0  0
    1.8182    1.2956   -1.1205 H   0  0  0  0  0  0  0  0  0  0  0  0
    4.2207    1.0085   -1.0374 H   0  0  0  0  0  0  0  0  0  0  0  0
    4.6318    4.8704    0.8386 H   0  0  0  0  0  0  0  0  0  0  0  0
    2.1963    5.1659    0.7710 H   0  0  0  0  0  0  0  0  0  0  0  0
  1  2  1  0  0  0  0
  1  5  1  0  0  0  0
  2  3  2  0  0  0  0
  2  6  1  0  0  0  0
  3  4  1  0  0  0  0
  3 19  1  0  0  0  0
  4  5  2  0  0  0  0
  4 20  1  0  0  0  0
  5  9  1  0  0  0  0
  6  7  2  0  0  0  0
  6  8  1  0  0  0  0
  8 12  1  0  0  0  0
  8 21  1  0  0  0  0
  9 10  2  0  0  0  0
  9 11  1  0  0  0  0
 12 13  2  0  0  0  0
 12 17  1  0  0  0  0
 13 14  1  0  0  0  0
 13 22  1  0  0  0  0
 14 15  2  0  0  0  0
 14 23  1  0  0  0  0
 15 16  1  0  0  0  0
 15 18  1  0  0  0  0
 16 17  2  0  0  0  0
 16 24  1  0  0  0  0
 17 25  1  0  0  0  0
M  CHG  2   9   1  11  -1
M  END
>  <Mol_ID>
3844

>  <Formula>
C11H7IN2O4

>  <MolWeight>
358.08875

>  <Cat>
S6575

>  <Name>
C-176

>  <Synonyms>
N/A

>  <Target>
STING

>  <Form>
free base

>  <CAS>
314054-00-7

>  <URL>
http://www.selleck.cn/products/c-176-sting-inhibitor.html

$$$$
