C-171
 OpenBabel08302521313D

 43 44  0  0  0  0  0  0  0  0999 V2000
   -2.3547    4.0538    0.2659 O   0  0  0  0  0  0  0  0  0  0  0  0
   -0.4386    1.5193   -1.3531 O   0  0  0  0  0  0  0  0  0  0  0  0
   -5.5302    5.3387    0.9145 O   0  5  0  0  0  0  0  0  0  0  0  0
   -3.5235    6.0536    1.4954 O   0  0  0  0  0  0  0  0  0  0  0  0
    0.2833    3.3368   -0.1008 N   0  0  0  0  0  0  0  0  0  0  0  0
   -4.2930    5.2586    0.9425 N   0  3  0  0  0  0  0  0  0  0  0  0
    6.6128    4.3107   -1.7689 C   0  0  0  0  0  0  0  0  0  0  0  0
    6.6729    2.8009   -1.5247 C   0  0  0  0  0  0  0  0  0  0  0  0
    7.3392    4.6923   -3.0585 C   0  0  0  0  0  0  0  0  0  0  0  0
    5.9452    2.3781   -0.2428 C   0  0  0  0  0  0  0  0  0  0  0  0
    7.2541    6.1964   -3.3137 C   0  0  0  0  0  0  0  0  0  0  0  0
    4.4672    2.6844   -0.2462 C   0  0  0  0  0  0  0  0  0  0  0  0
    3.6357    2.1128   -1.2110 C   0  0  0  0  0  0  0  0  0  0  0  0
    3.8973    3.5326    0.7122 C   0  0  0  0  0  0  0  0  0  0  0  0
    7.9733    6.5833   -4.5953 C   0  0  0  0  0  0  0  0  0  0  0  0
    1.6809    3.1507   -0.2083 C   0  0  0  0  0  0  0  0  0  0  0  0
    2.2619    2.3531   -1.1969 C   0  0  0  0  0  0  0  0  0  0  0  0
    2.5157    3.7767    0.7226 C   0  0  0  0  0  0  0  0  0  0  0  0
   -0.6772    2.5233   -0.6861 C   0  0  0  0  0  0  0  0  0  0  0  0
   -2.0507    2.9183   -0.4430 C   0  0  0  0  0  0  0  0  0  0  0  0
   -3.2201    2.2956   -0.8554 C   0  0  0  0  0  0  0  0  0  0  0  0
   -3.7174    4.1392    0.2653 C   0  0  0  0  0  0  0  0  0  0  0  0
   -4.2981    3.0925   -0.4105 C   0  0  0  0  0  0  0  0  0  0  0  0
   -0.0510    4.0358    0.5508 H   0  0  0  0  0  0  0  0  0  0  0  0
    5.5698    4.6404   -1.8397 H   0  0  0  0  0  0  0  0  0  0  0  0
    7.0623    4.8373   -0.9186 H   0  0  0  0  0  0  0  0  0  0  0  0
    7.7218    2.4888   -1.4463 H   0  0  0  0  0  0  0  0  0  0  0  0
    6.2568    2.2715   -2.3905 H   0  0  0  0  0  0  0  0  0  0  0  0
    8.3899    4.3851   -2.9951 H   0  0  0  0  0  0  0  0  0  0  0  0
    6.8941    4.1523   -3.9033 H   0  0  0  0  0  0  0  0  0  0  0  0
    6.4292    2.8462    0.6229 H   0  0  0  0  0  0  0  0  0  0  0  0
    6.0641    1.2948   -0.1069 H   0  0  0  0  0  0  0  0  0  0  0  0
    6.2037    6.5027   -3.3844 H   0  0  0  0  0  0  0  0  0  0  0  0
    7.6953    6.7432   -2.4723 H   0  0  0  0  0  0  0  0  0  0  0  0
    4.0437    1.4644   -1.9830 H   0  0  0  0  0  0  0  0  0  0  0  0
    4.5236    4.0008    1.4689 H   0  0  0  0  0  0  0  0  0  0  0  0
    7.5460    6.0619   -5.4578 H   0  0  0  0  0  0  0  0  0  0  0  0
    7.8833    7.6599   -4.7699 H   0  0  0  0  0  0  0  0  0  0  0  0
    9.0379    6.3357   -4.5362 H   0  0  0  0  0  0  0  0  0  0  0  0
    1.6714    1.9002   -1.9867 H   0  0  0  0  0  0  0  0  0  0  0  0
    2.1078    4.4264    1.4921 H   0  0  0  0  0  0  0  0  0  0  0  0
   -3.2613    1.3763   -1.4265 H   0  0  0  0  0  0  0  0  0  0  0  0
   -5.3559    2.9258   -0.5631 H   0  0  0  0  0  0  0  0  0  0  0  0
  1 20  1  0  0  0  0
  1 22  1  0  0  0  0
  2 19  2  0  0  0  0
  3  6  1  0  0  0  0
  4  6  2  0  0  0  0
  5 16  1  0  0  0  0
  5 19  1  0  0  0  0
  5 24  1  0  0  0  0
  6 22  1  0  0  0  0
  7  8  1  0  0  0  0
  7  9  1  0  0  0  0
  7 25  1  0  0  0  0
  7 26  1  0  0  0  0
  8 10  1  0  0  0  0
  8 27  1  0  0  0  0
  8 28  1  0  0  0  0
  9 11  1  0  0  0  0
  9 29  1  0  0  0  0
  9 30  1  0  0  0  0
 10 12  1  0  0  0  0
 10 31  1  0  0  0  0
 10 32  1  0  0  0  0
 11 15  1  0  0  0  0
 11 33  1  0  0  0  0
 11 34  1  0  0  0  0
 12 13  2  0  0  0  0
 12 14  1  0  0  0  0
 13 17  1  0  0  0  0
 13 35  1  0  0  0  0
 14 18  2  0  0  0  0
 14 36  1  0  0  0  0
 15 37  1  0  0  0  0
 15 38  1  0  0  0  0
 15 39  1  0  0  0  0
 16 17  2  0  0  0  0
 16 18  1  0  0  0  0
 17 40  1  0  0  0  0
 18 41  1  0  0  0  0
 19 20  1  0  0  0  0
 20 21  2  0  0  0  0
 21 23  1  0  0  0  0
 21 42  1  0  0  0  0
 22 23  2  0  0  0  0
 23 43  1  0  0  0  0
M  CHG  2   3  -1   6   1
M  END
>  <Mol_ID>
6074

>  <Formula>
C17H20N2O4

>  <MolWeight>
316.3517

>  <Cat>
E0128

>  <Name>
C-171

>  <Synonyms>
N/A

>  <Target>
STING

>  <Form>
Free Base

>  <CAS>
2244881-69-2

>  <URL>
http://www.selleckchem.com/products/c-171.html

$$$$
