C1632
 OpenBabel08302521353D

 36 38  0  0  0  0  0  0  0  0999 V2000
    0.9569    0.0250    0.1096 N   0  0  0  0  0  0  0  0  0  0  0  0
    0.2349   -0.6288    1.1033 C   0  0  0  0  0  0  0  0  0  0  0  0
    0.2331    0.5545   -1.0470 C   0  0  0  0  0  0  0  0  0  0  0  0
    0.9552   -1.1231    2.3375 C   0  0  0  0  0  0  0  0  0  0  0  0
   -0.9909   -0.7619    1.0485 O   0  0  0  0  0  0  0  0  0  0  0  0
    8.6973    3.8533   -2.3651 C   0  0  0  0  0  0  0  0  0  0  0  0
    5.1247    2.6942   -0.1970 C   0  0  0  0  0  0  0  0  0  0  0  0
    6.1984    2.8624   -0.9215 N   0  0  0  0  0  0  0  0  0  0  0  0
    4.5510    3.7228    0.7294 C   0  0  0  0  0  0  0  0  0  0  0  0
    6.7590    4.1094   -0.7776 N   0  0  0  0  0  0  0  0  0  0  0  0
    5.1646    4.9093    0.8049 C   0  0  0  0  0  0  0  0  0  0  0  0
    6.3145    5.1368    0.0280 C   0  0  0  0  0  0  0  0  0  0  0  0
    7.8830    4.6107   -1.3950 C   0  0  0  0  0  0  0  0  0  0  0  0
    7.1079    6.1768   -0.0880 N   0  0  0  0  0  0  0  0  0  0  0  0
    8.0964    5.8462   -0.9846 N   0  0  0  0  0  0  0  0  0  0  0  0
    4.4084    1.3833   -0.2193 C   0  0  0  0  0  0  0  0  0  0  0  0
    3.0138    1.3079   -0.0865 C   0  0  0  0  0  0  0  0  0  0  0  0
    5.1516    0.2046   -0.3324 C   0  0  0  0  0  0  0  0  0  0  0  0
    2.3727    0.0675    0.0157 C   0  0  0  0  0  0  0  0  0  0  0  0
    4.5147   -1.0356   -0.2327 C   0  0  0  0  0  0  0  0  0  0  0  0
    3.1313   -1.1057   -0.0406 C   0  0  0  0  0  0  0  0  0  0  0  0
    0.4518    1.6178   -1.1752 H   0  0  0  0  0  0  0  0  0  0  0  0
    0.5467    0.0039   -1.9413 H   0  0  0  0  0  0  0  0  0  0  0  0
   -0.8495    0.4401   -0.9430 H   0  0  0  0  0  0  0  0  0  0  0  0
    0.5204   -0.6274    3.2117 H   0  0  0  0  0  0  0  0  0  0  0  0
    0.7973   -2.2021    2.4229 H   0  0  0  0  0  0  0  0  0  0  0  0
    2.0239   -0.9200    2.3524 H   0  0  0  0  0  0  0  0  0  0  0  0
    9.1114    2.9498   -1.9083 H   0  0  0  0  0  0  0  0  0  0  0  0
    8.1021    3.5698   -3.2376 H   0  0  0  0  0  0  0  0  0  0  0  0
    9.5354    4.4666   -2.7158 H   0  0  0  0  0  0  0  0  0  0  0  0
    3.6909    3.5010    1.3443 H   0  0  0  0  0  0  0  0  0  0  0  0
    4.8121    5.6950    1.4631 H   0  0  0  0  0  0  0  0  0  0  0  0
    2.4156    2.2130   -0.0323 H   0  0  0  0  0  0  0  0  0  0  0  0
    6.2294    0.2446   -0.4768 H   0  0  0  0  0  0  0  0  0  0  0  0
    5.0999   -1.9494   -0.3063 H   0  0  0  0  0  0  0  0  0  0  0  0
    2.6530   -2.0804    0.0177 H   0  0  0  0  0  0  0  0  0  0  0  0
  1  2  1  0  0  0  0
  1  3  1  0  0  0  0
  1 19  1  0  0  0  0
  2  4  1  0  0  0  0
  2  5  2  0  0  0  0
  3 22  1  0  0  0  0
  3 23  1  0  0  0  0
  3 24  1  0  0  0  0
  4 25  1  0  0  0  0
  4 26  1  0  0  0  0
  4 27  1  0  0  0  0
  6 13  1  0  0  0  0
  6 28  1  0  0  0  0
  6 29  1  0  0  0  0
  6 30  1  0  0  0  0
  7  8  2  0  0  0  0
  7  9  1  0  0  0  0
  7 16  1  0  0  0  0
  8 10  1  0  0  0  0
  9 11  2  0  0  0  0
  9 31  1  0  0  0  0
 10 12  1  0  0  0  0
 10 13  1  0  0  0  0
 11 12  1  0  0  0  0
 11 32  1  0  0  0  0
 12 14  2  0  0  0  0
 13 15  2  0  0  0  0
 14 15  1  0  0  0  0
 16 17  2  0  0  0  0
 16 18  1  0  0  0  0
 17 19  1  0  0  0  0
 17 33  1  0  0  0  0
 18 20  2  0  0  0  0
 18 34  1  0  0  0  0
 19 21  2  0  0  0  0
 20 21  1  0  0  0  0
 20 35  1  0  0  0  0
 21 36  1  0  0  0  0
M  END
>  <Mol_ID>
6966

>  <Formula>
C15H15N5O

>  <MolWeight>
281.3125

>  <Cat>
E1684

>  <Name>
C1632

>  <Synonyms>
Lin28-let-7 antagonist 1

>  <Target>
Others

>  <Form>
free base

>  <CAS>
108825-65-6

>  <URL>
https://www.selleckchem.com/products/c1632.html

$$$$
