C7280948
 OpenBabel08302521233D

 35 36  0  0  0  0  0  0  0  0999 V2000
   -4.4525   -0.8701    1.5721 C   0  0  0  0  0  0  0  0  0  0  0  0
   -3.6152    0.0173    0.2848 S   0  0  0  0  0  0  0  0  0  0  0  0
   -3.8837   -2.0261    2.1020 C   0  0  0  0  0  0  0  0  0  0  0  0
   -5.6852   -0.4019    2.0386 C   0  0  0  0  0  0  0  0  0  0  0  0
   -4.1805   -0.7422   -1.1320 N   0  0  0  0  0  0  0  0  0  0  0  0
   -4.1131    1.3714    0.2632 O   0  0  0  0  0  0  0  0  0  0  0  0
   -2.1983   -0.2643    0.3713 O   0  0  0  0  0  0  0  0  0  0  0  0
   -4.5536   -2.7086    3.1195 C   0  0  0  0  0  0  0  0  0  0  0  0
   -6.3490   -1.1023    3.0459 C   0  0  0  0  0  0  0  0  0  0  0  0
   -5.6566   -0.8295   -1.2865 C   0  0  0  0  0  0  0  0  0  0  0  0
   -5.7592   -2.2227    3.6391 C   0  0  0  0  0  0  0  0  0  0  0  0
   -6.0152   -1.4956   -2.6148 C   0  0  0  0  0  0  0  0  0  0  0  0
   -6.4712   -2.9732    4.5814 N   0  0  0  0  0  0  0  0  0  0  0  0
   -7.5065   -1.6385   -2.8321 C   0  0  0  0  0  0  0  0  0  0  0  0
   -8.2211   -0.6233   -3.4768 C   0  0  0  0  0  0  0  0  0  0  0  0
   -8.1998   -2.7888   -2.4192 C   0  0  0  0  0  0  0  0  0  0  0  0
   -9.5891   -0.7620   -3.7345 C   0  0  0  0  0  0  0  0  0  0  0  0
   -9.5676   -2.9305   -2.6877 C   0  0  0  0  0  0  0  0  0  0  0  0
  -10.2633   -1.9193   -3.3459 C   0  0  0  0  0  0  0  0  0  0  0  0
   -2.9388   -2.4058    1.7215 H   0  0  0  0  0  0  0  0  0  0  0  0
   -6.1488    0.4802    1.6022 H   0  0  0  0  0  0  0  0  0  0  0  0
   -3.7223   -0.2726   -1.9187 H   0  0  0  0  0  0  0  0  0  0  0  0
   -4.1205   -3.6254    3.5122 H   0  0  0  0  0  0  0  0  0  0  0  0
   -7.3286   -0.7610    3.3707 H   0  0  0  0  0  0  0  0  0  0  0  0
   -6.0587   -1.4489   -0.4800 H   0  0  0  0  0  0  0  0  0  0  0  0
   -6.0974    0.1711   -1.2244 H   0  0  0  0  0  0  0  0  0  0  0  0
   -5.5890   -0.9149   -3.4443 H   0  0  0  0  0  0  0  0  0  0  0  0
   -5.5418   -2.4841   -2.6780 H   0  0  0  0  0  0  0  0  0  0  0  0
   -7.1302   -2.4218    5.1234 H   0  0  0  0  0  0  0  0  0  0  0  0
   -5.8760   -3.5416    5.1768 H   0  0  0  0  0  0  0  0  0  0  0  0
   -7.7143    0.2832   -3.8043 H   0  0  0  0  0  0  0  0  0  0  0  0
   -7.6811   -3.5949   -1.9019 H   0  0  0  0  0  0  0  0  0  0  0  0
  -10.1255    0.0295   -4.2492 H   0  0  0  0  0  0  0  0  0  0  0  0
  -10.0910   -3.8362   -2.3885 H   0  0  0  0  0  0  0  0  0  0  0  0
  -11.3195   -2.0332   -3.5673 H   0  0  0  0  0  0  0  0  0  0  0  0
  1  2  1  0  0  0  0
  1  3  2  0  0  0  0
  1  4  1  0  0  0  0
  2  5  1  0  0  0  0
  2  6  2  0  0  0  0
  2  7  2  0  0  0  0
  3  8  1  0  0  0  0
  3 20  1  0  0  0  0
  4  9  2  0  0  0  0
  4 21  1  0  0  0  0
  5 10  1  0  0  0  0
  5 22  1  0  0  0  0
  8 11  2  0  0  0  0
  8 23  1  0  0  0  0
  9 11  1  0  0  0  0
  9 24  1  0  0  0  0
 10 12  1  0  0  0  0
 10 25  1  0  0  0  0
 10 26  1  0  0  0  0
 11 13  1  0  0  0  0
 12 14  1  0  0  0  0
 12 27  1  0  0  0  0
 12 28  1  0  0  0  0
 13 29  1  0  0  0  0
 13 30  1  0  0  0  0
 14 15  2  0  0  0  0
 14 16  1  0  0  0  0
 15 17  1  0  0  0  0
 15 31  1  0  0  0  0
 16 18  2  0  0  0  0
 16 32  1  0  0  0  0
 17 19  2  0  0  0  0
 17 33  1  0  0  0  0
 18 19  1  0  0  0  0
 18 34  1  0  0  0  0
 19 35  1  0  0  0  0
M  END
>  <Mol_ID>
4783

>  <Formula>
C14H16N2O2S

>  <MolWeight>
276.35404

>  <Cat>
S6737

>  <Name>
C7280948

>  <Synonyms>
N/A

>  <Target>
PRMT

>  <Form>
Free Base

>  <CAS>
587850-67-7

>  <URL>
http://www.selleck.cn/products/c7280948.html

$$$$
