C75
 OpenBabel08302521323D

 40 40  0  0  0  0  0  0  0  0999 V2000
    1.8700    0.0900   -3.8695 O   0  0  0  0  0  0  0  0  0  0  0  0
    0.5637    1.8830   -0.0524 O   0  0  0  0  0  0  0  0  0  0  0  0
    2.5601    1.4096   -5.6068 O   0  0  0  0  0  0  0  0  0  0  0  0
    1.8247    3.4663   -0.9897 O   0  0  0  0  0  0  0  0  0  0  0  0
    1.3583    0.2862   -2.5377 C   0  0  3  0  0  0  0  0  0  0  0  0
    2.4036   -0.2049   -1.5222 C   0  0  0  0  0  0  0  0  0  0  0  0
    3.7360    0.5455   -1.5851 C   0  0  0  0  0  0  0  0  0  0  0  0
    0.8816    1.7358   -2.4461 C   0  0  3  0  0  0  0  0  0  0  0  0
    4.7212    0.0540   -0.5261 C   0  0  0  0  0  0  0  0  0  0  0  0
    6.0273    0.8494   -0.5997 C   0  0  0  0  0  0  0  0  0  0  0  0
    7.0397    0.3669    0.4397 C   0  0  0  0  0  0  0  0  0  0  0  0
    1.5620    2.3477   -3.6272 C   0  0  0  0  0  0  0  0  0  0  0  0
    8.3467    1.1594    0.3581 C   0  0  0  0  0  0  0  0  0  0  0  0
    2.0712    1.2742   -4.5049 C   0  0  0  0  0  0  0  0  0  0  0  0
    1.1635    2.4529   -1.1229 C   0  0  0  0  0  0  0  0  0  0  0  0
    9.3597    0.6854    1.4015 C   0  0  0  0  0  0  0  0  0  0  0  0
    1.7541    3.6373   -3.9265 C   0  0  0  0  0  0  0  0  0  0  0  0
   10.6579    1.4741    1.3167 C   0  0  0  0  0  0  0  0  0  0  0  0
    0.0458    1.0750   -0.2118 H   0  0  0  0  0  0  0  0  0  0  0  0
    0.4868   -0.3766   -2.4566 H   0  0  0  0  0  0  0  0  0  0  0  0
    1.9884   -0.1567   -0.5094 H   0  0  0  0  0  0  0  0  0  0  0  0
    2.6016   -1.2671   -1.7163 H   0  0  0  0  0  0  0  0  0  0  0  0
    4.1790    0.4264   -2.5798 H   0  0  0  0  0  0  0  0  0  0  0  0
    3.5808    1.6164   -1.4344 H   0  0  0  0  0  0  0  0  0  0  0  0
   -0.2020    1.7763   -2.6226 H   0  0  0  0  0  0  0  0  0  0  0  0
    4.2778    0.1656    0.4711 H   0  0  0  0  0  0  0  0  0  0  0  0
    4.9227   -1.0128   -0.6772 H   0  0  0  0  0  0  0  0  0  0  0  0
    6.4561    0.7546   -1.6049 H   0  0  0  0  0  0  0  0  0  0  0  0
    5.8163    1.9145   -0.4403 H   0  0  0  0  0  0  0  0  0  0  0  0
    6.6092    0.4688    1.4432 H   0  0  0  0  0  0  0  0  0  0  0  0
    7.2455   -0.6984    0.2811 H   0  0  0  0  0  0  0  0  0  0  0  0
    8.7778    1.0537   -0.6449 H   0  0  0  0  0  0  0  0  0  0  0  0
    8.1393    2.2258    0.5094 H   0  0  0  0  0  0  0  0  0  0  0  0
    8.9381    0.7968    2.4072 H   0  0  0  0  0  0  0  0  0  0  0  0
    9.5762   -0.3795    1.2566 H   0  0  0  0  0  0  0  0  0  0  0  0
    2.3067    3.9417   -4.8130 H   0  0  0  0  0  0  0  0  0  0  0  0
    1.4032    4.4319   -3.2729 H   0  0  0  0  0  0  0  0  0  0  0  0
   10.4787    2.5432    1.4693 H   0  0  0  0  0  0  0  0  0  0  0  0
   11.3600    1.1351    2.0852 H   0  0  0  0  0  0  0  0  0  0  0  0
   11.1347    1.3417    0.3401 H   0  0  0  0  0  0  0  0  0  0  0  0
  1  5  1  0  0  0  0
  1 14  1  0  0  0  0
  2 15  1  0  0  0  0
  2 19  1  0  0  0  0
  3 14  2  0  0  0  0
  4 15  2  0  0  0  0
  5  6  1  0  0  0  0
  5  8  1  0  0  0  0
  5 20  1  0  0  0  0
  6  7  1  0  0  0  0
  6 21  1  0  0  0  0
  6 22  1  0  0  0  0
  7  9  1  0  0  0  0
  7 23  1  0  0  0  0
  7 24  1  0  0  0  0
  8 12  1  0  0  0  0
  8 15  1  0  0  0  0
  8 25  1  0  0  0  0
  9 10  1  0  0  0  0
  9 26  1  0  0  0  0
  9 27  1  0  0  0  0
 10 11  1  0  0  0  0
 10 28  1  0  0  0  0
 10 29  1  0  0  0  0
 11 13  1  0  0  0  0
 11 30  1  0  0  0  0
 11 31  1  0  0  0  0
 12 14  1  0  0  0  0
 12 17  2  0  0  0  0
 13 16  1  0  0  0  0
 13 32  1  0  0  0  0
 13 33  1  0  0  0  0
 16 18  1  0  0  0  0
 16 34  1  0  0  0  0
 16 35  1  0  0  0  0
 17 36  1  0  0  0  0
 17 37  1  0  0  0  0
 18 38  1  0  0  0  0
 18 39  1  0  0  0  0
 18 40  1  0  0  0  0
M  END
>  <Mol_ID>
6099

>  <Formula>
C14H22O4

>  <MolWeight>
254.32208

>  <Cat>
S9819

>  <Name>
C75

>  <Target>
Others

>  <Form>
free base

>  <CAS>
218137-86-1

>  <URL>
http://www.selleckchem.com/products/c-75.html

$$$$
