C75 trans
 OpenBabel08302521243D

 40 40  0  0  0  0  0  0  0  0999 V2000
    4.0985    0.2560    0.4355 C   0  0  2  0  0  0  0  0  0  0  0  0
    4.4476    0.0525   -1.0321 C   0  0  2  0  0  0  0  0  0  0  0  0
    5.2222   -0.2072    1.1985 O   0  0  0  0  0  0  0  0  0  0  0  0
    2.8555   -0.5545    0.8206 C   0  0  0  0  0  0  0  0  0  0  0  0
    5.9248   -0.0942   -0.9817 C   0  0  0  0  0  0  0  0  0  0  0  0
    3.9591    1.2471   -1.8274 C   0  0  0  0  0  0  0  0  0  0  0  0
    6.3316   -0.3056    0.4209 C   0  0  0  0  0  0  0  0  0  0  0  0
    2.4535   -0.3833    2.2887 C   0  0  0  0  0  0  0  0  0  0  0  0
    6.8068   -0.1034   -1.9905 C   0  0  0  0  0  0  0  0  0  0  0  0
    2.7173    1.0755   -2.3420 O   0  0  0  0  0  0  0  0  0  0  0  0
    4.5729    2.2935   -1.9712 O   0  0  0  0  0  0  0  0  0  0  0  0
    7.4489   -0.5856    0.8148 O   0  0  0  0  0  0  0  0  0  0  0  0
    1.2309   -1.2322    2.6663 C   0  0  0  0  0  0  0  0  0  0  0  0
    1.4057   -2.7445    2.4757 C   0  0  0  0  0  0  0  0  0  0  0  0
    2.5614   -3.3127    3.3008 C   0  0  0  0  0  0  0  0  0  0  0  0
    2.7483   -4.8097    3.0623 C   0  0  0  0  0  0  0  0  0  0  0  0
    3.9189   -5.3485    3.8850 C   0  0  0  0  0  0  0  0  0  0  0  0
    4.1236   -6.8352    3.6497 C   0  0  0  0  0  0  0  0  0  0  0  0
    3.9381    1.3122    0.6886 H   0  0  0  0  0  0  0  0  0  0  0  0
    4.0252   -0.8718   -1.4468 H   0  0  0  0  0  0  0  0  0  0  0  0
    2.0115   -0.2654    0.1839 H   0  0  0  0  0  0  0  0  0  0  0  0
    3.0695   -1.6118    0.6299 H   0  0  0  0  0  0  0  0  0  0  0  0
    3.2939   -0.6273    2.9475 H   0  0  0  0  0  0  0  0  0  0  0  0
    2.2169    0.6707    2.4782 H   0  0  0  0  0  0  0  0  0  0  0  0
    7.8695   -0.2443   -1.8058 H   0  0  0  0  0  0  0  0  0  0  0  0
    6.4991    0.0409   -3.0215 H   0  0  0  0  0  0  0  0  0  0  0  0
    2.3054    0.2042   -2.1901 H   0  0  0  0  0  0  0  0  0  0  0  0
    0.9775   -1.0340    3.7152 H   0  0  0  0  0  0  0  0  0  0  0  0
    0.3695   -0.9022    2.0724 H   0  0  0  0  0  0  0  0  0  0  0  0
    0.4728   -3.2430    2.7673 H   0  0  0  0  0  0  0  0  0  0  0  0
    1.5507   -2.9764    1.4144 H   0  0  0  0  0  0  0  0  0  0  0  0
    3.4970   -2.8054    3.0431 H   0  0  0  0  0  0  0  0  0  0  0  0
    2.3726   -3.1262    4.3648 H   0  0  0  0  0  0  0  0  0  0  0  0
    1.8293   -5.3463    3.3254 H   0  0  0  0  0  0  0  0  0  0  0  0
    2.9372   -4.9893    1.9968 H   0  0  0  0  0  0  0  0  0  0  0  0
    4.8385   -4.8128    3.6204 H   0  0  0  0  0  0  0  0  0  0  0  0
    3.7381   -5.1722    4.9518 H   0  0  0  0  0  0  0  0  0  0  0  0
    4.3255   -7.0400    2.5935 H   0  0  0  0  0  0  0  0  0  0  0  0
    4.9738   -7.1984    4.2353 H   0  0  0  0  0  0  0  0  0  0  0  0
    3.2367   -7.4032    3.9474 H   0  0  0  0  0  0  0  0  0  0  0  0
  1  2  1  0  0  0  0
  1  3  1  0  0  0  0
  1 19  1  1  0  0  0
  1  4  1  0  0  0  0
  2  5  1  0  0  0  0
  2  6  1  0  0  0  0
  2 20  1  6  0  0  0
  3  7  1  0  0  0  0
  4  8  1  0  0  0  0
  4 21  1  0  0  0  0
  4 22  1  0  0  0  0
  5  9  2  0  0  0  0
  5  7  1  0  0  0  0
  6 10  1  0  0  0  0
  6 11  2  0  0  0  0
  7 12  2  0  0  0  0
  8 13  1  0  0  0  0
  8 23  1  0  0  0  0
  8 24  1  0  0  0  0
  9 25  1  0  0  0  0
  9 26  1  0  0  0  0
 10 27  1  0  0  0  0
 13 14  1  0  0  0  0
 13 28  1  0  0  0  0
 13 29  1  0  0  0  0
 14 15  1  0  0  0  0
 14 30  1  0  0  0  0
 14 31  1  0  0  0  0
 15 16  1  0  0  0  0
 15 32  1  0  0  0  0
 15 33  1  0  0  0  0
 16 17  1  0  0  0  0
 16 34  1  0  0  0  0
 16 35  1  0  0  0  0
 17 18  1  0  0  0  0
 17 36  1  0  0  0  0
 17 37  1  0  0  0  0
 18 38  1  0  0  0  0
 18 39  1  0  0  0  0
 18 40  1  0  0  0  0
M  END
>  <Mol_ID>
4957

>  <Formula>
C14H22O4

>  <MolWeight>
254.32208

>  <Cat>
S8915

>  <Name>
C75 trans

>  <Synonyms>
trans-C75, (¡À)-C75

>  <Target>
Fatty Acid Synthase

>  <Form>
Free Base

>  <CAS>
191282-48-1

>  <URL>
http://www.selleckchem.com/products/c75.html

$$$$
