CA-074 methyl ester.cdx
 OpenBabel08302520003D

 59 60  0  0  0  0  0  0  0  0999 V2000
    1.1292   -8.4547    5.2392 C   0  0  0  0  0  0  0  0  0  0  0  0
    1.7111   -7.0401    5.2530 C   0  0  0  0  0  0  0  0  0  0  0  0
   -0.3852   -8.4814    5.3743 C   0  0  0  0  0  0  0  0  0  0  0  0
    1.3252   -6.2173    4.1105 N   0  0  0  0  0  0  0  0  0  0  0  0
    1.2772   -4.8353    4.2203 C   0  0  0  0  0  0  0  0  0  0  0  0
    1.2221   -4.0425    2.9541 C   0  0  1  0  0  0  0  0  0  0  0  0
    1.3454   -4.2393    5.2898 O   0  0  0  0  0  0  0  0  0  0  0  0
    1.1139   -4.7884    1.7234 O   0  0  0  0  0  0  0  0  0  0  0  0
   -0.0223   -3.9862    2.1035 C   0  0  2  0  0  0  0  0  0  0  0  0
   -0.3179   -2.7937    1.2474 C   0  0  0  0  0  0  0  0  0  0  0  0
    0.0714   -2.8872   -0.0685 N   0  0  0  0  0  0  0  0  0  0  0  0
   -0.9269   -1.8465    1.7285 O   0  0  0  0  0  0  0  0  0  0  0  0
   -0.4692   -2.1307   -1.2232 C   0  0  2  0  0  0  0  0  0  0  0  0
   -0.3438   -0.5859   -1.1956 C   0  0  0  0  0  0  0  0  0  0  0  0
   -1.8985   -2.6497   -1.6284 C   0  0  1  0  0  0  0  0  0  0  0  0
   -3.0582   -2.1629   -0.7409 C   0  0  0  0  0  0  0  0  0  0  0  0
   -2.3161   -2.3570   -3.0946 C   0  0  0  0  0  0  0  0  0  0  0  0
   -1.3699    0.1104   -1.2342 O   0  0  0  0  0  0  0  0  0  0  0  0
    0.8957    0.0504   -1.2109 N   0  0  0  0  0  0  0  0  0  0  0  0
    2.2511   -0.3808   -1.6362 C   0  0  1  0  0  0  0  0  0  0  0  0
    3.0571    0.8504   -1.1433 C   0  0  0  0  0  0  0  0  0  0  0  0
    2.2031    2.0461   -1.5088 C   0  0  0  0  0  0  0  0  0  0  0  0
    0.7937    1.4856   -1.5175 C   0  0  0  0  0  0  0  0  0  0  0  0
    3.1953   -1.5609   -1.3347 C   0  0  0  0  0  0  0  0  0  0  0  0
    2.6602   -2.5806   -0.6346 O   0  0  0  0  0  0  0  0  0  0  0  0
    4.3451   -1.5746   -1.7759 O   0  0  0  0  0  0  0  0  0  0  0  0
    3.5240   -3.7120   -0.4262 C   0  0  0  0  0  0  0  0  0  0  0  0
   -1.4508   -3.0004   -4.1648 C   0  0  0  0  0  0  0  0  0  0  0  0
    1.5567   -9.0172    6.0796 H   0  0  0  0  0  0  0  0  0  0  0  0
    1.4222   -8.9821    4.3244 H   0  0  0  0  0  0  0  0  0  0  0  0
    1.4483   -6.5364    6.1894 H   0  0  0  0  0  0  0  0  0  0  0  0
    2.8049   -7.1119    5.2243 H   0  0  0  0  0  0  0  0  0  0  0  0
   -0.7426   -9.5155    5.4418 H   0  0  0  0  0  0  0  0  0  0  0  0
   -0.7110   -7.9532    6.2765 H   0  0  0  0  0  0  0  0  0  0  0  0
   -0.8664   -8.0160    4.5089 H   0  0  0  0  0  0  0  0  0  0  0  0
    1.4257   -6.5999    3.1793 H   0  0  0  0  0  0  0  0  0  0  0  0
    1.8535   -3.1623    2.9616 H   0  0  0  0  0  0  0  0  0  0  0  0
   -0.9019   -4.5038    2.4724 H   0  0  0  0  0  0  0  0  0  0  0  0
    0.6215   -3.7033   -0.2951 H   0  0  0  0  0  0  0  0  0  0  0  0
    0.2006   -2.4318   -2.0401 H   0  0  0  0  0  0  0  0  0  0  0  0
   -1.8678   -3.7432   -1.5220 H   0  0  0  0  0  0  0  0  0  0  0  0
   -3.4339   -1.1829   -1.0561 H   0  0  0  0  0  0  0  0  0  0  0  0
   -3.9018   -2.8571   -0.8262 H   0  0  0  0  0  0  0  0  0  0  0  0
   -2.8018   -2.1016    0.3139 H   0  0  0  0  0  0  0  0  0  0  0  0
   -3.3374   -2.7368   -3.2380 H   0  0  0  0  0  0  0  0  0  0  0  0
   -2.3673   -1.2773   -3.2778 H   0  0  0  0  0  0  0  0  0  0  0  0
    2.1941   -0.3821   -2.7349 H   0  0  0  0  0  0  0  0  0  0  0  0
    3.1567    0.8067   -0.0483 H   0  0  0  0  0  0  0  0  0  0  0  0
    4.0663    0.9302   -1.5580 H   0  0  0  0  0  0  0  0  0  0  0  0
    2.3131    2.8668   -0.7936 H   0  0  0  0  0  0  0  0  0  0  0  0
    2.4786    2.4298   -2.4985 H   0  0  0  0  0  0  0  0  0  0  0  0
    0.1209    2.0089   -0.8326 H   0  0  0  0  0  0  0  0  0  0  0  0
    0.3834    1.5810   -2.5358 H   0  0  0  0  0  0  0  0  0  0  0  0
    3.0250   -4.6020   -0.8226 H   0  0  0  0  0  0  0  0  0  0  0  0
    4.5047   -3.6313   -0.9078 H   0  0  0  0  0  0  0  0  0  0  0  0
    3.6742   -3.8387    0.6491 H   0  0  0  0  0  0  0  0  0  0  0  0
   -1.2577   -4.0537   -3.9415 H   0  0  0  0  0  0  0  0  0  0  0  0
   -1.9664   -2.9528   -5.1321 H   0  0  0  0  0  0  0  0  0  0  0  0
   -0.4981   -2.4777   -4.2769 H   0  0  0  0  0  0  0  0  0  0  0  0
  1  2  1  0  0  0  0
  1  3  1  0  0  0  0
  1 29  1  0  0  0  0
  1 30  1  0  0  0  0
  2  4  1  0  0  0  0
  2 31  1  0  0  0  0
  2 32  1  0  0  0  0
  3 33  1  0  0  0  0
  3 34  1  0  0  0  0
  3 35  1  0  0  0  0
  4  5  1  0  0  0  0
  4 36  1  0  0  0  0
  5  7  2  0  0  0  0
  6  8  1  0  0  0  0
  6 37  1  6  0  0  0
  6  5  1  0  0  0  0
  8  9  1  0  0  0  0
  9  6  1  0  0  0  0
  9 38  1  1  0  0  0
  9 10  1  0  0  0  0
 10 11  1  0  0  0  0
 10 12  2  0  0  0  0
 11 39  1  0  0  0  0
 13 15  1  0  0  0  0
 13 40  1  6  0  0  0
 13 14  1  0  0  0  0
 13 11  1  0  0  0  0
 14 18  2  0  0  0  0
 14 19  1  0  0  0  0
 15 16  1  0  0  0  0
 15 17  1  0  0  0  0
 15 41  1  1  0  0  0
 16 42  1  0  0  0  0
 16 43  1  0  0  0  0
 16 44  1  0  0  0  0
 17 28  1  0  0  0  0
 17 45  1  0  0  0  0
 17 46  1  0  0  0  0
 19 20  1  0  0  0  0
 20 21  1  0  0  0  0
 20 47  1  6  0  0  0
 20 24  1  0  0  0  0
 21 22  1  0  0  0  0
 21 48  1  0  0  0  0
 21 49  1  0  0  0  0
 22 23  1  0  0  0  0
 22 50  1  0  0  0  0
 22 51  1  0  0  0  0
 23 19  1  0  0  0  0
 23 52  1  0  0  0  0
 23 53  1  0  0  0  0
 24 25  1  0  0  0  0
 24 26  2  0  0  0  0
 25 27  1  0  0  0  0
 27 54  1  0  0  0  0
 27 55  1  0  0  0  0
 27 56  1  0  0  0  0
 28 57  1  0  0  0  0
 28 58  1  0  0  0  0
 28 59  1  0  0  0  0
M  END
>  <Mol_ID>
2713

>  <Formula>
C19H31N3O6

>  <MolWeight>
397.46594

>  <Cat>
S7420

>  <Name>
CA-074 methyl ester (CA-074 Me)

>  <Synonyms>
Cathepsin B Inhibitor IV

>  <Target>
Cathepsin B,Cysteine Protease

>  <Form>
free base

>  <CAS>
147859-80-1

>  <URL>
http://selleckchem.com/products/ca-074-methyl-ester.html

$$$$
