CA3.cdx
 OpenBabel08302520433D

 60 64  0  0  0  0  0  0  0  0999 V2000
   -3.0155   -1.1881    0.0133 C   0  0  0  0  0  0  0  0  0  0  0  0
   -3.4662    0.1455   -0.0161 C   0  0  0  0  0  0  0  0  0  0  0  0
   -2.5598    1.2119   -0.0815 C   0  0  0  0  0  0  0  0  0  0  0  0
   -1.2066    0.9141   -0.0304 C   0  0  0  0  0  0  0  0  0  0  0  0
   -0.7422   -0.4129    0.0055 C   0  0  0  0  0  0  0  0  0  0  0  0
   -1.6429   -1.4713    0.0198 C   0  0  0  0  0  0  0  0  0  0  0  0
   -0.0054    1.7975   -0.0038 C   0  0  0  0  0  0  0  0  0  0  0  0
    1.1808    0.9077    0.0034 C   0  0  0  0  0  0  0  0  0  0  0  0
    0.7070   -0.4215    0.0015 C   0  0  0  0  0  0  0  0  0  0  0  0
    2.5347    1.2203    0.0148 C   0  0  0  0  0  0  0  0  0  0  0  0
    3.4366    0.1484    0.0076 C   0  0  0  0  0  0  0  0  0  0  0  0
    2.9774   -1.1834   -0.0657 C   0  0  0  0  0  0  0  0  0  0  0  0
    1.6056   -1.4703   -0.0395 C   0  0  0  0  0  0  0  0  0  0  0  0
   -5.2249    0.4965   -0.0532 S   0  0  0  0  0  0  0  0  0  0  0  0
   -5.6546    0.6234    1.6006 N   0  0  0  0  0  0  0  0  0  0  0  0
   -5.3843    1.7976   -0.6681 O   0  0  0  0  0  0  0  0  0  0  0  0
   -5.8753   -0.6730   -0.6066 O   0  0  0  0  0  0  0  0  0  0  0  0
    5.2052    0.4560   -0.0262 S   0  0  0  0  0  0  0  0  0  0  0  0
    5.6609    0.5064    1.6245 N   0  0  0  0  0  0  0  0  0  0  0  0
    5.8206   -0.7182   -0.6195 O   0  0  0  0  0  0  0  0  0  0  0  0
    5.3992    1.7670   -0.6038 O   0  0  0  0  0  0  0  0  0  0  0  0
   -5.6343   -0.6517    2.3573 C   0  0  0  0  0  0  0  0  0  0  0  0
   -6.3251   -0.4868    3.7073 C   0  0  0  0  0  0  0  0  0  0  0  0
   -5.7131    0.6547    4.5096 C   0  0  0  0  0  0  0  0  0  0  0  0
   -5.7425    1.9462    3.7006 C   0  0  0  0  0  0  0  0  0  0  0  0
   -5.0586    1.7631    2.3463 C   0  0  0  0  0  0  0  0  0  0  0  0
    5.1872    1.6970    2.3689 C   0  0  0  0  0  0  0  0  0  0  0  0
    5.8921    1.8095    3.7172 C   0  0  0  0  0  0  0  0  0  0  0  0
    5.7420    0.5331    4.5351 C   0  0  0  0  0  0  0  0  0  0  0  0
    6.2438   -0.6653    3.7390 C   0  0  0  0  0  0  0  0  0  0  0  0
    5.5368   -0.7624    2.3863 C   0  0  0  0  0  0  0  0  0  0  0  0
    0.0976    3.0890    0.0313 N   0  0  0  0  0  0  0  0  0  0  0  0
   -1.1457    3.7218    0.0493 O   0  0  0  0  0  0  0  0  0  0  0  0
   -3.7311   -2.0093    0.0197 H   0  0  0  0  0  0  0  0  0  0  0  0
   -2.9131    2.2305   -0.1789 H   0  0  0  0  0  0  0  0  0  0  0  0
   -1.3020   -2.5027    0.0312 H   0  0  0  0  0  0  0  0  0  0  0  0
    2.8655    2.2558    0.0138 H   0  0  0  0  0  0  0  0  0  0  0  0
    3.6848   -2.0054   -0.1614 H   0  0  0  0  0  0  0  0  0  0  0  0
    1.2651   -2.5010   -0.0722 H   0  0  0  0  0  0  0  0  0  0  0  0
   -4.5992   -0.9747    2.5064 H   0  0  0  0  0  0  0  0  0  0  0  0
   -6.1646   -1.4299    1.7987 H   0  0  0  0  0  0  0  0  0  0  0  0
   -6.2431   -1.4206    4.2744 H   0  0  0  0  0  0  0  0  0  0  0  0
   -7.3944   -0.2923    3.5571 H   0  0  0  0  0  0  0  0  0  0  0  0
   -6.2576    0.7872    5.4511 H   0  0  0  0  0  0  0  0  0  0  0  0
   -4.6765    0.4073    4.7692 H   0  0  0  0  0  0  0  0  0  0  0  0
   -6.7817    2.2699    3.5616 H   0  0  0  0  0  0  0  0  0  0  0  0
   -5.2316    2.7378    4.2612 H   0  0  0  0  0  0  0  0  0  0  0  0
   -5.1670    2.6911    1.7761 H   0  0  0  0  0  0  0  0  0  0  0  0
   -3.9931    1.5748    2.5134 H   0  0  0  0  0  0  0  0  0  0  0  0
    4.1050    1.6265    2.5196 H   0  0  0  0  0  0  0  0  0  0  0  0
    5.4013    2.6072    1.7989 H   0  0  0  0  0  0  0  0  0  0  0  0
    5.4753    2.6548    4.2760 H   0  0  0  0  0  0  0  0  0  0  0  0
    6.9586    2.0179    3.5645 H   0  0  0  0  0  0  0  0  0  0  0  0
    6.2974    0.6206    5.4755 H   0  0  0  0  0  0  0  0  0  0  0  0
    4.6873    0.3851    4.7973 H   0  0  0  0  0  0  0  0  0  0  0  0
    7.3293   -0.5862    3.5991 H   0  0  0  0  0  0  0  0  0  0  0  0
    6.0610   -1.5828    4.3109 H   0  0  0  0  0  0  0  0  0  0  0  0
    5.9825   -1.5902    1.8250 H   0  0  0  0  0  0  0  0  0  0  0  0
    4.4792   -0.9827    2.5583 H   0  0  0  0  0  0  0  0  0  0  0  0
   -0.9119    4.6654   -0.0163 H   0  0  0  0  0  0  0  0  0  0  0  0
  1  2  2  0  0  0  0
  1 34  1  0  0  0  0
  2  3  1  0  0  0  0
  2 14  1  0  0  0  0
  3  4  2  0  0  0  0
  3 35  1  0  0  0  0
  4  5  1  0  0  0  0
  4  7  1  0  0  0  0
  5  6  2  0  0  0  0
  6  1  1  0  0  0  0
  6 36  1  0  0  0  0
  7  8  1  0  0  0  0
  7 32  2  0  0  0  0
  8  9  2  0  0  0  0
  8 10  1  0  0  0  0
  9  5  1  0  0  0  0
 10 11  2  0  0  0  0
 10 37  1  0  0  0  0
 11 12  1  0  0  0  0
 11 18  1  0  0  0  0
 12 13  2  0  0  0  0
 12 38  1  0  0  0  0
 13  9  1  0  0  0  0
 13 39  1  0  0  0  0
 14 15  1  0  0  0  0
 14 16  2  0  0  0  0
 14 17  2  0  0  0  0
 15 22  1  0  0  0  0
 18 19  1  0  0  0  0
 18 20  2  0  0  0  0
 18 21  2  0  0  0  0
 19 27  1  0  0  0  0
 22 23  1  0  0  0  0
 22 40  1  0  0  0  0
 22 41  1  0  0  0  0
 23 24  1  0  0  0  0
 23 42  1  0  0  0  0
 23 43  1  0  0  0  0
 24 25  1  0  0  0  0
 24 44  1  0  0  0  0
 24 45  1  0  0  0  0
 25 26  1  0  0  0  0
 25 46  1  0  0  0  0
 25 47  1  0  0  0  0
 26 15  1  0  0  0  0
 26 48  1  0  0  0  0
 26 49  1  0  0  0  0
 27 28  1  0  0  0  0
 27 50  1  0  0  0  0
 27 51  1  0  0  0  0
 28 29  1  0  0  0  0
 28 52  1  0  0  0  0
 28 53  1  0  0  0  0
 29 30  1  0  0  0  0
 29 54  1  0  0  0  0
 29 55  1  0  0  0  0
 30 31  1  0  0  0  0
 30 56  1  0  0  0  0
 30 57  1  0  0  0  0
 31 19  1  0  0  0  0
 31 58  1  0  0  0  0
 31 59  1  0  0  0  0
 32 33  1  0  0  0  0
 33 60  1  0  0  0  0
M  END
>  <Mol_ID>
4187

>  <Formula>
C23H27N3O5S2

>  <MolWeight>
489.60758

>  <Cat>
S8661

>  <Name>
CA3 (CIL56)

>  <Synonyms>
N/A

>  <Target>
Ferroptosis,ROS,TEAD,YAP

>  <Form>
free base

>  <CAS>
300802-28-2

>  <URL>
http://selleckchem.com/products/ca3.html

$$$$
