CA77.1
 OpenBabel08302521313D

 33 35  0  0  0  0  0  0  0  0999 V2000
    1.9233    0.7641    2.0937 C   0  0  0  0  0  0  0  0  0  0  0  0
    1.9392    0.0798    3.4304 C   0  0  0  0  0  0  0  0  0  0  0  0
    1.4057    1.8685    1.9865 O   0  0  0  0  0  0  0  0  0  0  0  0
    2.3454    0.1545    0.9506 N   0  0  0  0  0  0  0  0  0  0  0  0
    2.9926   -1.0589    0.6975 C   0  0  0  0  0  0  0  0  0  0  0  0
    2.6114   -1.7271   -0.4719 C   0  0  0  0  0  0  0  0  0  0  0  0
    3.1204   -2.9932   -0.7830 C   0  0  0  0  0  0  0  0  0  0  0  0
    3.9637   -3.6391    0.1176 C   0  0  0  0  0  0  0  0  0  0  0  0
    4.4928   -2.8687    1.1868 C   0  0  0  0  0  0  0  0  0  0  0  0
    3.9987   -1.5881    1.4820 C   0  0  0  0  0  0  0  0  0  0  0  0
    5.0508   -5.6329    0.8422 N   0  0  0  0  0  0  0  0  0  0  0  0
    3.9655   -5.1406    0.2086 C   0  0  0  0  0  0  0  0  0  0  0  0
    2.7106   -5.6603    0.5418 C   0  0  0  0  0  0  0  0  0  0  0  0
    2.4562   -6.1263    1.7850 N   0  0  0  0  0  0  0  0  0  0  0  0
    3.5123   -6.0991    2.6199 C   0  0  0  0  0  0  0  0  0  0  0  0
    3.3218   -5.9357    3.9817 C   0  0  0  0  0  0  0  0  0  0  0  0
    4.4034   -5.6452    4.8150 C   0  0  0  0  0  0  0  0  0  0  0  0
    5.7021   -5.6947    4.3152 C   0  0  0  0  0  0  0  0  0  0  0  0
    5.9101   -5.9402    2.9622 C   0  0  0  0  0  0  0  0  0  0  0  0
    4.8291   -5.9889    2.1106 C   0  0  0  0  0  0  0  0  0  0  0  0
    2.4343    0.7320    4.1559 H   0  0  0  0  0  0  0  0  0  0  0  0
    0.9010   -0.0687    3.7477 H   0  0  0  0  0  0  0  0  0  0  0  0
    2.4197   -0.8960    3.4357 H   0  0  0  0  0  0  0  0  0  0  0  0
    1.9735    0.6396    0.1385 H   0  0  0  0  0  0  0  0  0  0  0  0
    1.8139   -1.3319   -1.0924 H   0  0  0  0  0  0  0  0  0  0  0  0
    2.7500   -3.5151   -1.6602 H   0  0  0  0  0  0  0  0  0  0  0  0
    5.2180   -3.3013    1.8720 H   0  0  0  0  0  0  0  0  0  0  0  0
    4.4138   -1.0551    2.3316 H   0  0  0  0  0  0  0  0  0  0  0  0
    1.8240   -5.4335   -0.0417 H   0  0  0  0  0  0  0  0  0  0  0  0
    2.3068   -5.8842    4.3694 H   0  0  0  0  0  0  0  0  0  0  0  0
    4.2290   -5.3394    5.8433 H   0  0  0  0  0  0  0  0  0  0  0  0
    6.5504   -5.4574    4.9500 H   0  0  0  0  0  0  0  0  0  0  0  0
    6.9125   -5.9030    2.5446 H   0  0  0  0  0  0  0  0  0  0  0  0
  1  2  1  0  0  0  0
  1  3  2  0  0  0  0
  1  4  1  0  0  0  0
  2 21  1  0  0  0  0
  2 22  1  0  0  0  0
  2 23  1  0  0  0  0
  4  5  1  0  0  0  0
  4 24  1  0  0  0  0
  5  6  2  0  0  0  0
  5 10  1  0  0  0  0
  6  7  1  0  0  0  0
  6 25  1  0  0  0  0
  7  8  2  0  0  0  0
  7 26  1  0  0  0  0
  8  9  1  0  0  0  0
  8 12  1  0  0  0  0
  9 10  2  0  0  0  0
  9 27  1  0  0  0  0
 10 28  1  0  0  0  0
 11 12  2  0  0  0  0
 11 20  1  0  0  0  0
 12 13  1  0  0  0  0
 13 14  2  0  0  0  0
 13 29  1  0  0  0  0
 14 15  1  0  0  0  0
 15 16  1  0  0  0  0
 15 20  2  0  0  0  0
 16 17  2  0  0  0  0
 16 30  1  0  0  0  0
 17 18  1  0  0  0  0
 17 31  1  0  0  0  0
 18 19  2  0  0  0  0
 18 32  1  0  0  0  0
 19 20  1  0  0  0  0
 19 33  1  0  0  0  0
M  END
>  <Mol_ID>
5899

>  <Formula>
C16H12ClN3O

>  <MolWeight>
297.73898

>  <Cat>
S6395

>  <Name>
CA77.1

>  <Synonyms>
CA

>  <Target>
Autophagy

>  <Form>
Free Base

>  <CAS>
2412270-22-3

>  <URL>
http://www.selleckchem.com/products/ca77-1.html

$$$$
