Cabergoline
 OpenBabel08302520143D

 70 73  0  0  0  0  0  0  0  0999 V2000
   -0.5326   -1.9754   -0.6538 C   0  0  2  0  0  0  0  0  0  0  0  0
    0.6727   -1.0907   -0.6067 C   0  0  0  0  0  0  0  0  0  0  0  0
   -1.2710   -1.6650    0.7361 C   0  0  2  0  0  0  0  0  0  0  0  0
   -0.7195   -3.4342   -1.1398 C   0  0  0  0  0  0  0  0  0  0  0  0
    0.3170    0.2476   -0.2843 C   0  0  0  0  0  0  0  0  0  0  0  0
    2.0179   -1.4144   -0.6601 C   0  0  0  0  0  0  0  0  0  0  0  0
   -1.7164   -2.8789    1.5021 N   0  0  0  0  0  0  0  0  0  0  0  0
   -2.0680   -0.3040    0.5160 C   0  0  0  0  0  0  0  0  0  0  0  0
   -2.2334   -3.6505   -0.8829 C   0  0  2  0  0  0  0  0  0  0  0  0
   -0.9643    0.7237    0.1710 C   0  0  0  0  0  0  0  0  0  0  0  0
    1.2538    1.2344   -0.0880 C   0  0  0  0  0  0  0  0  0  0  0  0
    2.9698   -0.4126   -0.4057 C   0  0  0  0  0  0  0  0  0  0  0  0
   -2.4060   -3.8537    0.6328 C   0  0  0  0  0  0  0  0  0  0  0  0
   -0.4677   -3.3820    2.1438 C   0  0  0  0  0  0  0  0  0  0  0  0
   -3.1200   -4.6214   -1.6890 C   0  0  0  0  0  0  0  0  0  0  0  0
   -0.8167    2.0785    0.3550 C   0  0  0  0  0  0  0  0  0  0  0  0
    0.5294    2.3772    0.1857 N   0  0  0  0  0  0  0  0  0  0  0  0
    2.6172    0.9325   -0.1383 C   0  0  0  0  0  0  0  0  0  0  0  0
   -0.2928   -4.6733    2.8800 C   0  0  0  0  0  0  0  0  0  0  0  0
   -4.5274   -4.3022   -1.7840 N   0  0  0  0  0  0  0  0  0  0  0  0
   -2.6174   -5.6030   -2.2428 O   0  0  0  0  0  0  0  0  0  0  0  0
   -1.1642   -5.6087    3.2627 C   0  0  0  0  0  0  0  0  0  0  0  0
   -5.0759   -3.1261   -1.2779 C   0  0  0  0  0  0  0  0  0  0  0  0
   -5.3464   -5.1985   -2.6260 C   0  0  0  0  0  0  0  0  0  0  0  0
   -6.3335   -2.7367   -1.6834 N   0  0  0  0  0  0  0  0  0  0  0  0
   -4.5164   -2.3786   -0.4688 O   0  0  0  0  0  0  0  0  0  0  0  0
   -6.1955   -6.2489   -1.8876 C   0  0  0  0  0  0  0  0  0  0  0  0
   -6.9180   -1.5586   -1.0720 C   0  0  0  0  0  0  0  0  0  0  0  0
   -7.2459   -5.8015   -0.8505 C   0  0  0  0  0  0  0  0  0  0  0  0
   -6.4854   -0.2893   -1.7886 C   0  0  0  0  0  0  0  0  0  0  0  0
   -8.3961   -4.9869   -1.3009 N   0  0  0  0  0  0  0  0  0  0  0  0
   -9.3024   -5.7211   -2.1986 C   0  0  0  0  0  0  0  0  0  0  0  0
   -9.1831   -4.6026   -0.1070 C   0  0  0  0  0  0  0  0  0  0  0  0
   -1.1054   -1.4561   -1.4462 H   0  0  0  0  0  0  0  0  0  0  0  0
   -0.5197   -1.2760    1.4430 H   0  0  0  0  0  0  0  0  0  0  0  0
   -0.4691   -3.5248   -2.2018 H   0  0  0  0  0  0  0  0  0  0  0  0
   -0.0897   -4.1487   -0.5995 H   0  0  0  0  0  0  0  0  0  0  0  0
    2.3326   -2.4393   -0.8296 H   0  0  0  0  0  0  0  0  0  0  0  0
   -2.7855   -0.3740   -0.3037 H   0  0  0  0  0  0  0  0  0  0  0  0
   -2.5845   -0.0020    1.4298 H   0  0  0  0  0  0  0  0  0  0  0  0
   -2.6364   -2.6979   -1.2242 H   0  0  0  0  0  0  0  0  0  0  0  0
    4.0233   -0.6884   -0.3874 H   0  0  0  0  0  0  0  0  0  0  0  0
   -3.4646   -3.8276    0.9106 H   0  0  0  0  0  0  0  0  0  0  0  0
   -2.1171   -4.8832    0.8646 H   0  0  0  0  0  0  0  0  0  0  0  0
    0.3487   -3.3818    1.4131 H   0  0  0  0  0  0  0  0  0  0  0  0
   -0.1913   -2.6291    2.8991 H   0  0  0  0  0  0  0  0  0  0  0  0
   -1.5091    2.8459    0.6742 H   0  0  0  0  0  0  0  0  0  0  0  0
    0.9371    3.2871    0.3438 H   0  0  0  0  0  0  0  0  0  0  0  0
    3.3763    1.6743    0.0828 H   0  0  0  0  0  0  0  0  0  0  0  0
    0.7564   -4.8473    3.1475 H   0  0  0  0  0  0  0  0  0  0  0  0
   -0.8071   -6.4865    3.7905 H   0  0  0  0  0  0  0  0  0  0  0  0
   -2.2260   -5.5224    3.0702 H   0  0  0  0  0  0  0  0  0  0  0  0
   -5.9732   -4.6106   -3.3049 H   0  0  0  0  0  0  0  0  0  0  0  0
   -4.6779   -5.7496   -3.3010 H   0  0  0  0  0  0  0  0  0  0  0  0
   -6.9401   -3.3415   -2.2027 H   0  0  0  0  0  0  0  0  0  0  0  0
   -6.6905   -6.8735   -2.6399 H   0  0  0  0  0  0  0  0  0  0  0  0
   -5.5030   -6.9186   -1.3577 H   0  0  0  0  0  0  0  0  0  0  0  0
   -8.0060   -1.6706   -1.0933 H   0  0  0  0  0  0  0  0  0  0  0  0
   -6.6202   -1.5005   -0.0172 H   0  0  0  0  0  0  0  0  0  0  0  0
   -7.6271   -6.7074   -0.3594 H   0  0  0  0  0  0  0  0  0  0  0  0
   -6.7085   -5.2429   -0.0752 H   0  0  0  0  0  0  0  0  0  0  0  0
   -6.9229   -0.2500   -2.7897 H   0  0  0  0  0  0  0  0  0  0  0  0
   -6.8104    0.5915   -1.2310 H   0  0  0  0  0  0  0  0  0  0  0  0
   -5.3955   -0.2379   -1.9001 H   0  0  0  0  0  0  0  0  0  0  0  0
   -9.6912   -6.6378   -1.7432 H   0  0  0  0  0  0  0  0  0  0  0  0
  -10.1636   -5.0917   -2.4634 H   0  0  0  0  0  0  0  0  0  0  0  0
   -8.8085   -5.9757   -3.1377 H   0  0  0  0  0  0  0  0  0  0  0  0
   -9.6558   -5.4705    0.3727 H   0  0  0  0  0  0  0  0  0  0  0  0
   -8.5523   -4.1077    0.6388 H   0  0  0  0  0  0  0  0  0  0  0  0
   -9.9706   -3.8910   -0.3758 H   0  0  0  0  0  0  0  0  0  0  0  0
  1  2  1  0  0  0  0
  1  3  1  0  0  0  0
  1  4  1  0  0  0  0
  1 34  1  6  0  0  0
  2  5  2  0  0  0  0
  2  6  1  0  0  0  0
  3  7  1  0  0  0  0
  3  8  1  0  0  0  0
  3 35  1  1  0  0  0
  4  9  1  0  0  0  0
  4 36  1  0  0  0  0
  4 37  1  0  0  0  0
  5 10  1  0  0  0  0
  5 11  1  0  0  0  0
  6 12  2  0  0  0  0
  6 38  1  0  0  0  0
  7 13  1  0  0  0  0
  7 14  1  0  0  0  0
  8 10  1  0  0  0  0
  8 39  1  0  0  0  0
  8 40  1  0  0  0  0
  9 15  1  0  0  0  0
  9 13  1  0  0  0  0
  9 41  1  6  0  0  0
 10 16  2  0  0  0  0
 11 17  1  0  0  0  0
 11 18  2  0  0  0  0
 12 18  1  0  0  0  0
 12 42  1  0  0  0  0
 13 43  1  0  0  0  0
 13 44  1  0  0  0  0
 14 19  1  0  0  0  0
 14 45  1  0  0  0  0
 14 46  1  0  0  0  0
 15 20  1  0  0  0  0
 15 21  2  0  0  0  0
 16 17  1  0  0  0  0
 16 47  1  0  0  0  0
 17 48  1  0  0  0  0
 18 49  1  0  0  0  0
 19 22  2  0  0  0  0
 19 50  1  0  0  0  0
 20 23  1  0  0  0  0
 20 24  1  0  0  0  0
 22 51  1  0  0  0  0
 22 52  1  0  0  0  0
 23 25  1  0  0  0  0
 23 26  2  0  0  0  0
 24 27  1  0  0  0  0
 24 53  1  0  0  0  0
 24 54  1  0  0  0  0
 25 28  1  0  0  0  0
 25 55  1  0  0  0  0
 27 29  1  0  0  0  0
 27 56  1  0  0  0  0
 27 57  1  0  0  0  0
 28 30  1  0  0  0  0
 28 58  1  0  0  0  0
 28 59  1  0  0  0  0
 29 31  1  0  0  0  0
 29 60  1  0  0  0  0
 29 61  1  0  0  0  0
 30 62  1  0  0  0  0
 30 63  1  0  0  0  0
 30 64  1  0  0  0  0
 31 32  1  0  0  0  0
 31 33  1  0  0  0  0
 32 65  1  0  0  0  0
 32 66  1  0  0  0  0
 32 67  1  0  0  0  0
 33 68  1  0  0  0  0
 33 69  1  0  0  0  0
 33 70  1  0  0  0  0
M  END
>  <Mol_ID>
3155

>  <Formula>
C26H37N5O2

>  <MolWeight>
451.60428

>  <Cat>
S5842

>  <Name>
Cabergoline

>  <Synonyms>
FCE-21336

>  <Target>
Dopamine Receptor

>  <Form>
Free Base

>  <CAS>
81409-90-7

>  <URL>
http://www.selleckchem.com/products/cabergoline.html

$$$$
