Cabotegravir Sodium
 OpenBabel08302521453D

 46 49  0  0  0  0  0  0  0  0999 V2000
    1.1565   -0.0628    0.6412 O   0  0  0  0  0  0  0  0  0  0  0  0
    1.0084    2.5833    0.3557 O   0  0  0  0  0  0  0  0  0  0  0  0
    5.5014    4.9102    0.0285 C   0  0  0  0  0  0  0  0  0  0  0  0
    4.8698    6.1130    0.1983 N   0  0  0  0  0  0  0  0  0  0  0  0
    6.7161    4.8002   -0.1064 O   0  0  0  0  0  0  0  0  0  0  0  0
    5.5780    7.3739    0.2238 C   0  0  0  0  0  0  0  0  0  0  0  0
    2.5194    4.8165    0.3027 O   0  0  0  0  0  0  0  0  0  0  0  0
    1.5494   -3.1082    0.0713 C   0  0  0  0  0  0  0  0  0  0  0  0
    5.7642   10.1506    0.5111 F   0  0  0  0  0  0  0  0  0  0  0  0
    4.0003   11.0487   -3.7560 F   0  0  0  0  0  0  0  0  0  0  0  0
    4.4599    1.3027   -0.1751 N   0  0  0  0  0  0  0  0  0  0  0  0
    3.0571    1.3204    0.0291 C   0  0  0  0  0  0  0  0  0  0  0  0
    5.2046    0.0250   -0.1904 C   0  0  0  0  0  0  0  0  0  0  0  0
    5.1591    2.5039   -0.1475 C   0  0  0  0  0  0  0  0  0  0  0  0
    2.3041    0.0050    0.2139 C   0  0  0  0  0  0  0  0  0  0  0  0
    2.3717    2.4763    0.1654 C   0  0  0  0  0  0  0  0  0  0  0  0
    4.3149   -1.1238   -0.6675 C   0  0  2  0  0  0  0  0  0  0  0  0
    4.6104    3.7188    0.0071 C   0  0  0  0  0  0  0  0  0  0  0  0
    3.0517   -1.1300    0.0010 N   0  0  0  0  0  0  0  0  0  0  0  0
    3.1385    3.7603    0.1562 C   0  0  0  0  0  0  0  0  0  0  0  0
    4.9271   -2.3922   -0.4141 O   0  0  0  0  0  0  0  0  0  0  0  0
    2.7710   -2.3918    0.6285 C   0  0  2  0  0  0  0  0  0  0  0  0
    4.0566   -3.1763    0.4212 C   0  0  0  0  0  0  0  0  0  0  0  0
    5.1124    8.3225   -0.8491 C   0  0  0  0  0  0  0  0  0  0  0  0
    5.2595    9.7003   -0.6485 C   0  0  0  0  0  0  0  0  0  0  0  0
    4.6082    7.8814   -2.0844 C   0  0  0  0  0  0  0  0  0  0  0  0
    4.8851   10.6270   -1.6143 C   0  0  0  0  0  0  0  0  0  0  0  0
    4.2252    8.8072   -3.0599 C   0  0  0  0  0  0  0  0  0  0  0  0
    4.3619   10.1686   -2.8131 C   0  0  0  0  0  0  0  0  0  0  0  0
    0.8249    3.5351    0.4915 H   0  0  0  0  0  0  0  0  0  0  0  0
    3.8581    6.1323    0.3272 H   0  0  0  0  0  0  0  0  0  0  0  0
    5.3831    7.8035    1.2136 H   0  0  0  0  0  0  0  0  0  0  0  0
    6.6573    7.2176    0.1245 H   0  0  0  0  0  0  0  0  0  0  0  0
    1.4195   -4.0777    0.5642 H   0  0  0  0  0  0  0  0  0  0  0  0
    0.6363   -2.5294    0.2424 H   0  0  0  0  0  0  0  0  0  0  0  0
    1.6380   -3.2762   -1.0065 H   0  0  0  0  0  0  0  0  0  0  0  0
    5.5836   -0.1816    0.8186 H   0  0  0  0  0  0  0  0  0  0  0  0
    6.0827    0.0912   -0.8461 H   0  0  0  0  0  0  0  0  0  0  0  0
    6.2378    2.3896   -0.2514 H   0  0  0  0  0  0  0  0  0  0  0  0
    4.1294   -1.0379   -1.7450 H   0  0  0  0  0  0  0  0  0  0  0  0
    2.6070   -2.2136    1.6986 H   0  0  0  0  0  0  0  0  0  0  0  0
    3.9027   -4.1522   -0.0496 H   0  0  0  0  0  0  0  0  0  0  0  0
    4.5720   -3.3405    1.3737 H   0  0  0  0  0  0  0  0  0  0  0  0
    4.5114    6.8210   -2.2987 H   0  0  0  0  0  0  0  0  0  0  0  0
    5.0019   11.6869   -1.4337 H   0  0  0  0  0  0  0  0  0  0  0  0
    3.8213    8.4710   -4.0110 H   0  0  0  0  0  0  0  0  0  0  0  0
  1 15  2  0  0  0  0
  2 16  1  0  0  0  0
  2 30  1  0  0  0  0
  3  4  1  0  0  0  0
  3  5  2  0  0  0  0
  3 18  1  0  0  0  0
  4  6  1  0  0  0  0
  4 31  1  0  0  0  0
  6 24  1  0  0  0  0
  6 32  1  0  0  0  0
  6 33  1  0  0  0  0
  7 20  2  0  0  0  0
  8 34  1  0  0  0  0
  8 35  1  0  0  0  0
  8 36  1  0  0  0  0
  9 25  1  0  0  0  0
 10 29  1  0  0  0  0
 11 12  1  0  0  0  0
 11 13  1  0  0  0  0
 11 14  1  0  0  0  0
 12 15  1  0  0  0  0
 12 16  2  0  0  0  0
 13 37  1  0  0  0  0
 13 38  1  0  0  0  0
 14 18  2  0  0  0  0
 14 39  1  0  0  0  0
 15 19  1  0  0  0  0
 16 20  1  0  0  0  0
 17 13  1  0  0  0  0
 17 19  1  0  0  0  0
 17 21  1  0  0  0  0
 17 40  1  6  0  0  0
 18 20  1  0  0  0  0
 19 22  1  0  0  0  0
 21 23  1  0  0  0  0
 22  8  1  0  0  0  0
 22 23  1  0  0  0  0
 22 41  1  1  0  0  0
 23 42  1  0  0  0  0
 23 43  1  0  0  0  0
 24 25  2  0  0  0  0
 24 26  1  0  0  0  0
 25 27  1  0  0  0  0
 26 28  2  0  0  0  0
 26 44  1  0  0  0  0
 27 29  2  0  0  0  0
 27 45  1  0  0  0  0
 28 29  1  0  0  0  0
 28 46  1  0  0  0  0
M  END
>  <Mol_ID>
9482

>  <Formula>
C19H17F2N3NaO5

>  <MolWeight>
428.3419564

>  <Cat>
E4468

>  <Name>
Cabotegravir Sodium

>  <Synonyms>
GSK-1265744 sodium

>  <Target>
Integrase

>  <Form>
sodium salt

>  <CAS>
1051375-13-3

>  <URL>
https://www.selleckchem.com/products/cabotegravir-sodium.html

$$$$
