CaCCinh-A01
 OpenBabel08302521243D

 45 47  0  0  0  0  0  0  0  0999 V2000
   -1.7719    0.5762    0.1030 S   0  0  0  0  0  0  0  0  0  0  0  0
   -1.7930   -3.9591   -1.0460 O   0  0  0  0  0  0  0  0  0  0  0  0
    0.1602   -3.3367   -1.9276 O   0  0  0  0  0  0  0  0  0  0  0  0
   -2.9464   -3.2954    1.2627 O   0  0  0  0  0  0  0  0  0  0  0  0
   -6.0461   -2.0250    0.0811 O   0  0  0  0  0  0  0  0  0  0  0  0
   -3.3966   -1.4290    0.0116 N   0  0  0  0  0  0  0  0  0  0  0  0
    2.3650    1.0197   -0.1061 C   0  0  3  0  0  0  0  0  0  0  0  0
    3.4718    2.0451    0.3493 C   0  0  0  0  0  0  0  0  0  0  0  0
    2.5838   -0.4035    0.4725 C   0  0  0  0  0  0  0  0  0  0  0  0
    0.8966    1.4891    0.1728 C   0  0  0  0  0  0  0  0  0  0  0  0
    1.6689   -1.4214   -0.2174 C   0  0  0  0  0  0  0  0  0  0  0  0
   -0.0881    0.3574    0.0147 C   0  0  0  0  0  0  0  0  0  0  0  0
    0.2431   -0.9630   -0.2053 C   0  0  0  0  0  0  0  0  0  0  0  0
    4.8701    1.5646   -0.1101 C   0  0  0  0  0  0  0  0  0  0  0  0
    3.2294    3.4172   -0.3117 C   0  0  0  0  0  0  0  0  0  0  0  0
    3.5105    2.2301    1.8745 C   0  0  0  0  0  0  0  0  0  0  0  0
   -0.9128   -1.7805   -0.5057 C   0  0  0  0  0  0  0  0  0  0  0  0
   -2.0618   -1.0926   -0.1414 C   0  0  0  0  0  0  0  0  0  0  0  0
   -0.7863   -3.0748   -1.2020 C   0  0  0  0  0  0  0  0  0  0  0  0
   -3.7731   -2.5157    0.7759 C   0  0  0  0  0  0  0  0  0  0  0  0
   -5.1985   -2.7328    0.8913 C   0  0  0  0  0  0  0  0  0  0  0  0
   -5.9265   -3.6475    1.6324 C   0  0  0  0  0  0  0  0  0  0  0  0
   -7.2690   -3.5463    1.1939 C   0  0  0  0  0  0  0  0  0  0  0  0
   -7.2880   -2.5476    0.2512 C   0  0  0  0  0  0  0  0  0  0  0  0
   -2.2787   -3.7746   -0.2226 H   0  0  0  0  0  0  0  0  0  0  0  0
   -4.0806   -0.6802   -0.0484 H   0  0  0  0  0  0  0  0  0  0  0  0
    2.4550    0.9265   -1.1989 H   0  0  0  0  0  0  0  0  0  0  0  0
    3.6134   -0.7448    0.3371 H   0  0  0  0  0  0  0  0  0  0  0  0
    2.3839   -0.4007    1.5507 H   0  0  0  0  0  0  0  0  0  0  0  0
    0.7997    1.9001    1.1826 H   0  0  0  0  0  0  0  0  0  0  0  0
    0.6373    2.2831   -0.5375 H   0  0  0  0  0  0  0  0  0  0  0  0
    2.0006   -1.5727   -1.2504 H   0  0  0  0  0  0  0  0  0  0  0  0
    1.7526   -2.3809    0.3079 H   0  0  0  0  0  0  0  0  0  0  0  0
    4.8842    1.3610   -1.1849 H   0  0  0  0  0  0  0  0  0  0  0  0
    5.6331    2.3252    0.0964 H   0  0  0  0  0  0  0  0  0  0  0  0
    5.1890    0.6584    0.4157 H   0  0  0  0  0  0  0  0  0  0  0  0
    2.2840    3.8636    0.0071 H   0  0  0  0  0  0  0  0  0  0  0  0
    4.0251    4.1245   -0.0470 H   0  0  0  0  0  0  0  0  0  0  0  0
    3.2164    3.3318   -1.4041 H   0  0  0  0  0  0  0  0  0  0  0  0
    2.5640    2.6218    2.2663 H   0  0  0  0  0  0  0  0  0  0  0  0
    3.7256    1.2880    2.3919 H   0  0  0  0  0  0  0  0  0  0  0  0
    4.2927    2.9379    2.1600 H   0  0  0  0  0  0  0  0  0  0  0  0
   -5.5206   -4.3435    2.3555 H   0  0  0  0  0  0  0  0  0  0  0  0
   -8.1133   -4.1440    1.5088 H   0  0  0  0  0  0  0  0  0  0  0  0
   -8.0632   -2.1228   -0.3733 H   0  0  0  0  0  0  0  0  0  0  0  0
  1 12  1  0  0  0  0
  1 18  1  0  0  0  0
  2 19  1  0  0  0  0
  2 25  1  0  0  0  0
  3 19  2  0  0  0  0
  4 20  2  0  0  0  0
  5 21  1  0  0  0  0
  5 24  1  0  0  0  0
  6 18  1  0  0  0  0
  6 20  1  0  0  0  0
  6 26  1  0  0  0  0
  7  8  1  0  0  0  0
  7  9  1  0  0  0  0
  7 10  1  0  0  0  0
  7 27  1  0  0  0  0
  8 14  1  0  0  0  0
  8 15  1  0  0  0  0
  8 16  1  0  0  0  0
  9 11  1  0  0  0  0
  9 28  1  0  0  0  0
  9 29  1  0  0  0  0
 10 12  1  0  0  0  0
 10 30  1  0  0  0  0
 10 31  1  0  0  0  0
 11 13  1  0  0  0  0
 11 32  1  0  0  0  0
 11 33  1  0  0  0  0
 12 13  2  0  0  0  0
 13 17  1  0  0  0  0
 14 34  1  0  0  0  0
 14 35  1  0  0  0  0
 14 36  1  0  0  0  0
 15 37  1  0  0  0  0
 15 38  1  0  0  0  0
 15 39  1  0  0  0  0
 16 40  1  0  0  0  0
 16 41  1  0  0  0  0
 16 42  1  0  0  0  0
 17 18  2  0  0  0  0
 17 19  1  0  0  0  0
 20 21  1  0  0  0  0
 21 22  2  0  0  0  0
 22 23  1  0  0  0  0
 22 43  1  0  0  0  0
 23 24  2  0  0  0  0
 23 44  1  0  0  0  0
 24 45  1  0  0  0  0
M  END
>  <Mol_ID>
5042

>  <Formula>
C18H21NO4S

>  <MolWeight>
347.42864

>  <Cat>
S0125

>  <Name>
CaCCinh-A01

>  <Synonyms>
TMEM16 Blocker I

>  <Target>
Chloride Channel

>  <Form>
free base

>  <CAS>
407587-33-1

>  <URL>
http://www.selleckchem.com/products/caccinh-a01.html

$$$$
