CADD522
 OpenBabel08302521243D

 34 36  0  0  0  0  0  0  0  0999 V2000
    0.6756    1.6358   -2.8889 O   0  0  0  0  0  0  0  0  0  0  0  0
    0.8143    1.0593    0.7210 O   0  0  0  0  0  0  0  0  0  0  0  0
    0.3492   -0.5618   -3.0116 O   0  0  0  0  0  0  0  0  0  0  0  0
    0.7908    3.0676   -0.4071 N   0  0  0  0  0  0  0  0  0  0  0  0
   -1.8276    0.5004    0.4345 C   0  0  3  0  0  0  0  0  0  0  0  0
   -2.0576   -0.5026   -1.5499 C   0  0  3  0  0  0  0  0  0  0  0  0
   -1.1932    1.5529   -0.5383 C   0  0  3  0  0  0  0  0  0  0  0  0
   -1.3441    0.8388   -1.9224 C   0  0  3  0  0  0  0  0  0  0  0  0
   -1.3721   -0.8180   -0.2123 C   0  0  0  0  0  0  0  0  0  0  0  0
   -3.3064    0.2885    0.2084 C   0  0  0  0  0  0  0  0  0  0  0  0
   -3.4497   -0.2908   -0.9922 C   0  0  0  0  0  0  0  0  0  0  0  0
    0.2430    1.8618   -0.0164 C   0  0  0  0  0  0  0  0  0  0  0  0
   -0.0430    0.5280   -2.6306 C   0  0  0  0  0  0  0  0  0  0  0  0
    2.0047    3.6628    0.0556 C   0  0  0  0  0  0  0  0  0  0  0  0
    2.8188    3.1129    1.0536 C   0  0  0  0  0  0  0  0  0  0  0  0
    2.3908    4.8970   -0.4864 C   0  0  0  0  0  0  0  0  0  0  0  0
    3.9644    3.7859    1.5137 C   0  0  0  0  0  0  0  0  0  0  0  0
    3.5385    5.5685   -0.0312 C   0  0  0  0  0  0  0  0  0  0  0  0
    4.3225    5.0161    0.9767 C   0  0  0  0  0  0  0  0  0  0  0  0
    1.5040    1.2763   -3.2757 H   0  0  0  0  0  0  0  0  0  0  0  0
    0.2964    3.5859   -1.1359 H   0  0  0  0  0  0  0  0  0  0  0  0
   -1.5864    0.6465    1.4889 H   0  0  0  0  0  0  0  0  0  0  0  0
   -2.0149   -1.3022   -2.2928 H   0  0  0  0  0  0  0  0  0  0  0  0
   -1.7748    2.4860   -0.5346 H   0  0  0  0  0  0  0  0  0  0  0  0
   -1.9769    1.4181   -2.6110 H   0  0  0  0  0  0  0  0  0  0  0  0
   -1.7706   -1.7139    0.2818 H   0  0  0  0  0  0  0  0  0  0  0  0
   -0.2900   -0.9316   -0.3065 H   0  0  0  0  0  0  0  0  0  0  0  0
   -4.0521    0.2381    0.9931 H   0  0  0  0  0  0  0  0  0  0  0  0
   -4.3389   -0.8282   -1.3028 H   0  0  0  0  0  0  0  0  0  0  0  0
    2.5936    2.1560    1.5137 H   0  0  0  0  0  0  0  0  0  0  0  0
    1.8021    5.3714   -1.2664 H   0  0  0  0  0  0  0  0  0  0  0  0
    4.5703    3.3423    2.3028 H   0  0  0  0  0  0  0  0  0  0  0  0
    3.8165    6.5301   -0.4561 H   0  0  0  0  0  0  0  0  0  0  0  0
    5.2022    5.5399    1.3438 H   0  0  0  0  0  0  0  0  0  0  0  0
  1 13  1  0  0  0  0
  1 20  1  0  0  0  0
  2 12  2  0  0  0  0
  3 13  2  0  0  0  0
  4 12  1  0  0  0  0
  4 14  1  0  0  0  0
  4 21  1  0  0  0  0
  5  7  1  0  0  0  0
  5  9  1  0  0  0  0
  5 10  1  0  0  0  0
  5 22  1  0  0  0  0
  6  8  1  0  0  0  0
  6  9  1  0  0  0  0
  6 11  1  0  0  0  0
  6 23  1  0  0  0  0
  7  8  1  0  0  0  0
  7 12  1  0  0  0  0
  7 24  1  0  0  0  0
  8 13  1  0  0  0  0
  8 25  1  0  0  0  0
  9 26  1  0  0  0  0
  9 27  1  0  0  0  0
 10 11  2  0  0  0  0
 10 28  1  0  0  0  0
 11 29  1  0  0  0  0
 14 15  2  0  0  0  0
 14 16  1  0  0  0  0
 15 17  1  0  0  0  0
 15 30  1  0  0  0  0
 16 18  2  0  0  0  0
 16 31  1  0  0  0  0
 17 19  2  0  0  0  0
 17 32  1  0  0  0  0
 18 19  1  0  0  0  0
 18 33  1  0  0  0  0
 19 34  1  0  0  0  0
M  END
>  <Mol_ID>
5087

>  <Formula>
C15H13Cl2NO3

>  <MolWeight>
326.17462

>  <Cat>
S0790

>  <Name>
CADD522

>  <Synonyms>
N/A

>  <Target>
RUNX

>  <Form>
free base

>  <CAS>
199735-88-1

>  <URL>
http://www.selleckchem.com/products/cadd522.html

$$$$
