Calcium 2-hydroxy-4-(methylthio)butanoate
 OpenBabel08302521383D

 38 36  0  0  0  0  0  0  0  0999 V2000
    1.7764   -2.1916    2.2460 S   0  0  0  0  0  0  0  0  0  0  0  0
    1.8971    2.0474   -2.2333 S   0  0  0  0  0  0  0  0  0  0  0  0
   -1.5236   -1.1644   -0.9694 O   0  0  0  0  0  0  0  0  0  0  0  0
    1.5122    3.0916    2.7705 O   0  0  0  0  0  0  0  0  0  0  0  0
   -3.8608   -1.7739   -0.6618 O   0  0  0  0  0  0  0  0  0  0  0  0
   -0.6851    4.2390    2.2985 O   0  0  0  0  0  0  0  0  0  0  0  0
   -3.9045   -1.6882    1.6084 O   0  0  0  0  0  0  0  0  0  0  0  0
   -1.5669    2.5889    1.0121 O   0  0  0  0  0  0  0  0  0  0  0  0
   -0.9260   -1.8348    1.3377 C   0  0  0  0  0  0  0  0  0  0  0  0
    1.5421    2.4045    0.4596 C   0  0  0  0  0  0  0  0  0  0  0  0
   -1.8641   -1.0246    0.4259 C   0  0  3  0  0  0  0  0  0  0  0  0
    0.7440    2.4097    1.7641 C   0  0  3  0  0  0  0  0  0  0  0  0
    0.5191   -1.3676    1.2195 C   0  0  0  0  0  0  0  0  0  0  0  0
    0.7760    1.9765   -0.7956 C   0  0  0  0  0  0  0  0  0  0  0  0
   -3.3065   -1.5227    0.5582 C   0  0  0  0  0  0  0  0  0  0  0  0
   -0.6263    3.0688    1.6350 C   0  0  0  0  0  0  0  0  0  0  0  0
    1.2253   -1.8131    3.9300 C   0  0  0  0  0  0  0  0  0  0  0  0
    0.7253    1.6234   -3.5482 C   0  0  0  0  0  0  0  0  0  0  0  0
   -0.5884   -0.9297   -1.0908 H   0  0  0  0  0  0  0  0  0  0  0  0
    2.2137    2.4709    3.0513 H   0  0  0  0  0  0  0  0  0  0  0  0
   -3.1504   -1.5853   -1.3316 H   0  0  0  0  0  0  0  0  0  0  0  0
    0.1803    4.3718    2.7530 H   0  0  0  0  0  0  0  0  0  0  0  0
   -0.9859   -2.8943    1.0669 H   0  0  0  0  0  0  0  0  0  0  0  0
   -1.2730   -1.7370    2.3762 H   0  0  0  0  0  0  0  0  0  0  0  0
    2.4081    1.7433    0.6040 H   0  0  0  0  0  0  0  0  0  0  0  0
    1.9576    3.4089    0.3076 H   0  0  0  0  0  0  0  0  0  0  0  0
   -1.8591    0.0420    0.6677 H   0  0  0  0  0  0  0  0  0  0  0  0
    0.5592    1.4173    2.1688 H   0  0  0  0  0  0  0  0  0  0  0  0
    0.5759   -0.3041    1.4103 H   0  0  0  0  0  0  0  0  0  0  0  0
    0.8660   -1.5047    0.1926 H   0  0  0  0  0  0  0  0  0  0  0  0
   -0.0671    2.6427   -0.9947 H   0  0  0  0  0  0  0  0  0  0  0  0
    0.4081    0.9544   -0.6937 H   0  0  0  0  0  0  0  0  0  0  0  0
    2.0833   -1.9268    4.6024 H   0  0  0  0  0  0  0  0  0  0  0  0
    0.8524   -0.7907    4.0324 H   0  0  0  0  0  0  0  0  0  0  0  0
    0.4615   -2.5291    4.2401 H   0  0  0  0  0  0  0  0  0  0  0  0
    1.2328    1.6974   -4.5145 H   0  0  0  0  0  0  0  0  0  0  0  0
    0.3735    0.5966   -3.4208 H   0  0  0  0  0  0  0  0  0  0  0  0
   -0.1258    2.3094   -3.5531 H   0  0  0  0  0  0  0  0  0  0  0  0
  1 13  1  0  0  0  0
  1 17  1  0  0  0  0
  2 14  1  0  0  0  0
  2 18  1  0  0  0  0
  3 11  1  0  0  0  0
  3 19  1  0  0  0  0
  4 12  1  0  0  0  0
  4 20  1  0  0  0  0
  5 15  1  0  0  0  0
  5 21  1  0  0  0  0
  6 16  1  0  0  0  0
  6 22  1  0  0  0  0
  7 15  2  0  0  0  0
  8 16  2  0  0  0  0
  9 11  1  0  0  0  0
  9 13  1  0  0  0  0
  9 23  1  0  0  0  0
  9 24  1  0  0  0  0
 10 12  1  0  0  0  0
 10 14  1  0  0  0  0
 10 25  1  0  0  0  0
 10 26  1  0  0  0  0
 11 15  1  0  0  0  0
 11 27  1  0  0  0  0
 12 16  1  0  0  0  0
 12 28  1  0  0  0  0
 13 29  1  0  0  0  0
 13 30  1  0  0  0  0
 14 31  1  0  0  0  0
 14 32  1  0  0  0  0
 17 33  1  0  0  0  0
 17 34  1  0  0  0  0
 17 35  1  0  0  0  0
 18 36  1  0  0  0  0
 18 37  1  0  0  0  0
 18 38  1  0  0  0  0
M  END
>  <Mol_ID>
7958

>  <Formula>
C10H18CaO6S2

>  <MolWeight>
338.45432

>  <Cat>
S3049

>  <Name>
Calcium 2-hydroxy-4-(methylthio)butanoate

>  <Synonyms>
N/A

>  <Target>
Others

>  <Form>
Free Base

>  <CAS>
4857-44-7

>  <URL>
https://www.selleckchem.com/products/calcium-2-hydroxy-4-methylthio-butanoate.html

$$$$
