Camalexin
 OpenBabel08302521323D

 22 24  0  0  0  0  0  0  0  0999 V2000
   -1.5650    1.0161   -0.1234 N   0  0  0  0  0  0  0  0  0  0  0  0
   -2.3843   -0.0829   -0.1313 C   0  0  0  0  0  0  0  0  0  0  0  0
   -1.5878   -1.2069   -0.0437 C   0  0  0  0  0  0  0  0  0  0  0  0
   -0.2282   -0.7669    0.0094 C   0  0  0  0  0  0  0  0  0  0  0  0
    1.0239   -1.4134    0.0882 C   0  0  0  0  0  0  0  0  0  0  0  0
    2.1985   -0.6528    0.1015 C   0  0  0  0  0  0  0  0  0  0  0  0
    2.1437    0.7360    0.0424 C   0  0  0  0  0  0  0  0  0  0  0  0
    0.9190    1.4053   -0.0297 C   0  0  0  0  0  0  0  0  0  0  0  0
   -0.2470    0.6291   -0.0483 C   0  0  0  0  0  0  0  0  0  0  0  0
   -3.7441   -3.0557   -0.1819 S   0  0  0  0  0  0  0  0  0  0  0  0
   -2.0813   -2.6255   -0.0206 C   0  0  0  0  0  0  0  0  0  0  0  0
   -1.2591   -3.6469    0.1202 N   0  0  0  0  0  0  0  0  0  0  0  0
   -1.9640   -4.8329    0.1000 C   0  0  0  0  0  0  0  0  0  0  0  0
   -3.3246   -4.7120   -0.0687 C   0  0  0  0  0  0  0  0  0  0  0  0
   -1.8761    1.9760   -0.1741 H   0  0  0  0  0  0  0  0  0  0  0  0
   -3.4569    0.0383   -0.1926 H   0  0  0  0  0  0  0  0  0  0  0  0
    1.0783   -2.4979    0.1324 H   0  0  0  0  0  0  0  0  0  0  0  0
    3.1606   -1.1575    0.1546 H   0  0  0  0  0  0  0  0  0  0  0  0
    3.0677    1.3097    0.0516 H   0  0  0  0  0  0  0  0  0  0  0  0
    0.8812    2.4888   -0.0751 H   0  0  0  0  0  0  0  0  0  0  0  0
   -1.4284   -5.7680    0.2099 H   0  0  0  0  0  0  0  0  0  0  0  0
   -4.0686   -5.4929   -0.1247 H   0  0  0  0  0  0  0  0  0  0  0  0
  1  2  1  0  0  0  0
  1  9  1  0  0  0  0
  1 15  1  0  0  0  0
  2  3  2  0  0  0  0
  2 16  1  0  0  0  0
  3  4  1  0  0  0  0
  3 11  1  0  0  0  0
  4  5  1  0  0  0  0
  4  9  2  0  0  0  0
  5  6  2  0  0  0  0
  5 17  1  0  0  0  0
  6  7  1  0  0  0  0
  6 18  1  0  0  0  0
  7  8  2  0  0  0  0
  7 19  1  0  0  0  0
  8  9  1  0  0  0  0
  8 20  1  0  0  0  0
 10 11  1  0  0  0  0
 10 14  1  0  0  0  0
 11 12  2  0  0  0  0
 12 13  1  0  0  0  0
 13 14  2  0  0  0  0
 13 21  1  0  0  0  0
 14 22  1  0  0  0  0
M  END
>  <Mol_ID>
6182

>  <Formula>
C11H8N2S

>  <MolWeight>
200.25962

>  <Cat>
S0770

>  <Name>
Camalexin

>  <Synonyms>
N/A

>  <Target>
Fungal,ROS

>  <Form>
free base

>  <CAS>
135531-86-1

>  <URL>
http://www.selleckchem.com/products/camalexin.html

$$$$
