Cambinol
 OpenBabel08302520143D

 42 45  0  0  0  0  0  0  0  0999 V2000
   -1.8076    0.9932   -0.1240 C   0  0  0  0  0  0  0  0  0  0  0  0
   -1.1200    0.8777   -1.2795 C   0  0  0  0  0  0  0  0  0  0  0  0
   -1.0627    0.7344    1.1430 C   0  0  0  0  0  0  0  0  0  0  0  0
    0.2684    0.4326    1.0209 N   0  0  0  0  0  0  0  0  0  0  0  0
    0.9342    0.3087   -0.1593 C   0  0  0  0  0  0  0  0  0  0  0  0
    0.2113    0.5392   -1.2882 N   0  0  0  0  0  0  0  0  0  0  0  0
   -3.2708    1.3298    0.0172 C   0  0  0  0  0  0  0  0  0  0  0  0
   -4.2993    0.1994   -0.0806 C   0  0  0  0  0  0  0  0  0  0  0  0
   -5.7003    0.5319   -0.0459 C   0  0  0  0  0  0  0  0  0  0  0  0
    2.5433   -0.1025   -0.2215 S   0  0  0  0  0  0  0  0  0  0  0  0
   -3.9395   -1.1556   -0.2203 C   0  0  0  0  0  0  0  0  0  0  0  0
   -1.5948    0.7946    2.2475 O   0  0  0  0  0  0  0  0  0  0  0  0
   -1.7466    1.0525   -2.5997 C   0  0  0  0  0  0  0  0  0  0  0  0
   -6.6588   -0.5077   -0.1956 C   0  0  0  0  0  0  0  0  0  0  0  0
   -4.8942   -2.1545   -0.3760 C   0  0  0  0  0  0  0  0  0  0  0  0
   -6.2443   -1.8274   -0.3728 C   0  0  0  0  0  0  0  0  0  0  0  0
   -2.6284   -1.5428   -0.2134 O   0  0  0  0  0  0  0  0  0  0  0  0
   -6.2150    1.8404    0.1380 C   0  0  0  0  0  0  0  0  0  0  0  0
   -1.7791    2.3122   -3.2037 C   0  0  0  0  0  0  0  0  0  0  0  0
   -2.3132   -0.0442   -3.2652 C   0  0  0  0  0  0  0  0  0  0  0  0
   -8.0346   -0.2287   -0.1634 C   0  0  0  0  0  0  0  0  0  0  0  0
   -7.5897    2.1031    0.1742 C   0  0  0  0  0  0  0  0  0  0  0  0
   -2.9258    0.1243   -4.5071 C   0  0  0  0  0  0  0  0  0  0  0  0
   -2.3866    2.4778   -4.4491 C   0  0  0  0  0  0  0  0  0  0  0  0
   -8.4992    1.0671    0.0240 C   0  0  0  0  0  0  0  0  0  0  0  0
   -2.9635    1.3852   -5.0974 C   0  0  0  0  0  0  0  0  0  0  0  0
    0.7662    0.2537    1.8802 H   0  0  0  0  0  0  0  0  0  0  0  0
    0.6844    0.4281   -2.1795 H   0  0  0  0  0  0  0  0  0  0  0  0
   -3.4255    1.8507    0.9715 H   0  0  0  0  0  0  0  0  0  0  0  0
   -3.5189    2.0705   -0.7553 H   0  0  0  0  0  0  0  0  0  0  0  0
   -4.6067   -3.1941   -0.4976 H   0  0  0  0  0  0  0  0  0  0  0  0
   -6.9708   -2.6259   -0.4997 H   0  0  0  0  0  0  0  0  0  0  0  0
   -2.5656   -2.4947   -0.3907 H   0  0  0  0  0  0  0  0  0  0  0  0
   -5.5459    2.6888    0.2662 H   0  0  0  0  0  0  0  0  0  0  0  0
   -1.3370    3.1727   -2.7068 H   0  0  0  0  0  0  0  0  0  0  0  0
   -2.2931   -1.0318   -2.8126 H   0  0  0  0  0  0  0  0  0  0  0  0
   -8.7597   -1.0315   -0.2783 H   0  0  0  0  0  0  0  0  0  0  0  0
   -7.9465    3.1180    0.3290 H   0  0  0  0  0  0  0  0  0  0  0  0
   -3.3808   -0.7266   -5.0081 H   0  0  0  0  0  0  0  0  0  0  0  0
   -2.4147    3.4607   -4.9125 H   0  0  0  0  0  0  0  0  0  0  0  0
   -9.5675    1.2616    0.0588 H   0  0  0  0  0  0  0  0  0  0  0  0
   -3.4447    1.5187   -6.0632 H   0  0  0  0  0  0  0  0  0  0  0  0
  2  1  2  0  0  0  0
  3  1  1  0  0  0  0
  4  3  1  0  0  0  0
  4 27  1  0  0  0  0
  5  4  1  0  0  0  0
  5  6  1  0  0  0  0
  6  2  1  0  0  0  0
  6 28  1  0  0  0  0
  7  1  1  0  0  0  0
  7 29  1  0  0  0  0
  7 30  1  0  0  0  0
  8  7  1  0  0  0  0
  9  8  1  0  0  0  0
 10  5  2  0  0  0  0
 11  8  2  0  0  0  0
 12  3  2  0  0  0  0
 13  2  1  0  0  0  0
 14  9  2  0  0  0  0
 15 11  1  0  0  0  0
 15 31  1  0  0  0  0
 16 14  1  0  0  0  0
 16 15  2  0  0  0  0
 16 32  1  0  0  0  0
 17 11  1  0  0  0  0
 17 33  1  0  0  0  0
 18  9  1  0  0  0  0
 18 34  1  0  0  0  0
 19 13  2  0  0  0  0
 19 35  1  0  0  0  0
 20 13  1  0  0  0  0
 20 36  1  0  0  0  0
 21 14  1  0  0  0  0
 21 37  1  0  0  0  0
 22 18  2  0  0  0  0
 22 38  1  0  0  0  0
 23 20  2  0  0  0  0
 23 39  1  0  0  0  0
 24 19  1  0  0  0  0
 24 40  1  0  0  0  0
 25 21  2  0  0  0  0
 25 22  1  0  0  0  0
 25 41  1  0  0  0  0
 26 23  1  0  0  0  0
 26 24  2  0  0  0  0
 26 42  1  0  0  0  0
M  END
>  <Mol_ID>
3176

>  <Formula>
C21H16N2O2S

>  <MolWeight>
360.42894

>  <Cat>
S5913

>  <Name>
Cambinol

>  <Synonyms>
N/A

>  <Target>
Phospholipase (e.g. PLA)

>  <Form>
Free Base

>  <CAS>
14513-15-6

>  <URL>
http://www.selleckchem.com/products/cambinol.html

$$$$
