Camostat mesilate.cdx
 OpenBabel08302522003D

 60 60  0  0  0  0  0  0  0  0999 V2000
    4.2293   -2.0954    1.0144 C   0  0  0  0  0  0  0  0  0  0  0  0
    3.8086   -0.6728    1.4364 C   0  0  0  0  0  0  0  0  0  0  0  0
    4.4722   -2.5307   -0.2954 C   0  0  0  0  0  0  0  0  0  0  0  0
    4.2652   -3.1063    2.0021 C   0  0  0  0  0  0  0  0  0  0  0  0
    4.2185    0.4149    0.6153 O   0  0  0  0  0  0  0  0  0  0  0  0
    3.1444   -0.5258    2.4585 O   0  0  0  0  0  0  0  0  0  0  0  0
    4.7467   -3.9105   -0.5865 C   0  0  0  0  0  0  0  0  0  0  0  0
    4.5791   -4.4646    1.7150 C   0  0  0  0  0  0  0  0  0  0  0  0
    3.8409    1.8356    0.7056 C   0  0  0  0  0  0  0  0  0  0  0  0
    4.8333   -4.9023    0.4131 C   0  0  0  0  0  0  0  0  0  0  0  0
    3.0649    2.3993    1.7248 C   0  0  0  0  0  0  0  0  0  0  0  0
    4.2206    2.6634   -0.3601 C   0  0  0  0  0  0  0  0  0  0  0  0
    5.0921   -6.2673    0.0816 N   0  0  0  0  0  0  0  0  0  0  0  0
    2.5899    3.7358    1.6211 C   0  0  0  0  0  0  0  0  0  0  0  0
    3.7671    4.0052   -0.4485 C   0  0  0  0  0  0  0  0  0  0  0  0
    5.5872   -7.2446    0.9011 C   0  0  0  0  0  0  0  0  0  0  0  0
    2.9081    4.5476    0.5187 C   0  0  0  0  0  0  0  0  0  0  0  0
    6.6635   -6.9044    1.6461 N   0  0  0  0  0  0  0  0  0  0  0  0
    5.1385   -8.4505    0.8910 N   0  0  0  0  0  0  0  0  0  0  0  0
    2.2812    5.9173    0.3366 C   0  0  0  0  0  0  0  0  0  0  0  0
    3.0142    7.1153    0.9113 C   0  0  0  0  0  0  0  0  0  0  0  0
    4.1869    7.3449    0.2525 O   0  0  0  0  0  0  0  0  0  0  0  0
    2.5251    7.8684    1.7465 O   0  0  0  0  0  0  0  0  0  0  0  0
    4.7779    8.6418    0.4264 C   0  0  0  0  0  0  0  0  0  0  0  0
    6.1103    8.6884    1.2027 C   0  0  0  0  0  0  0  0  0  0  0  0
    6.7794    9.9192    1.2286 N   0  0  0  0  0  0  0  0  0  0  0  0
    6.5645    7.6825    1.7506 O   0  0  0  0  0  0  0  0  0  0  0  0
    8.0688   10.0276    1.8972 C   0  0  0  0  0  0  0  0  0  0  0  0
    6.2753   11.1336    0.6054 C   0  0  0  0  0  0  0  0  0  0  0  0
    0.2243    0.0503   -0.7013 S   0  0  0  0  0  0  0  0  0  0  0  0
   -0.0052   -0.0841    1.0601 C   0  0  0  0  0  0  0  0  0  0  0  0
   -0.3711    1.5357   -0.9125 O   0  0  0  0  0  0  0  0  0  0  0  0
   -0.6565   -0.8882   -1.3780 O   0  0  0  0  0  0  0  0  0  0  0  0
    1.6298    0.1335   -1.0219 O   0  0  0  0  0  0  0  0  0  0  0  0
    4.4160   -1.8289   -1.1222 H   0  0  0  0  0  0  0  0  0  0  0  0
    4.0268   -2.8578    3.0359 H   0  0  0  0  0  0  0  0  0  0  0  0
    4.8984   -4.2043   -1.6283 H   0  0  0  0  0  0  0  0  0  0  0  0
    4.5874   -5.1882    2.5301 H   0  0  0  0  0  0  0  0  0  0  0  0
    2.7995    1.8343    2.6131 H   0  0  0  0  0  0  0  0  0  0  0  0
    4.8689    2.2801   -1.1442 H   0  0  0  0  0  0  0  0  0  0  0  0
    4.3425   -6.6459   -0.4938 H   0  0  0  0  0  0  0  0  0  0  0  0
    1.9382    4.1274    2.3994 H   0  0  0  0  0  0  0  0  0  0  0  0
    4.0687    4.6094   -1.3003 H   0  0  0  0  0  0  0  0  0  0  0  0
    7.2386   -7.6764    1.9619 H   0  0  0  0  0  0  0  0  0  0  0  0
    7.2182   -6.1866    1.1934 H   0  0  0  0  0  0  0  0  0  0  0  0
    5.6656   -9.0177    1.5679 H   0  0  0  0  0  0  0  0  0  0  0  0
    2.1029    6.1191   -0.7308 H   0  0  0  0  0  0  0  0  0  0  0  0
    1.2724    5.9103    0.7758 H   0  0  0  0  0  0  0  0  0  0  0  0
    4.9835    8.9951   -0.5866 H   0  0  0  0  0  0  0  0  0  0  0  0
    4.0837    9.3529    0.8885 H   0  0  0  0  0  0  0  0  0  0  0  0
    8.8196   10.3363    1.1630 H   0  0  0  0  0  0  0  0  0  0  0  0
    7.9959   10.7902    2.6785 H   0  0  0  0  0  0  0  0  0  0  0  0
    8.3841    9.0850    2.3503 H   0  0  0  0  0  0  0  0  0  0  0  0
    6.2026   10.9834   -0.4757 H   0  0  0  0  0  0  0  0  0  0  0  0
    5.2873   11.3676    1.0099 H   0  0  0  0  0  0  0  0  0  0  0  0
    6.9473   11.9757    0.8020 H   0  0  0  0  0  0  0  0  0  0  0  0
    0.4434    0.7789    1.5536 H   0  0  0  0  0  0  0  0  0  0  0  0
   -1.0748   -0.1404    1.2757 H   0  0  0  0  0  0  0  0  0  0  0  0
    0.4855   -1.0020    1.3899 H   0  0  0  0  0  0  0  0  0  0  0  0
    0.2933    2.0548   -1.4156 H   0  0  0  0  0  0  0  0  0  0  0  0
  1  2  1  0  0  0  0
  1  3  2  0  0  0  0
  1  4  1  0  0  0  0
  2  5  1  0  0  0  0
  2  6  2  0  0  0  0
  3  7  1  0  0  0  0
  3 35  1  0  0  0  0
  4  8  2  0  0  0  0
  4 36  1  0  0  0  0
  5  9  1  0  0  0  0
  7 10  2  0  0  0  0
  7 37  1  0  0  0  0
  8 10  1  0  0  0  0
  8 38  1  0  0  0  0
  9 11  2  0  0  0  0
  9 12  1  0  0  0  0
 10 13  1  0  0  0  0
 11 14  1  0  0  0  0
 11 39  1  0  0  0  0
 12 15  2  0  0  0  0
 12 40  1  0  0  0  0
 13 16  1  0  0  0  0
 13 41  1  0  0  0  0
 14 17  2  0  0  0  0
 14 42  1  0  0  0  0
 15 17  1  0  0  0  0
 15 43  1  0  0  0  0
 16 18  1  0  0  0  0
 16 19  2  0  0  0  0
 17 20  1  0  0  0  0
 18 44  1  0  0  0  0
 18 45  1  0  0  0  0
 19 46  1  0  0  0  0
 20 21  1  0  0  0  0
 20 47  1  0  0  0  0
 20 48  1  0  0  0  0
 21 22  1  0  0  0  0
 21 23  2  0  0  0  0
 22 24  1  0  0  0  0
 24 25  1  0  0  0  0
 24 49  1  0  0  0  0
 24 50  1  0  0  0  0
 25 26  1  0  0  0  0
 25 27  2  0  0  0  0
 26 28  1  0  0  0  0
 26 29  1  0  0  0  0
 28 51  1  0  0  0  0
 28 52  1  0  0  0  0
 28 53  1  0  0  0  0
 29 54  1  0  0  0  0
 29 55  1  0  0  0  0
 29 56  1  0  0  0  0
 30 31  1  0  0  0  0
 30 32  1  0  0  0  0
 30 33  2  0  0  0  0
 30 34  2  0  0  0  0
 31 57  1  0  0  0  0
 31 58  1  0  0  0  0
 31 59  1  0  0  0  0
 32 60  1  0  0  0  0
M  END
>  <Mol_ID>
1052

>  <Formula>
C21H26N4O8S

>  <MolWeight>
494.51814

>  <Cat>
S2874

>  <Name>
Camostat Mesilate

>  <Synonyms>
FOY-305, FOY-S980

>  <Target>
COVID-19,Sodium Channel

>  <Form>
Mesilate

>  <CAS>
59721-29-8

>  <URL>
http://selleckchem.com/products/camostat-mesilate-foy-305.html

$$$$
