Camptothecine.cdx
 OpenBabel08302521393D

 42 46  0  0  0  0  0  0  0  0999 V2000
    2.7076    0.2372   -2.0991 O   0  0  0  0  0  0  0  0  0  0  0  0
    4.1096    0.2948   -2.1935 C   0  0  0  0  0  0  0  0  0  0  0  0
    4.8663    0.3800   -0.7958 C   0  0  1  0  0  0  0  0  0  0  0  0
    4.1367    1.6163   -0.2302 C   0  0  0  0  0  0  0  0  0  0  0  0
    2.7958    1.4873   -0.1193 C   0  0  0  0  0  0  0  0  0  0  0  0
    2.1709    0.2995   -0.7577 C   0  0  0  0  0  0  0  0  0  0  0  0
    4.6931    2.9866   -0.2836 C   0  0  0  0  0  0  0  0  0  0  0  0
    3.8945    4.0422   -0.1931 C   0  0  0  0  0  0  0  0  0  0  0  0
    2.5306    3.8639    0.0431 N   0  0  0  0  0  0  0  0  0  0  0  0
    1.9369    2.6551    0.1112 C   0  0  0  0  0  0  0  0  0  0  0  0
    0.6972    2.5004    0.3143 O   0  0  0  0  0  0  0  0  0  0  0  0
    4.1079    5.5062   -0.3190 C   0  0  0  0  0  0  0  0  0  0  0  0
    2.8840    6.1322   -0.1127 C   0  0  0  0  0  0  0  0  0  0  0  0
    1.8117    5.1304    0.1293 C   0  0  0  0  0  0  0  0  0  0  0  0
    4.6874    0.3034   -3.2774 O   0  0  0  0  0  0  0  0  0  0  0  0
    4.7079   -1.0380   -0.1411 C   0  0  0  0  0  0  0  0  0  0  0  0
    5.2592   -2.2171   -0.9392 C   0  0  0  0  0  0  0  0  0  0  0  0
    6.2567    0.6329   -0.6558 O   0  0  0  0  0  0  0  0  0  0  0  0
    5.2479    6.1466   -0.6119 N   0  0  0  0  0  0  0  0  0  0  0  0
    5.1548    7.5000   -0.6762 C   0  0  0  0  0  0  0  0  0  0  0  0
    3.9459    8.2184   -0.4356 C   0  0  0  0  0  0  0  0  0  0  0  0
    2.7814    7.5035   -0.1576 C   0  0  0  0  0  0  0  0  0  0  0  0
    6.2824    8.2522   -0.9792 C   0  0  0  0  0  0  0  0  0  0  0  0
    6.2546    9.6535   -1.0094 C   0  0  0  0  0  0  0  0  0  0  0  0
    5.0732   10.3377   -0.7455 C   0  0  0  0  0  0  0  0  0  0  0  0
    3.9139    9.6218   -0.4680 C   0  0  0  0  0  0  0  0  0  0  0  0
    1.1046    0.2191   -0.5319 H   0  0  0  0  0  0  0  0  0  0  0  0
    2.3581   -0.6935   -0.4019 H   0  0  0  0  0  0  0  0  0  0  0  0
    5.7552    3.1135   -0.5391 H   0  0  0  0  0  0  0  0  0  0  0  0
    1.0381    5.1677   -0.6458 H   0  0  0  0  0  0  0  0  0  0  0  0
    1.3769    5.2331    1.1268 H   0  0  0  0  0  0  0  0  0  0  0  0
    5.1218   -1.0601    0.8761 H   0  0  0  0  0  0  0  0  0  0  0  0
    3.7014   -1.3399    0.0905 H   0  0  0  0  0  0  0  0  0  0  0  0
    5.9843   -1.9338   -1.7026 H   0  0  0  0  0  0  0  0  0  0  0  0
    5.7529   -2.9198   -0.2569 H   0  0  0  0  0  0  0  0  0  0  0  0
    4.4508   -2.7746   -1.4389 H   0  0  0  0  0  0  0  0  0  0  0  0
    6.4839    0.4331    0.2778 H   0  0  0  0  0  0  0  0  0  0  0  0
    1.8310    7.9966    0.0140 H   0  0  0  0  0  0  0  0  0  0  0  0
    7.2157    7.7357   -1.1882 H   0  0  0  0  0  0  0  0  0  0  0  0
    7.1646   10.2065   -1.2297 H   0  0  0  0  0  0  0  0  0  0  0  0
    5.0530   11.4249   -0.7532 H   0  0  0  0  0  0  0  0  0  0  0  0
    2.9929   10.1644   -0.2648 H   0  0  0  0  0  0  0  0  0  0  0  0
  1  2  1  0  0  0  0
  2  3  1  0  0  0  0
  2 15  2  0  0  0  0
  3  4  1  0  0  0  0
  3 18  1  6  0  0  0
  3 16  1  0  0  0  0
  4  5  2  0  0  0  0
  4  7  1  0  0  0  0
  5  6  1  0  0  0  0
  6  1  1  0  0  0  0
  6 27  1  0  0  0  0
  6 28  1  0  0  0  0
  7  8  2  0  0  0  0
  7 29  1  0  0  0  0
  8  9  1  0  0  0  0
  8 12  1  0  0  0  0
  9 10  1  0  0  0  0
 10  5  1  0  0  0  0
 10 11  2  0  0  0  0
 12 13  2  0  0  0  0
 12 19  1  0  0  0  0
 13 14  1  0  0  0  0
 14  9  1  0  0  0  0
 14 30  1  0  0  0  0
 14 31  1  0  0  0  0
 16 17  1  0  0  0  0
 16 32  1  0  0  0  0
 16 33  1  0  0  0  0
 17 34  1  0  0  0  0
 17 35  1  0  0  0  0
 17 36  1  0  0  0  0
 18 37  1  0  0  0  0
 19 20  2  0  0  0  0
 20 21  1  0  0  0  0
 20 23  1  0  0  0  0
 21 22  2  0  0  0  0
 22 13  1  0  0  0  0
 22 38  1  0  0  0  0
 23 24  2  0  0  0  0
 23 39  1  0  0  0  0
 24 25  1  0  0  0  0
 24 40  1  0  0  0  0
 25 26  2  0  0  0  0
 25 41  1  0  0  0  0
 26 21  1  0  0  0  0
 26 42  1  0  0  0  0
M  END
>  <Mol_ID>
8214

>  <Formula>
C20H16N2O4

>  <MolWeight>
348.35204

>  <Cat>
S1288

>  <Name>
Camptothecin (NSC-100880)

>  <Synonyms>
CPT, Campathecin, (S)-(+)-Camptothecin

>  <Target>
ADC Cytotoxin,Apoptosis related,MicroRNA,Topoisomerase

>  <Form>
Free Base

>  <CAS>
7689-03-4

>  <URL>
http://selleckchem.com/products/Camptothecine.html

$$$$
