camylofine chlorhydrate.cdx
 OpenBabel08302519573D

 55 55  0  0  0  0  0  0  0  0999 V2000
    0.9210    0.5203   -0.5809 C   0  0  3  0  0  0  0  0  0  0  0  0
    0.6458   -0.1841   -1.9039 C   0  0  0  0  0  0  0  0  0  0  0  0
    0.2971   -0.1502    0.5891 N   0  0  0  0  0  0  0  0  0  0  0  0
    0.5104    2.0138   -0.6030 C   0  0  0  0  0  0  0  0  0  0  0  0
   -0.6476   -0.5600   -2.3010 C   0  0  0  0  0  0  0  0  0  0  0  0
    1.7042   -0.3548   -2.8133 C   0  0  0  0  0  0  0  0  0  0  0  0
    1.0011   -1.3645    1.0393 C   0  0  0  0  0  0  0  0  0  0  0  0
    0.6255    2.5473   -1.8493 O   0  0  0  0  0  0  0  0  0  0  0  0
    0.2020    2.6502    0.4029 O   0  0  0  0  0  0  0  0  0  0  0  0
   -0.8765   -1.0653   -3.5846 C   0  0  0  0  0  0  0  0  0  0  0  0
    1.4743   -0.8590   -4.0923 C   0  0  0  0  0  0  0  0  0  0  0  0
    2.4979   -1.1790    1.4141 C   0  0  0  0  0  0  0  0  0  0  0  0
    0.1694    3.8883   -2.0648 C   0  0  0  0  0  0  0  0  0  0  0  0
    0.1819   -1.2023   -4.4821 C   0  0  0  0  0  0  0  0  0  0  0  0
    3.1594   -2.3759    1.9696 N   0  0  0  0  0  0  0  0  0  0  0  0
   -1.2483    3.8724   -2.6504 C   0  0  0  0  0  0  0  0  0  0  0  0
    3.1650   -3.5261    1.0438 C   0  0  0  0  0  0  0  0  0  0  0  0
    4.5247   -2.0817    2.4447 C   0  0  0  0  0  0  0  0  0  0  0  0
   -2.2993    3.2386   -1.7187 C   0  0  0  0  0  0  0  0  0  0  0  0
    3.7411   -3.2836   -0.3509 C   0  0  0  0  0  0  0  0  0  0  0  0
    4.5531   -1.1865    3.6807 C   0  0  0  0  0  0  0  0  0  0  0  0
   -2.5507    4.0910   -0.4733 C   0  0  0  0  0  0  0  0  0  0  0  0
   -3.6204    2.9915   -2.4476 C   0  0  0  0  0  0  0  0  0  0  0  0
    2.0027    0.5849   -0.4305 H   0  0  0  0  0  0  0  0  0  0  0  0
    0.2730    0.5271    1.3572 H   0  0  0  0  0  0  0  0  0  0  0  0
   -1.4882   -0.4396   -1.6195 H   0  0  0  0  0  0  0  0  0  0  0  0
    2.7165   -0.0652   -2.5382 H   0  0  0  0  0  0  0  0  0  0  0  0
    0.4721   -1.7229    1.9326 H   0  0  0  0  0  0  0  0  0  0  0  0
    0.8771   -2.1447    0.2821 H   0  0  0  0  0  0  0  0  0  0  0  0
   -1.8844   -1.3357   -3.8911 H   0  0  0  0  0  0  0  0  0  0  0  0
    2.3006   -0.9611   -4.7900 H   0  0  0  0  0  0  0  0  0  0  0  0
    3.0703   -0.8320    0.5485 H   0  0  0  0  0  0  0  0  0  0  0  0
    2.5294   -0.3693    2.1518 H   0  0  0  0  0  0  0  0  0  0  0  0
    0.2489    4.4953   -1.1593 H   0  0  0  0  0  0  0  0  0  0  0  0
    0.8516    4.3346   -2.7975 H   0  0  0  0  0  0  0  0  0  0  0  0
    0.0014   -1.5715   -5.4886 H   0  0  0  0  0  0  0  0  0  0  0  0
   -1.5437    4.8951   -2.9138 H   0  0  0  0  0  0  0  0  0  0  0  0
   -1.2185    3.2947   -3.5840 H   0  0  0  0  0  0  0  0  0  0  0  0
    3.7172   -4.3547    1.5064 H   0  0  0  0  0  0  0  0  0  0  0  0
    2.1424   -3.9068    0.9406 H   0  0  0  0  0  0  0  0  0  0  0  0
    5.0162   -3.0197    2.7330 H   0  0  0  0  0  0  0  0  0  0  0  0
    5.1373   -1.6317    1.6540 H   0  0  0  0  0  0  0  0  0  0  0  0
   -1.9385    2.2557   -1.4010 H   0  0  0  0  0  0  0  0  0  0  0  0
    4.7556   -2.8764   -0.3104 H   0  0  0  0  0  0  0  0  0  0  0  0
    3.7866   -4.2288   -0.9022 H   0  0  0  0  0  0  0  0  0  0  0  0
    3.1158   -2.6002   -0.9331 H   0  0  0  0  0  0  0  0  0  0  0  0
    3.8736   -1.5573    4.4552 H   0  0  0  0  0  0  0  0  0  0  0  0
    5.5632   -1.1694    4.1041 H   0  0  0  0  0  0  0  0  0  0  0  0
    4.2829   -0.1532    3.4441 H   0  0  0  0  0  0  0  0  0  0  0  0
   -3.1750    4.9601   -0.7043 H   0  0  0  0  0  0  0  0  0  0  0  0
   -3.0638    3.4976    0.2905 H   0  0  0  0  0  0  0  0  0  0  0  0
   -1.6260    4.4638   -0.0266 H   0  0  0  0  0  0  0  0  0  0  0  0
   -3.4626    2.4291   -3.3736 H   0  0  0  0  0  0  0  0  0  0  0  0
   -4.2930    2.4026   -1.8138 H   0  0  0  0  0  0  0  0  0  0  0  0
   -4.1257    3.9298   -2.6971 H   0  0  0  0  0  0  0  0  0  0  0  0
  1  2  1  0  0  0  0
  1  3  1  0  0  0  0
  1  4  1  0  0  0  0
  1 24  1  0  0  0  0
  2  5  2  0  0  0  0
  2  6  1  0  0  0  0
  3  7  1  0  0  0  0
  3 25  1  0  0  0  0
  4  8  1  0  0  0  0
  4  9  2  0  0  0  0
  5 10  1  0  0  0  0
  5 26  1  0  0  0  0
  6 11  2  0  0  0  0
  6 27  1  0  0  0  0
  7 12  1  0  0  0  0
  7 28  1  0  0  0  0
  7 29  1  0  0  0  0
  8 13  1  0  0  0  0
 10 14  2  0  0  0  0
 10 30  1  0  0  0  0
 11 14  1  0  0  0  0
 11 31  1  0  0  0  0
 12 15  1  0  0  0  0
 12 32  1  0  0  0  0
 12 33  1  0  0  0  0
 13 16  1  0  0  0  0
 13 34  1  0  0  0  0
 13 35  1  0  0  0  0
 14 36  1  0  0  0  0
 15 17  1  0  0  0  0
 15 18  1  0  0  0  0
 16 19  1  0  0  0  0
 16 37  1  0  0  0  0
 16 38  1  0  0  0  0
 17 20  1  0  0  0  0
 17 39  1  0  0  0  0
 17 40  1  0  0  0  0
 18 21  1  0  0  0  0
 18 41  1  0  0  0  0
 18 42  1  0  0  0  0
 19 22  1  0  0  0  0
 19 23  1  0  0  0  0
 19 43  1  0  0  0  0
 20 44  1  0  0  0  0
 20 45  1  0  0  0  0
 20 46  1  0  0  0  0
 21 47  1  0  0  0  0
 21 48  1  0  0  0  0
 21 49  1  0  0  0  0
 22 50  1  0  0  0  0
 22 51  1  0  0  0  0
 22 52  1  0  0  0  0
 23 53  1  0  0  0  0
 23 54  1  0  0  0  0
 23 55  1  0  0  0  0
M  END
>  <Mol_ID>
2280

>  <Formula>
C19H34Cl2N2O2

>  <MolWeight>
393.39146

>  <Cat>
S4391

>  <Name>
Camylofin Chlorhydrate

>  <Synonyms>
Camylofine Chlorhydrate

>  <Target>
Others

>  <Form>
chlorhydrate

>  <CAS>
54-30-8

>  <URL>
http://www.selleckchem.com/products/camylofin-chlorhydrate.html

$$$$
