Candesartan.cdx
 OpenBabel08302520303D

 53 57  0  0  0  0  0  0  0  0999 V2000
    1.1905    0.7865   -0.4563 C   0  0  0  0  0  0  0  0  0  0  0  0
    0.6558    1.8430    0.2765 C   0  0  0  0  0  0  0  0  0  0  0  0
   -0.5722    2.3953   -0.0840 C   0  0  0  0  0  0  0  0  0  0  0  0
   -1.3614    1.8390   -1.1032 C   0  0  0  0  0  0  0  0  0  0  0  0
   -0.8246    0.7751   -1.8305 C   0  0  0  0  0  0  0  0  0  0  0  0
    0.4340    0.2724   -1.5217 C   0  0  0  0  0  0  0  0  0  0  0  0
   -2.7376    2.2974   -1.3779 C   0  0  0  0  0  0  0  0  0  0  0  0
   -3.1347    2.4791   -2.7250 C   0  0  0  0  0  0  0  0  0  0  0  0
   -4.4340    2.8610   -3.0589 C   0  0  0  0  0  0  0  0  0  0  0  0
   -5.3607    3.0849   -2.0545 C   0  0  0  0  0  0  0  0  0  0  0  0
   -4.9938    2.9374   -0.7186 C   0  0  0  0  0  0  0  0  0  0  0  0
   -3.6923    2.5305   -0.3649 C   0  0  0  0  0  0  0  0  0  0  0  0
    2.6003    0.3402   -0.1356 C   0  0  0  0  0  0  0  0  0  0  0  0
    2.8288   -1.0507   -0.4722 N   0  0  0  0  0  0  0  0  0  0  0  0
   -3.3853    2.4044    1.0574 C   0  0  0  0  0  0  0  0  0  0  0  0
   -2.7254    1.3291    1.6146 N   0  0  0  0  0  0  0  0  0  0  0  0
   -2.4648    1.6499    2.8751 N   0  0  0  0  0  0  0  0  0  0  0  0
   -2.9937    2.8677    3.0272 N   0  0  0  0  0  0  0  0  0  0  0  0
   -3.6072    3.3845    1.9533 N   0  0  0  0  0  0  0  0  0  0  0  0
    2.6135   -2.1831    0.2851 C   0  0  0  0  0  0  0  0  0  0  0  0
    2.5731   -3.1910   -0.6903 C   0  0  0  0  0  0  0  0  0  0  0  0
    2.8657   -2.7151   -1.9438 N   0  0  0  0  0  0  0  0  0  0  0  0
    3.0670   -1.4343   -1.7734 C   0  0  0  0  0  0  0  0  0  0  0  0
    2.3960   -2.4786    1.6495 C   0  0  0  0  0  0  0  0  0  0  0  0
    2.1777   -3.8310    1.9890 C   0  0  0  0  0  0  0  0  0  0  0  0
    2.0681   -4.8207    1.0169 C   0  0  0  0  0  0  0  0  0  0  0  0
    2.2470   -4.5071   -0.3290 C   0  0  0  0  0  0  0  0  0  0  0  0
    2.4851   -1.4793    2.7398 C   0  0  0  0  0  0  0  0  0  0  0  0
    1.5868   -1.6907    3.7283 O   0  0  0  0  0  0  0  0  0  0  0  0
    3.2981   -0.5738    2.7733 O   0  0  0  0  0  0  0  0  0  0  0  0
    3.2643   -0.5242   -2.7264 O   0  0  0  0  0  0  0  0  0  0  0  0
    3.2966   -0.9935   -4.0674 C   0  0  0  0  0  0  0  0  0  0  0  0
    4.7151   -1.4042   -4.4015 C   0  0  0  0  0  0  0  0  0  0  0  0
    1.1826    2.2411    1.1404 H   0  0  0  0  0  0  0  0  0  0  0  0
   -0.9289    3.2471    0.4898 H   0  0  0  0  0  0  0  0  0  0  0  0
   -1.3766    0.3107   -2.6443 H   0  0  0  0  0  0  0  0  0  0  0  0
    0.7839   -0.5372   -2.1493 H   0  0  0  0  0  0  0  0  0  0  0  0
   -2.4158    2.3234   -3.5414 H   0  0  0  0  0  0  0  0  0  0  0  0
   -4.7121    2.9765   -4.1038 H   0  0  0  0  0  0  0  0  0  0  0  0
   -6.3689    3.3794   -2.3088 H   0  0  0  0  0  0  0  0  0  0  0  0
   -5.7309    3.1183    0.0578 H   0  0  0  0  0  0  0  0  0  0  0  0
    3.3097    0.9544   -0.7032 H   0  0  0  0  0  0  0  0  0  0  0  0
    2.8261    0.5016    0.9124 H   0  0  0  0  0  0  0  0  0  0  0  0
   -2.9188    3.3752    3.9042 H   0  0  0  0  0  0  0  0  0  0  0  0
    2.1084   -4.1295    3.0345 H   0  0  0  0  0  0  0  0  0  0  0  0
    1.8603   -5.8477    1.3055 H   0  0  0  0  0  0  0  0  0  0  0  0
    2.1563   -5.2667   -1.0982 H   0  0  0  0  0  0  0  0  0  0  0  0
    0.8975   -2.3531    3.5293 H   0  0  0  0  0  0  0  0  0  0  0  0
    2.5675   -1.7901   -4.2574 H   0  0  0  0  0  0  0  0  0  0  0  0
    3.0085   -0.1489   -4.7054 H   0  0  0  0  0  0  0  0  0  0  0  0
    4.9959   -2.2977   -3.8359 H   0  0  0  0  0  0  0  0  0  0  0  0
    4.8252   -1.6103   -5.4686 H   0  0  0  0  0  0  0  0  0  0  0  0
    5.4135   -0.6115   -4.1125 H   0  0  0  0  0  0  0  0  0  0  0  0
  1  2  2  0  0  0  0
  1 13  1  0  0  0  0
  2  3  1  0  0  0  0
  2 34  1  0  0  0  0
  3  4  2  0  0  0  0
  3 35  1  0  0  0  0
  4  5  1  0  0  0  0
  4  7  1  0  0  0  0
  5  6  2  0  0  0  0
  5 36  1  0  0  0  0
  6  1  1  0  0  0  0
  6 37  1  0  0  0  0
  7  8  2  0  0  0  0
  8  9  1  0  0  0  0
  8 38  1  0  0  0  0
  9 10  2  0  0  0  0
  9 39  1  0  0  0  0
 10 11  1  0  0  0  0
 10 40  1  0  0  0  0
 11 12  2  0  0  0  0
 11 41  1  0  0  0  0
 12  7  1  0  0  0  0
 12 15  1  0  0  0  0
 13 14  1  0  0  0  0
 13 42  1  0  0  0  0
 13 43  1  0  0  0  0
 14 20  1  0  0  0  0
 15 16  1  0  0  0  0
 16 17  2  0  0  0  0
 17 18  1  0  0  0  0
 18 19  1  0  0  0  0
 18 44  1  0  0  0  0
 19 15  2  0  0  0  0
 20 21  2  0  0  0  0
 20 24  1  0  0  0  0
 21 22  1  0  0  0  0
 22 23  2  0  0  0  0
 23 14  1  0  0  0  0
 23 31  1  0  0  0  0
 24 25  2  0  0  0  0
 24 28  1  0  0  0  0
 25 26  1  0  0  0  0
 25 45  1  0  0  0  0
 26 27  2  0  0  0  0
 26 46  1  0  0  0  0
 27 21  1  0  0  0  0
 27 47  1  0  0  0  0
 28 29  1  0  0  0  0
 28 30  2  0  0  0  0
 29 48  1  0  0  0  0
 31 32  1  0  0  0  0
 32 33  1  0  0  0  0
 32 49  1  0  0  0  0
 32 50  1  0  0  0  0
 33 51  1  0  0  0  0
 33 52  1  0  0  0  0
 33 53  1  0  0  0  0
M  END
>  <Mol_ID>
336

>  <Formula>
C24H20N6O3

>  <MolWeight>
440.454

>  <Cat>
S1578

>  <Name>
Candesartan (CV-11974)

>  <Synonyms>
CV-11974

>  <Target>
Angiotensin Receptor

>  <Form>
free base

>  <CAS>
139481-59-7

>  <URL>
http://selleckchem.com/products/Candesartan(Atacand).html

$$$$
