CAPEX (fluocinolone acetonide).cdx
 OpenBabel08302522122D

 62 66  0  0  0  0  0  0  0  0999 V2000
    1.2082    3.3124    0.0000 C   0  0  0  0  0  0  0  0  0  0  0  0
    1.2082    1.9124    0.0000 C   0  0  0  0  0  0  0  0  0  0  0  0
    2.4207    1.2124    0.0000 C   0  0  0  0  0  0  0  0  0  0  0  0
    3.6331    1.9124    0.0000 C   0  0  0  0  0  0  0  0  0  0  0  0
    3.6331    3.3124    0.0000 C   0  0  2  0  0  0  0  0  0  0  0  0
    2.4207    4.0124    0.0000 C   0  0  0  0  0  0  0  0  0  0  0  0
    4.8455    1.2124    0.0000 C   0  0  2  0  0  0  0  0  0  0  0  0
    6.0580    1.9124    0.0000 C   0  0  0  0  0  0  0  0  0  0  0  0
    6.0580    3.3124    0.0000 C   0  0  2  0  0  0  0  0  0  0  0  0
    4.8455    4.0124    0.0000 C   0  0  2  0  0  0  0  0  0  0  0  0
    7.2704    4.0124    0.0000 C   0  0  1  0  0  0  0  0  0  0  0  0
    7.2704    5.4124    0.0000 C   0  0  2  0  0  0  0  0  0  0  0  0
    6.0580    6.1124    0.0000 C   0  0  0  0  0  0  0  0  0  0  0  0
    4.8455    5.4124    0.0000 C   0  0  2  0  0  0  0  0  0  0  0  0
    8.6019    3.5798    0.0000 C   0  0  0  0  0  0  0  0  0  0  0  0
    9.4248    4.7124    0.0000 C   0  0  2  0  0  0  0  0  0  0  0  0
    8.6019    5.8451    0.0000 C   0  0  1  0  0  0  0  0  0  0  0  0
    0.0000    1.2149    0.0000 O   0  0  0  0  0  0  0  0  0  0  0  0
   10.7563    5.1451    0.0000 O   0  0  0  0  0  0  0  0  0  0  0  0
   10.7563    6.5451    0.0000 C   0  0  0  0  0  0  0  0  0  0  0  0
    9.4248    6.9777    0.0000 O   0  0  0  0  0  0  0  0  0  0  0  0
    3.6331    4.7124    0.0000 C   0  0  0  0  0  0  0  0  0  0  0  0
    3.6373    6.1100    0.0000 O   0  0  0  0  0  0  0  0  0  0  0  0
    7.2704    6.8124    0.0000 C   0  0  0  0  0  0  0  0  0  0  0  0
    8.2395    7.1974    0.0000 C   0  0  0  0  0  0  0  0  0  0  0  0
    4.8455    2.6124    0.0000 F   0  0  0  0  0  0  0  0  0  0  0  0
   11.4563    7.7575    0.0000 C   0  0  0  0  0  0  0  0  0  0  0  0
   12.1563    6.5451    0.0000 C   0  0  0  0  0  0  0  0  0  0  0  0
    8.9395    8.4098    0.0000 C   0  0  0  0  0  0  0  0  0  0  0  0
    8.2395    9.6222    0.0000 O   0  0  0  0  0  0  0  0  0  0  0  0
    7.0271    7.8974    0.0000 O   0  0  0  0  0  0  0  0  0  0  0  0
    5.8355    0.2225    0.0000 F   0  0  0  0  0  0  0  0  0  0  0  0
    0.3145    3.8284    0.0000 H   0  0  0  0  0  0  0  0  0  0  0  0
    2.4207    0.1804    0.0000 H   0  0  0  0  0  0  0  0  0  0  0  0
    2.4207    5.0444    0.0000 H   0  0  0  0  0  0  0  0  0  0  0  0
    4.1941    0.3635    0.0000 H   0  0  0  0  0  0  0  0  0  0  0  0
    6.9846    1.3774    0.0000 H   0  0  0  0  0  0  0  0  0  0  0  0
    6.9847    2.4474    0.0000 H   0  0  0  0  0  0  0  0  0  0  0  0
    5.1314    2.7774    0.0000 H   0  0  0  0  0  0  0  0  0  0  0  0
    7.3823    2.9483    0.0000 H   0  0  0  0  0  0  0  0  0  0  0  0
    6.0580    7.1824    0.0000 H   0  0  0  0  0  0  0  0  0  0  0  0
    5.1314    6.6474    0.0000 H   0  0  0  0  0  0  0  0  0  0  0  0
    4.8455    6.4824    0.0000 H   0  0  0  0  0  0  0  0  0  0  0  0
    8.9326    2.5622    0.0000 H   0  0  0  0  0  0  0  0  0  0  0  0
    9.6587    3.4124    0.0000 H   0  0  0  0  0  0  0  0  0  0  0  0
    8.3548    4.7124    0.0000 H   0  0  0  0  0  0  0  0  0  0  0  0
    4.5597    5.2474    0.0000 H   0  0  0  0  0  0  0  0  0  0  0  0
    2.7065    5.2474    0.0000 H   0  0  0  0  0  0  0  0  0  0  0  0
    3.6331    5.7824    0.0000 H   0  0  0  0  0  0  0  0  0  0  0  0
    3.6373    7.0800    0.0000 H   0  0  0  0  0  0  0  0  0  0  0  0
    8.1970    7.3474    0.0000 H   0  0  0  0  0  0  0  0  0  0  0  0
    6.3438    7.3474    0.0000 H   0  0  0  0  0  0  0  0  0  0  0  0
    7.2704    7.8824    0.0000 H   0  0  0  0  0  0  0  0  0  0  0  0
   12.5263    7.7575    0.0000 H   0  0  0  0  0  0  0  0  0  0  0  0
   10.9213    8.6842    0.0000 H   0  0  0  0  0  0  0  0  0  0  0  0
   11.9913    8.6841    0.0000 H   0  0  0  0  0  0  0  0  0  0  0  0
   12.6913    5.6185    0.0000 H   0  0  0  0  0  0  0  0  0  0  0  0
   12.6913    7.4717    0.0000 H   0  0  0  0  0  0  0  0  0  0  0  0
   13.2263    6.5451    0.0000 H   0  0  0  0  0  0  0  0  0  0  0  0
   10.0095    8.4098    0.0000 H   0  0  0  0  0  0  0  0  0  0  0  0
    9.4745    9.3365    0.0000 H   0  0  0  0  0  0  0  0  0  0  0  0
    8.7245   10.4623    0.0000 H   0  0  0  0  0  0  0  0  0  0  0  0
  1  2  1  0  0  0  0
  1 33  1  0  0  0  0
  2  3  1  0  0  0  0
  2 18  2  0  0  0  0
  3  4  2  0  0  0  0
  3 34  1  0  0  0  0
  4  5  1  0  0  0  0
  4  7  1  0  0  0  0
  5  6  1  0  0  0  0
  5 22  1  1  0  0  0
  6  1  2  0  0  0  0
  6 35  1  0  0  0  0
  7  8  1  0  0  0  0
  7 32  1  0  0  0  0
  7 36  1  1  0  0  0
  8 37  1  0  0  0  0
  8 38  1  0  0  0  0
  9  8  1  0  0  0  0
  9 10  1  0  0  0  0
  9 11  1  0  0  0  0
  9 39  1  1  0  0  0
 10  5  1  0  0  0  0
 10 26  1  6  0  0  0
 11 12  1  0  0  0  0
 11 15  1  0  0  0  0
 11 40  1  6  0  0  0
 12 13  1  0  0  0  0
 12 24  1  1  0  0  0
 13 14  1  0  0  0  0
 13 41  1  0  0  0  0
 13 42  1  0  0  0  0
 14 10  1  0  0  0  0
 14 23  1  0  0  0  0
 14 43  1  6  0  0  0
 15 44  1  0  0  0  0
 15 45  1  0  0  0  0
 16 15  1  0  0  0  0
 16 17  1  0  0  0  0
 16 19  1  0  0  0  0
 16 46  1  1  0  0  0
 17 12  1  0  0  0  0
 17 25  1  1  0  0  0
 19 20  1  0  0  0  0
 20 21  1  0  0  0  0
 20 27  1  0  0  0  0
 20 28  1  0  0  0  0
 21 17  1  0  0  0  0
 22 47  1  0  0  0  0
 22 48  1  0  0  0  0
 22 49  1  0  0  0  0
 23 50  1  0  0  0  0
 24 51  1  0  0  0  0
 24 52  1  0  0  0  0
 24 53  1  0  0  0  0
 25 29  1  0  0  0  0
 25 31  2  0  0  0  0
 27 54  1  0  0  0  0
 27 55  1  0  0  0  0
 27 56  1  0  0  0  0
 28 57  1  0  0  0  0
 28 58  1  0  0  0  0
 28 59  1  0  0  0  0
 29 30  1  0  0  0  0
 29 60  1  0  0  0  0
 29 61  1  0  0  0  0
 30 62  1  0  0  0  0
M  END
>  <Mol_ID>
1154

>  <Formula>
C24H30F2O6

>  <MolWeight>
452.4882064

>  <Cat>
S2470

>  <Name>
Fluocinolone Acetonide

>  <Synonyms>
Flucort-N

>  <Target>
Glucocorticoid Receptor

>  <Form>
free base

>  <CAS>
67-73-2

>  <URL>
http://selleckchem.com/products/Fluocinolone-acetonide(Flucort-N).html

$$$$
