CAPITROL (chloroxine).cdx
 OpenBabel08302521223D

 18 19  0  0  0  0  0  0  0  0999 V2000
   -1.9319   -1.6081    0.0051 C   0  0  0  0  0  0  0  0  0  0  0  0
   -0.5803   -1.9459    0.0007 C   0  0  0  0  0  0  0  0  0  0  0  0
    0.4084   -0.9454    0.0031 C   0  0  0  0  0  0  0  0  0  0  0  0
    0.0491    0.4213    0.0047 C   0  0  0  0  0  0  0  0  0  0  0  0
   -1.3205    0.7229    0.0077 C   0  0  0  0  0  0  0  0  0  0  0  0
   -2.3062   -0.2689    0.0103 C   0  0  0  0  0  0  0  0  0  0  0  0
    1.7719   -1.2744    0.0056 C   0  0  0  0  0  0  0  0  0  0  0  0
    2.7299   -0.2694    0.0079 C   0  0  0  0  0  0  0  0  0  0  0  0
    2.2918    1.0390    0.0054 C   0  0  0  0  0  0  0  0  0  0  0  0
    0.9907    1.3939    0.0038 N   0  0  0  0  0  0  0  0  0  0  0  0
   -1.7106    2.0433    0.0101 O   0  0  0  0  0  0  0  0  0  0  0  0
   -2.6893   -2.3876    0.0052 H   0  0  0  0  0  0  0  0  0  0  0  0
   -0.3001   -2.9974   -0.0036 H   0  0  0  0  0  0  0  0  0  0  0  0
   -3.3608   -0.0122    0.0168 H   0  0  0  0  0  0  0  0  0  0  0  0
    2.0924   -2.3133    0.0074 H   0  0  0  0  0  0  0  0  0  0  0  0
    3.7886   -0.4995    0.0117 H   0  0  0  0  0  0  0  0  0  0  0  0
    2.9933    1.8682    0.0054 H   0  0  0  0  0  0  0  0  0  0  0  0
   -2.6774    2.0952   -0.0000 H   0  0  0  0  0  0  0  0  0  0  0  0
  1  2  2  0  0  0  0
  1 12  1  0  0  0  0
  2  3  1  0  0  0  0
  2 13  1  0  0  0  0
  3  4  2  0  0  0  0
  3  7  1  0  0  0  0
  4  5  1  0  0  0  0
  5  6  2  0  0  0  0
  5 11  1  0  0  0  0
  6  1  1  0  0  0  0
  6 14  1  0  0  0  0
  7  8  2  0  0  0  0
  7 15  1  0  0  0  0
  8  9  1  0  0  0  0
  8 16  1  0  0  0  0
  9 10  2  0  0  0  0
  9 17  1  0  0  0  0
 10  4  1  0  0  0  0
 11 18  1  0  0  0  0
M  END
>  <Mol_ID>
453

>  <Formula>
C9H5Cl2NO

>  <MolWeight>
214.0481

>  <Cat>
S1839

>  <Name>
Chloroxine

>  <Synonyms>
N/A

>  <Target>
Bacterial

>  <Form>
free base

>  <CAS>
773-76-2

>  <URL>
http://selleckchem.com/products/Chloroxine.html

$$$$
