Caprylic/Capric Triglyceride
 OpenBabel08302521363D

 72 69  0  0  0  0  0  0  0  0999 V2000
   -0.7766    0.9724   -2.1226 C   0  0  0  0  0  0  0  0  0  0  0  0
   -0.6432    1.9919   -0.9961 C   0  0  0  0  0  0  0  0  0  0  0  0
   -0.3856    1.2638   -3.5747 C   0  0  0  0  0  0  0  0  0  0  0  0
   -1.8205    2.7479   -0.4523 C   0  0  0  0  0  0  0  0  0  0  0  0
   -0.1717   -0.0998   -4.2933 C   0  0  0  0  0  0  0  0  0  0  0  0
   -3.0958    1.9618   -0.1890 C   0  0  0  0  0  0  0  0  0  0  0  0
    0.2272   -0.0433   -5.7346 C   0  0  0  0  0  0  0  0  0  0  0  0
   -4.1163    2.9883    0.3003 C   0  0  0  0  0  0  0  0  0  0  0  0
    0.3797   -1.2680   -6.3036 O   0  0  0  0  0  0  0  0  0  0  0  0
    0.3418    0.9828   -6.3767 O   0  0  0  0  0  0  0  0  0  0  0  0
   -5.5432    2.4828    0.3884 C   0  0  0  0  0  0  0  0  0  0  0  0
   -5.7052    1.3273    1.3561 C   0  0  0  0  0  0  0  0  0  0  0  0
    2.9809    0.1129    2.6986 C   0  0  0  0  0  0  0  0  0  0  0  0
    2.8545   -1.4223    2.5069 C   0  0  0  0  0  0  0  0  0  0  0  0
    1.8607    0.9879    3.2803 C   0  0  0  0  0  0  0  0  0  0  0  0
    2.6324   -2.5103    3.5694 C   0  0  0  0  0  0  0  0  0  0  0  0
    2.2039    2.4533    3.4521 C   0  0  0  0  0  0  0  0  0  0  0  0
    1.5728   -2.4304    4.6797 C   0  0  0  0  0  0  0  0  0  0  0  0
    3.1887    2.9056    2.6564 O   0  0  0  0  0  0  0  0  0  0  0  0
    1.5811    3.2431    4.1479 O   0  0  0  0  0  0  0  0  0  0  0  0
    0.0772   -2.7986    4.5241 C   0  0  0  0  0  0  0  0  0  0  0  0
   -0.3010   -4.1219    3.8697 C   0  0  0  0  0  0  0  0  0  0  0  0
    1.0911   -1.1395   -0.3285 C   0  0  0  0  0  0  0  0  0  0  0  0
   -0.1019   -1.0292    0.6827 C   0  0  0  0  0  0  0  0  0  0  0  0
    2.1500   -0.0336   -0.7475 C   0  0  0  0  0  0  0  0  0  0  0  0
    0.5137   -1.7301   -1.5253 O   0  0  0  0  0  0  0  0  0  0  0  0
    0.1332   -0.8247    2.0454 O   0  0  0  0  0  0  0  0  0  0  0  0
    1.9081    1.3364   -0.4841 O   0  0  0  0  0  0  0  0  0  0  0  0
   -1.6783    0.3585   -2.0479 H   0  0  0  0  0  0  0  0  0  0  0  0
    0.0276    0.3096   -1.8745 H   0  0  0  0  0  0  0  0  0  0  0  0
   -0.2997    1.4436   -0.1136 H   0  0  0  0  0  0  0  0  0  0  0  0
    0.1474    2.7120   -1.2183 H   0  0  0  0  0  0  0  0  0  0  0  0
   -1.1535    1.8557   -4.0759 H   0  0  0  0  0  0  0  0  0  0  0  0
    0.5556    1.8275   -3.6075 H   0  0  0  0  0  0  0  0  0  0  0  0
   -1.4979    3.1690    0.5140 H   0  0  0  0  0  0  0  0  0  0  0  0
   -2.0134    3.5933   -1.1139 H   0  0  0  0  0  0  0  0  0  0  0  0
    0.6400   -0.6435   -3.7934 H   0  0  0  0  0  0  0  0  0  0  0  0
   -1.0893   -0.6970   -4.2042 H   0  0  0  0  0  0  0  0  0  0  0  0
   -3.4470    1.4637   -1.0977 H   0  0  0  0  0  0  0  0  0  0  0  0
   -2.9322    1.1862    0.5721 H   0  0  0  0  0  0  0  0  0  0  0  0
   -3.7972    3.3720    1.2784 H   0  0  0  0  0  0  0  0  0  0  0  0
   -4.1098    3.8451   -0.3852 H   0  0  0  0  0  0  0  0  0  0  0  0
    0.2544   -1.9821   -5.6506 H   0  0  0  0  0  0  0  0  0  0  0  0
   -6.1704    3.3192    0.7181 H   0  0  0  0  0  0  0  0  0  0  0  0
   -5.8957    2.1905   -0.6069 H   0  0  0  0  0  0  0  0  0  0  0  0
   -5.2034    1.5327    2.3071 H   0  0  0  0  0  0  0  0  0  0  0  0
   -6.7668    1.1593    1.5578 H   0  0  0  0  0  0  0  0  0  0  0  0
   -5.2899    0.4056    0.9378 H   0  0  0  0  0  0  0  0  0  0  0  0
    3.1288    0.5112    1.6870 H   0  0  0  0  0  0  0  0  0  0  0  0
    3.9250    0.3269    3.2034 H   0  0  0  0  0  0  0  0  0  0  0  0
    2.1203   -1.6325    1.7615 H   0  0  0  0  0  0  0  0  0  0  0  0
    3.7753   -1.7100    1.9735 H   0  0  0  0  0  0  0  0  0  0  0  0
    1.0042    1.0431    2.6050 H   0  0  0  0  0  0  0  0  0  0  0  0
    1.5433    0.6077    4.2511 H   0  0  0  0  0  0  0  0  0  0  0  0
    2.4931   -3.4615    3.0322 H   0  0  0  0  0  0  0  0  0  0  0  0
    3.6032   -2.6136    4.0702 H   0  0  0  0  0  0  0  0  0  0  0  0
    1.9367   -3.1264    5.4476 H   0  0  0  0  0  0  0  0  0  0  0  0
    1.6248   -1.4371    5.1296 H   0  0  0  0  0  0  0  0  0  0  0  0
    3.1569    3.8776    2.7807 H   0  0  0  0  0  0  0  0  0  0  0  0
   -0.3332   -2.8362    5.5431 H   0  0  0  0  0  0  0  0  0  0  0  0
   -0.4956   -1.9926    4.0616 H   0  0  0  0  0  0  0  0  0  0  0  0
    0.0779   -4.9748    4.4411 H   0  0  0  0  0  0  0  0  0  0  0  0
   -1.3970   -4.2168    3.8558 H   0  0  0  0  0  0  0  0  0  0  0  0
    0.0407   -4.1990    2.8348 H   0  0  0  0  0  0  0  0  0  0  0  0
    1.7313   -1.9563   -0.0055 H   0  0  0  0  0  0  0  0  0  0  0  0
   -0.8923   -0.3410    0.3927 H   0  0  0  0  0  0  0  0  0  0  0  0
   -0.6055   -2.0025    0.6539 H   0  0  0  0  0  0  0  0  0  0  0  0
    3.1120   -0.2392   -0.2747 H   0  0  0  0  0  0  0  0  0  0  0  0
    2.3350   -0.1149   -1.8255 H   0  0  0  0  0  0  0  0  0  0  0  0
   -0.4556   -1.6732   -1.4243 H   0  0  0  0  0  0  0  0  0  0  0  0
    0.3268   -1.7000    2.4154 H   0  0  0  0  0  0  0  0  0  0  0  0
    2.2291    1.8526   -1.2527 H   0  0  0  0  0  0  0  0  0  0  0  0
  1  2  1  0  0  0  0
  1  3  1  0  0  0  0
  1 29  1  0  0  0  0
  1 30  1  0  0  0  0
  2  4  1  0  0  0  0
  2 31  1  0  0  0  0
  2 32  1  0  0  0  0
  3  5  1  0  0  0  0
  3 33  1  0  0  0  0
  3 34  1  0  0  0  0
  4  6  1  0  0  0  0
  4 35  1  0  0  0  0
  4 36  1  0  0  0  0
  5  7  1  0  0  0  0
  5 37  1  0  0  0  0
  5 38  1  0  0  0  0
  6  8  1  0  0  0  0
  6 39  1  0  0  0  0
  6 40  1  0  0  0  0
  7  9  1  0  0  0  0
  7 10  2  0  0  0  0
  8 11  1  0  0  0  0
  8 41  1  0  0  0  0
  8 42  1  0  0  0  0
  9 43  1  0  0  0  0
 11 12  1  0  0  0  0
 11 44  1  0  0  0  0
 11 45  1  0  0  0  0
 12 46  1  0  0  0  0
 12 47  1  0  0  0  0
 12 48  1  0  0  0  0
 13 14  1  0  0  0  0
 13 15  1  0  0  0  0
 13 49  1  0  0  0  0
 13 50  1  0  0  0  0
 14 16  1  0  0  0  0
 14 51  1  0  0  0  0
 14 52  1  0  0  0  0
 15 17  1  0  0  0  0
 15 53  1  0  0  0  0
 15 54  1  0  0  0  0
 16 18  1  0  0  0  0
 16 55  1  0  0  0  0
 16 56  1  0  0  0  0
 17 19  1  0  0  0  0
 17 20  2  0  0  0  0
 18 21  1  0  0  0  0
 18 57  1  0  0  0  0
 18 58  1  0  0  0  0
 19 59  1  0  0  0  0
 21 22  1  0  0  0  0
 21 60  1  0  0  0  0
 21 61  1  0  0  0  0
 22 62  1  0  0  0  0
 22 63  1  0  0  0  0
 22 64  1  0  0  0  0
 23 24  1  0  0  0  0
 23 25  1  0  0  0  0
 23 26  1  0  0  0  0
 23 65  1  0  0  0  0
 24 27  1  0  0  0  0
 24 66  1  0  0  0  0
 24 67  1  0  0  0  0
 25 28  1  0  0  0  0
 25 68  1  0  0  0  0
 25 69  1  0  0  0  0
 26 70  1  0  0  0  0
 27 71  1  0  0  0  0
 28 72  1  0  0  0  0
M  END
>  <Mol_ID>
7053

>  <Formula>
C21H44O7

>  <MolWeight>
408.56986

>  <Cat>
E4065

>  <Name>
Caprylic/Capric Triglyceride

>  <Synonyms>
Caprylic/Capric Triglyceride

>  <Target>
Others

>  <Form>
free base

>  <CAS>
65381-09-1

>  <URL>
https://www.selleckchem.com/products/caprylic-capric-triglyceride.html

$$$$
