Capric acid
 OpenBabel08302521253D

 32 31  0  0  0  0  0  0  0  0999 V2000
    3.1566    0.1289    2.7719 C   0  0  0  0  0  0  0  0  0  0  0  0
    2.6538   -1.1053    2.0356 C   0  0  0  0  0  0  0  0  0  0  0  0
    1.1235   -1.1742    2.0326 C   0  0  0  0  0  0  0  0  0  0  0  0
    0.6023   -2.4142    1.2956 C   0  0  0  0  0  0  0  0  0  0  0  0
   -0.9322   -2.4777    1.3048 C   0  0  0  0  0  0  0  0  0  0  0  0
   -1.4603   -3.7150    0.5667 C   0  0  0  0  0  0  0  0  0  0  0  0
   -2.9956   -3.7791    0.5756 C   0  0  0  0  0  0  0  0  0  0  0  0
   -3.5159   -5.0181   -0.1620 C   0  0  0  0  0  0  0  0  0  0  0  0
   -5.0460   -5.0994   -0.1570 C   0  0  0  0  0  0  0  0  0  0  0  0
   -5.5430   -6.3274   -0.8929 C   0  0  0  0  0  0  0  0  0  0  0  0
   -6.8939   -6.4108   -0.9083 O   0  0  0  0  0  0  0  0  0  0  0  0
   -4.8359   -7.1666   -1.4223 O   0  0  0  0  0  0  0  0  0  0  0  0
    2.8002    1.0466    2.2929 H   0  0  0  0  0  0  0  0  0  0  0  0
    4.2515    0.1528    2.7750 H   0  0  0  0  0  0  0  0  0  0  0  0
    2.8157    0.1304    3.8121 H   0  0  0  0  0  0  0  0  0  0  0  0
    3.0312   -1.0869    1.0068 H   0  0  0  0  0  0  0  0  0  0  0  0
    3.0665   -1.9996    2.5168 H   0  0  0  0  0  0  0  0  0  0  0  0
    0.7606   -1.1838    3.0675 H   0  0  0  0  0  0  0  0  0  0  0  0
    0.7208   -0.2712    1.5582 H   0  0  0  0  0  0  0  0  0  0  0  0
    0.9618   -2.4007    0.2598 H   0  0  0  0  0  0  0  0  0  0  0  0
    1.0078   -3.3172    1.7675 H   0  0  0  0  0  0  0  0  0  0  0  0
   -1.2894   -2.4919    2.3416 H   0  0  0  0  0  0  0  0  0  0  0  0
   -1.3377   -1.5728    0.8362 H   0  0  0  0  0  0  0  0  0  0  0  0
   -1.1012   -3.7028   -0.4696 H   0  0  0  0  0  0  0  0  0  0  0  0
   -1.0564   -4.6191    1.0371 H   0  0  0  0  0  0  0  0  0  0  0  0
   -3.3540   -3.7953    1.6121 H   0  0  0  0  0  0  0  0  0  0  0  0
   -3.4024   -2.8763    0.1058 H   0  0  0  0  0  0  0  0  0  0  0  0
   -3.1553   -5.0071   -1.1983 H   0  0  0  0  0  0  0  0  0  0  0  0
   -3.1045   -5.9221    0.3038 H   0  0  0  0  0  0  0  0  0  0  0  0
   -5.4115   -5.1479    0.8749 H   0  0  0  0  0  0  0  0  0  0  0  0
   -5.4685   -4.2147   -0.6463 H   0  0  0  0  0  0  0  0  0  0  0  0
   -7.3446   -5.6773   -0.4501 H   0  0  0  0  0  0  0  0  0  0  0  0
  1  2  1  0  0  0  0
  1 13  1  0  0  0  0
  1 14  1  0  0  0  0
  1 15  1  0  0  0  0
  2  3  1  0  0  0  0
  2 16  1  0  0  0  0
  2 17  1  0  0  0  0
  3  4  1  0  0  0  0
  3 18  1  0  0  0  0
  3 19  1  0  0  0  0
  4  5  1  0  0  0  0
  4 20  1  0  0  0  0
  4 21  1  0  0  0  0
  5  6  1  0  0  0  0
  5 22  1  0  0  0  0
  5 23  1  0  0  0  0
  6  7  1  0  0  0  0
  6 24  1  0  0  0  0
  6 25  1  0  0  0  0
  7  8  1  0  0  0  0
  7 26  1  0  0  0  0
  7 27  1  0  0  0  0
  8  9  1  0  0  0  0
  8 28  1  0  0  0  0
  8 29  1  0  0  0  0
  9 10  1  0  0  0  0
  9 30  1  0  0  0  0
  9 31  1  0  0  0  0
 10 11  1  0  0  0  0
 10 12  2  0  0  0  0
 11 32  1  0  0  0  0
M  END
>  <Mol_ID>
5208

>  <Formula>
C10H20O2

>  <MolWeight>
172.2646

>  <Cat>
S6906

>  <Name>
Capric acid

>  <Synonyms>
DA, Decanoic acid, Decylic acid

>  <Target>
GluR,PPAR

>  <Form>
free base

>  <CAS>
334-48-5

>  <URL>
http://www.selleckchem.com/products/capric-acid.html

$$$$
