Captopril.cdx
 OpenBabel08302521453D

 29 29  0  0  0  0  0  0  0  0999 V2000
    0.8356   -0.2477    0.1280 C   0  0  0  0  0  0  0  0  0  0  0  0
    2.8674    1.1144    0.8632 N   0  0  0  0  0  0  0  0  0  0  0  0
    2.3397    0.0092    0.0569 C   0  0  1  0  0  0  0  0  0  0  0  0
    3.0614   -1.2036    0.6450 C   0  0  0  0  0  0  0  0  0  0  0  0
    4.4360   -0.6643    1.0054 C   0  0  0  0  0  0  0  0  0  0  0  0
    4.1836    0.7896    1.3882 C   0  0  0  0  0  0  0  0  0  0  0  0
    0.2019   -0.9326   -0.6636 O   0  0  0  0  0  0  0  0  0  0  0  0
    0.2346    0.2098    1.2462 O   0  0  0  0  0  0  0  0  0  0  0  0
    2.4288    2.4059    0.6286 C   0  0  0  0  0  0  0  0  0  0  0  0
    2.9385    3.4946    1.5714 C   0  0  1  0  0  0  0  0  0  0  0  0
    2.7874    4.8521    0.8696 C   0  0  0  0  0  0  0  0  0  0  0  0
    1.5867    2.6425   -0.2382 O   0  0  0  0  0  0  0  0  0  0  0  0
    2.1521    3.4097    2.8852 C   0  0  0  0  0  0  0  0  0  0  0  0
    3.4997    6.2390    1.8136 S   0  0  0  0  0  0  0  0  0  0  0  0
    2.6233    0.1939   -0.9856 H   0  0  0  0  0  0  0  0  0  0  0  0
    2.5582   -1.5528    1.5571 H   0  0  0  0  0  0  0  0  0  0  0  0
    3.1047   -2.0468   -0.0503 H   0  0  0  0  0  0  0  0  0  0  0  0
    4.9131   -1.2288    1.8117 H   0  0  0  0  0  0  0  0  0  0  0  0
    5.0939   -0.7138    0.1287 H   0  0  0  0  0  0  0  0  0  0  0  0
    4.1868    0.9424    2.4720 H   0  0  0  0  0  0  0  0  0  0  0  0
    4.9365    1.4407    0.9320 H   0  0  0  0  0  0  0  0  0  0  0  0
   -0.7001   -0.0578    1.1280 H   0  0  0  0  0  0  0  0  0  0  0  0
    4.0001    3.3300    1.7766 H   0  0  0  0  0  0  0  0  0  0  0  0
    3.3082    4.8221   -0.0943 H   0  0  0  0  0  0  0  0  0  0  0  0
    1.7362    5.0822    0.6636 H   0  0  0  0  0  0  0  0  0  0  0  0
    2.2354    2.4131    3.3333 H   0  0  0  0  0  0  0  0  0  0  0  0
    2.5195    4.1238    3.6271 H   0  0  0  0  0  0  0  0  0  0  0  0
    1.0856    3.5984    2.7137 H   0  0  0  0  0  0  0  0  0  0  0  0
    2.5783    6.2528    2.7885 H   0  0  0  0  0  0  0  0  0  0  0  0
  1  7  2  0  0  0  0
  1  8  1  0  0  0  0
  2  3  1  0  0  0  0
  2  6  1  0  0  0  0
  2  9  1  0  0  0  0
  3  1  1  0  0  0  0
  3  4  1  0  0  0  0
  3 15  1  6  0  0  0
  4  5  1  0  0  0  0
  4 16  1  0  0  0  0
  4 17  1  0  0  0  0
  5  6  1  0  0  0  0
  5 18  1  0  0  0  0
  5 19  1  0  0  0  0
  6 20  1  0  0  0  0
  6 21  1  0  0  0  0
  8 22  1  0  0  0  0
  9 10  1  0  0  0  0
  9 12  2  0  0  0  0
 10 11  1  0  0  0  0
 10 13  1  0  0  0  0
 10 23  1  1  0  0  0
 11 14  1  0  0  0  0
 11 24  1  0  0  0  0
 11 25  1  0  0  0  0
 13 26  1  0  0  0  0
 13 27  1  0  0  0  0
 13 28  1  0  0  0  0
 14 29  1  0  0  0  0
M  END
>  <Mol_ID>
956

>  <Formula>
C9H15NO3S

>  <MolWeight>
217.2853

>  <Cat>
S2051

>  <Name>
Captopril

>  <Synonyms>
SQ 14225,Capoten

>  <Target>
ACE,RAAS

>  <Form>
free base

>  <CAS>
62571-86-2

>  <URL>
http://selleckchem.com/products/captopril-capoten.html

$$$$
