Carazolol
 OpenBabel08302520403D

 44 46  0  0  0  0  0  0  0  0999 V2000
   -0.2937   -0.5171   -0.6138 C   0  0  0  0  0  0  0  0  0  0  0  0
    0.9693   -0.8215   -1.2426 C   0  0  0  0  0  0  0  0  0  0  0  0
   -0.4421    0.8685   -0.6922 C   0  0  0  0  0  0  0  0  0  0  0  0
   -1.3549   -1.2890   -0.0623 C   0  0  0  0  0  0  0  0  0  0  0  0
    1.5477    0.3845   -1.6380 C   0  0  0  0  0  0  0  0  0  0  0  0
    1.6243   -2.0180   -1.6002 C   0  0  0  0  0  0  0  0  0  0  0  0
    0.7331    1.3905   -1.1774 N   0  0  0  0  0  0  0  0  0  0  0  0
   -1.6183    1.5350   -0.3329 C   0  0  0  0  0  0  0  0  0  0  0  0
   -2.5634   -0.6310    0.2215 C   0  0  0  0  0  0  0  0  0  0  0  0
   -1.1311   -2.6109    0.2403 O   0  0  0  0  0  0  0  0  0  0  0  0
    2.7273    0.4647   -2.3868 C   0  0  0  0  0  0  0  0  0  0  0  0
    2.7865   -1.9609   -2.3807 C   0  0  0  0  0  0  0  0  0  0  0  0
   -2.6947    0.7485    0.0691 C   0  0  0  0  0  0  0  0  0  0  0  0
   -2.2117   -3.5329    0.0833 C   0  0  0  0  0  0  0  0  0  0  0  0
    3.3228   -0.7364   -2.7758 C   0  0  0  0  0  0  0  0  0  0  0  0
   -2.5413   -4.3145    1.3735 C   0  0  3  0  0  0  0  0  0  0  0  0
   -3.0280   -3.4351    2.5545 C   0  0  0  0  0  0  0  0  0  0  0  0
   -3.5580   -5.2899    1.0571 O   0  0  0  0  0  0  0  0  0  0  0  0
   -3.4399   -4.2805    3.6865 N   0  0  0  0  0  0  0  0  0  0  0  0
   -3.9493   -3.5711    4.8617 C   0  0  0  0  0  0  0  0  0  0  0  0
   -5.2359   -2.7814    4.6162 C   0  0  0  0  0  0  0  0  0  0  0  0
   -4.2196   -4.6082    5.9657 C   0  0  0  0  0  0  0  0  0  0  0  0
    1.1985   -2.9770   -1.3244 H   0  0  0  0  0  0  0  0  0  0  0  0
    0.9177    2.3726   -1.2984 H   0  0  0  0  0  0  0  0  0  0  0  0
   -1.7066    2.6115   -0.4037 H   0  0  0  0  0  0  0  0  0  0  0  0
   -3.4275   -1.1770    0.5810 H   0  0  0  0  0  0  0  0  0  0  0  0
    3.1441    1.4187   -2.6961 H   0  0  0  0  0  0  0  0  0  0  0  0
    3.2635   -2.8846   -2.7004 H   0  0  0  0  0  0  0  0  0  0  0  0
   -3.6492    1.2253    0.2861 H   0  0  0  0  0  0  0  0  0  0  0  0
   -3.1170   -3.0943   -0.3544 H   0  0  0  0  0  0  0  0  0  0  0  0
   -1.8783   -4.2641   -0.6645 H   0  0  0  0  0  0  0  0  0  0  0  0
    4.2129   -0.7143   -3.4013 H   0  0  0  0  0  0  0  0  0  0  0  0
   -1.6496   -4.8668    1.6936 H   0  0  0  0  0  0  0  0  0  0  0  0
   -2.2333   -2.7481    2.8635 H   0  0  0  0  0  0  0  0  0  0  0  0
   -3.8862   -2.8506    2.2099 H   0  0  0  0  0  0  0  0  0  0  0  0
   -4.4223   -4.8600    1.1633 H   0  0  0  0  0  0  0  0  0  0  0  0
   -4.0765   -5.0153    3.3785 H   0  0  0  0  0  0  0  0  0  0  0  0
   -3.1773   -2.8860    5.2282 H   0  0  0  0  0  0  0  0  0  0  0  0
   -6.0779   -3.4419    4.3813 H   0  0  0  0  0  0  0  0  0  0  0  0
   -5.5013   -2.2094    5.5144 H   0  0  0  0  0  0  0  0  0  0  0  0
   -5.1295   -2.0573    3.8043 H   0  0  0  0  0  0  0  0  0  0  0  0
   -3.2918   -5.1019    6.2786 H   0  0  0  0  0  0  0  0  0  0  0  0
   -4.6585   -4.1348    6.8463 H   0  0  0  0  0  0  0  0  0  0  0  0
   -4.9165   -5.3834    5.6255 H   0  0  0  0  0  0  0  0  0  0  0  0
  1  2  1  0  0  0  0
  1  3  1  0  0  0  0
  1  4  2  0  0  0  0
  2  5  2  0  0  0  0
  2  6  1  0  0  0  0
  3  7  1  0  0  0  0
  3  8  2  0  0  0  0
  4  9  1  0  0  0  0
  4 10  1  0  0  0  0
  5 11  1  0  0  0  0
  5  7  1  0  0  0  0
  6 12  2  0  0  0  0
  6 23  1  0  0  0  0
  7 24  1  0  0  0  0
  8 13  1  0  0  0  0
  8 25  1  0  0  0  0
  9 13  2  0  0  0  0
  9 26  1  0  0  0  0
 10 14  1  0  0  0  0
 11 15  2  0  0  0  0
 11 27  1  0  0  0  0
 12 15  1  0  0  0  0
 12 28  1  0  0  0  0
 13 29  1  0  0  0  0
 14 16  1  0  0  0  0
 14 30  1  0  0  0  0
 14 31  1  0  0  0  0
 15 32  1  0  0  0  0
 16 17  1  0  0  0  0
 16 18  1  0  0  0  0
 16 33  1  0  0  0  0
 17 19  1  0  0  0  0
 17 34  1  0  0  0  0
 17 35  1  0  0  0  0
 18 36  1  0  0  0  0
 19 20  1  0  0  0  0
 19 37  1  0  0  0  0
 20 21  1  0  0  0  0
 20 22  1  0  0  0  0
 20 38  1  0  0  0  0
 21 39  1  0  0  0  0
 21 40  1  0  0  0  0
 21 41  1  0  0  0  0
 22 42  1  0  0  0  0
 22 43  1  0  0  0  0
 22 44  1  0  0  0  0
M  END
>  <Mol_ID>
3761

>  <Formula>
C18H22N2O2

>  <MolWeight>
298.37948

>  <Cat>
S6447

>  <Name>
Carazolol

>  <Synonyms>
N/A

>  <Target>
Adrenergic Receptor

>  <Form>
Free Base

>  <CAS>
57775-29-8

>  <URL>
http://www.selleck.cn/products/carazolol.html

$$$$
