CARBAMAZEPINE (carbamazepine).cdx
 OpenBabel08302520413D

 30 32  0  0  0  0  0  0  0  0999 V2000
    0.0119   -0.7449    1.2622 N   0  0  0  0  0  0  0  0  0  0  0  0
   -0.0147   -1.5214    2.4212 C   0  0  0  0  0  0  0  0  0  0  0  0
   -1.1989   -0.4586    0.5514 C   0  0  0  0  0  0  0  0  0  0  0  0
   -1.4944    0.8348    0.0784 C   0  0  0  0  0  0  0  0  0  0  0  0
   -0.6477    2.0040    0.3516 C   0  0  0  0  0  0  0  0  0  0  0  0
    0.6924    2.0026    0.3582 C   0  0  0  0  0  0  0  0  0  0  0  0
    1.5325    0.8323    0.0853 C   0  0  0  0  0  0  0  0  0  0  0  0
    1.2119   -0.4651    0.5301 C   0  0  0  0  0  0  0  0  0  0  0  0
    2.7541    1.0500   -0.5744 C   0  0  0  0  0  0  0  0  0  0  0  0
    3.6301   -0.0070   -0.8302 C   0  0  0  0  0  0  0  0  0  0  0  0
    3.2999   -1.2948   -0.4247 C   0  0  0  0  0  0  0  0  0  0  0  0
    2.1033   -1.5198    0.2562 C   0  0  0  0  0  0  0  0  0  0  0  0
   -2.1258   -1.4935    0.3254 C   0  0  0  0  0  0  0  0  0  0  0  0
   -3.3185   -1.2587   -0.3602 C   0  0  0  0  0  0  0  0  0  0  0  0
   -3.6149    0.0214   -0.8109 C   0  0  0  0  0  0  0  0  0  0  0  0
   -2.7140    1.0627   -0.5843 C   0  0  0  0  0  0  0  0  0  0  0  0
   -1.0086   -2.0074    2.9577 O   0  0  0  0  0  0  0  0  0  0  0  0
    1.1830   -1.6653    3.0670 N   0  0  0  0  0  0  0  0  0  0  0  0
   -1.1723    2.9368    0.5420 H   0  0  0  0  0  0  0  0  0  0  0  0
    1.2150    2.9360    0.5526 H   0  0  0  0  0  0  0  0  0  0  0  0
    3.0320    2.0495   -0.8996 H   0  0  0  0  0  0  0  0  0  0  0  0
    4.5655    0.1769   -1.3539 H   0  0  0  0  0  0  0  0  0  0  0  0
    3.9692   -2.1250   -0.6371 H   0  0  0  0  0  0  0  0  0  0  0  0
    1.8553   -2.5370    0.5538 H   0  0  0  0  0  0  0  0  0  0  0  0
   -1.9152   -2.5051    0.6659 H   0  0  0  0  0  0  0  0  0  0  0  0
   -4.0135   -2.0761   -0.5328 H   0  0  0  0  0  0  0  0  0  0  0  0
   -4.5501    0.2130   -1.3304 H   0  0  0  0  0  0  0  0  0  0  0  0
   -2.9740    2.0612   -0.9285 H   0  0  0  0  0  0  0  0  0  0  0  0
    1.8459   -0.9090    2.9688 H   0  0  0  0  0  0  0  0  0  0  0  0
    1.0878   -2.0402    4.0017 H   0  0  0  0  0  0  0  0  0  0  0  0
  1  2  1  0  0  0  0
  1  3  1  0  0  0  0
  2 17  2  0  0  0  0
  2 18  1  0  0  0  0
  3  4  2  0  0  0  0
  3 13  1  0  0  0  0
  4  5  1  0  0  0  0
  5  6  2  0  0  0  0
  5 19  1  0  0  0  0
  6  7  1  0  0  0  0
  6 20  1  0  0  0  0
  7  8  2  0  0  0  0
  7  9  1  0  0  0  0
  8  1  1  0  0  0  0
  9 10  2  0  0  0  0
  9 21  1  0  0  0  0
 10 11  1  0  0  0  0
 10 22  1  0  0  0  0
 11 12  2  0  0  0  0
 11 23  1  0  0  0  0
 12  8  1  0  0  0  0
 12 24  1  0  0  0  0
 13 14  2  0  0  0  0
 13 25  1  0  0  0  0
 14 15  1  0  0  0  0
 14 26  1  0  0  0  0
 15 16  2  0  0  0  0
 15 27  1  0  0  0  0
 16  4  1  0  0  0  0
 16 28  1  0  0  0  0
 18 29  1  0  0  0  0
 18 30  1  0  0  0  0
M  END
>  <Mol_ID>
397

>  <Formula>
C15H12N2O

>  <MolWeight>
236.26858

>  <Cat>
S1693

>  <Name>
Carbamazepine

>  <Synonyms>
NSC 169864

>  <Target>
Autophagy,Sodium Channel

>  <Form>
free base

>  <CAS>
298-46-4

>  <URL>
http://selleckchem.com/products/Carbamazepine(Carbatrol).html

$$$$
