Carbenicillin disodium.cdx
 OpenBabel08302521593D

 42 44  0  0  0  0  0  0  0  0999 V2000
   -0.7906    0.6247    0.2982 N   0  0  0  0  0  0  0  0  0  0  0  0
    0.3321    1.5528    0.0636 C   0  0  2  0  0  0  0  0  0  0  0  0
    1.6165    0.6902   -0.0743 C   0  0  0  0  0  0  0  0  0  0  0  0
    1.0134   -0.9945   -0.6217 S   0  0  0  0  0  0  0  0  0  0  0  0
   -0.4990   -0.8114    0.3960 C   0  0  2  0  0  0  0  0  0  0  0  0
   -1.8785   -1.0714   -0.2545 C   0  0  1  0  0  0  0  0  0  0  0  0
   -1.7993    0.4400   -0.6191 C   0  0  0  0  0  0  0  0  0  0  0  0
    0.4418    2.7274    1.0805 C   0  0  0  0  0  0  0  0  0  0  0  0
    1.4203    3.5113    0.8960 O   0  0  0  0  0  0  0  0  0  0  0  0
   -0.4465    2.7879    1.9818 O   0  5  0  0  0  0  0  0  0  0  0  0
   -2.3069    1.1839   -1.4193 O   0  0  0  0  0  0  0  0  0  0  0  0
    2.5644    1.2291   -1.1506 C   0  0  0  0  0  0  0  0  0  0  0  0
    2.3926    0.4322    1.2265 C   0  0  0  0  0  0  0  0  0  0  0  0
   -1.9667   -2.0709   -1.3638 N   0  0  0  0  0  0  0  0  0  0  0  0
   -2.6886   -3.2394   -1.2407 C   0  0  0  0  0  0  0  0  0  0  0  0
   -3.3295   -3.4824   -0.2093 O   0  0  0  0  0  0  0  0  0  0  0  0
   -2.7544   -4.1995   -2.4174 C   0  0  3  0  0  0  0  0  0  0  0  0
   -3.8666   -3.9295   -3.4270 C   0  0  0  0  0  0  0  0  0  0  0  0
   -3.9841   -2.7102   -4.1075 C   0  0  0  0  0  0  0  0  0  0  0  0
   -4.9296   -2.5481   -5.1276 C   0  0  0  0  0  0  0  0  0  0  0  0
   -5.7580   -3.6065   -5.4957 C   0  0  0  0  0  0  0  0  0  0  0  0
   -5.6885   -4.8080   -4.7973 C   0  0  0  0  0  0  0  0  0  0  0  0
   -4.7642   -4.9603   -3.7598 C   0  0  0  0  0  0  0  0  0  0  0  0
   -1.4011   -4.3971   -3.0906 C   0  0  0  0  0  0  0  0  0  0  0  0
   -0.8155   -3.3447   -3.4924 O   0  0  0  0  0  0  0  0  0  0  0  0
   -1.0050   -5.5993   -3.1679 O   0  5  0  0  0  0  0  0  0  0  0  0
    0.1289    2.0386   -0.9006 H   0  0  0  0  0  0  0  0  0  0  0  0
   -0.3907   -1.1249    1.4383 H   0  0  0  0  0  0  0  0  0  0  0  0
   -2.6607   -1.2428    0.4986 H   0  0  0  0  0  0  0  0  0  0  0  0
    2.9453    2.2189   -0.8786 H   0  0  0  0  0  0  0  0  0  0  0  0
    3.4346    0.5762   -1.2849 H   0  0  0  0  0  0  0  0  0  0  0  0
    2.0643    1.3261   -2.1209 H   0  0  0  0  0  0  0  0  0  0  0  0
    3.1504   -0.3509    1.0864 H   0  0  0  0  0  0  0  0  0  0  0  0
    2.9331    1.3239    1.5605 H   0  0  0  0  0  0  0  0  0  0  0  0
    1.7397    0.1132    2.0469 H   0  0  0  0  0  0  0  0  0  0  0  0
   -1.3470   -2.0090   -2.1835 H   0  0  0  0  0  0  0  0  0  0  0  0
   -2.9771   -5.1710   -1.9461 H   0  0  0  0  0  0  0  0  0  0  0  0
   -3.3141   -1.8850   -3.8731 H   0  0  0  0  0  0  0  0  0  0  0  0
   -4.9944   -1.5979   -5.6496 H   0  0  0  0  0  0  0  0  0  0  0  0
   -6.4478   -3.4964   -6.3267 H   0  0  0  0  0  0  0  0  0  0  0  0
   -6.3355   -5.6363   -5.0688 H   0  0  0  0  0  0  0  0  0  0  0  0
   -4.7233   -5.9061   -3.2239 H   0  0  0  0  0  0  0  0  0  0  0  0
  1  2  1  0  0  0  0
  1  7  1  0  0  0  0
  1  5  1  0  0  0  0
  2  3  1  0  0  0  0
  2 27  1  6  0  0  0
  2  8  1  0  0  0  0
  3  4  1  0  0  0  0
  3 12  1  0  0  0  0
  3 13  1  0  0  0  0
  5  4  1  0  0  0  0
  5  6  1  0  0  0  0
  5 28  1  1  0  0  0
  6  7  1  0  0  0  0
  6 29  1  1  0  0  0
  6 14  1  0  0  0  0
  7 11  2  0  0  0  0
  8  9  2  0  0  0  0
  8 10  1  0  0  0  0
 12 30  1  0  0  0  0
 12 31  1  0  0  0  0
 12 32  1  0  0  0  0
 13 33  1  0  0  0  0
 13 34  1  0  0  0  0
 13 35  1  0  0  0  0
 14 15  1  0  0  0  0
 14 36  1  0  0  0  0
 15 16  2  0  0  0  0
 15 17  1  0  0  0  0
 17 18  1  0  0  0  0
 17 24  1  0  0  0  0
 17 37  1  0  0  0  0
 18 19  2  0  0  0  0
 18 23  1  0  0  0  0
 19 20  1  0  0  0  0
 19 38  1  0  0  0  0
 20 21  2  0  0  0  0
 20 39  1  0  0  0  0
 21 22  1  0  0  0  0
 21 40  1  0  0  0  0
 22 23  2  0  0  0  0
 22 41  1  0  0  0  0
 23 42  1  0  0  0  0
 24 25  2  0  0  0  0
 24 26  1  0  0  0  0
M  CHG  2  10  -1  26  -1
M  END
>  <Mol_ID>
994

>  <Formula>
C17H16N2Na2O6S

>  <MolWeight>
422.36328

>  <Cat>
S3179

>  <Name>
Carbenicillin disodium

>  <Synonyms>
BRL-2064,¦Á-carboxybenzylpenicillin

>  <Target>
Antibiotics,Antibiotics for Plant Cell Culture,Bacterial,Selection Antibiotics for Transfected Cell

>  <Form>
Disodium

>  <CAS>
4800-94-6

>  <URL>
http://selleckchem.com/products/carbenicillin-disodium.html

$$$$
