Carbimazole.cdx
 OpenBabel08302522033D

 22 22  0  0  0  0  0  0  0  0999 V2000
   -1.0662   -0.1300    0.0733 C   0  0  0  0  0  0  0  0  0  0  0  0
   -0.2334   -1.2428    0.0934 N   0  0  0  0  0  0  0  0  0  0  0  0
    1.1314   -0.7599    0.0792 C   0  0  0  0  0  0  0  0  0  0  0  0
    0.9980    0.6624    0.0461 N   0  0  0  0  0  0  0  0  0  0  0  0
   -0.3386    0.9906    0.0429 C   0  0  0  0  0  0  0  0  0  0  0  0
    2.0493    1.6582    0.0024 C   0  0  0  0  0  0  0  0  0  0  0  0
    2.5526   -1.6253    0.0834 S   0  0  0  0  0  0  0  0  0  0  0  0
   -0.6891   -2.5628    0.0588 C   0  0  0  0  0  0  0  0  0  0  0  0
    0.0176   -3.5630    0.0259 O   0  0  0  0  0  0  0  0  0  0  0  0
   -2.0570   -2.6303    0.0049 O   0  0  0  0  0  0  0  0  0  0  0  0
   -2.5999   -3.9005   -0.3802 C   0  0  0  0  0  0  0  0  0  0  0  0
   -2.6755   -3.9450   -1.8961 C   0  0  0  0  0  0  0  0  0  0  0  0
   -2.1429   -0.2152    0.0683 H   0  0  0  0  0  0  0  0  0  0  0  0
   -0.6801    2.0140    0.0089 H   0  0  0  0  0  0  0  0  0  0  0  0
    1.9281    2.2610   -0.9021 H   0  0  0  0  0  0  0  0  0  0  0  0
    1.9624    2.3000    0.8841 H   0  0  0  0  0  0  0  0  0  0  0  0
    3.0406    1.2011   -0.0078 H   0  0  0  0  0  0  0  0  0  0  0  0
   -2.0179   -4.7393    0.0191 H   0  0  0  0  0  0  0  0  0  0  0  0
   -3.6051   -3.9724    0.0463 H   0  0  0  0  0  0  0  0  0  0  0  0
   -1.6817   -3.8296   -2.3417 H   0  0  0  0  0  0  0  0  0  0  0  0
   -3.1111   -4.8857   -2.2416 H   0  0  0  0  0  0  0  0  0  0  0  0
   -3.2842   -3.1134   -2.2689 H   0  0  0  0  0  0  0  0  0  0  0  0
  1  2  1  0  0  0  0
  1 13  1  0  0  0  0
  2  3  1  0  0  0  0
  2  8  1  0  0  0  0
  3  4  1  0  0  0  0
  3  7  2  0  0  0  0
  4  5  1  0  0  0  0
  4  6  1  0  0  0  0
  5  1  2  0  0  0  0
  5 14  1  0  0  0  0
  6 15  1  0  0  0  0
  6 16  1  0  0  0  0
  6 17  1  0  0  0  0
  8  9  2  0  0  0  0
  8 10  1  0  0  0  0
 10 11  1  0  0  0  0
 11 12  1  0  0  0  0
 11 18  1  0  0  0  0
 11 19  1  0  0  0  0
 12 20  1  0  0  0  0
 12 21  1  0  0  0  0
 12 22  1  0  0  0  0
M  END
>  <Mol_ID>
1232

>  <Formula>
C7H10N2O2S

>  <MolWeight>
186.2315

>  <Cat>
S4048

>  <Name>
Carbimazole

>  <Synonyms>
N/A

>  <Target>
TSH Receptor

>  <Form>
free base

>  <CAS>
22232-54-8

>  <URL>
http://selleckchem.com/products/carbimazole.html

$$$$
