Carbetapentane
 OpenBabel08302521283D

 55 56  0  0  0  0  0  0  0  0999 V2000
    1.1012   -0.1130   -0.0240 O   0  0  0  0  0  0  0  0  0  0  0  0
    1.5820    2.0769   -0.4776 O   0  0  0  0  0  0  0  0  0  0  0  0
    4.5317   -0.2423    1.4640 O   0  0  0  0  0  0  0  0  0  0  0  0
    6.3293    2.5996   -0.3482 N   0  0  0  0  0  0  0  0  0  0  0  0
   -0.7616    1.3694   -0.3917 C   0  0  0  0  0  0  0  0  0  0  0  0
   -1.4937    0.1073   -0.9123 C   0  0  0  0  0  0  0  0  0  0  0  0
   -1.0555    2.3225   -1.5775 C   0  0  0  0  0  0  0  0  0  0  0  0
   -2.7722    0.6094   -1.5833 C   0  0  0  0  0  0  0  0  0  0  0  0
   -2.5058    2.0596   -1.9667 C   0  0  0  0  0  0  0  0  0  0  0  0
   -1.2910    1.8167    0.9810 C   0  0  0  0  0  0  0  0  0  0  0  0
    0.7645    1.1741   -0.3218 C   0  0  0  0  0  0  0  0  0  0  0  0
   -1.2177    0.9336    2.0769 C   0  0  0  0  0  0  0  0  0  0  0  0
   -1.8181    3.0969    1.2189 C   0  0  0  0  0  0  0  0  0  0  0  0
   -1.6546    1.3137    3.3487 C   0  0  0  0  0  0  0  0  0  0  0  0
   -2.2582    3.4763    2.4910 C   0  0  0  0  0  0  0  0  0  0  0  0
    2.5130   -0.3915    0.0108 C   0  0  0  0  0  0  0  0  0  0  0  0
   -2.1742    2.5858    3.5563 C   0  0  0  0  0  0  0  0  0  0  0  0
    3.1385    0.0396    1.3396 C   0  0  0  0  0  0  0  0  0  0  0  0
    5.3770    1.9479    0.5760 C   0  0  0  0  0  0  0  0  0  0  0  0
    5.3981    0.4023    0.5201 C   0  0  0  0  0  0  0  0  0  0  0  0
    6.1093    2.2512   -1.7658 C   0  0  0  0  0  0  0  0  0  0  0  0
    6.3724    4.0644   -0.1875 C   0  0  0  0  0  0  0  0  0  0  0  0
    4.7276    2.5696   -2.3343 C   0  0  0  0  0  0  0  0  0  0  0  0
    6.8490    4.5421    1.1802 C   0  0  0  0  0  0  0  0  0  0  0  0
   -0.8824   -0.4017   -1.6706 H   0  0  0  0  0  0  0  0  0  0  0  0
   -1.7197   -0.6376   -0.1430 H   0  0  0  0  0  0  0  0  0  0  0  0
   -0.8625    3.3785   -1.3720 H   0  0  0  0  0  0  0  0  0  0  0  0
   -0.4141    2.0630   -2.4338 H   0  0  0  0  0  0  0  0  0  0  0  0
   -3.0208    0.0011   -2.4583 H   0  0  0  0  0  0  0  0  0  0  0  0
   -3.6222    0.5521   -0.8919 H   0  0  0  0  0  0  0  0  0  0  0  0
   -2.6723    2.2389   -3.0336 H   0  0  0  0  0  0  0  0  0  0  0  0
   -3.1844    2.7218   -1.4179 H   0  0  0  0  0  0  0  0  0  0  0  0
   -0.8078   -0.0680    1.9572 H   0  0  0  0  0  0  0  0  0  0  0  0
   -1.9001    3.8370    0.4280 H   0  0  0  0  0  0  0  0  0  0  0  0
   -1.5824    0.6148    4.1784 H   0  0  0  0  0  0  0  0  0  0  0  0
   -2.6613    4.4733    2.6481 H   0  0  0  0  0  0  0  0  0  0  0  0
    2.6379   -1.4728   -0.1210 H   0  0  0  0  0  0  0  0  0  0  0  0
    3.0036    0.0679   -0.8530 H   0  0  0  0  0  0  0  0  0  0  0  0
   -2.5075    2.8872    4.5455 H   0  0  0  0  0  0  0  0  0  0  0  0
    2.9484    1.0935    1.5597 H   0  0  0  0  0  0  0  0  0  0  0  0
    2.6352   -0.5116    2.1445 H   0  0  0  0  0  0  0  0  0  0  0  0
    4.3628    2.3222    0.4031 H   0  0  0  0  0  0  0  0  0  0  0  0
    5.6168    2.2213    1.6111 H   0  0  0  0  0  0  0  0  0  0  0  0
    6.4115    0.0572    0.7552 H   0  0  0  0  0  0  0  0  0  0  0  0
    5.1675    0.0182   -0.4774 H   0  0  0  0  0  0  0  0  0  0  0  0
    6.8628    2.7624   -2.3801 H   0  0  0  0  0  0  0  0  0  0  0  0
    6.3203    1.1870   -1.9177 H   0  0  0  0  0  0  0  0  0  0  0  0
    7.0809    4.4694   -0.9215 H   0  0  0  0  0  0  0  0  0  0  0  0
    5.3989    4.5213   -0.4000 H   0  0  0  0  0  0  0  0  0  0  0  0
    4.4925    3.6349   -2.2661 H   0  0  0  0  0  0  0  0  0  0  0  0
    4.6874    2.2904   -3.3911 H   0  0  0  0  0  0  0  0  0  0  0  0
    3.9413    2.0099   -1.8217 H   0  0  0  0  0  0  0  0  0  0  0  0
    7.6068    3.8788    1.6076 H   0  0  0  0  0  0  0  0  0  0  0  0
    7.2966    5.5385    1.0874 H   0  0  0  0  0  0  0  0  0  0  0  0
    6.0125    4.6195    1.8819 H   0  0  0  0  0  0  0  0  0  0  0  0
  1 11  1  0  0  0  0
  1 16  1  0  0  0  0
  2 11  2  0  0  0  0
  3 18  1  0  0  0  0
  3 20  1  0  0  0  0
  4 19  1  0  0  0  0
  4 21  1  0  0  0  0
  4 22  1  0  0  0  0
  5  6  1  0  0  0  0
  5  7  1  0  0  0  0
  5 10  1  0  0  0  0
  5 11  1  0  0  0  0
  6  8  1  0  0  0  0
  6 25  1  0  0  0  0
  6 26  1  0  0  0  0
  7  9  1  0  0  0  0
  7 27  1  0  0  0  0
  7 28  1  0  0  0  0
  8  9  1  0  0  0  0
  8 29  1  0  0  0  0
  8 30  1  0  0  0  0
  9 31  1  0  0  0  0
  9 32  1  0  0  0  0
 10 12  2  0  0  0  0
 10 13  1  0  0  0  0
 12 14  1  0  0  0  0
 12 33  1  0  0  0  0
 13 15  2  0  0  0  0
 13 34  1  0  0  0  0
 14 17  2  0  0  0  0
 14 35  1  0  0  0  0
 15 17  1  0  0  0  0
 15 36  1  0  0  0  0
 16 18  1  0  0  0  0
 16 37  1  0  0  0  0
 16 38  1  0  0  0  0
 17 39  1  0  0  0  0
 18 40  1  0  0  0  0
 18 41  1  0  0  0  0
 19 20  1  0  0  0  0
 19 42  1  0  0  0  0
 19 43  1  0  0  0  0
 20 44  1  0  0  0  0
 20 45  1  0  0  0  0
 21 23  1  0  0  0  0
 21 46  1  0  0  0  0
 21 47  1  0  0  0  0
 22 24  1  0  0  0  0
 22 48  1  0  0  0  0
 22 49  1  0  0  0  0
 23 50  1  0  0  0  0
 23 51  1  0  0  0  0
 23 52  1  0  0  0  0
 24 53  1  0  0  0  0
 24 54  1  0  0  0  0
 24 55  1  0  0  0  0
M  END
>  <Mol_ID>
5403

>  <Formula>
C20H31NO3

>  <MolWeight>
333.46504

>  <Cat>
S0869

>  <Name>
Carbetapentane

>  <Synonyms>
Pentoxyverine, CB

>  <Target>
Sigma Receptor

>  <Form>
Free Base

>  <CAS>
77-23-6

>  <URL>
https://www.selleckchem.com/products/carbetapentane.html

$$$$
