Carbamyl-beta-methylcholine chloride.cdx
 OpenBabel08302521373D

 28 27  0  0  0  0  0  0  0  0999 V2000
    0.9311   -0.0150    0.1653 N   0  3  0  0  0  0  0  0  0  0  0  0
    0.5312    1.0422   -0.9040 C   0  0  0  0  0  0  0  0  0  0  0  0
    1.1752    0.9404   -2.3130 C   0  0  3  0  0  0  0  0  0  0  0  0
    0.7144    2.0262   -3.1592 O   0  0  0  0  0  0  0  0  0  0  0  0
   -0.5482    1.9554   -3.6272 C   0  0  0  0  0  0  0  0  0  0  0  0
   -0.7459    2.9257   -4.5520 N   0  0  0  0  0  0  0  0  0  0  0  0
   -1.3753    1.1366   -3.2715 O   0  0  0  0  0  0  0  0  0  0  0  0
    2.6895    1.1078   -2.3452 C   0  0  0  0  0  0  0  0  0  0  0  0
    2.3894    0.0996    0.5967 C   0  0  0  0  0  0  0  0  0  0  0  0
    0.6400   -1.4309   -0.3221 C   0  0  0  0  0  0  0  0  0  0  0  0
    0.0524    0.2391    1.4053 C   0  0  0  0  0  0  0  0  0  0  0  0
   -0.5598    0.9768   -0.9841 H   0  0  0  0  0  0  0  0  0  0  0  0
    0.7473    2.0270   -0.4683 H   0  0  0  0  0  0  0  0  0  0  0  0
    0.9116   -0.0086   -2.7957 H   0  0  0  0  0  0  0  0  0  0  0  0
   -1.6143    2.9312   -5.0668 H   0  0  0  0  0  0  0  0  0  0  0  0
    0.0411    3.4530   -4.9030 H   0  0  0  0  0  0  0  0  0  0  0  0
    3.2208    0.2660   -1.9052 H   0  0  0  0  0  0  0  0  0  0  0  0
    3.0380    1.1960   -3.3808 H   0  0  0  0  0  0  0  0  0  0  0  0
    2.9884    2.0341   -1.8412 H   0  0  0  0  0  0  0  0  0  0  0  0
    2.4922   -0.2588    1.6253 H   0  0  0  0  0  0  0  0  0  0  0  0
    3.0003   -0.5375   -0.0440 H   0  0  0  0  0  0  0  0  0  0  0  0
    2.6944    1.1473    0.5355 H   0  0  0  0  0  0  0  0  0  0  0  0
    0.9036   -2.1284    0.4797 H   0  0  0  0  0  0  0  0  0  0  0  0
   -0.4241   -1.5070   -0.5619 H   0  0  0  0  0  0  0  0  0  0  0  0
    1.2492   -1.6328   -1.2068 H   0  0  0  0  0  0  0  0  0  0  0  0
    0.1071    1.3020    1.6552 H   0  0  0  0  0  0  0  0  0  0  0  0
   -0.9751   -0.0532    1.1715 H   0  0  0  0  0  0  0  0  0  0  0  0
    0.4310   -0.3685    2.2353 H   0  0  0  0  0  0  0  0  0  0  0  0
  1  2  1  0  0  0  0
  1  9  1  0  0  0  0
  1 10  1  0  0  0  0
  1 11  1  0  0  0  0
  2  3  1  0  0  0  0
  2 12  1  0  0  0  0
  2 13  1  0  0  0  0
  3  4  1  0  0  0  0
  3  8  1  0  0  0  0
  3 14  1  0  0  0  0
  4  5  1  0  0  0  0
  5  6  1  0  0  0  0
  5  7  2  0  0  0  0
  6 15  1  0  0  0  0
  6 16  1  0  0  0  0
  8 17  1  0  0  0  0
  8 18  1  0  0  0  0
  8 19  1  0  0  0  0
  9 20  1  0  0  0  0
  9 21  1  0  0  0  0
  9 22  1  0  0  0  0
 10 23  1  0  0  0  0
 10 24  1  0  0  0  0
 10 25  1  0  0  0  0
 11 26  1  0  0  0  0
 11 27  1  0  0  0  0
 11 28  1  0  0  0  0
M  CHG  1   1   1
M  END
>  <Mol_ID>
737

>  <Formula>
C7H17ClN2O2

>  <MolWeight>
196.67508

>  <Cat>
S2455

>  <Name>
Bethanechol chloride

>  <Synonyms>
Myocholine,Urecholine

>  <Target>
AChR

>  <Form>
quaternary-N Chloride salt

>  <CAS>
590-63-6

>  <URL>
http://selleckchem.com/products/Carbamyl-beta-methylcholine-chloride(Bethanechol-chloride).html

$$$$
