Carglumic Acid
 OpenBabel08302520323D

 23 22  0  0  0  0  0  0  0  0999 V2000
    0.9190   -0.0379    0.0340 C   0  0  2  0  0  0  0  0  0  0  0  0
    0.4642   -0.4257    1.4476 C   0  0  0  0  0  0  0  0  0  0  0  0
    0.3177    1.2291   -0.3753 N   0  0  0  0  0  0  0  0  0  0  0  0
    0.4860   -1.0873   -0.9938 C   0  0  0  0  0  0  0  0  0  0  0  0
    1.0629   -1.7377    1.9440 C   0  0  0  0  0  0  0  0  0  0  0  0
    0.6694    2.4081    0.1987 C   0  0  0  0  0  0  0  0  0  0  0  0
    1.4304   -2.0162   -1.2712 O   0  0  0  0  0  0  0  0  0  0  0  0
   -0.6227   -1.1112   -1.5110 O   0  0  0  0  0  0  0  0  0  0  0  0
    0.6097   -2.0697    3.3425 C   0  0  0  0  0  0  0  0  0  0  0  0
   -0.0871    3.4450   -0.2288 N   0  0  0  0  0  0  0  0  0  0  0  0
    1.5568    2.5400    1.0283 O   0  0  0  0  0  0  0  0  0  0  0  0
    1.0307   -1.1966    4.2814 O   0  0  0  0  0  0  0  0  0  0  0  0
   -0.0524   -3.0593    3.6206 O   0  0  0  0  0  0  0  0  0  0  0  0
    2.0066    0.0941   -0.0059 H   0  0  0  0  0  0  0  0  0  0  0  0
    0.7385    0.3766    2.1437 H   0  0  0  0  0  0  0  0  0  0  0  0
   -0.6308   -0.4852    1.4877 H   0  0  0  0  0  0  0  0  0  0  0  0
   -0.5974    1.1781   -0.8106 H   0  0  0  0  0  0  0  0  0  0  0  0
    0.7433   -2.5650    1.2994 H   0  0  0  0  0  0  0  0  0  0  0  0
    2.1589   -1.7193    1.9243 H   0  0  0  0  0  0  0  0  0  0  0  0
    2.2931   -1.8833   -0.8346 H   0  0  0  0  0  0  0  0  0  0  0  0
    0.2177    4.3528    0.0998 H   0  0  0  0  0  0  0  0  0  0  0  0
   -0.4424    3.4231   -1.1735 H   0  0  0  0  0  0  0  0  0  0  0  0
    1.5582   -0.4458    3.9478 H   0  0  0  0  0  0  0  0  0  0  0  0
  1  2  1  0  0  0  0
  1  3  1  0  0  0  0
  1  4  1  0  0  0  0
  1 14  1  6  0  0  0
  2  5  1  0  0  0  0
  2 15  1  0  0  0  0
  2 16  1  0  0  0  0
  3  6  1  0  0  0  0
  3 17  1  0  0  0  0
  4  7  1  0  0  0  0
  4  8  2  0  0  0  0
  5  9  1  0  0  0  0
  5 18  1  0  0  0  0
  5 19  1  0  0  0  0
  6 10  1  0  0  0  0
  6 11  2  0  0  0  0
  7 20  1  0  0  0  0
  9 12  1  0  0  0  0
  9 13  2  0  0  0  0
 10 21  1  0  0  0  0
 10 22  1  0  0  0  0
 12 23  1  0  0  0  0
M  END
>  <Mol_ID>
3345

>  <Formula>
C6H10N2O5

>  <MolWeight>
190.154

>  <Cat>
S5301

>  <Name>
Carglumic Acid

>  <Synonyms>
Carbamylglutamic acid, Carbamino-L-glutamic acid, Ureidoglutaric acid, N-Carbamylglutamate

>  <Target>
CPSase

>  <Form>
Free Base

>  <CAS>
1188-38-1

>  <URL>
http://www.selleckchem.com/products/carglumic-acid.html

$$$$
