Cariprazine hydrochloride
 OpenBabel08302521353D

 60 62  0  0  0  0  0  0  0  0999 V2000
    3.0405    3.1046    1.2575 C   0  0  0  0  0  0  0  0  0  0  0  0
    2.5143    2.3168    0.0489 C   0  0  0  0  0  0  0  0  0  0  0  0
   -1.0490    3.5506   -3.0690 N   0  0  0  0  0  0  0  0  0  0  0  0
   -1.6704    4.6697   -3.5524 C   0  0  0  0  0  0  0  0  0  0  0  0
   -3.0490    4.6866   -3.3894 N   0  0  0  0  0  0  0  0  0  0  0  0
   -1.0430    5.5954   -4.0590 O   0  0  0  0  0  0  0  0  0  0  0  0
   -3.7778    5.8813   -3.7700 C   0  0  0  0  0  0  0  0  0  0  0  0
   -3.8164    3.6270   -2.7578 C   0  0  0  0  0  0  0  0  0  0  0  0
    5.4009    5.8171    1.3564 N   0  0  0  0  0  0  0  0  0  0  0  0
    4.6838    5.3330    2.5437 C   0  0  0  0  0  0  0  0  0  0  0  0
    5.2085    5.0357    0.1200 C   0  0  0  0  0  0  0  0  0  0  0  0
    4.8369    3.8028    2.7174 C   0  0  0  0  0  0  0  0  0  0  0  0
    5.3192    3.5141    0.3933 C   0  0  0  0  0  0  0  0  0  0  0  0
    4.4889    2.9981    1.5106 N   0  0  0  0  0  0  0  0  0  0  0  0
    6.5222    6.6233    1.4610 C   0  0  0  0  0  0  0  0  0  0  0  0
    7.3797    6.5957    2.5722 C   0  0  0  0  0  0  0  0  0  0  0  0
    6.8264    7.5458    0.4460 C   0  0  0  0  0  0  0  0  0  0  0  0
    8.4867    7.4407    2.6624 C   0  0  0  0  0  0  0  0  0  0  0  0
    7.9308    8.3993    0.5303 C   0  0  0  0  0  0  0  0  0  0  0  0
    8.7645    8.3431    1.6415 C   0  0  0  0  0  0  0  0  0  0  0  0
    0.9828    2.4774   -0.1183 C   0  0  1  0  0  0  0  0  0  0  0  0
    0.5231    3.9211   -0.3924 C   0  0  0  0  0  0  0  0  0  0  0  0
    0.4472    1.5527   -1.2215 C   0  0  0  0  0  0  0  0  0  0  0  0
    0.8724    4.4218   -1.7943 C   0  0  0  0  0  0  0  0  0  0  0  0
    0.8207    2.0227   -2.6313 C   0  0  0  0  0  0  0  0  0  0  0  0
    0.3986    3.4727   -2.9064 C   0  0  1  0  0  0  0  0  0  0  0  0
    2.5147    2.7273    2.1443 H   0  0  0  0  0  0  0  0  0  0  0  0
    2.7548    4.1501    1.1434 H   0  0  0  0  0  0  0  0  0  0  0  0
    3.0183    2.6338   -0.8684 H   0  0  0  0  0  0  0  0  0  0  0  0
    2.7496    1.2544    0.1918 H   0  0  0  0  0  0  0  0  0  0  0  0
   -1.6054    2.8353   -2.6371 H   0  0  0  0  0  0  0  0  0  0  0  0
   -4.5308    5.6050   -4.5144 H   0  0  0  0  0  0  0  0  0  0  0  0
   -4.2717    6.2887   -2.8826 H   0  0  0  0  0  0  0  0  0  0  0  0
   -3.1296    6.6527   -4.1932 H   0  0  0  0  0  0  0  0  0  0  0  0
   -3.6635    2.6955   -3.3110 H   0  0  0  0  0  0  0  0  0  0  0  0
   -3.4715    3.4978   -1.7270 H   0  0  0  0  0  0  0  0  0  0  0  0
   -4.8817    3.8712   -2.7530 H   0  0  0  0  0  0  0  0  0  0  0  0
    4.9880    5.8481    3.4614 H   0  0  0  0  0  0  0  0  0  0  0  0
    3.6255    5.5924    2.4214 H   0  0  0  0  0  0  0  0  0  0  0  0
    4.2217    5.2714   -0.2945 H   0  0  0  0  0  0  0  0  0  0  0  0
    5.9424    5.2905   -0.6540 H   0  0  0  0  0  0  0  0  0  0  0  0
    5.8764    3.5787    2.9895 H   0  0  0  0  0  0  0  0  0  0  0  0
    4.2298    3.4720    3.5690 H   0  0  0  0  0  0  0  0  0  0  0  0
    6.3676    3.2821    0.6276 H   0  0  0  0  0  0  0  0  0  0  0  0
    5.1141    2.9592   -0.5282 H   0  0  0  0  0  0  0  0  0  0  0  0
    7.2094    5.8932    3.3841 H   0  0  0  0  0  0  0  0  0  0  0  0
    6.1687    7.6345   -0.4157 H   0  0  0  0  0  0  0  0  0  0  0  0
    9.1364    7.3917    3.5343 H   0  0  0  0  0  0  0  0  0  0  0  0
    8.1284    9.1115   -0.2635 H   0  0  0  0  0  0  0  0  0  0  0  0
    9.6233    9.0054    1.7161 H   0  0  0  0  0  0  0  0  0  0  0  0
    0.5231    2.1612    0.8279 H   0  0  0  0  0  0  0  0  0  0  0  0
   -0.5665    3.9670   -0.2643 H   0  0  0  0  0  0  0  0  0  0  0  0
    0.9252    4.6208    0.3456 H   0  0  0  0  0  0  0  0  0  0  0  0
    0.8084    0.5292   -1.0669 H   0  0  0  0  0  0  0  0  0  0  0  0
   -0.6456    1.5042   -1.1349 H   0  0  0  0  0  0  0  0  0  0  0  0
    0.4269    5.4162   -1.9202 H   0  0  0  0  0  0  0  0  0  0  0  0
    1.9569    4.5636   -1.8748 H   0  0  0  0  0  0  0  0  0  0  0  0
    0.3548    1.3509   -3.3628 H   0  0  0  0  0  0  0  0  0  0  0  0
    1.9041    1.9292   -2.7697 H   0  0  0  0  0  0  0  0  0  0  0  0
    0.8412    3.7978   -3.8556 H   0  0  0  0  0  0  0  0  0  0  0  0
  1  2  1  0  0  0  0
  1 14  1  0  0  0  0
  1 27  1  0  0  0  0
  1 28  1  0  0  0  0
  2 29  1  0  0  0  0
  2 30  1  0  0  0  0
  3  4  1  0  0  0  0
  3 31  1  0  0  0  0
  4  5  1  0  0  0  0
  4  6  2  0  0  0  0
  5  7  1  0  0  0  0
  5  8  1  0  0  0  0
  7 32  1  0  0  0  0
  7 33  1  0  0  0  0
  7 34  1  0  0  0  0
  8 35  1  0  0  0  0
  8 36  1  0  0  0  0
  8 37  1  0  0  0  0
  9 10  1  0  0  0  0
  9 11  1  0  0  0  0
  9 15  1  0  0  0  0
 10 12  1  0  0  0  0
 10 38  1  0  0  0  0
 10 39  1  0  0  0  0
 11 13  1  0  0  0  0
 11 40  1  0  0  0  0
 11 41  1  0  0  0  0
 12 14  1  0  0  0  0
 12 42  1  0  0  0  0
 12 43  1  0  0  0  0
 13 14  1  0  0  0  0
 13 44  1  0  0  0  0
 13 45  1  0  0  0  0
 15 16  2  0  0  0  0
 15 17  1  0  0  0  0
 16 18  1  0  0  0  0
 16 46  1  0  0  0  0
 17 19  2  0  0  0  0
 17 47  1  0  0  0  0
 18 20  2  0  0  0  0
 18 48  1  0  0  0  0
 19 20  1  0  0  0  0
 19 49  1  0  0  0  0
 20 50  1  0  0  0  0
 21 22  1  0  0  0  0
 21 23  1  0  0  0  0
 21 51  1  1  0  0  0
 21  2  1  0  0  0  0
 22 24  1  0  0  0  0
 22 52  1  0  0  0  0
 22 53  1  0  0  0  0
 23 25  1  0  0  0  0
 23 54  1  0  0  0  0
 23 55  1  0  0  0  0
 24 26  1  0  0  0  0
 24 56  1  0  0  0  0
 24 57  1  0  0  0  0
 25 26  1  0  0  0  0
 25 58  1  0  0  0  0
 25 59  1  0  0  0  0
 26  3  1  0  0  0  0
 26 60  1  6  0  0  0
M  END
>  <Mol_ID>
7029

>  <Formula>
C21H33Cl3N4O

>  <MolWeight>
463.87192

>  <Cat>
S7236

>  <Name>
Cariprazine hydrochloride

>  <Synonyms>
RGH188 hydrochloride

>  <Target>
Dopamine Receptor

>  <Form>
hydrochloride

>  <CAS>
1083076-69-0

>  <URL>
https://www.selleckchem.com/products/cariprazine-rgh-188.html

$$$$
