cariporide
 OpenBabel08302520383D

 36 36  0  0  0  0  0  0  0  0999 V2000
    1.4074   -0.1667    0.1312 C   0  0  0  0  0  0  0  0  0  0  0  0
    0.5559   -1.2869   -0.0153 C   0  0  0  0  0  0  0  0  0  0  0  0
    0.8766    1.1393    0.1951 C   0  0  0  0  0  0  0  0  0  0  0  0
    3.1801   -0.3751    0.3011 S   0  0  0  0  0  0  0  0  0  0  0  0
   -0.8280   -1.0404   -0.0857 C   0  0  0  0  0  0  0  0  0  0  0  0
    1.0279   -2.7387   -0.0853 C   0  0  0  0  0  0  0  0  0  0  0  0
   -0.5047    1.3538    0.1564 C   0  0  0  0  0  0  0  0  0  0  0  0
    3.9076    1.2414    0.3885 C   0  0  0  0  0  0  0  0  0  0  0  0
    3.3899   -1.0057    1.5904 O   0  0  0  0  0  0  0  0  0  0  0  0
    3.6498   -0.9805   -0.9297 O   0  0  0  0  0  0  0  0  0  0  0  0
   -1.3481    0.2504    0.0091 C   0  0  0  0  0  0  0  0  0  0  0  0
    0.4366   -3.5730    1.0605 C   0  0  0  0  0  0  0  0  0  0  0  0
    0.6756   -3.3805   -1.4351 C   0  0  0  0  0  0  0  0  0  0  0  0
   -1.1510    2.6972    0.2887 C   0  0  0  0  0  0  0  0  0  0  0  0
   -0.3357    3.8017    0.4741 N   0  0  0  0  0  0  0  0  0  0  0  0
   -2.3805    2.7739    0.2694 O   0  0  0  0  0  0  0  0  0  0  0  0
   -0.7448    5.0961    0.5792 C   0  0  0  0  0  0  0  0  0  0  0  0
   -2.0416    5.4276    0.4549 N   0  0  0  0  0  0  0  0  0  0  0  0
    0.1936    5.9437    0.8022 N   0  0  0  0  0  0  0  0  0  0  0  0
    1.5386    1.9867    0.2886 H   0  0  0  0  0  0  0  0  0  0  0  0
   -1.5321   -1.8638   -0.1977 H   0  0  0  0  0  0  0  0  0  0  0  0
    2.1134   -2.8002    0.0181 H   0  0  0  0  0  0  0  0  0  0  0  0
    3.5387    1.7615    1.2755 H   0  0  0  0  0  0  0  0  0  0  0  0
    4.9907    1.1275    0.4685 H   0  0  0  0  0  0  0  0  0  0  0  0
    3.6721    1.7946   -0.5235 H   0  0  0  0  0  0  0  0  0  0  0  0
   -2.4288    0.3819   -0.0247 H   0  0  0  0  0  0  0  0  0  0  0  0
   -0.6541   -3.6541    0.9932 H   0  0  0  0  0  0  0  0  0  0  0  0
    0.8379   -4.5922    1.0437 H   0  0  0  0  0  0  0  0  0  0  0  0
    0.6787   -3.1303    2.0326 H   0  0  0  0  0  0  0  0  0  0  0  0
    1.1112   -2.8150   -2.2657 H   0  0  0  0  0  0  0  0  0  0  0  0
    1.0599   -4.4055   -1.4876 H   0  0  0  0  0  0  0  0  0  0  0  0
   -0.4068   -3.4315   -1.5982 H   0  0  0  0  0  0  0  0  0  0  0  0
    0.6621    3.7312    0.5636 H   0  0  0  0  0  0  0  0  0  0  0  0
   -2.3758    6.2550    0.9269 H   0  0  0  0  0  0  0  0  0  0  0  0
   -2.6830    4.6320    0.5178 H   0  0  0  0  0  0  0  0  0  0  0  0
   -0.2237    6.8797    0.8332 H   0  0  0  0  0  0  0  0  0  0  0  0
  1  2  2  0  0  0  0
  1  3  1  0  0  0  0
  1  4  1  0  0  0  0
  2  5  1  0  0  0  0
  2  6  1  0  0  0  0
  3  7  2  0  0  0  0
  3 20  1  0  0  0  0
  4  8  1  0  0  0  0
  4  9  2  0  0  0  0
  4 10  2  0  0  0  0
  5 11  2  0  0  0  0
  5 21  1  0  0  0  0
  6 12  1  0  0  0  0
  6 13  1  0  0  0  0
  6 22  1  0  0  0  0
  7 14  1  0  0  0  0
  7 11  1  0  0  0  0
  8 23  1  0  0  0  0
  8 24  1  0  0  0  0
  8 25  1  0  0  0  0
 11 26  1  0  0  0  0
 12 27  1  0  0  0  0
 12 28  1  0  0  0  0
 12 29  1  0  0  0  0
 13 30  1  0  0  0  0
 13 31  1  0  0  0  0
 13 32  1  0  0  0  0
 14 15  1  0  0  0  0
 14 16  2  0  0  0  0
 15 17  1  0  0  0  0
 15 33  1  0  0  0  0
 17 18  1  0  0  0  0
 17 19  2  0  0  0  0
 18 34  1  0  0  0  0
 18 35  1  0  0  0  0
 19 36  1  0  0  0  0
M  END
>  <Mol_ID>
3439

>  <Formula>
C12H17N3O3S

>  <MolWeight>
283.34668

>  <Cat>
S5814

>  <Name>
cariporide

>  <Synonyms>
HOE-642

>  <Target>
Sodium Channel

>  <Form>
Free Base

>  <CAS>
159138-80-4

>  <URL>
http://www.selleckchem.com/products/cariporide.html

$$$$
