Carmofur.cdx
 OpenBabel08302522053D

 34 34  0  0  0  0  0  0  0  0999 V2000
   -0.7524   -0.8606   -0.8012 C   0  0  0  0  0  0  0  0  0  0  0  0
   -1.4613    0.2200   -0.1017 C   0  0  0  0  0  0  0  0  0  0  0  0
   -0.6437    1.1863    0.4192 N   0  0  0  0  0  0  0  0  0  0  0  0
    0.7184    1.2926    0.2475 C   0  0  0  0  0  0  0  0  0  0  0  0
    1.3423    0.2522   -0.4573 N   0  0  0  0  0  0  0  0  0  0  0  0
    0.5700   -0.8023   -0.9471 C   0  0  0  0  0  0  0  0  0  0  0  0
   -1.4877   -1.8746   -1.2920 F   0  0  0  0  0  0  0  0  0  0  0  0
   -2.6804    0.2639    0.0039 O   0  0  0  0  0  0  0  0  0  0  0  0
    1.2920    2.2851    0.7025 O   0  0  0  0  0  0  0  0  0  0  0  0
    2.7267    0.2170   -0.7340 C   0  0  0  0  0  0  0  0  0  0  0  0
    3.4668    1.2629   -0.2397 N   0  0  0  0  0  0  0  0  0  0  0  0
    3.2566   -0.6844   -1.3842 O   0  0  0  0  0  0  0  0  0  0  0  0
    4.8741    1.4468   -0.5298 C   0  0  0  0  0  0  0  0  0  0  0  0
    5.1139    2.1411   -1.8714 C   0  0  0  0  0  0  0  0  0  0  0  0
    4.5244    3.5555   -1.9270 C   0  0  0  0  0  0  0  0  0  0  0  0
    4.8250    4.2950   -3.2361 C   0  0  0  0  0  0  0  0  0  0  0  0
    4.2426    3.6072   -4.4741 C   0  0  0  0  0  0  0  0  0  0  0  0
    4.5109    4.4060   -5.7405 C   0  0  0  0  0  0  0  0  0  0  0  0
   -1.0974    1.9497    0.9000 H   0  0  0  0  0  0  0  0  0  0  0  0
    1.0889   -1.5979   -1.4738 H   0  0  0  0  0  0  0  0  0  0  0  0
    2.9712    2.0240    0.2213 H   0  0  0  0  0  0  0  0  0  0  0  0
    5.3025    2.0308    0.2910 H   0  0  0  0  0  0  0  0  0  0  0  0
    5.3618    0.4655   -0.5366 H   0  0  0  0  0  0  0  0  0  0  0  0
    6.1948    2.1953   -2.0492 H   0  0  0  0  0  0  0  0  0  0  0  0
    4.6859    1.5247   -2.6696 H   0  0  0  0  0  0  0  0  0  0  0  0
    3.4385    3.5154   -1.7850 H   0  0  0  0  0  0  0  0  0  0  0  0
    4.9317    4.1469   -1.0971 H   0  0  0  0  0  0  0  0  0  0  0  0
    4.4080    5.3072   -3.1619 H   0  0  0  0  0  0  0  0  0  0  0  0
    5.9096    4.4083   -3.3525 H   0  0  0  0  0  0  0  0  0  0  0  0
    4.6815    2.6119   -4.5994 H   0  0  0  0  0  0  0  0  0  0  0  0
    3.1613    3.4753   -4.3531 H   0  0  0  0  0  0  0  0  0  0  0  0
    5.5867    4.5387   -5.8989 H   0  0  0  0  0  0  0  0  0  0  0  0
    4.1043    3.8807   -6.6107 H   0  0  0  0  0  0  0  0  0  0  0  0
    4.0446    5.3941   -5.6907 H   0  0  0  0  0  0  0  0  0  0  0  0
  1  2  1  0  0  0  0
  1  7  1  0  0  0  0
  2  3  1  0  0  0  0
  2  8  2  0  0  0  0
  3  4  1  0  0  0  0
  3 19  1  0  0  0  0
  4  5  1  0  0  0  0
  4  9  2  0  0  0  0
  5  6  1  0  0  0  0
  5 10  1  0  0  0  0
  6  1  2  0  0  0  0
  6 20  1  0  0  0  0
 10 11  1  0  0  0  0
 10 12  2  0  0  0  0
 11 13  1  0  0  0  0
 11 21  1  0  0  0  0
 13 14  1  0  0  0  0
 13 22  1  0  0  0  0
 13 23  1  0  0  0  0
 14 15  1  0  0  0  0
 14 24  1  0  0  0  0
 14 25  1  0  0  0  0
 15 16  1  0  0  0  0
 15 26  1  0  0  0  0
 15 27  1  0  0  0  0
 16 17  1  0  0  0  0
 16 28  1  0  0  0  0
 16 29  1  0  0  0  0
 17 18  1  0  0  0  0
 17 30  1  0  0  0  0
 17 31  1  0  0  0  0
 18 32  1  0  0  0  0
 18 33  1  0  0  0  0
 18 34  1  0  0  0  0
M  END
>  <Mol_ID>
158

>  <Formula>
C11H16FN3O3

>  <MolWeight>
257.2614432

>  <Cat>
S1289

>  <Name>
Carmofur

>  <Synonyms>
HCFU

>  <Target>
COVID-19,DNA/RNA Synthesis

>  <Form>
free base

>  <CAS>
61422-45-5

>  <URL>
http://selleckchem.com/products/Carmofur.html

$$$$
