Carsalam.cdx
 OpenBabel08302519503D

 17 18  0  0  0  0  0  0  0  0999 V2000
   -0.0021   -0.7399    0.0535 C   0  0  0  0  0  0  0  0  0  0  0  0
   -0.0052    0.6473    0.0436 C   0  0  0  0  0  0  0  0  0  0  0  0
    1.2889   -1.4347    0.0605 C   0  0  0  0  0  0  0  0  0  0  0  0
   -1.2074   -1.4439    0.0249 C   0  0  0  0  0  0  0  0  0  0  0  0
    1.1822    1.3914    0.0623 O   0  0  0  0  0  0  0  0  0  0  0  0
   -1.2031    1.3569   -0.0054 C   0  0  0  0  0  0  0  0  0  0  0  0
    2.3937   -0.6298    0.0080 N   0  0  0  0  0  0  0  0  0  0  0  0
    1.3678   -2.6544    0.0973 O   0  0  0  0  0  0  0  0  0  0  0  0
   -2.4126   -0.7406   -0.0391 C   0  0  0  0  0  0  0  0  0  0  0  0
    2.4137    0.7391    0.0144 C   0  0  0  0  0  0  0  0  0  0  0  0
   -2.4093    0.6573   -0.0580 C   0  0  0  0  0  0  0  0  0  0  0  0
    3.4680    1.3653   -0.0189 O   0  0  0  0  0  0  0  0  0  0  0  0
   -1.2113   -2.5322    0.0356 H   0  0  0  0  0  0  0  0  0  0  0  0
   -1.1992    2.4438   -0.0174 H   0  0  0  0  0  0  0  0  0  0  0  0
    3.2922   -1.0879   -0.0176 H   0  0  0  0  0  0  0  0  0  0  0  0
   -3.3551   -1.2824   -0.0833 H   0  0  0  0  0  0  0  0  0  0  0  0
   -3.3495    1.2007   -0.1193 H   0  0  0  0  0  0  0  0  0  0  0  0
  1  2  2  0  0  0  0
  1  3  1  0  0  0  0
  1  4  1  0  0  0  0
  2  5  1  0  0  0  0
  2  6  1  0  0  0  0
  3  7  1  0  0  0  0
  3  8  2  0  0  0  0
  4  9  2  0  0  0  0
  4 13  1  0  0  0  0
  5 10  1  0  0  0  0
  6 11  2  0  0  0  0
  6 14  1  0  0  0  0
  7 10  1  0  0  0  0
  7 15  1  0  0  0  0
  9 11  1  0  0  0  0
  9 16  1  0  0  0  0
 10 12  2  0  0  0  0
 11 17  1  0  0  0  0
M  END
>  <Mol_ID>
1506

>  <Formula>
C8H5NO3

>  <MolWeight>
163.1302

>  <Cat>
S4555

>  <Name>
Carsalam

>  <Synonyms>
Carbonylsalicylamide

>  <Target>
Anti-infection

>  <Form>
free base

>  <CAS>
2037-95-8

>  <URL>
http://selleckchem.com/products/carsalam.html

$$$$
