Carteolol hydrochloride.cdx
 OpenBabel08302522063D

 45 46  0  0  0  0  0  0  0  0999 V2000
   -1.0469    1.1345    0.6106 C   0  0  0  0  0  0  0  0  0  0  0  0
   -1.0109   -0.1904    0.1770 C   0  0  0  0  0  0  0  0  0  0  0  0
   -2.1540   -0.9903    0.2095 C   0  0  0  0  0  0  0  0  0  0  0  0
   -3.3485   -0.4603    0.7307 C   0  0  0  0  0  0  0  0  0  0  0  0
   -3.3665    0.8845    1.1704 C   0  0  0  0  0  0  0  0  0  0  0  0
   -2.2331    1.6854    1.0823 C   0  0  0  0  0  0  0  0  0  0  0  0
   -4.6556   -1.2125    0.8097 C   0  0  0  0  0  0  0  0  0  0  0  0
   -5.3736   -0.8267    2.0978 C   0  0  0  0  0  0  0  0  0  0  0  0
   -5.5888    0.6635    2.1664 C   0  0  0  0  0  0  0  0  0  0  0  0
   -4.5323    1.4350    1.7267 N   0  0  0  0  0  0  0  0  0  0  0  0
   -6.5792    1.1695    2.6803 O   0  0  0  0  0  0  0  0  0  0  0  0
   -2.1009   -2.2210   -0.4073 O   0  0  0  0  0  0  0  0  0  0  0  0
   -1.2428   -3.1784    0.2431 C   0  0  0  0  0  0  0  0  0  0  0  0
   -0.1083   -3.7760   -0.6325 C   0  0  3  0  0  0  0  0  0  0  0  0
    1.1235   -2.9077   -1.0310 C   0  0  0  0  0  0  0  0  0  0  0  0
    1.9670   -2.1518   -0.0934 N   0  0  0  0  0  0  0  0  0  0  0  0
    2.7945   -2.7433    0.9754 C   0  0  0  0  0  0  0  0  0  0  0  0
    3.7719   -3.8705    0.5681 C   0  0  0  0  0  0  0  0  0  0  0  0
    0.3320   -5.0135   -0.0479 O   0  0  0  0  0  0  0  0  0  0  0  0
    3.6734   -1.5634    1.4811 C   0  0  0  0  0  0  0  0  0  0  0  0
    1.9290   -3.1761    2.1657 C   0  0  0  0  0  0  0  0  0  0  0  0
   -0.1437    1.7362    0.5695 H   0  0  0  0  0  0  0  0  0  0  0  0
   -0.0812   -0.5805   -0.2109 H   0  0  0  0  0  0  0  0  0  0  0  0
   -2.2531    2.7217    1.3985 H   0  0  0  0  0  0  0  0  0  0  0  0
   -4.5006   -2.2947    0.7911 H   0  0  0  0  0  0  0  0  0  0  0  0
   -5.2775   -0.9417   -0.0546 H   0  0  0  0  0  0  0  0  0  0  0  0
   -4.7831   -1.1151    2.9792 H   0  0  0  0  0  0  0  0  0  0  0  0
   -6.3478   -1.3226    2.1682 H   0  0  0  0  0  0  0  0  0  0  0  0
   -4.5913    2.4281    1.9286 H   0  0  0  0  0  0  0  0  0  0  0  0
   -0.8735   -2.8356    1.2146 H   0  0  0  0  0  0  0  0  0  0  0  0
   -1.9129   -4.0185    0.4786 H   0  0  0  0  0  0  0  0  0  0  0  0
   -0.5725   -4.0616   -1.5870 H   0  0  0  0  0  0  0  0  0  0  0  0
    1.7887   -3.5305   -1.6431 H   0  0  0  0  0  0  0  0  0  0  0  0
    0.7318   -2.1519   -1.7248 H   0  0  0  0  0  0  0  0  0  0  0  0
    2.5790   -1.5641   -0.6660 H   0  0  0  0  0  0  0  0  0  0  0  0
    4.8135   -3.5208    0.5402 H   0  0  0  0  0  0  0  0  0  0  0  0
    3.7521   -4.6962    1.2910 H   0  0  0  0  0  0  0  0  0  0  0  0
    3.5608   -4.2972   -0.4145 H   0  0  0  0  0  0  0  0  0  0  0  0
    1.3037   -5.0150   -0.0437 H   0  0  0  0  0  0  0  0  0  0  0  0
    3.0613   -0.7105    1.7970 H   0  0  0  0  0  0  0  0  0  0  0  0
    4.2897   -1.8628    2.3377 H   0  0  0  0  0  0  0  0  0  0  0  0
    4.3567   -1.2076    0.6984 H   0  0  0  0  0  0  0  0  0  0  0  0
    1.2855   -2.3561    2.5036 H   0  0  0  0  0  0  0  0  0  0  0  0
    1.2948   -4.0317    1.9366 H   0  0  0  0  0  0  0  0  0  0  0  0
    2.5551   -3.4667    3.0185 H   0  0  0  0  0  0  0  0  0  0  0  0
  1  2  2  0  0  0  0
  1 22  1  0  0  0  0
  2  3  1  0  0  0  0
  2 23  1  0  0  0  0
  3  4  2  0  0  0  0
  3 12  1  0  0  0  0
  4  5  1  0  0  0  0
  4  7  1  0  0  0  0
  5  6  2  0  0  0  0
  6  1  1  0  0  0  0
  6 24  1  0  0  0  0
  7  8  1  0  0  0  0
  7 25  1  0  0  0  0
  7 26  1  0  0  0  0
  8  9  1  0  0  0  0
  8 27  1  0  0  0  0
  8 28  1  0  0  0  0
  9 10  1  0  0  0  0
  9 11  2  0  0  0  0
 10  5  1  0  0  0  0
 10 29  1  0  0  0  0
 12 13  1  0  0  0  0
 13 14  1  0  0  0  0
 13 30  1  0  0  0  0
 13 31  1  0  0  0  0
 14 15  1  0  0  0  0
 14 19  1  0  0  0  0
 14 32  1  0  0  0  0
 15 16  1  0  0  0  0
 15 33  1  0  0  0  0
 15 34  1  0  0  0  0
 16 17  1  0  0  0  0
 16 35  1  0  0  0  0
 17 18  1  0  0  0  0
 17 20  1  0  0  0  0
 17 21  1  0  0  0  0
 18 36  1  0  0  0  0
 18 37  1  0  0  0  0
 18 38  1  0  0  0  0
 19 39  1  0  0  0  0
 20 40  1  0  0  0  0
 20 41  1  0  0  0  0
 20 42  1  0  0  0  0
 21 43  1  0  0  0  0
 21 44  1  0  0  0  0
 21 45  1  0  0  0  0
M  END
>  <Mol_ID>
1422

>  <Formula>
C16H25ClN2O3

>  <MolWeight>
328.8343

>  <Cat>
S4278

>  <Name>
Carteolol HCl

>  <Synonyms>
Carteolol hydrochloride,OPC-1085 hydrochloride

>  <Target>
Adrenergic Receptor

>  <Form>
Hydrochloride

>  <CAS>
51781-21-6

>  <URL>
http://selleckchem.com/products/carteolol-hci.html

$$$$
