Carveol
 OpenBabel08302521363D

 27 27  0  0  0  0  0  0  0  0999 V2000
    0.8351   -0.0838   -0.0723 C   0  0  0  0  0  0  0  0  0  0  0  0
    0.1643   -0.0063   -1.4126 C   0  0  0  0  0  0  0  0  0  0  0  0
    0.0846   -0.1850    1.0391 C   0  0  0  0  0  0  0  0  0  0  0  0
    2.9152    1.8565   -2.8512 O   0  0  0  0  0  0  0  0  0  0  0  0
    4.9902   -0.1627   -3.6167 C   0  0  0  0  0  0  0  0  0  0  0  0
    2.3605   -0.0692    0.0035 C   0  0  3  0  0  0  0  0  0  0  0  0
    2.9950    1.2408   -0.5123 C   0  0  0  0  0  0  0  0  0  0  0  0
    2.9765   -1.3766   -0.5272 C   0  0  0  0  0  0  0  0  0  0  0  0
    3.7180    1.2107   -1.8662 C   0  0  3  0  0  0  0  0  0  0  0  0
    3.7904   -1.2821   -1.7760 C   0  0  0  0  0  0  0  0  0  0  0  0
    4.1268   -0.1360   -2.3859 C   0  0  0  0  0  0  0  0  0  0  0  0
   -0.4850   -0.8745   -1.5678 H   0  0  0  0  0  0  0  0  0  0  0  0
   -0.4403    0.9045   -1.4862 H   0  0  0  0  0  0  0  0  0  0  0  0
    0.8843    0.0016   -2.2312 H   0  0  0  0  0  0  0  0  0  0  0  0
    0.5298   -0.2581    2.0282 H   0  0  0  0  0  0  0  0  0  0  0  0
   -0.9998   -0.2054    0.9908 H   0  0  0  0  0  0  0  0  0  0  0  0
    2.2769    1.2023   -3.1768 H   0  0  0  0  0  0  0  0  0  0  0  0
    5.8953   -0.7553   -3.4429 H   0  0  0  0  0  0  0  0  0  0  0  0
    4.4432   -0.5917   -4.4621 H   0  0  0  0  0  0  0  0  0  0  0  0
    5.3151    0.8439   -3.9031 H   0  0  0  0  0  0  0  0  0  0  0  0
    2.5904   -0.0731    1.0819 H   0  0  0  0  0  0  0  0  0  0  0  0
    2.2541    2.0516   -0.5016 H   0  0  0  0  0  0  0  0  0  0  0  0
    3.7488    1.5306    0.2338 H   0  0  0  0  0  0  0  0  0  0  0  0
    3.6344   -1.7895    0.2488 H   0  0  0  0  0  0  0  0  0  0  0  0
    2.1982   -2.1346   -0.6836 H   0  0  0  0  0  0  0  0  0  0  0  0
    4.6181    1.8274   -1.7644 H   0  0  0  0  0  0  0  0  0  0  0  0
    4.1368   -2.2287   -2.1860 H   0  0  0  0  0  0  0  0  0  0  0  0
  1  2  1  0  0  0  0
  1  3  2  0  0  0  0
  1  6  1  0  0  0  0
  2 12  1  0  0  0  0
  2 13  1  0  0  0  0
  2 14  1  0  0  0  0
  3 15  1  0  0  0  0
  3 16  1  0  0  0  0
  4  9  1  0  0  0  0
  4 17  1  0  0  0  0
  5 11  1  0  0  0  0
  5 18  1  0  0  0  0
  5 19  1  0  0  0  0
  5 20  1  0  0  0  0
  6  7  1  0  0  0  0
  6  8  1  0  0  0  0
  6 21  1  0  0  0  0
  7  9  1  0  0  0  0
  7 22  1  0  0  0  0
  7 23  1  0  0  0  0
  8 10  1  0  0  0  0
  8 24  1  0  0  0  0
  8 25  1  0  0  0  0
  9 11  1  0  0  0  0
  9 26  1  0  0  0  0
 10 11  2  0  0  0  0
 10 27  1  0  0  0  0
M  END
>  <Mol_ID>
7214

>  <Formula>
C10H16O

>  <MolWeight>
152.23344

>  <Cat>
E4219

>  <Name>
Carveol

>  <Synonyms>
Carveol

>  <Target>
Endogenous Metabolite

>  <Form>
free base

>  <CAS>
99-48-9

>  <URL>
https://www.selleckchem.com/products/carveol.html

$$$$
