¦Â-Caryophyllene
 OpenBabel08302521032D

 39 40  0  0  0  0  0  0  0  0999 V2000
    2.8090    3.7858    0.0000 C   0  0  2  0  0  0  0  0  0  0  0  0
    2.8090    2.3673    0.0000 C   0  0  2  0  0  0  0  0  0  0  0  0
    1.3952    3.7858    0.0000 C   0  0  0  0  0  0  0  0  0  0  0  0
    3.5105    5.0009    0.0000 C   0  0  0  0  0  0  0  0  0  0  0  0
    1.3859    2.3673    0.0000 C   0  0  0  0  0  0  0  0  0  0  0  0
    3.5092    1.1544    0.0000 C   0  0  0  0  0  0  0  0  0  0  0  0
    1.1551    5.1650    0.0000 C   0  0  0  0  0  0  0  0  0  0  0  0
    0.0000    3.6698    0.0000 C   0  0  0  0  0  0  0  0  0  0  0  0
    4.9241    5.2545    0.0000 C   0  0  0  0  0  0  0  0  0  0  0  0
    4.9133    0.9343    0.0000 C   0  0  0  0  0  0  0  0  0  0  0  0
    2.7172    0.0000    0.0000 C   0  0  0  0  0  0  0  0  0  0  0  0
    5.7743    4.1557    0.0000 C   0  0  0  0  0  0  0  0  0  0  0  0
    5.7341    2.0275    0.0000 C   0  0  0  0  0  0  0  0  0  0  0  0
    4.8995    3.1158    0.0000 C   0  0  0  0  0  0  0  0  0  0  0  0
    7.1742    4.1557    0.0000 C   0  0  0  0  0  0  0  0  0  0  0  0
    3.8425    3.5089    0.0000 H   0  0  0  0  0  0  0  0  0  0  0  0
    2.0524    3.1239    0.0000 H   0  0  0  0  0  0  0  0  0  0  0  0
    2.8955    5.8765    0.0000 H   0  0  0  0  0  0  0  0  0  0  0  0
    3.9178    5.9904    0.0000 H   0  0  0  0  0  0  0  0  0  0  0  0
    0.6268    1.6132    0.0000 H   0  0  0  0  0  0  0  0  0  0  0  0
    0.3994    2.7816    0.0000 H   0  0  0  0  0  0  0  0  0  0  0  0
    1.9763    5.8510    0.0000 H   0  0  0  0  0  0  0  0  0  0  0  0
    0.1504    5.5331    0.0000 H   0  0  0  0  0  0  0  0  0  0  0  0
    0.9716    6.2191    0.0000 H   0  0  0  0  0  0  0  0  0  0  0  0
   -0.6099    4.5489    0.0000 H   0  0  0  0  0  0  0  0  0  0  0  0
   -0.4564    2.7020    0.0000 H   0  0  0  0  0  0  0  0  0  0  0  0
   -1.0663    3.5811    0.0000 H   0  0  0  0  0  0  0  0  0  0  0  0
    5.3084    6.2531    0.0000 H   0  0  0  0  0  0  0  0  0  0  0  0
    5.9828    5.4097    0.0000 H   0  0  0  0  0  0  0  0  0  0  0  0
    5.3158   -0.0571    0.0000 H   0  0  0  0  0  0  0  0  0  0  0  0
    5.9744    0.7964    0.0000 H   0  0  0  0  0  0  0  0  0  0  0  0
    1.6883    0.0801    0.0000 H   0  0  0  0  0  0  0  0  0  0  0  0
    3.1623   -0.9311    0.0000 H   0  0  0  0  0  0  0  0  0  0  0  0
    6.8041    2.0330    0.0000 H   0  0  0  0  0  0  0  0  0  0  0  0
    6.2050    2.9883    0.0000 H   0  0  0  0  0  0  0  0  0  0  0  0
    3.8678    3.1391    0.0000 H   0  0  0  0  0  0  0  0  0  0  0  0
    7.7092    3.2291    0.0000 H   0  0  0  0  0  0  0  0  0  0  0  0
    7.7092    5.0823    0.0000 H   0  0  0  0  0  0  0  0  0  0  0  0
    8.2442    4.1557    0.0000 H   0  0  0  0  0  0  0  0  0  0  0  0
  1  2  1  0  0  0  0
  1  3  1  0  0  0  0
  1  4  1  0  0  0  0
  1 16  1  1  0  0  0
  2  5  1  0  0  0  0
  2  6  1  0  0  0  0
  2 17  1  6  0  0  0
  3  7  1  0  0  0  0
  3  8  1  0  0  0  0
  3  5  1  0  0  0  0
  4  9  1  0  0  0  0
  4 18  1  0  0  0  0
  4 19  1  0  0  0  0
  5 20  1  0  0  0  0
  5 21  1  0  0  0  0
  6 10  1  0  0  0  0
  6 11  2  0  0  0  0
  7 22  1  0  0  0  0
  7 23  1  0  0  0  0
  7 24  1  0  0  0  0
  8 25  1  0  0  0  0
  8 26  1  0  0  0  0
  8 27  1  0  0  0  0
  9 12  1  0  0  0  0
  9 28  1  0  0  0  0
  9 29  1  0  0  0  0
 10 13  1  0  0  0  0
 10 30  1  0  0  0  0
 10 31  1  0  0  0  0
 11 32  1  0  0  0  0
 11 33  1  0  0  0  0
 12 14  2  0  0  0  0
 12 15  1  0  0  0  0
 13 14  1  0  0  0  0
 13 34  1  0  0  0  0
 13 35  1  0  0  0  0
 14 36  1  0  0  0  0
 15 37  1  0  0  0  0
 15 38  1  0  0  0  0
 15 39  1  0  0  0  0
M  END
>  <Mol_ID>
3539

>  <Formula>
C15H24

>  <MolWeight>
204.35106

>  <Cat>
S6058

>  <Name>
¦Â-Caryophyllene

>  <Synonyms>
N/A

>  <Target>
Immunology & Inflammation related

>  <Form>
free base

>  <CAS>
87-44-5

>  <URL>
http://www.selleck.cn/products/caryophyllene.html

$$$$
