CATAFLAM (diclofenac potassium).cdx
 OpenBabel08302522003D

 29 30  0  0  0  0  0  0  0  0999 V2000
    1.4412   -0.2905    0.0493 C   0  0  0  0  0  0  0  0  0  0  0  0
    0.5334   -1.3334   -0.0726 C   0  0  0  0  0  0  0  0  0  0  0  0
   -0.8346   -1.0517   -0.0860 C   0  0  0  0  0  0  0  0  0  0  0  0
   -1.3214    0.2662   -0.0386 C   0  0  0  0  0  0  0  0  0  0  0  0
   -0.4079    1.2901    0.2639 C   0  0  0  0  0  0  0  0  0  0  0  0
    0.9736    1.0065    0.2480 C   0  0  0  0  0  0  0  0  0  0  0  0
   -2.7218    0.5205   -0.1909 N   0  0  0  0  0  0  0  0  0  0  0  0
   -2.2775    3.4640   -1.0550 O   0  0  0  0  0  0  0  0  0  0  0  0
   -1.0929    3.5455   -0.6087 C   0  0  0  0  0  0  0  0  0  0  0  0
   -0.8245    2.6970    0.6213 C   0  0  0  0  0  0  0  0  0  0  0  0
   -3.6068   -0.2990   -0.9476 C   0  0  0  0  0  0  0  0  0  0  0  0
   -4.9530   -0.3926   -0.5822 C   0  0  0  0  0  0  0  0  0  0  0  0
   -5.8189   -1.2569   -1.2660 C   0  0  0  0  0  0  0  0  0  0  0  0
   -5.3551   -2.0140   -2.3419 C   0  0  0  0  0  0  0  0  0  0  0  0
   -4.0409   -1.8644   -2.7697 C   0  0  0  0  0  0  0  0  0  0  0  0
   -3.1881   -0.9866   -2.0987 C   0  0  0  0  0  0  0  0  0  0  0  0
   -0.1267    4.2584   -1.0093 O   0  5  0  0  0  0  0  0  0  0  0  0
    2.5075   -0.4860    0.0126 H   0  0  0  0  0  0  0  0  0  0  0  0
    0.8756   -2.3561   -0.1806 H   0  0  0  0  0  0  0  0  0  0  0  0
   -1.5257   -1.8859   -0.1785 H   0  0  0  0  0  0  0  0  0  0  0  0
    1.6873    1.8176    0.3710 H   0  0  0  0  0  0  0  0  0  0  0  0
   -2.8516    1.5100   -0.4694 H   0  0  0  0  0  0  0  0  0  0  0  0
   -1.7213    2.6712    1.2568 H   0  0  0  0  0  0  0  0  0  0  0  0
   -0.0557    3.1755    1.2400 H   0  0  0  0  0  0  0  0  0  0  0  0
   -5.3214    0.1814    0.2637 H   0  0  0  0  0  0  0  0  0  0  0  0
   -6.8543   -1.3461   -0.9484 H   0  0  0  0  0  0  0  0  0  0  0  0
   -6.0177   -2.7054   -2.8526 H   0  0  0  0  0  0  0  0  0  0  0  0
   -3.6690   -2.4289   -3.6198 H   0  0  0  0  0  0  0  0  0  0  0  0
   -2.1714   -0.8601   -2.4633 H   0  0  0  0  0  0  0  0  0  0  0  0
  1  2  2  0  0  0  0
  1 18  1  0  0  0  0
  2  3  1  0  0  0  0
  2 19  1  0  0  0  0
  3  4  2  0  0  0  0
  3 20  1  0  0  0  0
  4  5  1  0  0  0  0
  4  7  1  0  0  0  0
  5  6  2  0  0  0  0
  6  1  1  0  0  0  0
  6 21  1  0  0  0  0
  7 11  1  0  0  0  0
  7 22  1  0  0  0  0
  8  9  2  0  0  0  0
  9 10  1  0  0  0  0
  9 17  1  0  0  0  0
 10  5  1  0  0  0  0
 10 23  1  0  0  0  0
 10 24  1  0  0  0  0
 11 12  2  0  0  0  0
 12 13  1  0  0  0  0
 12 25  1  0  0  0  0
 13 14  2  0  0  0  0
 13 26  1  0  0  0  0
 14 15  1  0  0  0  0
 14 27  1  0  0  0  0
 15 16  2  0  0  0  0
 15 28  1  0  0  0  0
 16 11  1  0  0  0  0
 16 29  1  0  0  0  0
M  CHG  1  17  -1
M  END
>  <Mol_ID>
1038

>  <Formula>
C14H10Cl2KNO2

>  <MolWeight>
334.239

>  <Cat>
S3062

>  <Name>
Diclofenac Potassium

>  <Synonyms>
CGP-45840B

>  <Target>
Immunology & Inflammation related

>  <Form>
Potassium

>  <CAS>
15307-81-0

>  <URL>
http://selleckchem.com/products/diclofenac-potassium.html

$$$$
