Catharanthine Sulfate
 OpenBabel08302521563D

 56 59  0  0  0  0  0  0  0  0999 V2000
    0.1196   -1.3017   -1.0397 S   0  0  0  0  0  0  0  0  0  0  0  0
    0.3447   -1.3735    0.3693 O   0  0  0  0  0  0  0  0  0  0  0  0
   -0.3061   -0.1029   -1.7270 O   0  0  0  0  0  0  0  0  0  0  0  0
   -0.9422   -2.4611   -1.3391 O   0  0  0  0  0  0  0  0  0  0  0  0
    1.4361   -1.8510   -1.7896 O   0  0  0  0  0  0  0  0  0  0  0  0
    5.8049    2.7466    0.2439 C   0  0  0  0  0  0  0  0  0  0  0  0
    6.1261    3.5249    1.3159 O   0  0  0  0  0  0  0  0  0  0  0  0
    6.0855    3.0463   -0.9092 O   0  0  0  0  0  0  0  0  0  0  0  0
    6.7177    4.7720    0.9188 C   0  0  0  0  0  0  0  0  0  0  0  0
    6.3167   -2.0670   -1.1688 C   0  0  0  0  0  0  0  0  0  0  0  0
    7.5272   -1.7761   -2.0262 C   0  0  0  0  0  0  0  0  0  0  0  0
    4.9253    1.5505    0.6137 C   0  0  2  0  0  0  0  0  0  0  0  0
    5.2360    0.3827   -0.5764 C   0  0  2  0  0  0  0  0  0  0  0  0
    3.4022    2.1286    0.7664 C   0  0  0  0  0  0  0  0  0  0  0  0
    5.1531    0.7386    1.8753 C   0  0  0  0  0  0  0  0  0  0  0  0
    3.9182   -0.1023   -1.0095 N   0  0  1  0  0  0  0  0  0  0  0  0
    5.8870   -1.0131   -0.1624 C   0  0  0  0  0  0  0  0  0  0  0  0
    2.4423    2.3880   -0.2044 C   0  0  0  0  0  0  0  0  0  0  0  0
    2.6794    2.1406    1.9696 N   0  0  0  0  0  0  0  0  0  0  0  0
    4.3987   -0.5998    1.5807 C   0  0  1  0  0  0  0  0  0  0  0  0
    3.3168   -0.5741    0.3092 C   0  0  0  0  0  0  0  0  0  0  0  0
    3.3975    0.9028   -1.9774 C   0  0  0  0  0  0  0  0  0  0  0  0
    5.4974   -1.4643    1.0479 C   0  0  0  0  0  0  0  0  0  0  0  0
    1.1511    2.5034    0.4057 C   0  0  0  0  0  0  0  0  0  0  0  0
    2.6449    2.2038   -1.6471 C   0  0  0  0  0  0  0  0  0  0  0  0
    1.3155    2.1254    1.7287 C   0  0  0  0  0  0  0  0  0  0  0  0
   -0.1576    2.6669   -0.0996 C   0  0  0  0  0  0  0  0  0  0  0  0
    0.2279    1.7472    2.5357 C   0  0  0  0  0  0  0  0  0  0  0  0
   -1.2536    2.3136    0.6935 C   0  0  0  0  0  0  0  0  0  0  0  0
   -1.0570    1.8173    1.9777 C   0  0  0  0  0  0  0  0  0  0  0  0
   -1.0783   -2.9218   -0.4803 H   0  0  0  0  0  0  0  0  0  0  0  0
    2.1692   -1.2034   -1.6832 H   0  0  0  0  0  0  0  0  0  0  0  0
    7.6417    4.6072    0.3531 H   0  0  0  0  0  0  0  0  0  0  0  0
    6.0086    5.3560    0.3200 H   0  0  0  0  0  0  0  0  0  0  0  0
    6.9603    5.3467    1.8163 H   0  0  0  0  0  0  0  0  0  0  0  0
    6.5175   -3.0126   -0.6419 H   0  0  0  0  0  0  0  0  0  0  0  0
    5.4660   -2.2919   -1.8269 H   0  0  0  0  0  0  0  0  0  0  0  0
    8.3894   -1.4877   -1.4210 H   0  0  0  0  0  0  0  0  0  0  0  0
    7.7959   -2.6835   -2.5833 H   0  0  0  0  0  0  0  0  0  0  0  0
    7.3128   -0.9931   -2.7573 H   0  0  0  0  0  0  0  0  0  0  0  0
    5.8752    0.7686   -1.3777 H   0  0  0  0  0  0  0  0  0  0  0  0
    6.2305    0.5944    2.0497 H   0  0  0  0  0  0  0  0  0  0  0  0
    4.8147    1.2088    2.8010 H   0  0  0  0  0  0  0  0  0  0  0  0
    3.0434    1.9038    2.8791 H   0  0  0  0  0  0  0  0  0  0  0  0
    3.9401   -1.0307    2.4750 H   0  0  0  0  0  0  0  0  0  0  0  0
    3.0410   -1.6242    0.1645 H   0  0  0  0  0  0  0  0  0  0  0  0
    2.3957   -0.0747    0.5813 H   0  0  0  0  0  0  0  0  0  0  0  0
    4.2593    1.2569   -2.5714 H   0  0  0  0  0  0  0  0  0  0  0  0
    2.8317    0.3762   -2.7517 H   0  0  0  0  0  0  0  0  0  0  0  0
    5.6396   -2.4781    1.4045 H   0  0  0  0  0  0  0  0  0  0  0  0
    1.6759    2.1575   -2.1586 H   0  0  0  0  0  0  0  0  0  0  0  0
    3.1605    3.0838   -2.0501 H   0  0  0  0  0  0  0  0  0  0  0  0
   -0.3194    2.9624   -1.1324 H   0  0  0  0  0  0  0  0  0  0  0  0
    0.3671    1.3368    3.5308 H   0  0  0  0  0  0  0  0  0  0  0  0
   -2.2554    2.3670    0.2726 H   0  0  0  0  0  0  0  0  0  0  0  0
   -1.9162    1.4650    2.5455 H   0  0  0  0  0  0  0  0  0  0  0  0
  1  2  2  0  0  0  0
  1  3  2  0  0  0  0
  1  4  1  0  0  0  0
  1  5  1  0  0  0  0
  4 31  1  0  0  0  0
  5 32  1  0  0  0  0
  6  7  1  0  0  0  0
  6  8  2  0  0  0  0
  7  9  1  0  0  0  0
  9 33  1  0  0  0  0
  9 34  1  0  0  0  0
  9 35  1  0  0  0  0
 10 11  1  0  0  0  0
 10 17  1  0  0  0  0
 10 36  1  0  0  0  0
 10 37  1  0  0  0  0
 11 38  1  0  0  0  0
 11 39  1  0  0  0  0
 11 40  1  0  0  0  0
 12  6  1  6  0  0  0
 12 13  1  0  0  0  0
 12 14  1  0  0  0  0
 12 15  1  0  0  0  0
 13 16  1  0  0  0  0
 13 17  1  0  0  0  0
 13 41  1  6  0  0  0
 14 18  2  0  0  0  0
 14 19  1  0  0  0  0
 15 42  1  0  0  0  0
 15 43  1  0  0  0  0
 16 21  1  1  0  0  0
 16 22  1  0  0  0  0
 17 23  2  0  0  0  0
 18 24  1  0  0  0  0
 18 25  1  0  0  0  0
 19 26  1  0  0  0  0
 19 44  1  0  0  0  0
 20 15  1  0  0  0  0
 20 21  1  0  0  0  0
 20 23  1  0  0  0  0
 20 45  1  1  0  0  0
 21 46  1  0  0  0  0
 21 47  1  0  0  0  0
 22 25  1  0  0  0  0
 22 48  1  0  0  0  0
 22 49  1  0  0  0  0
 23 50  1  0  0  0  0
 24 26  2  0  0  0  0
 24 27  1  0  0  0  0
 25 51  1  0  0  0  0
 25 52  1  0  0  0  0
 26 28  1  0  0  0  0
 27 29  2  0  0  0  0
 27 53  1  0  0  0  0
 28 30  2  0  0  0  0
 28 54  1  0  0  0  0
 29 30  1  0  0  0  0
 29 55  1  0  0  0  0
 30 56  1  0  0  0  0
M  END
>  <Mol_ID>
10059

>  <Formula>
C21H26N2O6S

>  <MolWeight>
434.50594

>  <Cat>
E5631

>  <Name>
Catharanthine Sulfate

>  <Synonyms>
N/A

>  <Target>
AChR

>  <Form>
Sulfate

>  <CAS>
70674-90-7

>  <URL>
https://www.selleckchem.com/products/catharanthine-sulfate.html

$$$$
