Caudatin
 OpenBabel08302521253D

 77 80  0  0  0  0  0  0  0  0999 V2000
    3.3368    0.8901   -0.3257 C   0  0  0  0  0  0  0  0  0  0  0  0
    4.6282    1.6098   -0.7312 C   0  0  1  0  0  0  0  0  0  0  0  0
    5.3085    2.2953    0.4690 C   0  0  0  0  0  0  0  0  0  0  0  0
    4.2962    3.3316    0.9072 C   0  0  0  0  0  0  0  0  0  0  0  0
    2.9992    2.7669    1.4766 C   0  0  2  0  0  0  0  0  0  0  0  0
    2.8634    1.2464    1.0910 C   0  0  0  0  0  0  0  0  0  0  0  0
    4.4282    4.5639    0.3826 C   0  0  0  0  0  0  0  0  0  0  0  0
    3.2560    5.4043   -0.0270 C   0  0  0  0  0  0  0  0  0  0  0  0
    1.9126    5.0443    0.6323 C   0  0  2  0  0  0  0  0  0  0  0  0
    1.7901    3.5253    0.8622 C   0  0  2  0  0  0  0  0  0  0  0  0
    0.6348    5.6340   -0.1452 C   0  0  2  0  0  0  0  0  0  0  0  0
   -0.7287    4.7653   -0.0747 C   0  0  2  0  0  0  0  0  0  0  0  0
   -0.5856    3.3396    0.5668 C   0  0  1  0  0  0  0  0  0  0  0  0
    0.4839    3.2621    1.6193 C   0  0  0  0  0  0  0  0  0  0  0  0
    5.5128    0.7143   -1.3868 O   0  0  0  0  0  0  0  0  0  0  0  0
    3.0456    2.8266    3.0207 C   0  0  0  0  0  0  0  0  0  0  0  0
    1.9117    5.7033    1.9315 O   0  0  0  0  0  0  0  0  0  0  0  0
    0.7819    5.9814   -1.6435 C   0  0  0  0  0  0  0  0  0  0  0  0
    0.0862    4.8921   -2.4116 C   0  0  0  0  0  0  0  0  0  0  0  0
   -1.1532    4.5558   -1.5941 C   0  0  2  0  0  0  0  0  0  0  0  0
    0.4225    6.9526    0.4306 O   0  0  0  0  0  0  0  0  0  0  0  0
   -1.7920    5.5649    0.7331 C   0  0  0  0  0  0  0  0  0  0  0  0
   -1.8352    2.9248    1.1471 O   0  0  0  0  0  0  0  0  0  0  0  0
   -2.3810    1.7749    0.6877 C   0  0  0  0  0  0  0  0  0  0  0  0
   -3.8080    1.8912    1.0627 C   0  0  0  0  0  0  0  0  0  0  0  0
   -4.8352    1.1643    0.5812 C   0  0  0  0  0  0  0  0  0  0  0  0
   -6.2293    1.4752    1.1002 C   0  0  0  0  0  0  0  0  0  0  0  0
   -4.6713    0.0751   -0.4428 C   0  0  0  0  0  0  0  0  0  0  0  0
   -6.8712    0.2430    1.7327 C   0  0  0  0  0  0  0  0  0  0  0  0
   -7.1136    2.1063    0.0234 C   0  0  0  0  0  0  0  0  0  0  0  0
   -1.8426    0.8705    0.0806 O   0  0  0  0  0  0  0  0  0  0  0  0
   -2.4788    5.2336   -2.0083 C   0  0  0  0  0  0  0  0  0  0  0  0
   -2.4844    6.6506   -2.4946 C   0  0  0  0  0  0  0  0  0  0  0  0
   -1.3738    3.1661   -1.9203 O   0  0  0  0  0  0  0  0  0  0  0  0
   -3.5321    4.5816   -2.0224 O   0  0  0  0  0  0  0  0  0  0  0  0
    3.4582   -0.1970   -0.3960 H   0  0  0  0  0  0  0  0  0  0  0  0
    2.5471    1.1416   -1.0476 H   0  0  0  0  0  0  0  0  0  0  0  0
    4.3690    2.3776   -1.4754 H   0  0  0  0  0  0  0  0  0  0  0  0
    6.2601    2.7404    0.1565 H   0  0  0  0  0  0  0  0  0  0  0  0
    5.5521    1.5868    1.2681 H   0  0  0  0  0  0  0  0  0  0  0  0
    1.8296    0.8980    1.2043 H   0  0  0  0  0  0  0  0  0  0  0  0
    3.4439    0.6366    1.7968 H   0  0  0  0  0  0  0  0  0  0  0  0
    5.3723    4.8524   -0.0801 H   0  0  0  0  0  0  0  0  0  0  0  0
    3.2080    5.2102   -1.1020 H   0  0  0  0  0  0  0  0  0  0  0  0
    3.4935    6.4634    0.1178 H   0  0  0  0  0  0  0  0  0  0  0  0
    1.7098    3.1127   -0.1545 H   0  0  0  0  0  0  0  0  0  0  0  0
   -0.2791    2.6012   -0.1808 H   0  0  0  0  0  0  0  0  0  0  0  0
    0.4468    2.2715    2.0844 H   0  0  0  0  0  0  0  0  0  0  0  0
    0.2957    3.9695    2.4367 H   0  0  0  0  0  0  0  0  0  0  0  0
    5.0662    0.4342   -2.2062 H   0  0  0  0  0  0  0  0  0  0  0  0
    2.2463    2.2256    3.4715 H   0  0  0  0  0  0  0  0  0  0  0  0
    2.9500    3.8404    3.4136 H   0  0  0  0  0  0  0  0  0  0  0  0
    3.9898    2.4195    3.4032 H   0  0  0  0  0  0  0  0  0  0  0  0
    2.7963    5.5705    2.3223 H   0  0  0  0  0  0  0  0  0  0  0  0
    0.2974    6.9403   -1.8643 H   0  0  0  0  0  0  0  0  0  0  0  0
    1.7993    6.1281   -2.0015 H   0  0  0  0  0  0  0  0  0  0  0  0
   -0.1510    5.1988   -3.4347 H   0  0  0  0  0  0  0  0  0  0  0  0
    0.7542    4.0232   -2.4886 H   0  0  0  0  0  0  0  0  0  0  0  0
    0.8131    6.9039    1.3327 H   0  0  0  0  0  0  0  0  0  0  0  0
   -1.4693    5.6916    1.7738 H   0  0  0  0  0  0  0  0  0  0  0  0
   -1.9613    6.5654    0.3231 H   0  0  0  0  0  0  0  0  0  0  0  0
   -2.7684    5.0703    0.7500 H   0  0  0  0  0  0  0  0  0  0  0  0
   -4.0087    2.6860    1.7769 H   0  0  0  0  0  0  0  0  0  0  0  0
   -6.1499    2.2229    1.9028 H   0  0  0  0  0  0  0  0  0  0  0  0
   -4.2606   -0.8255    0.0246 H   0  0  0  0  0  0  0  0  0  0  0  0
   -4.0178    0.3862   -1.2635 H   0  0  0  0  0  0  0  0  0  0  0  0
   -5.6282   -0.1987   -0.8990 H   0  0  0  0  0  0  0  0  0  0  0  0
   -7.1419   -0.5075    0.9840 H   0  0  0  0  0  0  0  0  0  0  0  0
   -6.1883   -0.2231    2.4522 H   0  0  0  0  0  0  0  0  0  0  0  0
   -7.7816    0.5227    2.2717 H   0  0  0  0  0  0  0  0  0  0  0  0
   -7.3272    1.4133   -0.7960 H   0  0  0  0  0  0  0  0  0  0  0  0
   -8.0704    2.4228    0.4525 H   0  0  0  0  0  0  0  0  0  0  0  0
   -6.6344    2.9957   -0.4034 H   0  0  0  0  0  0  0  0  0  0  0  0
   -1.8118    7.2750   -1.9103 H   0  0  0  0  0  0  0  0  0  0  0  0
   -3.4940    7.0567   -2.3826 H   0  0  0  0  0  0  0  0  0  0  0  0
   -2.2066    6.6642   -3.5505 H   0  0  0  0  0  0  0  0  0  0  0  0
   -2.0747    3.1013   -2.5959 H   0  0  0  0  0  0  0  0  0  0  0  0
  1  2  1  0  0  0  0
  1 36  1  0  0  0  0
  1 37  1  0  0  0  0
  2  3  1  0  0  0  0
  2 15  1  0  0  0  0
  2 38  1  6  0  0  0
  3  4  1  0  0  0  0
  3 39  1  0  0  0  0
  3 40  1  0  0  0  0
  4  5  1  0  0  0  0
  4  7  2  0  0  0  0
  5  6  1  0  0  0  0
  5 16  1  1  0  0  0
  6  1  1  0  0  0  0
  6 41  1  0  0  0  0
  6 42  1  0  0  0  0
  7  8  1  0  0  0  0
  7 43  1  0  0  0  0
  8  9  1  0  0  0  0
  8 44  1  0  0  0  0
  8 45  1  0  0  0  0
  9 10  1  0  0  0  0
  9 11  1  0  0  0  0
  9 17  1  1  0  0  0
 10  5  1  0  0  0  0
 10 14  1  0  0  0  0
 10 46  1  6  0  0  0
 11 12  1  0  0  0  0
 11 18  1  0  0  0  0
 11 21  1  1  0  0  0
 12 13  1  0  0  0  0
 12 22  1  1  0  0  0
 13 14  1  0  0  0  0
 13 23  1  0  0  0  0
 13 47  1  6  0  0  0
 14 48  1  0  0  0  0
 14 49  1  0  0  0  0
 15 50  1  0  0  0  0
 16 51  1  0  0  0  0
 16 52  1  0  0  0  0
 16 53  1  0  0  0  0
 17 54  1  0  0  0  0
 18 19  1  0  0  0  0
 18 55  1  0  0  0  0
 18 56  1  0  0  0  0
 19 57  1  0  0  0  0
 19 58  1  0  0  0  0
 20 12  1  0  0  0  0
 20 19  1  0  0  0  0
 20 32  1  6  0  0  0
 20 34  1  0  0  0  0
 21 59  1  0  0  0  0
 22 60  1  0  0  0  0
 22 61  1  0  0  0  0
 22 62  1  0  0  0  0
 23 24  1  0  0  0  0
 24 25  1  0  0  0  0
 24 31  2  0  0  0  0
 25 26  2  0  0  0  0
 25 63  1  0  0  0  0
 26 27  1  0  0  0  0
 26 28  1  0  0  0  0
 27 29  1  0  0  0  0
 27 30  1  0  0  0  0
 27 64  1  0  0  0  0
 28 65  1  0  0  0  0
 28 66  1  0  0  0  0
 28 67  1  0  0  0  0
 29 68  1  0  0  0  0
 29 69  1  0  0  0  0
 29 70  1  0  0  0  0
 30 71  1  0  0  0  0
 30 72  1  0  0  0  0
 30 73  1  0  0  0  0
 32 33  1  0  0  0  0
 32 35  2  0  0  0  0
 33 74  1  0  0  0  0
 33 75  1  0  0  0  0
 33 76  1  0  0  0  0
 34 77  1  0  0  0  0
M  END
>  <Mol_ID>
5146

>  <Formula>
C28H42O7

>  <MolWeight>
490.62888

>  <Cat>
S3271

>  <Name>
Caudatin

>  <Synonyms>
Cauldatin

>  <Target>
Apoptosis related

>  <Form>
free base

>  <CAS>
38395-02-7

>  <URL>
http://www.selleckchem.com/products/caudatin.html

$$$$
