Caulophylline (N-Methylcytisine)
 OpenBabel08302521253D

 31 33  0  0  0  0  0  0  0  0999 V2000
    0.7468    0.8299   -0.1228 N   0  0  0  0  0  0  0  0  0  0  0  0
    0.5603   -0.5251   -0.4131 C   0  0  0  0  0  0  0  0  0  0  0  0
   -0.8097   -1.0290   -0.8386 C   0  0  1  0  0  0  0  0  0  0  0  0
   -1.5839   -1.6649    0.3316 C   0  0  0  0  0  0  0  0  0  0  0  0
   -2.1291   -0.7415    1.3331 N   0  0  0  0  0  0  0  0  0  0  0  0
   -2.1982    0.6874    1.0040 C   0  0  0  0  0  0  0  0  0  0  0  0
   -1.7289    1.1794   -0.3825 C   0  0  1  0  0  0  0  0  0  0  0  0
   -0.3298    1.7920   -0.3160 C   0  0  0  0  0  0  0  0  0  0  0  0
    1.6009   -1.3725   -0.2996 C   0  0  0  0  0  0  0  0  0  0  0  0
    2.8913   -0.9092    0.1446 C   0  0  0  0  0  0  0  0  0  0  0  0
    3.0915    0.3791    0.4219 C   0  0  0  0  0  0  0  0  0  0  0  0
    1.9836    1.3561    0.2620 C   0  0  0  0  0  0  0  0  0  0  0  0
   -1.6988    0.0667   -1.4154 C   0  0  0  0  0  0  0  0  0  0  0  0
    2.2048    2.5458    0.4700 O   0  0  0  0  0  0  0  0  0  0  0  0
   -3.4021   -1.2295    1.8640 C   0  0  0  0  0  0  0  0  0  0  0  0
   -0.6748   -1.7963   -1.6133 H   0  0  0  0  0  0  0  0  0  0  0  0
   -0.9494   -2.3960    0.8492 H   0  0  0  0  0  0  0  0  0  0  0  0
   -2.3984   -2.2515   -0.1175 H   0  0  0  0  0  0  0  0  0  0  0  0
   -1.6230    1.2069    1.7828 H   0  0  0  0  0  0  0  0  0  0  0  0
   -3.2232    1.0580    1.1395 H   0  0  0  0  0  0  0  0  0  0  0  0
   -2.4230    1.9603   -0.7173 H   0  0  0  0  0  0  0  0  0  0  0  0
   -0.2857    2.5531    0.4728 H   0  0  0  0  0  0  0  0  0  0  0  0
   -0.1145    2.3155   -1.2576 H   0  0  0  0  0  0  0  0  0  0  0  0
    1.4935   -2.4319   -0.5099 H   0  0  0  0  0  0  0  0  0  0  0  0
    3.6882   -1.6368    0.2612 H   0  0  0  0  0  0  0  0  0  0  0  0
    4.0400    0.7721    0.7653 H   0  0  0  0  0  0  0  0  0  0  0  0
   -2.7113   -0.3093   -1.6093 H   0  0  0  0  0  0  0  0  0  0  0  0
   -1.3042    0.4287   -2.3724 H   0  0  0  0  0  0  0  0  0  0  0  0
   -4.1788   -1.2352    1.0888 H   0  0  0  0  0  0  0  0  0  0  0  0
   -3.3006   -2.2459    2.2584 H   0  0  0  0  0  0  0  0  0  0  0  0
   -3.7510   -0.6005    2.6903 H   0  0  0  0  0  0  0  0  0  0  0  0
  1  2  1  0  0  0  0
  1  8  1  0  0  0  0
  1 12  1  0  0  0  0
  2  3  1  0  0  0  0
  2  9  2  0  0  0  0
  3  4  1  0  0  0  0
  3 13  1  0  0  0  0
  3 16  1  6  0  0  0
  4  5  1  0  0  0  0
  4 17  1  0  0  0  0
  4 18  1  0  0  0  0
  5  6  1  0  0  0  0
  5 15  1  0  0  0  0
  6 19  1  0  0  0  0
  6 20  1  0  0  0  0
  7  6  1  0  0  0  0
  7  8  1  0  0  0  0
  7 13  1  0  0  0  0
  7 21  1  6  0  0  0
  8 22  1  0  0  0  0
  8 23  1  0  0  0  0
  9 10  1  0  0  0  0
  9 24  1  0  0  0  0
 10 11  2  0  0  0  0
 10 25  1  0  0  0  0
 11 12  1  0  0  0  0
 11 26  1  0  0  0  0
 12 14  2  0  0  0  0
 13 27  1  0  0  0  0
 13 28  1  0  0  0  0
 15 29  1  0  0  0  0
 15 30  1  0  0  0  0
 15 31  1  0  0  0  0
M  END
>  <Mol_ID>
5169

>  <Formula>
C12H16N2O

>  <MolWeight>
204.26824

>  <Cat>
S3298

>  <Name>
Caulophylline (N-Methylcytisine)

>  <Synonyms>
Caulophyllin, NMC

>  <Target>
AChR,I¦ÊB/IKK,NF-¦ÊB,Peroxidases

>  <Form>
free base

>  <CAS>
486-86-2 (63699-79-6, 207-643-8)

>  <URL>
http://www.selleckchem.com/products/caulophylline-n-methylcytisine-.html

$$$$
