CAVERJECT (alprostadil).cdx
 OpenBabel08302522013D

 59 59  0  0  0  0  0  0  0  0999 V2000
    1.3454   -8.0331   -2.2276 C   0  0  1  0  0  0  0  0  0  0  0  0
    0.3022   -7.2022   -1.4492 C   0  0  1  0  0  0  0  0  0  0  0  0
    0.3773   -5.7304   -1.7883 C   0  0  0  0  0  0  0  0  0  0  0  0
    0.6065   -4.7687   -0.8748 C   0  0  0  0  0  0  0  0  0  0  0  0
    3.7165   -8.9890   -2.3128 C   0  0  0  0  0  0  0  0  0  0  0  0
    2.7007   -8.1529   -1.5182 C   0  0  0  0  0  0  0  0  0  0  0  0
    0.6261   -3.2781   -1.1022 C   0  0  2  0  0  0  0  0  0  0  0  0
   -0.3630   -2.5198   -0.1946 C   0  0  0  0  0  0  0  0  0  0  0  0
    6.0462   -9.9580   -2.4493 C   0  0  0  0  0  0  0  0  0  0  0  0
    5.0870   -9.0825   -1.6278 C   0  0  0  0  0  0  0  0  0  0  0  0
   -0.0613   -2.6902    1.3011 C   0  0  0  0  0  0  0  0  0  0  0  0
   -1.0346   -1.9189    2.1954 C   0  0  0  0  0  0  0  0  0  0  0  0
    8.3670  -10.9539   -2.6610 C   0  0  0  0  0  0  0  0  0  0  0  0
    7.4356  -10.0775   -1.8143 C   0  0  0  0  0  0  0  0  0  0  0  0
   -0.7311   -2.1545    3.6791 C   0  0  0  0  0  0  0  0  0  0  0  0
   -1.6964   -1.3968    4.5775 C   0  0  0  0  0  0  0  0  0  0  0  0
   10.5816  -11.8501   -2.7966 O   0  0  0  0  0  0  0  0  0  0  0  0
    9.7372  -11.1030   -2.0377 C   0  0  0  0  0  0  0  0  0  0  0  0
    0.5489   -9.3076   -2.4017 C   0  0  0  0  0  0  0  0  0  0  0  0
   -0.8758   -8.9926   -2.7174 C   0  0  0  0  0  0  0  0  0  0  0  0
   -1.0922   -7.7916   -1.8093 C   0  0  1  0  0  0  0  0  0  0  0  0
    0.9936  -10.4463   -2.3606 O   0  0  0  0  0  0  0  0  0  0  0  0
   -1.7671   -8.2054   -0.6181 O   0  0  0  0  0  0  0  0  0  0  0  0
    0.3140   -2.9825   -2.4627 O   0  0  0  0  0  0  0  0  0  0  0  0
   10.0815  -10.6279   -0.9728 O   0  0  0  0  0  0  0  0  0  0  0  0
    1.4977   -7.6200   -3.2343 H   0  0  0  0  0  0  0  0  0  0  0  0
    0.4645   -7.3312   -0.3686 H   0  0  0  0  0  0  0  0  0  0  0  0
    0.2177   -5.4657   -2.8293 H   0  0  0  0  0  0  0  0  0  0  0  0
    0.8000   -5.0794    0.1488 H   0  0  0  0  0  0  0  0  0  0  0  0
    3.3381  -10.0063   -2.4481 H   0  0  0  0  0  0  0  0  0  0  0  0
    3.8368   -8.5576   -3.3140 H   0  0  0  0  0  0  0  0  0  0  0  0
    3.1115   -7.1440   -1.3818 H   0  0  0  0  0  0  0  0  0  0  0  0
    2.5718   -8.5841   -0.5186 H   0  0  0  0  0  0  0  0  0  0  0  0
    1.6409   -2.9063   -0.9209 H   0  0  0  0  0  0  0  0  0  0  0  0
   -0.3374   -1.4535   -0.4573 H   0  0  0  0  0  0  0  0  0  0  0  0
   -1.3887   -2.8475   -0.4113 H   0  0  0  0  0  0  0  0  0  0  0  0
    5.6152  -10.9604   -2.5600 H   0  0  0  0  0  0  0  0  0  0  0  0
    6.1452   -9.5378   -3.4577 H   0  0  0  0  0  0  0  0  0  0  0  0
    5.5101   -8.0783   -1.5086 H   0  0  0  0  0  0  0  0  0  0  0  0
    4.9684   -9.5091   -0.6247 H   0  0  0  0  0  0  0  0  0  0  0  0
   -0.1226   -3.7484    1.5748 H   0  0  0  0  0  0  0  0  0  0  0  0
    0.9649   -2.3607    1.5027 H   0  0  0  0  0  0  0  0  0  0  0  0
   -0.9744   -0.8477    1.9710 H   0  0  0  0  0  0  0  0  0  0  0  0
   -2.0603   -2.2417    1.9809 H   0  0  0  0  0  0  0  0  0  0  0  0
    7.9364  -11.9525   -2.7728 H   0  0  0  0  0  0  0  0  0  0  0  0
    8.4876  -10.5038   -3.6547 H   0  0  0  0  0  0  0  0  0  0  0  0
    7.8748   -9.0808   -1.6954 H   0  0  0  0  0  0  0  0  0  0  0  0
    7.3434  -10.5032   -0.8052 H   0  0  0  0  0  0  0  0  0  0  0  0
   -0.7980   -3.2251    3.9085 H   0  0  0  0  0  0  0  0  0  0  0  0
    0.2944   -1.8407    3.9076 H   0  0  0  0  0  0  0  0  0  0  0  0
   -2.7313   -1.6961    4.3827 H   0  0  0  0  0  0  0  0  0  0  0  0
   -1.4777   -1.6018    5.6305 H   0  0  0  0  0  0  0  0  0  0  0  0
   -1.6142   -0.3170    4.4184 H   0  0  0  0  0  0  0  0  0  0  0  0
   10.1961  -12.1779   -3.6264 H   0  0  0  0  0  0  0  0  0  0  0  0
   -1.5351   -9.8363   -2.5061 H   0  0  0  0  0  0  0  0  0  0  0  0
   -0.9263   -8.7124   -3.7749 H   0  0  0  0  0  0  0  0  0  0  0  0
   -1.7533   -7.0646   -2.2943 H   0  0  0  0  0  0  0  0  0  0  0  0
   -1.2589   -8.9238   -0.1980 H   0  0  0  0  0  0  0  0  0  0  0  0
   -0.5357   -3.4111   -2.6582 H   0  0  0  0  0  0  0  0  0  0  0  0
  1  2  1  0  0  0  0
  1 19  1  0  0  0  0
  1 26  1  6  0  0  0
  1  6  1  0  0  0  0
  2 27  1  1  0  0  0
  2  3  1  0  0  0  0
  3  4  2  0  0  0  0
  3 28  1  0  0  0  0
  4 29  1  0  0  0  0
  5  6  1  0  0  0  0
  5 30  1  0  0  0  0
  5 31  1  0  0  0  0
  6 32  1  0  0  0  0
  6 33  1  0  0  0  0
  7 24  1  0  0  0  0
  7 34  1  1  0  0  0
  7  8  1  0  0  0  0
  7  4  1  0  0  0  0
  8 11  1  0  0  0  0
  8 35  1  0  0  0  0
  8 36  1  0  0  0  0
  9 10  1  0  0  0  0
  9 37  1  0  0  0  0
  9 38  1  0  0  0  0
 10  5  1  0  0  0  0
 10 39  1  0  0  0  0
 10 40  1  0  0  0  0
 11 12  1  0  0  0  0
 11 41  1  0  0  0  0
 11 42  1  0  0  0  0
 12 15  1  0  0  0  0
 12 43  1  0  0  0  0
 12 44  1  0  0  0  0
 13 14  1  0  0  0  0
 13 45  1  0  0  0  0
 13 46  1  0  0  0  0
 14  9  1  0  0  0  0
 14 47  1  0  0  0  0
 14 48  1  0  0  0  0
 15 16  1  0  0  0  0
 15 49  1  0  0  0  0
 15 50  1  0  0  0  0
 16 51  1  0  0  0  0
 16 52  1  0  0  0  0
 16 53  1  0  0  0  0
 17 18  1  0  0  0  0
 17 54  1  0  0  0  0
 18 13  1  0  0  0  0
 18 25  2  0  0  0  0
 19 20  1  0  0  0  0
 19 22  2  0  0  0  0
 20 21  1  0  0  0  0
 20 55  1  0  0  0  0
 20 56  1  0  0  0  0
 21  2  1  0  0  0  0
 21 23  1  0  0  0  0
 21 57  1  6  0  0  0
 23 58  1  0  0  0  0
 24 59  1  0  0  0  0
M  END
>  <Mol_ID>
1115

>  <Formula>
C20H34O5

>  <MolWeight>
354.48096

>  <Cat>
S1508

>  <Name>
Alprostadil

>  <Synonyms>
Prostaglandin-E1, PGE1, Edex, Muse, Liprostin

>  <Target>
PGES

>  <Form>
free base

>  <CAS>
745-65-3

>  <URL>
http://selleckchem.com/products/Alprostadil(Caverject).html

$$$$
