CAY10683 (Santacruzamate A).cdx
 OpenBabel08302519583D

 42 42  0  0  0  0  0  0  0  0999 V2000
    3.2514   -1.7175    0.4297 C   0  0  0  0  0  0  0  0  0  0  0  0
    2.4464   -1.8003    1.5743 C   0  0  0  0  0  0  0  0  0  0  0  0
    3.0549   -1.7411    2.8358 C   0  0  0  0  0  0  0  0  0  0  0  0
    4.4409   -1.6121    2.9490 C   0  0  0  0  0  0  0  0  0  0  0  0
    5.2319   -1.5383    1.8042 C   0  0  0  0  0  0  0  0  0  0  0  0
    4.6368   -1.5848    0.5453 C   0  0  0  0  0  0  0  0  0  0  0  0
    0.9530   -1.9761    1.4497 C   0  0  0  0  0  0  0  0  0  0  0  0
    0.5319   -3.4476    1.4300 C   0  0  0  0  0  0  0  0  0  0  0  0
   -0.9105   -3.6034    1.3109 N   0  0  0  0  0  0  0  0  0  0  0  0
   -1.4935   -4.8512    1.2266 C   0  0  0  0  0  0  0  0  0  0  0  0
   -3.0111   -4.7967    1.1626 C   0  0  0  0  0  0  0  0  0  0  0  0
   -3.6911   -6.1636    1.0603 C   0  0  0  0  0  0  0  0  0  0  0  0
   -3.5006   -7.0452    2.2951 C   0  0  0  0  0  0  0  0  0  0  0  0
   -4.1978   -8.3101    2.1530 N   0  0  0  0  0  0  0  0  0  0  0  0
   -0.8486   -5.8935    1.2020 O   0  0  0  0  0  0  0  0  0  0  0  0
   -5.4619   -8.5263    2.6042 C   0  0  0  0  0  0  0  0  0  0  0  0
   -5.8174   -9.8079    2.3334 O   0  0  0  0  0  0  0  0  0  0  0  0
   -6.1646   -7.6974    3.1620 O   0  0  0  0  0  0  0  0  0  0  0  0
   -7.1558  -10.1767    2.6996 C   0  0  0  0  0  0  0  0  0  0  0  0
   -7.2544  -10.5215    4.1762 C   0  0  0  0  0  0  0  0  0  0  0  0
    2.8057   -1.7567   -0.5618 H   0  0  0  0  0  0  0  0  0  0  0  0
    2.4545   -1.7962    3.7411 H   0  0  0  0  0  0  0  0  0  0  0  0
    4.9049   -1.5726    3.9313 H   0  0  0  0  0  0  0  0  0  0  0  0
    6.3113   -1.4459    1.8931 H   0  0  0  0  0  0  0  0  0  0  0  0
    5.2530   -1.5216   -0.3480 H   0  0  0  0  0  0  0  0  0  0  0  0
    0.4556   -1.4564    2.2789 H   0  0  0  0  0  0  0  0  0  0  0  0
    0.6004   -1.4747    0.5390 H   0  0  0  0  0  0  0  0  0  0  0  0
    0.9992   -3.9779    0.5918 H   0  0  0  0  0  0  0  0  0  0  0  0
    0.8454   -3.9563    2.3495 H   0  0  0  0  0  0  0  0  0  0  0  0
   -1.5040   -2.7868    1.3844 H   0  0  0  0  0  0  0  0  0  0  0  0
   -3.3833   -4.2549    2.0397 H   0  0  0  0  0  0  0  0  0  0  0  0
   -3.2762   -4.2135    0.2716 H   0  0  0  0  0  0  0  0  0  0  0  0
   -4.7653   -6.0010    0.9036 H   0  0  0  0  0  0  0  0  0  0  0  0
   -3.3270   -6.6948    0.1718 H   0  0  0  0  0  0  0  0  0  0  0  0
   -2.4481   -7.2938    2.4547 H   0  0  0  0  0  0  0  0  0  0  0  0
   -3.8676   -6.5318    3.1901 H   0  0  0  0  0  0  0  0  0  0  0  0
   -3.7686   -9.0627    1.6383 H   0  0  0  0  0  0  0  0  0  0  0  0
   -7.8670   -9.3893    2.4250 H   0  0  0  0  0  0  0  0  0  0  0  0
   -7.4119  -11.0606    2.1071 H   0  0  0  0  0  0  0  0  0  0  0  0
   -7.0596   -9.6449    4.8018 H   0  0  0  0  0  0  0  0  0  0  0  0
   -8.2527  -10.8991    4.4170 H   0  0  0  0  0  0  0  0  0  0  0  0
   -6.5147  -11.2808    4.4490 H   0  0  0  0  0  0  0  0  0  0  0  0
  1  2  2  0  0  0  0
  1 21  1  0  0  0  0
  2  3  1  0  0  0  0
  2  7  1  0  0  0  0
  3  4  2  0  0  0  0
  3 22  1  0  0  0  0
  4  5  1  0  0  0  0
  4 23  1  0  0  0  0
  5  6  2  0  0  0  0
  5 24  1  0  0  0  0
  6  1  1  0  0  0  0
  6 25  1  0  0  0  0
  7  8  1  0  0  0  0
  7 26  1  0  0  0  0
  7 27  1  0  0  0  0
  8  9  1  0  0  0  0
  8 28  1  0  0  0  0
  8 29  1  0  0  0  0
  9 10  1  0  0  0  0
  9 30  1  0  0  0  0
 10 11  1  0  0  0  0
 10 15  2  0  0  0  0
 11 12  1  0  0  0  0
 11 31  1  0  0  0  0
 11 32  1  0  0  0  0
 12 13  1  0  0  0  0
 12 33  1  0  0  0  0
 12 34  1  0  0  0  0
 13 14  1  0  0  0  0
 13 35  1  0  0  0  0
 13 36  1  0  0  0  0
 14 16  1  0  0  0  0
 14 37  1  0  0  0  0
 16 17  1  0  0  0  0
 16 18  2  0  0  0  0
 17 19  1  0  0  0  0
 19 20  1  0  0  0  0
 19 38  1  0  0  0  0
 19 39  1  0  0  0  0
 20 40  1  0  0  0  0
 20 41  1  0  0  0  0
 20 42  1  0  0  0  0
M  END
>  <Mol_ID>
2461

>  <Formula>
C15H22N2O3

>  <MolWeight>
278.34678

>  <Cat>
S7595

>  <Name>
Santacruzamate A (CAY10683)

>  <Synonyms>
N/A

>  <Target>
HDAC

>  <Form>
free base

>  <CAS>
1477949-42-0

>  <URL>
http://selleckchem.com/products/santacruzamate-a-cay10683.html

$$$$
