CAY10602
 OpenBabel08302520143D

 45 49  0  0  0  0  0  0  0  0999 V2000
    0.2573    1.2403   -0.0188 C   0  0  0  0  0  0  0  0  0  0  0  0
   -1.0622    1.3512   -0.3769 C   0  0  0  0  0  0  0  0  0  0  0  0
   -1.9399    0.3923    0.0576 C   0  0  0  0  0  0  0  0  0  0  0  0
   -1.4361   -0.6402    0.8339 C   0  0  0  0  0  0  0  0  0  0  0  0
   -0.1036   -0.5378    1.3768 C   0  0  0  0  0  0  0  0  0  0  0  0
    0.8013    0.5078    1.0628 C   0  0  0  0  0  0  0  0  0  0  0  0
    2.1373    0.7696    1.5631 N   0  0  0  0  0  0  0  0  0  0  0  0
    2.9016    1.5610    0.7069 C   0  0  0  0  0  0  0  0  0  0  0  0
    2.3534    1.5888   -0.5768 C   0  0  0  0  0  0  0  0  0  0  0  0
    1.0818    1.7610   -0.9288 N   0  0  0  0  0  0  0  0  0  0  0  0
    4.2243    2.3442    0.4447 C   0  0  0  0  0  0  0  0  0  0  0  0
    3.9534    2.8004   -0.8704 C   0  0  0  0  0  0  0  0  0  0  0  0
    3.4972    1.5079   -1.3424 N   0  0  0  0  0  0  0  0  0  0  0  0
    3.2169    3.9588   -1.1527 N   0  0  0  0  0  0  0  0  0  0  0  0
    4.2463    0.1945   -1.4161 C   0  0  0  0  0  0  0  0  0  0  0  0
    3.7902   -0.9472   -0.6875 C   0  0  0  0  0  0  0  0  0  0  0  0
    4.5325   -2.1348   -0.5972 C   0  0  0  0  0  0  0  0  0  0  0  0
    5.7295   -2.2386   -1.2707 C   0  0  0  0  0  0  0  0  0  0  0  0
    6.1974   -1.1449   -2.0055 C   0  0  0  0  0  0  0  0  0  0  0  0
    5.4631    0.0592   -2.0865 C   0  0  0  0  0  0  0  0  0  0  0  0
    6.4366   -3.3658   -1.2104 F   0  0  0  0  0  0  0  0  0  0  0  0
    5.9356    2.1426    0.7968 S   0  0  0  0  0  0  0  0  0  0  0  0
    5.9731    1.0938    1.7949 O   0  0  0  0  0  0  0  0  0  0  0  0
    6.5338    1.9705   -0.5105 O   0  0  0  0  0  0  0  0  0  0  0  0
    6.9237    3.5110    1.4062 C   0  0  0  0  0  0  0  0  0  0  0  0
    8.3166    3.2420    1.4581 C   0  0  0  0  0  0  0  0  0  0  0  0
    9.2429    4.2176    1.8260 C   0  0  0  0  0  0  0  0  0  0  0  0
    8.7915    5.4936    2.1398 C   0  0  0  0  0  0  0  0  0  0  0  0
    7.4224    5.7851    2.0486 C   0  0  0  0  0  0  0  0  0  0  0  0
    6.4850    4.8043    1.6696 C   0  0  0  0  0  0  0  0  0  0  0  0
   -1.3771    2.1005   -1.0981 H   0  0  0  0  0  0  0  0  0  0  0  0
   -2.9702    0.3907   -0.2991 H   0  0  0  0  0  0  0  0  0  0  0  0
   -2.0460   -1.5169    1.0122 H   0  0  0  0  0  0  0  0  0  0  0  0
    0.2548   -1.3921    1.9427 H   0  0  0  0  0  0  0  0  0  0  0  0
    2.2647    3.7740   -1.5087 H   0  0  0  0  0  0  0  0  0  0  0  0
    3.0592    4.5866   -0.3587 H   0  0  0  0  0  0  0  0  0  0  0  0
    2.8763   -0.9456   -0.1031 H   0  0  0  0  0  0  0  0  0  0  0  0
    4.1860   -2.9657    0.0180 H   0  0  0  0  0  0  0  0  0  0  0  0
    7.1666   -1.2423   -2.4930 H   0  0  0  0  0  0  0  0  0  0  0  0
    5.9057    0.8931   -2.6259 H   0  0  0  0  0  0  0  0  0  0  0  0
    8.6915    2.2624    1.1592 H   0  0  0  0  0  0  0  0  0  0  0  0
   10.3044    3.9870    1.8486 H   0  0  0  0  0  0  0  0  0  0  0  0
    9.5063    6.2630    2.4243 H   0  0  0  0  0  0  0  0  0  0  0  0
    7.0988    6.8023    2.2548 H   0  0  0  0  0  0  0  0  0  0  0  0
    5.4440    5.0861    1.5491 H   0  0  0  0  0  0  0  0  0  0  0  0
  1  2  2  0  0  0  0
  1  6  1  0  0  0  0
  1 10  1  0  0  0  0
  2  3  1  0  0  0  0
  2 31  1  0  0  0  0
  3  4  2  0  0  0  0
  3 32  1  0  0  0  0
  4  5  1  0  0  0  0
  4 33  1  0  0  0  0
  5  6  2  0  0  0  0
  5 34  1  0  0  0  0
  6  7  1  0  0  0  0
  7  8  2  0  0  0  0
  8 11  1  0  0  0  0
  9  8  1  0  0  0  0
  9 10  2  0  0  0  0
  9 13  1  0  0  0  0
 11 12  2  0  0  0  0
 11 22  1  0  0  0  0
 12 13  1  0  0  0  0
 12 14  1  0  0  0  0
 13 15  1  0  0  0  0
 14 35  1  0  0  0  0
 14 36  1  0  0  0  0
 15 16  2  0  0  0  0
 15 20  1  0  0  0  0
 16 17  1  0  0  0  0
 16 37  1  0  0  0  0
 17 18  2  0  0  0  0
 17 38  1  0  0  0  0
 18 19  1  0  0  0  0
 18 21  1  0  0  0  0
 19 20  2  0  0  0  0
 19 39  1  0  0  0  0
 20 40  1  0  0  0  0
 22 23  2  0  0  0  0
 22 24  2  0  0  0  0
 22 25  1  0  0  0  0
 25 26  2  0  0  0  0
 25 30  1  0  0  0  0
 26 27  1  0  0  0  0
 26 41  1  0  0  0  0
 27 28  2  0  0  0  0
 27 42  1  0  0  0  0
 28 29  1  0  0  0  0
 28 43  1  0  0  0  0
 29 30  2  0  0  0  0
 29 44  1  0  0  0  0
 30 45  1  0  0  0  0
M  END
>  <Mol_ID>
3181

>  <Formula>
C22H15FN4O2S

>  <MolWeight>
418.4435032

>  <Cat>
S5918

>  <Name>
CAY10602

>  <Synonyms>
N/A

>  <Target>
Sirtuin

>  <Form>
Free Base

>  <CAS>
374922-43-7

>  <URL>
http://www.selleckchem.com/products/cay10602.html

$$$$
