CAY10593 (VU0155069)
 OpenBabel08302521353D

 60 64  0  0  0  0  0  0  0  0999 V2000
    4.6888    5.1169    0.6130 C   0  0  0  0  0  0  0  0  0  0  0  0
    5.9847    4.7462    0.2360 C   0  0  0  0  0  0  0  0  0  0  0  0
    7.0048    5.6969    0.4585 C   0  0  0  0  0  0  0  0  0  0  0  0
    6.7966    6.8658    1.1961 C   0  0  0  0  0  0  0  0  0  0  0  0
    5.5366    7.1584    1.7060 C   0  0  0  0  0  0  0  0  0  0  0  0
    5.3558    8.2598    2.5638 C   0  0  0  0  0  0  0  0  0  0  0  0
    4.0895    8.5926    3.0339 C   0  0  0  0  0  0  0  0  0  0  0  0
    2.9946    7.8580    2.6024 C   0  0  0  0  0  0  0  0  0  0  0  0
    3.1723    6.7396    1.7797 C   0  0  0  0  0  0  0  0  0  0  0  0
    4.4477    6.3306    1.3445 C   0  0  0  0  0  0  0  0  0  0  0  0
    6.4713    3.4430   -0.3381 C   0  0  0  0  0  0  0  0  0  0  0  0
    7.6300    3.4272   -0.7869 O   0  0  0  0  0  0  0  0  0  0  0  0
    5.8710    2.2159   -0.3653 N   0  0  0  0  0  0  0  0  0  0  0  0
    4.5863    1.5749   -0.0617 C   0  0  2  0  0  0  0  0  0  0  0  0
    4.7642   -0.0137   -0.0415 C   0  0  0  0  0  0  0  0  0  0  0  0
    3.5570    1.9408   -1.1441 C   0  0  0  0  0  0  0  0  0  0  0  0
    5.7761   -0.5941    0.9142 N   0  0  0  0  0  0  0  0  0  0  0  0
    5.2940   -0.4528    2.2930 C   0  0  0  0  0  0  0  0  0  0  0  0
    6.0877   -1.1741    3.3871 C   0  0  0  0  0  0  0  0  0  0  0  0
    6.5879   -2.5829    3.0509 C   0  0  3  0  0  0  0  0  0  0  0  0
    6.9583   -2.7709    1.5767 C   0  0  0  0  0  0  0  0  0  0  0  0
    6.0706   -2.0029    0.5776 C   0  0  0  0  0  0  0  0  0  0  0  0
    7.4136   -3.9368    5.0659 C   0  0  0  0  0  0  0  0  0  0  0  0
    8.6155   -4.0325    5.7750 N   0  0  0  0  0  0  0  0  0  0  0  0
    9.5600   -3.2010    5.1965 C   0  0  0  0  0  0  0  0  0  0  0  0
    8.9675   -2.5597    4.1004 C   0  0  0  0  0  0  0  0  0  0  0  0
    7.6359   -3.0344    3.9934 N   0  0  0  0  0  0  0  0  0  0  0  0
   10.8710   -2.9858    5.5893 C   0  0  0  0  0  0  0  0  0  0  0  0
   11.6061   -2.0730    4.8371 C   0  0  0  0  0  0  0  0  0  0  0  0
   11.0196   -1.4066    3.7442 C   0  0  0  0  0  0  0  0  0  0  0  0
    9.6861   -1.6389    3.3772 C   0  0  0  0  0  0  0  0  0  0  0  0
    6.3768   -4.5243    5.3457 O   0  0  0  0  0  0  0  0  0  0  0  0
    3.8459    4.4800    0.3773 H   0  0  0  0  0  0  0  0  0  0  0  0
    8.0133    5.5158    0.0861 H   0  0  0  0  0  0  0  0  0  0  0  0
    7.6396    7.5293    1.3757 H   0  0  0  0  0  0  0  0  0  0  0  0
    6.2117    8.8485    2.8963 H   0  0  0  0  0  0  0  0  0  0  0  0
    3.9624    9.4173    3.7326 H   0  0  0  0  0  0  0  0  0  0  0  0
    1.9961    8.1244    2.9352 H   0  0  0  0  0  0  0  0  0  0  0  0
    2.2848    6.1963    1.4493 H   0  0  0  0  0  0  0  0  0  0  0  0
    6.5697    1.5430   -0.6654 H   0  0  0  0  0  0  0  0  0  0  0  0
    4.2346    1.9371    0.9080 H   0  0  0  0  0  0  0  0  0  0  0  0
    3.7815   -0.4781    0.1314 H   0  0  0  0  0  0  0  0  0  0  0  0
    5.0574   -0.3151   -1.0588 H   0  0  0  0  0  0  0  0  0  0  0  0
    2.5692    1.5298   -0.9091 H   0  0  0  0  0  0  0  0  0  0  0  0
    3.4506    3.0238   -1.2528 H   0  0  0  0  0  0  0  0  0  0  0  0
    3.8539    1.5564   -2.1278 H   0  0  0  0  0  0  0  0  0  0  0  0
    4.2412   -0.7502    2.3678 H   0  0  0  0  0  0  0  0  0  0  0  0
    5.3354    0.6143    2.5410 H   0  0  0  0  0  0  0  0  0  0  0  0
    5.4339   -1.2571    4.2683 H   0  0  0  0  0  0  0  0  0  0  0  0
    6.9206   -0.5397    3.7019 H   0  0  0  0  0  0  0  0  0  0  0  0
    5.7336   -3.2534    3.2249 H   0  0  0  0  0  0  0  0  0  0  0  0
    8.0043   -2.5185    1.3910 H   0  0  0  0  0  0  0  0  0  0  0  0
    6.8856   -3.8448    1.3458 H   0  0  0  0  0  0  0  0  0  0  0  0
    6.6159   -2.0099   -0.3768 H   0  0  0  0  0  0  0  0  0  0  0  0
    5.1495   -2.5750    0.4078 H   0  0  0  0  0  0  0  0  0  0  0  0
    8.7265   -4.6044    6.6056 H   0  0  0  0  0  0  0  0  0  0  0  0
   11.3113   -3.4978    6.4395 H   0  0  0  0  0  0  0  0  0  0  0  0
   12.6429   -1.8665    5.0977 H   0  0  0  0  0  0  0  0  0  0  0  0
   11.6058   -0.6813    3.1770 H   0  0  0  0  0  0  0  0  0  0  0  0
    9.2509   -1.1045    2.5437 H   0  0  0  0  0  0  0  0  0  0  0  0
  1  2  2  0  0  0  0
  1 10  1  0  0  0  0
  1 33  1  0  0  0  0
  2  3  1  0  0  0  0
  2 11  1  0  0  0  0
  3  4  2  0  0  0  0
  3 34  1  0  0  0  0
  4  5  1  0  0  0  0
  4 35  1  0  0  0  0
  5  6  1  0  0  0  0
  5 10  2  0  0  0  0
  6  7  2  0  0  0  0
  6 36  1  0  0  0  0
  7  8  1  0  0  0  0
  7 37  1  0  0  0  0
  8  9  2  0  0  0  0
  8 38  1  0  0  0  0
  9 10  1  0  0  0  0
  9 39  1  0  0  0  0
 11 12  2  0  0  0  0
 11 13  1  0  0  0  0
 13 40  1  0  0  0  0
 14 16  1  0  0  0  0
 14 41  1  1  0  0  0
 14 15  1  0  0  0  0
 14 13  1  0  0  0  0
 15 17  1  0  0  0  0
 15 42  1  0  0  0  0
 15 43  1  0  0  0  0
 16 44  1  0  0  0  0
 16 45  1  0  0  0  0
 16 46  1  0  0  0  0
 17 18  1  0  0  0  0
 17 22  1  0  0  0  0
 18 19  1  0  0  0  0
 18 47  1  0  0  0  0
 18 48  1  0  0  0  0
 19 20  1  0  0  0  0
 19 49  1  0  0  0  0
 19 50  1  0  0  0  0
 20 21  1  0  0  0  0
 20 27  1  0  0  0  0
 20 51  1  0  0  0  0
 21 22  1  0  0  0  0
 21 52  1  0  0  0  0
 21 53  1  0  0  0  0
 22 54  1  0  0  0  0
 22 55  1  0  0  0  0
 23 24  1  0  0  0  0
 23 27  1  0  0  0  0
 23 32  2  0  0  0  0
 24 25  1  0  0  0  0
 24 56  1  0  0  0  0
 25 26  2  0  0  0  0
 25 28  1  0  0  0  0
 26 27  1  0  0  0  0
 26 31  1  0  0  0  0
 28 29  2  0  0  0  0
 28 57  1  0  0  0  0
 29 30  1  0  0  0  0
 29 58  1  0  0  0  0
 30 31  2  0  0  0  0
 30 59  1  0  0  0  0
 31 60  1  0  0  0  0
M  END
>  <Mol_ID>
6612

>  <Formula>
C26H27ClN4O2

>  <MolWeight>
462.97118

>  <Cat>
S0053

>  <Name>
CAY10593 (VU0155069)

>  <Synonyms>
N/A

>  <Target>
P2 Receptor,Phospholipase (e.g. PLA)

>  <Form>
Free base

>  <CAS>
1130067-06-9

>  <URL>
http://www.selleckchem.com/products/cay10593-vu0155069.html

$$$$
