CAY10603.cdx
 OpenBabel08302519583D

 62 63  0  0  0  0  0  0  0  0999 V2000
    1.3893    0.0813   -0.1382 C   0  0  0  0  0  0  0  0  0  0  0  0
    0.6454   -0.0512    1.0348 C   0  0  0  0  0  0  0  0  0  0  0  0
   -0.7455    0.0369    1.0145 C   0  0  0  0  0  0  0  0  0  0  0  0
   -1.4361    0.2659   -0.1799 C   0  0  0  0  0  0  0  0  0  0  0  0
   -0.6944    0.4081   -1.3580 C   0  0  0  0  0  0  0  0  0  0  0  0
    0.7091    0.3259   -1.3366 C   0  0  0  0  0  0  0  0  0  0  0  0
    2.7962    0.0003   -0.1533 N   0  0  0  0  0  0  0  0  0  0  0  0
    3.5771   -0.4935    0.8639 C   0  0  0  0  0  0  0  0  0  0  0  0
    3.1797   -1.0313    1.8826 O   0  0  0  0  0  0  0  0  0  0  0  0
    4.8942   -0.3191    0.5609 O   0  0  0  0  0  0  0  0  0  0  0  0
    5.8923   -0.7537    1.5278 C   0  0  0  0  0  0  0  0  0  0  0  0
    5.8694   -2.2800    1.6960 C   0  0  0  0  0  0  0  0  0  0  0  0
    7.2534   -0.3553    0.9366 C   0  0  0  0  0  0  0  0  0  0  0  0
    5.7349   -0.0248    2.8726 C   0  0  0  0  0  0  0  0  0  0  0  0
   -2.8893    0.3338   -0.1454 C   0  0  0  0  0  0  0  0  0  0  0  0
   -3.5252    1.0197   -1.1376 O   0  0  0  0  0  0  0  0  0  0  0  0
   -4.8981    1.0226   -0.8976 N   0  0  0  0  0  0  0  0  0  0  0  0
   -5.0660    0.3262    0.2398 C   0  0  0  0  0  0  0  0  0  0  0  0
   -3.8274   -0.1327    0.7378 C   0  0  0  0  0  0  0  0  0  0  0  0
   -6.3643    0.1032    0.8716 C   0  0  0  0  0  0  0  0  0  0  0  0
   -7.4504    0.5996    0.1851 N   0  0  0  0  0  0  0  0  0  0  0  0
   -8.7894    0.5082    0.7241 C   0  0  0  0  0  0  0  0  0  0  0  0
   -9.0757    1.6077    1.7471 C   0  0  0  0  0  0  0  0  0  0  0  0
   -9.0544    3.0025    1.1159 C   0  0  0  0  0  0  0  0  0  0  0  0
   -9.3463    4.1272    2.1144 C   0  0  0  0  0  0  0  0  0  0  0  0
   -8.3762    4.2272    3.2981 C   0  0  0  0  0  0  0  0  0  0  0  0
   -6.4671   -0.4687    1.9532 O   0  0  0  0  0  0  0  0  0  0  0  0
   -6.9210    4.4157    2.8736 C   0  0  0  0  0  0  0  0  0  0  0  0
   -5.9757    4.5552    4.0472 C   0  0  0  0  0  0  0  0  0  0  0  0
   -5.2411    5.5283    4.2039 O   0  0  0  0  0  0  0  0  0  0  0  0
   -5.9536    3.4763    4.8968 N   0  0  0  0  0  0  0  0  0  0  0  0
   -4.9450    3.4907    5.8882 O   0  0  0  0  0  0  0  0  0  0  0  0
    1.1167   -0.2010    2.0013 H   0  0  0  0  0  0  0  0  0  0  0  0
   -1.2738   -0.0643    1.9603 H   0  0  0  0  0  0  0  0  0  0  0  0
   -1.1989    0.5693   -2.3086 H   0  0  0  0  0  0  0  0  0  0  0  0
    1.2522    0.4287   -2.2721 H   0  0  0  0  0  0  0  0  0  0  0  0
    3.2943    0.2630   -0.9889 H   0  0  0  0  0  0  0  0  0  0  0  0
    5.9881   -2.7774    0.7267 H   0  0  0  0  0  0  0  0  0  0  0  0
    6.6701   -2.6193    2.3614 H   0  0  0  0  0  0  0  0  0  0  0  0
    4.9255   -2.6405    2.1137 H   0  0  0  0  0  0  0  0  0  0  0  0
    7.3050    0.7270    0.7684 H   0  0  0  0  0  0  0  0  0  0  0  0
    8.0773   -0.6383    1.6017 H   0  0  0  0  0  0  0  0  0  0  0  0
    7.4161   -0.8314   -0.0361 H   0  0  0  0  0  0  0  0  0  0  0  0
    5.7294    1.0610    2.7250 H   0  0  0  0  0  0  0  0  0  0  0  0
    4.7997   -0.2730    3.3811 H   0  0  0  0  0  0  0  0  0  0  0  0
    6.5484   -0.2794    3.5600 H   0  0  0  0  0  0  0  0  0  0  0  0
   -3.6612   -0.7151    1.6332 H   0  0  0  0  0  0  0  0  0  0  0  0
   -7.2653    1.1391   -0.6543 H   0  0  0  0  0  0  0  0  0  0  0  0
   -9.4924    0.5530   -0.1134 H   0  0  0  0  0  0  0  0  0  0  0  0
   -8.9023   -0.4689    1.2080 H   0  0  0  0  0  0  0  0  0  0  0  0
  -10.0602    1.4280    2.1949 H   0  0  0  0  0  0  0  0  0  0  0  0
   -8.3391    1.5466    2.5559 H   0  0  0  0  0  0  0  0  0  0  0  0
   -8.0904    3.1864    0.6294 H   0  0  0  0  0  0  0  0  0  0  0  0
   -9.8089    3.0424    0.3199 H   0  0  0  0  0  0  0  0  0  0  0  0
   -9.3424    5.0798    1.5703 H   0  0  0  0  0  0  0  0  0  0  0  0
  -10.3630    3.9996    2.5063 H   0  0  0  0  0  0  0  0  0  0  0  0
   -8.6794    5.0761    3.9243 H   0  0  0  0  0  0  0  0  0  0  0  0
   -8.4801    3.3410    3.9341 H   0  0  0  0  0  0  0  0  0  0  0  0
   -6.5670    3.5676    2.2771 H   0  0  0  0  0  0  0  0  0  0  0  0
   -6.8281    5.3144    2.2524 H   0  0  0  0  0  0  0  0  0  0  0  0
   -6.3289    2.5668    4.6494 H   0  0  0  0  0  0  0  0  0  0  0  0
   -4.4289    4.2935    5.6548 H   0  0  0  0  0  0  0  0  0  0  0  0
  1  2  2  0  0  0  0
  1  7  1  0  0  0  0
  2  3  1  0  0  0  0
  2 33  1  0  0  0  0
  3  4  2  0  0  0  0
  3 34  1  0  0  0  0
  4  5  1  0  0  0  0
  4 15  1  0  0  0  0
  5  6  2  0  0  0  0
  5 35  1  0  0  0  0
  6  1  1  0  0  0  0
  6 36  1  0  0  0  0
  7  8  1  0  0  0  0
  7 37  1  0  0  0  0
  8  9  2  0  0  0  0
  8 10  1  0  0  0  0
 10 11  1  0  0  0  0
 11 12  1  0  0  0  0
 11 13  1  0  0  0  0
 11 14  1  0  0  0  0
 12 38  1  0  0  0  0
 12 39  1  0  0  0  0
 12 40  1  0  0  0  0
 13 41  1  0  0  0  0
 13 42  1  0  0  0  0
 13 43  1  0  0  0  0
 14 44  1  0  0  0  0
 14 45  1  0  0  0  0
 14 46  1  0  0  0  0
 15 16  1  0  0  0  0
 16 17  1  0  0  0  0
 17 18  2  0  0  0  0
 18 19  1  0  0  0  0
 18 20  1  0  0  0  0
 19 15  2  0  0  0  0
 19 47  1  0  0  0  0
 20 21  1  0  0  0  0
 20 27  2  0  0  0  0
 21 22  1  0  0  0  0
 21 48  1  0  0  0  0
 22 23  1  0  0  0  0
 22 49  1  0  0  0  0
 22 50  1  0  0  0  0
 23 24  1  0  0  0  0
 23 51  1  0  0  0  0
 23 52  1  0  0  0  0
 24 25  1  0  0  0  0
 24 53  1  0  0  0  0
 24 54  1  0  0  0  0
 25 26  1  0  0  0  0
 25 55  1  0  0  0  0
 25 56  1  0  0  0  0
 26 28  1  0  0  0  0
 26 57  1  0  0  0  0
 26 58  1  0  0  0  0
 28 29  1  0  0  0  0
 28 59  1  0  0  0  0
 28 60  1  0  0  0  0
 29 30  2  0  0  0  0
 29 31  1  0  0  0  0
 31 32  1  0  0  0  0
 31 61  1  0  0  0  0
 32 62  1  0  0  0  0
M  END
>  <Mol_ID>
2514

>  <Formula>
C22H30N4O6

>  <MolWeight>
446.4968

>  <Cat>
S7596

>  <Name>
CAY10603

>  <Synonyms>
BML-281

>  <Target>
HDAC

>  <Form>
free base

>  <CAS>
1045792-66-2

>  <URL>
http://selleckchem.com/products/cay10603.html

$$$$
