CAY10444
 OpenBabel08302521333D

 48 48  0  0  0  0  0  0  0  0999 V2000
    1.2424   -1.5345    2.7039 S   0  0  0  0  0  0  0  0  0  0  0  0
   -0.0206   -2.5793    1.9474 C   0  0  3  0  0  0  0  0  0  0  0  0
    0.2526   -3.9213    2.4741 N   0  0  0  0  0  0  0  0  0  0  0  0
    0.5876   -3.7982    3.9185 C   0  0  1  0  0  0  0  0  0  0  0  0
    1.0650   -2.3874    4.2880 C   0  0  0  0  0  0  0  0  0  0  0  0
   -0.6048   -4.2163    4.7753 C   0  0  0  0  0  0  0  0  0  0  0  0
   -0.5979   -5.1102    5.6108 O   0  0  0  0  0  0  0  0  0  0  0  0
   -1.7297   -3.5126    4.5481 O   0  0  0  0  0  0  0  0  0  0  0  0
    0.0389   -2.5663    0.4250 C   0  0  0  0  0  0  0  0  0  0  0  0
   -1.0823   -3.4291   -0.1703 C   0  0  0  0  0  0  0  0  0  0  0  0
   -1.0529   -3.5127   -1.6976 C   0  0  0  0  0  0  0  0  0  0  0  0
    0.2384   -4.0944   -2.2872 C   0  0  0  0  0  0  0  0  0  0  0  0
    0.5382   -5.5111   -1.7912 C   0  0  0  0  0  0  0  0  0  0  0  0
    1.8422   -6.0512   -2.3765 C   0  0  0  0  0  0  0  0  0  0  0  0
    2.1253   -7.4668   -1.8678 C   0  0  0  0  0  0  0  0  0  0  0  0
    3.4315   -8.0189   -2.4421 C   0  0  0  0  0  0  0  0  0  0  0  0
    3.7059   -9.4382   -1.9391 C   0  0  0  0  0  0  0  0  0  0  0  0
    5.0042   -9.9971   -2.5184 C   0  0  0  0  0  0  0  0  0  0  0  0
    5.2742  -11.4093   -2.0181 C   0  0  0  0  0  0  0  0  0  0  0  0
   -1.0013   -2.2262    2.2825 H   0  0  0  0  0  0  0  0  0  0  0  0
    1.0887   -4.2578    1.9958 H   0  0  0  0  0  0  0  0  0  0  0  0
    1.3845   -4.5174    4.1337 H   0  0  0  0  0  0  0  0  0  0  0  0
    0.3429   -1.8407    4.9003 H   0  0  0  0  0  0  0  0  0  0  0  0
    2.0253   -2.4115    4.8090 H   0  0  0  0  0  0  0  0  0  0  0  0
   -2.4017   -3.9605    5.1024 H   0  0  0  0  0  0  0  0  0  0  0  0
   -0.0726   -1.5399    0.0505 H   0  0  0  0  0  0  0  0  0  0  0  0
    1.0181   -2.9248    0.0847 H   0  0  0  0  0  0  0  0  0  0  0  0
   -1.0475   -4.4442    0.2437 H   0  0  0  0  0  0  0  0  0  0  0  0
   -2.0522   -3.0197    0.1371 H   0  0  0  0  0  0  0  0  0  0  0  0
   -1.9013   -4.1271   -2.0269 H   0  0  0  0  0  0  0  0  0  0  0  0
   -1.2150   -2.5113   -2.1133 H   0  0  0  0  0  0  0  0  0  0  0  0
    0.1428   -4.1059   -3.3788 H   0  0  0  0  0  0  0  0  0  0  0  0
    1.0818   -3.4314   -2.0626 H   0  0  0  0  0  0  0  0  0  0  0  0
    0.6223   -5.5219   -0.6986 H   0  0  0  0  0  0  0  0  0  0  0  0
   -0.2929   -6.1731   -2.0595 H   0  0  0  0  0  0  0  0  0  0  0  0
    1.7834   -6.0559   -3.4716 H   0  0  0  0  0  0  0  0  0  0  0  0
    2.6712   -5.3900   -2.0974 H   0  0  0  0  0  0  0  0  0  0  0  0
    2.1822   -7.4596   -0.7721 H   0  0  0  0  0  0  0  0  0  0  0  0
    1.2945   -8.1280   -2.1420 H   0  0  0  0  0  0  0  0  0  0  0  0
    3.3779   -8.0210   -3.5373 H   0  0  0  0  0  0  0  0  0  0  0  0
    4.2628   -7.3625   -2.1599 H   0  0  0  0  0  0  0  0  0  0  0  0
    3.7613   -9.4346   -0.8449 H   0  0  0  0  0  0  0  0  0  0  0  0
    2.8694  -10.0923   -2.2171 H   0  0  0  0  0  0  0  0  0  0  0  0
    4.9503  -10.0076   -3.6126 H   0  0  0  0  0  0  0  0  0  0  0  0
    5.8449   -9.3503   -2.2403 H   0  0  0  0  0  0  0  0  0  0  0  0
    4.4599  -12.0857   -2.2971 H   0  0  0  0  0  0  0  0  0  0  0  0
    6.2006  -11.7948   -2.4555 H   0  0  0  0  0  0  0  0  0  0  0  0
    5.3786  -11.4259   -0.9296 H   0  0  0  0  0  0  0  0  0  0  0  0
  1  2  1  0  0  0  0
  2  3  1  0  0  0  0
  2  9  1  0  0  0  0
  2 20  1  0  0  0  0
  3  4  1  0  0  0  0
  3 21  1  0  0  0  0
  4  5  1  0  0  0  0
  4  6  1  0  0  0  0
  4 22  1  1  0  0  0
  5  1  1  0  0  0  0
  5 23  1  0  0  0  0
  5 24  1  0  0  0  0
  6  7  2  0  0  0  0
  6  8  1  0  0  0  0
  8 25  1  0  0  0  0
  9 10  1  0  0  0  0
  9 26  1  0  0  0  0
  9 27  1  0  0  0  0
 10 11  1  0  0  0  0
 10 28  1  0  0  0  0
 10 29  1  0  0  0  0
 11 12  1  0  0  0  0
 11 30  1  0  0  0  0
 11 31  1  0  0  0  0
 12 13  1  0  0  0  0
 12 32  1  0  0  0  0
 12 33  1  0  0  0  0
 13 14  1  0  0  0  0
 13 34  1  0  0  0  0
 13 35  1  0  0  0  0
 14 15  1  0  0  0  0
 14 36  1  0  0  0  0
 14 37  1  0  0  0  0
 15 16  1  0  0  0  0
 15 38  1  0  0  0  0
 15 39  1  0  0  0  0
 16 17  1  0  0  0  0
 16 40  1  0  0  0  0
 16 41  1  0  0  0  0
 17 18  1  0  0  0  0
 17 42  1  0  0  0  0
 17 43  1  0  0  0  0
 18 19  1  0  0  0  0
 18 44  1  0  0  0  0
 18 45  1  0  0  0  0
 19 46  1  0  0  0  0
 19 47  1  0  0  0  0
 19 48  1  0  0  0  0
M  END
>  <Mol_ID>
6415

>  <Formula>
C15H29NO2S

>  <MolWeight>
287.46126

>  <Cat>
E1158

>  <Name>
CAY10444

>  <Synonyms>
BML-241

>  <Target>
S1P Receptor

>  <Form>
free base

>  <CAS>
298186-80-8

>  <URL>
http://www.selleckchem.com/products/cay10444.html

$$$$
