CAY10505.cdx
 OpenBabel08302521423D

 28 30  0  0  0  0  0  0  0  0999 V2000
    0.7791    0.0435    0.5463 C   0  0  0  0  0  0  0  0  0  0  0  0
   -0.0537   -0.6559    1.4091 C   0  0  0  0  0  0  0  0  0  0  0  0
   -1.4351   -0.6469    1.1927 C   0  0  0  0  0  0  0  0  0  0  0  0
   -1.9919    0.0644    0.1158 C   0  0  0  0  0  0  0  0  0  0  0  0
   -1.1219    0.7462   -0.7526 C   0  0  0  0  0  0  0  0  0  0  0  0
    0.2592    0.7387   -0.5368 C   0  0  0  0  0  0  0  0  0  0  0  0
    2.1005    0.0530    0.7642 F   0  0  0  0  0  0  0  0  0  0  0  0
   -4.2141   -0.5063    0.8388 O   0  0  0  0  0  0  0  0  0  0  0  0
   -3.4375    0.1319   -0.0860 C   0  0  0  0  0  0  0  0  0  0  0  0
   -4.2522    0.7382   -1.0180 C   0  0  0  0  0  0  0  0  0  0  0  0
   -5.5848    0.4792   -0.6194 C   0  0  0  0  0  0  0  0  0  0  0  0
   -5.5356   -0.2854    0.5364 C   0  0  0  0  0  0  0  0  0  0  0  0
   -6.5974   -0.8125    1.3097 C   0  0  0  0  0  0  0  0  0  0  0  0
   -7.1723   -0.1361    2.3114 C   0  0  0  0  0  0  0  0  0  0  0  0
   -6.8676    1.2425    2.7915 C   0  0  0  0  0  0  0  0  0  0  0  0
   -7.6496    1.5390    3.8693 N   0  0  0  0  0  0  0  0  0  0  0  0
   -8.5485    0.6163    4.2885 C   0  0  0  0  0  0  0  0  0  0  0  0
   -8.4429   -0.8106    3.2830 S   0  0  0  0  0  0  0  0  0  0  0  0
   -6.0732    2.0277    2.3014 O   0  0  0  0  0  0  0  0  0  0  0  0
   -9.3312    0.7497    5.2122 O   0  0  0  0  0  0  0  0  0  0  0  0
    0.3716   -1.1945    2.2496 H   0  0  0  0  0  0  0  0  0  0  0  0
   -2.0766   -1.1910    1.8830 H   0  0  0  0  0  0  0  0  0  0  0  0
   -1.5093    1.3051   -1.6008 H   0  0  0  0  0  0  0  0  0  0  0  0
    0.9267    1.2788   -1.2005 H   0  0  0  0  0  0  0  0  0  0  0  0
   -3.9316    1.3186   -1.8708 H   0  0  0  0  0  0  0  0  0  0  0  0
   -6.4856    0.8229   -1.1091 H   0  0  0  0  0  0  0  0  0  0  0  0
   -6.9117   -1.8245    1.0719 H   0  0  0  0  0  0  0  0  0  0  0  0
   -7.5845    2.4379    4.3202 H   0  0  0  0  0  0  0  0  0  0  0  0
  1  2  2  0  0  0  0
  1  7  1  0  0  0  0
  2  3  1  0  0  0  0
  2 21  1  0  0  0  0
  3  4  2  0  0  0  0
  3 22  1  0  0  0  0
  4  5  1  0  0  0  0
  4  9  1  0  0  0  0
  5  6  2  0  0  0  0
  5 23  1  0  0  0  0
  6  1  1  0  0  0  0
  6 24  1  0  0  0  0
  8  9  1  0  0  0  0
  9 10  2  0  0  0  0
 10 11  1  0  0  0  0
 10 25  1  0  0  0  0
 11 12  2  0  0  0  0
 11 26  1  0  0  0  0
 12  8  1  0  0  0  0
 12 13  1  0  0  0  0
 13 14  2  0  0  0  0
 13 27  1  0  0  0  0
 14 15  1  0  0  0  0
 15 16  1  0  0  0  0
 15 19  2  0  0  0  0
 16 17  1  0  0  0  0
 16 28  1  0  0  0  0
 17 18  1  0  0  0  0
 17 20  2  0  0  0  0
 18 14  1  0  0  0  0
M  END
>  <Mol_ID>
835

>  <Formula>
C14H8FNO3S

>  <MolWeight>
289.2816232

>  <Cat>
S2682

>  <Name>
CAY10505

>  <Synonyms>
N/A

>  <Target>
PI3K

>  <Form>
free base

>  <CAS>
1218777-13-9

>  <URL>
http://selleckchem.com/products/cay10505.html

$$$$
