CB-5083.cdx
 OpenBabel08302520413D

 54 58  0  0  0  0  0  0  0  0999 V2000
    2.0494   -1.2523    1.0848 C   0  0  0  0  0  0  0  0  0  0  0  0
    0.7686   -1.1707    1.6311 C   0  0  0  0  0  0  0  0  0  0  0  0
    0.0844   -2.3321    2.0148 C   0  0  0  0  0  0  0  0  0  0  0  0
    0.6976   -3.5800    1.8181 C   0  0  0  0  0  0  0  0  0  0  0  0
    1.9767   -3.6591    1.2650 C   0  0  0  0  0  0  0  0  0  0  0  0
    2.6527   -2.4953    0.9021 C   0  0  0  0  0  0  0  0  0  0  0  0
   -1.3264   -2.2367    2.5486 C   0  0  0  0  0  0  0  0  0  0  0  0
   -2.2305   -2.4255    1.4255 N   0  0  0  0  0  0  0  0  0  0  0  0
   -3.5940   -2.3907    1.7571 C   0  0  0  0  0  0  0  0  0  0  0  0
   -3.9907   -1.6040    2.7825 N   0  0  0  0  0  0  0  0  0  0  0  0
   -5.3147   -1.4138    2.9545 C   0  0  0  0  0  0  0  0  0  0  0  0
   -6.2625   -2.0037    2.1788 N   0  0  0  0  0  0  0  0  0  0  0  0
   -5.8382   -2.7504    1.1338 C   0  0  0  0  0  0  0  0  0  0  0  0
   -4.5007   -3.0047    0.8981 C   0  0  0  0  0  0  0  0  0  0  0  0
   -5.7533   -0.2307    3.7382 N   0  0  0  0  0  0  0  0  0  0  0  0
   -6.8854   -3.2874    0.1869 C   0  0  0  0  0  0  0  0  0  0  0  0
   -6.2832   -3.8928   -1.0795 C   0  0  0  0  0  0  0  0  0  0  0  0
   -5.1490   -4.6865   -0.7471 O   0  0  0  0  0  0  0  0  0  0  0  0
   -4.0842   -3.8633   -0.2626 C   0  0  0  0  0  0  0  0  0  0  0  0
   -4.9521    0.9002    3.9312 C   0  0  0  0  0  0  0  0  0  0  0  0
   -5.2081    1.5848    2.7292 C   0  0  0  0  0  0  0  0  0  0  0  0
   -6.4910    1.0733    2.2571 C   0  0  0  0  0  0  0  0  0  0  0  0
   -6.9548    0.4350    3.4180 C   0  0  0  0  0  0  0  0  0  0  0  0
   -4.2792    1.5147    4.9986 C   0  0  0  0  0  0  0  0  0  0  0  0
   -3.7252    2.7795    4.7252 C   0  0  0  0  0  0  0  0  0  0  0  0
   -3.7259    3.3214    3.4284 C   0  0  0  0  0  0  0  0  0  0  0  0
   -4.4242    2.6797    2.3915 C   0  0  0  0  0  0  0  0  0  0  0  0
   -4.3931    3.1699    1.0015 C   0  0  0  0  0  0  0  0  0  0  0  0
   -4.3065    4.3585    0.7304 O   0  0  0  0  0  0  0  0  0  0  0  0
   -4.3998    2.1951    0.0458 N   0  0  0  0  0  0  0  0  0  0  0  0
   -7.8587    1.0078    4.4709 C   0  0  0  0  0  0  0  0  0  0  0  0
    2.5716   -0.3450    0.7929 H   0  0  0  0  0  0  0  0  0  0  0  0
    0.2965   -0.1969    1.7454 H   0  0  0  0  0  0  0  0  0  0  0  0
    0.1783   -4.4976    2.0856 H   0  0  0  0  0  0  0  0  0  0  0  0
    2.4452   -4.6279    1.1112 H   0  0  0  0  0  0  0  0  0  0  0  0
    3.6479   -2.5564    0.4697 H   0  0  0  0  0  0  0  0  0  0  0  0
   -1.4829   -3.0240    3.2973 H   0  0  0  0  0  0  0  0  0  0  0  0
   -1.4729   -1.2679    3.0395 H   0  0  0  0  0  0  0  0  0  0  0  0
   -1.9656   -3.2602    0.9187 H   0  0  0  0  0  0  0  0  0  0  0  0
   -7.5877   -2.4949   -0.0993 H   0  0  0  0  0  0  0  0  0  0  0  0
   -7.4433   -4.0644    0.7186 H   0  0  0  0  0  0  0  0  0  0  0  0
   -5.9911   -3.1281   -1.8115 H   0  0  0  0  0  0  0  0  0  0  0  0
   -7.0154   -4.5417   -1.5713 H   0  0  0  0  0  0  0  0  0  0  0  0
   -3.2958   -4.5597    0.0388 H   0  0  0  0  0  0  0  0  0  0  0  0
   -3.7056   -3.2485   -1.0878 H   0  0  0  0  0  0  0  0  0  0  0  0
   -7.0912    1.5389    1.4847 H   0  0  0  0  0  0  0  0  0  0  0  0
   -4.2840    1.0997    5.9986 H   0  0  0  0  0  0  0  0  0  0  0  0
   -3.2754    3.3519    5.5363 H   0  0  0  0  0  0  0  0  0  0  0  0
   -3.2220    4.2669    3.2345 H   0  0  0  0  0  0  0  0  0  0  0  0
   -4.2497    1.2156    0.2948 H   0  0  0  0  0  0  0  0  0  0  0  0
   -4.2503    2.4652   -0.9079 H   0  0  0  0  0  0  0  0  0  0  0  0
   -8.8296    1.2886    4.0594 H   0  0  0  0  0  0  0  0  0  0  0  0
   -7.9955    0.3181    5.3074 H   0  0  0  0  0  0  0  0  0  0  0  0
   -7.4102    1.9255    4.8818 H   0  0  0  0  0  0  0  0  0  0  0  0
  1  2  2  0  0  0  0
  1 32  1  0  0  0  0
  2  3  1  0  0  0  0
  2 33  1  0  0  0  0
  3  4  2  0  0  0  0
  3  7  1  0  0  0  0
  4  5  1  0  0  0  0
  4 34  1  0  0  0  0
  5  6  2  0  0  0  0
  5 35  1  0  0  0  0
  6  1  1  0  0  0  0
  6 36  1  0  0  0  0
  7  8  1  0  0  0  0
  7 37  1  0  0  0  0
  7 38  1  0  0  0  0
  8  9  1  0  0  0  0
  8 39  1  0  0  0  0
  9 10  2  0  0  0  0
 10 11  1  0  0  0  0
 11 12  2  0  0  0  0
 11 15  1  0  0  0  0
 12 13  1  0  0  0  0
 13 14  2  0  0  0  0
 13 16  1  0  0  0  0
 14  9  1  0  0  0  0
 15 20  1  0  0  0  0
 16 17  1  0  0  0  0
 16 40  1  0  0  0  0
 16 41  1  0  0  0  0
 17 18  1  0  0  0  0
 17 42  1  0  0  0  0
 17 43  1  0  0  0  0
 18 19  1  0  0  0  0
 19 14  1  0  0  0  0
 19 44  1  0  0  0  0
 19 45  1  0  0  0  0
 20 21  2  0  0  0  0
 20 24  1  0  0  0  0
 21 22  1  0  0  0  0
 22 23  2  0  0  0  0
 22 46  1  0  0  0  0
 23 15  1  0  0  0  0
 23 31  1  0  0  0  0
 24 25  2  0  0  0  0
 24 47  1  0  0  0  0
 25 26  1  0  0  0  0
 25 48  1  0  0  0  0
 26 27  2  0  0  0  0
 26 49  1  0  0  0  0
 27 21  1  0  0  0  0
 27 28  1  0  0  0  0
 28 29  2  0  0  0  0
 28 30  1  0  0  0  0
 30 50  1  0  0  0  0
 30 51  1  0  0  0  0
 31 52  1  0  0  0  0
 31 53  1  0  0  0  0
 31 54  1  0  0  0  0
M  END
>  <Mol_ID>
3904

>  <Formula>
C24H23N5O2

>  <MolWeight>
413.47172

>  <Cat>
S8101

>  <Name>
CB-5083

>  <Synonyms>
N/A

>  <Target>
ATPase,p97

>  <Form>
free base

>  <CAS>
1542705-92-9

>  <URL>
http://selleckchem.com/products/cb-5083.html

$$$$
