CB-5339
 OpenBabel08302521383D

 55 59  0  0  0  0  0  0  0  0999 V2000
    1.8022    0.7492   -4.6971 C   0  0  0  0  0  0  0  0  0  0  0  0
   -0.4890    4.1350   -8.8258 C   0  0  0  0  0  0  0  0  0  0  0  0
    0.2942    3.2006   -9.4348 N   0  0  0  0  0  0  0  0  0  0  0  0
   -1.4343    4.6359   -9.4255 O   0  0  0  0  0  0  0  0  0  0  0  0
    1.5189    2.3397    0.1455 N   0  0  0  0  0  0  0  0  0  0  0  0
    1.2733    1.0840    0.8604 C   0  0  0  0  0  0  0  0  0  0  0  0
    0.6698    4.2415   -5.1818 C   0  0  0  0  0  0  0  0  0  0  0  0
    1.1151    3.1889   -4.3659 N   0  0  0  0  0  0  0  0  0  0  0  0
    0.4172    3.7258   -6.4673 C   0  0  0  0  0  0  0  0  0  0  0  0
    0.3970    5.5933   -4.8805 C   0  0  0  0  0  0  0  0  0  0  0  0
    1.2267    2.0469   -5.1638 C   0  0  0  0  0  0  0  0  0  0  0  0
   -0.1266    4.5855   -7.4594 C   0  0  0  0  0  0  0  0  0  0  0  0
    0.7728    2.3534   -6.4273 C   0  0  0  0  0  0  0  0  0  0  0  0
   -0.1341    6.4258   -5.8696 C   0  0  0  0  0  0  0  0  0  0  0  0
   -0.4050    5.9238   -7.1371 C   0  0  0  0  0  0  0  0  0  0  0  0
    1.5041    3.2692   -2.9993 C   0  0  0  0  0  0  0  0  0  0  0  0
    1.5092    2.1751   -2.2688 N   0  0  0  0  0  0  0  0  0  0  0  0
    2.0522    4.4404   -2.4994 N   0  0  0  0  0  0  0  0  0  0  0  0
    2.1960    2.3399   -1.0717 C   0  0  0  0  0  0  0  0  0  0  0  0
    3.1093    4.3198   -1.6217 C   0  0  0  0  0  0  0  0  0  0  0  0
    3.4269    2.9178   -1.1393 C   0  0  0  0  0  0  0  0  0  0  0  0
    3.9356    5.3101   -1.6003 N   0  0  0  0  0  0  0  0  0  0  0  0
    4.4966    2.4778   -2.1004 C   0  0  0  0  0  0  0  0  0  0  0  0
    5.2618    4.9871   -2.1219 C   0  0  0  0  0  0  0  0  0  0  0  0
    5.6016    3.5122   -2.3277 C   0  0  0  0  0  0  0  0  0  0  0  0
    1.6134    1.2783    2.3193 C   0  0  0  0  0  0  0  0  0  0  0  0
    0.6736    1.0571    3.3364 C   0  0  0  0  0  0  0  0  0  0  0  0
    2.9082    1.6885    2.6760 C   0  0  0  0  0  0  0  0  0  0  0  0
    1.0184    1.2708    4.6751 C   0  0  0  0  0  0  0  0  0  0  0  0
    3.2493    1.9044    4.0098 C   0  0  0  0  0  0  0  0  0  0  0  0
    2.3029    1.6991    5.0096 C   0  0  0  0  0  0  0  0  0  0  0  0
    2.8212    0.8831   -4.3214 H   0  0  0  0  0  0  0  0  0  0  0  0
    1.8669    0.0333   -5.5233 H   0  0  0  0  0  0  0  0  0  0  0  0
    1.1845    0.2931   -3.9194 H   0  0  0  0  0  0  0  0  0  0  0  0
    0.0859    2.9923  -10.4033 H   0  0  0  0  0  0  0  0  0  0  0  0
    1.1976    2.9484   -9.0706 H   0  0  0  0  0  0  0  0  0  0  0  0
    0.6180    2.7879    0.0040 H   0  0  0  0  0  0  0  0  0  0  0  0
    0.2181    0.8048    0.7447 H   0  0  0  0  0  0  0  0  0  0  0  0
    1.8721    0.2571    0.4595 H   0  0  0  0  0  0  0  0  0  0  0  0
    0.5367    6.0094   -3.8879 H   0  0  0  0  0  0  0  0  0  0  0  0
    0.7171    1.6405   -7.2409 H   0  0  0  0  0  0  0  0  0  0  0  0
   -0.3616    7.4611   -5.6387 H   0  0  0  0  0  0  0  0  0  0  0  0
   -0.8526    6.5795   -7.8837 H   0  0  0  0  0  0  0  0  0  0  0  0
    2.2494    5.1931   -3.1467 H   0  0  0  0  0  0  0  0  0  0  0  0
    4.0572    2.2428   -3.0788 H   0  0  0  0  0  0  0  0  0  0  0  0
    4.9512    1.5443   -1.7512 H   0  0  0  0  0  0  0  0  0  0  0  0
    5.2755    5.4738   -3.1074 H   0  0  0  0  0  0  0  0  0  0  0  0
    6.0423    5.4826   -1.5376 H   0  0  0  0  0  0  0  0  0  0  0  0
    5.9718    3.3923   -3.3570 H   0  0  0  0  0  0  0  0  0  0  0  0
    6.4564    3.2619   -1.6909 H   0  0  0  0  0  0  0  0  0  0  0  0
   -0.3347    0.7267    3.0988 H   0  0  0  0  0  0  0  0  0  0  0  0
    3.6502    1.8636    1.9000 H   0  0  0  0  0  0  0  0  0  0  0  0
    0.2830    1.1115    5.4596 H   0  0  0  0  0  0  0  0  0  0  0  0
    4.2502    2.2430    4.2622 H   0  0  0  0  0  0  0  0  0  0  0  0
    2.5663    1.8773    6.0487 H   0  0  0  0  0  0  0  0  0  0  0  0
  1 11  1  0  0  0  0
  1 32  1  0  0  0  0
  1 33  1  0  0  0  0
  1 34  1  0  0  0  0
  2  3  1  0  0  0  0
  2  4  2  0  0  0  0
  2 12  1  0  0  0  0
  3 35  1  0  0  0  0
  3 36  1  0  0  0  0
  5  6  1  0  0  0  0
  5 19  1  0  0  0  0
  5 37  1  0  0  0  0
  6 26  1  0  0  0  0
  6 38  1  0  0  0  0
  6 39  1  0  0  0  0
  7  8  1  0  0  0  0
  7  9  1  0  0  0  0
  7 10  2  0  0  0  0
  8 11  1  0  0  0  0
  8 16  1  0  0  0  0
  9 12  2  0  0  0  0
  9 13  1  0  0  0  0
 10 14  1  0  0  0  0
 10 40  1  0  0  0  0
 11 13  2  0  0  0  0
 12 15  1  0  0  0  0
 13 41  1  0  0  0  0
 14 15  2  0  0  0  0
 14 42  1  0  0  0  0
 15 43  1  0  0  0  0
 16 17  2  0  0  0  0
 16 18  1  0  0  0  0
 17 19  1  0  0  0  0
 18 20  1  0  0  0  0
 18 44  1  0  0  0  0
 19 21  2  3  0  0  0
 20 21  1  0  0  0  0
 20 22  2  0  0  0  0
 21 23  1  0  0  0  0
 22 24  1  0  0  0  0
 23 25  1  0  0  0  0
 23 45  1  0  0  0  0
 23 46  1  0  0  0  0
 24 25  1  0  0  0  0
 24 47  1  0  0  0  0
 24 48  1  0  0  0  0
 25 49  1  0  0  0  0
 25 50  1  0  0  0  0
 26 27  2  0  0  0  0
 26 28  1  0  0  0  0
 27 29  1  0  0  0  0
 27 51  1  0  0  0  0
 28 30  2  0  0  0  0
 28 52  1  0  0  0  0
 29 31  2  0  0  0  0
 29 53  1  0  0  0  0
 30 31  1  0  0  0  0
 30 54  1  0  0  0  0
 31 55  1  0  0  0  0
M  END
>  <Mol_ID>
7689

>  <Formula>
C24H24N6O

>  <MolWeight>
412.48696

>  <Cat>
S9865

>  <Name>
CB-5339

>  <Target>
p97

>  <Form>
free base

>  <CAS>
1863952-15-1

>  <URL>
https://www.selleckchem.com/products/cb-5339.html

$$$$
