CBL0137
 OpenBabel08302521243D

 49 51  0  0  0  0  0  0  0  0999 V2000
   -0.0312   -1.6343   -0.1209 N   0  0  0  0  0  0  0  0  0  0  0  0
    1.1150   -0.8571   -0.0855 C   0  0  0  0  0  0  0  0  0  0  0  0
    2.4729   -1.2106   -0.0557 C   0  0  0  0  0  0  0  0  0  0  0  0
    3.4223   -0.1840   -0.0007 C   0  0  0  0  0  0  0  0  0  0  0  0
    3.0422    1.1597    0.0022 C   0  0  0  0  0  0  0  0  0  0  0  0
    1.6839    1.5002   -0.0086 C   0  0  0  0  0  0  0  0  0  0  0  0
    0.7061    0.4772   -0.0574 C   0  0  0  0  0  0  0  0  0  0  0  0
   -0.7232    0.4909   -0.0870 C   0  0  0  0  0  0  0  0  0  0  0  0
   -1.6817    1.5318   -0.0343 C   0  0  0  0  0  0  0  0  0  0  0  0
   -3.0480    1.2332   -0.1108 C   0  0  0  0  0  0  0  0  0  0  0  0
   -3.4440   -0.0938   -0.3130 C   0  0  0  0  0  0  0  0  0  0  0  0
   -2.5147   -1.1393   -0.3810 C   0  0  0  0  0  0  0  0  0  0  0  0
   -1.1558   -0.8301   -0.2140 C   0  0  0  0  0  0  0  0  0  0  0  0
   -0.0482   -3.0925   -0.0757 C   0  0  0  0  0  0  0  0  0  0  0  0
    0.4541   -3.6934    1.2530 C   0  0  0  0  0  0  0  0  0  0  0  0
    0.3079   -5.1561    1.2156 N   0  0  0  0  0  0  0  0  0  0  0  0
    0.8138   -5.8631    2.3978 C   0  0  0  0  0  0  0  0  0  0  0  0
    0.0820   -5.4769    3.6849 C   0  0  0  0  0  0  0  0  0  0  0  0
    0.6097   -7.3609    2.1297 C   0  0  0  0  0  0  0  0  0  0  0  0
    4.1221    2.1867    0.0322 C   0  0  0  0  0  0  0  0  0  0  0  0
    3.8990    3.5399   -0.5952 C   0  0  0  0  0  0  0  0  0  0  0  0
    5.2092    1.9007    0.5356 O   0  0  0  0  0  0  0  0  0  0  0  0
   -4.1242    2.2668    0.0207 C   0  0  0  0  0  0  0  0  0  0  0  0
   -3.7933    3.7184    0.2621 C   0  0  0  0  0  0  0  0  0  0  0  0
   -5.3034    1.9196   -0.0667 O   0  0  0  0  0  0  0  0  0  0  0  0
    2.7985   -2.2465   -0.0725 H   0  0  0  0  0  0  0  0  0  0  0  0
    4.4787   -0.4482    0.0340 H   0  0  0  0  0  0  0  0  0  0  0  0
    1.3574    2.5337    0.0286 H   0  0  0  0  0  0  0  0  0  0  0  0
   -1.3154    2.5433    0.0811 H   0  0  0  0  0  0  0  0  0  0  0  0
   -4.5027   -0.3358   -0.4079 H   0  0  0  0  0  0  0  0  0  0  0  0
   -2.8612   -2.1547   -0.5468 H   0  0  0  0  0  0  0  0  0  0  0  0
   -1.0791   -3.4225   -0.2413 H   0  0  0  0  0  0  0  0  0  0  0  0
    0.5424   -3.4497   -0.9266 H   0  0  0  0  0  0  0  0  0  0  0  0
    1.5045   -3.4351    1.4178 H   0  0  0  0  0  0  0  0  0  0  0  0
   -0.1246   -3.2642    2.0779 H   0  0  0  0  0  0  0  0  0  0  0  0
   -0.6701   -5.3979    1.0733 H   0  0  0  0  0  0  0  0  0  0  0  0
    1.8853   -5.6804    2.5190 H   0  0  0  0  0  0  0  0  0  0  0  0
   -1.0024   -5.5874    3.5749 H   0  0  0  0  0  0  0  0  0  0  0  0
    0.3985   -6.1134    4.5188 H   0  0  0  0  0  0  0  0  0  0  0  0
    0.2934   -4.4418    3.9712 H   0  0  0  0  0  0  0  0  0  0  0  0
    1.1499   -7.6769    1.2301 H   0  0  0  0  0  0  0  0  0  0  0  0
    0.9739   -7.9658    2.9670 H   0  0  0  0  0  0  0  0  0  0  0  0
   -0.4510   -7.5977    1.9853 H   0  0  0  0  0  0  0  0  0  0  0  0
    4.0271    4.3150    0.1654 H   0  0  0  0  0  0  0  0  0  0  0  0
    4.6395    3.6801   -1.3897 H   0  0  0  0  0  0  0  0  0  0  0  0
    2.9102    3.6468   -1.0482 H   0  0  0  0  0  0  0  0  0  0  0  0
   -4.0862    4.2970   -0.6184 H   0  0  0  0  0  0  0  0  0  0  0  0
   -4.3619    4.0641    1.1311 H   0  0  0  0  0  0  0  0  0  0  0  0
   -2.7437    3.9119    0.4712 H   0  0  0  0  0  0  0  0  0  0  0  0
  1  2  1  0  0  0  0
  1 13  1  0  0  0  0
  1 14  1  0  0  0  0
  2  3  2  0  0  0  0
  2  7  1  0  0  0  0
  3  4  1  0  0  0  0
  3 26  1  0  0  0  0
  4  5  2  0  0  0  0
  4 27  1  0  0  0  0
  5  6  1  0  0  0  0
  5 20  1  0  0  0  0
  6  7  2  0  0  0  0
  6 28  1  0  0  0  0
  7  8  1  0  0  0  0
  8  9  1  0  0  0  0
  8 13  2  0  0  0  0
  9 10  2  0  0  0  0
  9 29  1  0  0  0  0
 10 11  1  0  0  0  0
 10 23  1  0  0  0  0
 11 12  2  0  0  0  0
 11 30  1  0  0  0  0
 12 13  1  0  0  0  0
 12 31  1  0  0  0  0
 14 15  1  0  0  0  0
 14 32  1  0  0  0  0
 14 33  1  0  0  0  0
 15 16  1  0  0  0  0
 15 34  1  0  0  0  0
 15 35  1  0  0  0  0
 16 17  1  0  0  0  0
 16 36  1  0  0  0  0
 17 18  1  0  0  0  0
 17 19  1  0  0  0  0
 17 37  1  0  0  0  0
 18 38  1  0  0  0  0
 18 39  1  0  0  0  0
 18 40  1  0  0  0  0
 19 41  1  0  0  0  0
 19 42  1  0  0  0  0
 19 43  1  0  0  0  0
 20 21  1  0  0  0  0
 20 22  2  0  0  0  0
 21 44  1  0  0  0  0
 21 45  1  0  0  0  0
 21 46  1  0  0  0  0
 23 24  1  0  0  0  0
 23 25  2  0  0  0  0
 24 47  1  0  0  0  0
 24 48  1  0  0  0  0
 24 49  1  0  0  0  0
M  END
>  <Mol_ID>
5076

>  <Formula>
C21H24N2O2

>  <MolWeight>
336.42746

>  <Cat>
S0507

>  <Name>
CBL0137

>  <Synonyms>
Curaxin-137, CBL-C137, CBLC137

>  <Target>
NF-¦ÊB,p53

>  <Form>
free base

>  <CAS>
1197996-80-7

>  <URL>
http://www.selleckchem.com/products/cbl-0137.html

$$$$
