CBL0137(CBL-0137).cdx
 OpenBabel08302520433D

 49 51  0  0  0  0  0  0  0  0999 V2000
   -0.6961    0.4898   -0.0723 C   0  0  0  0  0  0  0  0  0  0  0  0
    0.7348    0.4671   -0.0381 C   0  0  0  0  0  0  0  0  0  0  0  0
    1.1354   -0.8649   -0.0776 C   0  0  0  0  0  0  0  0  0  0  0  0
   -0.0151   -1.6366   -0.1123 N   0  0  0  0  0  0  0  0  0  0  0  0
   -1.1352   -0.8320   -0.1803 C   0  0  0  0  0  0  0  0  0  0  0  0
    1.7217    1.4758    0.0149 C   0  0  0  0  0  0  0  0  0  0  0  0
    3.0831    1.1239    0.0238 C   0  0  0  0  0  0  0  0  0  0  0  0
    3.4549   -0.2200   -0.0095 C   0  0  0  0  0  0  0  0  0  0  0  0
    2.4911   -1.2314   -0.0658 C   0  0  0  0  0  0  0  0  0  0  0  0
   -2.4974   -1.1449   -0.3176 C   0  0  0  0  0  0  0  0  0  0  0  0
   -3.4251   -0.0973   -0.2861 C   0  0  0  0  0  0  0  0  0  0  0  0
   -3.0189    1.2288   -0.1229 C   0  0  0  0  0  0  0  0  0  0  0  0
   -1.6514    1.5314   -0.0386 C   0  0  0  0  0  0  0  0  0  0  0  0
    4.0963    2.2216    0.0565 C   0  0  0  0  0  0  0  0  0  0  0  0
    3.7289    3.3957    0.0735 O   0  0  0  0  0  0  0  0  0  0  0  0
    5.5601    1.8636    0.0708 C   0  0  0  0  0  0  0  0  0  0  0  0
   -4.0706    2.2858   -0.0270 C   0  0  0  0  0  0  0  0  0  0  0  0
   -5.2567    1.9814   -0.1335 O   0  0  0  0  0  0  0  0  0  0  0  0
   -3.6524    3.7131    0.2102 C   0  0  0  0  0  0  0  0  0  0  0  0
   -0.0236   -3.0937   -0.1011 C   0  0  0  0  0  0  0  0  0  0  0  0
    0.4231   -3.6987    1.2404 C   0  0  0  0  0  0  0  0  0  0  0  0
    0.2525   -5.1564    1.2063 N   0  0  0  0  0  0  0  0  0  0  0  0
    0.7852   -5.8575    2.3819 C   0  0  0  0  0  0  0  0  0  0  0  0
    0.0764   -5.4699    3.6811 C   0  0  0  0  0  0  0  0  0  0  0  0
    0.6105   -7.3571    2.1286 C   0  0  0  0  0  0  0  0  0  0  0  0
    1.4269    2.5205    0.0335 H   0  0  0  0  0  0  0  0  0  0  0  0
    4.4997   -0.5211    0.0047 H   0  0  0  0  0  0  0  0  0  0  0  0
    2.8008   -2.2730   -0.1060 H   0  0  0  0  0  0  0  0  0  0  0  0
   -2.8459   -2.1648   -0.4433 H   0  0  0  0  0  0  0  0  0  0  0  0
   -4.4841   -0.3331   -0.3826 H   0  0  0  0  0  0  0  0  0  0  0  0
   -1.2977    2.5525    0.0594 H   0  0  0  0  0  0  0  0  0  0  0  0
    5.8042    1.3113    0.9820 H   0  0  0  0  0  0  0  0  0  0  0  0
    5.8190    1.2834   -0.8188 H   0  0  0  0  0  0  0  0  0  0  0  0
    6.1556    2.7815    0.0581 H   0  0  0  0  0  0  0  0  0  0  0  0
   -3.0387    3.7886    1.1117 H   0  0  0  0  0  0  0  0  0  0  0  0
   -3.1166    4.0969   -0.6615 H   0  0  0  0  0  0  0  0  0  0  0  0
   -4.5452    4.3274    0.3648 H   0  0  0  0  0  0  0  0  0  0  0  0
   -1.0389   -3.4281   -0.3319 H   0  0  0  0  0  0  0  0  0  0  0  0
    0.6177   -3.4305   -0.9243 H   0  0  0  0  0  0  0  0  0  0  0  0
    1.4741   -3.4583    1.4302 H   0  0  0  0  0  0  0  0  0  0  0  0
   -0.1669   -3.2571    2.0519 H   0  0  0  0  0  0  0  0  0  0  0  0
   -0.7379   -5.3819    1.0995 H   0  0  0  0  0  0  0  0  0  0  0  0
    1.8574   -5.6535    2.4806 H   0  0  0  0  0  0  0  0  0  0  0  0
   -1.0106   -5.5786    3.5919 H   0  0  0  0  0  0  0  0  0  0  0  0
    0.4084   -6.1068    4.5083 H   0  0  0  0  0  0  0  0  0  0  0  0
    0.2942   -4.4349    3.9627 H   0  0  0  0  0  0  0  0  0  0  0  0
    1.1533   -7.6702    1.2294 H   0  0  0  0  0  0  0  0  0  0  0  0
    0.9963   -7.9439    2.9691 H   0  0  0  0  0  0  0  0  0  0  0  0
   -0.4450   -7.6216    1.9939 H   0  0  0  0  0  0  0  0  0  0  0  0
  1  2  1  0  0  0  0
  2  3  2  0  0  0  0
  2  6  1  0  0  0  0
  3  4  1  0  0  0  0
  4  5  1  0  0  0  0
  4 20  1  0  0  0  0
  5  1  2  0  0  0  0
  5 10  1  0  0  0  0
  6  7  2  0  0  0  0
  6 26  1  0  0  0  0
  7  8  1  0  0  0  0
  7 14  1  0  0  0  0
  8  9  2  0  0  0  0
  8 27  1  0  0  0  0
  9  3  1  0  0  0  0
  9 28  1  0  0  0  0
 10 11  2  0  0  0  0
 10 29  1  0  0  0  0
 11 12  1  0  0  0  0
 11 30  1  0  0  0  0
 12 13  2  0  0  0  0
 12 17  1  0  0  0  0
 13  1  1  0  0  0  0
 13 31  1  0  0  0  0
 14 15  2  0  0  0  0
 14 16  1  0  0  0  0
 16 32  1  0  0  0  0
 16 33  1  0  0  0  0
 16 34  1  0  0  0  0
 17 18  2  0  0  0  0
 17 19  1  0  0  0  0
 19 35  1  0  0  0  0
 19 36  1  0  0  0  0
 19 37  1  0  0  0  0
 20 21  1  0  0  0  0
 20 38  1  0  0  0  0
 20 39  1  0  0  0  0
 21 22  1  0  0  0  0
 21 40  1  0  0  0  0
 21 41  1  0  0  0  0
 22 23  1  0  0  0  0
 22 42  1  0  0  0  0
 23 24  1  0  0  0  0
 23 25  1  0  0  0  0
 23 43  1  0  0  0  0
 24 44  1  0  0  0  0
 24 45  1  0  0  0  0
 24 46  1  0  0  0  0
 25 47  1  0  0  0  0
 25 48  1  0  0  0  0
 25 49  1  0  0  0  0
M  END
>  <Mol_ID>
4032

>  <Formula>
C21H25ClN2O2

>  <MolWeight>
372.8884

>  <Cat>
S8483

>  <Name>
CBL0137 HCl

>  <Synonyms>
CBLC137 HCl, Curaxin 137 HCl

>  <Target>
NF-¦ÊB,p53

>  <Form>
HCl

>  <CAS>
1197397-89-9

>  <URL>
http://selleckchem.com/products/cbl0137-cbl-0137.html

$$$$
