CBR-470-1
 OpenBabel08302521373D

 42 43  0  0  0  0  0  0  0  0999 V2000
    3.3570    0.7116    1.6503 S   0  0  0  0  0  0  0  0  0  0  0  0
    2.6747   -0.0705    2.6630 O   0  0  0  0  0  0  0  0  0  0  0  0
    4.8025    0.7963    1.6531 O   0  0  0  0  0  0  0  0  0  0  0  0
    2.4624   -2.0807   -1.1832 N   0  0  0  0  0  0  0  0  0  0  0  0
    2.8005   -3.5172   -1.2557 C   0  0  0  0  0  0  0  0  0  0  0  0
    2.0293   -4.3230   -2.3232 C   0  0  0  0  0  0  0  0  0  0  0  0
    2.2032   -3.7704   -3.7400 C   0  0  0  0  0  0  0  0  0  0  0  0
    2.5238   -5.7775   -2.2916 C   0  0  0  0  0  0  0  0  0  0  0  0
    4.6706   -0.3984   -2.9685 O   0  0  0  0  0  0  0  0  0  0  0  0
    6.0460    0.8808   -1.2762 O   0  0  0  0  0  0  0  0  0  0  0  0
    2.8255    0.1064    0.0405 C   0  0  2  0  0  0  0  0  0  0  0  0
    3.2792   -1.3740   -0.1512 C   0  0  2  0  0  0  0  0  0  0  0  0
    3.4101    0.9210   -1.1040 C   0  0  0  0  0  0  0  0  0  0  0  0
    4.7682   -1.3086   -0.5202 C   0  0  0  0  0  0  0  0  0  0  0  0
    4.8960    0.0807   -1.6198 S   0  0  0  0  0  0  0  0  0  0  0  0
    2.7402    2.3791    1.7895 C   0  0  0  0  0  0  0  0  0  0  0  0
    1.4547    2.6029    2.2906 C   0  0  0  0  0  0  0  0  0  0  0  0
    3.5810    3.4584    1.4917 C   0  0  0  0  0  0  0  0  0  0  0  0
    0.9868    3.9125    2.4244 C   0  0  0  0  0  0  0  0  0  0  0  0
    3.1040    4.7632    1.6248 C   0  0  0  0  0  0  0  0  0  0  0  0
    1.8043    4.9890    2.0787 C   0  0  0  0  0  0  0  0  0  0  0  0
    2.6036   -1.6752   -2.1133 H   0  0  0  0  0  0  0  0  0  0  0  0
    3.8646   -3.6454   -1.4723 H   0  0  0  0  0  0  0  0  0  0  0  0
    2.6120   -3.9728   -0.2759 H   0  0  0  0  0  0  0  0  0  0  0  0
    0.9607   -4.3172   -2.0760 H   0  0  0  0  0  0  0  0  0  0  0  0
    3.2609   -3.7183   -4.0206 H   0  0  0  0  0  0  0  0  0  0  0  0
    1.6956   -4.4123   -4.4693 H   0  0  0  0  0  0  0  0  0  0  0  0
    1.7729   -2.7694   -3.8358 H   0  0  0  0  0  0  0  0  0  0  0  0
    2.3970   -6.2135   -1.2951 H   0  0  0  0  0  0  0  0  0  0  0  0
    1.9716   -6.3995   -3.0036 H   0  0  0  0  0  0  0  0  0  0  0  0
    3.5880   -5.8384   -2.5501 H   0  0  0  0  0  0  0  0  0  0  0  0
    1.7322    0.1875    0.0564 H   0  0  0  0  0  0  0  0  0  0  0  0
    3.1527   -1.9244    0.7894 H   0  0  0  0  0  0  0  0  0  0  0  0
    3.6700    1.9519   -0.8534 H   0  0  0  0  0  0  0  0  0  0  0  0
    2.7324    0.9264   -1.9609 H   0  0  0  0  0  0  0  0  0  0  0  0
    5.1704   -2.1883   -1.0224 H   0  0  0  0  0  0  0  0  0  0  0  0
    5.3933   -1.1259    0.3546 H   0  0  0  0  0  0  0  0  0  0  0  0
    0.8203    1.7753    2.6006 H   0  0  0  0  0  0  0  0  0  0  0  0
    4.6082    3.3000    1.1673 H   0  0  0  0  0  0  0  0  0  0  0  0
   -0.0126    4.0975    2.8133 H   0  0  0  0  0  0  0  0  0  0  0  0
    3.7501    5.6069    1.3886 H   0  0  0  0  0  0  0  0  0  0  0  0
    1.4354    6.0082    2.1824 H   0  0  0  0  0  0  0  0  0  0  0  0
  1  2  2  0  0  0  0
  1  3  2  0  0  0  0
  1 16  1  0  0  0  0
  4  5  1  0  0  0  0
  4 22  1  0  0  0  0
  5  6  1  0  0  0  0
  5 23  1  0  0  0  0
  5 24  1  0  0  0  0
  6  7  1  0  0  0  0
  6  8  1  0  0  0  0
  6 25  1  0  0  0  0
  7 26  1  0  0  0  0
  7 27  1  0  0  0  0
  7 28  1  0  0  0  0
  8 29  1  0  0  0  0
  8 30  1  0  0  0  0
  8 31  1  0  0  0  0
  9 15  2  0  0  0  0
 10 15  2  0  0  0  0
 11 12  1  0  0  0  0
 11 13  1  0  0  0  0
 11 32  1  6  0  0  0
 11  1  1  0  0  0  0
 12 14  1  0  0  0  0
 12 33  1  1  0  0  0
 12  4  1  0  0  0  0
 13 15  1  0  0  0  0
 13 34  1  0  0  0  0
 13 35  1  0  0  0  0
 14 15  1  0  0  0  0
 14 36  1  0  0  0  0
 14 37  1  0  0  0  0
 16 17  2  0  0  0  0
 16 18  1  0  0  0  0
 17 19  1  0  0  0  0
 17 38  1  0  0  0  0
 18 20  2  0  0  0  0
 18 39  1  0  0  0  0
 19 21  2  0  0  0  0
 19 40  1  0  0  0  0
 20 21  1  0  0  0  0
 20 41  1  0  0  0  0
 21 42  1  0  0  0  0
M  END
>  <Mol_ID>
7494

>  <Formula>
C14H20ClNO4S2

>  <MolWeight>
365.8959

>  <Cat>
E1220

>  <Name>
CBR-470-1

>  <Target>
phosphoglycerate kinase

>  <Form>
chlorosulfate

>  <CAS>
2416095-06-0

>  <URL>
https://www.selleckchem.com/products/cbr-470-1.html

$$$$
