CBR-5884
 OpenBabel08302521303D

 34 35  0  0  0  0  0  0  0  0999 V2000
   -1.2329    0.3692    0.1104 O   0  0  0  0  0  0  0  0  0  0  0  0
   -0.2855    1.3606    0.0262 C   0  0  0  0  0  0  0  0  0  0  0  0
    0.9740    0.7907    0.0514 C   0  0  0  0  0  0  0  0  0  0  0  0
    0.7968   -0.6064    0.1303 C   0  0  0  0  0  0  0  0  0  0  0  0
   -0.5585   -0.8148    0.1583 C   0  0  0  0  0  0  0  0  0  0  0  0
   -0.6740    2.7563   -0.0790 C   0  0  0  0  0  0  0  0  0  0  0  0
   -2.0434    2.9873    0.0235 N   0  0  0  0  0  0  0  0  0  0  0  0
    0.1742    3.6382   -0.1778 O   0  0  0  0  0  0  0  0  0  0  0  0
   -2.5658    4.2745    0.0211 C   0  0  0  0  0  0  0  0  0  0  0  0
   -2.0422    5.3747   -1.1592 S   0  0  0  0  0  0  0  0  0  0  0  0
   -2.9559    6.6703   -0.4997 C   0  0  0  0  0  0  0  0  0  0  0  0
   -3.7504    6.2307    0.5683 C   0  0  0  0  0  0  0  0  0  0  0  0
   -3.5525    4.8122    0.8184 C   0  0  0  0  0  0  0  0  0  0  0  0
   -4.2726    3.9063    2.1625 S   0  0  0  0  0  0  0  0  0  0  0  0
   -4.6547    7.1069    1.3883 C   0  0  0  0  0  0  0  0  0  0  0  0
   -2.7974    8.0294   -1.0312 C   0  0  0  0  0  0  0  0  0  0  0  0
   -2.0565    8.0538   -2.1823 O   0  0  0  0  0  0  0  0  0  0  0  0
   -1.7219    9.3575   -2.6875 C   0  0  0  0  0  0  0  0  0  0  0  0
   -2.8175    9.8960   -3.5898 C   0  0  0  0  0  0  0  0  0  0  0  0
   -3.2529    9.0435   -0.5124 O   0  0  0  0  0  0  0  0  0  0  0  0
   -5.8996    4.0195    1.7229 C   0  0  0  0  0  0  0  0  0  0  0  0
   -7.0253    4.0923    1.4580 N   0  0  0  0  0  0  0  0  0  0  0  0
    1.9035    1.3450    0.0079 H   0  0  0  0  0  0  0  0  0  0  0  0
    1.5662   -1.3697    0.1567 H   0  0  0  0  0  0  0  0  0  0  0  0
   -1.1758   -1.7020    0.2045 H   0  0  0  0  0  0  0  0  0  0  0  0
   -2.5695    2.2530    0.4837 H   0  0  0  0  0  0  0  0  0  0  0  0
   -5.6994    6.8171    1.2441 H   0  0  0  0  0  0  0  0  0  0  0  0
   -4.4059    7.0166    2.4509 H   0  0  0  0  0  0  0  0  0  0  0  0
   -4.5832    8.1649    1.1383 H   0  0  0  0  0  0  0  0  0  0  0  0
   -1.5063   10.0533   -1.8679 H   0  0  0  0  0  0  0  0  0  0  0  0
   -0.7958    9.2531   -3.2631 H   0  0  0  0  0  0  0  0  0  0  0  0
   -3.7889    9.8942   -3.0868 H   0  0  0  0  0  0  0  0  0  0  0  0
   -2.5883   10.9188   -3.9060 H   0  0  0  0  0  0  0  0  0  0  0  0
   -2.9176    9.2727   -4.4843 H   0  0  0  0  0  0  0  0  0  0  0  0
  1  2  1  0  0  0  0
  2  3  2  0  0  0  0
  2  6  1  0  0  0  0
  3  4  1  0  0  0  0
  3 23  1  0  0  0  0
  4  5  2  0  0  0  0
  4 24  1  0  0  0  0
  5  1  1  0  0  0  0
  5 25  1  0  0  0  0
  6  7  1  0  0  0  0
  6  8  2  0  0  0  0
  7  9  1  0  0  0  0
  7 26  1  0  0  0  0
  9 10  1  0  0  0  0
 10 11  1  0  0  0  0
 11 12  2  0  0  0  0
 11 16  1  0  0  0  0
 12 13  1  0  0  0  0
 12 15  1  0  0  0  0
 13  9  2  0  0  0  0
 13 14  1  0  0  0  0
 14 21  1  0  0  0  0
 15 27  1  0  0  0  0
 15 28  1  0  0  0  0
 15 29  1  0  0  0  0
 16 17  1  0  0  0  0
 16 20  2  0  0  0  0
 17 18  1  0  0  0  0
 18 19  1  0  0  0  0
 18 30  1  0  0  0  0
 18 31  1  0  0  0  0
 19 32  1  0  0  0  0
 19 33  1  0  0  0  0
 19 34  1  0  0  0  0
 21 22  3  0  0  0  0
M  END
>  <Mol_ID>
5553

>  <Formula>
C14H12N2O4S2

>  <MolWeight>
336.38608

>  <Cat>
S9645

>  <Name>
CBR-5884

>  <Synonyms>
N/A

>  <Target>
Dehydrogenase

>  <Form>
Free Base

>  <CAS>
681159-27-3

>  <URL>
https://www.selleckchem.com/products/cbr-5884.html

$$$$
