CBS1117
 OpenBabel08302521323D

 40 41  0  0  0  0  0  0  0  0999 V2000
    0.8718   -0.0423    0.5122 C   0  0  0  0  0  0  0  0  0  0  0  0
    0.1955   -1.1732    0.1085 N   0  0  0  0  0  0  0  0  0  0  0  0
    0.3049    0.9882    0.8588 O   0  0  0  0  0  0  0  0  0  0  0  0
   -1.6935   -3.7710   -3.4588 C   0  0  0  0  0  0  0  0  0  0  0  0
   -0.2118   -4.0501   -3.7507 C   0  0  0  0  0  0  0  0  0  0  0  0
   -2.4677   -5.0952   -3.4063 C   0  0  0  0  0  0  0  0  0  0  0  0
    2.3642   -0.0938    0.4974 C   0  0  0  0  0  0  0  0  0  0  0  0
    3.0509    1.1182    0.3418 C   0  0  0  0  0  0  0  0  0  0  0  0
    3.0916   -1.2775    0.6916 C   0  0  0  0  0  0  0  0  0  0  0  0
    4.4424    1.1510    0.3770 C   0  0  0  0  0  0  0  0  0  0  0  0
    4.4906   -1.2354    0.7351 C   0  0  0  0  0  0  0  0  0  0  0  0
    5.1649   -0.0231    0.5811 C   0  0  0  0  0  0  0  0  0  0  0  0
   -1.2702   -1.2159    0.0355 C   0  0  0  0  0  0  0  0  0  0  0  0
   -1.7812   -2.6435    0.2117 C   0  0  0  0  0  0  0  0  0  0  0  0
   -1.8253   -0.6490   -1.2738 C   0  0  0  0  0  0  0  0  0  0  0  0
   -1.4620   -3.5160   -1.0049 C   0  0  0  0  0  0  0  0  0  0  0  0
   -1.4917   -1.5522   -2.4599 C   0  0  0  0  0  0  0  0  0  0  0  0
   -1.9541   -2.9366   -2.2611 N   0  0  0  0  0  0  0  0  0  0  0  0
    0.7191   -1.9167   -0.3320 H   0  0  0  0  0  0  0  0  0  0  0  0
   -2.0976   -3.2322   -4.3268 H   0  0  0  0  0  0  0  0  0  0  0  0
    0.2708   -4.6078   -2.9414 H   0  0  0  0  0  0  0  0  0  0  0  0
   -0.1089   -4.6491   -4.6621 H   0  0  0  0  0  0  0  0  0  0  0  0
    0.3506   -3.1260   -3.9128 H   0  0  0  0  0  0  0  0  0  0  0  0
   -3.5351   -4.9199   -3.2354 H   0  0  0  0  0  0  0  0  0  0  0  0
   -2.3717   -5.6286   -4.3592 H   0  0  0  0  0  0  0  0  0  0  0  0
   -2.0959   -5.7639   -2.6236 H   0  0  0  0  0  0  0  0  0  0  0  0
    2.4969    2.0423    0.1969 H   0  0  0  0  0  0  0  0  0  0  0  0
    2.5919   -2.2278    0.8508 H   0  0  0  0  0  0  0  0  0  0  0  0
    4.9728    2.0964    0.2610 H   0  0  0  0  0  0  0  0  0  0  0  0
    5.0593   -2.1459    0.9075 H   0  0  0  0  0  0  0  0  0  0  0  0
    6.2519    0.0091    0.6329 H   0  0  0  0  0  0  0  0  0  0  0  0
   -1.6512   -0.6018    0.8611 H   0  0  0  0  0  0  0  0  0  0  0  0
   -1.3414   -3.0930    1.1098 H   0  0  0  0  0  0  0  0  0  0  0  0
   -2.8684   -2.6231    0.3645 H   0  0  0  0  0  0  0  0  0  0  0  0
   -2.9184   -0.5605   -1.1924 H   0  0  0  0  0  0  0  0  0  0  0  0
   -1.4433    0.3612   -1.4601 H   0  0  0  0  0  0  0  0  0  0  0  0
   -0.3801   -3.6808   -1.0457 H   0  0  0  0  0  0  0  0  0  0  0  0
   -1.9279   -4.4907   -0.8275 H   0  0  0  0  0  0  0  0  0  0  0  0
   -1.9769   -1.1310   -3.3500 H   0  0  0  0  0  0  0  0  0  0  0  0
   -0.4113   -1.5153   -2.6334 H   0  0  0  0  0  0  0  0  0  0  0  0
  1  2  1  0  0  0  0
  1  3  2  0  0  0  0
  1  7  1  0  0  0  0
  2 13  1  0  0  0  0
  2 19  1  0  0  0  0
  4  5  1  0  0  0  0
  4  6  1  0  0  0  0
  4 18  1  0  0  0  0
  4 20  1  0  0  0  0
  5 21  1  0  0  0  0
  5 22  1  0  0  0  0
  5 23  1  0  0  0  0
  6 24  1  0  0  0  0
  6 25  1  0  0  0  0
  6 26  1  0  0  0  0
  7  8  2  0  0  0  0
  7  9  1  0  0  0  0
  8 10  1  0  0  0  0
  8 27  1  0  0  0  0
  9 11  2  0  0  0  0
  9 28  1  0  0  0  0
 10 12  2  0  0  0  0
 10 29  1  0  0  0  0
 11 12  1  0  0  0  0
 11 30  1  0  0  0  0
 12 31  1  0  0  0  0
 13 14  1  0  0  0  0
 13 15  1  0  0  0  0
 13 32  1  0  0  0  0
 14 16  1  0  0  0  0
 14 33  1  0  0  0  0
 14 34  1  0  0  0  0
 15 17  1  0  0  0  0
 15 35  1  0  0  0  0
 15 36  1  0  0  0  0
 16 18  1  0  0  0  0
 16 37  1  0  0  0  0
 16 38  1  0  0  0  0
 17 18  1  0  0  0  0
 17 39  1  0  0  0  0
 17 40  1  0  0  0  0
M  END
>  <Mol_ID>
6138

>  <Formula>
C15H20Cl2N2O

>  <MolWeight>
315.2381

>  <Cat>
E0336

>  <Name>
CBS1117

>  <Synonyms>
N/A

>  <Target>
Antiviral

>  <Form>
free base

>  <CAS>
959245-08-0

>  <URL>
http://www.selleckchem.com/products/cbs1117.html

$$$$
