CC-115.cdx
 OpenBabel08302520003D

 41 44  0  0  0  0  0  0  0  0999 V2000
   -0.9943    1.1763   -0.0131 C   0  0  0  0  0  0  0  0  0  0  0  0
    0.2403    1.0792    0.5341 N   0  0  0  0  0  0  0  0  0  0  0  0
    0.8681   -0.1321    0.5622 C   0  0  0  0  0  0  0  0  0  0  0  0
    0.2913   -1.3103    0.0516 C   0  0  0  0  0  0  0  0  0  0  0  0
   -0.9938   -1.1625   -0.5117 C   0  0  0  0  0  0  0  0  0  0  0  0
   -1.6363    0.0757   -0.5521 C   0  0  0  0  0  0  0  0  0  0  0  0
   -1.6456    2.4935   -0.0078 C   0  0  0  0  0  0  0  0  0  0  0  0
    0.9359   -2.6407    0.0792 C   0  0  0  0  0  0  0  0  0  0  0  0
    2.2184   -0.0554    1.2114 C   0  0  0  0  0  0  0  0  0  0  0  0
    0.7423   -3.6076   -0.9068 C   0  0  0  0  0  0  0  0  0  0  0  0
    1.2848   -4.8521   -0.8727 N   0  0  0  0  0  0  0  0  0  0  0  0
    2.0581   -5.1221    0.1996 C   0  0  0  0  0  0  0  0  0  0  0  0
    2.3048   -4.1534    1.1867 C   0  0  0  0  0  0  0  0  0  0  0  0
    1.7342   -2.9223    1.1417 N   0  0  0  0  0  0  0  0  0  0  0  0
    2.5442   -6.4212    0.2917 N   0  0  0  0  0  0  0  0  0  0  0  0
    3.7980   -6.5306    1.0175 C   0  0  0  0  0  0  0  0  0  0  0  0
    3.8375   -5.6971    2.3044 C   0  0  0  0  0  0  0  0  0  0  0  0
    3.1932   -4.4642    2.2521 N   0  0  0  0  0  0  0  0  0  0  0  0
    3.5876   -3.4181    3.1865 C   0  0  0  0  0  0  0  0  0  0  0  0
    4.8044   -2.6576    2.6633 C   0  0  0  0  0  0  0  0  0  0  0  0
    4.5204   -6.0589    3.2648 O   0  0  0  0  0  0  0  0  0  0  0  0
   -1.1075    3.6149    0.5077 N   0  0  0  0  0  0  0  0  0  0  0  0
   -2.0678    4.5184    0.2886 N   0  0  0  0  0  0  0  0  0  0  0  0
   -3.1352    3.9687   -0.3369 C   0  0  0  0  0  0  0  0  0  0  0  0
   -2.9100    2.6935   -0.5425 N   0  0  0  0  0  0  0  0  0  0  0  0
   -1.5341   -2.0175   -0.9135 H   0  0  0  0  0  0  0  0  0  0  0  0
   -2.6267    0.1684   -0.9871 H   0  0  0  0  0  0  0  0  0  0  0  0
    2.7503    0.8310    0.8514 H   0  0  0  0  0  0  0  0  0  0  0  0
    2.1031    0.0269    2.2974 H   0  0  0  0  0  0  0  0  0  0  0  0
    2.8672   -0.8981    0.9805 H   0  0  0  0  0  0  0  0  0  0  0  0
    0.1274   -3.4178   -1.7811 H   0  0  0  0  0  0  0  0  0  0  0  0
    2.4754   -6.8796   -0.6104 H   0  0  0  0  0  0  0  0  0  0  0  0
    4.6334   -6.1958    0.3902 H   0  0  0  0  0  0  0  0  0  0  0  0
    3.9624   -7.5796    1.2790 H   0  0  0  0  0  0  0  0  0  0  0  0
    2.7548   -2.7358    3.3855 H   0  0  0  0  0  0  0  0  0  0  0  0
    3.8544   -3.8778    4.1450 H   0  0  0  0  0  0  0  0  0  0  0  0
    4.5717   -2.1195    1.7408 H   0  0  0  0  0  0  0  0  0  0  0  0
    5.1557   -1.9317    3.4023 H   0  0  0  0  0  0  0  0  0  0  0  0
    5.6304   -3.3397    2.4330 H   0  0  0  0  0  0  0  0  0  0  0  0
   -1.9227    5.4759    0.5944 H   0  0  0  0  0  0  0  0  0  0  0  0
   -4.0215    4.5244   -0.6064 H   0  0  0  0  0  0  0  0  0  0  0  0
  1  2  2  0  0  0  0
  1  7  1  0  0  0  0
  2  3  1  0  0  0  0
  3  4  2  0  0  0  0
  3  9  1  0  0  0  0
  4  5  1  0  0  0  0
  4  8  1  0  0  0  0
  5  6  2  0  0  0  0
  5 26  1  0  0  0  0
  6  1  1  0  0  0  0
  6 27  1  0  0  0  0
  7 22  2  0  0  0  0
  8 10  2  0  0  0  0
  9 28  1  0  0  0  0
  9 29  1  0  0  0  0
  9 30  1  0  0  0  0
 10 11  1  0  0  0  0
 10 31  1  0  0  0  0
 11 12  2  0  0  0  0
 12 13  1  0  0  0  0
 12 15  1  0  0  0  0
 13 14  2  0  0  0  0
 14  8  1  0  0  0  0
 15 16  1  0  0  0  0
 15 32  1  0  0  0  0
 16 17  1  0  0  0  0
 16 33  1  0  0  0  0
 16 34  1  0  0  0  0
 17 18  1  0  0  0  0
 17 21  2  0  0  0  0
 18 13  1  0  0  0  0
 18 19  1  0  0  0  0
 19 20  1  0  0  0  0
 19 35  1  0  0  0  0
 19 36  1  0  0  0  0
 20 37  1  0  0  0  0
 20 38  1  0  0  0  0
 20 39  1  0  0  0  0
 22 23  1  0  0  0  0
 23 24  1  0  0  0  0
 23 40  1  0  0  0  0
 24 25  2  0  0  0  0
 24 41  1  0  0  0  0
 25  7  1  0  0  0  0
M  END
>  <Mol_ID>
2714

>  <Formula>
C16H16N8O

>  <MolWeight>
336.35124

>  <Cat>
S7891

>  <Name>
CC-115

>  <Synonyms>
N/A

>  <Target>
DNA-PK,mTOR

>  <Form>
free base

>  <CAS>
1228013-15-7

>  <URL>
http://selleckchem.com/products/cc-115.html

$$$$
