CC-122.cdx
 OpenBabel08302520003D

 35 37  0  0  0  0  0  0  0  0999 V2000
   -2.7980    0.3934   -0.0533 C   0  0  0  0  0  0  0  0  0  0  0  0
   -2.6727   -0.9954   -0.0486 C   0  0  0  0  0  0  0  0  0  0  0  0
   -1.4145   -1.6040    0.0424 C   0  0  0  0  0  0  0  0  0  0  0  0
   -0.2698   -0.7749    0.0519 C   0  0  0  0  0  0  0  0  0  0  0  0
   -0.3889    0.6106    0.0697 C   0  0  0  0  0  0  0  0  0  0  0  0
   -1.6578    1.1891    0.0227 C   0  0  0  0  0  0  0  0  0  0  0  0
    1.1097   -1.3063    0.0498 C   0  0  0  0  0  0  0  0  0  0  0  0
    2.1746   -0.3941    0.0312 N   0  0  0  0  0  0  0  0  0  0  0  0
    1.9091    0.9557    0.1261 C   0  0  0  0  0  0  0  0  0  0  0  0
    0.7155    1.4538    0.1495 N   0  0  0  0  0  0  0  0  0  0  0  0
    3.0127    1.9917    0.2362 C   0  0  0  0  0  0  0  0  0  0  0  0
    1.2712   -2.5228    0.0650 O   0  0  0  0  0  0  0  0  0  0  0  0
   -1.3519   -3.0027   -0.0907 N   0  0  0  0  0  0  0  0  0  0  0  0
    3.5424   -0.9518   -0.0964 C   0  0  3  0  0  0  0  0  0  0  0  0
    3.6856   -1.8656   -1.3154 C   0  0  0  0  0  0  0  0  0  0  0  0
    3.9095   -3.1990   -1.0680 N   0  0  0  0  0  0  0  0  0  0  0  0
    3.7581   -3.8610    0.1261 C   0  0  0  0  0  0  0  0  0  0  0  0
    3.7188   -3.0253    1.3889 C   0  0  0  0  0  0  0  0  0  0  0  0
    4.1507   -1.5867    1.1579 C   0  0  0  0  0  0  0  0  0  0  0  0
    3.5483   -1.4493   -2.4651 O   0  0  0  0  0  0  0  0  0  0  0  0
    3.6331   -5.0837    0.1532 O   0  0  0  0  0  0  0  0  0  0  0  0
   -3.7799    0.8515   -0.1265 H   0  0  0  0  0  0  0  0  0  0  0  0
   -3.5682   -1.6069   -0.1395 H   0  0  0  0  0  0  0  0  0  0  0  0
   -1.7519    2.2717    0.0233 H   0  0  0  0  0  0  0  0  0  0  0  0
    3.0147    2.5964   -0.6771 H   0  0  0  0  0  0  0  0  0  0  0  0
    2.7753    2.6576    1.0748 H   0  0  0  0  0  0  0  0  0  0  0  0
    4.0111    1.6039    0.4159 H   0  0  0  0  0  0  0  0  0  0  0  0
   -0.4343   -3.3830    0.1632 H   0  0  0  0  0  0  0  0  0  0  0  0
   -2.1213   -3.5094    0.3340 H   0  0  0  0  0  0  0  0  0  0  0  0
    4.2167   -0.1307   -0.3545 H   0  0  0  0  0  0  0  0  0  0  0  0
    3.8771   -3.7922   -1.8858 H   0  0  0  0  0  0  0  0  0  0  0  0
    4.3964   -3.4910    2.1139 H   0  0  0  0  0  0  0  0  0  0  0  0
    2.7167   -3.0680    1.8245 H   0  0  0  0  0  0  0  0  0  0  0  0
    5.2431   -1.6007    1.0273 H   0  0  0  0  0  0  0  0  0  0  0  0
    3.9538   -0.9783    2.0473 H   0  0  0  0  0  0  0  0  0  0  0  0
  1  2  2  0  0  0  0
  1 22  1  0  0  0  0
  2  3  1  0  0  0  0
  2 23  1  0  0  0  0
  3  4  2  0  0  0  0
  3 13  1  0  0  0  0
  4  5  1  0  0  0  0
  4  7  1  0  0  0  0
  5  6  2  0  0  0  0
  6  1  1  0  0  0  0
  6 24  1  0  0  0  0
  7  8  1  0  0  0  0
  7 12  2  0  0  0  0
  8  9  1  0  0  0  0
  8 14  1  0  0  0  0
  9 10  2  0  0  0  0
  9 11  1  0  0  0  0
 10  5  1  0  0  0  0
 11 25  1  0  0  0  0
 11 26  1  0  0  0  0
 11 27  1  0  0  0  0
 13 28  1  0  0  0  0
 13 29  1  0  0  0  0
 14 15  1  0  0  0  0
 14 30  1  0  0  0  0
 15 16  1  0  0  0  0
 15 20  2  0  0  0  0
 16 17  1  0  0  0  0
 16 31  1  0  0  0  0
 17 18  1  0  0  0  0
 17 21  2  0  0  0  0
 18 19  1  0  0  0  0
 18 32  1  0  0  0  0
 18 33  1  0  0  0  0
 19 14  1  0  0  0  0
 19 34  1  0  0  0  0
 19 35  1  0  0  0  0
M  END
>  <Mol_ID>
2729

>  <Formula>
C14H14N4O3

>  <MolWeight>
286.28596

>  <Cat>
S7892

>  <Name>
Avadomide (CC-122)

>  <Synonyms>
N/A

>  <Target>
E3 Ligase ,Immunology & Inflammation related

>  <Form>
Free Base

>  <CAS>
1015474-32-4

>  <URL>
http://selleckchem.com/products/cc-122.html

$$$$
