CC-223.cdx
 OpenBabel08302519593D

 56 59  0  0  0  0  0  0  0  0999 V2000
   -0.4423   -1.2093    0.0474 C   0  0  0  0  0  0  0  0  0  0  0  0
   -1.0871   -0.1408    0.5827 N   0  0  0  0  0  0  0  0  0  0  0  0
   -0.4616    1.0631    0.5297 C   0  0  0  0  0  0  0  0  0  0  0  0
    0.8118    1.2984   -0.0021 C   0  0  0  0  0  0  0  0  0  0  0  0
    1.4434    0.1744   -0.5447 C   0  0  0  0  0  0  0  0  0  0  0  0
    0.8218   -1.0796   -0.5182 C   0  0  0  0  0  0  0  0  0  0  0  0
   -1.1936   -2.5406    0.0792 C   0  0  0  0  0  0  0  0  0  0  0  0
    1.4377    2.6307    0.0066 C   0  0  0  0  0  0  0  0  0  0  0  0
    1.1734    3.5742    0.9970 C   0  0  0  0  0  0  0  0  0  0  0  0
    1.6779    4.8277    0.9965 N   0  0  0  0  0  0  0  0  0  0  0  0
    2.4691    5.1365   -0.0459 C   0  0  0  0  0  0  0  0  0  0  0  0
    2.8054    4.1917   -1.0445 C   0  0  0  0  0  0  0  0  0  0  0  0
    2.3035    2.9258   -1.0116 N   0  0  0  0  0  0  0  0  0  0  0  0
    2.8917    6.4597   -0.0947 N   0  0  0  0  0  0  0  0  0  0  0  0
    4.1542    6.6404   -0.7777 C   0  0  0  0  0  0  0  0  0  0  0  0
    4.2153    5.8931   -2.1107 C   0  0  0  0  0  0  0  0  0  0  0  0
    3.6892    4.5935   -2.1008 N   0  0  0  0  0  0  0  0  0  0  0  0
   -2.4708   -2.3575    0.7207 O   0  0  0  0  0  0  0  0  0  0  0  0
   -1.4774   -3.0483   -1.3358 C   0  0  0  0  0  0  0  0  0  0  0  0
   -0.4546   -3.5961    0.9025 C   0  0  0  0  0  0  0  0  0  0  0  0
    4.8475    6.3724   -3.0542 O   0  0  0  0  0  0  0  0  0  0  0  0
    4.2543    3.5786   -3.0079 C   0  0  2  0  0  0  0  0  0  0  0  0
    5.7627    3.4366   -2.7156 C   0  0  0  0  0  0  0  0  0  0  0  0
    6.4451    2.4151   -3.6042 C   0  0  0  0  0  0  0  0  0  0  0  0
    6.2176    2.7064   -5.0881 C   0  0  2  0  0  0  0  0  0  0  0  0
    4.7161    2.8182   -5.3894 C   0  0  0  0  0  0  0  0  0  0  0  0
    4.0044    3.8460   -4.5036 C   0  0  0  0  0  0  0  0  0  0  0  0
    6.7405    1.6566   -5.9094 O   0  0  0  0  0  0  0  0  0  0  0  0
    8.1506    1.4932   -5.8113 C   0  0  0  0  0  0  0  0  0  0  0  0
   -1.0611    1.8713    0.9436 H   0  0  0  0  0  0  0  0  0  0  0  0
    2.4316    0.2672   -0.9923 H   0  0  0  0  0  0  0  0  0  0  0  0
    1.3314   -1.9361   -0.9492 H   0  0  0  0  0  0  0  0  0  0  0  0
    0.5305    3.3564    1.8440 H   0  0  0  0  0  0  0  0  0  0  0  0
    2.7790    6.8877    0.8186 H   0  0  0  0  0  0  0  0  0  0  0  0
    4.9862    6.2781   -0.1600 H   0  0  0  0  0  0  0  0  0  0  0  0
    4.3112    7.7068   -0.9665 H   0  0  0  0  0  0  0  0  0  0  0  0
   -2.4708   -1.4248    1.0195 H   0  0  0  0  0  0  0  0  0  0  0  0
   -0.5579   -3.2467   -1.8960 H   0  0  0  0  0  0  0  0  0  0  0  0
   -2.0658   -3.9730   -1.3094 H   0  0  0  0  0  0  0  0  0  0  0  0
   -2.0700   -2.3194   -1.9012 H   0  0  0  0  0  0  0  0  0  0  0  0
    0.5282   -3.8374    0.4868 H   0  0  0  0  0  0  0  0  0  0  0  0
   -0.3175   -3.2596    1.9370 H   0  0  0  0  0  0  0  0  0  0  0  0
   -1.0390   -4.5231    0.9568 H   0  0  0  0  0  0  0  0  0  0  0  0
    3.7961    2.6062   -2.7912 H   0  0  0  0  0  0  0  0  0  0  0  0
    6.2779    4.3951   -2.8546 H   0  0  0  0  0  0  0  0  0  0  0  0
    5.9106    3.1645   -1.6636 H   0  0  0  0  0  0  0  0  0  0  0  0
    7.5172    2.4264   -3.3761 H   0  0  0  0  0  0  0  0  0  0  0  0
    6.0939    1.4047   -3.3618 H   0  0  0  0  0  0  0  0  0  0  0  0
    6.7047    3.6510   -5.3685 H   0  0  0  0  0  0  0  0  0  0  0  0
    4.5747    3.0791   -6.4459 H   0  0  0  0  0  0  0  0  0  0  0  0
    4.2450    1.8344   -5.2652 H   0  0  0  0  0  0  0  0  0  0  0  0
    2.9269    3.8179   -4.7072 H   0  0  0  0  0  0  0  0  0  0  0  0
    4.3440    4.8434   -4.7991 H   0  0  0  0  0  0  0  0  0  0  0  0
    8.6711    2.4502   -5.9135 H   0  0  0  0  0  0  0  0  0  0  0  0
    8.4155    1.0173   -4.8628 H   0  0  0  0  0  0  0  0  0  0  0  0
    8.4762    0.8285   -6.6158 H   0  0  0  0  0  0  0  0  0  0  0  0
  1  2  2  0  0  0  0
  1  7  1  0  0  0  0
  2  3  1  0  0  0  0
  3  4  2  0  0  0  0
  3 30  1  0  0  0  0
  4  5  1  0  0  0  0
  4  8  1  0  0  0  0
  5  6  2  0  0  0  0
  5 31  1  0  0  0  0
  6  1  1  0  0  0  0
  6 32  1  0  0  0  0
  7 18  1  0  0  0  0
  7 19  1  0  0  0  0
  7 20  1  0  0  0  0
  8  9  2  0  0  0  0
  9 10  1  0  0  0  0
  9 33  1  0  0  0  0
 10 11  2  0  0  0  0
 11 12  1  0  0  0  0
 11 14  1  0  0  0  0
 12 13  2  0  0  0  0
 13  8  1  0  0  0  0
 14 15  1  0  0  0  0
 14 34  1  0  0  0  0
 15 16  1  0  0  0  0
 15 35  1  0  0  0  0
 15 36  1  0  0  0  0
 16 17  1  0  0  0  0
 16 21  2  0  0  0  0
 17 12  1  0  0  0  0
 18 37  1  0  0  0  0
 19 38  1  0  0  0  0
 19 39  1  0  0  0  0
 19 40  1  0  0  0  0
 20 41  1  0  0  0  0
 20 42  1  0  0  0  0
 20 43  1  0  0  0  0
 22 17  1  0  0  0  0
 22 23  1  0  0  0  0
 22 44  1  1  0  0  0
 23 24  1  0  0  0  0
 23 45  1  0  0  0  0
 23 46  1  0  0  0  0
 24 25  1  0  0  0  0
 24 47  1  0  0  0  0
 24 48  1  0  0  0  0
 25 26  1  0  0  0  0
 25 49  1  6  0  0  0
 25 28  1  0  0  0  0
 26 27  1  0  0  0  0
 26 50  1  0  0  0  0
 26 51  1  0  0  0  0
 27 22  1  0  0  0  0
 27 52  1  0  0  0  0
 27 53  1  0  0  0  0
 28 29  1  0  0  0  0
 29 54  1  0  0  0  0
 29 55  1  0  0  0  0
 29 56  1  0  0  0  0
M  END
>  <Mol_ID>
2651

>  <Formula>
C21H27N5O3

>  <MolWeight>
397.47078

>  <Cat>
S7886

>  <Name>
Onatasertib (CC 223)

>  <Synonyms>
ATG-008

>  <Target>
mTOR

>  <Form>
free base

>  <CAS>
1228013-30-6

>  <URL>
http://selleckchem.com/products/cc-223.html

$$$$
