CC-401 Hydrochloride
 OpenBabel08302521233D

 53 57  0  0  0  0  0  0  0  0999 V2000
    0.9419    1.8066    1.8085 C   0  0  0  0  0  0  0  0  0  0  0  0
    0.2636    2.0367    0.6106 C   0  0  0  0  0  0  0  0  0  0  0  0
    0.8779    0.5685    2.4611 C   0  0  0  0  0  0  0  0  0  0  0  0
   -0.5275    0.9975    0.1039 C   0  0  0  0  0  0  0  0  0  0  0  0
    1.6449    0.3674    3.6851 C   0  0  0  0  0  0  0  0  0  0  0  0
    0.0611   -0.4464    1.9235 C   0  0  0  0  0  0  0  0  0  0  0  0
   -0.6832   -0.2342    0.7361 C   0  0  0  0  0  0  0  0  0  0  0  0
   -1.2906    0.9246   -1.0172 N   0  0  0  0  0  0  0  0  0  0  0  0
    2.2162   -0.8234    4.0622 N   0  0  0  0  0  0  0  0  0  0  0  0
    1.9680    1.2749    4.5873 N   0  0  0  0  0  0  0  0  0  0  0  0
   -1.6626   -0.9437   -0.0642 C   0  0  0  0  0  0  0  0  0  0  0  0
   -1.9680   -0.2217   -1.1548 N   0  0  0  0  0  0  0  0  0  0  0  0
    2.8827   -0.7119    5.2243 N   0  0  0  0  0  0  0  0  0  0  0  0
    2.7039    0.5797    5.5031 C   0  0  0  0  0  0  0  0  0  0  0  0
   -2.3651   -2.2216    0.1817 C   0  0  0  0  0  0  0  0  0  0  0  0
   -2.2146   -2.9258    1.3780 C   0  0  0  0  0  0  0  0  0  0  0  0
   -3.2793   -2.7403   -0.7664 C   0  0  0  0  0  0  0  0  0  0  0  0
   -2.9821   -4.0586    1.6550 C   0  0  0  0  0  0  0  0  0  0  0  0
   -4.0426   -3.8918   -0.5105 C   0  0  0  0  0  0  0  0  0  0  0  0
   -3.9050   -4.5323    0.7199 C   0  0  0  0  0  0  0  0  0  0  0  0
   -4.8311   -4.3411   -1.5471 O   0  0  0  0  0  0  0  0  0  0  0  0
   -6.0486   -5.0104   -1.1762 C   0  0  0  0  0  0  0  0  0  0  0  0
   -6.7857   -5.5486   -2.4333 C   0  0  0  0  0  0  0  0  0  0  0  0
   -8.0009   -6.3403   -2.1334 N   0  0  0  0  0  0  0  0  0  0  0  0
   -9.0321   -5.5822   -1.4054 C   0  0  0  0  0  0  0  0  0  0  0  0
   -8.5989   -6.9077   -3.3528 C   0  0  0  0  0  0  0  0  0  0  0  0
  -10.2013   -6.4854   -0.9930 C   0  0  0  0  0  0  0  0  0  0  0  0
   -9.6297   -7.9627   -2.9401 C   0  0  0  0  0  0  0  0  0  0  0  0
  -10.7583   -7.3188   -2.1427 C   0  0  0  0  0  0  0  0  0  0  0  0
    1.5522    2.6017    2.2352 H   0  0  0  0  0  0  0  0  0  0  0  0
    0.3455    2.9934    0.1032 H   0  0  0  0  0  0  0  0  0  0  0  0
   -0.0007   -1.3939    2.4458 H   0  0  0  0  0  0  0  0  0  0  0  0
   -1.4096    1.6370   -1.7318 H   0  0  0  0  0  0  0  0  0  0  0  0
    2.2124   -1.7094    3.5754 H   0  0  0  0  0  0  0  0  0  0  0  0
    3.1234    1.0286    6.3953 H   0  0  0  0  0  0  0  0  0  0  0  0
   -1.5242   -2.6165    2.1452 H   0  0  0  0  0  0  0  0  0  0  0  0
   -3.4230   -2.2242   -1.7140 H   0  0  0  0  0  0  0  0  0  0  0  0
   -2.8598   -4.5705    2.6047 H   0  0  0  0  0  0  0  0  0  0  0  0
   -4.4708   -5.4204    0.9771 H   0  0  0  0  0  0  0  0  0  0  0  0
   -5.8484   -5.8616   -0.5163 H   0  0  0  0  0  0  0  0  0  0  0  0
   -6.6780   -4.2803   -0.6620 H   0  0  0  0  0  0  0  0  0  0  0  0
   -7.0070   -4.7212   -3.1147 H   0  0  0  0  0  0  0  0  0  0  0  0
   -6.0739   -6.1970   -2.9683 H   0  0  0  0  0  0  0  0  0  0  0  0
   -9.4014   -4.7488   -2.0167 H   0  0  0  0  0  0  0  0  0  0  0  0
   -8.6237   -5.1565   -0.4853 H   0  0  0  0  0  0  0  0  0  0  0  0
   -7.8459   -7.3822   -3.9898 H   0  0  0  0  0  0  0  0  0  0  0  0
   -9.0872   -6.1261   -3.9555 H   0  0  0  0  0  0  0  0  0  0  0  0
  -11.0016   -5.8772   -0.5588 H   0  0  0  0  0  0  0  0  0  0  0  0
   -9.8594   -7.1679   -0.1991 H   0  0  0  0  0  0  0  0  0  0  0  0
   -9.1408   -8.7318   -2.3270 H   0  0  0  0  0  0  0  0  0  0  0  0
  -10.0365   -8.4711   -3.8213 H   0  0  0  0  0  0  0  0  0  0  0  0
  -11.4345   -8.0905   -1.7547 H   0  0  0  0  0  0  0  0  0  0  0  0
  -11.3539   -6.6789   -2.8051 H   0  0  0  0  0  0  0  0  0  0  0  0
  1  3  2  0  0  0  0
  1 30  1  0  0  0  0
  2  1  1  0  0  0  0
  2 31  1  0  0  0  0
  3  6  1  0  0  0  0
  3  5  1  0  0  0  0
  4  2  2  0  0  0  0
  5 10  2  0  0  0  0
  6  7  2  0  0  0  0
  6 32  1  0  0  0  0
  7  4  1  0  0  0  0
  7 11  1  0  0  0  0
  8  4  1  0  0  0  0
  8 33  1  0  0  0  0
  9  5  1  0  0  0  0
  9 34  1  0  0  0  0
 10 14  1  0  0  0  0
 11 12  2  0  0  0  0
 11 15  1  0  0  0  0
 12  8  1  0  0  0  0
 13  9  1  0  0  0  0
 14 13  2  0  0  0  0
 14 35  1  0  0  0  0
 15 16  2  0  0  0  0
 16 18  1  0  0  0  0
 16 36  1  0  0  0  0
 17 15  1  0  0  0  0
 17 37  1  0  0  0  0
 18 20  2  0  0  0  0
 18 38  1  0  0  0  0
 19 17  2  0  0  0  0
 19 21  1  0  0  0  0
 20 19  1  0  0  0  0
 20 39  1  0  0  0  0
 21 22  1  0  0  0  0
 22 23  1  0  0  0  0
 22 40  1  0  0  0  0
 22 41  1  0  0  0  0
 23 24  1  0  0  0  0
 23 42  1  0  0  0  0
 23 43  1  0  0  0  0
 24 26  1  0  0  0  0
 25 24  1  0  0  0  0
 25 44  1  0  0  0  0
 25 45  1  0  0  0  0
 26 28  1  0  0  0  0
 26 46  1  0  0  0  0
 26 47  1  0  0  0  0
 27 25  1  0  0  0  0
 27 48  1  0  0  0  0
 27 49  1  0  0  0  0
 28 29  1  0  0  0  0
 28 50  1  0  0  0  0
 28 51  1  0  0  0  0
 29 27  1  0  0  0  0
 29 52  1  0  0  0  0
 29 53  1  0  0  0  0
M  END
>  <Mol_ID>
4778

>  <Formula>
C22H25ClN6O

>  <MolWeight>
424.9265

>  <Cat>
S6730

>  <Name>
CC-401 Hydrochloride

>  <Synonyms>
N/A

>  <Target>
JNK

>  <Form>
Hydrochloride

>  <CAS>
1438391-30-0

>  <URL>
http://www.selleck.cn/products/cc-401-hydrochloride.html

$$$$
