CC-885
 OpenBabel08302521313D

 52 55  0  0  0  0  0  0  0  0999 V2000
   -0.5462    0.3751   -0.8267 C   0  0  0  0  0  0  0  0  0  0  0  0
    0.7801    0.0546   -0.6354 N   0  0  0  0  0  0  0  0  0  0  0  0
    1.6552    0.6354    0.2453 C   0  0  0  0  0  0  0  0  0  0  0  0
    1.0649    1.5341    1.3063 C   0  0  0  0  0  0  0  0  0  0  0  0
   -0.2002    2.2227    0.8234 C   0  0  0  0  0  0  0  0  0  0  0  0
   -1.1955    1.1910    0.3018 C   0  0  3  0  0  0  0  0  0  0  0  0
   -1.1300    0.0038   -1.8415 O   0  0  0  0  0  0  0  0  0  0  0  0
   -2.4424    1.8211   -0.1138 N   0  0  0  0  0  0  0  0  0  0  0  0
    2.8595    0.4042    0.1814 O   0  0  0  0  0  0  0  0  0  0  0  0
   -3.6910    1.4102    0.3232 C   0  0  0  0  0  0  0  0  0  0  0  0
   -4.6783    2.1989   -0.4226 C   0  0  0  0  0  0  0  0  0  0  0  0
   -3.9880    3.0422   -1.2923 C   0  0  0  0  0  0  0  0  0  0  0  0
   -2.5209    2.8139   -1.1754 C   0  0  0  0  0  0  0  0  0  0  0  0
   -6.0563    2.1898   -0.3298 C   0  0  0  0  0  0  0  0  0  0  0  0
   -6.7564    3.0831   -1.1399 C   0  0  0  0  0  0  0  0  0  0  0  0
   -6.0721    3.9677   -2.0082 C   0  0  0  0  0  0  0  0  0  0  0  0
   -4.6722    3.9313   -2.0958 C   0  0  0  0  0  0  0  0  0  0  0  0
   -6.8396    4.9578   -2.8328 C   0  0  0  0  0  0  0  0  0  0  0  0
   -7.2389    4.4121   -4.1080 N   0  0  0  0  0  0  0  0  0  0  0  0
   -7.9091    5.2682   -4.9501 C   0  0  0  0  0  0  0  0  0  0  0  0
   -8.2116    4.6860   -6.1618 N   0  0  0  0  0  0  0  0  0  0  0  0
   -8.2086    6.4009   -4.5894 O   0  0  0  0  0  0  0  0  0  0  0  0
   -3.9523    0.5811    1.1732 O   0  0  0  0  0  0  0  0  0  0  0  0
   -8.9389    5.3360   -7.1846 C   0  0  0  0  0  0  0  0  0  0  0  0
   -9.0326    6.7272   -7.2646 C   0  0  0  0  0  0  0  0  0  0  0  0
   -9.8950    7.3345   -8.1755 C   0  0  0  0  0  0  0  0  0  0  0  0
  -10.6583    6.5579   -9.0466 C   0  0  0  0  0  0  0  0  0  0  0  0
  -10.4916    5.1673   -9.0386 C   0  0  0  0  0  0  0  0  0  0  0  0
   -9.6278    4.5585   -8.1188 C   0  0  0  0  0  0  0  0  0  0  0  0
  -11.6704    7.2059   -9.9422 C   0  0  0  0  0  0  0  0  0  0  0  0
    1.2043   -0.4984   -1.3675 H   0  0  0  0  0  0  0  0  0  0  0  0
    1.8083    2.2967    1.5639 H   0  0  0  0  0  0  0  0  0  0  0  0
    0.8689    0.9307    2.1988 H   0  0  0  0  0  0  0  0  0  0  0  0
    0.0591    2.9371    0.0318 H   0  0  0  0  0  0  0  0  0  0  0  0
   -0.6454    2.7990    1.6432 H   0  0  0  0  0  0  0  0  0  0  0  0
   -1.4293    0.4734    1.0985 H   0  0  0  0  0  0  0  0  0  0  0  0
   -1.9986    3.7223   -0.8645 H   0  0  0  0  0  0  0  0  0  0  0  0
   -2.1079    2.4135   -2.1044 H   0  0  0  0  0  0  0  0  0  0  0  0
   -6.5667    1.5214    0.3561 H   0  0  0  0  0  0  0  0  0  0  0  0
   -7.8442    3.1091   -1.0883 H   0  0  0  0  0  0  0  0  0  0  0  0
   -4.1347    4.6028   -2.7632 H   0  0  0  0  0  0  0  0  0  0  0  0
   -7.7345    5.2934   -2.2941 H   0  0  0  0  0  0  0  0  0  0  0  0
   -6.2281    5.8531   -3.0078 H   0  0  0  0  0  0  0  0  0  0  0  0
   -6.6288    3.7348   -4.5402 H   0  0  0  0  0  0  0  0  0  0  0  0
   -8.2041    3.6768   -6.1740 H   0  0  0  0  0  0  0  0  0  0  0  0
   -8.4612    7.3734   -6.6054 H   0  0  0  0  0  0  0  0  0  0  0  0
   -9.9828    8.4180   -8.1681 H   0  0  0  0  0  0  0  0  0  0  0  0
  -11.0626    4.5469   -9.7258 H   0  0  0  0  0  0  0  0  0  0  0  0
   -9.5502    3.4749   -8.1126 H   0  0  0  0  0  0  0  0  0  0  0  0
  -11.4637    6.9720  -10.9895 H   0  0  0  0  0  0  0  0  0  0  0  0
  -12.6749    6.8579   -9.6793 H   0  0  0  0  0  0  0  0  0  0  0  0
  -11.6601    8.2960   -9.8300 H   0  0  0  0  0  0  0  0  0  0  0  0
  1  2  1  0  0  0  0
  1  7  2  0  0  0  0
  2  3  1  0  0  0  0
  2 31  1  0  0  0  0
  3  4  1  0  0  0  0
  3  9  2  0  0  0  0
  4  5  1  0  0  0  0
  4 32  1  0  0  0  0
  4 33  1  0  0  0  0
  5  6  1  0  0  0  0
  5 34  1  0  0  0  0
  5 35  1  0  0  0  0
  6  1  1  0  0  0  0
  6  8  1  0  0  0  0
  6 36  1  0  0  0  0
  8 10  1  0  0  0  0
 10 11  1  0  0  0  0
 10 23  2  0  0  0  0
 11 12  2  0  0  0  0
 11 14  1  0  0  0  0
 12 13  1  0  0  0  0
 13  8  1  0  0  0  0
 13 37  1  0  0  0  0
 13 38  1  0  0  0  0
 14 15  2  0  0  0  0
 14 39  1  0  0  0  0
 15 16  1  0  0  0  0
 15 40  1  0  0  0  0
 16 17  2  0  0  0  0
 16 18  1  0  0  0  0
 17 12  1  0  0  0  0
 17 41  1  0  0  0  0
 18 19  1  0  0  0  0
 18 42  1  0  0  0  0
 18 43  1  0  0  0  0
 19 20  1  0  0  0  0
 19 44  1  0  0  0  0
 20 21  1  0  0  0  0
 20 22  2  0  0  0  0
 21 24  1  0  0  0  0
 21 45  1  0  0  0  0
 24 25  2  0  0  0  0
 25 26  1  0  0  0  0
 25 46  1  0  0  0  0
 26 27  2  0  0  0  0
 26 47  1  0  0  0  0
 27 28  1  0  0  0  0
 27 30  1  0  0  0  0
 28 29  2  0  0  0  0
 28 48  1  0  0  0  0
 29 24  1  0  0  0  0
 29 49  1  0  0  0  0
 30 50  1  0  0  0  0
 30 51  1  0  0  0  0
 30 52  1  0  0  0  0
M  END
>  <Mol_ID>
5921

>  <Formula>
C22H21ClN4O4

>  <MolWeight>
440.87954

>  <Cat>
S8300

>  <Name>
CC-885

>  <Synonyms>
N/A

>  <Target>
E3 Ligase

>  <Form>
Free Base

>  <CAS>
1010100-07-8

>  <URL>
http://www.selleckchem.com/products/cc-885.html

$$$$
