CC-930.cdx
 OpenBabel08302520433D

 55 59  0  0  0  0  0  0  0  0999 V2000
   -3.5156   -1.1409   -3.9889 C   0  0  0  0  0  0  0  0  0  0  0  0
   -3.8528   -1.2093   -2.6739 N   0  0  0  0  0  0  0  0  0  0  0  0
   -4.9359   -1.9240   -2.3092 C   0  0  0  0  0  0  0  0  0  0  0  0
   -5.7268   -2.6274   -3.1436 N   0  0  0  0  0  0  0  0  0  0  0  0
   -5.3542   -2.5271   -4.4300 C   0  0  0  0  0  0  0  0  0  0  0  0
   -4.2875   -1.8113   -4.9258 C   0  0  0  0  0  0  0  0  0  0  0  0
   -5.9629   -3.0927   -5.5319 N   0  0  0  0  0  0  0  0  0  0  0  0
   -5.2813   -2.6318   -6.6447 C   0  0  0  0  0  0  0  0  0  0  0  0
   -4.2336   -1.9115   -6.2856 N   0  0  0  0  0  0  0  0  0  0  0  0
   -5.1955   -1.9267   -0.9433 N   0  0  0  0  0  0  0  0  0  0  0  0
   -7.1475   -3.8989   -5.4151 C   0  0  1  0  0  0  0  0  0  0  0  0
   -5.6762   -2.8856   -7.9161 N   0  0  0  0  0  0  0  0  0  0  0  0
   -5.2579   -2.0935   -9.0201 C   0  0  0  0  0  0  0  0  0  0  0  0
   -4.9025   -2.7023  -10.2364 C   0  0  0  0  0  0  0  0  0  0  0  0
   -4.4313   -1.9670  -11.3201 C   0  0  0  0  0  0  0  0  0  0  0  0
   -4.3075   -0.5893  -11.2004 C   0  0  0  0  0  0  0  0  0  0  0  0
   -4.6545    0.0586  -10.0236 C   0  0  0  0  0  0  0  0  0  0  0  0
   -5.1235   -0.6931   -8.9479 C   0  0  0  0  0  0  0  0  0  0  0  0
   -5.5086   -0.0247   -7.8492 F   0  0  0  0  0  0  0  0  0  0  0  0
   -3.8618    0.1268  -12.2375 F   0  0  0  0  0  0  0  0  0  0  0  0
   -5.0130   -4.0338  -10.3577 F   0  0  0  0  0  0  0  0  0  0  0  0
   -8.3411   -3.6079   -6.3026 C   0  0  0  0  0  0  0  0  0  0  0  0
   -9.2074   -4.8143   -5.9916 C   0  0  0  0  0  0  0  0  0  0  0  0
   -8.3077   -5.9171   -5.7815 O   0  0  0  0  0  0  0  0  0  0  0  0
   -6.9721   -5.3899   -5.6400 C   0  0  0  0  0  0  0  0  0  0  0  0
   -5.8212   -3.1249   -0.4074 C   0  0  1  0  0  0  0  0  0  0  0  0
   -4.8726   -4.3287   -0.4837 C   0  0  0  0  0  0  0  0  0  0  0  0
   -5.5741   -5.5791    0.0293 C   0  0  0  0  0  0  0  0  0  0  0  0
   -6.0412   -5.3944    1.4708 C   0  0  1  0  0  0  0  0  0  0  0  0
   -6.8961   -4.1374    1.6443 C   0  0  0  0  0  0  0  0  0  0  0  0
   -6.2282   -2.8914    1.0589 C   0  0  0  0  0  0  0  0  0  0  0  0
   -6.7829   -6.5384    1.8770 O   0  0  0  0  0  0  0  0  0  0  0  0
   -2.6531   -0.5436   -4.2505 H   0  0  0  0  0  0  0  0  0  0  0  0
   -4.3502   -1.6049   -0.4852 H   0  0  0  0  0  0  0  0  0  0  0  0
   -7.5113   -3.7747   -4.3851 H   0  0  0  0  0  0  0  0  0  0  0  0
   -5.9799   -3.8156   -8.1887 H   0  0  0  0  0  0  0  0  0  0  0  0
   -4.1577   -2.4591  -12.2454 H   0  0  0  0  0  0  0  0  0  0  0  0
   -4.5694    1.1356   -9.9384 H   0  0  0  0  0  0  0  0  0  0  0  0
   -8.0794   -3.6234   -7.3661 H   0  0  0  0  0  0  0  0  0  0  0  0
   -8.8336   -2.6567   -6.0841 H   0  0  0  0  0  0  0  0  0  0  0  0
   -9.7803   -4.6638   -5.0662 H   0  0  0  0  0  0  0  0  0  0  0  0
   -9.9059   -5.0589   -6.7976 H   0  0  0  0  0  0  0  0  0  0  0  0
   -6.4320   -5.6183   -6.5650 H   0  0  0  0  0  0  0  0  0  0  0  0
   -6.4643   -5.8935   -4.8100 H   0  0  0  0  0  0  0  0  0  0  0  0
   -6.7409   -3.3436   -0.9652 H   0  0  0  0  0  0  0  0  0  0  0  0
   -3.9685   -4.1372    0.1109 H   0  0  0  0  0  0  0  0  0  0  0  0
   -4.5347   -4.5080   -1.5104 H   0  0  0  0  0  0  0  0  0  0  0  0
   -4.9080   -6.4463   -0.0416 H   0  0  0  0  0  0  0  0  0  0  0  0
   -6.4326   -5.8097   -0.6163 H   0  0  0  0  0  0  0  0  0  0  0  0
   -5.1649   -5.3273    2.1270 H   0  0  0  0  0  0  0  0  0  0  0  0
   -7.8749   -4.2885    1.1662 H   0  0  0  0  0  0  0  0  0  0  0  0
   -7.1107   -3.9844    2.7092 H   0  0  0  0  0  0  0  0  0  0  0  0
   -5.3459   -2.6330    1.6601 H   0  0  0  0  0  0  0  0  0  0  0  0
   -6.9144   -2.0401    1.1316 H   0  0  0  0  0  0  0  0  0  0  0  0
   -7.5098   -6.6705    1.2441 H   0  0  0  0  0  0  0  0  0  0  0  0
  1  2  2  0  0  0  0
  1 33  1  0  0  0  0
  2  3  1  0  0  0  0
  3  4  2  0  0  0  0
  3 10  1  0  0  0  0
  4  5  1  0  0  0  0
  5  6  2  0  0  0  0
  5  7  1  0  0  0  0
  6  1  1  0  0  0  0
  7  8  1  0  0  0  0
  8  9  2  0  0  0  0
  8 12  1  0  0  0  0
  9  6  1  0  0  0  0
 10 34  1  0  0  0  0
 11  7  1  0  0  0  0
 11 22  1  0  0  0  0
 11 35  1  1  0  0  0
 12 13  1  0  0  0  0
 12 36  1  0  0  0  0
 13 14  2  0  0  0  0
 14 15  1  0  0  0  0
 14 21  1  0  0  0  0
 15 16  2  0  0  0  0
 15 37  1  0  0  0  0
 16 17  1  0  0  0  0
 16 20  1  0  0  0  0
 17 18  2  0  0  0  0
 17 38  1  0  0  0  0
 18 13  1  0  0  0  0
 18 19  1  0  0  0  0
 22 23  1  0  0  0  0
 22 39  1  0  0  0  0
 22 40  1  0  0  0  0
 23 24  1  0  0  0  0
 23 41  1  0  0  0  0
 23 42  1  0  0  0  0
 24 25  1  0  0  0  0
 25 11  1  0  0  0  0
 25 43  1  0  0  0  0
 25 44  1  0  0  0  0
 26 27  1  0  0  0  0
 26 45  1  6  0  0  0
 26 10  1  0  0  0  0
 27 28  1  0  0  0  0
 27 46  1  0  0  0  0
 27 47  1  0  0  0  0
 28 29  1  0  0  0  0
 28 48  1  0  0  0  0
 28 49  1  0  0  0  0
 29 30  1  0  0  0  0
 29 32  1  0  0  0  0
 29 50  1  1  0  0  0
 30 31  1  0  0  0  0
 30 51  1  0  0  0  0
 30 52  1  0  0  0  0
 31 26  1  0  0  0  0
 31 53  1  0  0  0  0
 31 54  1  0  0  0  0
 32 55  1  0  0  0  0
M  END
>  <Mol_ID>
4118

>  <Formula>
C21H24ClF3N6O2

>  <MolWeight>
484.9024696

>  <Cat>
S8490

>  <Name>
Tanzisertib(CC-930)

>  <Synonyms>
JNK-930, JNKI-1

>  <Target>
JNK

>  <Form>
hydrochloride

>  <CAS>
899805-25-5(freebase)

>  <URL>
http://selleckchem.com/products/cc-930.html

$$$$
