CCG215022
 OpenBabel08302521353D

 59 63  0  0  0  0  0  0  0  0999 V2000
   -1.9140    3.2333   -5.8162 N   0  0  0  0  0  0  0  0  0  0  0  0
   -2.6084    4.1856   -6.4824 C   0  0  0  0  0  0  0  0  0  0  0  0
   -3.3861    3.9360   -7.6008 C   0  0  0  0  0  0  0  0  0  0  0  0
   -3.4547    2.6314   -8.0721 C   0  0  0  0  0  0  0  0  0  0  0  0
   -2.7493    1.6293   -7.4117 C   0  0  0  0  0  0  0  0  0  0  0  0
   -1.9901    1.9605   -6.2915 C   0  0  0  0  0  0  0  0  0  0  0  0
   -1.2407    0.8787   -5.5423 C   0  0  0  0  0  0  0  0  0  0  0  0
   -1.9889    0.3655   -4.4030 N   0  0  0  0  0  0  0  0  0  0  0  0
   -2.8941   -0.6773   -4.4655 C   0  0  0  0  0  0  0  0  0  0  0  0
   -3.1366   -1.3002   -5.4925 O   0  0  0  0  0  0  0  0  0  0  0  0
   -3.6347   -0.9912   -3.1934 C   0  0  0  0  0  0  0  0  0  0  0  0
   -3.0050   -0.8425   -1.9647 C   0  0  0  0  0  0  0  0  0  0  0  0
   -3.7160   -1.0048   -0.7747 C   0  0  0  0  0  0  0  0  0  0  0  0
   -5.0855   -1.3088   -0.7895 C   0  0  0  0  0  0  0  0  0  0  0  0
   -5.7667   -1.4906   -2.0013 C   0  0  0  0  0  0  0  0  0  0  0  0
   -5.0052   -1.3549   -3.2116 C   0  0  0  0  0  0  0  0  0  0  0  0
   -1.7114   -0.4917   -1.8849 F   0  0  0  0  0  0  0  0  0  0  0  0
   -7.3102   -1.3949   -2.0617 C   0  0  3  0  0  0  0  0  0  0  0  0
   -8.2448   -2.0066   -0.9623 C   0  0  0  0  0  0  0  0  0  0  0  0
   -9.1740   -1.2047   -0.3647 C   0  0  0  0  0  0  0  0  0  0  0  0
   -9.1939    0.1449   -0.6449 N   0  0  0  0  0  0  0  0  0  0  0  0
   -8.4043    0.8091   -1.5102 C   0  0  0  0  0  0  0  0  0  0  0  0
   -7.5080    0.0580   -2.1776 N   0  0  0  0  0  0  0  0  0  0  0  0
   -8.3075   -4.1703   -1.9558 O   0  0  0  0  0  0  0  0  0  0  0  0
   -8.3999   -3.5391   -0.9045 C   0  0  0  0  0  0  0  0  0  0  0  0
   -8.6111   -4.1359    0.3451 N   0  0  0  0  0  0  0  0  0  0  0  0
   -9.1384   -5.4495    0.6534 C   0  0  0  0  0  0  0  0  0  0  0  0
   -9.7894   -6.2815   -0.2722 C   0  0  0  0  0  0  0  0  0  0  0  0
  -10.4480   -7.4839    0.1184 C   0  0  0  0  0  0  0  0  0  0  0  0
  -10.4077   -7.8532    1.4677 C   0  0  0  0  0  0  0  0  0  0  0  0
   -9.7155   -7.1044    2.4075 C   0  0  0  0  0  0  0  0  0  0  0  0
   -9.0896   -5.8913    1.9963 C   0  0  0  0  0  0  0  0  0  0  0  0
  -10.9637   -8.9044    2.1616 N   0  0  0  0  0  0  0  0  0  0  0  0
  -10.6217   -8.9384    3.4632 N   0  0  0  0  0  0  0  0  0  0  0  0
   -9.8549   -7.8511    3.6081 C   0  0  0  0  0  0  0  0  0  0  0  0
   -8.4882    2.0148   -1.6799 O   0  0  0  0  0  0  0  0  0  0  0  0
  -10.3316   -1.5668    0.5298 C   0  0  0  0  0  0  0  0  0  0  0  0
   -2.5242    5.1912   -6.0789 H   0  0  0  0  0  0  0  0  0  0  0  0
   -3.9290    4.7372   -8.0901 H   0  0  0  0  0  0  0  0  0  0  0  0
   -4.0575    2.3906   -8.9430 H   0  0  0  0  0  0  0  0  0  0  0  0
   -2.7973    0.6013   -7.7588 H   0  0  0  0  0  0  0  0  0  0  0  0
   -0.9609    0.0610   -6.2155 H   0  0  0  0  0  0  0  0  0  0  0  0
   -0.3111    1.3089   -5.1478 H   0  0  0  0  0  0  0  0  0  0  0  0
   -1.9219    0.9165   -3.5577 H   0  0  0  0  0  0  0  0  0  0  0  0
   -3.2035   -0.8246    0.1661 H   0  0  0  0  0  0  0  0  0  0  0  0
   -5.6292   -1.3024    0.1512 H   0  0  0  0  0  0  0  0  0  0  0  0
   -5.5018   -1.4250   -4.1806 H   0  0  0  0  0  0  0  0  0  0  0  0
   -7.6380   -1.7987   -3.0277 H   0  0  0  0  0  0  0  0  0  0  0  0
   -9.9051    0.7399   -0.2306 H   0  0  0  0  0  0  0  0  0  0  0  0
   -6.8784    0.6030   -2.7541 H   0  0  0  0  0  0  0  0  0  0  0  0
   -8.4309   -3.5616    1.1587 H   0  0  0  0  0  0  0  0  0  0  0  0
   -9.8465   -6.0087   -1.3190 H   0  0  0  0  0  0  0  0  0  0  0  0
  -10.9763   -8.0939   -0.6095 H   0  0  0  0  0  0  0  0  0  0  0  0
   -8.5658   -5.3187    2.7560 H   0  0  0  0  0  0  0  0  0  0  0  0
  -11.5858   -9.6297    1.8170 H   0  0  0  0  0  0  0  0  0  0  0  0
   -9.4372   -7.6514    4.5872 H   0  0  0  0  0  0  0  0  0  0  0  0
  -10.2198   -1.0565    1.4961 H   0  0  0  0  0  0  0  0  0  0  0  0
  -11.2723   -1.2223    0.0825 H   0  0  0  0  0  0  0  0  0  0  0  0
  -10.4530   -2.6263    0.7101 H   0  0  0  0  0  0  0  0  0  0  0  0
  1  2  2  0  0  0  0
  2  3  1  0  0  0  0
  2 38  1  0  0  0  0
  3  4  2  0  0  0  0
  3 39  1  0  0  0  0
  4  5  1  0  0  0  0
  4 40  1  0  0  0  0
  5  6  2  0  0  0  0
  5 41  1  0  0  0  0
  6  1  1  0  0  0  0
  6  7  1  0  0  0  0
  7  8  1  0  0  0  0
  7 42  1  0  0  0  0
  7 43  1  0  0  0  0
  8  9  1  0  0  0  0
  8 44  1  0  0  0  0
  9 10  2  0  0  0  0
  9 11  1  0  0  0  0
 11 12  2  0  0  0  0
 12 13  1  0  0  0  0
 12 17  1  0  0  0  0
 13 14  2  0  0  0  0
 13 45  1  0  0  0  0
 14 15  1  0  0  0  0
 14 46  1  0  0  0  0
 15 16  2  0  0  0  0
 15 18  1  0  0  0  0
 16 11  1  0  0  0  0
 16 47  1  0  0  0  0
 18 19  1  0  0  0  0
 18 48  1  0  0  0  0
 19 20  2  0  0  0  0
 20 21  1  0  0  0  0
 20 37  1  0  0  0  0
 21 22  1  0  0  0  0
 21 49  1  0  0  0  0
 22 23  1  0  0  0  0
 22 36  2  0  0  0  0
 23 18  1  0  0  0  0
 23 50  1  0  0  0  0
 24 25  2  0  0  0  0
 25 19  1  0  0  0  0
 25 26  1  0  0  0  0
 26 27  1  0  0  0  0
 26 51  1  0  0  0  0
 27 28  2  0  0  0  0
 28 29  1  0  0  0  0
 28 52  1  0  0  0  0
 29 30  2  0  0  0  0
 29 53  1  0  0  0  0
 30 31  1  0  0  0  0
 30 33  1  0  0  0  0
 31 32  2  0  0  0  0
 32 27  1  0  0  0  0
 32 54  1  0  0  0  0
 33 34  1  0  0  0  0
 33 55  1  0  0  0  0
 34 35  2  0  0  0  0
 35 31  1  0  0  0  0
 35 56  1  0  0  0  0
 37 57  1  0  0  0  0
 37 58  1  0  0  0  0
 37 59  1  0  0  0  0
M  END
>  <Mol_ID>
6692

>  <Formula>
C26H22FN7O3

>  <MolWeight>
499.4963832

>  <Cat>
S6621

>  <Name>
CCG215022

>  <Synonyms>
N/A

>  <Target>
GRK

>  <Form>
Free base

>  <CAS>
1813527-81-9

>  <URL>
http://www.selleckchem.com/products/ccg215022.html

$$$$
