CCG 50014.cdx
 OpenBabel08302522003D

 35 37  0  0  0  0  0  0  0  0999 V2000
    0.6903    0.8364   -0.3350 C   0  0  0  0  0  0  0  0  0  0  0  0
   -0.2352    1.7823   -0.7596 C   0  0  0  0  0  0  0  0  0  0  0  0
   -1.6015    1.4989   -0.6804 C   0  0  0  0  0  0  0  0  0  0  0  0
   -2.0437    0.2703   -0.1630 C   0  0  0  0  0  0  0  0  0  0  0  0
   -1.0874   -0.6763    0.2464 C   0  0  0  0  0  0  0  0  0  0  0  0
    0.2773   -0.3924    0.1617 C   0  0  0  0  0  0  0  0  0  0  0  0
    1.9987    1.1141   -0.4059 F   0  0  0  0  0  0  0  0  0  0  0  0
   -3.5263   -0.0347   -0.0577 C   0  0  0  0  0  0  0  0  0  0  0  0
   -4.0415   -0.6762   -1.2480 N   0  0  0  0  0  0  0  0  0  0  0  0
   -3.9476   -2.0464   -1.4262 C   0  0  0  0  0  0  0  0  0  0  0  0
   -4.4354   -2.4230   -2.6911 N   0  0  0  0  0  0  0  0  0  0  0  0
   -5.0128   -1.0719   -3.5641 S   0  0  0  0  0  0  0  0  0  0  0  0
   -4.6568    0.0246   -2.2408 C   0  0  0  0  0  0  0  0  0  0  0  0
   -3.4640   -2.7846   -0.5716 O   0  0  0  0  0  0  0  0  0  0  0  0
   -4.9546    1.2080   -2.2484 O   0  0  0  0  0  0  0  0  0  0  0  0
   -4.3557   -3.7353   -3.2403 C   0  0  0  0  0  0  0  0  0  0  0  0
   -4.1757   -4.8523   -2.4117 C   0  0  0  0  0  0  0  0  0  0  0  0
   -3.9815   -6.1326   -2.9378 C   0  0  0  0  0  0  0  0  0  0  0  0
   -3.9691   -6.3351   -4.3162 C   0  0  0  0  0  0  0  0  0  0  0  0
   -4.2013   -5.2435   -5.1570 C   0  0  0  0  0  0  0  0  0  0  0  0
   -4.4084   -3.9627   -4.6251 C   0  0  0  0  0  0  0  0  0  0  0  0
   -3.6714   -7.6883   -4.8886 C   0  0  0  0  0  0  0  0  0  0  0  0
    0.1137    2.7353   -1.1451 H   0  0  0  0  0  0  0  0  0  0  0  0
   -2.3187    2.2464   -1.0166 H   0  0  0  0  0  0  0  0  0  0  0  0
   -1.4002   -1.6446    0.6357 H   0  0  0  0  0  0  0  0  0  0  0  0
    1.0170   -1.1198    0.4816 H   0  0  0  0  0  0  0  0  0  0  0  0
   -3.7010   -0.6836    0.8088 H   0  0  0  0  0  0  0  0  0  0  0  0
   -4.0754    0.8949    0.1315 H   0  0  0  0  0  0  0  0  0  0  0  0
   -4.1914   -4.7663   -1.3291 H   0  0  0  0  0  0  0  0  0  0  0  0
   -3.8266   -6.9638   -2.2535 H   0  0  0  0  0  0  0  0  0  0  0  0
   -4.1945   -5.3749   -6.2370 H   0  0  0  0  0  0  0  0  0  0  0  0
   -4.5488   -3.1475   -5.3301 H   0  0  0  0  0  0  0  0  0  0  0  0
   -4.4666   -7.9980   -5.5737 H   0  0  0  0  0  0  0  0  0  0  0  0
   -2.7175   -7.6647   -5.4261 H   0  0  0  0  0  0  0  0  0  0  0  0
   -3.5925   -8.4460   -4.1014 H   0  0  0  0  0  0  0  0  0  0  0  0
  1  2  2  0  0  0  0
  1  7  1  0  0  0  0
  2  3  1  0  0  0  0
  2 23  1  0  0  0  0
  3  4  2  0  0  0  0
  3 24  1  0  0  0  0
  4  5  1  0  0  0  0
  4  8  1  0  0  0  0
  5  6  2  0  0  0  0
  5 25  1  0  0  0  0
  6  1  1  0  0  0  0
  6 26  1  0  0  0  0
  8  9  1  0  0  0  0
  8 27  1  0  0  0  0
  8 28  1  0  0  0  0
  9 10  1  0  0  0  0
 10 11  1  0  0  0  0
 10 14  2  0  0  0  0
 11 12  1  0  0  0  0
 11 16  1  0  0  0  0
 12 13  1  0  0  0  0
 13  9  1  0  0  0  0
 13 15  2  0  0  0  0
 16 17  2  0  0  0  0
 17 18  1  0  0  0  0
 17 29  1  0  0  0  0
 18 19  2  0  0  0  0
 18 30  1  0  0  0  0
 19 20  1  0  0  0  0
 19 22  1  0  0  0  0
 20 21  2  0  0  0  0
 20 31  1  0  0  0  0
 21 16  1  0  0  0  0
 21 32  1  0  0  0  0
 22 33  1  0  0  0  0
 22 34  1  0  0  0  0
 22 35  1  0  0  0  0
M  END
>  <Mol_ID>
1073

>  <Formula>
C16H13FN2O2S

>  <MolWeight>
316.3500232

>  <Cat>
S2901

>  <Name>
CCG 50014

>  <Synonyms>
N/A

>  <Target>
RGS

>  <Form>
free base

>  <CAS>
883050-24-6

>  <URL>
http://selleckchem.com/products/ccg-50014.html

$$$$
