CCT128930.cdx
 OpenBabel08302521413D

 44 47  0  0  0  0  0  0  0  0999 V2000
   -1.2249    0.5718    1.1908 N   0  0  0  0  0  0  0  0  0  0  0  0
   -0.8170   -0.7073    1.2491 C   0  0  0  0  0  0  0  0  0  0  0  0
   -0.2662   -1.4330    0.2736 N   0  0  0  0  0  0  0  0  0  0  0  0
   -0.1785   -0.7355   -0.8608 C   0  0  0  0  0  0  0  0  0  0  0  0
   -0.5779    0.5837   -1.0823 C   0  0  0  0  0  0  0  0  0  0  0  0
   -1.1240    1.2882    0.0274 C   0  0  0  0  0  0  0  0  0  0  0  0
    0.3225   -1.2539   -2.0200 N   0  0  0  0  0  0  0  0  0  0  0  0
    0.2406   -0.3190   -3.0176 C   0  0  0  0  0  0  0  0  0  0  0  0
   -0.3306    0.8158   -2.4725 C   0  0  0  0  0  0  0  0  0  0  0  0
   -1.6439    2.6040    0.0186 N   0  0  0  0  0  0  0  0  0  0  0  0
   -2.1919    3.0040    1.3289 C   0  0  0  0  0  0  0  0  0  0  0  0
   -3.0741    4.2388    1.1703 C   0  0  0  0  0  0  0  0  0  0  0  0
   -2.3292    5.4265    0.5325 C   0  0  0  0  0  0  0  0  0  0  0  0
   -1.6278    4.9388   -0.7611 C   0  0  0  0  0  0  0  0  0  0  0  0
   -0.8168    3.6412   -0.6034 C   0  0  0  0  0  0  0  0  0  0  0  0
   -3.3423    6.4322    0.1319 N   0  0  0  0  0  0  0  0  0  0  0  0
   -1.3099    6.1070    1.5144 C   0  0  0  0  0  0  0  0  0  0  0  0
   -1.9245    6.7301    2.7605 C   0  0  0  0  0  0  0  0  0  0  0  0
   -2.0248    6.0013    3.9537 C   0  0  0  0  0  0  0  0  0  0  0  0
   -2.7198    6.5217    5.0490 C   0  0  0  0  0  0  0  0  0  0  0  0
   -3.3037    7.7850    4.9746 C   0  0  0  0  0  0  0  0  0  0  0  0
   -3.1639    8.5430    3.8151 C   0  0  0  0  0  0  0  0  0  0  0  0
   -2.4740    8.0224    2.7189 C   0  0  0  0  0  0  0  0  0  0  0  0
   -0.9577   -1.2052    2.2031 H   0  0  0  0  0  0  0  0  0  0  0  0
    0.6738   -2.1958   -2.1043 H   0  0  0  0  0  0  0  0  0  0  0  0
    0.5751   -0.5442   -4.0189 H   0  0  0  0  0  0  0  0  0  0  0  0
   -0.5497    1.7147   -3.0302 H   0  0  0  0  0  0  0  0  0  0  0  0
   -2.8339    2.2206    1.7503 H   0  0  0  0  0  0  0  0  0  0  0  0
   -1.3774    3.1913    2.0404 H   0  0  0  0  0  0  0  0  0  0  0  0
   -3.9294    3.9574    0.5405 H   0  0  0  0  0  0  0  0  0  0  0  0
   -3.4989    4.5062    2.1438 H   0  0  0  0  0  0  0  0  0  0  0  0
   -2.3911    4.7533   -1.5310 H   0  0  0  0  0  0  0  0  0  0  0  0
   -0.9772    5.7265   -1.1625 H   0  0  0  0  0  0  0  0  0  0  0  0
    0.0859    3.8227   -0.0087 H   0  0  0  0  0  0  0  0  0  0  0  0
   -0.4925    3.3548   -1.6065 H   0  0  0  0  0  0  0  0  0  0  0  0
   -2.9092    7.1816   -0.4025 H   0  0  0  0  0  0  0  0  0  0  0  0
   -4.0455    6.0036   -0.4679 H   0  0  0  0  0  0  0  0  0  0  0  0
   -0.5353    5.3936    1.8219 H   0  0  0  0  0  0  0  0  0  0  0  0
   -0.7661    6.9010    0.9812 H   0  0  0  0  0  0  0  0  0  0  0  0
   -1.5953    5.0057    4.0277 H   0  0  0  0  0  0  0  0  0  0  0  0
   -2.8259    5.9305    5.9542 H   0  0  0  0  0  0  0  0  0  0  0  0
   -3.8721    8.1744    5.8149 H   0  0  0  0  0  0  0  0  0  0  0  0
   -3.6180    9.5297    3.7529 H   0  0  0  0  0  0  0  0  0  0  0  0
   -2.4061    8.6171    1.8115 H   0  0  0  0  0  0  0  0  0  0  0  0
  1  2  2  0  0  0  0
  2  3  1  0  0  0  0
  2 24  1  0  0  0  0
  3  4  2  0  0  0  0
  4  5  1  0  0  0  0
  4  7  1  0  0  0  0
  5  6  2  0  0  0  0
  6  1  1  0  0  0  0
  6 10  1  0  0  0  0
  7  8  1  0  0  0  0
  7 25  1  0  0  0  0
  8  9  2  0  0  0  0
  8 26  1  0  0  0  0
  9  5  1  0  0  0  0
  9 27  1  0  0  0  0
 10 11  1  0  0  0  0
 11 12  1  0  0  0  0
 11 28  1  0  0  0  0
 11 29  1  0  0  0  0
 12 13  1  0  0  0  0
 12 30  1  0  0  0  0
 12 31  1  0  0  0  0
 13 14  1  0  0  0  0
 13 16  1  0  0  0  0
 13 17  1  0  0  0  0
 14 15  1  0  0  0  0
 14 32  1  0  0  0  0
 14 33  1  0  0  0  0
 15 10  1  0  0  0  0
 15 34  1  0  0  0  0
 15 35  1  0  0  0  0
 16 36  1  0  0  0  0
 16 37  1  0  0  0  0
 17 18  1  0  0  0  0
 17 38  1  0  0  0  0
 17 39  1  0  0  0  0
 18 19  2  0  0  0  0
 19 20  1  0  0  0  0
 19 40  1  0  0  0  0
 20 21  2  0  0  0  0
 20 41  1  0  0  0  0
 21 22  1  0  0  0  0
 21 42  1  0  0  0  0
 22 23  2  0  0  0  0
 22 43  1  0  0  0  0
 23 18  1  0  0  0  0
 23 44  1  0  0  0  0
M  END
>  <Mol_ID>
826

>  <Formula>
C18H20ClN5

>  <MolWeight>
341.8379

>  <Cat>
S2635

>  <Name>
CCT128930

>  <Synonyms>
N/A

>  <Target>
Akt,Apoptosis related,Autophagy

>  <Form>
free base

>  <CAS>
885499-61-6

>  <URL>
http://selleckchem.com/products/cct128930.html

$$$$
