CCT251545
 OpenBabel08302521343D

 54 58  0  0  0  0  0  0  0  0999 V2000
    0.8340    0.1692   -0.2599 C   0  0  0  0  0  0  0  0  0  0  0  0
    1.3837   -0.7895    0.5653 C   0  0  0  0  0  0  0  0  0  0  0  0
    0.5491   -0.7975    1.6988 C   0  0  0  0  0  0  0  0  0  0  0  0
   -0.4532    0.0840    1.6100 N   0  0  0  0  0  0  0  0  0  0  0  0
   -0.2358    0.6748    0.4178 N   0  0  0  0  0  0  0  0  0  0  0  0
   -1.0876    1.7664    0.0114 C   0  0  0  0  0  0  0  0  0  0  0  0
    2.6051   -1.5233    0.3163 C   0  0  0  0  0  0  0  0  0  0  0  0
    3.6920   -0.8946   -0.2877 C   0  0  0  0  0  0  0  0  0  0  0  0
    4.9218   -1.5498   -0.3745 C   0  0  0  0  0  0  0  0  0  0  0  0
    5.0571   -2.9054   -0.0437 C   0  0  0  0  0  0  0  0  0  0  0  0
    3.9521   -3.5279    0.5634 C   0  0  0  0  0  0  0  0  0  0  0  0
    2.7528   -2.8374    0.7710 C   0  0  0  0  0  0  0  0  0  0  0  0
    6.2977   -3.6558   -0.3555 C   0  0  0  0  0  0  0  0  0  0  0  0
    6.8059   -4.5260    0.6282 C   0  0  0  0  0  0  0  0  0  0  0  0
    7.9319   -5.2705    0.5403 N   0  0  0  0  0  0  0  0  0  0  0  0
    8.6249   -5.1405   -0.5980 C   0  0  0  0  0  0  0  0  0  0  0  0
    8.2321   -4.3184   -1.6411 C   0  0  0  0  0  0  0  0  0  0  0  0
    7.0427   -3.5599   -1.5638 C   0  0  0  0  0  0  0  0  0  0  0  0
    6.6791   -2.8529   -2.7163 N   0  0  0  0  0  0  0  0  0  0  0  0
    5.2898   -2.5620   -3.0699 C   0  0  0  0  0  0  0  0  0  0  0  0
    5.1013   -2.6445   -4.5713 C   0  0  0  0  0  0  0  0  0  0  0  0
    6.1320   -1.8119   -5.3363 C   0  0  0  0  0  0  0  0  0  0  0  0
    7.5695   -2.0216   -4.8119 C   0  0  0  0  0  0  0  0  0  0  0  0
    7.6541   -1.9120   -3.2890 C   0  0  0  0  0  0  0  0  0  0  0  0
    5.8143   -0.3193   -5.2996 C   0  0  0  0  0  0  0  0  0  0  0  0
    5.6179    0.1294   -6.5733 N   0  0  0  0  0  0  0  0  0  0  0  0
    5.4182   -0.9392   -7.5019 C   0  0  0  0  0  0  0  0  0  0  0  0
    6.0380   -2.1544   -6.8406 C   0  0  0  0  0  0  0  0  0  0  0  0
    5.7535    0.3952   -4.3085 O   0  0  0  0  0  0  0  0  0  0  0  0
    1.1217    0.5467   -1.2316 H   0  0  0  0  0  0  0  0  0  0  0  0
    0.6459   -1.3894    2.6000 H   0  0  0  0  0  0  0  0  0  0  0  0
   -2.1273    1.4265    0.0479 H   0  0  0  0  0  0  0  0  0  0  0  0
   -0.9336    2.6006    0.6996 H   0  0  0  0  0  0  0  0  0  0  0  0
   -0.8305    2.0683   -1.0068 H   0  0  0  0  0  0  0  0  0  0  0  0
    3.6088    0.1121   -0.6888 H   0  0  0  0  0  0  0  0  0  0  0  0
    5.7636   -1.0092   -0.8069 H   0  0  0  0  0  0  0  0  0  0  0  0
    4.0046   -4.5686    0.8792 H   0  0  0  0  0  0  0  0  0  0  0  0
    1.9336   -3.3485    1.2721 H   0  0  0  0  0  0  0  0  0  0  0  0
    6.2898   -4.6502    1.5782 H   0  0  0  0  0  0  0  0  0  0  0  0
    9.5263   -5.7417   -0.6682 H   0  0  0  0  0  0  0  0  0  0  0  0
    8.8372   -4.3100   -2.5421 H   0  0  0  0  0  0  0  0  0  0  0  0
    4.5897   -3.2653   -2.6118 H   0  0  0  0  0  0  0  0  0  0  0  0
    5.0211   -1.5411   -2.7861 H   0  0  0  0  0  0  0  0  0  0  0  0
    5.1797   -3.6995   -4.8646 H   0  0  0  0  0  0  0  0  0  0  0  0
    4.0829   -2.3172   -4.8153 H   0  0  0  0  0  0  0  0  0  0  0  0
    7.9196   -3.0166   -5.1109 H   0  0  0  0  0  0  0  0  0  0  0  0
    8.2530   -1.2903   -5.2625 H   0  0  0  0  0  0  0  0  0  0  0  0
    7.4359   -0.8977   -2.9459 H   0  0  0  0  0  0  0  0  0  0  0  0
    8.6854   -2.1162   -2.9821 H   0  0  0  0  0  0  0  0  0  0  0  0
    5.2934    1.0698   -6.7221 H   0  0  0  0  0  0  0  0  0  0  0  0
    4.3390   -1.0612   -7.6438 H   0  0  0  0  0  0  0  0  0  0  0  0
    5.8838   -0.6983   -8.4655 H   0  0  0  0  0  0  0  0  0  0  0  0
    7.0230   -2.3590   -7.2687 H   0  0  0  0  0  0  0  0  0  0  0  0
    5.4230   -3.0412   -7.0389 H   0  0  0  0  0  0  0  0  0  0  0  0
  1  2  2  0  0  0  0
  1 30  1  0  0  0  0
  2  3  1  0  0  0  0
  2  7  1  0  0  0  0
  3  4  2  0  0  0  0
  3 31  1  0  0  0  0
  4  5  1  0  0  0  0
  5  1  1  0  0  0  0
  5  6  1  0  0  0  0
  6 32  1  0  0  0  0
  6 33  1  0  0  0  0
  6 34  1  0  0  0  0
  7  8  2  0  0  0  0
  8  9  1  0  0  0  0
  8 35  1  0  0  0  0
  9 10  2  0  0  0  0
  9 36  1  0  0  0  0
 10 11  1  0  0  0  0
 10 13  1  0  0  0  0
 11 12  2  0  0  0  0
 11 37  1  0  0  0  0
 12  7  1  0  0  0  0
 12 38  1  0  0  0  0
 13 14  2  0  0  0  0
 14 15  1  0  0  0  0
 14 39  1  0  0  0  0
 15 16  2  0  0  0  0
 16 17  1  0  0  0  0
 16 40  1  0  0  0  0
 17 18  2  0  0  0  0
 17 41  1  0  0  0  0
 18 13  1  0  0  0  0
 18 19  1  0  0  0  0
 19 20  1  0  0  0  0
 20 21  1  0  0  0  0
 20 42  1  0  0  0  0
 20 43  1  0  0  0  0
 21 22  1  0  0  0  0
 21 44  1  0  0  0  0
 21 45  1  0  0  0  0
 22 23  1  0  0  0  0
 22 25  1  0  0  0  0
 23 24  1  0  0  0  0
 23 46  1  0  0  0  0
 23 47  1  0  0  0  0
 24 19  1  0  0  0  0
 24 48  1  0  0  0  0
 24 49  1  0  0  0  0
 25 26  1  0  0  0  0
 25 29  2  0  0  0  0
 26 27  1  0  0  0  0
 26 50  1  0  0  0  0
 27 28  1  0  0  0  0
 27 51  1  0  0  0  0
 27 52  1  0  0  0  0
 28 22  1  0  0  0  0
 28 53  1  0  0  0  0
 28 54  1  0  0  0  0
M  END
>  <Mol_ID>
6591

>  <Formula>
C23H24ClN5O

>  <MolWeight>
421.92256

>  <Cat>
S7981

>  <Name>
CCT251545

>  <Synonyms>
N/A

>  <Target>
CDK,Wnt/beta-catenin

>  <Form>
Free base

>  <CAS>
1661839-45-7

>  <URL>
http://www.selleckchem.com/products/cct251545.html

$$$$
