CDK-IN-2
 OpenBabel08302521353D

 44 46  0  0  0  0  0  0  0  0999 V2000
    1.7453   -0.0096    1.3364 O   0  0  0  0  0  0  0  0  0  0  0  0
    1.6536   -0.8516    2.4851 C   0  0  0  0  0  0  0  0  0  0  0  0
    6.3713   -0.1896   -1.6107 F   0  0  0  0  0  0  0  0  0  0  0  0
    1.8767    5.6006   -2.0137 N   0  0  0  0  0  0  0  0  0  0  0  0
    1.2862    6.8463   -1.8531 C   0  0  0  0  0  0  0  0  0  0  0  0
    0.5712    7.1970   -0.9049 O   0  0  0  0  0  0  0  0  0  0  0  0
    3.3230    1.1497   -0.0849 C   0  0  0  0  0  0  0  0  0  0  0  0
    2.9345   -0.0238    0.6415 C   0  0  0  0  0  0  0  0  0  0  0  0
    4.5199    1.0494   -0.8277 C   0  0  0  0  0  0  0  0  0  0  0  0
    3.6960   -1.2079    0.5828 C   0  0  0  0  0  0  0  0  0  0  0  0
    5.2557   -0.1375   -0.8724 C   0  0  0  0  0  0  0  0  0  0  0  0
    4.8560   -1.2647   -0.1765 C   0  0  0  0  0  0  0  0  0  0  0  0
    2.5350    2.4414   -0.0788 C   0  0  0  0  0  0  0  0  0  0  0  0
    2.5655    3.4072   -1.1276 C   0  0  0  0  0  0  0  0  0  0  0  0
    1.7088    2.7568    1.0065 C   0  0  0  0  0  0  0  0  0  0  0  0
    1.7671    4.5629   -1.0559 C   0  0  0  0  0  0  0  0  0  0  0  0
    0.8788    3.8535    0.9495 C   0  0  0  0  0  0  0  0  0  0  0  0
    0.8939    4.7351   -0.0546 N   0  0  0  0  0  0  0  0  0  0  0  0
    1.4954    7.8779   -2.9698 C   0  0  2  0  0  0  0  0  0  0  0  0
    0.4310    7.7752   -4.0620 C   0  0  0  0  0  0  0  0  0  0  0  0
    2.8933    7.9207   -3.5757 C   0  0  0  0  0  0  0  0  0  0  0  0
    0.7395    6.6626   -5.0573 C   0  0  0  0  0  0  0  0  0  0  0  0
    3.1560    6.7491   -4.4220 N   0  0  0  0  0  0  0  0  0  0  0  0
    2.1929    6.6892   -5.5316 C   0  0  0  0  0  0  0  0  0  0  0  0
    1.4592   -1.8870    2.1901 H   0  0  0  0  0  0  0  0  0  0  0  0
    2.5454   -0.7820    3.1187 H   0  0  0  0  0  0  0  0  0  0  0  0
    0.7988   -0.5139    3.0802 H   0  0  0  0  0  0  0  0  0  0  0  0
    2.5075    5.4845   -2.8012 H   0  0  0  0  0  0  0  0  0  0  0  0
    4.9104    1.8927   -1.3844 H   0  0  0  0  0  0  0  0  0  0  0  0
    3.3824   -2.1107    1.0982 H   0  0  0  0  0  0  0  0  0  0  0  0
    5.4369   -2.1805   -0.2373 H   0  0  0  0  0  0  0  0  0  0  0  0
    3.2153    3.2692   -1.9849 H   0  0  0  0  0  0  0  0  0  0  0  0
    1.6766    2.1585    1.9078 H   0  0  0  0  0  0  0  0  0  0  0  0
    0.1651    4.0643    1.7383 H   0  0  0  0  0  0  0  0  0  0  0  0
    1.3525    8.8481   -2.4712 H   0  0  0  0  0  0  0  0  0  0  0  0
   -0.5649    7.6262   -3.6285 H   0  0  0  0  0  0  0  0  0  0  0  0
    0.3951    8.7308   -4.6038 H   0  0  0  0  0  0  0  0  0  0  0  0
    2.9989    8.8355   -4.1773 H   0  0  0  0  0  0  0  0  0  0  0  0
    3.6497    7.9775   -2.7858 H   0  0  0  0  0  0  0  0  0  0  0  0
    0.5188    5.6938   -4.5956 H   0  0  0  0  0  0  0  0  0  0  0  0
    0.0725    6.7601   -5.9219 H   0  0  0  0  0  0  0  0  0  0  0  0
    4.0914    6.8554   -4.8235 H   0  0  0  0  0  0  0  0  0  0  0  0
    2.3909    5.7799   -6.1089 H   0  0  0  0  0  0  0  0  0  0  0  0
    2.3512    7.5379   -6.2082 H   0  0  0  0  0  0  0  0  0  0  0  0
  1  2  1  0  0  0  0
  1  8  1  0  0  0  0
  2 25  1  0  0  0  0
  2 26  1  0  0  0  0
  2 27  1  0  0  0  0
  3 11  1  0  0  0  0
  4  5  1  0  0  0  0
  4 16  1  0  0  0  0
  4 28  1  0  0  0  0
  5  6  2  0  0  0  0
  7  8  2  0  0  0  0
  7  9  1  0  0  0  0
  7 13  1  0  0  0  0
  8 10  1  0  0  0  0
  9 11  2  0  0  0  0
  9 29  1  0  0  0  0
 10 12  2  0  0  0  0
 10 30  1  0  0  0  0
 11 12  1  0  0  0  0
 12 31  1  0  0  0  0
 13 14  2  0  0  0  0
 13 15  1  0  0  0  0
 14 16  1  0  0  0  0
 14 32  1  0  0  0  0
 15 17  2  0  0  0  0
 15 33  1  0  0  0  0
 16 18  2  0  0  0  0
 17 18  1  0  0  0  0
 17 34  1  0  0  0  0
 19  5  1  0  0  0  0
 19 20  1  0  0  0  0
 19 21  1  0  0  0  0
 19 35  1  1  0  0  0
 20 22  1  0  0  0  0
 20 36  1  0  0  0  0
 20 37  1  0  0  0  0
 21 23  1  0  0  0  0
 21 38  1  0  0  0  0
 21 39  1  0  0  0  0
 22 24  1  0  0  0  0
 22 40  1  0  0  0  0
 22 41  1  0  0  0  0
 23 24  1  0  0  0  0
 23 42  1  0  0  0  0
 24 43  1  0  0  0  0
 24 44  1  0  0  0  0
M  END
>  <Mol_ID>
6916

>  <Formula>
C18H19ClFN3O2

>  <MolWeight>
363.8137632

>  <Cat>
E2370

>  <Name>
CDK-IN-2

>  <Synonyms>
CDK inhibitor II

>  <Target>
CDK

>  <Form>
Free base

>  <CAS>
1269815-17-9

>  <URL>
https://www.selleckchem.com/products/cdk-in-2.html

$$$$
