CDKI-73
 OpenBabel08302521253D

 41 43  0  0  0  0  0  0  0  0999 V2000
   -0.2545   -1.1665   -0.1561 C   0  0  0  0  0  0  0  0  0  0  0  0
    1.0877   -1.1969   -0.1473 N   0  0  0  0  0  0  0  0  0  0  0  0
    1.7375   -0.0247   -0.0458 C   0  0  0  0  0  0  0  0  0  0  0  0
    1.1150    1.1611    0.0341 N   0  0  0  0  0  0  0  0  0  0  0  0
   -0.2433    1.1610   -0.0104 C   0  0  0  0  0  0  0  0  0  0  0  0
   -0.9754   -0.0076   -0.0943 C   0  0  0  0  0  0  0  0  0  0  0  0
   -0.8672    2.4877    0.0915 C   0  0  0  0  0  0  0  0  0  0  0  0
   -2.3133   -0.0536   -0.0788 F   0  0  0  0  0  0  0  0  0  0  0  0
    3.1279   -0.0348    0.0458 N   0  0  0  0  0  0  0  0  0  0  0  0
    4.0153   -1.0091   -0.4269 C   0  0  0  0  0  0  0  0  0  0  0  0
    3.7141   -1.7889   -1.5492 C   0  0  0  0  0  0  0  0  0  0  0  0
    4.5742   -2.8092   -1.9537 C   0  0  0  0  0  0  0  0  0  0  0  0
    5.7408   -3.0848   -1.2411 C   0  0  0  0  0  0  0  0  0  0  0  0
    6.0513   -2.3162   -0.1223 C   0  0  0  0  0  0  0  0  0  0  0  0
    5.1993   -1.2787    0.2750 C   0  0  0  0  0  0  0  0  0  0  0  0
   -2.3472    2.8306   -0.7298 S   0  0  0  0  0  0  0  0  0  0  0  0
   -2.4134    4.3864   -0.0151 C   0  0  0  0  0  0  0  0  0  0  0  0
   -1.3661    4.6950    0.7074 N   0  0  0  0  0  0  0  0  0  0  0  0
   -0.4681    3.6345    0.7675 C   0  0  0  0  0  0  0  0  0  0  0  0
   -3.4821    5.1799   -0.2205 N   0  0  0  0  0  0  0  0  0  0  0  0
    0.7509    3.8567    1.5901 C   0  0  0  0  0  0  0  0  0  0  0  0
   -3.6072    6.4637    0.4201 C   0  0  0  0  0  0  0  0  0  0  0  0
    4.1414   -3.7825   -3.3580 S   0  0  0  0  0  0  0  0  0  0  0  0
    2.6574   -4.4306   -2.9125 N   0  0  0  0  0  0  0  0  0  0  0  0
    3.8909   -2.9089   -4.4752 O   0  0  0  0  0  0  0  0  0  0  0  0
    5.0341   -4.9138   -3.4409 O   0  0  0  0  0  0  0  0  0  0  0  0
   -0.7483   -2.1309   -0.2003 H   0  0  0  0  0  0  0  0  0  0  0  0
    3.5120    0.8691    0.2796 H   0  0  0  0  0  0  0  0  0  0  0  0
    2.8061   -1.6032   -2.1182 H   0  0  0  0  0  0  0  0  0  0  0  0
    6.3999   -3.8979   -1.5407 H   0  0  0  0  0  0  0  0  0  0  0  0
    6.9475   -2.5349    0.4539 H   0  0  0  0  0  0  0  0  0  0  0  0
    5.4437   -0.7120    1.1707 H   0  0  0  0  0  0  0  0  0  0  0  0
   -4.2745    4.8371   -0.7485 H   0  0  0  0  0  0  0  0  0  0  0  0
    1.2759    4.7521    1.2414 H   0  0  0  0  0  0  0  0  0  0  0  0
    0.4667    4.0112    2.6355 H   0  0  0  0  0  0  0  0  0  0  0  0
    1.4567    3.0262    1.5585 H   0  0  0  0  0  0  0  0  0  0  0  0
   -3.7186    7.2403   -0.3425 H   0  0  0  0  0  0  0  0  0  0  0  0
   -4.5012    6.4798    1.0518 H   0  0  0  0  0  0  0  0  0  0  0  0
   -2.7494    6.7291    1.0469 H   0  0  0  0  0  0  0  0  0  0  0  0
    1.9848   -4.2874   -3.6681 H   0  0  0  0  0  0  0  0  0  0  0  0
    2.7672   -5.4053   -2.6340 H   0  0  0  0  0  0  0  0  0  0  0  0
  1  2  2  0  0  0  0
  1 27  1  0  0  0  0
  2  3  1  0  0  0  0
  3  4  2  0  0  0  0
  3  9  1  0  0  0  0
  4  5  1  0  0  0  0
  5  6  2  0  0  0  0
  5  7  1  0  0  0  0
  6  1  1  0  0  0  0
  6  8  1  0  0  0  0
  7 16  1  0  0  0  0
  9 10  1  0  0  0  0
  9 28  1  0  0  0  0
 10 11  2  0  0  0  0
 11 12  1  0  0  0  0
 11 29  1  0  0  0  0
 12 13  2  0  0  0  0
 12 23  1  0  0  0  0
 13 14  1  0  0  0  0
 13 30  1  0  0  0  0
 14 15  2  0  0  0  0
 14 31  1  0  0  0  0
 15 10  1  0  0  0  0
 15 32  1  0  0  0  0
 16 17  1  0  0  0  0
 17 18  2  0  0  0  0
 17 20  1  0  0  0  0
 18 19  1  0  0  0  0
 19  7  2  0  0  0  0
 19 21  1  0  0  0  0
 20 22  1  0  0  0  0
 20 33  1  0  0  0  0
 21 34  1  0  0  0  0
 21 35  1  0  0  0  0
 21 36  1  0  0  0  0
 22 37  1  0  0  0  0
 22 38  1  0  0  0  0
 22 39  1  0  0  0  0
 23 24  1  0  0  0  0
 23 25  2  0  0  0  0
 23 26  2  0  0  0  0
 24 40  1  0  0  0  0
 24 41  1  0  0  0  0
M  END
>  <Mol_ID>
5213

>  <Formula>
C15H15FN6O2S2

>  <MolWeight>
394.4470032

>  <Cat>
S7773

>  <Name>
CDKI-73

>  <Synonyms>
N/A

>  <Target>
CDK

>  <Form>
free base

>  <CAS>
1421693-22-2

>  <URL>
http://www.selleckchem.com/products/cdki-73.html

$$$$
