CEBP¦Á inducer 1
 OpenBabel08302521303D

 40 43  0  0  0  0  0  0  0  0999 V2000
    0.8782    0.1249   -0.0518 F   0  0  0  0  0  0  0  0  0  0  0  0
    4.3797   -3.4133    0.2338 O   0  0  0  0  0  0  0  0  0  0  0  0
   11.3602   -0.9772    0.0185 O   0  0  0  0  0  0  0  0  0  0  0  0
   14.7649   -1.2425   -0.5981 O   0  5  0  0  0  0  0  0  0  0  0  0
   13.0746   -2.5268   -1.1968 O   0  0  0  0  0  0  0  0  0  0  0  0
    6.4173   -2.2605    0.2908 N   0  0  0  0  0  0  0  0  0  0  0  0
    6.3938    0.1105    0.3900 N   0  0  0  0  0  0  0  0  0  0  0  0
   13.5632   -1.5435   -0.6254 N   0  3  0  0  0  0  0  0  0  0  0  0
    4.2743   -1.1006    0.2395 C   0  0  0  0  0  0  0  0  0  0  0  0
    7.0429   -1.0174    0.3641 C   0  0  0  0  0  0  0  0  0  0  0  0
    5.0222   -2.3641    0.2475 C   0  0  0  0  0  0  0  0  0  0  0  0
    4.9982    0.0871    0.3042 C   0  0  0  0  0  0  0  0  0  0  0  0
    7.1402   -3.4929    0.2889 C   0  0  0  0  0  0  0  0  0  0  0  0
    2.8786   -1.1015    0.1389 C   0  0  0  0  0  0  0  0  0  0  0  0
    8.5322   -0.9903    0.2912 C   0  0  0  0  0  0  0  0  0  0  0  0
    4.3029    1.2985    0.2329 C   0  0  0  0  0  0  0  0  0  0  0  0
    6.9877   -4.3787   -0.7871 C   0  0  0  0  0  0  0  0  0  0  0  0
    7.9607   -3.8525    1.3656 C   0  0  0  0  0  0  0  0  0  0  0  0
    2.2114    0.1110    0.0689 C   0  0  0  0  0  0  0  0  0  0  0  0
    2.9102    1.3122    0.1071 C   0  0  0  0  0  0  0  0  0  0  0  0
    9.2531   -0.0236    0.8793 C   0  0  0  0  0  0  0  0  0  0  0  0
    7.6486   -5.6063   -0.7905 C   0  0  0  0  0  0  0  0  0  0  0  0
    8.6054   -5.0920    1.3675 C   0  0  0  0  0  0  0  0  0  0  0  0
   10.6684   -0.0168    0.7320 C   0  0  0  0  0  0  0  0  0  0  0  0
    8.4496   -5.9659    0.2909 C   0  0  0  0  0  0  0  0  0  0  0  0
   11.6059    0.8896    1.2260 C   0  0  0  0  0  0  0  0  0  0  0  0
   12.6771   -0.6636    0.0680 C   0  0  0  0  0  0  0  0  0  0  0  0
   12.8948    0.4749    0.7986 C   0  0  0  0  0  0  0  0  0  0  0  0
    2.3172   -2.0305    0.1000 H   0  0  0  0  0  0  0  0  0  0  0  0
    9.0065   -1.7547   -0.3158 H   0  0  0  0  0  0  0  0  0  0  0  0
    4.8528    2.2360    0.2572 H   0  0  0  0  0  0  0  0  0  0  0  0
    6.3546   -4.1158   -1.6316 H   0  0  0  0  0  0  0  0  0  0  0  0
    8.0681   -3.1998    2.2278 H   0  0  0  0  0  0  0  0  0  0  0  0
    2.3685    2.2500    0.0323 H   0  0  0  0  0  0  0  0  0  0  0  0
    8.7771    0.7644    1.4571 H   0  0  0  0  0  0  0  0  0  0  0  0
    7.5251   -6.2854   -1.6301 H   0  0  0  0  0  0  0  0  0  0  0  0
    9.2170   -5.3865    2.2166 H   0  0  0  0  0  0  0  0  0  0  0  0
    8.9437   -6.9344    0.2988 H   0  0  0  0  0  0  0  0  0  0  0  0
   11.3762    1.7607    1.8263 H   0  0  0  0  0  0  0  0  0  0  0  0
   13.8496    0.9456    0.9932 H   0  0  0  0  0  0  0  0  0  0  0  0
  1 19  1  0  0  0  0
  2 11  2  0  0  0  0
  3 24  1  0  0  0  0
  3 27  1  0  0  0  0
  4  8  1  0  0  0  0
  5  8  2  0  0  0  0
  6 10  1  0  0  0  0
  6 11  1  0  0  0  0
  6 13  1  0  0  0  0
  7 10  2  0  0  0  0
  7 12  1  0  0  0  0
  8 27  1  0  0  0  0
  9 11  1  0  0  0  0
  9 12  2  0  0  0  0
  9 14  1  0  0  0  0
 10 15  1  0  0  0  0
 12 16  1  0  0  0  0
 13 17  2  0  0  0  0
 13 18  1  0  0  0  0
 14 19  2  0  0  0  0
 14 29  1  0  0  0  0
 15 21  2  0  0  0  0
 15 30  1  0  0  0  0
 16 20  2  0  0  0  0
 16 31  1  0  0  0  0
 17 22  1  0  0  0  0
 17 32  1  0  0  0  0
 18 23  2  0  0  0  0
 18 33  1  0  0  0  0
 19 20  1  0  0  0  0
 20 34  1  0  0  0  0
 21 24  1  0  0  0  0
 21 35  1  0  0  0  0
 22 25  2  0  0  0  0
 22 36  1  0  0  0  0
 23 25  1  0  0  0  0
 23 37  1  0  0  0  0
 24 26  2  0  0  0  0
 25 38  1  0  0  0  0
 26 28  1  0  0  0  0
 26 39  1  0  0  0  0
 27 28  2  0  0  0  0
 28 40  1  0  0  0  0
M  CHG  2   4  -1   8   1
M  END
>  <Mol_ID>
5594

>  <Formula>
C20H12FN3O4

>  <MolWeight>
377.3253832

>  <Cat>
S3538

>  <Name>
CEBP¦Á inducer 1

>  <Synonyms>
N/A

>  <Target>
Others

>  <Form>
Free Base

>  <CAS>
2374285-52-4

>  <URL>
http://www.selleckchem.com/products/cebpa-inducer-1.html

$$$$
