CEENU (lomustine).cdx
 OpenBabel08302521223D

 31 31  0  0  0  0  0  0  0  0999 V2000
   -1.3762    0.3789   -0.2113 C   0  0  0  0  0  0  0  0  0  0  0  0
   -0.9610   -1.0190    0.2389 C   0  0  0  0  0  0  0  0  0  0  0  0
    0.4533   -1.3600   -0.2198 C   0  0  0  0  0  0  0  0  0  0  0  0
    1.4581   -0.3029    0.2293 C   0  0  0  0  0  0  0  0  0  0  0  0
    1.0532    1.0990   -0.2404 C   0  0  0  0  0  0  0  0  0  0  0  0
   -0.3682    1.4401    0.2288 C   0  0  0  0  0  0  0  0  0  0  0  0
    2.0178    2.0799    0.2407 N   0  0  0  0  0  0  0  0  0  0  0  0
    2.2370    3.2791   -0.4062 C   0  0  0  0  0  0  0  0  0  0  0  0
    3.1589    4.1424    0.1955 N   0  0  0  0  0  0  0  0  0  0  0  0
    3.4840    5.4100   -0.4562 C   0  0  0  0  0  0  0  0  0  0  0  0
    4.6483    5.2788   -1.4289 C   0  0  0  0  0  0  0  0  0  0  0  0
    1.6624    3.5525   -1.4616 O   0  0  0  0  0  0  0  0  0  0  0  0
    3.8608    3.7334    1.3387 N   0  0  0  0  0  0  0  0  0  0  0  0
    4.6801    4.5575    1.7563 O   0  0  0  0  0  0  0  0  0  0  0  0
   -1.4686    0.3964   -1.3042 H   0  0  0  0  0  0  0  0  0  0  0  0
   -2.3654    0.6169    0.1959 H   0  0  0  0  0  0  0  0  0  0  0  0
   -1.0144   -1.0809    1.3328 H   0  0  0  0  0  0  0  0  0  0  0  0
   -1.6649   -1.7594   -0.1573 H   0  0  0  0  0  0  0  0  0  0  0  0
    0.7446   -2.3381    0.1786 H   0  0  0  0  0  0  0  0  0  0  0  0
    0.4738   -1.4409   -1.3134 H   0  0  0  0  0  0  0  0  0  0  0  0
    1.5394   -0.3217    1.3245 H   0  0  0  0  0  0  0  0  0  0  0  0
    2.4525   -0.5541   -0.1593 H   0  0  0  0  0  0  0  0  0  0  0  0
    1.0714    1.1203   -1.3377 H   0  0  0  0  0  0  0  0  0  0  0  0
   -0.6748    2.4171   -0.1642 H   0  0  0  0  0  0  0  0  0  0  0  0
   -0.3884    1.5272    1.3234 H   0  0  0  0  0  0  0  0  0  0  0  0
    2.3077    2.0080    1.2057 H   0  0  0  0  0  0  0  0  0  0  0  0
    2.6044    5.7644   -1.0065 H   0  0  0  0  0  0  0  0  0  0  0  0
    3.6983    6.1737    0.2998 H   0  0  0  0  0  0  0  0  0  0  0  0
    4.4052    4.5880   -2.2426 H   0  0  0  0  0  0  0  0  0  0  0  0
    4.8863    6.2527   -1.8683 H   0  0  0  0  0  0  0  0  0  0  0  0
    5.5468    4.9028   -0.9288 H   0  0  0  0  0  0  0  0  0  0  0  0
  1  2  1  0  0  0  0
  1 15  1  0  0  0  0
  1 16  1  0  0  0  0
  2  3  1  0  0  0  0
  2 17  1  0  0  0  0
  2 18  1  0  0  0  0
  3  4  1  0  0  0  0
  3 19  1  0  0  0  0
  3 20  1  0  0  0  0
  4  5  1  0  0  0  0
  4 21  1  0  0  0  0
  4 22  1  0  0  0  0
  5  6  1  0  0  0  0
  5  7  1  0  0  0  0
  5 23  1  0  0  0  0
  6  1  1  0  0  0  0
  6 24  1  0  0  0  0
  6 25  1  0  0  0  0
  7  8  1  0  0  0  0
  7 26  1  0  0  0  0
  8  9  1  0  0  0  0
  8 12  2  0  0  0  0
  9 10  1  0  0  0  0
  9 13  1  0  0  0  0
 10 11  1  0  0  0  0
 10 27  1  0  0  0  0
 10 28  1  0  0  0  0
 11 29  1  0  0  0  0
 11 30  1  0  0  0  0
 11 31  1  0  0  0  0
 13 14  2  0  0  0  0
M  END
>  <Mol_ID>
454

>  <Formula>
C9H16ClN3O2

>  <MolWeight>
233.69524

>  <Cat>
S1840

>  <Name>
Lomustine

>  <Synonyms>
NSC79037, Gleostine, CeeNU, CCNU

>  <Target>
DNA/RNA Synthesis

>  <Form>
free base

>  <CAS>
13010-47-4

>  <URL>
http://selleckchem.com/products/Lomustine(CeeNU).html

$$$$
