CEFDINIR (cefdinir).cdx
 OpenBabel08302520343D

 39 41  0  0  0  0  0  0  0  0999 V2000
    0.0383    0.7450   -0.7761 C   0  0  2  0  0  0  0  0  0  0  0  0
   -0.6770   -0.4516   -0.3720 N   0  0  0  0  0  0  0  0  0  0  0  0
   -0.1073   -1.6533   -0.0287 C   0  0  0  0  0  0  0  0  0  0  0  0
    1.2513   -1.7596    0.0863 C   0  0  0  0  0  0  0  0  0  0  0  0
    2.1639   -0.5341    0.0127 C   0  0  0  0  0  0  0  0  0  0  0  0
    1.3352    1.0189    0.4539 S   0  0  0  0  0  0  0  0  0  0  0  0
   -1.3113    1.5139   -0.6122 C   0  0  1  0  0  0  0  0  0  0  0  0
   -1.8419    0.1592   -0.0707 C   0  0  0  0  0  0  0  0  0  0  0  0
   -1.0462   -2.8251    0.2098 C   0  0  0  0  0  0  0  0  0  0  0  0
    1.9724   -3.0236    0.3247 C   0  0  0  0  0  0  0  0  0  0  0  0
    3.3009   -3.2060    0.3835 C   0  0  0  0  0  0  0  0  0  0  0  0
   -2.2602   -2.6781   -0.3690 O   0  0  0  0  0  0  0  0  0  0  0  0
   -0.7658   -3.8549    0.7988 O   0  0  0  0  0  0  0  0  0  0  0  0
   -2.8497   -0.2816    0.4417 O   0  0  0  0  0  0  0  0  0  0  0  0
   -1.3414    2.6878    0.2955 N   0  0  0  0  0  0  0  0  0  0  0  0
   -0.6483    3.8373   -0.0507 C   0  0  0  0  0  0  0  0  0  0  0  0
   -0.7847    5.0311    0.9197 C   0  0  0  0  0  0  0  0  0  0  0  0
   -0.0005    3.9124   -1.0877 O   0  0  0  0  0  0  0  0  0  0  0  0
   -2.0417    5.2718    1.6352 C   0  0  0  0  0  0  0  0  0  0  0  0
    0.1750    5.8833    1.1705 N   0  0  0  0  0  0  0  0  0  0  0  0
    1.3596    5.5930    0.4935 O   0  0  0  0  0  0  0  0  0  0  0  0
   -3.1387    4.4198    1.5002 N   0  0  0  0  0  0  0  0  0  0  0  0
   -4.1368    4.8396    2.2412 C   0  0  0  0  0  0  0  0  0  0  0  0
   -3.8356    6.2637    3.1494 S   0  0  0  0  0  0  0  0  0  0  0  0
   -2.2494    6.3212    2.5148 C   0  0  0  0  0  0  0  0  0  0  0  0
   -5.3234    4.2224    2.2993 N   0  0  0  0  0  0  0  0  0  0  0  0
    0.3902    0.7113   -1.8133 H   0  0  0  0  0  0  0  0  0  0  0  0
    2.5940   -0.4489   -0.9901 H   0  0  0  0  0  0  0  0  0  0  0  0
    2.9830   -0.6045    0.7320 H   0  0  0  0  0  0  0  0  0  0  0  0
   -1.7917    1.7598   -1.5698 H   0  0  0  0  0  0  0  0  0  0  0  0
    1.3883   -3.9306    0.4612 H   0  0  0  0  0  0  0  0  0  0  0  0
    3.7009   -4.1979    0.5800 H   0  0  0  0  0  0  0  0  0  0  0  0
    4.0364   -2.4211    0.2490 H   0  0  0  0  0  0  0  0  0  0  0  0
   -2.7288   -1.9038    0.0216 H   0  0  0  0  0  0  0  0  0  0  0  0
   -2.0536    2.7713    1.0215 H   0  0  0  0  0  0  0  0  0  0  0  0
    1.9436    6.3320    0.7478 H   0  0  0  0  0  0  0  0  0  0  0  0
   -1.5561    7.0997    2.8042 H   0  0  0  0  0  0  0  0  0  0  0  0
   -6.1199    4.7410    2.6396 H   0  0  0  0  0  0  0  0  0  0  0  0
   -5.5365    3.5638    1.5564 H   0  0  0  0  0  0  0  0  0  0  0  0
  1  2  1  0  0  0  0
  1  6  1  0  0  0  0
  1  7  1  0  0  0  0
  1 27  1  6  0  0  0
  2  3  1  0  0  0  0
  3  4  2  0  0  0  0
  3  9  1  0  0  0  0
  4  5  1  0  0  0  0
  4 10  1  0  0  0  0
  5  6  1  0  0  0  0
  5 28  1  0  0  0  0
  5 29  1  0  0  0  0
  7  8  1  0  0  0  0
  7 15  1  0  0  0  0
  7 30  1  6  0  0  0
  8  2  1  0  0  0  0
  8 14  2  0  0  0  0
  9 12  1  0  0  0  0
  9 13  2  0  0  0  0
 10 11  2  0  0  0  0
 10 31  1  0  0  0  0
 11 32  1  0  0  0  0
 11 33  1  0  0  0  0
 12 34  1  0  0  0  0
 15 16  1  0  0  0  0
 15 35  1  0  0  0  0
 16 17  1  0  0  0  0
 16 18  2  0  0  0  0
 17 19  1  0  0  0  0
 17 20  2  0  0  0  0
 19 22  1  0  0  0  0
 20 21  1  0  0  0  0
 21 36  1  0  0  0  0
 22 23  2  0  0  0  0
 23 24  1  0  0  0  0
 23 26  1  0  0  0  0
 24 25  1  0  0  0  0
 25 19  2  0  0  0  0
 25 37  1  0  0  0  0
 26 38  1  0  0  0  0
 26 39  1  0  0  0  0
M  END
>  <Mol_ID>
343

>  <Formula>
C14H13N5O5S2

>  <MolWeight>
395.41352

>  <Cat>
S1605

>  <Name>
Cefdinir

>  <Synonyms>
FK 482, PD 134393, CI-983

>  <Target>
Antibiotics,Bacterial

>  <Form>
free base

>  <CAS>
91832-40-5

>  <URL>
http://selleckchem.com/products/Cefdinir(Omnicef).html

$$$$
