Cefoxitin
 OpenBabel08302520403D

 45 47  0  0  0  0  0  0  0  0999 V2000
   -1.2929    1.6044   -0.6505 C   0  0  1  0  0  0  0  0  0  0  0  0
    0.0705    0.8168   -0.7482 C   0  0  2  0  0  0  0  0  0  0  0  0
   -1.8153    0.2328   -0.0321 C   0  0  0  0  0  0  0  0  0  0  0  0
   -1.3542    2.7537    0.3071 N   0  0  0  0  0  0  0  0  0  0  0  0
   -1.8914    1.8822   -1.9530 O   0  0  0  0  0  0  0  0  0  0  0  0
   -0.6473   -0.3877   -0.3505 N   0  0  0  0  0  0  0  0  0  0  0  0
    1.3648    1.0786    0.5010 S   0  0  0  0  0  0  0  0  0  0  0  0
   -2.8167   -0.0812    0.5717 O   0  0  0  0  0  0  0  0  0  0  0  0
   -0.6144    3.9021    0.1155 C   0  0  0  0  0  0  0  0  0  0  0  0
   -3.1520    2.5301   -1.9758 C   0  0  0  0  0  0  0  0  0  0  0  0
   -0.0335   -1.5956   -0.1033 C   0  0  0  0  0  0  0  0  0  0  0  0
    2.2220   -0.4332   -0.0290 C   0  0  0  0  0  0  0  0  0  0  0  0
   -0.8066    4.9689    1.1857 C   0  0  0  0  0  0  0  0  0  0  0  0
    0.1661    4.0297   -0.8253 O   0  0  0  0  0  0  0  0  0  0  0  0
    1.3246   -1.6618    0.0230 C   0  0  0  0  0  0  0  0  0  0  0  0
   -0.8663   -2.8443   -0.0188 C   0  0  0  0  0  0  0  0  0  0  0  0
   -1.1610    6.2933    0.5763 C   0  0  0  0  0  0  0  0  0  0  0  0
    2.1479   -2.9027    0.3410 C   0  0  0  0  0  0  0  0  0  0  0  0
   -0.4938   -3.9874   -0.2166 O   0  0  0  0  0  0  0  0  0  0  0  0
   -2.1587   -2.6171    0.2623 O   0  0  0  0  0  0  0  0  0  0  0  0
   -0.3116    7.3077    0.1754 C   0  0  0  0  0  0  0  0  0  0  0  0
   -2.8037    6.7291    0.3457 S   0  0  0  0  0  0  0  0  0  0  0  0
    3.0745   -3.1554   -0.7318 O   0  0  0  0  0  0  0  0  0  0  0  0
   -1.0147    8.4496   -0.3062 C   0  0  0  0  0  0  0  0  0  0  0  0
   -2.3786    8.2712   -0.2606 C   0  0  0  0  0  0  0  0  0  0  0  0
    4.3772   -3.2483   -0.3794 C   0  0  0  0  0  0  0  0  0  0  0  0
    5.1312   -3.6146   -1.4395 N   0  0  0  0  0  0  0  0  0  0  0  0
    4.8491   -3.0412    0.7278 O   0  0  0  0  0  0  0  0  0  0  0  0
    0.4488    0.7628   -1.7757 H   0  0  0  0  0  0  0  0  0  0  0  0
   -2.0412    2.7215    1.0519 H   0  0  0  0  0  0  0  0  0  0  0  0
   -3.8053    2.1660   -1.1784 H   0  0  0  0  0  0  0  0  0  0  0  0
   -3.0067    3.6096   -1.8819 H   0  0  0  0  0  0  0  0  0  0  0  0
   -3.6244    2.3261   -2.9404 H   0  0  0  0  0  0  0  0  0  0  0  0
    2.6047   -0.3022   -1.0482 H   0  0  0  0  0  0  0  0  0  0  0  0
    3.0851   -0.5473    0.6340 H   0  0  0  0  0  0  0  0  0  0  0  0
   -1.5712    4.6621    1.9085 H   0  0  0  0  0  0  0  0  0  0  0  0
    0.1345    5.0506    1.7423 H   0  0  0  0  0  0  0  0  0  0  0  0
    2.6515   -2.7431    1.3029 H   0  0  0  0  0  0  0  0  0  0  0  0
    1.5727   -3.8157    0.4752 H   0  0  0  0  0  0  0  0  0  0  0  0
   -2.5831   -3.4967    0.2635 H   0  0  0  0  0  0  0  0  0  0  0  0
    0.7690    7.2377    0.2298 H   0  0  0  0  0  0  0  0  0  0  0  0
   -0.5434    9.3580   -0.6636 H   0  0  0  0  0  0  0  0  0  0  0  0
   -3.1474    8.9726   -0.5567 H   0  0  0  0  0  0  0  0  0  0  0  0
    6.1141   -3.7905   -1.2916 H   0  0  0  0  0  0  0  0  0  0  0  0
    4.6896   -3.9036   -2.2990 H   0  0  0  0  0  0  0  0  0  0  0  0
  1  2  1  0  0  0  0
  1  3  1  0  0  0  0
  1  4  1  0  0  0  0
  1  5  1  6  0  0  0
  2  6  1  0  0  0  0
  2  7  1  0  0  0  0
  2 29  1  6  0  0  0
  3  8  2  0  0  0  0
  3  6  1  0  0  0  0
  4  9  1  0  0  0  0
  4 30  1  0  0  0  0
  5 10  1  0  0  0  0
  6 11  1  0  0  0  0
  7 12  1  0  0  0  0
  9 13  1  0  0  0  0
  9 14  2  0  0  0  0
 10 31  1  0  0  0  0
 10 32  1  0  0  0  0
 10 33  1  0  0  0  0
 11 15  2  0  0  0  0
 11 16  1  0  0  0  0
 12 15  1  0  0  0  0
 12 34  1  0  0  0  0
 12 35  1  0  0  0  0
 13 17  1  0  0  0  0
 13 36  1  0  0  0  0
 13 37  1  0  0  0  0
 15 18  1  0  0  0  0
 16 19  2  0  0  0  0
 16 20  1  0  0  0  0
 17 21  2  0  0  0  0
 17 22  1  0  0  0  0
 18 23  1  0  0  0  0
 18 38  1  0  0  0  0
 18 39  1  0  0  0  0
 20 40  1  0  0  0  0
 21 24  1  0  0  0  0
 21 41  1  0  0  0  0
 22 25  1  0  0  0  0
 23 26  1  0  0  0  0
 24 25  2  0  0  0  0
 24 42  1  0  0  0  0
 25 43  1  0  0  0  0
 26 27  1  0  0  0  0
 26 28  2  0  0  0  0
 27 44  1  0  0  0  0
 27 45  1  0  0  0  0
M  END
>  <Mol_ID>
3722

>  <Formula>
C16H17N3O7S2

>  <MolWeight>
427.45208

>  <Cat>
S5951

>  <Name>
Cefoxitin

>  <Synonyms>
N/A

>  <Target>
Antibiotics,Bacterial

>  <Form>
Free Base

>  <CAS>
35607-66-0

>  <URL>
http://www.selleck.cn/products/cefoxitin.html

$$$$
