Cefuroxime sodium.cdx
 OpenBabel08302519503D

 44 46  0  0  0  0  0  0  0  0999 V2000
   -0.6702   -0.5207   -0.1876 N   0  0  0  0  0  0  0  0  0  0  0  0
   -0.0188   -1.7113    0.0344 C   0  0  0  0  0  0  0  0  0  0  0  0
    1.3358   -1.7503    0.1420 C   0  0  0  0  0  0  0  0  0  0  0  0
    2.2363   -0.5443    0.0100 C   0  0  0  0  0  0  0  0  0  0  0  0
    1.4459    1.0308    0.4090 S   0  0  0  0  0  0  0  0  0  0  0  0
    0.0008    0.6822   -0.6573 C   0  0  2  0  0  0  0  0  0  0  0  0
   -1.3129    1.4290   -0.2717 C   0  0  1  0  0  0  0  0  0  0  0  0
   -1.5604    0.1643    0.6031 C   0  0  0  0  0  0  0  0  0  0  0  0
   -0.8876   -3.0463   -0.0445 C   0  0  0  0  0  0  0  0  0  0  0  0
   -2.0807   -2.9469    0.3568 O   0  0  0  0  0  0  0  0  0  0  0  0
   -0.3301   -4.0140   -0.6440 O   0  5  0  0  0  0  0  0  0  0  0  0
   -2.1876   -0.0482    1.6153 O   0  0  0  0  0  0  0  0  0  0  0  0
   -1.1810    2.7630    0.3807 N   0  0  0  0  0  0  0  0  0  0  0  0
   -0.8083    3.8702   -0.3674 C   0  0  0  0  0  0  0  0  0  0  0  0
   -0.5163    3.7852   -1.5560 O   0  0  0  0  0  0  0  0  0  0  0  0
   -0.8337    5.2359    0.3410 C   0  0  0  0  0  0  0  0  0  0  0  0
   -0.0020    6.2191    0.1231 N   0  0  0  0  0  0  0  0  0  0  0  0
    0.9567    5.9450   -0.8550 O   0  0  0  0  0  0  0  0  0  0  0  0
    1.7622    7.1096   -1.0172 C   0  0  0  0  0  0  0  0  0  0  0  0
   -2.7043    4.4878    1.7329 O   0  0  0  0  0  0  0  0  0  0  0  0
   -1.8826    5.4922    1.3052 C   0  0  0  0  0  0  0  0  0  0  0  0
   -2.2336    6.6689    1.9474 C   0  0  0  0  0  0  0  0  0  0  0  0
   -3.3045    6.3603    2.8149 C   0  0  0  0  0  0  0  0  0  0  0  0
   -3.5505    5.0186    2.6504 C   0  0  0  0  0  0  0  0  0  0  0  0
    2.1187   -3.0266    0.3981 C   0  0  0  0  0  0  0  0  0  0  0  0
    1.7160   -3.6564    1.6217 O   0  0  0  0  0  0  0  0  0  0  0  0
    2.3373   -3.2533    2.7442 C   0  0  0  0  0  0  0  0  0  0  0  0
    1.9175   -4.0056    3.7891 N   0  0  0  0  0  0  0  0  0  0  0  0
    3.1779   -2.3742    2.8506 O   0  0  0  0  0  0  0  0  0  0  0  0
    2.6096   -0.4938   -1.0199 H   0  0  0  0  0  0  0  0  0  0  0  0
    3.1072   -0.6277    0.6665 H   0  0  0  0  0  0  0  0  0  0  0  0
    0.2099    0.6864   -1.7305 H   0  0  0  0  0  0  0  0  0  0  0  0
   -2.0531    1.4851   -1.0832 H   0  0  0  0  0  0  0  0  0  0  0  0
   -1.5690    2.9012    1.3110 H   0  0  0  0  0  0  0  0  0  0  0  0
    1.1587    8.0235   -0.9605 H   0  0  0  0  0  0  0  0  0  0  0  0
    2.5325    7.1313   -0.2407 H   0  0  0  0  0  0  0  0  0  0  0  0
    2.2436    7.0763   -1.9978 H   0  0  0  0  0  0  0  0  0  0  0  0
   -1.7534    7.6274    1.7982 H   0  0  0  0  0  0  0  0  0  0  0  0
   -3.8261    7.0311    3.4817 H   0  0  0  0  0  0  0  0  0  0  0  0
   -4.2539    4.3253    3.0906 H   0  0  0  0  0  0  0  0  0  0  0  0
    1.9998   -3.7420   -0.4207 H   0  0  0  0  0  0  0  0  0  0  0  0
    3.2000   -2.8384    0.4261 H   0  0  0  0  0  0  0  0  0  0  0  0
    2.1919   -3.7411    4.7206 H   0  0  0  0  0  0  0  0  0  0  0  0
    1.1431   -4.6335    3.6303 H   0  0  0  0  0  0  0  0  0  0  0  0
  1  2  1  0  0  0  0
  1  8  1  0  0  0  0
  1  6  1  0  0  0  0
  2  3  2  0  0  0  0
  2  9  1  0  0  0  0
  3  4  1  0  0  0  0
  3 25  1  0  0  0  0
  4  5  1  0  0  0  0
  4 30  1  0  0  0  0
  4 31  1  0  0  0  0
  6  5  1  0  0  0  0
  6  7  1  0  0  0  0
  6 32  1  6  0  0  0
  7  8  1  0  0  0  0
  7 13  1  0  0  0  0
  7 33  1  6  0  0  0
  8 12  2  0  0  0  0
  9 10  2  0  0  0  0
  9 11  1  0  0  0  0
 13 14  1  0  0  0  0
 13 34  1  0  0  0  0
 14 15  2  0  0  0  0
 14 16  1  0  0  0  0
 16 17  2  0  0  0  0
 16 21  1  0  0  0  0
 17 18  1  0  0  0  0
 18 19  1  0  0  0  0
 19 35  1  0  0  0  0
 19 36  1  0  0  0  0
 19 37  1  0  0  0  0
 20 21  1  0  0  0  0
 20 24  1  0  0  0  0
 21 22  2  0  0  0  0
 22 23  1  0  0  0  0
 22 38  1  0  0  0  0
 23 24  2  0  0  0  0
 23 39  1  0  0  0  0
 24 40  1  0  0  0  0
 25 26  1  0  0  0  0
 25 41  1  0  0  0  0
 25 42  1  0  0  0  0
 26 27  1  0  0  0  0
 27 28  1  0  0  0  0
 27 29  2  0  0  0  0
 28 43  1  0  0  0  0
 28 44  1  0  0  0  0
M  CHG  1  11  -1
M  END
>  <Mol_ID>
1530

>  <Formula>
C16H15N4NaO8S

>  <MolWeight>
446.36707

>  <Cat>
S4620

>  <Name>
Cefuroxime sodium

>  <Synonyms>
N/A

>  <Target>
¦Â-lactamase

>  <Form>
sodium

>  <CAS>
56238-63-2

>  <URL>
http://selleckchem.com/products/cefuroxime-sodium.html

$$$$
