CELLCEPT (mycophenolate mofetil).cdx
 OpenBabel08302520013D

 62 64  0  0  0  0  0  0  0  0999 V2000
    6.7292    0.1931    1.6305 C   0  0  0  0  0  0  0  0  0  0  0  0
    7.2194   -0.5599    0.5870 C   0  0  0  0  0  0  0  0  0  0  0  0
    6.4589   -0.7882   -0.5672 C   0  0  0  0  0  0  0  0  0  0  0  0
    5.1639   -0.2290   -0.6314 C   0  0  0  0  0  0  0  0  0  0  0  0
    4.6695    0.6044    0.4181 C   0  0  0  0  0  0  0  0  0  0  0  0
    5.4697    0.7724    1.5772 C   0  0  0  0  0  0  0  0  0  0  0  0
    7.7231    0.2580    2.7094 C   0  0  0  0  0  0  0  0  0  0  0  0
    8.8157   -0.4570    2.2470 O   0  0  0  0  0  0  0  0  0  0  0  0
    8.6091   -0.9676    0.9154 C   0  0  0  0  0  0  0  0  0  0  0  0
    4.5363   -0.3676   -1.8526 O   0  0  0  0  0  0  0  0  0  0  0  0
    3.1083    2.1596   -0.8690 C   0  0  0  0  0  0  0  0  0  0  0  0
    3.3111    1.2461    0.3058 C   0  0  0  0  0  0  0  0  0  0  0  0
    7.6828    0.8004    3.7976 O   0  0  0  0  0  0  0  0  0  0  0  0
    7.0659   -1.5980   -1.6839 C   0  0  0  0  0  0  0  0  0  0  0  0
    5.0949    1.5162    2.6547 O   0  0  0  0  0  0  0  0  0  0  0  0
    3.2400   -0.9714   -1.8666 C   0  0  0  0  0  0  0  0  0  0  0  0
    2.9428    3.4895   -0.8450 C   0  0  0  0  0  0  0  0  0  0  0  0
    2.3312    4.2301   -2.0282 C   0  0  0  0  0  0  0  0  0  0  0  0
    3.3667    4.2992    0.3612 C   0  0  0  0  0  0  0  0  0  0  0  0
    1.9900    3.5045   -3.3610 C   0  0  0  0  0  0  0  0  0  0  0  0
    0.8404    2.4897   -3.5857 C   0  0  0  0  0  0  0  0  0  0  0  0
   -0.3627    2.8673   -3.0902 O   0  0  0  0  0  0  0  0  0  0  0  0
    1.0128    1.5095   -4.3044 O   0  0  0  0  0  0  0  0  0  0  0  0
   -1.7500    2.4910   -3.4738 C   0  0  0  0  0  0  0  0  0  0  0  0
   -2.4207    1.1041   -3.8931 C   0  0  0  0  0  0  0  0  0  0  0  0
   -2.1778   -0.1230   -3.1059 N   0  0  0  0  0  0  0  0  0  0  0  0
   -0.7803   -0.5368   -3.2411 C   0  0  0  0  0  0  0  0  0  0  0  0
   -0.4886   -1.0006   -4.6745 C   0  0  0  0  0  0  0  0  0  0  0  0
   -1.0686   -2.2933   -4.8502 O   0  0  0  0  0  0  0  0  0  0  0  0
   -2.4762   -2.3008   -4.5808 C   0  0  0  0  0  0  0  0  0  0  0  0
   -2.9859   -1.3263   -3.4665 C   0  0  0  0  0  0  0  0  0  0  0  0
    9.3359   -0.5002    0.2492 H   0  0  0  0  0  0  0  0  0  0  0  0
    8.7339   -2.0506    0.9269 H   0  0  0  0  0  0  0  0  0  0  0  0
    2.9558    1.6695   -1.8183 H   0  0  0  0  0  0  0  0  0  0  0  0
    2.5560    0.4524    0.2627 H   0  0  0  0  0  0  0  0  0  0  0  0
    3.0317    1.7777    1.2163 H   0  0  0  0  0  0  0  0  0  0  0  0
    7.9392   -1.0765   -2.0957 H   0  0  0  0  0  0  0  0  0  0  0  0
    7.3821   -2.5837   -1.3184 H   0  0  0  0  0  0  0  0  0  0  0  0
    6.3674   -1.7725   -2.5063 H   0  0  0  0  0  0  0  0  0  0  0  0
    4.2275    1.9267    2.5611 H   0  0  0  0  0  0  0  0  0  0  0  0
    3.0553   -1.6329   -1.0172 H   0  0  0  0  0  0  0  0  0  0  0  0
    2.4496   -0.2185   -1.9190 H   0  0  0  0  0  0  0  0  0  0  0  0
    3.1432   -1.5388   -2.7973 H   0  0  0  0  0  0  0  0  0  0  0  0
    1.4420    4.7564   -1.6709 H   0  0  0  0  0  0  0  0  0  0  0  0
    3.0685    5.0076   -2.2954 H   0  0  0  0  0  0  0  0  0  0  0  0
    2.6201    4.2513    1.1582 H   0  0  0  0  0  0  0  0  0  0  0  0
    4.3195    3.9263    0.7651 H   0  0  0  0  0  0  0  0  0  0  0  0
    3.5449    5.3494    0.1081 H   0  0  0  0  0  0  0  0  0  0  0  0
    1.8001    4.2909   -4.1034 H   0  0  0  0  0  0  0  0  0  0  0  0
    2.9113    3.0075   -3.7014 H   0  0  0  0  0  0  0  0  0  0  0  0
   -2.3165    2.8102   -2.5920 H   0  0  0  0  0  0  0  0  0  0  0  0
   -2.0217    3.2027   -4.2654 H   0  0  0  0  0  0  0  0  0  0  0  0
   -3.5043    1.3010   -3.8063 H   0  0  0  0  0  0  0  0  0  0  0  0
   -2.2946    0.9512   -4.9706 H   0  0  0  0  0  0  0  0  0  0  0  0
   -0.5954   -1.3659   -2.5479 H   0  0  0  0  0  0  0  0  0  0  0  0
   -0.1504    0.2659   -2.8829 H   0  0  0  0  0  0  0  0  0  0  0  0
   -0.8712   -0.3374   -5.4593 H   0  0  0  0  0  0  0  0  0  0  0  0
    0.5876   -1.0780   -4.8392 H   0  0  0  0  0  0  0  0  0  0  0  0
   -2.6942   -3.3318   -4.2679 H   0  0  0  0  0  0  0  0  0  0  0  0
   -3.0117   -2.1413   -5.5219 H   0  0  0  0  0  0  0  0  0  0  0  0
   -2.9949   -1.9367   -2.5498 H   0  0  0  0  0  0  0  0  0  0  0  0
   -4.0472   -1.0988   -3.6325 H   0  0  0  0  0  0  0  0  0  0  0  0
  1  2  1  0  0  0  0
  1  7  1  0  0  0  0
  2  3  2  0  0  0  0
  3  4  1  0  0  0  0
  3 14  1  0  0  0  0
  4  5  2  0  0  0  0
  4 10  1  0  0  0  0
  5  6  1  0  0  0  0
  6  1  2  0  0  0  0
  6 15  1  0  0  0  0
  7  8  1  0  0  0  0
  7 13  2  0  0  0  0
  8  9  1  0  0  0  0
  9  2  1  0  0  0  0
  9 32  1  0  0  0  0
  9 33  1  0  0  0  0
 10 16  1  0  0  0  0
 11 12  1  0  0  0  0
 11 17  2  0  0  0  0
 11 34  1  0  0  0  0
 12  5  1  0  0  0  0
 12 35  1  0  0  0  0
 12 36  1  0  0  0  0
 14 37  1  0  0  0  0
 14 38  1  0  0  0  0
 14 39  1  0  0  0  0
 15 40  1  0  0  0  0
 16 41  1  0  0  0  0
 16 42  1  0  0  0  0
 16 43  1  0  0  0  0
 17 18  1  0  0  0  0
 17 19  1  0  0  0  0
 18 20  1  0  0  0  0
 18 44  1  0  0  0  0
 18 45  1  0  0  0  0
 19 46  1  0  0  0  0
 19 47  1  0  0  0  0
 19 48  1  0  0  0  0
 20 21  1  0  0  0  0
 20 49  1  0  0  0  0
 20 50  1  0  0  0  0
 21 22  1  0  0  0  0
 21 23  2  0  0  0  0
 22 24  1  0  0  0  0
 24 25  1  0  0  0  0
 24 51  1  0  0  0  0
 24 52  1  0  0  0  0
 25 26  1  0  0  0  0
 25 53  1  0  0  0  0
 25 54  1  0  0  0  0
 26 27  1  0  0  0  0
 27 28  1  0  0  0  0
 27 55  1  0  0  0  0
 27 56  1  0  0  0  0
 28 29  1  0  0  0  0
 28 57  1  0  0  0  0
 28 58  1  0  0  0  0
 29 30  1  0  0  0  0
 30 31  1  0  0  0  0
 30 59  1  0  0  0  0
 30 60  1  0  0  0  0
 31 26  1  0  0  0  0
 31 61  1  0  0  0  0
 31 62  1  0  0  0  0
M  END
>  <Mol_ID>
293

>  <Formula>
C23H31NO7

>  <MolWeight>
433.49474

>  <Cat>
S1501

>  <Name>
Mycophenolate mofetil (RS-61443)

>  <Synonyms>
Mycophenolic acid morpholinoethyl ester, CellCept, RS 61443, TM-MMF

>  <Target>
Apoptosis related,Dehydrogenase

>  <Form>
free base

>  <CAS>
128794-94-5

>  <URL>
http://selleckchem.com/products/Mycophenolate-mofetil-(CellCept).html

$$$$
