Centhaquin
 OpenBabel08302521323D

 50 53  0  0  0  0  0  0  0  0999 V2000
   -0.8240   -0.7601    1.2252 C   0  0  0  0  0  0  0  0  0  0  0  0
    0.3656    0.1850    0.9810 C   0  0  0  0  0  0  0  0  0  0  0  0
    2.6181    8.3643    1.3379 C   0  0  0  0  0  0  0  0  0  0  0  0
   -0.9461   -2.4583   -2.0975 C   0  0  0  0  0  0  0  0  0  0  0  0
   -1.8831   -3.4913   -1.8844 C   0  0  0  0  0  0  0  0  0  0  0  0
   -0.6306   -1.5560   -1.1352 N   0  0  0  0  0  0  0  0  0  0  0  0
   -0.3333   -2.4086   -3.3479 C   0  0  0  0  0  0  0  0  0  0  0  0
   -2.5612   -3.5184   -0.6654 C   0  0  0  0  0  0  0  0  0  0  0  0
   -2.1202   -4.4711   -2.8661 C   0  0  0  0  0  0  0  0  0  0  0  0
   -1.2445   -1.6525    0.0708 C   0  0  0  0  0  0  0  0  0  0  0  0
   -0.5737   -3.3743   -4.3363 C   0  0  0  0  0  0  0  0  0  0  0  0
   -2.2457   -2.5890    0.3164 C   0  0  0  0  0  0  0  0  0  0  0  0
   -1.4524   -4.4206   -4.0858 C   0  0  0  0  0  0  0  0  0  0  0  0
    0.8187    0.8754    2.2166 N   0  0  0  0  0  0  0  0  0  0  0  0
   -0.1841    1.8097    2.7872 C   0  0  0  0  0  0  0  0  0  0  0  0
    2.0563    1.6619    1.9656 C   0  0  0  0  0  0  0  0  0  0  0  0
   -0.4642    3.0625    1.9244 C   0  0  0  0  0  0  0  0  0  0  0  0
    1.8707    2.9557    1.1281 C   0  0  0  0  0  0  0  0  0  0  0  0
    0.7924    3.7971    1.6976 N   0  0  0  0  0  0  0  0  0  0  0  0
    0.7055    5.0594    1.0970 C   0  0  0  0  0  0  0  0  0  0  0  0
    1.6537    6.0348    1.4469 C   0  0  0  0  0  0  0  0  0  0  0  0
   -0.2792    5.4151    0.1668 C   0  0  0  0  0  0  0  0  0  0  0  0
    1.6216    7.3290    0.9090 C   0  0  0  0  0  0  0  0  0  0  0  0
   -0.3069    6.6935   -0.3996 C   0  0  0  0  0  0  0  0  0  0  0  0
    0.6392    7.6473   -0.0313 C   0  0  0  0  0  0  0  0  0  0  0  0
   -1.7056   -0.1806    1.5213 H   0  0  0  0  0  0  0  0  0  0  0  0
   -0.5657   -1.4222    2.0630 H   0  0  0  0  0  0  0  0  0  0  0  0
    1.2033   -0.4193    0.6097 H   0  0  0  0  0  0  0  0  0  0  0  0
    0.1161    0.8959    0.1861 H   0  0  0  0  0  0  0  0  0  0  0  0
    3.2561    8.6513    0.4964 H   0  0  0  0  0  0  0  0  0  0  0  0
    2.0983    9.2511    1.7150 H   0  0  0  0  0  0  0  0  0  0  0  0
    3.2616    7.9927    2.1422 H   0  0  0  0  0  0  0  0  0  0  0  0
    0.3606   -1.5988   -3.5581 H   0  0  0  0  0  0  0  0  0  0  0  0
   -3.3210   -4.2689   -0.4669 H   0  0  0  0  0  0  0  0  0  0  0  0
   -2.8132   -5.2880   -2.6764 H   0  0  0  0  0  0  0  0  0  0  0  0
   -0.0665   -3.3076   -5.2960 H   0  0  0  0  0  0  0  0  0  0  0  0
   -2.7536   -2.6203    1.2751 H   0  0  0  0  0  0  0  0  0  0  0  0
   -1.6204   -5.1908   -4.8346 H   0  0  0  0  0  0  0  0  0  0  0  0
   -1.1199    1.2903    3.0139 H   0  0  0  0  0  0  0  0  0  0  0  0
    0.1938    2.1442    3.7647 H   0  0  0  0  0  0  0  0  0  0  0  0
    2.4688    1.9472    2.9438 H   0  0  0  0  0  0  0  0  0  0  0  0
    2.8214    1.0267    1.5036 H   0  0  0  0  0  0  0  0  0  0  0  0
   -0.9264    2.7591    0.9782 H   0  0  0  0  0  0  0  0  0  0  0  0
   -1.1773    3.7003    2.4614 H   0  0  0  0  0  0  0  0  0  0  0  0
    1.6351    2.6953    0.0887 H   0  0  0  0  0  0  0  0  0  0  0  0
    2.8252    3.4961    1.1260 H   0  0  0  0  0  0  0  0  0  0  0  0
    2.4123    5.7798    2.1856 H   0  0  0  0  0  0  0  0  0  0  0  0
   -1.0300    4.6999   -0.1503 H   0  0  0  0  0  0  0  0  0  0  0  0
   -1.0743    6.9446   -1.1276 H   0  0  0  0  0  0  0  0  0  0  0  0
    0.6017    8.6399   -0.4740 H   0  0  0  0  0  0  0  0  0  0  0  0
  1  2  1  0  0  0  0
  1 10  1  0  0  0  0
  1 26  1  0  0  0  0
  1 27  1  0  0  0  0
  2 14  1  0  0  0  0
  2 28  1  0  0  0  0
  2 29  1  0  0  0  0
  3 23  1  0  0  0  0
  3 30  1  0  0  0  0
  3 31  1  0  0  0  0
  3 32  1  0  0  0  0
  4  5  1  0  0  0  0
  4  6  2  0  0  0  0
  4  7  1  0  0  0  0
  5  8  2  0  0  0  0
  5  9  1  0  0  0  0
  6 10  1  0  0  0  0
  7 11  2  0  0  0  0
  7 33  1  0  0  0  0
  8 12  1  0  0  0  0
  8 34  1  0  0  0  0
  9 13  2  0  0  0  0
  9 35  1  0  0  0  0
 10 12  2  0  0  0  0
 11 13  1  0  0  0  0
 11 36  1  0  0  0  0
 12 37  1  0  0  0  0
 13 38  1  0  0  0  0
 14 15  1  0  0  0  0
 14 16  1  0  0  0  0
 15 17  1  0  0  0  0
 15 39  1  0  0  0  0
 15 40  1  0  0  0  0
 16 18  1  0  0  0  0
 16 41  1  0  0  0  0
 16 42  1  0  0  0  0
 17 19  1  0  0  0  0
 17 43  1  0  0  0  0
 17 44  1  0  0  0  0
 18 19  1  0  0  0  0
 18 45  1  0  0  0  0
 18 46  1  0  0  0  0
 19 20  1  0  0  0  0
 20 21  2  0  0  0  0
 20 22  1  0  0  0  0
 21 23  1  0  0  0  0
 21 47  1  0  0  0  0
 22 24  2  0  0  0  0
 22 48  1  0  0  0  0
 23 25  2  0  0  0  0
 24 25  1  0  0  0  0
 24 49  1  0  0  0  0
 25 50  1  0  0  0  0
M  END
>  <Mol_ID>
6122

>  <Formula>
C22H25N3

>  <MolWeight>
331.454

>  <Cat>
E0104

>  <Name>
Centhaquin

>  <Synonyms>
Centhaquine, PMZ-2010

>  <Target>
Others

>  <Form>
free base

>  <CAS>
57961-90-7

>  <URL>
http://www.selleckchem.com/products/centhaquin.html

$$$$
