CEP33779.cdx
 OpenBabel08302521323D

 59 63  0  0  0  0  0  0  0  0999 V2000
    1.2612   -0.3465   -0.5176 C   0  0  0  0  0  0  0  0  0  0  0  0
    0.4547   -1.3377    0.0549 C   0  0  0  0  0  0  0  0  0  0  0  0
   -0.7777   -1.0348    0.6334 C   0  0  0  0  0  0  0  0  0  0  0  0
   -1.2166    0.2855    0.6792 C   0  0  0  0  0  0  0  0  0  0  0  0
   -0.4282    1.3152    0.1521 C   0  0  0  0  0  0  0  0  0  0  0  0
    0.7778    0.9662   -0.4832 C   0  0  0  0  0  0  0  0  0  0  0  0
    2.4605   -0.7007   -1.1155 N   0  0  0  0  0  0  0  0  0  0  0  0
   -0.8535    2.6552    0.3092 N   0  0  0  0  0  0  0  0  0  0  0  0
   -0.0982    3.7717    0.3066 C   0  0  0  0  0  0  0  0  0  0  0  0
    3.1005    0.1518   -2.1308 C   0  0  0  0  0  0  0  0  0  0  0  0
    3.9879   -0.7467   -3.0309 C   0  0  0  0  0  0  0  0  0  0  0  0
    4.9973   -1.5242   -2.2675 N   0  0  0  0  0  0  0  0  0  0  0  0
    4.3218   -2.2934   -1.1938 C   0  0  0  0  0  0  0  0  0  0  0  0
    3.4513   -1.4038   -0.2795 C   0  0  0  0  0  0  0  0  0  0  0  0
    5.7201   -2.4318   -3.1558 C   0  0  0  0  0  0  0  0  0  0  0  0
   -0.5621    4.8351    1.0276 N   0  0  0  0  0  0  0  0  0  0  0  0
    0.4427    5.6864    0.9898 C   0  0  0  0  0  0  0  0  0  0  0  0
    1.4711    5.1582    0.2162 N   0  0  0  0  0  0  0  0  0  0  0  0
    1.0965    3.9598   -0.2530 N   0  0  0  0  0  0  0  0  0  0  0  0
    0.6600    6.9626    1.6052 C   0  0  0  0  0  0  0  0  0  0  0  0
    1.8477    7.5836    1.4095 C   0  0  0  0  0  0  0  0  0  0  0  0
    2.9007    6.9983    0.5947 C   0  0  0  0  0  0  0  0  0  0  0  0
    2.6863    5.8050    0.0217 C   0  0  0  0  0  0  0  0  0  0  0  0
   -0.3353    7.6188    2.4673 C   0  0  0  0  0  0  0  0  0  0  0  0
   -1.2579    8.5188    1.9174 C   0  0  0  0  0  0  0  0  0  0  0  0
   -2.2312    9.1078    2.7252 C   0  0  0  0  0  0  0  0  0  0  0  0
   -2.2826    8.7836    4.0830 C   0  0  0  0  0  0  0  0  0  0  0  0
   -1.3495    7.9117    4.6509 C   0  0  0  0  0  0  0  0  0  0  0  0
   -0.3790    7.3256    3.8379 C   0  0  0  0  0  0  0  0  0  0  0  0
   -3.5421    9.5041    5.1088 S   0  0  0  0  0  0  0  0  0  0  0  0
   -3.9863   10.7254    4.4643 O   0  0  0  0  0  0  0  0  0  0  0  0
   -4.8603    8.3180    5.0174 C   0  0  0  0  0  0  0  0  0  0  0  0
   -3.0414    9.5207    6.4673 O   0  0  0  0  0  0  0  0  0  0  0  0
    0.7723   -2.3763    0.0156 H   0  0  0  0  0  0  0  0  0  0  0  0
   -1.3863   -1.8311    1.0509 H   0  0  0  0  0  0  0  0  0  0  0  0
   -2.1688    0.5026    1.1544 H   0  0  0  0  0  0  0  0  0  0  0  0
    1.3781    1.7441   -0.9395 H   0  0  0  0  0  0  0  0  0  0  0  0
   -1.7086    2.7417    0.8423 H   0  0  0  0  0  0  0  0  0  0  0  0
    3.7108    0.9314   -1.6551 H   0  0  0  0  0  0  0  0  0  0  0  0
    2.3563    0.6422   -2.7693 H   0  0  0  0  0  0  0  0  0  0  0  0
    4.4942   -0.1130   -3.7682 H   0  0  0  0  0  0  0  0  0  0  0  0
    3.3291   -1.4323   -3.5822 H   0  0  0  0  0  0  0  0  0  0  0  0
    3.6781   -3.0685   -1.6327 H   0  0  0  0  0  0  0  0  0  0  0  0
    5.0729   -2.7980   -0.5755 H   0  0  0  0  0  0  0  0  0  0  0  0
    4.0818   -0.6733    0.2462 H   0  0  0  0  0  0  0  0  0  0  0  0
    2.9884   -2.0356    0.4860 H   0  0  0  0  0  0  0  0  0  0  0  0
    6.4799   -2.9884   -2.5964 H   0  0  0  0  0  0  0  0  0  0  0  0
    5.0552   -3.1544   -3.6433 H   0  0  0  0  0  0  0  0  0  0  0  0
    6.2469   -1.8687   -3.9333 H   0  0  0  0  0  0  0  0  0  0  0  0
    2.0661    8.5463    1.8667 H   0  0  0  0  0  0  0  0  0  0  0  0
    3.8416    7.5258    0.4775 H   0  0  0  0  0  0  0  0  0  0  0  0
    3.4114    5.2839   -0.5891 H   0  0  0  0  0  0  0  0  0  0  0  0
   -1.2303    8.7533    0.8553 H   0  0  0  0  0  0  0  0  0  0  0  0
   -2.9431    9.8049    2.2885 H   0  0  0  0  0  0  0  0  0  0  0  0
   -1.3743    7.6777    5.7130 H   0  0  0  0  0  0  0  0  0  0  0  0
    0.3344    6.6290    4.2744 H   0  0  0  0  0  0  0  0  0  0  0  0
   -4.4996    7.3540    5.3827 H   0  0  0  0  0  0  0  0  0  0  0  0
   -5.6769    8.6719    5.6497 H   0  0  0  0  0  0  0  0  0  0  0  0
   -5.1978    8.2404    3.9827 H   0  0  0  0  0  0  0  0  0  0  0  0
  1  2  2  0  0  0  0
  1  7  1  0  0  0  0
  2  3  1  0  0  0  0
  2 34  1  0  0  0  0
  3  4  2  0  0  0  0
  3 35  1  0  0  0  0
  4  5  1  0  0  0  0
  4 36  1  0  0  0  0
  5  6  2  0  0  0  0
  5  8  1  0  0  0  0
  6  1  1  0  0  0  0
  6 37  1  0  0  0  0
  7 10  1  0  0  0  0
  8  9  1  0  0  0  0
  8 38  1  0  0  0  0
  9 16  1  0  0  0  0
 10 11  1  0  0  0  0
 10 39  1  0  0  0  0
 10 40  1  0  0  0  0
 11 12  1  0  0  0  0
 11 41  1  0  0  0  0
 11 42  1  0  0  0  0
 12 13  1  0  0  0  0
 12 15  1  0  0  0  0
 13 14  1  0  0  0  0
 13 43  1  0  0  0  0
 13 44  1  0  0  0  0
 14  7  1  0  0  0  0
 14 45  1  0  0  0  0
 14 46  1  0  0  0  0
 15 47  1  0  0  0  0
 15 48  1  0  0  0  0
 15 49  1  0  0  0  0
 16 17  2  0  0  0  0
 17 18  1  0  0  0  0
 17 20  1  0  0  0  0
 18 19  1  0  0  0  0
 19  9  2  0  0  0  0
 20 21  2  0  0  0  0
 20 24  1  0  0  0  0
 21 22  1  0  0  0  0
 21 50  1  0  0  0  0
 22 23  2  0  0  0  0
 22 51  1  0  0  0  0
 23 18  1  0  0  0  0
 23 52  1  0  0  0  0
 24 25  2  0  0  0  0
 25 26  1  0  0  0  0
 25 53  1  0  0  0  0
 26 27  2  0  0  0  0
 26 54  1  0  0  0  0
 27 28  1  0  0  0  0
 27 30  1  0  0  0  0
 28 29  2  0  0  0  0
 28 55  1  0  0  0  0
 29 24  1  0  0  0  0
 29 56  1  0  0  0  0
 30 31  2  0  0  0  0
 30 32  1  0  0  0  0
 30 33  2  0  0  0  0
 32 57  1  0  0  0  0
 32 58  1  0  0  0  0
 32 59  1  0  0  0  0
M  END
>  <Mol_ID>
587

>  <Formula>
C24H26N6O2S

>  <MolWeight>
462.56724

>  <Cat>
S2806

>  <Name>
CEP-33779

>  <Synonyms>
N/A

>  <Target>
JAK

>  <Form>
free base

>  <CAS>
1257704-57-6

>  <URL>
http://selleckchem.com/products/cep33779.html

$$$$
