cephapirin sodium.cdx
 OpenBabel08302519573D

 44 46  0  0  0  0  0  0  0  0999 V2000
   -0.7312   -0.5291   -0.4894 N   0  0  0  0  0  0  0  0  0  0  0  0
   -0.0690    0.7155   -0.8469 C   0  0  1  0  0  0  0  0  0  0  0  0
   -0.0754   -1.7035   -0.1835 C   0  0  0  0  0  0  0  0  0  0  0  0
   -1.7861    0.0768    0.1339 C   0  0  0  0  0  0  0  0  0  0  0  0
   -1.4421    1.3976   -0.6002 C   0  0  1  0  0  0  0  0  0  0  0  0
    1.2666    1.0686    0.3403 S   0  0  0  0  0  0  0  0  0  0  0  0
    1.2677   -1.7091    0.0253 C   0  0  0  0  0  0  0  0  0  0  0  0
   -0.9238   -3.0575   -0.2445 C   0  0  0  0  0  0  0  0  0  0  0  0
   -2.5647   -0.1995    1.0234 O   0  0  0  0  0  0  0  0  0  0  0  0
   -1.4809    2.6476    0.2075 N   0  0  0  0  0  0  0  0  0  0  0  0
    2.1374   -0.4760   -0.0798 C   0  0  0  0  0  0  0  0  0  0  0  0
    2.0541   -2.9647    0.3730 C   0  0  0  0  0  0  0  0  0  0  0  0
   -2.1520   -2.9491    0.0184 O   0  0  0  0  0  0  0  0  0  0  0  0
   -0.2973   -4.0634   -0.6950 O   0  5  0  0  0  0  0  0  0  0  0  0
   -2.4220    3.6236   -0.0199 C   0  0  0  0  0  0  0  0  0  0  0  0
    1.5381   -3.6064    1.5512 O   0  0  0  0  0  0  0  0  0  0  0  0
   -2.3680    4.8525    0.8684 C   0  0  0  0  0  0  0  0  0  0  0  0
   -3.2908    3.5245   -0.8866 O   0  0  0  0  0  0  0  0  0  0  0  0
    2.0294   -3.2075    2.7443 C   0  0  0  0  0  0  0  0  0  0  0  0
   -0.6829    5.3152    1.3917 S   0  0  0  0  0  0  0  0  0  0  0  0
    1.4452   -4.0289    3.8590 C   0  0  0  0  0  0  0  0  0  0  0  0
    2.8822   -2.3470    2.9182 O   0  0  0  0  0  0  0  0  0  0  0  0
    0.1799    5.5351   -0.1611 C   0  0  0  0  0  0  0  0  0  0  0  0
   -0.4196    5.9907   -1.3335 C   0  0  0  0  0  0  0  0  0  0  0  0
    1.5494    5.2676   -0.1731 C   0  0  0  0  0  0  0  0  0  0  0  0
    0.3711    6.1488   -2.4617 C   0  0  0  0  0  0  0  0  0  0  0  0
    2.2556    5.4620   -1.3483 C   0  0  0  0  0  0  0  0  0  0  0  0
    1.6966    5.9002   -2.4948 N   0  0  0  0  0  0  0  0  0  0  0  0
    0.2509    0.7555   -1.8937 H   0  0  0  0  0  0  0  0  0  0  0  0
   -2.0145    1.5071   -1.5308 H   0  0  0  0  0  0  0  0  0  0  0  0
   -0.8609    2.7410    1.0081 H   0  0  0  0  0  0  0  0  0  0  0  0
    2.5135   -0.3982   -1.1078 H   0  0  0  0  0  0  0  0  0  0  0  0
    3.0098   -0.5390    0.5776 H   0  0  0  0  0  0  0  0  0  0  0  0
    2.0333   -3.6798   -0.4556 H   0  0  0  0  0  0  0  0  0  0  0  0
    3.1216   -2.7521    0.5104 H   0  0  0  0  0  0  0  0  0  0  0  0
   -2.8179    5.6943    0.3320 H   0  0  0  0  0  0  0  0  0  0  0  0
   -2.9784    4.6657    1.7572 H   0  0  0  0  0  0  0  0  0  0  0  0
    2.2196   -4.6843    4.2704 H   0  0  0  0  0  0  0  0  0  0  0  0
    1.0599   -3.3635    4.6343 H   0  0  0  0  0  0  0  0  0  0  0  0
    0.6181   -4.6510    3.5035 H   0  0  0  0  0  0  0  0  0  0  0  0
   -1.4729    6.2330   -1.3975 H   0  0  0  0  0  0  0  0  0  0  0  0
    2.0664    4.9100    0.7116 H   0  0  0  0  0  0  0  0  0  0  0  0
   -0.0569    6.4974   -3.3977 H   0  0  0  0  0  0  0  0  0  0  0  0
    3.3231    5.2672   -1.3960 H   0  0  0  0  0  0  0  0  0  0  0  0
  1  2  1  0  0  0  0
  1  3  1  0  0  0  0
  1  4  1  0  0  0  0
  2  5  1  0  0  0  0
  2  6  1  0  0  0  0
  2 29  1  6  0  0  0
  3  7  2  0  0  0  0
  3  8  1  0  0  0  0
  4  9  2  0  0  0  0
  4  5  1  0  0  0  0
  5 10  1  0  0  0  0
  5 30  1  6  0  0  0
  6 11  1  0  0  0  0
  7 12  1  0  0  0  0
  7 11  1  0  0  0  0
  8 13  2  0  0  0  0
  8 14  1  0  0  0  0
 10 15  1  0  0  0  0
 10 31  1  0  0  0  0
 11 32  1  0  0  0  0
 11 33  1  0  0  0  0
 12 16  1  0  0  0  0
 12 34  1  0  0  0  0
 12 35  1  0  0  0  0
 15 17  1  0  0  0  0
 15 18  2  0  0  0  0
 16 19  1  0  0  0  0
 17 20  1  0  0  0  0
 17 36  1  0  0  0  0
 17 37  1  0  0  0  0
 19 21  1  0  0  0  0
 19 22  2  0  0  0  0
 20 23  1  0  0  0  0
 21 38  1  0  0  0  0
 21 39  1  0  0  0  0
 21 40  1  0  0  0  0
 23 24  2  0  0  0  0
 23 25  1  0  0  0  0
 24 26  1  0  0  0  0
 24 41  1  0  0  0  0
 25 27  2  0  0  0  0
 25 42  1  0  0  0  0
 26 28  2  0  0  0  0
 26 43  1  0  0  0  0
 27 28  1  0  0  0  0
 27 44  1  0  0  0  0
M  CHG  1  14  -1
M  END
>  <Mol_ID>
2283

>  <Formula>
C17H16N3NaO6S2

>  <MolWeight>
445.44521

>  <Cat>
S4393

>  <Name>
Cephapirin Sodium

>  <Synonyms>
Cefapirin Sodium

>  <Target>
Antibiotics,Bacterial

>  <Form>
sodium

>  <CAS>
24356-60-3

>  <URL>
http://selleckchem.com/products/cephapirin-sodium.html

$$$$
