Cephaeline
 OpenBabel08302521493D

 72 76  0  0  1  0  0  0  0  0999 V2000
    6.0905    0.1082    8.0410 C   0  0  0  0  0  0  0  0  0  0  0  0
    7.4015   -4.2688    3.9793 O   0  0  0  0  0  0  0  0  0  0  0  0
    7.3725   -5.3889    3.1078 C   0  0  0  0  0  0  0  0  0  0  0  0
    6.7168    3.3666    5.7875 C   0  0  0  0  0  0  0  0  0  0  0  0
    5.9804    4.6558    5.4346 C   0  0  0  0  0  0  0  0  0  0  0  0
    4.6910   -5.2150    3.5614 O   0  0  0  0  0  0  0  0  0  0  0  0
    3.3348   -5.6037    3.3812 C   0  0  0  0  0  0  0  0  0  0  0  0
    2.3322   -3.1443    8.1122 O   0  0  0  0  0  0  0  0  0  0  0  0
    1.0986   -3.4370    8.7471 C   0  0  0  0  0  0  0  0  0  0  0  0
    2.6443   -4.2980   10.8285 O   0  0  0  0  0  0  0  0  0  0  0  0
    5.8627    0.2658    4.8507 C   0  0  1  0  0  0  0  0  0  0  0  0
    5.5367   -1.2034    4.5607 C   0  0  0  0  0  0  0  0  0  0  0  0
    4.6797    1.0412    5.2340 N   0  0  3  0  0  0  0  0  0  0  0  0
    7.1227    0.4561    5.7514 C   0  0  0  0  0  0  0  0  0  0  0  0
    4.2095   -1.6238    4.3855 C   0  0  0  0  0  0  0  0  0  0  0  0
    6.5491   -2.1585    4.3642 C   0  0  0  0  0  0  0  0  0  0  0  0
    4.6216    2.0163    6.2964 C   0  0  0  0  0  0  0  0  0  0  0  0
    3.4512    0.7809    4.5200 C   0  0  0  0  0  0  0  0  0  0  0  0
    6.8277    1.1136    7.1015 C   0  0  1  0  0  0  0  0  0  0  0  0
    3.9255   -2.9600    4.0579 C   0  0  0  0  0  0  0  0  0  0  0  0
    3.0540   -0.6861    4.6231 C   0  0  0  0  0  0  0  0  0  0  0  0
    6.2691   -3.4958    4.0413 C   0  0  0  0  0  0  0  0  0  0  0  0
    6.0050    2.4205    6.8095 C   0  0  1  0  0  0  0  0  0  0  0  0
    4.9401   -3.9064    3.8759 C   0  0  0  0  0  0  0  0  0  0  0  0
    6.7684   -1.2689    8.3422 C   0  0  2  0  0  0  0  0  0  0  0  0
    5.7370   -2.2233    8.9489 C   0  0  0  0  0  0  0  0  0  0  0  0
    7.9360   -1.0263    9.2127 N   0  0  0  0  0  0  0  0  0  0  0  0
    5.9621   -2.8780   10.1649 C   0  0  0  0  0  0  0  0  0  0  0  0
    4.5213   -2.4575    8.2828 C   0  0  0  0  0  0  0  0  0  0  0  0
    8.3834   -2.2617    9.8585 C   0  0  0  0  0  0  0  0  0  0  0  0
    4.9111   -3.5775   10.7760 C   0  0  0  0  0  0  0  0  0  0  0  0
    7.3136   -2.7895   10.8234 C   0  0  0  0  0  0  0  0  0  0  0  0
    3.4583   -3.1299    8.8871 C   0  0  0  0  0  0  0  0  0  0  0  0
    3.6492   -3.6576   10.1584 C   0  0  0  0  0  0  0  0  0  0  0  0
    5.1179   -0.1035    7.5957 H   0  0  0  0  0  0  0  0  0  0  0  0
    5.8561    0.6106    8.9896 H   0  0  0  0  0  0  0  0  0  0  0  0
    6.8283   -6.2260    3.5533 H   0  0  0  0  0  0  0  0  0  0  0  0
    6.9774   -5.1211    2.1226 H   0  0  0  0  0  0  0  0  0  0  0  0
    8.4061   -5.7220    2.9702 H   0  0  0  0  0  0  0  0  0  0  0  0
    7.7083    3.6234    6.1737 H   0  0  0  0  0  0  0  0  0  0  0  0
    6.8726    2.8602    4.8303 H   0  0  0  0  0  0  0  0  0  0  0  0
    5.8347    5.2850    6.3173 H   0  0  0  0  0  0  0  0  0  0  0  0
    6.5636    5.2197    4.6983 H   0  0  0  0  0  0  0  0  0  0  0  0
    5.0080    4.4709    4.9727 H   0  0  0  0  0  0  0  0  0  0  0  0
    2.7833   -5.5410    4.3252 H   0  0  0  0  0  0  0  0  0  0  0  0
    2.8486   -5.0126    2.5970 H   0  0  0  0  0  0  0  0  0  0  0  0
    3.3249   -6.6474    3.0551 H   0  0  0  0  0  0  0  0  0  0  0  0
    1.0208   -4.5050    8.9673 H   0  0  0  0  0  0  0  0  0  0  0  0
    0.9404   -2.8199    9.6377 H   0  0  0  0  0  0  0  0  0  0  0  0
    0.3003   -3.1912    8.0391 H   0  0  0  0  0  0  0  0  0  0  0  0
    2.9319   -4.4615   11.7418 H   0  0  0  0  0  0  0  0  0  0  0  0
    6.1540    0.6640    3.8678 H   0  0  0  0  0  0  0  0  0  0  0  0
    7.8427    1.0836    5.2101 H   0  0  0  0  0  0  0  0  0  0  0  0
    7.6886   -0.4589    5.9237 H   0  0  0  0  0  0  0  0  0  0  0  0
    7.5980   -1.8833    4.4477 H   0  0  0  0  0  0  0  0  0  0  0  0
    4.0684    2.9003    5.9647 H   0  0  0  0  0  0  0  0  0  0  0  0
    4.0223    1.6323    7.1322 H   0  0  0  0  0  0  0  0  0  0  0  0
    3.5881    1.0661    3.4704 H   0  0  0  0  0  0  0  0  0  0  0  0
    2.6194    1.3901    4.8970 H   0  0  0  0  0  0  0  0  0  0  0  0
    7.7728    1.4006    7.5788 H   0  0  0  0  0  0  0  0  0  0  0  0
    2.8792   -3.2336    3.9655 H   0  0  0  0  0  0  0  0  0  0  0  0
    2.2587   -0.8822    3.8936 H   0  0  0  0  0  0  0  0  0  0  0  0
    2.6494   -0.8948    5.6219 H   0  0  0  0  0  0  0  0  0  0  0  0
    5.8820    2.9720    7.7508 H   0  0  0  0  0  0  0  0  0  0  0  0
    7.1180   -1.7561    7.4256 H   0  0  0  0  0  0  0  0  0  0  0  0
    8.6908   -0.6464    8.6451 H   0  0  0  0  0  0  0  0  0  0  0  0
    4.3690   -2.0656    7.2804 H   0  0  0  0  0  0  0  0  0  0  0  0
    8.6385   -3.0176    9.1039 H   0  0  0  0  0  0  0  0  0  0  0  0
    9.2996   -2.0615   10.4254 H   0  0  0  0  0  0  0  0  0  0  0  0
    5.0835   -4.0444   11.7419 H   0  0  0  0  0  0  0  0  0  0  0  0
    7.6166   -3.7820   11.1739 H   0  0  0  0  0  0  0  0  0  0  0  0
    7.2375   -2.1323   11.6961 H   0  0  0  0  0  0  0  0  0  0  0  0
  1 35  1  0  0  0  0
  1 36  1  0  0  0  0
  2  3  1  0  0  0  0
  2 22  1  0  0  0  0
  3 37  1  0  0  0  0
  3 38  1  0  0  0  0
  3 39  1  0  0  0  0
  4  5  1  0  0  0  0
  4 40  1  0  0  0  0
  4 41  1  0  0  0  0
  5 42  1  0  0  0  0
  5 43  1  0  0  0  0
  5 44  1  0  0  0  0
  6  7  1  0  0  0  0
  6 24  1  0  0  0  0
  7 45  1  0  0  0  0
  7 46  1  0  0  0  0
  7 47  1  0  0  0  0
  8  9  1  0  0  0  0
  8 33  1  0  0  0  0
  9 48  1  0  0  0  0
  9 49  1  0  0  0  0
  9 50  1  0  0  0  0
 10 34  1  0  0  0  0
 10 51  1  0  0  0  0
 11 12  1  0  0  0  0
 11 13  1  0  0  0  0
 11 14  1  0  0  0  0
 11 52  1  6  0  0  0
 12 15  2  0  0  0  0
 12 16  1  0  0  0  0
 13 17  1  0  0  0  0
 13 18  1  0  0  0  0
 14 19  1  0  0  0  0
 14 53  1  0  0  0  0
 14 54  1  0  0  0  0
 15 20  1  0  0  0  0
 15 21  1  0  0  0  0
 16 22  2  0  0  0  0
 16 55  1  0  0  0  0
 17 23  1  0  0  0  0
 17 56  1  0  0  0  0
 17 57  1  0  0  0  0
 18 21  1  0  0  0  0
 18 58  1  0  0  0  0
 18 59  1  0  0  0  0
 19 23  1  0  0  0  0
 19  1  1  0  0  0  0
 19 60  1  1  0  0  0
 20 24  2  0  0  0  0
 20 61  1  0  0  0  0
 21 62  1  0  0  0  0
 21 63  1  0  0  0  0
 22 24  1  0  0  0  0
 23  4  1  0  0  0  0
 23 64  1  1  0  0  0
 25 26  1  0  0  0  0
 25 27  1  0  0  0  0
 25 65  1  6  0  0  0
 25  1  1  0  0  0  0
 26 28  2  0  0  0  0
 26 29  1  0  0  0  0
 27 30  1  0  0  0  0
 27 66  1  0  0  0  0
 28 31  1  0  0  0  0
 28 32  1  0  0  0  0
 29 33  2  0  0  0  0
 29 67  1  0  0  0  0
 30 32  1  0  0  0  0
 30 68  1  0  0  0  0
 30 69  1  0  0  0  0
 31 34  2  0  0  0  0
 31 70  1  0  0  0  0
 32 71  1  0  0  0  0
 32 72  1  0  0  0  0
 33 34  1  0  0  0  0
M  END
>  <Mol_ID>
9842

>  <Formula>
C28H38N2O4

>  <MolWeight>
466.61232

>  <Cat>
E2477

>  <Name>
Cephaeline

>  <Synonyms>
N/A

>  <Target>
Nrf2,  P450 (e.g. CYP17), Histone Acetyltransferase, Antiviral

>  <Form>
free base

>  <CAS>
483-17-0

>  <URL>
https://www.selleckchem.com/products/cephaeline.html

$$$$
