CETACORT (hydrocortisone).cdx
 OpenBabel08302521212D

 56 59  0  0  0  0  0  0  0  0999 V2000
    1.2082    2.1000    0.0000 C   0  0  0  0  0  0  0  0  0  0  0  0
    1.2082    0.7000    0.0000 C   0  0  0  0  0  0  0  0  0  0  0  0
    2.4207    0.0000    0.0000 C   0  0  0  0  0  0  0  0  0  0  0  0
    3.6331    0.7000    0.0000 C   0  0  0  0  0  0  0  0  0  0  0  0
    3.6331    2.1000    0.0000 C   0  0  2  0  0  0  0  0  0  0  0  0
    2.4207    2.8000    0.0000 C   0  0  0  0  0  0  0  0  0  0  0  0
    4.8455    0.0000    0.0000 C   0  0  0  0  0  0  0  0  0  0  0  0
    6.0580    0.7000    0.0000 C   0  0  0  0  0  0  0  0  0  0  0  0
    6.0580    2.1000    0.0000 C   0  0  2  0  0  0  0  0  0  0  0  0
    4.8455    2.8000    0.0000 C   0  0  3  0  0  0  0  0  0  0  0  0
    7.2704    2.8000    0.0000 C   0  0  3  0  0  0  0  0  0  0  0  0
    7.2704    4.2000    0.0000 C   0  0  3  0  0  0  0  0  0  0  0  0
    6.0580    4.9000    0.0000 C   0  0  0  0  0  0  0  0  0  0  0  0
    4.8455    4.2000    0.0000 C   0  0  3  0  0  0  0  0  0  0  0  0
    8.6019    2.3674    0.0000 C   0  0  0  0  0  0  0  0  0  0  0  0
    9.4248    3.5000    0.0000 C   0  0  0  0  0  0  0  0  0  0  0  0
    8.6019    4.6326    0.0000 C   0  0  3  0  0  0  0  0  0  0  0  0
    0.0000    0.0024    0.0000 O   0  0  0  0  0  0  0  0  0  0  0  0
    3.6331    3.5000    0.0000 C   0  0  0  0  0  0  0  0  0  0  0  0
    7.2704    5.6000    0.0000 C   0  0  0  0  0  0  0  0  0  0  0  0
    3.6373    4.8976    0.0000 O   0  0  0  0  0  0  0  0  0  0  0  0
    9.0330    5.9595    0.0000 C   0  0  0  0  0  0  0  0  0  0  0  0
    8.0995    6.9963    0.0000 O   0  0  0  0  0  0  0  0  0  0  0  0
   10.3977    6.2495    0.0000 C   0  0  0  0  0  0  0  0  0  0  0  0
   10.8288    7.5764    0.0000 O   0  0  0  0  0  0  0  0  0  0  0  0
    9.9798    4.8509    0.0000 O   0  0  0  0  0  0  0  0  0  0  0  0
    0.2816    2.6350    0.0000 H   0  0  0  0  0  0  0  0  0  0  0  0
    1.2082    3.1700    0.0000 H   0  0  0  0  0  0  0  0  0  0  0  0
    2.4207   -1.0320    0.0000 H   0  0  0  0  0  0  0  0  0  0  0  0
    2.4207    3.8700    0.0000 H   0  0  0  0  0  0  0  0  0  0  0  0
    1.4941    3.3350    0.0000 H   0  0  0  0  0  0  0  0  0  0  0  0
    4.8455   -1.0700    0.0000 H   0  0  0  0  0  0  0  0  0  0  0  0
    5.7721   -0.5350    0.0000 H   0  0  0  0  0  0  0  0  0  0  0  0
    6.9846    0.1650    0.0000 H   0  0  0  0  0  0  0  0  0  0  0  0
    6.9847    1.2350    0.0000 H   0  0  0  0  0  0  0  0  0  0  0  0
    5.1314    1.5650    0.0000 H   0  0  0  0  0  0  0  0  0  0  0  0
    4.8455    1.7300    0.0000 H   0  0  0  0  0  0  0  0  0  0  0  0
    6.3437    3.3350    0.0000 H   0  0  0  0  0  0  0  0  0  0  0  0
    6.0580    5.9700    0.0000 H   0  0  0  0  0  0  0  0  0  0  0  0
    5.1314    5.4350    0.0000 H   0  0  0  0  0  0  0  0  0  0  0  0
    5.7721    3.6650    0.0000 H   0  0  0  0  0  0  0  0  0  0  0  0
    8.9326    1.3498    0.0000 H   0  0  0  0  0  0  0  0  0  0  0  0
    9.6587    2.2000    0.0000 H   0  0  0  0  0  0  0  0  0  0  0  0
   10.4948    3.5000    0.0000 H   0  0  0  0  0  0  0  0  0  0  0  0
    9.9106    4.4534    0.0000 H   0  0  0  0  0  0  0  0  0  0  0  0
    4.5597    4.0350    0.0000 H   0  0  0  0  0  0  0  0  0  0  0  0
    2.7065    4.0350    0.0000 H   0  0  0  0  0  0  0  0  0  0  0  0
    3.6331    4.5700    0.0000 H   0  0  0  0  0  0  0  0  0  0  0  0
    8.1970    6.1350    0.0000 H   0  0  0  0  0  0  0  0  0  0  0  0
    6.3438    6.1350    0.0000 H   0  0  0  0  0  0  0  0  0  0  0  0
    7.2704    6.6700    0.0000 H   0  0  0  0  0  0  0  0  0  0  0  0
    3.6373    5.8676    0.0000 H   0  0  0  0  0  0  0  0  0  0  0  0
   11.1137    5.4543    0.0000 H   0  0  0  0  0  0  0  0  0  0  0  0
   11.4443    6.4720    0.0000 H   0  0  0  0  0  0  0  0  0  0  0  0
   11.7776    7.7781    0.0000 H   0  0  0  0  0  0  0  0  0  0  0  0
   10.5903    4.0971    0.0000 H   0  0  0  0  0  0  0  0  0  0  0  0
  1  2  1  0  0  0  0
  1 27  1  0  0  0  0
  1 28  1  0  0  0  0
  2  3  1  0  0  0  0
  2 18  2  0  0  0  0
  3  4  2  0  0  0  0
  3 29  1  0  0  0  0
  4  5  1  0  0  0  0
  4  7  1  0  0  0  0
  5  6  1  0  0  0  0
  5 19  1  1  0  0  0
  6  1  1  0  0  0  0
  6 30  1  0  0  0  0
  6 31  1  0  0  0  0
  7  8  1  0  0  0  0
  7 32  1  0  0  0  0
  7 33  1  0  0  0  0
  8 34  1  0  0  0  0
  8 35  1  0  0  0  0
  9  8  1  0  0  0  0
  9 10  1  0  0  0  0
  9 11  1  0  0  0  0
  9 36  1  1  0  0  0
 10  5  1  0  0  0  0
 10 14  1  0  0  0  0
 10 37  1  0  0  0  0
 11 12  1  0  0  0  0
 11 15  1  0  0  0  0
 11 38  1  0  0  0  0
 12 13  1  0  0  0  0
 12 20  1  0  0  0  0
 13 14  1  0  0  0  0
 13 39  1  0  0  0  0
 13 40  1  0  0  0  0
 14 21  1  0  0  0  0
 14 41  1  0  0  0  0
 15 16  1  0  0  0  0
 15 42  1  0  0  0  0
 15 43  1  0  0  0  0
 16 17  1  0  0  0  0
 16 44  1  0  0  0  0
 16 45  1  0  0  0  0
 17 12  1  0  0  0  0
 17 22  1  0  0  0  0
 17 26  1  0  0  0  0
 19 46  1  0  0  0  0
 19 47  1  0  0  0  0
 19 48  1  0  0  0  0
 20 49  1  0  0  0  0
 20 50  1  0  0  0  0
 20 51  1  0  0  0  0
 21 52  1  0  0  0  0
 22 23  2  0  0  0  0
 22 24  1  0  0  0  0
 24 25  1  0  0  0  0
 24 53  1  0  0  0  0
 24 54  1  0  0  0  0
 25 55  1  0  0  0  0
 26 56  1  0  0  0  0
M  END
>  <Mol_ID>
398

>  <Formula>
C21H30O5

>  <MolWeight>
362.4599

>  <Cat>
S1696

>  <Name>
Hydrocortisone (NSC 10483)

>  <Synonyms>
Cortisol

>  <Target>
Glucocorticoid Receptor

>  <Form>
free base

>  <CAS>
50-23-7

>  <URL>
http://selleckchem.com/products/Hydrocortisone.html

$$$$
