CETIRIZINE DI HCL.cdx
 OpenBabel08302522063D

 52 54  0  0  0  0  0  0  0  0999 V2000
    3.7950    2.2806   -0.5631 C   0  0  0  0  0  0  0  0  0  0  0  0
    5.1582    1.9862   -0.4801 C   0  0  0  0  0  0  0  0  0  0  0  0
    5.6178    0.7176   -0.8192 C   0  0  0  0  0  0  0  0  0  0  0  0
    4.7273   -0.2265   -1.3197 C   0  0  0  0  0  0  0  0  0  0  0  0
    3.3652    0.0734   -1.4138 C   0  0  0  0  0  0  0  0  0  0  0  0
    2.8590    1.2982   -0.9460 C   0  0  0  0  0  0  0  0  0  0  0  0
    1.3460    1.5841   -0.7765 C   0  0  0  0  0  0  0  0  0  0  0  0
    0.4142    0.3951   -1.0376 C   0  0  0  0  0  0  0  0  0  0  0  0
    1.0521    2.2743    0.5052 N   0  0  0  0  0  0  0  0  0  0  0  0
    0.5154   -0.8025   -0.3073 C   0  0  0  0  0  0  0  0  0  0  0  0
   -0.3219   -1.8854   -0.5672 C   0  0  0  0  0  0  0  0  0  0  0  0
   -1.2912   -1.7858   -1.5626 C   0  0  0  0  0  0  0  0  0  0  0  0
   -1.4209   -0.6096   -2.2919 C   0  0  0  0  0  0  0  0  0  0  0  0
   -0.5711    0.4724   -2.0348 C   0  0  0  0  0  0  0  0  0  0  0  0
    1.5716    1.6990    1.7471 C   0  0  0  0  0  0  0  0  0  0  0  0
    0.5391    1.1105    2.7421 C   0  0  0  0  0  0  0  0  0  0  0  0
   -0.6759    1.9174    2.9820 N   0  0  0  0  0  0  0  0  0  0  0  0
   -1.2303    2.3287    1.6851 C   0  0  0  0  0  0  0  0  0  0  0  0
   -0.2503    2.9234    0.6399 C   0  0  0  0  0  0  0  0  0  0  0  0
   -0.4274    2.9791    3.9675 C   0  0  0  0  0  0  0  0  0  0  0  0
   -1.5254    4.0301    4.2713 C   0  0  0  0  0  0  0  0  0  0  0  0
   -2.8162    3.5201    4.6684 O   0  0  0  0  0  0  0  0  0  0  0  0
   -3.6609    4.6344    5.0101 C   0  0  0  0  0  0  0  0  0  0  0  0
   -5.1064    4.2895    5.3689 C   0  0  0  0  0  0  0  0  0  0  0  0
   -5.3439    2.9603    5.3690 O   0  0  0  0  0  0  0  0  0  0  0  0
   -5.9531    5.1249    5.6504 O   0  0  0  0  0  0  0  0  0  0  0  0
    3.4513    3.2689   -0.2631 H   0  0  0  0  0  0  0  0  0  0  0  0
    5.8537    2.7380   -0.1175 H   0  0  0  0  0  0  0  0  0  0  0  0
    6.6682    0.4667   -0.7008 H   0  0  0  0  0  0  0  0  0  0  0  0
    5.0845   -1.2099   -1.6141 H   0  0  0  0  0  0  0  0  0  0  0  0
    2.7077   -0.6924   -1.8181 H   0  0  0  0  0  0  0  0  0  0  0  0
    1.1479    2.3183   -1.5720 H   0  0  0  0  0  0  0  0  0  0  0  0
    1.2832   -0.9116    0.4563 H   0  0  0  0  0  0  0  0  0  0  0  0
   -0.2111   -2.8058   -0.0011 H   0  0  0  0  0  0  0  0  0  0  0  0
   -1.9510   -2.6272   -1.7598 H   0  0  0  0  0  0  0  0  0  0  0  0
   -2.1793   -0.5338   -3.0670 H   0  0  0  0  0  0  0  0  0  0  0  0
   -0.6838    1.3760   -2.6334 H   0  0  0  0  0  0  0  0  0  0  0  0
    2.3318    0.9299    1.5645 H   0  0  0  0  0  0  0  0  0  0  0  0
    2.1124    2.5069    2.2574 H   0  0  0  0  0  0  0  0  0  0  0  0
    0.2156    0.1323    2.3712 H   0  0  0  0  0  0  0  0  0  0  0  0
    1.0524    0.8999    3.6903 H   0  0  0  0  0  0  0  0  0  0  0  0
   -1.6789    1.4309    1.2404 H   0  0  0  0  0  0  0  0  0  0  0  0
   -2.0688    3.0192    1.8266 H   0  0  0  0  0  0  0  0  0  0  0  0
   -0.0561    3.9659    0.9190 H   0  0  0  0  0  0  0  0  0  0  0  0
   -0.7695    2.9754   -0.3251 H   0  0  0  0  0  0  0  0  0  0  0  0
   -0.2064    2.4783    4.9203 H   0  0  0  0  0  0  0  0  0  0  0  0
    0.4747    3.5419    3.6941 H   0  0  0  0  0  0  0  0  0  0  0  0
   -1.1469    4.6445    5.1004 H   0  0  0  0  0  0  0  0  0  0  0  0
   -1.6529    4.6849    3.4029 H   0  0  0  0  0  0  0  0  0  0  0  0
   -3.2343    5.1394    5.8828 H   0  0  0  0  0  0  0  0  0  0  0  0
   -3.7125    5.3162    4.1556 H   0  0  0  0  0  0  0  0  0  0  0  0
   -4.5223    2.4888    5.1125 H   0  0  0  0  0  0  0  0  0  0  0  0
  1  2  2  0  0  0  0
  1 27  1  0  0  0  0
  2  3  1  0  0  0  0
  2 28  1  0  0  0  0
  3  4  2  0  0  0  0
  3 29  1  0  0  0  0
  4  5  1  0  0  0  0
  4 30  1  0  0  0  0
  5  6  2  0  0  0  0
  5 31  1  0  0  0  0
  6  1  1  0  0  0  0
  6  7  1  0  0  0  0
  7  8  1  0  0  0  0
  7  9  1  0  0  0  0
  7 32  1  0  0  0  0
  8 10  2  0  0  0  0
  9 15  1  0  0  0  0
 10 11  1  0  0  0  0
 10 33  1  0  0  0  0
 11 12  2  0  0  0  0
 11 34  1  0  0  0  0
 12 13  1  0  0  0  0
 12 35  1  0  0  0  0
 13 14  2  0  0  0  0
 13 36  1  0  0  0  0
 14  8  1  0  0  0  0
 14 37  1  0  0  0  0
 15 16  1  0  0  0  0
 15 38  1  0  0  0  0
 15 39  1  0  0  0  0
 16 17  1  0  0  0  0
 16 40  1  0  0  0  0
 16 41  1  0  0  0  0
 17 18  1  0  0  0  0
 17 20  1  0  0  0  0
 18 19  1  0  0  0  0
 18 42  1  0  0  0  0
 18 43  1  0  0  0  0
 19  9  1  0  0  0  0
 19 44  1  0  0  0  0
 19 45  1  0  0  0  0
 20 21  1  0  0  0  0
 20 46  1  0  0  0  0
 20 47  1  0  0  0  0
 21 22  1  0  0  0  0
 21 48  1  0  0  0  0
 21 49  1  0  0  0  0
 22 23  1  0  0  0  0
 23 24  1  0  0  0  0
 23 50  1  0  0  0  0
 23 51  1  0  0  0  0
 24 25  1  0  0  0  0
 24 26  2  0  0  0  0
 25 52  1  0  0  0  0
M  END
>  <Mol_ID>
160

>  <Formula>
C21H27Cl3N2O3

>  <MolWeight>
461.80968

>  <Cat>
S1291

>  <Name>
Cetirizine DiHCl

>  <Synonyms>
Zyrtec, Reactine,UCB P071

>  <Target>
Histamine Receptor

>  <Form>
Dihydrochloride

>  <CAS>
83881-52-1

>  <URL>
http://selleckchem.com/products/Cetirizine-Dihydrochloride.html

$$$$
