cetrimonium bromide.cdx
 OpenBabel08302522043D

 63 61  0  0  0  0  0  0  0  0999 V2000
   -3.3674    0.8519   -5.9999 C   0  0  0  0  0  0  0  0  0  0  0  0
   -3.8259    0.6948   -4.5596 C   0  0  0  0  0  0  0  0  0  0  0  0
   -3.2870    1.8207   -3.6820 C   0  0  0  0  0  0  0  0  0  0  0  0
   -3.7484    1.6607   -2.2340 C   0  0  0  0  0  0  0  0  0  0  0  0
   -3.1955    2.7852   -1.3592 C   0  0  0  0  0  0  0  0  0  0  0  0
   -3.6581    2.6315    0.0872 C   0  0  0  0  0  0  0  0  0  0  0  0
   -3.1077    3.7610    0.9559 C   0  0  0  0  0  0  0  0  0  0  0  0
   -3.5820    3.6203    2.3966 C   0  0  0  0  0  0  0  0  0  0  0  0
   -3.0471    4.7585    3.2677 C   0  0  0  0  0  0  0  0  0  0  0  0
   -3.5224    4.5853    4.7046 C   0  0  0  0  0  0  0  0  0  0  0  0
   -2.9771    5.6820    5.6214 C   0  0  0  0  0  0  0  0  0  0  0  0
   -3.4401    5.5178    7.0735 C   0  0  0  0  0  0  0  0  0  0  0  0
   -2.9320    4.2155    7.6915 C   0  0  0  0  0  0  0  0  0  0  0  0
   -3.3496    4.0481    9.1516 C   0  0  0  0  0  0  0  0  0  0  0  0
   -2.9126    2.6897    9.7235 C   0  0  0  0  0  0  0  0  0  0  0  0
   -1.3907    2.5253    9.7122 C   0  0  0  0  0  0  0  0  0  0  0  0
   -0.8978    1.1900   10.2890 N   0  3  0  0  0  0  0  0  0  0  0  0
   -1.4203    0.0061    9.4803 C   0  0  0  0  0  0  0  0  0  0  0  0
    0.6337    1.1894   10.1883 C   0  0  0  0  0  0  0  0  0  0  0  0
   -1.2852    1.0306   11.7501 C   0  0  0  0  0  0  0  0  0  0  0  0
    3.3994   -2.6115    0.5333 Br  0  5  0  0  0  0  0  0  0  0  0  0
   -3.7609    1.7755   -6.4363 H   0  0  0  0  0  0  0  0  0  0  0  0
   -3.7224    0.0114   -6.6040 H   0  0  0  0  0  0  0  0  0  0  0  0
   -2.2749    0.8801   -6.0633 H   0  0  0  0  0  0  0  0  0  0  0  0
   -4.9216    0.6869   -4.5278 H   0  0  0  0  0  0  0  0  0  0  0  0
   -3.4822   -0.2721   -4.1747 H   0  0  0  0  0  0  0  0  0  0  0  0
   -2.1911    1.8257   -3.7190 H   0  0  0  0  0  0  0  0  0  0  0  0
   -3.6273    2.7882   -4.0710 H   0  0  0  0  0  0  0  0  0  0  0  0
   -4.8443    1.6673   -2.1926 H   0  0  0  0  0  0  0  0  0  0  0  0
   -3.4136    0.6930   -1.8435 H   0  0  0  0  0  0  0  0  0  0  0  0
   -2.0991    2.7777   -1.3978 H   0  0  0  0  0  0  0  0  0  0  0  0
   -3.5262    3.7543   -1.7507 H   0  0  0  0  0  0  0  0  0  0  0  0
   -4.7541    2.6368    0.1265 H   0  0  0  0  0  0  0  0  0  0  0  0
   -3.3243    1.6646    0.4827 H   0  0  0  0  0  0  0  0  0  0  0  0
   -2.0113    3.7476    0.9264 H   0  0  0  0  0  0  0  0  0  0  0  0
   -3.4319    4.7282    0.5532 H   0  0  0  0  0  0  0  0  0  0  0  0
   -4.6794    3.6184    2.4281 H   0  0  0  0  0  0  0  0  0  0  0  0
   -3.2477    2.6563    2.8030 H   0  0  0  0  0  0  0  0  0  0  0  0
   -1.9506    4.7594    3.2375 H   0  0  0  0  0  0  0  0  0  0  0  0
   -3.3886    5.7225    2.8746 H   0  0  0  0  0  0  0  0  0  0  0  0
   -4.6193    4.5918    4.7398 H   0  0  0  0  0  0  0  0  0  0  0  0
   -3.1940    3.6001    5.0530 H   0  0  0  0  0  0  0  0  0  0  0  0
   -1.8807    5.6819    5.5845 H   0  0  0  0  0  0  0  0  0  0  0  0
   -3.3065    6.6610    5.2538 H   0  0  0  0  0  0  0  0  0  0  0  0
   -3.0641    6.3668    7.6570 H   0  0  0  0  0  0  0  0  0  0  0  0
   -4.5347    5.5554    7.1194 H   0  0  0  0  0  0  0  0  0  0  0  0
   -3.3140    3.3543    7.1341 H   0  0  0  0  0  0  0  0  0  0  0  0
   -1.8406    4.2043    7.6039 H   0  0  0  0  0  0  0  0  0  0  0  0
   -2.9313    4.8598    9.7579 H   0  0  0  0  0  0  0  0  0  0  0  0
   -4.4417    4.1211    9.2257 H   0  0  0  0  0  0  0  0  0  0  0  0
   -3.2998    2.6149   10.7451 H   0  0  0  0  0  0  0  0  0  0  0  0
   -3.3928    1.8983    9.1381 H   0  0  0  0  0  0  0  0  0  0  0  0
   -0.9974    2.5702    8.6920 H   0  0  0  0  0  0  0  0  0  0  0  0
   -0.9200    3.3216   10.3018 H   0  0  0  0  0  0  0  0  0  0  0  0
   -1.1622    0.1621    8.4291 H   0  0  0  0  0  0  0  0  0  0  0  0
   -0.9486   -0.9052    9.8609 H   0  0  0  0  0  0  0  0  0  0  0  0
   -2.5037   -0.0616    9.6088 H   0  0  0  0  0  0  0  0  0  0  0  0
    1.0165    2.0243   10.7823 H   0  0  0  0  0  0  0  0  0  0  0  0
    1.0081    0.2385   10.5772 H   0  0  0  0  0  0  0  0  0  0  0  0
    0.9105    1.3072    9.1358 H   0  0  0  0  0  0  0  0  0  0  0  0
   -1.0150    1.9467   12.2834 H   0  0  0  0  0  0  0  0  0  0  0  0
   -2.3609    0.8484   11.8148 H   0  0  0  0  0  0  0  0  0  0  0  0
   -0.7405    0.1759   12.1623 H   0  0  0  0  0  0  0  0  0  0  0  0
  1  2  1  0  0  0  0
  1 22  1  0  0  0  0
  1 23  1  0  0  0  0
  1 24  1  0  0  0  0
  2  3  1  0  0  0  0
  2 25  1  0  0  0  0
  2 26  1  0  0  0  0
  3  4  1  0  0  0  0
  3 27  1  0  0  0  0
  3 28  1  0  0  0  0
  4  5  1  0  0  0  0
  4 29  1  0  0  0  0
  4 30  1  0  0  0  0
  5  6  1  0  0  0  0
  5 31  1  0  0  0  0
  5 32  1  0  0  0  0
  6  7  1  0  0  0  0
  6 33  1  0  0  0  0
  6 34  1  0  0  0  0
  7  8  1  0  0  0  0
  7 35  1  0  0  0  0
  7 36  1  0  0  0  0
  8  9  1  0  0  0  0
  8 37  1  0  0  0  0
  8 38  1  0  0  0  0
  9 10  1  0  0  0  0
  9 39  1  0  0  0  0
  9 40  1  0  0  0  0
 10 11  1  0  0  0  0
 10 41  1  0  0  0  0
 10 42  1  0  0  0  0
 11 12  1  0  0  0  0
 11 43  1  0  0  0  0
 11 44  1  0  0  0  0
 12 13  1  0  0  0  0
 12 45  1  0  0  0  0
 12 46  1  0  0  0  0
 13 14  1  0  0  0  0
 13 47  1  0  0  0  0
 13 48  1  0  0  0  0
 14 15  1  0  0  0  0
 14 49  1  0  0  0  0
 14 50  1  0  0  0  0
 15 16  1  0  0  0  0
 15 51  1  0  0  0  0
 15 52  1  0  0  0  0
 16 17  1  0  0  0  0
 16 53  1  0  0  0  0
 16 54  1  0  0  0  0
 17 18  1  0  0  0  0
 17 19  1  0  0  0  0
 17 20  1  0  0  0  0
 18 55  1  0  0  0  0
 18 56  1  0  0  0  0
 18 57  1  0  0  0  0
 19 58  1  0  0  0  0
 19 59  1  0  0  0  0
 19 60  1  0  0  0  0
 20 61  1  0  0  0  0
 20 62  1  0  0  0  0
 20 63  1  0  0  0  0
M  CHG  2  17   1  21  -1
M  END
>  <Mol_ID>
1319

>  <Formula>
C19H42BrN

>  <MolWeight>
364.44748

>  <Cat>
S4242

>  <Name>
Cetrimonium Bromide (CTAB)

>  <Synonyms>
N/A

>  <Target>
Anti-infection

>  <Form>
free base

>  <CAS>
57-09-0

>  <URL>
http://selleckchem.com/products/cetrimonium-bromide.html

$$$$
