CFT7455
 OpenBabel08302521353D

 62 67  0  0  0  0  0  0  0  0999 V2000
    1.2695    0.1575   -0.1823 C   0  0  0  0  0  0  0  0  0  0  0  0
    1.0028   -7.1193    0.2084 O   0  0  0  0  0  0  0  0  0  0  0  0
   -3.4237   -5.3008   -0.8515 O   0  0  0  0  0  0  0  0  0  0  0  0
   -3.4909   -3.4704    3.2027 O   0  0  0  0  0  0  0  0  0  0  0  0
    2.0681    3.3497   -5.0000 C   0  0  0  0  0  0  0  0  0  0  0  0
    1.0826   -3.6202   -0.1338 C   0  0  0  0  0  0  0  0  0  0  0  0
   -0.2719   -3.8622   -0.0115 C   0  0  0  0  0  0  0  0  0  0  0  0
    1.6660   -2.3842   -0.2238 C   0  0  0  0  0  0  0  0  0  0  0  0
    1.7606   -4.8261   -0.1054 C   0  0  0  0  0  0  0  0  0  0  0  0
   -0.4285   -5.2500    0.1549 N   0  0  0  0  0  0  0  0  0  0  0  0
   -1.1681   -2.8067   -0.0846 C   0  0  0  0  0  0  0  0  0  0  0  0
    0.7795   -1.2733   -0.2083 C   0  0  0  0  0  0  0  0  0  0  0  0
    3.0774   -2.3983   -0.2931 C   0  0  0  0  0  0  0  0  0  0  0  0
    0.8250   -5.9118    0.0782 C   0  0  0  0  0  0  0  0  0  0  0  0
    3.1460   -4.8515   -0.2171 C   0  0  0  0  0  0  0  0  0  0  0  0
   -0.6172   -1.5135   -0.1740 C   0  0  0  0  0  0  0  0  0  0  0  0
    3.7933   -3.6120   -0.3091 C   0  0  0  0  0  0  0  0  0  0  0  0
   -1.6016   -6.0013    0.5897 C   0  0  2  0  0  0  0  0  0  0  0  0
   -2.9537   -5.3725    0.2824 C   0  0  0  0  0  0  0  0  0  0  0  0
   -1.5498   -6.3735    2.0794 C   0  0  0  0  0  0  0  0  0  0  0  0
   -3.5829   -4.7256    1.3254 N   0  0  0  0  0  0  0  0  0  0  0  0
   -1.8067   -5.1643    2.9663 C   0  0  0  0  0  0  0  0  0  0  0  0
   -3.0310   -4.3929    2.5358 C   0  0  0  0  0  0  0  0  0  0  0  0
    1.4137    0.8399   -1.5228 C   0  0  0  0  0  0  0  0  0  0  0  0
    0.3711    1.6187   -2.0431 C   0  0  0  0  0  0  0  0  0  0  0  0
    2.6192    0.7788   -2.2331 C   0  0  0  0  0  0  0  0  0  0  0  0
    0.5577    2.3782   -3.2031 C   0  0  0  0  0  0  0  0  0  0  0  0
    2.8083    1.5409   -3.3893 C   0  0  0  0  0  0  0  0  0  0  0  0
    1.7934    2.3813   -3.8638 C   0  0  0  0  0  0  0  0  0  0  0  0
    2.8634    4.5093   -4.5608 N   0  0  0  0  0  0  0  0  0  0  0  0
    2.1476    5.4160   -3.6356 C   0  0  0  0  0  0  0  0  0  0  0  0
    3.3668    5.3085   -5.6969 C   0  0  0  0  0  0  0  0  0  0  0  0
    1.1339    6.3582   -4.3081 C   0  0  0  0  0  0  0  0  0  0  0  0
    2.3148    6.2266   -6.3405 C   0  0  0  0  0  0  0  0  0  0  0  0
    1.7330    7.1062   -5.3722 O   0  0  0  0  0  0  0  0  0  0  0  0
    2.2194    0.2205    0.3642 H   0  0  0  0  0  0  0  0  0  0  0  0
    0.5848    0.7496    0.4429 H   0  0  0  0  0  0  0  0  0  0  0  0
    2.6335    2.7901   -5.7588 H   0  0  0  0  0  0  0  0  0  0  0  0
    1.1301    3.6462   -5.4838 H   0  0  0  0  0  0  0  0  0  0  0  0
   -2.2421   -2.9290   -0.0992 H   0  0  0  0  0  0  0  0  0  0  0  0
    3.6398   -1.4711   -0.3394 H   0  0  0  0  0  0  0  0  0  0  0  0
    3.6886   -5.7907   -0.2183 H   0  0  0  0  0  0  0  0  0  0  0  0
   -1.3057   -0.6688   -0.2075 H   0  0  0  0  0  0  0  0  0  0  0  0
    4.8788   -3.5848   -0.3890 H   0  0  0  0  0  0  0  0  0  0  0  0
   -1.5826   -6.9508    0.0355 H   0  0  0  0  0  0  0  0  0  0  0  0
   -2.3250   -7.1260    2.2830 H   0  0  0  0  0  0  0  0  0  0  0  0
   -0.5920   -6.8288    2.3523 H   0  0  0  0  0  0  0  0  0  0  0  0
   -4.3963   -4.1852    1.0613 H   0  0  0  0  0  0  0  0  0  0  0  0
   -1.9656   -5.5003    3.9966 H   0  0  0  0  0  0  0  0  0  0  0  0
   -0.9474   -4.4851    2.9591 H   0  0  0  0  0  0  0  0  0  0  0  0
   -0.5805    1.6828   -1.5207 H   0  0  0  0  0  0  0  0  0  0  0  0
    3.4484    0.1805   -1.8689 H   0  0  0  0  0  0  0  0  0  0  0  0
   -0.2510    3.0134   -3.5559 H   0  0  0  0  0  0  0  0  0  0  0  0
    3.7729    1.5126   -3.8922 H   0  0  0  0  0  0  0  0  0  0  0  0
    2.9115    6.0361   -3.1490 H   0  0  0  0  0  0  0  0  0  0  0  0
    1.6604    4.8708   -2.8216 H   0  0  0  0  0  0  0  0  0  0  0  0
    4.1766    5.9406   -5.3089 H   0  0  0  0  0  0  0  0  0  0  0  0
    3.8235    4.6640   -6.4565 H   0  0  0  0  0  0  0  0  0  0  0  0
    0.2664    5.8132   -4.6962 H   0  0  0  0  0  0  0  0  0  0  0  0
    0.7664    7.0814   -3.5720 H   0  0  0  0  0  0  0  0  0  0  0  0
    2.7909    6.8518   -7.1031 H   0  0  0  0  0  0  0  0  0  0  0  0
    1.5201    5.6540   -6.8312 H   0  0  0  0  0  0  0  0  0  0  0  0
  1 12  1  0  0  0  0
  1 24  1  0  0  0  0
  1 36  1  0  0  0  0
  1 37  1  0  0  0  0
  2 14  2  0  0  0  0
  3 19  2  0  0  0  0
  4 23  2  0  0  0  0
  5 29  1  0  0  0  0
  5 30  1  0  0  0  0
  5 38  1  0  0  0  0
  5 39  1  0  0  0  0
  6  7  1  0  0  0  0
  6  8  2  0  0  0  0
  6  9  1  0  0  0  0
  7 10  1  0  0  0  0
  7 11  2  0  0  0  0
  8 12  1  0  0  0  0
  8 13  1  0  0  0  0
  9 14  1  0  0  0  0
  9 15  2  0  0  0  0
 10 14  1  0  0  0  0
 11 16  1  0  0  0  0
 11 40  1  0  0  0  0
 12 16  2  0  0  0  0
 13 17  2  0  0  0  0
 13 41  1  0  0  0  0
 15 17  1  0  0  0  0
 15 42  1  0  0  0  0
 16 43  1  0  0  0  0
 17 44  1  0  0  0  0
 18 10  1  0  0  0  0
 18 19  1  0  0  0  0
 18 20  1  0  0  0  0
 18 45  1  6  0  0  0
 19 21  1  0  0  0  0
 20 22  1  0  0  0  0
 20 46  1  0  0  0  0
 20 47  1  0  0  0  0
 21 23  1  0  0  0  0
 21 48  1  0  0  0  0
 22 23  1  0  0  0  0
 22 49  1  0  0  0  0
 22 50  1  0  0  0  0
 24 25  2  0  0  0  0
 24 26  1  0  0  0  0
 25 27  1  0  0  0  0
 25 51  1  0  0  0  0
 26 28  2  0  0  0  0
 26 52  1  0  0  0  0
 27 29  2  0  0  0  0
 27 53  1  0  0  0  0
 28 29  1  0  0  0  0
 28 54  1  0  0  0  0
 30 31  1  0  0  0  0
 30 32  1  0  0  0  0
 31 33  1  0  0  0  0
 31 55  1  0  0  0  0
 31 56  1  0  0  0  0
 32 34  1  0  0  0  0
 32 57  1  0  0  0  0
 32 58  1  0  0  0  0
 33 35  1  0  0  0  0
 33 59  1  0  0  0  0
 33 60  1  0  0  0  0
 34 35  1  0  0  0  0
 34 61  1  0  0  0  0
 34 62  1  0  0  0  0
M  END
>  <Mol_ID>
6906

>  <Formula>
C28H27N3O4

>  <MolWeight>
469.53168

>  <Cat>
E1184

>  <Name>
CFT7455

>  <Target>
Others

>  <Form>
Free base

>  <CAS>
2504235-67-8

>  <URL>
https://www.selleckchem.com/products/cft7455.html

$$$$
