CGP-37157
 OpenBabel08302521353D

 31 33  0  0  0  0  0  0  0  0999 V2000
    1.5090   -0.8835   -1.1191 C   0  0  0  0  0  0  0  0  0  0  0  0
   -1.0159    0.1485   -0.4205 C   0  0  0  0  0  0  0  0  0  0  0  0
   -0.0623    0.9614   -1.0308 C   0  0  0  0  0  0  0  0  0  0  0  0
    2.9862   -1.3414   -1.2098 C   0  0  3  0  0  0  0  0  0  0  0  0
    2.2313   -3.3897   -2.5514 C   0  0  0  0  0  0  0  0  0  0  0  0
   -0.7367   -1.1885   -0.1898 C   0  0  0  0  0  0  0  0  0  0  0  0
    0.5144   -1.7025   -0.5240 C   0  0  0  0  0  0  0  0  0  0  0  0
    3.1548   -2.7855   -1.6945 C   0  0  0  0  0  0  0  0  0  0  0  0
    4.0709   -3.6242   -1.0905 C   0  0  0  0  0  0  0  0  0  0  0  0
    2.4912   -5.4016   -1.2585 C   0  0  0  0  0  0  0  0  0  0  0  0
    1.8789   -4.7156   -2.3042 C   0  0  0  0  0  0  0  0  0  0  0  0
    5.8132   -2.1783   -0.3011 C   0  0  0  0  0  0  0  0  0  0  0  0
    3.6630   -4.8954   -0.7121 C   0  0  0  0  0  0  0  0  0  0  0  0
    1.1847    0.4554   -1.3932 C   0  0  0  0  0  0  0  0  0  0  0  0
    6.7443   -1.4649   -0.6479 O   0  0  0  0  0  0  0  0  0  0  0  0
    5.0005   -1.9760    0.9390 C   0  0  0  0  0  0  0  0  0  0  0  0
    3.5236   -0.9810    0.6249 S   0  0  0  0  0  0  0  0  0  0  0  0
    5.4352   -3.2757   -1.0298 N   0  0  0  0  0  0  0  0  0  0  0  0
   -1.9686    0.5766   -0.0980 H   0  0  0  0  0  0  0  0  0  0  0  0
   -0.2713    2.0238   -1.1815 H   0  0  0  0  0  0  0  0  0  0  0  0
    3.5633   -0.6683   -1.8529 H   0  0  0  0  0  0  0  0  0  0  0  0
    1.6704   -2.8173   -3.2856 H   0  0  0  0  0  0  0  0  0  0  0  0
   -1.4745   -1.8244    0.3128 H   0  0  0  0  0  0  0  0  0  0  0  0
    0.7356   -2.7348   -0.2571 H   0  0  0  0  0  0  0  0  0  0  0  0
    2.1006   -6.3544   -0.9176 H   0  0  0  0  0  0  0  0  0  0  0  0
    1.0683   -5.1792   -2.8613 H   0  0  0  0  0  0  0  0  0  0  0  0
    4.2383   -5.4604    0.0078 H   0  0  0  0  0  0  0  0  0  0  0  0
    1.9331    1.1209   -1.8112 H   0  0  0  0  0  0  0  0  0  0  0  0
    5.6181   -1.4650    1.6886 H   0  0  0  0  0  0  0  0  0  0  0  0
    4.7319   -2.9417    1.3955 H   0  0  0  0  0  0  0  0  0  0  0  0
    5.8750   -3.1776   -1.9428 H   0  0  0  0  0  0  0  0  0  0  0  0
  1  7  1  0  0  0  0
  1 14  2  0  0  0  0
  2 19  1  0  0  0  0
  3  2  2  0  0  0  0
  3 20  1  0  0  0  0
  4  8  1  0  0  0  0
  4  1  1  0  0  0  0
  4 21  1  0  0  0  0
  5 11  2  0  0  0  0
  5 22  1  0  0  0  0
  6  2  1  0  0  0  0
  6 23  1  0  0  0  0
  7  6  2  0  0  0  0
  7 24  1  0  0  0  0
  8  9  2  0  0  0  0
  8  5  1  0  0  0  0
  9 13  1  0  0  0  0
 10 25  1  0  0  0  0
 11 10  1  0  0  0  0
 11 26  1  0  0  0  0
 13 10  2  0  0  0  0
 13 27  1  0  0  0  0
 14  3  1  0  0  0  0
 14 28  1  0  0  0  0
 15 12  2  0  0  0  0
 16 12  1  0  0  0  0
 16 29  1  0  0  0  0
 16 30  1  0  0  0  0
 17  4  1  0  0  0  0
 17 16  1  0  0  0  0
 18  9  1  0  0  0  0
 18 12  1  0  0  0  0
 18 31  1  0  0  0  0
M  END
>  <Mol_ID>
6783

>  <Formula>
C15H11Cl2NOS

>  <MolWeight>
324.22494

>  <Cat>
E0002

>  <Name>
CGP-37157

>  <Synonyms>
N/A

>  <Target>
NCX

>  <Form>
Free base

>  <CAS>
75450-34-9

>  <URL>
http://www.selleckchem.com/products/cgp-37157.html

$$$$
