CGP52432
 OpenBabel08302521243D

 47 47  0  0  0  0  0  0  0  0999 V2000
    6.2141   -5.7153    1.2970 C   0  0  0  0  0  0  0  0  0  0  0  0
    6.8006   -6.5838    0.3671 C   0  0  0  0  0  0  0  0  0  0  0  0
    6.9633   -7.9418    0.6573 C   0  0  0  0  0  0  0  0  0  0  0  0
    6.5282   -8.4481    1.8782 C   0  0  0  0  0  0  0  0  0  0  0  0
    5.9164   -7.6060    2.8036 C   0  0  0  0  0  0  0  0  0  0  0  0
    5.7473   -6.2467    2.5118 C   0  0  0  0  0  0  0  0  0  0  0  0
    6.1368   -4.2335    1.0190 C   0  0  0  0  0  0  0  0  0  0  0  0
    4.7691   -3.7514    0.8575 N   0  0  0  0  0  0  0  0  0  0  0  0
    4.6892   -2.3103    0.6104 C   0  0  0  0  0  0  0  0  0  0  0  0
    5.3389   -1.7957   -0.6814 C   0  0  0  0  0  0  0  0  0  0  0  0
    4.7434   -2.3699   -1.9729 C   0  0  0  0  0  0  0  0  0  0  0  0
    5.6459   -1.6941   -3.4144 P   0  0  3  0  0  0  0  0  0  0  0  0
    5.3011   -3.3985   -4.4418 C   0  0  0  0  0  0  0  0  0  0  0  0
    4.4984   -0.7067   -3.6700 O   0  0  0  0  0  0  0  0  0  0  0  0
    6.4990   -1.0553   -4.7770 O   0  0  0  0  0  0  0  0  0  0  0  0
    4.0152   -3.3586   -5.0648 O   0  0  0  0  0  0  0  0  0  0  0  0
    6.4040   -3.5784   -5.3482 O   0  0  0  0  0  0  0  0  0  0  0  0
    7.6005   -3.9066   -4.6384 C   0  0  0  0  0  0  0  0  0  0  0  0
    8.7415   -4.1012   -5.6137 C   0  0  0  0  0  0  0  0  0  0  0  0
    3.8749   -2.4912   -6.1850 C   0  0  0  0  0  0  0  0  0  0  0  0
    2.5201   -2.7317   -6.8418 C   0  0  0  0  0  0  0  0  0  0  0  0
    7.1668   -6.2065   -0.5846 H   0  0  0  0  0  0  0  0  0  0  0  0
    7.4403   -8.5998   -0.0644 H   0  0  0  0  0  0  0  0  0  0  0  0
    6.6668   -9.4997    2.1120 H   0  0  0  0  0  0  0  0  0  0  0  0
    5.5710   -7.9995    3.7547 H   0  0  0  0  0  0  0  0  0  0  0  0
    5.2804   -5.5952    3.2464 H   0  0  0  0  0  0  0  0  0  0  0  0
    6.6342   -3.7090    1.8445 H   0  0  0  0  0  0  0  0  0  0  0  0
    6.7213   -4.0257    0.1129 H   0  0  0  0  0  0  0  0  0  0  0  0
    4.2884   -4.2816    0.1335 H   0  0  0  0  0  0  0  0  0  0  0  0
    3.6301   -2.0273    0.6082 H   0  0  0  0  0  0  0  0  0  0  0  0
    5.1343   -1.7803    1.4613 H   0  0  0  0  0  0  0  0  0  0  0  0
    5.2383   -0.7030   -0.7094 H   0  0  0  0  0  0  0  0  0  0  0  0
    6.4176   -1.9862   -0.6688 H   0  0  0  0  0  0  0  0  0  0  0  0
    4.8381   -3.4570   -1.9321 H   0  0  0  0  0  0  0  0  0  0  0  0
    3.6707   -2.1486   -2.0233 H   0  0  0  0  0  0  0  0  0  0  0  0
    5.2855   -4.2220   -3.7230 H   0  0  0  0  0  0  0  0  0  0  0  0
    6.0481   -1.2720   -5.6152 H   0  0  0  0  0  0  0  0  0  0  0  0
    7.8621   -3.1053   -3.9446 H   0  0  0  0  0  0  0  0  0  0  0  0
    7.4511   -4.8273   -4.0633 H   0  0  0  0  0  0  0  0  0  0  0  0
    8.8540   -3.2285   -6.2661 H   0  0  0  0  0  0  0  0  0  0  0  0
    9.6815   -4.2611   -5.0754 H   0  0  0  0  0  0  0  0  0  0  0  0
    8.5586   -4.9676   -6.2572 H   0  0  0  0  0  0  0  0  0  0  0  0
    3.9174   -1.4496   -5.8651 H   0  0  0  0  0  0  0  0  0  0  0  0
    4.6676   -2.6725   -6.9192 H   0  0  0  0  0  0  0  0  0  0  0  0
    1.7321   -2.8478   -6.0922 H   0  0  0  0  0  0  0  0  0  0  0  0
    2.2650   -1.9021   -7.5052 H   0  0  0  0  0  0  0  0  0  0  0  0
    2.5464   -3.6502   -7.4341 H   0  0  0  0  0  0  0  0  0  0  0  0
  1  2  2  0  0  0  0
  1  7  1  0  0  0  0
  2  3  1  0  0  0  0
  2 22  1  0  0  0  0
  3  4  2  0  0  0  0
  3 23  1  0  0  0  0
  4  5  1  0  0  0  0
  4 24  1  0  0  0  0
  5  6  2  0  0  0  0
  5 25  1  0  0  0  0
  6  1  1  0  0  0  0
  6 26  1  0  0  0  0
  7  8  1  0  0  0  0
  7 27  1  0  0  0  0
  7 28  1  0  0  0  0
  8  9  1  0  0  0  0
  8 29  1  0  0  0  0
  9 10  1  0  0  0  0
  9 30  1  0  0  0  0
  9 31  1  0  0  0  0
 10 11  1  0  0  0  0
 10 32  1  0  0  0  0
 10 33  1  0  0  0  0
 11 12  1  0  0  0  0
 11 34  1  0  0  0  0
 11 35  1  0  0  0  0
 12 13  1  0  0  0  0
 12 14  2  0  0  0  0
 12 15  1  0  0  0  0
 13 16  1  0  0  0  0
 13 17  1  0  0  0  0
 13 36  1  0  0  0  0
 15 37  1  0  0  0  0
 16 20  1  0  0  0  0
 17 18  1  0  0  0  0
 18 19  1  0  0  0  0
 18 38  1  0  0  0  0
 18 39  1  0  0  0  0
 19 40  1  0  0  0  0
 19 41  1  0  0  0  0
 19 42  1  0  0  0  0
 20 21  1  0  0  0  0
 20 43  1  0  0  0  0
 20 44  1  0  0  0  0
 21 45  1  0  0  0  0
 21 46  1  0  0  0  0
 21 47  1  0  0  0  0
M  END
>  <Mol_ID>
5061

>  <Formula>
C15H24Cl2NO4P

>  <MolWeight>
384.235121

>  <Cat>
S0303

>  <Name>
CGP52432

>  <Synonyms>
N/A

>  <Target>
GABA Receptor

>  <Form>
free base

>  <CAS>
139667-74-6

>  <URL>
http://www.selleckchem.com/products/cgp52432.html

$$$$
