CGP60474
 OpenBabel08302521343D

 43 45  0  0  0  0  0  0  0  0999 V2000
    2.5136   -1.4159    4.3976 C   0  0  0  0  0  0  0  0  0  0  0  0
    1.1357   -0.7964    4.2010 C   0  0  0  0  0  0  0  0  0  0  0  0
    0.6252   -0.8181    2.7509 C   0  0  0  0  0  0  0  0  0  0  0  0
    3.5013   -0.7061    3.6651 O   0  0  0  0  0  0  0  0  0  0  0  0
    0.6080   -2.1548    2.1589 N   0  0  0  0  0  0  0  0  0  0  0  0
   -0.2209   -3.0870    2.8005 C   0  0  0  0  0  0  0  0  0  0  0  0
    0.0998   -4.4336    2.6682 C   0  0  0  0  0  0  0  0  0  0  0  0
   -0.6200   -5.4061    3.3706 C   0  0  0  0  0  0  0  0  0  0  0  0
   -1.7366   -4.9745    4.0948 C   0  0  0  0  0  0  0  0  0  0  0  0
   -2.0381   -3.6273    4.1192 C   0  0  0  0  0  0  0  0  0  0  0  0
   -1.2947   -2.6823    3.5045 N   0  0  0  0  0  0  0  0  0  0  0  0
   -0.8750   -9.0129    3.5899 C   0  0  0  0  0  0  0  0  0  0  0  0
   -1.1870   -7.7086    3.5304 N   0  0  0  0  0  0  0  0  0  0  0  0
   -0.1976   -6.8161    3.3738 C   0  0  0  0  0  0  0  0  0  0  0  0
    1.1173   -7.2157    3.2609 C   0  0  0  0  0  0  0  0  0  0  0  0
    1.3468   -8.5678    3.3302 C   0  0  0  0  0  0  0  0  0  0  0  0
    0.3813   -9.4817    3.5151 N   0  0  0  0  0  0  0  0  0  0  0  0
   -1.8925   -9.9383    3.7857 N   0  0  0  0  0  0  0  0  0  0  0  0
   -3.2361   -9.8343    3.3987 C   0  0  0  0  0  0  0  0  0  0  0  0
   -3.6464   -9.0195    2.3338 C   0  0  0  0  0  0  0  0  0  0  0  0
   -4.9961   -8.8795    2.0082 C   0  0  0  0  0  0  0  0  0  0  0  0
   -5.9603   -9.5401    2.7618 C   0  0  0  0  0  0  0  0  0  0  0  0
   -5.5716  -10.3492    3.8284 C   0  0  0  0  0  0  0  0  0  0  0  0
   -4.2170  -10.5026    4.1378 C   0  0  0  0  0  0  0  0  0  0  0  0
    2.5384   -2.4615    4.0755 H   0  0  0  0  0  0  0  0  0  0  0  0
    2.7915   -1.4001    5.4568 H   0  0  0  0  0  0  0  0  0  0  0  0
    0.4303   -1.3092    4.8638 H   0  0  0  0  0  0  0  0  0  0  0  0
    1.1660    0.2505    4.5245 H   0  0  0  0  0  0  0  0  0  0  0  0
   -0.3698   -0.3608    2.6932 H   0  0  0  0  0  0  0  0  0  0  0  0
    1.2809   -0.1949    2.1318 H   0  0  0  0  0  0  0  0  0  0  0  0
    3.6731    0.1235    4.1446 H   0  0  0  0  0  0  0  0  0  0  0  0
    1.5524   -2.5108    2.0541 H   0  0  0  0  0  0  0  0  0  0  0  0
    0.9373   -4.7124    2.0394 H   0  0  0  0  0  0  0  0  0  0  0  0
   -2.3607   -5.6773    4.6432 H   0  0  0  0  0  0  0  0  0  0  0  0
   -2.9023   -3.2550    4.6627 H   0  0  0  0  0  0  0  0  0  0  0  0
    1.9361   -6.5190    3.1502 H   0  0  0  0  0  0  0  0  0  0  0  0
    2.3547   -8.9660    3.2436 H   0  0  0  0  0  0  0  0  0  0  0  0
   -1.5328  -10.8673    3.9417 H   0  0  0  0  0  0  0  0  0  0  0  0
   -2.9117   -8.4872    1.7332 H   0  0  0  0  0  0  0  0  0  0  0  0
   -5.2867   -8.2456    1.1745 H   0  0  0  0  0  0  0  0  0  0  0  0
   -7.0126   -9.4175    2.5235 H   0  0  0  0  0  0  0  0  0  0  0  0
   -6.3241  -10.8491    4.4317 H   0  0  0  0  0  0  0  0  0  0  0  0
   -3.9334  -11.1130    4.9908 H   0  0  0  0  0  0  0  0  0  0  0  0
  1  2  1  0  0  0  0
  1  4  1  0  0  0  0
  1 25  1  0  0  0  0
  1 26  1  0  0  0  0
  2  3  1  0  0  0  0
  2 27  1  0  0  0  0
  2 28  1  0  0  0  0
  3  5  1  0  0  0  0
  3 29  1  0  0  0  0
  3 30  1  0  0  0  0
  4 31  1  0  0  0  0
  5  6  1  0  0  0  0
  5 32  1  0  0  0  0
  6  7  2  0  0  0  0
  6 11  1  0  0  0  0
  7  8  1  0  0  0  0
  7 33  1  0  0  0  0
  8  9  2  0  0  0  0
  8 14  1  0  0  0  0
  9 10  1  0  0  0  0
  9 34  1  0  0  0  0
 10 11  2  0  0  0  0
 10 35  1  0  0  0  0
 12 13  2  0  0  0  0
 12 17  1  0  0  0  0
 12 18  1  0  0  0  0
 13 14  1  0  0  0  0
 14 15  2  0  0  0  0
 15 16  1  0  0  0  0
 15 36  1  0  0  0  0
 16 17  2  0  0  0  0
 16 37  1  0  0  0  0
 18 19  1  0  0  0  0
 18 38  1  0  0  0  0
 19 20  2  0  0  0  0
 19 24  1  0  0  0  0
 20 21  1  0  0  0  0
 20 39  1  0  0  0  0
 21 22  2  0  0  0  0
 21 40  1  0  0  0  0
 22 23  1  0  0  0  0
 22 41  1  0  0  0  0
 23 24  2  0  0  0  0
 23 42  1  0  0  0  0
 24 43  1  0  0  0  0
M  END
>  <Mol_ID>
6480

>  <Formula>
C18H18ClN5O

>  <MolWeight>
355.82142

>  <Cat>
E2642

>  <Name>
CGP60474

>  <Target>
CDK

>  <Form>
free base

>  <CAS>
164658-13-3

>  <URL>
http://www.selleckchem.com/products/cgp60474.html

$$$$
