CGP 57380.cdx
 OpenBabel08302519583D

 27 29  0  0  0  0  0  0  0  0999 V2000
    0.1751   -0.5680    0.0216 C   0  0  0  0  0  0  0  0  0  0  0  0
    1.3908   -1.3142   -0.0019 C   0  0  0  0  0  0  0  0  0  0  0  0
    0.5764    0.7544    0.0964 C   0  0  0  0  0  0  0  0  0  0  0  0
   -1.2050   -0.7895   -0.0618 C   0  0  0  0  0  0  0  0  0  0  0  0
    1.4199   -2.6652   -0.1915 N   0  0  0  0  0  0  0  0  0  0  0  0
    2.4527   -0.5054    0.1216 N   0  0  0  0  0  0  0  0  0  0  0  0
    1.9321    0.7287    0.1569 N   0  0  0  0  0  0  0  0  0  0  0  0
   -0.1977    1.8473    0.0883 N   0  0  0  0  0  0  0  0  0  0  0  0
   -2.0315    0.2766   -0.0818 N   0  0  0  0  0  0  0  0  0  0  0  0
   -1.8053   -2.0464   -0.1151 N   0  0  0  0  0  0  0  0  0  0  0  0
    2.4889   -3.4600   -0.6752 C   0  0  0  0  0  0  0  0  0  0  0  0
   -1.4947    1.5156   -0.0128 C   0  0  0  0  0  0  0  0  0  0  0  0
    3.8368   -3.0888   -0.5640 C   0  0  0  0  0  0  0  0  0  0  0  0
    2.1881   -4.6483   -1.3646 C   0  0  0  0  0  0  0  0  0  0  0  0
    4.8468   -3.8326   -1.1802 C   0  0  0  0  0  0  0  0  0  0  0  0
    3.1960   -5.3976   -1.9797 C   0  0  0  0  0  0  0  0  0  0  0  0
    4.5148   -4.9726   -1.8946 C   0  0  0  0  0  0  0  0  0  0  0  0
    5.4763   -5.6687   -2.5144 F   0  0  0  0  0  0  0  0  0  0  0  0
    0.5255   -3.1140   -0.3549 H   0  0  0  0  0  0  0  0  0  0  0  0
    2.5566    1.5243    0.2025 H   0  0  0  0  0  0  0  0  0  0  0  0
   -1.4298   -2.6916    0.5691 H   0  0  0  0  0  0  0  0  0  0  0  0
   -2.8101   -1.9116   -0.0182 H   0  0  0  0  0  0  0  0  0  0  0  0
   -2.1978    2.3417   -0.0410 H   0  0  0  0  0  0  0  0  0  0  0  0
    4.1262   -2.2013   -0.0088 H   0  0  0  0  0  0  0  0  0  0  0  0
    1.1589   -4.9830   -1.4666 H   0  0  0  0  0  0  0  0  0  0  0  0
    5.8814   -3.5118   -1.1173 H   0  0  0  0  0  0  0  0  0  0  0  0
    2.9568   -6.2939   -2.5422 H   0  0  0  0  0  0  0  0  0  0  0  0
  1  2  1  0  0  0  0
  1  3  1  0  0  0  0
  1  4  2  0  0  0  0
  2  5  1  0  0  0  0
  2  6  2  0  0  0  0
  3  7  1  0  0  0  0
  3  8  2  0  0  0  0
  4  9  1  0  0  0  0
  4 10  1  0  0  0  0
  5 11  1  0  0  0  0
  5 19  1  0  0  0  0
  6  7  1  0  0  0  0
  7 20  1  0  0  0  0
  8 12  1  0  0  0  0
  9 12  2  0  0  0  0
 10 21  1  0  0  0  0
 10 22  1  0  0  0  0
 11 13  2  0  0  0  0
 11 14  1  0  0  0  0
 12 23  1  0  0  0  0
 13 15  1  0  0  0  0
 13 24  1  0  0  0  0
 14 16  2  0  0  0  0
 14 25  1  0  0  0  0
 15 17  2  0  0  0  0
 15 26  1  0  0  0  0
 16 17  1  0  0  0  0
 16 27  1  0  0  0  0
 17 18  1  0  0  0  0
M  END
>  <Mol_ID>
2391

>  <Formula>
C11H9FN6

>  <MolWeight>
244.2277632

>  <Cat>
S7421

>  <Name>
CGP 57380

>  <Synonyms>
N/A

>  <Target>
Apoptosis related,MNK,Wnt/beta-catenin

>  <Form>
free base

>  <CAS>
522629-08-9

>  <URL>
http://selleckchem.com/products/cgp57380.html

$$$$
