CH2132799.cdx
 OpenBabel08302521433D

 45 48  0  0  0  0  0  0  0  0999 V2000
   -0.1905   -0.4827   -1.7290 N   0  0  0  0  0  0  0  0  0  0  0  0
   -0.6696   -0.6544   -0.4937 C   0  0  0  0  0  0  0  0  0  0  0  0
    0.0363   -0.4485    0.6158 N   0  0  0  0  0  0  0  0  0  0  0  0
    1.3282   -0.1027    0.4408 C   0  0  0  0  0  0  0  0  0  0  0  0
    1.9796    0.0325   -0.7844 C   0  0  0  0  0  0  0  0  0  0  0  0
    1.1132   -0.1394   -1.8412 C   0  0  0  0  0  0  0  0  0  0  0  0
   -1.9723   -1.0562   -0.3428 N   0  0  0  0  0  0  0  0  0  0  0  0
    3.4298    0.2751   -0.8571 C   0  0  0  0  0  0  0  0  0  0  0  0
    4.2821   -0.1201   -1.8493 C   0  0  0  0  0  0  0  0  0  0  0  0
    5.6348   -0.0315   -1.5565 C   0  0  0  0  0  0  0  0  0  0  0  0
    6.1634    0.3401   -0.4154 N   0  0  0  0  0  0  0  0  0  0  0  0
    5.2891    0.5557    0.5582 C   0  0  0  0  0  0  0  0  0  0  0  0
    3.9646    0.6773    0.3187 N   0  0  0  0  0  0  0  0  0  0  0  0
    5.6964    0.3313    1.8925 N   0  0  0  0  0  0  0  0  0  0  0  0
    4.1181   -0.8326   -3.1529 C   0  0  0  0  0  0  0  0  0  0  0  0
    5.3903   -1.7013   -3.1130 C   0  0  0  0  0  0  0  0  0  0  0  0
    6.3694   -0.7482   -2.5393 N   0  0  0  0  0  0  0  0  0  0  0  0
    4.5679   -0.1193    2.7304 C   0  0  0  0  0  0  0  0  0  0  0  0
    4.2062   -1.5666    2.3388 C   0  0  0  0  0  0  0  0  0  0  0  0
    5.2736   -2.4975    2.5424 O   0  0  0  0  0  0  0  0  0  0  0  0
    6.5545   -1.8940    2.7624 C   0  0  0  0  0  0  0  0  0  0  0  0
    6.8595   -0.5962    1.9773 C   0  0  0  0  0  0  0  0  0  0  0  0
    7.9642   -1.1897   -2.3055 S   0  0  0  0  0  0  0  0  0  0  0  0
    8.4948   -1.2530   -4.0028 C   0  0  0  0  0  0  0  0  0  0  0  0
    8.7209   -0.1184   -1.6983 O   0  0  0  0  0  0  0  0  0  0  0  0
    7.9907   -2.5509   -1.7852 O   0  0  0  0  0  0  0  0  0  0  0  0
    1.8593    0.0240    1.3799 H   0  0  0  0  0  0  0  0  0  0  0  0
    1.4424   -0.0246   -2.8711 H   0  0  0  0  0  0  0  0  0  0  0  0
   -2.3097   -0.7912    0.5809 H   0  0  0  0  0  0  0  0  0  0  0  0
   -2.5308   -0.7834   -1.1329 H   0  0  0  0  0  0  0  0  0  0  0  0
    3.2175   -1.4328   -3.2630 H   0  0  0  0  0  0  0  0  0  0  0  0
    4.1979   -0.1066   -3.9735 H   0  0  0  0  0  0  0  0  0  0  0  0
    5.6678   -2.0813   -4.0954 H   0  0  0  0  0  0  0  0  0  0  0  0
    5.2400   -2.5495   -2.4262 H   0  0  0  0  0  0  0  0  0  0  0  0
    3.7060    0.5542    2.6643 H   0  0  0  0  0  0  0  0  0  0  0  0
    4.8780   -0.0892    3.7822 H   0  0  0  0  0  0  0  0  0  0  0  0
    3.9456   -1.6531    1.2790 H   0  0  0  0  0  0  0  0  0  0  0  0
    3.3280   -1.9094    2.8935 H   0  0  0  0  0  0  0  0  0  0  0  0
    7.3040   -2.6496    2.5023 H   0  0  0  0  0  0  0  0  0  0  0  0
    6.6532   -1.7113    3.8375 H   0  0  0  0  0  0  0  0  0  0  0  0
    7.2564   -0.9146    1.0077 H   0  0  0  0  0  0  0  0  0  0  0  0
    7.6830   -0.0697    2.4732 H   0  0  0  0  0  0  0  0  0  0  0  0
    8.4456   -0.2434   -4.4194 H   0  0  0  0  0  0  0  0  0  0  0  0
    9.5211   -1.6216   -4.0307 H   0  0  0  0  0  0  0  0  0  0  0  0
    7.8535   -1.9332   -4.5631 H   0  0  0  0  0  0  0  0  0  0  0  0
  1  2  2  0  0  0  0
  2  3  1  0  0  0  0
  2  7  1  0  0  0  0
  3  4  2  0  0  0  0
  4  5  1  0  0  0  0
  4 27  1  0  0  0  0
  5  6  2  0  0  0  0
  5  8  1  0  0  0  0
  6  1  1  0  0  0  0
  6 28  1  0  0  0  0
  7 29  1  0  0  0  0
  7 30  1  0  0  0  0
  8  9  2  0  0  0  0
  9 10  1  0  0  0  0
  9 15  1  0  0  0  0
 10 11  2  0  0  0  0
 11 12  1  0  0  0  0
 12 13  2  0  0  0  0
 12 14  1  0  0  0  0
 13  8  1  0  0  0  0
 14 18  1  0  0  0  0
 15 16  1  0  0  0  0
 15 31  1  0  0  0  0
 15 32  1  0  0  0  0
 16 17  1  0  0  0  0
 16 33  1  0  0  0  0
 16 34  1  0  0  0  0
 17 10  1  0  0  0  0
 17 23  1  0  0  0  0
 18 19  1  0  0  0  0
 18 35  1  0  0  0  0
 18 36  1  0  0  0  0
 19 20  1  0  0  0  0
 19 37  1  0  0  0  0
 19 38  1  0  0  0  0
 20 21  1  0  0  0  0
 21 22  1  0  0  0  0
 21 39  1  0  0  0  0
 21 40  1  0  0  0  0
 22 14  1  0  0  0  0
 22 41  1  0  0  0  0
 22 42  1  0  0  0  0
 23 24  1  0  0  0  0
 23 25  2  0  0  0  0
 23 26  2  0  0  0  0
 24 43  1  0  0  0  0
 24 44  1  0  0  0  0
 24 45  1  0  0  0  0
M  END
>  <Mol_ID>
879

>  <Formula>
C15H19N7O3S

>  <MolWeight>
377.42146

>  <Cat>
S2699

>  <Name>
CH5132799

>  <Synonyms>
MEN1611, PA799

>  <Target>
PI3K

>  <Form>
free base

>  <CAS>
1007207-67-1

>  <URL>
http://selleckchem.com/products/ch5132799.html

$$$$
