CH5183284 (Debio 1347).cdx
 OpenBabel08302519593D

 43 47  0  0  0  0  0  0  0  0999 V2000
   -0.2274   -1.2110    0.2172 C   0  0  0  0  0  0  0  0  0  0  0  0
   -0.4446    0.1953    0.2841 C   0  0  0  0  0  0  0  0  0  0  0  0
    0.6728    0.8948    0.4268 N   0  0  0  0  0  0  0  0  0  0  0  0
    1.6427   -0.0418    0.5353 N   0  0  0  0  0  0  0  0  0  0  0  0
    1.1378   -1.3538    0.3598 C   0  0  0  0  0  0  0  0  0  0  0  0
    1.8825   -2.4929    0.3029 N   0  0  0  0  0  0  0  0  0  0  0  0
    2.9527    0.3615    0.9346 C   0  0  0  0  0  0  0  0  0  0  0  0
    3.2417    1.6960    1.2673 C   0  0  0  0  0  0  0  0  0  0  0  0
    4.0412    1.8367    2.4190 C   0  0  0  0  0  0  0  0  0  0  0  0
    4.3989    0.7444    3.2125 C   0  0  0  0  0  0  0  0  0  0  0  0
    4.1799   -0.5481    2.7511 C   0  0  0  0  0  0  0  0  0  0  0  0
    3.7775   -0.6428    1.4193 C   0  0  0  0  0  0  0  0  0  0  0  0
    4.5189    2.9156    3.1174 N   0  0  0  0  0  0  0  0  0  0  0  0
    4.9979    2.4588    4.3258 C   0  0  0  0  0  0  0  0  0  0  0  0
    4.9559    1.1491    4.3866 N   0  0  0  0  0  0  0  0  0  0  0  0
    5.4656    3.3414    5.4116 C   0  0  0  0  0  0  0  0  0  0  0  0
   -1.2933   -2.1640   -0.0445 C   0  0  0  0  0  0  0  0  0  0  0  0
   -2.2540   -1.7594   -0.6760 O   0  0  0  0  0  0  0  0  0  0  0  0
   -1.2756   -3.5246    0.4664 C   0  0  0  0  0  0  0  0  0  0  0  0
   -0.3412   -4.1991    1.2178 N   0  0  0  0  0  0  0  0  0  0  0  0
   -0.8286   -5.4408    1.5894 C   0  0  0  0  0  0  0  0  0  0  0  0
   -2.1587   -5.4859    1.1778 C   0  0  0  0  0  0  0  0  0  0  0  0
   -2.3549   -4.3826    0.3281 C   0  0  0  0  0  0  0  0  0  0  0  0
   -0.2449   -6.4999    2.2962 C   0  0  0  0  0  0  0  0  0  0  0  0
   -1.0991   -7.5171    2.7500 C   0  0  0  0  0  0  0  0  0  0  0  0
   -2.4712   -7.4664    2.5143 C   0  0  0  0  0  0  0  0  0  0  0  0
   -2.9997   -6.5037    1.6551 C   0  0  0  0  0  0  0  0  0  0  0  0
   -1.3977    0.7133    0.2096 H   0  0  0  0  0  0  0  0  0  0  0  0
    2.8954   -2.4220    0.2339 H   0  0  0  0  0  0  0  0  0  0  0  0
    1.5588   -3.2527   -0.2993 H   0  0  0  0  0  0  0  0  0  0  0  0
    2.7421    2.5409    0.8082 H   0  0  0  0  0  0  0  0  0  0  0  0
    4.4535   -1.4164    3.3349 H   0  0  0  0  0  0  0  0  0  0  0  0
    4.6585   -0.8469    0.7773 H   0  0  0  0  0  0  0  0  0  0  0  0
    4.4877    3.8805    2.8212 H   0  0  0  0  0  0  0  0  0  0  0  0
    4.6098    3.6937    5.9942 H   0  0  0  0  0  0  0  0  0  0  0  0
    6.1244    2.7832    6.0864 H   0  0  0  0  0  0  0  0  0  0  0  0
    6.0172    4.1998    5.0252 H   0  0  0  0  0  0  0  0  0  0  0  0
    0.5378   -3.8094    1.5348 H   0  0  0  0  0  0  0  0  0  0  0  0
   -3.2623   -4.1548   -0.2242 H   0  0  0  0  0  0  0  0  0  0  0  0
    0.8144   -6.5256    2.5295 H   0  0  0  0  0  0  0  0  0  0  0  0
   -0.6940   -8.3458    3.3266 H   0  0  0  0  0  0  0  0  0  0  0  0
   -3.1380   -8.1769    2.9953 H   0  0  0  0  0  0  0  0  0  0  0  0
   -4.0578   -6.4993    1.4101 H   0  0  0  0  0  0  0  0  0  0  0  0
  1  2  1  0  0  0  0
  1 17  1  0  0  0  0
  2  3  2  0  0  0  0
  2 28  1  0  0  0  0
  3  4  1  0  0  0  0
  4  5  1  0  0  0  0
  4  7  1  0  0  0  0
  5  1  2  0  0  0  0
  5  6  1  0  0  0  0
  6 29  1  0  0  0  0
  6 30  1  0  0  0  0
  7  8  2  0  0  0  0
  8  9  1  0  0  0  0
  8 31  1  0  0  0  0
  9 10  2  0  0  0  0
  9 13  1  0  0  0  0
 10 11  1  0  0  0  0
 11 12  2  0  0  0  0
 11 32  1  0  0  0  0
 12  7  1  0  0  0  0
 12 33  1  0  0  0  0
 13 14  1  0  0  0  0
 13 34  1  0  0  0  0
 14 15  2  0  0  0  0
 14 16  1  0  0  0  0
 15 10  1  0  0  0  0
 16 35  1  0  0  0  0
 16 36  1  0  0  0  0
 16 37  1  0  0  0  0
 17 18  2  0  0  0  0
 17 19  1  0  0  0  0
 19 20  1  0  0  0  0
 20 21  1  0  0  0  0
 20 38  1  0  0  0  0
 21 22  2  0  0  0  0
 21 24  1  0  0  0  0
 22 23  1  0  0  0  0
 23 19  2  0  0  0  0
 23 39  1  0  0  0  0
 24 25  2  0  0  0  0
 24 40  1  0  0  0  0
 25 26  1  0  0  0  0
 25 41  1  0  0  0  0
 26 27  2  0  0  0  0
 26 42  1  0  0  0  0
 27 22  1  0  0  0  0
 27 43  1  0  0  0  0
M  END
>  <Mol_ID>
2551

>  <Formula>
C20H16N6O

>  <MolWeight>
356.38064

>  <Cat>
S7665

>  <Name>
Zoligratinib (Debio-1347)

>  <Synonyms>
CH5183284, FF284

>  <Target>
FGFR

>  <Form>
free base

>  <CAS>
1265229-25-1

>  <URL>
http://selleckchem.com/products/ch5183284-debio-1347.html

$$$$
