CH5126766 (RO5126766).cdx
 OpenBabel08302519593D

 51 54  0  0  0  0  0  0  0  0999 V2000
    2.7024    1.3929   -0.0650 C   0  0  0  0  0  0  0  0  0  0  0  0
    3.0321    0.0421    0.0496 C   0  0  0  0  0  0  0  0  0  0  0  0
    2.0235   -0.9226    0.1537 C   0  0  0  0  0  0  0  0  0  0  0  0
    0.6703   -0.5551    0.1324 C   0  0  0  0  0  0  0  0  0  0  0  0
    0.3731    0.7910   -0.0424 C   0  0  0  0  0  0  0  0  0  0  0  0
    1.3651    1.7689   -0.1481 C   0  0  0  0  0  0  0  0  0  0  0  0
   -0.4386   -1.5192    0.2516 C   0  0  0  0  0  0  0  0  0  0  0  0
   -1.7037   -1.0894    0.0488 C   0  0  0  0  0  0  0  0  0  0  0  0
   -2.0019    0.3466   -0.2118 C   0  0  0  0  0  0  0  0  0  0  0  0
   -0.9489    1.2401   -0.1576 O   0  0  0  0  0  0  0  0  0  0  0  0
   -3.1442    0.7408   -0.4281 O   0  0  0  0  0  0  0  0  0  0  0  0
   -0.0814   -2.9419    0.5966 C   0  0  0  0  0  0  0  0  0  0  0  0
    3.7505    2.2724   -0.1853 O   0  0  0  0  0  0  0  0  0  0  0  0
    3.6671    3.4871    0.4779 C   0  0  0  0  0  0  0  0  0  0  0  0
   -2.9022   -2.0051   -0.0569 C   0  0  0  0  0  0  0  0  0  0  0  0
   -3.6649   -2.2636    1.2203 C   0  0  0  0  0  0  0  0  0  0  0  0
   -3.9143   -3.5727    1.6331 C   0  0  0  0  0  0  0  0  0  0  0  0
   -4.8014   -3.8003    2.6835 C   0  0  0  0  0  0  0  0  0  0  0  0
   -5.3633   -2.8264    3.4235 N   0  0  0  0  0  0  0  0  0  0  0  0
   -5.0935   -1.5593    3.0251 C   0  0  0  0  0  0  0  0  0  0  0  0
   -4.2875   -1.2361    1.9383 C   0  0  0  0  0  0  0  0  0  0  0  0
    2.8682    3.6174    1.5553 N   0  0  0  0  0  0  0  0  0  0  0  0
    2.8336    4.8307    2.1281 C   0  0  0  0  0  0  0  0  0  0  0  0
    3.5761    5.8977    1.6814 C   0  0  0  0  0  0  0  0  0  0  0  0
    4.3811    5.6488    0.5945 C   0  0  0  0  0  0  0  0  0  0  0  0
    4.4487    4.4569   -0.0249 N   0  0  0  0  0  0  0  0  0  0  0  0
   -5.3010   -5.1053    2.9347 N   0  0  0  0  0  0  0  0  0  0  0  0
   -4.4107   -6.0439    3.9793 S   0  0  0  0  0  0  0  0  0  0  0  0
   -5.1783   -5.6611    5.4112 N   0  0  0  0  0  0  0  0  0  0  0  0
   -4.7818   -6.4857    6.5602 C   0  0  0  0  0  0  0  0  0  0  0  0
   -4.7090   -7.4190    3.6540 O   0  0  0  0  0  0  0  0  0  0  0  0
   -3.0517   -5.5606    4.0596 O   0  0  0  0  0  0  0  0  0  0  0  0
   -3.3940   -4.6103    0.9595 F   0  0  0  0  0  0  0  0  0  0  0  0
    4.0753   -0.2636    0.0650 H   0  0  0  0  0  0  0  0  0  0  0  0
    2.3272   -1.9627    0.2361 H   0  0  0  0  0  0  0  0  0  0  0  0
    1.0807    2.8080   -0.2877 H   0  0  0  0  0  0  0  0  0  0  0  0
    0.4006   -3.4372   -0.2522 H   0  0  0  0  0  0  0  0  0  0  0  0
    0.5958   -2.9707    1.4580 H   0  0  0  0  0  0  0  0  0  0  0  0
   -0.9459   -3.5425    0.8871 H   0  0  0  0  0  0  0  0  0  0  0  0
   -3.6144   -1.6255   -0.8022 H   0  0  0  0  0  0  0  0  0  0  0  0
   -2.5791   -2.9581   -0.4963 H   0  0  0  0  0  0  0  0  0  0  0  0
   -5.5941   -0.7773    3.5913 H   0  0  0  0  0  0  0  0  0  0  0  0
   -4.1956   -0.1949    1.6400 H   0  0  0  0  0  0  0  0  0  0  0  0
    2.1680    4.9249    2.9801 H   0  0  0  0  0  0  0  0  0  0  0  0
    3.5280    6.8685    2.1519 H   0  0  0  0  0  0  0  0  0  0  0  0
    5.0093    6.4263    0.1733 H   0  0  0  0  0  0  0  0  0  0  0  0
   -5.3971   -5.6345    2.0692 H   0  0  0  0  0  0  0  0  0  0  0  0
   -5.0840   -4.6607    5.5849 H   0  0  0  0  0  0  0  0  0  0  0  0
   -3.7291   -6.3213    6.8070 H   0  0  0  0  0  0  0  0  0  0  0  0
   -5.3812   -6.1940    7.4279 H   0  0  0  0  0  0  0  0  0  0  0  0
   -4.9624   -7.5471    6.3683 H   0  0  0  0  0  0  0  0  0  0  0  0
  1  2  2  0  0  0  0
  1 13  1  0  0  0  0
  2  3  1  0  0  0  0
  2 34  1  0  0  0  0
  3  4  2  0  0  0  0
  3 35  1  0  0  0  0
  4  5  1  0  0  0  0
  4  7  1  0  0  0  0
  5  6  2  0  0  0  0
  6  1  1  0  0  0  0
  6 36  1  0  0  0  0
  7  8  2  0  0  0  0
  7 12  1  0  0  0  0
  8  9  1  0  0  0  0
  8 15  1  0  0  0  0
  9 10  1  0  0  0  0
  9 11  2  0  0  0  0
 10  5  1  0  0  0  0
 12 37  1  0  0  0  0
 12 38  1  0  0  0  0
 12 39  1  0  0  0  0
 13 14  1  0  0  0  0
 14 22  2  0  0  0  0
 15 16  1  0  0  0  0
 15 40  1  0  0  0  0
 15 41  1  0  0  0  0
 16 17  2  0  0  0  0
 17 18  1  0  0  0  0
 17 33  1  0  0  0  0
 18 19  2  0  0  0  0
 18 27  1  0  0  0  0
 19 20  1  0  0  0  0
 20 21  2  0  0  0  0
 20 42  1  0  0  0  0
 21 16  1  0  0  0  0
 21 43  1  0  0  0  0
 22 23  1  0  0  0  0
 23 24  2  0  0  0  0
 23 44  1  0  0  0  0
 24 25  1  0  0  0  0
 24 45  1  0  0  0  0
 25 26  2  0  0  0  0
 25 46  1  0  0  0  0
 26 14  1  0  0  0  0
 27 28  1  0  0  0  0
 27 47  1  0  0  0  0
 28 29  1  0  0  0  0
 28 31  2  0  0  0  0
 28 32  2  0  0  0  0
 29 30  1  0  0  0  0
 29 48  1  0  0  0  0
 30 49  1  0  0  0  0
 30 50  1  0  0  0  0
 30 51  1  0  0  0  0
M  END
>  <Mol_ID>
2620

>  <Formula>
C21H18FN5O5S

>  <MolWeight>
471.4615232

>  <Cat>
S7170

>  <Name>
Avutometinib

>  <Synonyms>
RO5126766,CH5126766,VS 6766, CKI-27, R-7304, RG-7304

>  <Target>
MEK,Raf

>  <Form>
free base

>  <CAS>
946128-88-7

>  <URL>
http://selleckchem.com/products/ro5126766-ch5126766.html

$$$$
