Chalcone
 OpenBabel08302520143D

 28 29  0  0  0  0  0  0  0  0999 V2000
    0.9454   -0.0685   -0.0618 C   0  0  0  0  0  0  0  0  0  0  0  0
    0.1363   -1.1432    0.5740 C   0  0  0  0  0  0  0  0  0  0  0  0
   -0.9975   -0.9463    0.9938 O   0  0  0  0  0  0  0  0  0  0  0  0
    0.7858   -2.4757    0.7108 C   0  0  0  0  0  0  0  0  0  0  0  0
    0.3978   -3.3125    1.7638 C   0  0  0  0  0  0  0  0  0  0  0  0
    0.9751   -4.5766    1.9019 C   0  0  0  0  0  0  0  0  0  0  0  0
    1.9329   -5.0127    0.9859 C   0  0  0  0  0  0  0  0  0  0  0  0
    2.3148   -4.1885   -0.0713 C   0  0  0  0  0  0  0  0  0  0  0  0
    1.7395   -2.9243   -0.2136 C   0  0  0  0  0  0  0  0  0  0  0  0
    0.3514    0.9874   -0.6349 C   0  0  0  0  0  0  0  0  0  0  0  0
    1.0989    2.0390   -1.3406 C   0  0  0  0  0  0  0  0  0  0  0  0
    0.5068    2.6710   -2.4420 C   0  0  0  0  0  0  0  0  0  0  0  0
    1.1903    3.6687   -3.1434 C   0  0  0  0  0  0  0  0  0  0  0  0
    2.4695    4.0510   -2.7465 C   0  0  0  0  0  0  0  0  0  0  0  0
    3.0619    3.4450   -1.6421 C   0  0  0  0  0  0  0  0  0  0  0  0
    2.3777    2.4505   -0.9386 C   0  0  0  0  0  0  0  0  0  0  0  0
    2.0206   -0.1957   -0.0677 H   0  0  0  0  0  0  0  0  0  0  0  0
   -0.3550   -2.9823    2.4772 H   0  0  0  0  0  0  0  0  0  0  0  0
    0.6720   -5.2255    2.7201 H   0  0  0  0  0  0  0  0  0  0  0  0
    2.3743   -6.0010    1.0890 H   0  0  0  0  0  0  0  0  0  0  0  0
    3.0506   -4.5348   -0.7937 H   0  0  0  0  0  0  0  0  0  0  0  0
    2.0322   -2.3161   -1.0653 H   0  0  0  0  0  0  0  0  0  0  0  0
   -0.7344    1.0704   -0.6413 H   0  0  0  0  0  0  0  0  0  0  0  0
   -0.4891    2.3840   -2.7736 H   0  0  0  0  0  0  0  0  0  0  0  0
    0.7228    4.1446   -4.0017 H   0  0  0  0  0  0  0  0  0  0  0  0
    3.0015    4.8250   -3.2932 H   0  0  0  0  0  0  0  0  0  0  0  0
    4.0563    3.7468   -1.3233 H   0  0  0  0  0  0  0  0  0  0  0  0
    2.8579    2.0093   -0.0691 H   0  0  0  0  0  0  0  0  0  0  0  0
  1  2  1  0  0  0  0
  1 10  2  0  0  0  0
  1 17  1  0  0  0  0
  2  3  2  0  0  0  0
  2  4  1  0  0  0  0
  4  5  2  0  0  0  0
  4  9  1  0  0  0  0
  5  6  1  0  0  0  0
  5 18  1  0  0  0  0
  6  7  2  0  0  0  0
  6 19  1  0  0  0  0
  7  8  1  0  0  0  0
  7 20  1  0  0  0  0
  8  9  2  0  0  0  0
  8 21  1  0  0  0  0
  9 22  1  0  0  0  0
 10 11  1  0  0  0  0
 10 23  1  0  0  0  0
 11 12  2  0  0  0  0
 11 16  1  0  0  0  0
 12 13  1  0  0  0  0
 12 24  1  0  0  0  0
 13 14  2  0  0  0  0
 13 25  1  0  0  0  0
 14 15  1  0  0  0  0
 14 26  1  0  0  0  0
 15 16  2  0  0  0  0
 15 27  1  0  0  0  0
 16 28  1  0  0  0  0
M  END
>  <Mol_ID>
3157

>  <Formula>
C15H12O

>  <MolWeight>
208.25518

>  <Cat>
S5845

>  <Name>
Chalcone

>  <Synonyms>
benzylideneacetophenone, phenyl styryl ketone, benzalacetophenone, ¦Â-phenylacrylophenone

>  <Target>
Fungal

>  <Form>
Free Base

>  <CAS>
94-41-7

>  <URL>
http://www.selleckchem.com/products/chalcone.html

$$$$
