Chelerythrine Chloride (NSC 646662)
 OpenBabel08302520393D

 44 48  0  0  0  0  0  0  0  0999 V2000
   -4.1295   -1.2600    0.4215 C   0  0  0  0  0  0  0  0  0  0  0  0
   -4.6452    0.0356    0.3996 C   0  0  0  0  0  0  0  0  0  0  0  0
   -3.7433    1.1098    0.2425 C   0  0  0  0  0  0  0  0  0  0  0  0
   -2.3302    0.8747    0.1180 C   0  0  0  0  0  0  0  0  0  0  0  0
   -1.8367   -0.4334    0.0923 C   0  0  0  0  0  0  0  0  0  0  0  0
   -2.7645   -1.4873    0.2735 C   0  0  0  0  0  0  0  0  0  0  0  0
   -1.3977    1.9093   -0.0507 C   0  0  0  0  0  0  0  0  0  0  0  0
   -0.0615    1.6948   -0.1912 N   0  3  0  0  0  0  0  0  0  0  0  0
    0.4648    0.4284   -0.1455 C   0  0  0  0  0  0  0  0  0  0  0  0
   -0.4527   -0.6569   -0.1373 C   0  0  0  0  0  0  0  0  0  0  0  0
    1.8825    0.1399   -0.2022 C   0  0  0  0  0  0  0  0  0  0  0  0
    2.2507   -1.0998   -0.7951 C   0  0  0  0  0  0  0  0  0  0  0  0
    1.3284   -2.1215   -0.8859 C   0  0  0  0  0  0  0  0  0  0  0  0
    0.0326   -1.9341   -0.4373 C   0  0  0  0  0  0  0  0  0  0  0  0
    2.9603    0.8784    0.3791 C   0  0  0  0  0  0  0  0  0  0  0  0
    4.2530    0.3875    0.2474 C   0  0  0  0  0  0  0  0  0  0  0  0
    4.5435   -0.6609   -0.5874 C   0  0  0  0  0  0  0  0  0  0  0  0
    3.5580   -1.4075   -1.1569 C   0  0  0  0  0  0  0  0  0  0  0  0
    5.3502    0.7259    0.9885 O   0  0  0  0  0  0  0  0  0  0  0  0
    6.2079   -0.4108    0.6901 C   0  0  0  0  0  0  0  0  0  0  0  0
    5.8555   -1.0134   -0.5659 O   0  0  0  0  0  0  0  0  0  0  0  0
   -5.9790    0.2764    0.5267 O   0  0  0  0  0  0  0  0  0  0  0  0
   -6.8685   -0.8280    0.6767 C   0  0  0  0  0  0  0  0  0  0  0  0
   -4.0789    2.4460    0.1754 O   0  0  0  0  0  0  0  0  0  0  0  0
   -5.4529    2.8244    0.2045 C   0  0  0  0  0  0  0  0  0  0  0  0
    0.7496    2.8224   -0.7114 C   0  0  0  0  0  0  0  0  0  0  0  0
   -4.7599   -2.1387    0.5429 H   0  0  0  0  0  0  0  0  0  0  0  0
   -2.4512   -2.5261    0.3208 H   0  0  0  0  0  0  0  0  0  0  0  0
   -1.7293    2.9466   -0.1245 H   0  0  0  0  0  0  0  0  0  0  0  0
    1.6357   -3.1211   -1.1944 H   0  0  0  0  0  0  0  0  0  0  0  0
   -0.5904   -2.8231   -0.4135 H   0  0  0  0  0  0  0  0  0  0  0  0
    2.7873    1.7017    1.0696 H   0  0  0  0  0  0  0  0  0  0  0  0
    3.8190   -2.3055   -1.7079 H   0  0  0  0  0  0  0  0  0  0  0  0
    6.0773   -1.1824    1.4668 H   0  0  0  0  0  0  0  0  0  0  0  0
    7.2585   -0.1086    0.6787 H   0  0  0  0  0  0  0  0  0  0  0  0
   -6.8721   -1.4516   -0.2230 H   0  0  0  0  0  0  0  0  0  0  0  0
   -6.6246   -1.4166    1.5665 H   0  0  0  0  0  0  0  0  0  0  0  0
   -7.8803   -0.4313    0.8119 H   0  0  0  0  0  0  0  0  0  0  0  0
   -6.0047    2.3983   -0.6400 H   0  0  0  0  0  0  0  0  0  0  0  0
   -5.9082    2.5771    1.1685 H   0  0  0  0  0  0  0  0  0  0  0  0
   -5.4996    3.9128    0.0998 H   0  0  0  0  0  0  0  0  0  0  0  0
    1.4360    3.1585    0.0641 H   0  0  0  0  0  0  0  0  0  0  0  0
    1.2714    2.4803   -1.6110 H   0  0  0  0  0  0  0  0  0  0  0  0
    0.0971    3.6512   -1.0005 H   0  0  0  0  0  0  0  0  0  0  0  0
  1  2  2  0  0  0  0
  1 27  1  0  0  0  0
  2  3  1  0  0  0  0
  2 22  1  0  0  0  0
  3  4  2  0  0  0  0
  3 24  1  0  0  0  0
  4  5  1  0  0  0  0
  4  7  1  0  0  0  0
  5  6  2  0  0  0  0
  6  1  1  0  0  0  0
  6 28  1  0  0  0  0
  7  8  2  0  0  0  0
  7 29  1  0  0  0  0
  8  9  1  0  0  0  0
  8 26  1  0  0  0  0
  9 10  2  0  0  0  0
  9 11  1  0  0  0  0
 10  5  1  0  0  0  0
 11 12  2  0  0  0  0
 11 15  1  0  0  0  0
 12 13  1  0  0  0  0
 13 14  2  0  0  0  0
 13 30  1  0  0  0  0
 14 10  1  0  0  0  0
 14 31  1  0  0  0  0
 15 16  2  0  0  0  0
 15 32  1  0  0  0  0
 16 17  1  0  0  0  0
 16 19  1  0  0  0  0
 17 18  2  0  0  0  0
 18 12  1  0  0  0  0
 18 33  1  0  0  0  0
 19 20  1  0  0  0  0
 20 21  1  0  0  0  0
 20 34  1  0  0  0  0
 20 35  1  0  0  0  0
 21 17  1  0  0  0  0
 22 23  1  0  0  0  0
 23 36  1  0  0  0  0
 23 37  1  0  0  0  0
 23 38  1  0  0  0  0
 24 25  1  0  0  0  0
 25 39  1  0  0  0  0
 25 40  1  0  0  0  0
 25 41  1  0  0  0  0
 26 42  1  0  0  0  0
 26 43  1  0  0  0  0
 26 44  1  0  0  0  0
M  CHG  1   8   1
M  END
>  <Mol_ID>
3682

>  <Formula>
C21H19ClNO4+

>  <MolWeight>
384.83286

>  <Cat>
S1292

>  <Name>
Chelerythrine Chloride (NSC 646662)

>  <Synonyms>
Broussonpapyrine chloride

>  <Target>
PKC

>  <Form>
Chloride

>  <CAS>
3895-92-9

>  <URL>
http://www.selleck.cn/products/Chelerythrine-chloride.html

$$$$
