Chelerythrine
 OpenBabel08302521453D

 44 48  0  0  0  0  0  0  0  0999 V2000
    3.4104   -0.4456    1.9687 O   0  0  0  0  0  0  0  0  0  0  0  0
    2.8632    0.7929   -0.0024 O   0  0  0  0  0  0  0  0  0  0  0  0
   13.0458    1.2443    3.9344 O   0  0  0  0  0  0  0  0  0  0  0  0
   14.4569    2.7694    2.4466 O   0  0  0  0  0  0  0  0  0  0  0  0
    8.8331    0.2945    2.7325 N   0  3  0  0  0  0  0  0  0  0  0  0
    8.2547    0.9298    1.6582 C   0  0  0  0  0  0  0  0  0  0  0  0
    9.1603    1.6748    0.8343 C   0  0  0  0  0  0  0  0  0  0  0  0
    6.8314    0.8859    1.3181 C   0  0  0  0  0  0  0  0  0  0  0  0
   10.5112    1.9174    1.2281 C   0  0  0  0  0  0  0  0  0  0  0  0
   11.0079    1.3683    2.4252 C   0  0  0  0  0  0  0  0  0  0  0  0
    6.4284    1.5592    0.1162 C   0  0  0  0  0  0  0  0  0  0  0  0
   10.1063    0.5480    3.1094 C   0  0  0  0  0  0  0  0  0  0  0  0
    8.6862    2.1669   -0.3859 C   0  0  0  0  0  0  0  0  0  0  0  0
    5.7576    0.2650    2.0318 C   0  0  0  0  0  0  0  0  0  0  0  0
    7.3518    2.1264   -0.7327 C   0  0  0  0  0  0  0  0  0  0  0  0
    5.1057    1.6434   -0.3246 C   0  0  0  0  0  0  0  0  0  0  0  0
    4.4737    0.2690    1.5048 C   0  0  0  0  0  0  0  0  0  0  0  0
   12.3648    1.6688    2.8195 C   0  0  0  0  0  0  0  0  0  0  0  0
   11.3666    2.7468    0.4709 C   0  0  0  0  0  0  0  0  0  0  0  0
    4.1568    0.9583    0.3702 C   0  0  0  0  0  0  0  0  0  0  0  0
    8.1638   -0.7923    3.4903 C   0  0  0  0  0  0  0  0  0  0  0  0
   13.1779    2.5102    2.0118 C   0  0  0  0  0  0  0  0  0  0  0  0
   12.6662    3.0385    0.8436 C   0  0  0  0  0  0  0  0  0  0  0  0
    2.5400   -0.3477    0.8137 C   0  0  0  0  0  0  0  0  0  0  0  0
   12.5147    0.3850    4.9171 C   0  0  0  0  0  0  0  0  0  0  0  0
   15.2591    3.6275    1.6398 C   0  0  0  0  0  0  0  0  0  0  0  0
   10.3822    0.0347    4.0123 H   0  0  0  0  0  0  0  0  0  0  0  0
    9.3362    2.6057   -1.1381 H   0  0  0  0  0  0  0  0  0  0  0  0
    5.8543   -0.2562    2.9678 H   0  0  0  0  0  0  0  0  0  0  0  0
    7.0565    2.5568   -1.6924 H   0  0  0  0  0  0  0  0  0  0  0  0
    4.8208    2.1786   -1.2268 H   0  0  0  0  0  0  0  0  0  0  0  0
   11.0406    3.2399   -0.4414 H   0  0  0  0  0  0  0  0  0  0  0  0
    7.4900   -0.3373    4.2172 H   0  0  0  0  0  0  0  0  0  0  0  0
    7.6807   -1.4733    2.7862 H   0  0  0  0  0  0  0  0  0  0  0  0
    8.9054   -1.3857    4.0363 H   0  0  0  0  0  0  0  0  0  0  0  0
   13.2388    3.6932    0.1939 H   0  0  0  0  0  0  0  0  0  0  0  0
    2.6791   -1.2492    0.1975 H   0  0  0  0  0  0  0  0  0  0  0  0
    1.4959   -0.2926    1.1303 H   0  0  0  0  0  0  0  0  0  0  0  0
   11.6555    0.8496    5.4146 H   0  0  0  0  0  0  0  0  0  0  0  0
   12.2725   -0.5922    4.4854 H   0  0  0  0  0  0  0  0  0  0  0  0
   13.2709    0.2142    5.6833 H   0  0  0  0  0  0  0  0  0  0  0  0
   15.4437    3.1845    0.6541 H   0  0  0  0  0  0  0  0  0  0  0  0
   14.8104    4.6230    1.5435 H   0  0  0  0  0  0  0  0  0  0  0  0
   16.2300    3.7535    2.1305 H   0  0  0  0  0  0  0  0  0  0  0  0
  1 17  1  0  0  0  0
  1 24  1  0  0  0  0
  2 20  1  0  0  0  0
  2 24  1  0  0  0  0
  3 18  1  0  0  0  0
  3 25  1  0  0  0  0
  4 22  1  0  0  0  0
  4 26  1  0  0  0  0
  5  6  1  0  0  0  0
  5 12  2  0  0  0  0
  5 21  1  0  0  0  0
  6  7  1  0  0  0  0
  6  8  2  0  0  0  0
  7  9  1  0  0  0  0
  7 13  2  0  0  0  0
  8 11  1  0  0  0  0
  8 14  1  0  0  0  0
  9 10  2  0  0  0  0
  9 19  1  0  0  0  0
 10 12  1  0  0  0  0
 10 18  1  0  0  0  0
 11 15  2  0  0  0  0
 11 16  1  0  0  0  0
 12 27  1  0  0  0  0
 13 15  1  0  0  0  0
 13 28  1  0  0  0  0
 14 17  2  0  0  0  0
 14 29  1  0  0  0  0
 15 30  1  0  0  0  0
 16 20  2  0  0  0  0
 16 31  1  0  0  0  0
 17 20  1  0  0  0  0
 18 22  2  0  0  0  0
 19 23  2  0  0  0  0
 19 32  1  0  0  0  0
 21 33  1  0  0  0  0
 21 34  1  0  0  0  0
 21 35  1  0  0  0  0
 22 23  1  0  0  0  0
 23 36  1  0  0  0  0
 24 37  1  0  0  0  0
 24 38  1  0  0  0  0
 25 39  1  0  0  0  0
 25 40  1  0  0  0  0
 25 41  1  0  0  0  0
 26 42  1  0  0  0  0
 26 43  1  0  0  0  0
 26 44  1  0  0  0  0
M  CHG  1   5   1
M  END
>  <Mol_ID>
9408

>  <Formula>
C21H18NO4+

>  <MolWeight>
348.37192

>  <Cat>
E0124

>  <Name>
Chelerythrine

>  <Synonyms>
Toddaline, Broussonpapyrine

>  <Target>
Bcl-2,PKC

>  <Form>
Free Base

>  <CAS>
34316-15-9

>  <URL>
http://www.selleckchem.com/products/chelerythrine.html

$$$$
