CHENIX (chenodiol).cdx
 OpenBabel08302521233D

 68 71  0  0  0  0  0  0  0  0999 V2000
    3.8571    4.2226    1.2901 C   0  0  0  0  0  0  0  0  0  0  0  0
    5.1208    3.6852    0.6199 C   0  0  2  0  0  0  0  0  0  0  0  0
    5.0397    2.2103    0.2386 C   0  0  0  0  0  0  0  0  0  0  0  0
    3.7442    1.8576   -0.4992 C   0  0  2  0  0  0  0  0  0  0  0  0
    2.4524    2.2947    0.2885 C   0  0  2  0  0  0  0  0  0  0  0  0
    2.8197    3.1397    1.5449 C   0  0  0  0  0  0  0  0  0  0  0  0
    3.7838    0.3736   -0.8944 C   0  0  0  0  0  0  0  0  0  0  0  0
    2.4344   -0.1200   -1.3960 C   0  0  2  0  0  0  0  0  0  0  0  0
    1.4115   -0.0706   -0.2651 C   0  0  3  0  0  0  0  0  0  0  0  0
    1.6250    1.0511    0.7870 C   0  0  3  0  0  0  0  0  0  0  0  0
   -0.0235   -0.4538   -0.6508 C   0  0  3  0  0  0  0  0  0  0  0  0
   -1.1764    0.2434    0.1054 C   0  0  3  0  0  0  0  0  0  0  0  0
   -0.7705    0.3837    1.5682 C   0  0  0  0  0  0  0  0  0  0  0  0
    0.3974    1.3725    1.6852 C   0  0  0  0  0  0  0  0  0  0  0  0
   -0.5916   -0.5672   -2.0640 C   0  0  0  0  0  0  0  0  0  0  0  0
   -2.0738   -0.9838   -1.7752 C   0  0  0  0  0  0  0  0  0  0  0  0
   -2.2617   -0.8105   -0.2310 C   0  0  3  0  0  0  0  0  0  0  0  0
    6.2358    3.8271    1.5005 O   0  0  0  0  0  0  0  0  0  0  0  0
    2.5807   -1.4719   -1.8441 O   0  0  0  0  0  0  0  0  0  0  0  0
    1.6338    3.1898   -0.6705 C   0  0  0  0  0  0  0  0  0  0  0  0
   -1.5381    1.6382   -0.4718 C   0  0  0  0  0  0  0  0  0  0  0  0
   -3.6821   -0.6689    0.3556 C   0  0  3  0  0  0  0  0  0  0  0  0
   -4.4724    0.5520   -0.1279 C   0  0  0  0  0  0  0  0  0  0  0  0
   -4.4475   -1.9807    0.1213 C   0  0  0  0  0  0  0  0  0  0  0  0
   -5.8306    0.7391    0.5528 C   0  0  0  0  0  0  0  0  0  0  0  0
   -6.4483    2.0527    0.1197 C   0  0  0  0  0  0  0  0  0  0  0  0
   -7.8033    2.0124    0.1122 O   0  0  0  0  0  0  0  0  0  0  0  0
   -5.8291    3.0661   -0.1611 O   0  0  0  0  0  0  0  0  0  0  0  0
    3.4138    4.9981    0.6543 H   0  0  0  0  0  0  0  0  0  0  0  0
    4.0897    4.7131    2.2428 H   0  0  0  0  0  0  0  0  0  0  0  0
    5.3332    4.2851   -0.2731 H   0  0  0  0  0  0  0  0  0  0  0  0
    5.1460    1.5861    1.1360 H   0  0  0  0  0  0  0  0  0  0  0  0
    5.9067    1.9603   -0.3875 H   0  0  0  0  0  0  0  0  0  0  0  0
    3.7748    2.4133   -1.4483 H   0  0  0  0  0  0  0  0  0  0  0  0
    3.2045    2.4793    2.3338 H   0  0  0  0  0  0  0  0  0  0  0  0
    1.9245    3.6154    1.9641 H   0  0  0  0  0  0  0  0  0  0  0  0
    4.5462    0.2117   -1.6666 H   0  0  0  0  0  0  0  0  0  0  0  0
    4.1066   -0.2432   -0.0435 H   0  0  0  0  0  0  0  0  0  0  0  0
    2.1082    0.4736   -2.2537 H   0  0  0  0  0  0  0  0  0  0  0  0
    1.6928   -0.9483    0.3474 H   0  0  0  0  0  0  0  0  0  0  0  0
    2.3165    0.5764    1.5061 H   0  0  0  0  0  0  0  0  0  0  0  0
   -0.0155   -1.5136   -0.3347 H   0  0  0  0  0  0  0  0  0  0  0  0
   -0.4794   -0.5866    1.9880 H   0  0  0  0  0  0  0  0  0  0  0  0
   -1.6130    0.7470    2.1686 H   0  0  0  0  0  0  0  0  0  0  0  0
    0.0247    2.3816    1.4825 H   0  0  0  0  0  0  0  0  0  0  0  0
    0.7184    1.4001    2.7345 H   0  0  0  0  0  0  0  0  0  0  0  0
   -0.5535    0.3890   -2.5998 H   0  0  0  0  0  0  0  0  0  0  0  0
   -0.0797   -1.3122   -2.6790 H   0  0  0  0  0  0  0  0  0  0  0  0
   -2.7635   -0.3700   -2.3624 H   0  0  0  0  0  0  0  0  0  0  0  0
   -2.2305   -2.0292   -2.0625 H   0  0  0  0  0  0  0  0  0  0  0  0
   -1.9141   -1.7586    0.2136 H   0  0  0  0  0  0  0  0  0  0  0  0
    6.2076    4.7219    1.8792 H   0  0  0  0  0  0  0  0  0  0  0  0
    2.9056   -2.0030   -1.1013 H   0  0  0  0  0  0  0  0  0  0  0  0
    2.2419    4.0048   -1.0798 H   0  0  0  0  0  0  0  0  0  0  0  0
    0.7873    3.6662   -0.1674 H   0  0  0  0  0  0  0  0  0  0  0  0
    1.2651    2.6211   -1.5295 H   0  0  0  0  0  0  0  0  0  0  0  0
   -2.0306    2.2674    0.2780 H   0  0  0  0  0  0  0  0  0  0  0  0
   -2.1963    1.5988   -1.3449 H   0  0  0  0  0  0  0  0  0  0  0  0
   -0.6602    2.1787   -0.8035 H   0  0  0  0  0  0  0  0  0  0  0  0
   -3.5639   -0.5703    1.4436 H   0  0  0  0  0  0  0  0  0  0  0  0
   -3.9042    1.4520    0.0975 H   0  0  0  0  0  0  0  0  0  0  0  0
   -4.6050    0.5210   -1.2151 H   0  0  0  0  0  0  0  0  0  0  0  0
   -5.4034   -1.9901    0.6517 H   0  0  0  0  0  0  0  0  0  0  0  0
   -4.6379   -2.1488   -0.9428 H   0  0  0  0  0  0  0  0  0  0  0  0
   -3.8744   -2.8361    0.5005 H   0  0  0  0  0  0  0  0  0  0  0  0
   -5.7167    0.7689    1.6418 H   0  0  0  0  0  0  0  0  0  0  0  0
   -6.4945   -0.0801    0.2807 H   0  0  0  0  0  0  0  0  0  0  0  0
   -8.1764    1.1508    0.3580 H   0  0  0  0  0  0  0  0  0  0  0  0
  1  2  1  0  0  0  0
  1 29  1  0  0  0  0
  1 30  1  0  0  0  0
  2  3  1  0  0  0  0
  2 18  1  0  0  0  0
  2 31  1  6  0  0  0
  3 32  1  0  0  0  0
  3 33  1  0  0  0  0
  4  3  1  0  0  0  0
  4  5  1  0  0  0  0
  4  7  1  0  0  0  0
  4 34  1  6  0  0  0
  5  6  1  0  0  0  0
  5 20  1  6  0  0  0
  6  1  1  0  0  0  0
  6 35  1  0  0  0  0
  6 36  1  0  0  0  0
  7  8  1  0  0  0  0
  7 37  1  0  0  0  0
  7 38  1  0  0  0  0
  8 19  1  0  0  0  0
  8 39  1  6  0  0  0
  9  8  1  0  0  0  0
  9 10  1  0  0  0  0
  9 11  1  0  0  0  0
  9 40  1  0  0  0  0
 10  5  1  0  0  0  0
 10 14  1  0  0  0  0
 10 41  1  0  0  0  0
 11 12  1  0  0  0  0
 11 15  1  0  0  0  0
 11 42  1  0  0  0  0
 12 13  1  0  0  0  0
 12 21  1  0  0  0  0
 13 14  1  0  0  0  0
 13 43  1  0  0  0  0
 13 44  1  0  0  0  0
 14 45  1  0  0  0  0
 14 46  1  0  0  0  0
 15 16  1  0  0  0  0
 15 47  1  0  0  0  0
 15 48  1  0  0  0  0
 16 49  1  0  0  0  0
 16 50  1  0  0  0  0
 17 16  1  0  0  0  0
 17 12  1  0  0  0  0
 17 22  1  0  0  0  0
 17 51  1  0  0  0  0
 18 52  1  0  0  0  0
 19 53  1  0  0  0  0
 20 54  1  0  0  0  0
 20 55  1  0  0  0  0
 20 56  1  0  0  0  0
 21 57  1  0  0  0  0
 21 58  1  0  0  0  0
 21 59  1  0  0  0  0
 22 23  1  0  0  0  0
 22 24  1  0  0  0  0
 22 60  1  0  0  0  0
 23 25  1  0  0  0  0
 23 61  1  0  0  0  0
 23 62  1  0  0  0  0
 24 63  1  0  0  0  0
 24 64  1  0  0  0  0
 24 65  1  0  0  0  0
 25 26  1  0  0  0  0
 25 66  1  0  0  0  0
 25 67  1  0  0  0  0
 26 27  1  0  0  0  0
 26 28  2  0  0  0  0
 27 68  1  0  0  0  0
M  END
>  <Mol_ID>
455

>  <Formula>
C24H40O4

>  <MolWeight>
392.572

>  <Cat>
S1843

>  <Name>
Chenodeoxycholic Acid

>  <Synonyms>
Chenodiol, Chenodesoxycholic acid, Chenocholic acid,CDCA

>  <Target>
FXR

>  <Form>
free base

>  <CAS>
474-25-9

>  <URL>
http://selleckchem.com/products/Chenodeoxycholic-acid.html

$$$$
