CHIR-090
 OpenBabel08302521453D

 59 61  0  0  1  0  0  0  0  0999 V2000
    1.0201    0.2356   -0.0499 C   0  0  0  0  0  0  0  0  0  0  0  0
    0.3183    1.3371   -0.7349 C   0  0  0  0  0  0  0  0  0  0  0  0
    0.7398    1.8348   -1.9721 C   0  0  0  0  0  0  0  0  0  0  0  0
    0.0039    2.8550   -2.5822 C   0  0  0  0  0  0  0  0  0  0  0  0
   -1.1381    3.3592   -1.9533 C   0  0  0  0  0  0  0  0  0  0  0  0
   -1.5187    2.8971   -0.6946 C   0  0  0  0  0  0  0  0  0  0  0  0
   -0.7865    1.8899   -0.0810 C   0  0  0  0  0  0  0  0  0  0  0  0
    1.1117    0.2364    1.1764 O   0  0  0  0  0  0  0  0  0  0  0  0
    1.5302   -0.7783   -0.8243 N   0  0  0  0  0  0  0  0  0  0  0  0
   -1.9769    4.3094   -2.6073 C   0  0  0  0  0  0  0  0  0  0  0  0
   -2.7459    5.0520   -3.1386 C   0  0  0  0  0  0  0  0  0  0  0  0
   -3.6590    5.9273   -3.7969 C   0  0  0  0  0  0  0  0  0  0  0  0
   -4.6320    6.6163   -3.0708 C   0  0  0  0  0  0  0  0  0  0  0  0
   -5.4480    7.5480   -3.7165 C   0  0  0  0  0  0  0  0  0  0  0  0
   -5.2885    7.8001   -5.0869 C   0  0  0  0  0  0  0  0  0  0  0  0
   -4.3722    7.0280   -5.8177 C   0  0  0  0  0  0  0  0  0  0  0  0
   -3.5503    6.1083   -5.1719 C   0  0  0  0  0  0  0  0  0  0  0  0
   -6.0502    8.9114   -5.7687 C   0  0  0  0  0  0  0  0  0  0  0  0
   -5.4121   10.2306   -5.8188 N   0  0  0  0  0  0  0  0  0  0  0  0
   -4.1033   10.3006   -6.4858 C   0  0  0  0  0  0  0  0  0  0  0  0
   -2.8921   10.1195   -5.5527 C   0  0  0  0  0  0  0  0  0  0  0  0
   -2.9418   11.0490   -4.4643 O   0  0  0  0  0  0  0  0  0  0  0  0
   -4.1359   10.8420   -3.7004 C   0  0  0  0  0  0  0  0  0  0  0  0
   -5.3991   10.9983   -4.5660 C   0  0  0  0  0  0  0  0  0  0  0  0
    2.0408   -2.0086   -0.1869 C   0  0  1  0  0  0  0  0  0  0  0  0
    1.9061   -3.2134   -1.1447 C   0  0  1  0  0  0  0  0  0  0  0  0
    2.0196   -4.5623   -0.4375 C   0  0  0  0  0  0  0  0  0  0  0  0
    3.4913   -1.7845    0.2982 C   0  0  0  0  0  0  0  0  0  0  0  0
    4.4252   -2.5420    0.0397 O   0  0  0  0  0  0  0  0  0  0  0  0
    3.6410   -0.6977    1.1270 N   0  0  0  0  0  0  0  0  0  0  0  0
    4.9044   -0.4260    1.6828 O   0  0  0  0  0  0  0  0  0  0  0  0
    0.6199   -3.1641   -1.7947 O   0  0  0  0  0  0  0  0  0  0  0  0
    1.6323    1.4519   -2.4589 H   0  0  0  0  0  0  0  0  0  0  0  0
    0.3189    3.2425   -3.5489 H   0  0  0  0  0  0  0  0  0  0  0  0
   -2.3962    3.3044   -0.1974 H   0  0  0  0  0  0  0  0  0  0  0  0
   -1.0923    1.5208    0.8970 H   0  0  0  0  0  0  0  0  0  0  0  0
    1.2692   -0.8453   -1.8027 H   0  0  0  0  0  0  0  0  0  0  0  0
   -4.7434    6.4539   -2.0005 H   0  0  0  0  0  0  0  0  0  0  0  0
   -6.1835    8.1025   -3.1373 H   0  0  0  0  0  0  0  0  0  0  0  0
   -4.2560    7.1775   -6.8891 H   0  0  0  0  0  0  0  0  0  0  0  0
   -2.8055    5.5578   -5.7417 H   0  0  0  0  0  0  0  0  0  0  0  0
   -6.2660    8.5955   -6.7988 H   0  0  0  0  0  0  0  0  0  0  0  0
   -7.0434    9.0009   -5.3087 H   0  0  0  0  0  0  0  0  0  0  0  0
   -4.0302   11.3083   -6.9160 H   0  0  0  0  0  0  0  0  0  0  0  0
   -4.0480    9.6122   -7.3363 H   0  0  0  0  0  0  0  0  0  0  0  0
   -2.8140    9.1083   -5.1468 H   0  0  0  0  0  0  0  0  0  0  0  0
   -1.9686   10.3092   -6.1088 H   0  0  0  0  0  0  0  0  0  0  0  0
   -4.1451   11.5952   -2.9057 H   0  0  0  0  0  0  0  0  0  0  0  0
   -4.0858    9.8640   -3.2147 H   0  0  0  0  0  0  0  0  0  0  0  0
   -5.4554   12.0553   -4.8595 H   0  0  0  0  0  0  0  0  0  0  0  0
   -6.2980   10.8094   -3.9683 H   0  0  0  0  0  0  0  0  0  0  0  0
    1.4188   -2.1956    0.6980 H   0  0  0  0  0  0  0  0  0  0  0  0
    2.6544   -3.1547   -1.9429 H   0  0  0  0  0  0  0  0  0  0  0  0
    1.2831   -4.6479    0.3697 H   0  0  0  0  0  0  0  0  0  0  0  0
    1.8064   -5.3788   -1.1371 H   0  0  0  0  0  0  0  0  0  0  0  0
    3.0148   -4.7231   -0.0156 H   0  0  0  0  0  0  0  0  0  0  0  0
    2.8501   -0.1336    1.4491 H   0  0  0  0  0  0  0  0  0  0  0  0
    5.5155   -0.7844    1.0091 H   0  0  0  0  0  0  0  0  0  0  0  0
   -0.0594   -3.3741   -1.1280 H   0  0  0  0  0  0  0  0  0  0  0  0
  1  2  1  0  0  0  0
  1  8  2  0  0  0  0
  1  9  1  0  0  0  0
  2  3  2  0  0  0  0
  2  7  1  0  0  0  0
  3  4  1  0  0  0  0
  3 33  1  0  0  0  0
  4  5  2  0  0  0  0
  4 34  1  0  0  0  0
  5  6  1  0  0  0  0
  5 10  1  0  0  0  0
  6  7  2  0  0  0  0
  6 35  1  0  0  0  0
  7 36  1  0  0  0  0
  9 37  1  0  0  0  0
 10 11  3  0  0  0  0
 11 12  1  0  0  0  0
 12 13  2  0  0  0  0
 12 17  1  0  0  0  0
 13 14  1  0  0  0  0
 13 38  1  0  0  0  0
 14 15  2  0  0  0  0
 14 39  1  0  0  0  0
 15 16  1  0  0  0  0
 15 18  1  0  0  0  0
 16 17  2  0  0  0  0
 16 40  1  0  0  0  0
 17 41  1  0  0  0  0
 18 19  1  0  0  0  0
 18 42  1  0  0  0  0
 18 43  1  0  0  0  0
 19 20  1  0  0  0  0
 19 24  1  0  0  0  0
 20 21  1  0  0  0  0
 20 44  1  0  0  0  0
 20 45  1  0  0  0  0
 21 22  1  0  0  0  0
 21 46  1  0  0  0  0
 21 47  1  0  0  0  0
 22 23  1  0  0  0  0
 23 24  1  0  0  0  0
 23 48  1  0  0  0  0
 23 49  1  0  0  0  0
 24 50  1  0  0  0  0
 24 51  1  0  0  0  0
 25 26  1  0  0  0  0
 25 28  1  0  0  0  0
 25  9  1  0  0  0  0
 25 52  1  1  0  0  0
 26 27  1  0  0  0  0
 26 32  1  0  0  0  0
 26 53  1  6  0  0  0
 27 54  1  0  0  0  0
 27 55  1  0  0  0  0
 27 56  1  0  0  0  0
 28 29  2  0  0  0  0
 28 30  1  0  0  0  0
 30 31  1  0  0  0  0
 30 57  1  0  0  0  0
 31 58  1  0  0  0  0
 32 59  1  0  0  0  0
M  END
>  <Mol_ID>
9545

>  <Formula>
C24H27N3O5

>  <MolWeight>
437.48828

>  <Cat>
E2890

>  <Name>
CHIR-090

>  <Target>
Antibiotics

>  <Form>
free base

>  <CAS>
728865-23-4

>  <URL>
https://www.selleckchem.com/products/chir-090.html

$$$$
