Chk2 Inhibitor II (BML-277).cdx
 OpenBabel08302520433D

 40 43  0  0  0  0  0  0  0  0999 V2000
    2.2257   -0.1152    0.2874 C   0  0  0  0  0  0  0  0  0  0  0  0
    2.1543    0.0349   -1.1067 C   0  0  0  0  0  0  0  0  0  0  0  0
    0.9236    0.1288   -1.7701 C   0  0  0  0  0  0  0  0  0  0  0  0
   -0.2161    0.0716   -0.9698 C   0  0  0  0  0  0  0  0  0  0  0  0
   -0.1778   -0.0733    0.4121 C   0  0  0  0  0  0  0  0  0  0  0  0
    1.0588   -0.1583    1.0644 C   0  0  0  0  0  0  0  0  0  0  0  0
    3.5677   -0.2073    0.9187 C   0  0  0  0  0  0  0  0  0  0  0  0
    4.5642    0.2539    0.3783 O   0  0  0  0  0  0  0  0  0  0  0  0
    3.6525   -0.8650    2.1145 N   0  0  0  0  0  0  0  0  0  0  0  0
   -1.5535    0.1340   -1.2588 N   0  0  0  0  0  0  0  0  0  0  0  0
   -2.2663    0.0188   -0.0864 C   0  0  0  0  0  0  0  0  0  0  0  0
   -1.4417   -0.1153    0.9350 N   0  0  0  0  0  0  0  0  0  0  0  0
   -3.7262   -0.0040   -0.0194 C   0  0  0  0  0  0  0  0  0  0  0  0
   -4.3524   -0.7366    0.9988 C   0  0  0  0  0  0  0  0  0  0  0  0
   -5.7453   -0.8082    1.0773 C   0  0  0  0  0  0  0  0  0  0  0  0
   -6.5312   -0.0871    0.1784 C   0  0  0  0  0  0  0  0  0  0  0  0
   -5.9177    0.6328   -0.8486 C   0  0  0  0  0  0  0  0  0  0  0  0
   -4.5247    0.6750   -0.9494 C   0  0  0  0  0  0  0  0  0  0  0  0
   -7.9056   -0.0801    0.1698 O   0  0  0  0  0  0  0  0  0  0  0  0
   -8.6172   -0.1436    1.3460 C   0  0  0  0  0  0  0  0  0  0  0  0
   -8.1781    0.3467    2.5783 C   0  0  0  0  0  0  0  0  0  0  0  0
   -8.9846    0.2172    3.7110 C   0  0  0  0  0  0  0  0  0  0  0  0
  -10.2537   -0.3497    3.6046 C   0  0  0  0  0  0  0  0  0  0  0  0
  -10.7201   -0.7845    2.3653 C   0  0  0  0  0  0  0  0  0  0  0  0
   -9.9021   -0.6828    1.2391 C   0  0  0  0  0  0  0  0  0  0  0  0
    3.0738    0.0757   -1.6901 H   0  0  0  0  0  0  0  0  0  0  0  0
    0.8717    0.2399   -2.8478 H   0  0  0  0  0  0  0  0  0  0  0  0
    1.0774   -0.2324    2.1439 H   0  0  0  0  0  0  0  0  0  0  0  0
    2.9069   -1.4386    2.4807 H   0  0  0  0  0  0  0  0  0  0  0  0
    4.5807   -0.9958    2.4956 H   0  0  0  0  0  0  0  0  0  0  0  0
   -1.9549    0.2158   -2.1808 H   0  0  0  0  0  0  0  0  0  0  0  0
   -3.7488   -1.2674    1.7338 H   0  0  0  0  0  0  0  0  0  0  0  0
   -6.1954   -1.4219    1.8524 H   0  0  0  0  0  0  0  0  0  0  0  0
   -6.5289    1.1685   -1.5708 H   0  0  0  0  0  0  0  0  0  0  0  0
   -4.0811    1.2656   -1.7466 H   0  0  0  0  0  0  0  0  0  0  0  0
   -7.2094    0.8270    2.6801 H   0  0  0  0  0  0  0  0  0  0  0  0
   -8.6228    0.5655    4.6750 H   0  0  0  0  0  0  0  0  0  0  0  0
  -10.8832   -0.4416    4.4859 H   0  0  0  0  0  0  0  0  0  0  0  0
  -11.7189   -1.2030    2.2750 H   0  0  0  0  0  0  0  0  0  0  0  0
  -10.2680   -1.0232    0.2738 H   0  0  0  0  0  0  0  0  0  0  0  0
  1  2  2  0  0  0  0
  1  7  1  0  0  0  0
  2  3  1  0  0  0  0
  2 26  1  0  0  0  0
  3  4  2  0  0  0  0
  3 27  1  0  0  0  0
  4  5  1  0  0  0  0
  4 10  1  0  0  0  0
  5  6  2  0  0  0  0
  6  1  1  0  0  0  0
  6 28  1  0  0  0  0
  7  8  2  0  0  0  0
  7  9  1  0  0  0  0
  9 29  1  0  0  0  0
  9 30  1  0  0  0  0
 10 11  1  0  0  0  0
 10 31  1  0  0  0  0
 11 12  2  0  0  0  0
 11 13  1  0  0  0  0
 12  5  1  0  0  0  0
 13 14  2  0  0  0  0
 14 15  1  0  0  0  0
 14 32  1  0  0  0  0
 15 16  2  0  0  0  0
 15 33  1  0  0  0  0
 16 17  1  0  0  0  0
 16 19  1  0  0  0  0
 17 18  2  0  0  0  0
 17 34  1  0  0  0  0
 18 13  1  0  0  0  0
 18 35  1  0  0  0  0
 19 20  1  0  0  0  0
 20 21  2  0  0  0  0
 21 22  1  0  0  0  0
 21 36  1  0  0  0  0
 22 23  2  0  0  0  0
 22 37  1  0  0  0  0
 23 24  1  0  0  0  0
 23 38  1  0  0  0  0
 24 25  2  0  0  0  0
 24 39  1  0  0  0  0
 25 20  1  0  0  0  0
 25 40  1  0  0  0  0
M  END
>  <Mol_ID>
4163

>  <Formula>
C20H14ClN3O2

>  <MolWeight>
363.79706

>  <Cat>
S8632

>  <Name>
Chk2 Inhibitor II (BML-277)

>  <Synonyms>
N/A

>  <Target>
Apoptosis related,Chk

>  <Form>
free base

>  <CAS>
516480-79-8

>  <URL>
http://selleckchem.com/products/chk2-inhibitor-2-bml-277.html

$$$$
