Chloroxylenol.cdx
 OpenBabel08302522063D

 19 19  0  0  0  0  0  0  0  0999 V2000
    0.7963   -1.1008    0.0011 C   0  0  0  0  0  0  0  0  0  0  0  0
   -0.5865   -1.3148   -0.0020 C   0  0  0  0  0  0  0  0  0  0  0  0
   -1.4485   -0.2095   -0.0022 C   0  0  0  0  0  0  0  0  0  0  0  0
   -0.9408    1.0981   -0.0021 C   0  0  0  0  0  0  0  0  0  0  0  0
    0.4466    1.2946   -0.0037 C   0  0  0  0  0  0  0  0  0  0  0  0
    1.3002    0.1947   -0.0008 C   0  0  0  0  0  0  0  0  0  0  0  0
   -1.1230   -2.7151   -0.0098 C   0  0  0  0  0  0  0  0  0  0  0  0
   -1.8656    2.2798   -0.0008 C   0  0  0  0  0  0  0  0  0  0  0  0
    2.6559    0.3459   -0.0009 O   0  0  0  0  0  0  0  0  0  0  0  0
    1.4853   -1.9412    0.0036 H   0  0  0  0  0  0  0  0  0  0  0  0
   -2.5254   -0.3690   -0.0034 H   0  0  0  0  0  0  0  0  0  0  0  0
    0.8449    2.3043   -0.0071 H   0  0  0  0  0  0  0  0  0  0  0  0
   -0.7837   -3.2424   -0.9072 H   0  0  0  0  0  0  0  0  0  0  0  0
   -0.7795   -3.2561    0.8777 H   0  0  0  0  0  0  0  0  0  0  0  0
   -2.2178   -2.7265   -0.0075 H   0  0  0  0  0  0  0  0  0  0  0  0
   -1.6937    2.8920    0.8902 H   0  0  0  0  0  0  0  0  0  0  0  0
   -1.7006    2.8893   -0.8952 H   0  0  0  0  0  0  0  0  0  0  0  0
   -2.9153    1.9687    0.0041 H   0  0  0  0  0  0  0  0  0  0  0  0
    2.8598    1.2949   -0.0067 H   0  0  0  0  0  0  0  0  0  0  0  0
  1  2  2  0  0  0  0
  1 10  1  0  0  0  0
  2  3  1  0  0  0  0
  2  7  1  0  0  0  0
  3  4  2  0  0  0  0
  3 11  1  0  0  0  0
  4  5  1  0  0  0  0
  4  8  1  0  0  0  0
  5  6  2  0  0  0  0
  5 12  1  0  0  0  0
  6  1  1  0  0  0  0
  6  9  1  0  0  0  0
  7 13  1  0  0  0  0
  7 14  1  0  0  0  0
  7 15  1  0  0  0  0
  8 16  1  0  0  0  0
  8 17  1  0  0  0  0
  8 18  1  0  0  0  0
  9 19  1  0  0  0  0
M  END
>  <Mol_ID>
1475

>  <Formula>
C8H9ClO

>  <MolWeight>
156.60946

>  <Cat>
S4518

>  <Name>
Chloroxylenol

>  <Synonyms>
N/A

>  <Target>
Antiviral,Bacterial

>  <Form>
free base

>  <CAS>
88-04-0

>  <URL>
http://selleckchem.com/products/chloroxylenol.html

$$$$
