Chloropyramine hydrochloride
 OpenBabel08302520323D

 40 41  0  0  0  0  0  0  0  0999 V2000
    1.0062   -0.0223    0.2954 N   0  0  0  0  0  0  0  0  0  0  0  0
    0.2354   -1.1091    0.6682 C   0  0  0  0  0  0  0  0  0  0  0  0
    0.3225    1.1493   -0.2463 C   0  0  0  0  0  0  0  0  0  0  0  0
    2.4609   -0.1509    0.1111 C   0  0  0  0  0  0  0  0  0  0  0  0
    0.6655   -1.9828    1.6677 C   0  0  0  0  0  0  0  0  0  0  0  0
   -0.9425   -1.3216    0.0402 N   0  0  0  0  0  0  0  0  0  0  0  0
    0.1012    2.1827    0.8469 C   0  0  0  0  0  0  0  0  0  0  0  0
    2.8529   -1.1891   -0.9789 C   0  0  0  0  0  0  0  0  0  0  0  0
   -0.0943   -3.1060    1.9937 C   0  0  0  0  0  0  0  0  0  0  0  0
   -1.6639   -2.4208    0.3630 C   0  0  0  0  0  0  0  0  0  0  0  0
    1.0862    3.1357    1.1471 C   0  0  0  0  0  0  0  0  0  0  0  0
   -1.0878    2.1875    1.5930 C   0  0  0  0  0  0  0  0  0  0  0  0
    4.3105   -1.3536   -1.2254 N   0  0  0  0  0  0  0  0  0  0  0  0
   -1.2773   -3.3426    1.3173 C   0  0  0  0  0  0  0  0  0  0  0  0
    0.8739    4.0825    2.1532 C   0  0  0  0  0  0  0  0  0  0  0  0
   -1.2970    3.1403    2.5951 C   0  0  0  0  0  0  0  0  0  0  0  0
    4.5278   -2.4253   -2.2082 C   0  0  0  0  0  0  0  0  0  0  0  0
    4.9584   -0.1342   -1.7060 C   0  0  0  0  0  0  0  0  0  0  0  0
   -0.3150    4.0891    2.8715 C   0  0  0  0  0  0  0  0  0  0  0  0
    0.9181    1.6067   -1.0474 H   0  0  0  0  0  0  0  0  0  0  0  0
   -0.6380    0.9183   -0.7243 H   0  0  0  0  0  0  0  0  0  0  0  0
    2.8602    0.8299   -0.1707 H   0  0  0  0  0  0  0  0  0  0  0  0
    2.9427   -0.4035    1.0619 H   0  0  0  0  0  0  0  0  0  0  0  0
    1.5770   -1.7811    2.2184 H   0  0  0  0  0  0  0  0  0  0  0  0
    2.4727   -2.1661   -0.6548 H   0  0  0  0  0  0  0  0  0  0  0  0
    2.3344   -0.9465   -1.9151 H   0  0  0  0  0  0  0  0  0  0  0  0
    0.2433   -3.7843    2.7710 H   0  0  0  0  0  0  0  0  0  0  0  0
   -2.5902   -2.5422   -0.1886 H   0  0  0  0  0  0  0  0  0  0  0  0
    2.0232    3.1437    0.5972 H   0  0  0  0  0  0  0  0  0  0  0  0
   -1.8544    1.4406    1.3964 H   0  0  0  0  0  0  0  0  0  0  0  0
   -1.8862   -4.2137    1.5290 H   0  0  0  0  0  0  0  0  0  0  0  0
    1.6477    4.8162    2.3712 H   0  0  0  0  0  0  0  0  0  0  0  0
   -2.2245    3.1374    3.1619 H   0  0  0  0  0  0  0  0  0  0  0  0
    3.9955   -2.2376   -3.1483 H   0  0  0  0  0  0  0  0  0  0  0  0
    5.5944   -2.5336   -2.4412 H   0  0  0  0  0  0  0  0  0  0  0  0
    4.1976   -3.3894   -1.8073 H   0  0  0  0  0  0  0  0  0  0  0  0
    4.5672    0.1924   -2.6763 H   0  0  0  0  0  0  0  0  0  0  0  0
    4.8573    0.6866   -0.9903 H   0  0  0  0  0  0  0  0  0  0  0  0
    6.0381   -0.2978   -1.8115 H   0  0  0  0  0  0  0  0  0  0  0  0
   -0.4757    4.8282    3.6534 H   0  0  0  0  0  0  0  0  0  0  0  0
  1  2  1  0  0  0  0
  1  3  1  0  0  0  0
  1  4  1  0  0  0  0
  2  5  2  0  0  0  0
  2  6  1  0  0  0  0
  3  7  1  0  0  0  0
  3 20  1  0  0  0  0
  3 21  1  0  0  0  0
  4  8  1  0  0  0  0
  4 22  1  0  0  0  0
  4 23  1  0  0  0  0
  5  9  1  0  0  0  0
  5 24  1  0  0  0  0
  6 10  2  0  0  0  0
  7 11  2  0  0  0  0
  7 12  1  0  0  0  0
  8 13  1  0  0  0  0
  8 25  1  0  0  0  0
  8 26  1  0  0  0  0
  9 14  2  0  0  0  0
  9 27  1  0  0  0  0
 10 14  1  0  0  0  0
 10 28  1  0  0  0  0
 11 15  1  0  0  0  0
 11 29  1  0  0  0  0
 12 16  2  0  0  0  0
 12 30  1  0  0  0  0
 13 17  1  0  0  0  0
 13 18  1  0  0  0  0
 14 31  1  0  0  0  0
 15 19  2  0  0  0  0
 15 32  1  0  0  0  0
 16 19  1  0  0  0  0
 16 33  1  0  0  0  0
 17 34  1  0  0  0  0
 17 35  1  0  0  0  0
 17 36  1  0  0  0  0
 18 37  1  0  0  0  0
 18 38  1  0  0  0  0
 18 39  1  0  0  0  0
 19 40  1  0  0  0  0
M  END
>  <Mol_ID>
3357

>  <Formula>
C16H21Cl2N3

>  <MolWeight>
326.26404

>  <Cat>
S5670

>  <Name>
Chloropyramine hydrochloride

>  <Synonyms>
Halopyramine hydrochloride

>  <Target>
Histamine Receptor

>  <Form>
hydrochloride

>  <CAS>
6170-42-9

>  <URL>
http://www.selleckchem.com/products/chloropyramine-hydrochloride.html

$$$$
