Chloroprocaine hydrochloride.cdx
 OpenBabel08302522063D

 37 37  0  0  0  0  0  0  0  0999 V2000
   -5.2426    4.9755    2.3356 N   0  0  0  0  0  0  0  0  0  0  0  0
   -4.6541    3.7796    1.9192 C   0  0  0  0  0  0  0  0  0  0  0  0
   -3.4593    3.3409    2.4965 C   0  0  0  0  0  0  0  0  0  0  0  0
   -2.9424    2.0725    2.2082 C   0  0  0  0  0  0  0  0  0  0  0  0
   -3.6392    1.1939    1.3696 C   0  0  0  0  0  0  0  0  0  0  0  0
   -3.0613   -0.1610    1.1142 C   0  0  0  0  0  0  0  0  0  0  0  0
   -3.9076   -0.8974    0.3593 O   0  0  0  0  0  0  0  0  0  0  0  0
   -3.5054   -2.2308   -0.0083 C   0  0  0  0  0  0  0  0  0  0  0  0
   -2.7849   -2.3142   -1.3812 C   0  0  0  0  0  0  0  0  0  0  0  0
   -3.6028   -1.9021   -2.5448 N   0  0  0  0  0  0  0  0  0  0  0  0
   -3.9651   -0.4738   -2.5396 C   0  0  0  0  0  0  0  0  0  0  0  0
   -2.8114    0.5238   -2.4334 C   0  0  0  0  0  0  0  0  0  0  0  0
   -3.0085   -2.2679   -3.8422 C   0  0  0  0  0  0  0  0  0  0  0  0
   -2.9604   -3.7706   -4.1063 C   0  0  0  0  0  0  0  0  0  0  0  0
   -1.9746   -0.5248    1.5320 O   0  0  0  0  0  0  0  0  0  0  0  0
   -4.8582    1.6176    0.8200 C   0  0  0  0  0  0  0  0  0  0  0  0
   -5.3642    2.8907    1.1091 C   0  0  0  0  0  0  0  0  0  0  0  0
   -5.9289    5.3552    1.6910 H   0  0  0  0  0  0  0  0  0  0  0  0
   -4.5841    5.6788    2.6571 H   0  0  0  0  0  0  0  0  0  0  0  0
   -2.9195    3.9846    3.1892 H   0  0  0  0  0  0  0  0  0  0  0  0
   -2.0032    1.7651    2.6629 H   0  0  0  0  0  0  0  0  0  0  0  0
   -2.8687   -2.6683    0.7699 H   0  0  0  0  0  0  0  0  0  0  0  0
   -4.4168   -2.8359   -0.0423 H   0  0  0  0  0  0  0  0  0  0  0  0
   -1.8442   -1.7542   -1.3451 H   0  0  0  0  0  0  0  0  0  0  0  0
   -2.5095   -3.3652   -1.5012 H   0  0  0  0  0  0  0  0  0  0  0  0
   -4.5376   -0.2393   -3.4482 H   0  0  0  0  0  0  0  0  0  0  0  0
   -4.6878   -0.2882   -1.7405 H   0  0  0  0  0  0  0  0  0  0  0  0
   -2.1537    0.4654   -3.3061 H   0  0  0  0  0  0  0  0  0  0  0  0
   -3.2103    1.5410   -2.3835 H   0  0  0  0  0  0  0  0  0  0  0  0
   -2.2043    0.3762   -1.5377 H   0  0  0  0  0  0  0  0  0  0  0  0
   -3.6308   -1.8447   -4.6440 H   0  0  0  0  0  0  0  0  0  0  0  0
   -2.0064   -1.8405   -3.9657 H   0  0  0  0  0  0  0  0  0  0  0  0
   -3.8271   -4.2893   -3.6800 H   0  0  0  0  0  0  0  0  0  0  0  0
   -2.9687   -3.9580   -5.1864 H   0  0  0  0  0  0  0  0  0  0  0  0
   -2.0501   -4.2169   -3.6990 H   0  0  0  0  0  0  0  0  0  0  0  0
   -5.4393    0.9601    0.1780 H   0  0  0  0  0  0  0  0  0  0  0  0
   -6.3284    3.1793    0.6990 H   0  0  0  0  0  0  0  0  0  0  0  0
  1  2  1  0  0  0  0
  1 18  1  0  0  0  0
  1 19  1  0  0  0  0
  2  3  2  0  0  0  0
  2 17  1  0  0  0  0
  3  4  1  0  0  0  0
  3 20  1  0  0  0  0
  4  5  2  0  0  0  0
  4 21  1  0  0  0  0
  5  6  1  0  0  0  0
  5 16  1  0  0  0  0
  6  7  1  0  0  0  0
  6 15  2  0  0  0  0
  7  8  1  0  0  0  0
  8  9  1  0  0  0  0
  8 22  1  0  0  0  0
  8 23  1  0  0  0  0
  9 10  1  0  0  0  0
  9 24  1  0  0  0  0
  9 25  1  0  0  0  0
 10 11  1  0  0  0  0
 10 13  1  0  0  0  0
 11 12  1  0  0  0  0
 11 26  1  0  0  0  0
 11 27  1  0  0  0  0
 12 28  1  0  0  0  0
 12 29  1  0  0  0  0
 12 30  1  0  0  0  0
 13 14  1  0  0  0  0
 13 31  1  0  0  0  0
 13 32  1  0  0  0  0
 14 33  1  0  0  0  0
 14 34  1  0  0  0  0
 14 35  1  0  0  0  0
 16 17  2  0  0  0  0
 16 36  1  0  0  0  0
 17 37  1  0  0  0  0
M  END
>  <Mol_ID>
1421

>  <Formula>
C13H20Cl2N2O2

>  <MolWeight>
307.2161

>  <Cat>
S4284

>  <Name>
Chloroprocaine HCl

>  <Synonyms>
N/A

>  <Target>
Sodium Channel

>  <Form>
Hydrochloride

>  <CAS>
3858-89-7

>  <URL>
http://selleckchem.com/products/chloroprocaine-hci.html

$$$$
