Chloroquine (NSC-187208)
 OpenBabel08302521303D

 48 49  0  0  0  0  0  0  0  0999 V2000
    2.8398    3.9578   -1.7921 N   0  0  0  0  0  0  0  0  0  0  0  0
   -1.4780    1.4771   -4.0354 N   0  0  0  0  0  0  0  0  0  0  0  0
   -2.6866    4.7922   -6.3748 N   0  0  0  0  0  0  0  0  0  0  0  0
    0.4490    2.0731   -2.6227 C   0  0  0  0  0  0  0  0  0  0  0  0
    0.9891    2.2921   -1.2033 C   0  0  0  0  0  0  0  0  0  0  0  0
   -1.0330    1.6288   -2.6412 C   0  0  3  0  0  0  0  0  0  0  0  0
    2.4764    2.6828   -1.1540 C   0  0  0  0  0  0  0  0  0  0  0  0
   -1.2471    0.3090   -1.8979 C   0  0  0  0  0  0  0  0  0  0  0  0
    2.1241    5.1257   -1.2476 C   0  0  0  0  0  0  0  0  0  0  0  0
    4.2978    4.1812   -1.7898 C   0  0  0  0  0  0  0  0  0  0  0  0
   -1.9336    2.5712   -4.8014 C   0  0  0  0  0  0  0  0  0  0  0  0
   -2.2481    2.4108   -6.1866 C   0  0  0  0  0  0  0  0  0  0  0  0
    2.3247    5.4348    0.2358 C   0  0  0  0  0  0  0  0  0  0  0  0
    5.0662    3.1839   -2.6552 C   0  0  0  0  0  0  0  0  0  0  0  0
   -1.9874    3.8615   -4.2729 C   0  0  0  0  0  0  0  0  0  0  0  0
   -2.5988    3.5742   -6.9197 C   0  0  0  0  0  0  0  0  0  0  0  0
   -2.2108    1.1791   -6.8889 C   0  0  0  0  0  0  0  0  0  0  0  0
   -2.3808    4.9146   -5.0726 C   0  0  0  0  0  0  0  0  0  0  0  0
   -2.8491    3.4787   -8.2794 C   0  0  0  0  0  0  0  0  0  0  0  0
   -2.4769    1.1087   -8.2608 C   0  0  0  0  0  0  0  0  0  0  0  0
   -2.7847    2.2665   -8.9615 C   0  0  0  0  0  0  0  0  0  0  0  0
   -1.9938    0.6250   -4.2368 H   0  0  0  0  0  0  0  0  0  0  0  0
    0.5627    2.9999   -3.1979 H   0  0  0  0  0  0  0  0  0  0  0  0
    1.0629    1.3224   -3.1381 H   0  0  0  0  0  0  0  0  0  0  0  0
    0.8969    1.3584   -0.6378 H   0  0  0  0  0  0  0  0  0  0  0  0
    0.3729    3.0299   -0.6788 H   0  0  0  0  0  0  0  0  0  0  0  0
   -1.6544    2.3618   -2.1161 H   0  0  0  0  0  0  0  0  0  0  0  0
    3.0162    1.8627   -1.6393 H   0  0  0  0  0  0  0  0  0  0  0  0
    2.8011    2.6734   -0.1064 H   0  0  0  0  0  0  0  0  0  0  0  0
   -1.1362    0.4563   -0.8137 H   0  0  0  0  0  0  0  0  0  0  0  0
   -2.2535   -0.0847   -2.0605 H   0  0  0  0  0  0  0  0  0  0  0  0
   -0.5263   -0.4560   -2.2078 H   0  0  0  0  0  0  0  0  0  0  0  0
    2.4073    6.0179   -1.8224 H   0  0  0  0  0  0  0  0  0  0  0  0
    1.0524    5.0119   -1.4441 H   0  0  0  0  0  0  0  0  0  0  0  0
    4.5108    5.1764   -2.2007 H   0  0  0  0  0  0  0  0  0  0  0  0
    4.7005    4.1639   -0.7697 H   0  0  0  0  0  0  0  0  0  0  0  0
    3.2918    5.9158    0.4134 H   0  0  0  0  0  0  0  0  0  0  0  0
    1.5434    6.1232    0.5767 H   0  0  0  0  0  0  0  0  0  0  0  0
    2.2617    4.5456    0.8682 H   0  0  0  0  0  0  0  0  0  0  0  0
    4.6641    3.1520   -3.6732 H   0  0  0  0  0  0  0  0  0  0  0  0
    6.1189    3.4790   -2.7196 H   0  0  0  0  0  0  0  0  0  0  0  0
    5.0431    2.1720   -2.2403 H   0  0  0  0  0  0  0  0  0  0  0  0
   -1.7355    4.0873   -3.2436 H   0  0  0  0  0  0  0  0  0  0  0  0
   -1.9508    0.2585   -6.3734 H   0  0  0  0  0  0  0  0  0  0  0  0
   -2.4512    5.9209   -4.6736 H   0  0  0  0  0  0  0  0  0  0  0  0
   -3.0894    4.3881   -8.8282 H   0  0  0  0  0  0  0  0  0  0  0  0
   -2.4279    0.1558   -8.7826 H   0  0  0  0  0  0  0  0  0  0  0  0
   -2.9697    2.2351  -10.0301 H   0  0  0  0  0  0  0  0  0  0  0  0
  1  7  1  0  0  0  0
  1  9  1  0  0  0  0
  1 10  1  0  0  0  0
  2  6  1  0  0  0  0
  2 11  1  0  0  0  0
  2 22  1  0  0  0  0
  3 16  2  0  0  0  0
  3 18  1  0  0  0  0
  4  5  1  0  0  0  0
  4  6  1  0  0  0  0
  4 23  1  0  0  0  0
  4 24  1  0  0  0  0
  5  7  1  0  0  0  0
  5 25  1  0  0  0  0
  5 26  1  0  0  0  0
  6  8  1  0  0  0  0
  6 27  1  0  0  0  0
  7 28  1  0  0  0  0
  7 29  1  0  0  0  0
  8 30  1  0  0  0  0
  8 31  1  0  0  0  0
  8 32  1  0  0  0  0
  9 13  1  0  0  0  0
  9 33  1  0  0  0  0
  9 34  1  0  0  0  0
 10 14  1  0  0  0  0
 10 35  1  0  0  0  0
 10 36  1  0  0  0  0
 11 12  2  0  0  0  0
 11 15  1  0  0  0  0
 12 16  1  0  0  0  0
 12 17  1  0  0  0  0
 13 37  1  0  0  0  0
 13 38  1  0  0  0  0
 13 39  1  0  0  0  0
 14 40  1  0  0  0  0
 14 41  1  0  0  0  0
 14 42  1  0  0  0  0
 15 18  2  0  0  0  0
 15 43  1  0  0  0  0
 16 19  1  0  0  0  0
 17 20  2  0  0  0  0
 17 44  1  0  0  0  0
 18 45  1  0  0  0  0
 19 21  2  0  0  0  0
 19 46  1  0  0  0  0
 20 21  1  0  0  0  0
 20 47  1  0  0  0  0
 21 48  1  0  0  0  0
M  END
>  <Mol_ID>
5574

>  <Formula>
C18H26ClN3

>  <MolWeight>
319.87214

>  <Cat>
S6999

>  <Name>
Chloroquine (NSC-187208)

>  <Synonyms>
Aralen, CHQ, CQ

>  <Target>
Autophagy,COVID-19,HIV Protease,TLR

>  <Form>
Free Base

>  <CAS>
54-05-7

>  <URL>
http://www.selleckchem.com/products/chloroquine.html

$$$$
