Chlorpropamide.cdx
 OpenBabel08302522043D

 30 30  0  0  0  0  0  0  0  0999 V2000
    0.7892    1.5770   -2.5495 C   0  0  0  0  0  0  0  0  0  0  0  0
    1.6070    0.5983   -1.9817 C   0  0  0  0  0  0  0  0  0  0  0  0
    1.4565    0.2483   -0.6388 C   0  0  0  0  0  0  0  0  0  0  0  0
    0.5003    0.8919    0.1474 C   0  0  0  0  0  0  0  0  0  0  0  0
   -0.2920    1.8980   -0.4177 C   0  0  0  0  0  0  0  0  0  0  0  0
   -0.1662    2.2294   -1.7696 C   0  0  0  0  0  0  0  0  0  0  0  0
   -1.4748    2.7478    0.5983 S   0  0  0  0  0  0  0  0  0  0  0  0
   -0.5405    3.3649    1.8068 N   0  0  0  0  0  0  0  0  0  0  0  0
   -2.0113    3.8545   -0.1669 O   0  0  0  0  0  0  0  0  0  0  0  0
   -2.3260    1.7427    1.1903 O   0  0  0  0  0  0  0  0  0  0  0  0
    0.2308    4.5095    1.8868 C   0  0  0  0  0  0  0  0  0  0  0  0
    0.9380    4.6554    2.8731 O   0  0  0  0  0  0  0  0  0  0  0  0
    0.1423    5.4326    0.8886 N   0  0  0  0  0  0  0  0  0  0  0  0
    0.8546    6.6946    0.9511 C   0  0  0  0  0  0  0  0  0  0  0  0
    2.2524    6.6189    0.3375 C   0  0  0  0  0  0  0  0  0  0  0  0
    2.2161    6.2669   -1.1417 C   0  0  0  0  0  0  0  0  0  0  0  0
    0.8975    1.8300   -3.6016 H   0  0  0  0  0  0  0  0  0  0  0  0
    2.3592    0.1010   -2.5903 H   0  0  0  0  0  0  0  0  0  0  0  0
    2.0853   -0.5274   -0.2076 H   0  0  0  0  0  0  0  0  0  0  0  0
    0.3779    0.6026    1.1880 H   0  0  0  0  0  0  0  0  0  0  0  0
   -0.8061    2.9821   -2.2238 H   0  0  0  0  0  0  0  0  0  0  0  0
   -0.5395    2.8010    2.6498 H   0  0  0  0  0  0  0  0  0  0  0  0
   -0.5702    5.3002    0.1772 H   0  0  0  0  0  0  0  0  0  0  0  0
    0.2490    7.4473    0.4344 H   0  0  0  0  0  0  0  0  0  0  0  0
    0.9420    7.0069    1.9991 H   0  0  0  0  0  0  0  0  0  0  0  0
    2.7480    7.5903    0.4581 H   0  0  0  0  0  0  0  0  0  0  0  0
    2.8621    5.8803    0.8709 H   0  0  0  0  0  0  0  0  0  0  0  0
    1.6140    6.9905   -1.7004 H   0  0  0  0  0  0  0  0  0  0  0  0
    3.2282    6.2723   -1.5581 H   0  0  0  0  0  0  0  0  0  0  0  0
    1.7929    5.2702   -1.3001 H   0  0  0  0  0  0  0  0  0  0  0  0
  1  2  2  0  0  0  0
  1 17  1  0  0  0  0
  2  3  1  0  0  0  0
  2 18  1  0  0  0  0
  3  4  2  0  0  0  0
  3 19  1  0  0  0  0
  4  5  1  0  0  0  0
  4 20  1  0  0  0  0
  5  6  2  0  0  0  0
  5  7  1  0  0  0  0
  6  1  1  0  0  0  0
  6 21  1  0  0  0  0
  7  8  1  0  0  0  0
  7  9  2  0  0  0  0
  7 10  2  0  0  0  0
  8 11  1  0  0  0  0
  8 22  1  0  0  0  0
 11 12  2  0  0  0  0
 11 13  1  0  0  0  0
 13 14  1  0  0  0  0
 13 23  1  0  0  0  0
 14 15  1  0  0  0  0
 14 24  1  0  0  0  0
 14 25  1  0  0  0  0
 15 16  1  0  0  0  0
 15 26  1  0  0  0  0
 15 27  1  0  0  0  0
 16 28  1  0  0  0  0
 16 29  1  0  0  0  0
 16 30  1  0  0  0  0
M  END
>  <Mol_ID>
1271

>  <Formula>
C10H13ClN2O3S

>  <MolWeight>
276.73982

>  <Cat>
S4166

>  <Name>
Chlorpropamide

>  <Synonyms>
N/A

>  <Target>
ATPase

>  <Form>
free base

>  <CAS>
94-20-2

>  <URL>
http://selleckchem.com/products/chlorpropamide.html

$$$$
