Chlorphenesin
 OpenBabel08302520403D

 24 24  0  0  0  0  0  0  0  0999 V2000
    1.4036   -0.1094   -0.2246 C   0  0  0  0  0  0  0  0  0  0  0  0
    0.3361   -0.9001    0.2017 C   0  0  0  0  0  0  0  0  0  0  0  0
    1.1342    1.1483   -0.7724 C   0  0  0  0  0  0  0  0  0  0  0  0
    2.7358   -0.4253   -0.1256 O   0  0  0  0  0  0  0  0  0  0  0  0
   -0.9820   -0.4375    0.0855 C   0  0  0  0  0  0  0  0  0  0  0  0
   -0.1809    1.6058   -0.9034 C   0  0  0  0  0  0  0  0  0  0  0  0
    3.0626   -1.7982    0.1312 C   0  0  0  0  0  0  0  0  0  0  0  0
   -1.2395    0.8123   -0.4718 C   0  0  0  0  0  0  0  0  0  0  0  0
    4.5467   -1.9547    0.5100 C   0  0  3  0  0  0  0  0  0  0  0  0
    5.5269   -1.3567   -0.5037 C   0  0  0  0  0  0  0  0  0  0  0  0
    4.7788   -1.3443    1.7879 O   0  0  0  0  0  0  0  0  0  0  0  0
    5.4247    0.0667   -0.5355 O   0  0  0  0  0  0  0  0  0  0  0  0
    0.4774   -1.8751    0.6546 H   0  0  0  0  0  0  0  0  0  0  0  0
    1.9522    1.7823   -1.1047 H   0  0  0  0  0  0  0  0  0  0  0  0
   -1.8063   -1.0556    0.4339 H   0  0  0  0  0  0  0  0  0  0  0  0
   -0.3764    2.5844   -1.3342 H   0  0  0  0  0  0  0  0  0  0  0  0
    2.4807   -2.1858    0.9725 H   0  0  0  0  0  0  0  0  0  0  0  0
    2.8505   -2.3792   -0.7741 H   0  0  0  0  0  0  0  0  0  0  0  0
   -2.2624    1.1708   -0.5606 H   0  0  0  0  0  0  0  0  0  0  0  0
    4.7568   -3.0235    0.6260 H   0  0  0  0  0  0  0  0  0  0  0  0
    6.5537   -1.5869   -0.1987 H   0  0  0  0  0  0  0  0  0  0  0  0
    5.3666   -1.7557   -1.5095 H   0  0  0  0  0  0  0  0  0  0  0  0
    5.0170   -0.4134    1.6020 H   0  0  0  0  0  0  0  0  0  0  0  0
    4.4827    0.2834   -0.6855 H   0  0  0  0  0  0  0  0  0  0  0  0
  1  2  2  0  0  0  0
  1  3  1  0  0  0  0
  1  4  1  0  0  0  0
  2  5  1  0  0  0  0
  2 13  1  0  0  0  0
  3  6  2  0  0  0  0
  3 14  1  0  0  0  0
  4  7  1  0  0  0  0
  5  8  2  0  0  0  0
  5 15  1  0  0  0  0
  6  8  1  0  0  0  0
  6 16  1  0  0  0  0
  7  9  1  0  0  0  0
  7 17  1  0  0  0  0
  7 18  1  0  0  0  0
  8 19  1  0  0  0  0
  9 10  1  0  0  0  0
  9 11  1  0  0  0  0
  9 20  1  0  0  0  0
 10 12  1  0  0  0  0
 10 21  1  0  0  0  0
 10 22  1  0  0  0  0
 11 23  1  0  0  0  0
 12 24  1  0  0  0  0
M  END
>  <Mol_ID>
3758

>  <Formula>
C9H11ClO3

>  <MolWeight>
202.63484

>  <Cat>
S6442

>  <Name>
Chlorphenesin

>  <Synonyms>
N/A

>  <Target>
Anti-infection

>  <Form>
Free Base

>  <CAS>
104-29-0

>  <URL>
http://www.selleck.cn/products/chlorphenesin.html

$$$$
