Chlorquinaldol.cdx
 OpenBabel08302522043D

 21 22  0  0  0  0  0  0  0  0999 V2000
    1.2608   -1.3471    0.0049 N   0  0  0  0  0  0  0  0  0  0  0  0
    2.4041   -0.6239   -0.0293 C   0  0  0  0  0  0  0  0  0  0  0  0
    2.4087    0.7615   -0.0239 C   0  0  0  0  0  0  0  0  0  0  0  0
    1.1892    1.4279   -0.0056 C   0  0  0  0  0  0  0  0  0  0  0  0
   -0.0067    0.7003    0.0039 C   0  0  0  0  0  0  0  0  0  0  0  0
   -1.2515    1.3557   -0.0061 C   0  0  0  0  0  0  0  0  0  0  0  0
   -2.4375    0.6261   -0.0022 C   0  0  0  0  0  0  0  0  0  0  0  0
   -2.3891   -0.7623    0.0296 C   0  0  0  0  0  0  0  0  0  0  0  0
   -1.1492   -1.4108    0.0467 C   0  0  0  0  0  0  0  0  0  0  0  0
    0.0663   -0.7087    0.0201 C   0  0  0  0  0  0  0  0  0  0  0  0
   -1.1250   -2.7857    0.0894 O   0  0  0  0  0  0  0  0  0  0  0  0
    3.6830   -1.4015   -0.0976 C   0  0  0  0  0  0  0  0  0  0  0  0
    3.3381    1.3204   -0.0429 H   0  0  0  0  0  0  0  0  0  0  0  0
    1.1788    2.5147   -0.0069 H   0  0  0  0  0  0  0  0  0  0  0  0
   -1.3010    2.4423   -0.0255 H   0  0  0  0  0  0  0  0  0  0  0  0
   -3.3950    1.1406   -0.0253 H   0  0  0  0  0  0  0  0  0  0  0  0
   -3.3165   -1.3264    0.0314 H   0  0  0  0  0  0  0  0  0  0  0  0
   -2.0235   -3.1180    0.2321 H   0  0  0  0  0  0  0  0  0  0  0  0
    3.7729   -2.0533    0.7765 H   0  0  0  0  0  0  0  0  0  0  0  0
    3.6914   -2.0170   -1.0028 H   0  0  0  0  0  0  0  0  0  0  0  0
    4.5572   -0.7435   -0.1267 H   0  0  0  0  0  0  0  0  0  0  0  0
  1  2  2  0  0  0  0
  1 10  1  0  0  0  0
  2  3  1  0  0  0  0
  2 12  1  0  0  0  0
  3  4  2  0  0  0  0
  3 13  1  0  0  0  0
  4  5  1  0  0  0  0
  4 14  1  0  0  0  0
  5  6  1  0  0  0  0
  5 10  2  0  0  0  0
  6  7  2  0  0  0  0
  6 15  1  0  0  0  0
  7  8  1  0  0  0  0
  7 16  1  0  0  0  0
  8  9  2  0  0  0  0
  8 17  1  0  0  0  0
  9 10  1  0  0  0  0
  9 11  1  0  0  0  0
 11 18  1  0  0  0  0
 12 19  1  0  0  0  0
 12 20  1  0  0  0  0
 12 21  1  0  0  0  0
M  END
>  <Mol_ID>
1272

>  <Formula>
C10H7Cl2NO

>  <MolWeight>
228.07468

>  <Cat>
S4192

>  <Name>
Chlorquinaldol

>  <Synonyms>
Chloquinan

>  <Target>
Anti-infection

>  <Form>
free base

>  <CAS>
72-80-0

>  <URL>
http://selleckchem.com/products/chlorquinaldol.html

$$$$
