Chloramine-T
 OpenBabel08302520403D

 20 20  0  0  0  0  0  0  0  0999 V2000
    0.9648    0.0192   -0.1927 S   0  0  0  0  0  0  0  0  0  0  0  0
    0.3557   -1.6307   -0.3405 C   0  0  0  0  0  0  0  0  0  0  0  0
    1.7929    0.1534   -1.6474 N   0  0  0  0  0  0  0  0  0  0  0  0
    1.9654    0.0724    0.8465 O   0  0  0  0  0  0  0  0  0  0  0  0
   -0.1369    0.9489   -0.2669 O   0  0  0  0  0  0  0  0  0  0  0  0
    1.1330   -2.6954    0.1194 C   0  0  0  0  0  0  0  0  0  0  0  0
   -0.8654   -1.8539   -0.9802 C   0  0  0  0  0  0  0  0  0  0  0  0
    0.7059   -4.0023   -0.1120 C   0  0  0  0  0  0  0  0  0  0  0  0
   -1.2851   -3.1628   -1.2078 C   0  0  0  0  0  0  0  0  0  0  0  0
   -0.4974   -4.2441   -0.7894 C   0  0  0  0  0  0  0  0  0  0  0  0
   -0.9409   -5.6449   -1.0914 C   0  0  0  0  0  0  0  0  0  0  0  0
    2.7919    0.2684   -1.4849 H   0  0  0  0  0  0  0  0  0  0  0  0
    1.3636    0.8607   -2.2405 H   0  0  0  0  0  0  0  0  0  0  0  0
    2.0797   -2.5164    0.6240 H   0  0  0  0  0  0  0  0  0  0  0  0
   -1.4721   -1.0218   -1.3285 H   0  0  0  0  0  0  0  0  0  0  0  0
    1.3289   -4.8299    0.2202 H   0  0  0  0  0  0  0  0  0  0  0  0
   -2.2213   -3.3376   -1.7345 H   0  0  0  0  0  0  0  0  0  0  0  0
   -1.9193   -5.8358   -0.6402 H   0  0  0  0  0  0  0  0  0  0  0  0
   -1.0077   -5.7895   -2.1747 H   0  0  0  0  0  0  0  0  0  0  0  0
   -0.2354   -6.3832   -0.6970 H   0  0  0  0  0  0  0  0  0  0  0  0
  1  2  1  0  0  0  0
  1  3  1  0  0  0  0
  1  4  2  0  0  0  0
  1  5  2  0  0  0  0
  2  6  2  0  0  0  0
  2  7  1  0  0  0  0
  3 12  1  0  0  0  0
  3 13  1  0  0  0  0
  6  8  1  0  0  0  0
  6 14  1  0  0  0  0
  7  9  2  0  0  0  0
  7 15  1  0  0  0  0
  8 10  2  0  0  0  0
  8 16  1  0  0  0  0
  9 10  1  0  0  0  0
  9 17  1  0  0  0  0
 10 11  1  0  0  0  0
 11 18  1  0  0  0  0
 11 19  1  0  0  0  0
 11 20  1  0  0  0  0
M  END
>  <Mol_ID>
3725

>  <Formula>
C7H7ClNNaO2S

>  <MolWeight>
227.64375

>  <Cat>
S6403

>  <Name>
Chloramine-T

>  <Synonyms>
N/A

>  <Target>
Others

>  <Form>
Free Base

>  <CAS>
127-65-1

>  <URL>
http://www.selleck.cn/products/chloramine-t.html

$$$$
