Chlorpromazine
 OpenBabel08302520343D

 40 42  0  0  0  0  0  0  0  0999 V2000
    0.1286   -1.2770    0.5704 N   0  0  0  0  0  0  0  0  0  0  0  0
    1.3842   -0.6830    0.2923 C   0  0  0  0  0  0  0  0  0  0  0  0
   -1.0841   -0.6708    0.1667 C   0  0  0  0  0  0  0  0  0  0  0  0
    0.0685   -2.1348    1.7869 C   0  0  0  0  0  0  0  0  0  0  0  0
    1.5172    0.7098    0.1068 C   0  0  0  0  0  0  0  0  0  0  0  0
    2.4977   -1.5008    0.0354 C   0  0  0  0  0  0  0  0  0  0  0  0
   -1.2115    0.7301    0.0496 C   0  0  0  0  0  0  0  0  0  0  0  0
   -2.1537   -1.4681   -0.2680 C   0  0  0  0  0  0  0  0  0  0  0  0
   -0.1874   -1.3173    3.0635 C   0  0  0  0  0  0  0  0  0  0  0  0
    0.1543    1.8208    0.4359 S   0  0  0  0  0  0  0  0  0  0  0  0
    2.7284    1.2502   -0.3435 C   0  0  0  0  0  0  0  0  0  0  0  0
    3.6985   -0.9559   -0.4247 C   0  0  0  0  0  0  0  0  0  0  0  0
   -2.4062    1.3029   -0.4016 C   0  0  0  0  0  0  0  0  0  0  0  0
   -3.3216   -0.8910   -0.7869 C   0  0  0  0  0  0  0  0  0  0  0  0
   -0.2107   -2.1677    4.3476 C   0  0  0  0  0  0  0  0  0  0  0  0
    3.8116    0.4167   -0.6212 C   0  0  0  0  0  0  0  0  0  0  0  0
   -3.4569    0.4936   -0.8260 C   0  0  0  0  0  0  0  0  0  0  0  0
    1.0554   -2.8313    4.7181 N   0  0  0  0  0  0  0  0  0  0  0  0
    2.1183   -1.8606    4.9974 C   0  0  0  0  0  0  0  0  0  0  0  0
    0.8417   -3.6719    5.9055 C   0  0  0  0  0  0  0  0  0  0  0  0
   -0.7209   -2.8894    1.6731 H   0  0  0  0  0  0  0  0  0  0  0  0
    0.9980   -2.7028    1.9021 H   0  0  0  0  0  0  0  0  0  0  0  0
    2.4096   -2.5798    0.1169 H   0  0  0  0  0  0  0  0  0  0  0  0
   -2.0453   -2.5483   -0.2985 H   0  0  0  0  0  0  0  0  0  0  0  0
    0.5439   -0.5074    3.1578 H   0  0  0  0  0  0  0  0  0  0  0  0
   -1.1648   -0.8246    2.9833 H   0  0  0  0  0  0  0  0  0  0  0  0
    2.8244    2.3205   -0.5089 H   0  0  0  0  0  0  0  0  0  0  0  0
    4.5314   -1.6124   -0.6617 H   0  0  0  0  0  0  0  0  0  0  0  0
   -2.5114    2.3858   -0.4601 H   0  0  0  0  0  0  0  0  0  0  0  0
   -4.1101   -1.5262   -1.1795 H   0  0  0  0  0  0  0  0  0  0  0  0
   -0.5435   -1.5239    5.1740 H   0  0  0  0  0  0  0  0  0  0  0  0
   -0.9857   -2.9352    4.2236 H   0  0  0  0  0  0  0  0  0  0  0  0
    4.7370    0.8375   -1.0056 H   0  0  0  0  0  0  0  0  0  0  0  0
   -4.3670    0.9417   -1.2168 H   0  0  0  0  0  0  0  0  0  0  0  0
    1.8188   -1.1204    5.7481 H   0  0  0  0  0  0  0  0  0  0  0  0
    3.0204   -2.3667    5.3612 H   0  0  0  0  0  0  0  0  0  0  0  0
    2.4182   -1.3383    4.0838 H   0  0  0  0  0  0  0  0  0  0  0  0
    0.3545   -3.1255    6.7221 H   0  0  0  0  0  0  0  0  0  0  0  0
    0.2219   -4.5383    5.6493 H   0  0  0  0  0  0  0  0  0  0  0  0
    1.7886   -4.0712    6.2882 H   0  0  0  0  0  0  0  0  0  0  0  0
  1  2  1  0  0  0  0
  1  3  1  0  0  0  0
  1  4  1  0  0  0  0
  2  5  2  0  0  0  0
  2  6  1  0  0  0  0
  3  7  2  0  0  0  0
  3  8  1  0  0  0  0
  4  9  1  0  0  0  0
  4 21  1  0  0  0  0
  4 22  1  0  0  0  0
  5 10  1  0  0  0  0
  5 11  1  0  0  0  0
  6 12  2  0  0  0  0
  6 23  1  0  0  0  0
  7 13  1  0  0  0  0
  7 10  1  0  0  0  0
  8 14  2  0  0  0  0
  8 24  1  0  0  0  0
  9 15  1  0  0  0  0
  9 25  1  0  0  0  0
  9 26  1  0  0  0  0
 11 16  2  0  0  0  0
 11 27  1  0  0  0  0
 12 16  1  0  0  0  0
 12 28  1  0  0  0  0
 13 17  2  0  0  0  0
 13 29  1  0  0  0  0
 14 17  1  0  0  0  0
 14 30  1  0  0  0  0
 15 18  1  0  0  0  0
 15 31  1  0  0  0  0
 15 32  1  0  0  0  0
 16 33  1  0  0  0  0
 17 34  1  0  0  0  0
 18 19  1  0  0  0  0
 18 20  1  0  0  0  0
 19 35  1  0  0  0  0
 19 36  1  0  0  0  0
 19 37  1  0  0  0  0
 20 38  1  0  0  0  0
 20 39  1  0  0  0  0
 20 40  1  0  0  0  0
M  END
>  <Mol_ID>
3392

>  <Formula>
C17H19ClN2S

>  <MolWeight>
318.86416

>  <Cat>
S5749

>  <Name>
Chlorpromazine

>  <Synonyms>
CPZ

>  <Target>
5-HT Receptor,Dopamine Receptor,Potassium Channel,Sodium Channel

>  <Form>
Free Base

>  <CAS>
50-53-3

>  <URL>
http://www.selleckchem.com/products/chlorpromazine.html

$$$$
