Choline Chloride.cdx
 OpenBabel08302522043D

 21 20  0  0  0  0  0  0  0  0999 V2000
    0.9281   -0.0762    0.0698 C   0  0  0  0  0  0  0  0  0  0  0  0
    0.4248   -0.1659   -1.3940 N   0  3  0  0  0  0  0  0  0  0  0  0
    0.4885   -1.2348    0.9788 C   0  0  0  0  0  0  0  0  0  0  0  0
    0.9298   -1.4261   -2.0798 C   0  0  0  0  0  0  0  0  0  0  0  0
   -1.1016   -0.1358   -1.4672 C   0  0  0  0  0  0  0  0  0  0  0  0
    0.9612    1.0519   -2.1432 C   0  0  0  0  0  0  0  0  0  0  0  0
   -0.9245   -1.2477    1.1323 O   0  0  0  0  0  0  0  0  0  0  0  0
    0.5443    0.8702    0.4650 H   0  0  0  0  0  0  0  0  0  0  0  0
    2.0214   -0.0321    0.0242 H   0  0  0  0  0  0  0  0  0  0  0  0
    0.8082   -2.2037    0.5865 H   0  0  0  0  0  0  0  0  0  0  0  0
    0.9449   -1.1198    1.9685 H   0  0  0  0  0  0  0  0  0  0  0  0
    0.4705   -2.2990   -1.6084 H   0  0  0  0  0  0  0  0  0  0  0  0
    0.6422   -1.3843   -3.1350 H   0  0  0  0  0  0  0  0  0  0  0  0
    2.0187   -1.4615   -1.9813 H   0  0  0  0  0  0  0  0  0  0  0  0
   -1.4635    0.6923   -0.8513 H   0  0  0  0  0  0  0  0  0  0  0  0
   -1.3896    0.0173   -2.5120 H   0  0  0  0  0  0  0  0  0  0  0  0
   -1.5005   -1.0949   -1.1322 H   0  0  0  0  0  0  0  0  0  0  0  0
    0.5779    1.9541   -1.6566 H   0  0  0  0  0  0  0  0  0  0  0  0
    2.0546    1.0293   -2.1032 H   0  0  0  0  0  0  0  0  0  0  0  0
    0.6196    1.0040   -3.1808 H   0  0  0  0  0  0  0  0  0  0  0  0
   -1.1381   -0.9524    2.0422 H   0  0  0  0  0  0  0  0  0  0  0  0
  1  2  1  0  0  0  0
  1  3  1  0  0  0  0
  1  8  1  0  0  0  0
  1  9  1  0  0  0  0
  2  4  1  0  0  0  0
  2  5  1  0  0  0  0
  2  6  1  0  0  0  0
  3  7  1  0  0  0  0
  3 10  1  0  0  0  0
  3 11  1  0  0  0  0
  4 12  1  0  0  0  0
  4 13  1  0  0  0  0
  4 14  1  0  0  0  0
  5 15  1  0  0  0  0
  5 16  1  0  0  0  0
  5 17  1  0  0  0  0
  6 18  1  0  0  0  0
  6 19  1  0  0  0  0
  6 20  1  0  0  0  0
  7 21  1  0  0  0  0
M  CHG  1   2   1
M  END
>  <Mol_ID>
1274

>  <Formula>
C5H14ClNO

>  <MolWeight>
139.62376

>  <Cat>
S4171

>  <Name>
Choline Chloride

>  <Synonyms>
Hepacholine

>  <Target>
AChR

>  <Form>
Chloride

>  <CAS>
67-48-1

>  <URL>
http://selleckchem.com/products/choline-chloride.html

$$$$
