Choline Fenofibrate
 OpenBabel08302520383D

 57 57  0  0  0  0  0  0  0  0999 V2000
    2.7275    0.1695    0.4235 O   0  0  0  0  0  0  0  0  0  0  0  0
    2.0596   -0.6907    1.3378 C   0  0  0  0  0  0  0  0  0  0  0  0
    2.1793   -2.1621    0.9002 C   0  0  0  0  0  0  0  0  0  0  0  0
    3.6287   -2.7213    0.8734 N   0  3  0  0  0  0  0  0  0  0  0  0
    4.2711   -2.6386    2.2467 C   0  0  0  0  0  0  0  0  0  0  0  0
    3.5656   -4.1856    0.4450 C   0  0  0  0  0  0  0  0  0  0  0  0
    4.4847   -1.9686   -0.1459 C   0  0  0  0  0  0  0  0  0  0  0  0
   -7.3765    7.8814    2.0462 C   0  0  0  0  0  0  0  0  0  0  0  0
   -6.4670    8.6440    1.0535 C   0  0  0  0  0  0  0  0  0  0  0  0
   -7.0753    9.7054    0.1130 C   0  0  0  0  0  0  0  0  0  0  0  0
   -5.3250    9.1919    1.7725 O   0  0  0  0  0  0  0  0  0  0  0  0
   -5.5910   10.0500    2.8098 C   0  0  0  0  0  0  0  0  0  0  0  0
   -4.5931   10.2143    3.7641 C   0  0  0  0  0  0  0  0  0  0  0  0
   -4.7918   11.0783    4.8534 C   0  0  0  0  0  0  0  0  0  0  0  0
   -5.9849   11.8043    4.9571 C   0  0  0  0  0  0  0  0  0  0  0  0
   -6.1873   12.7518    6.0734 C   0  0  0  0  0  0  0  0  0  0  0  0
   -7.5536   13.1131    6.5269 C   0  0  0  0  0  0  0  0  0  0  0  0
   -7.8112   14.4467    6.8569 C   0  0  0  0  0  0  0  0  0  0  0  0
   -9.0797   14.8202    7.3007 C   0  0  0  0  0  0  0  0  0  0  0  0
  -10.0906   13.8632    7.4075 C   0  0  0  0  0  0  0  0  0  0  0  0
   -9.8419   12.5338    7.0691 C   0  0  0  0  0  0  0  0  0  0  0  0
   -8.5706   12.1541    6.6381 C   0  0  0  0  0  0  0  0  0  0  0  0
   -5.2178   13.2754    6.6166 O   0  0  0  0  0  0  0  0  0  0  0  0
   -6.9722   11.6632    3.9910 C   0  0  0  0  0  0  0  0  0  0  0  0
   -6.7970   10.7575    2.9631 C   0  0  0  0  0  0  0  0  0  0  0  0
   -6.0408    7.4448    0.1134 C   0  0  0  0  0  0  0  0  0  0  0  0
   -5.1799    6.6400    0.5867 O   0  5  0  0  0  0  0  0  0  0  0  0
   -6.6556    7.3579   -0.9915 O   0  0  0  0  0  0  0  0  0  0  0  0
    2.3928    1.0760    0.5742 H   0  0  0  0  0  0  0  0  0  0  0  0
    2.4614   -0.5276    2.3411 H   0  0  0  0  0  0  0  0  0  0  0  0
    1.0008   -0.4109    1.3512 H   0  0  0  0  0  0  0  0  0  0  0  0
    1.6085   -2.8024    1.5824 H   0  0  0  0  0  0  0  0  0  0  0  0
    1.7887   -2.2838   -0.1168 H   0  0  0  0  0  0  0  0  0  0  0  0
    3.6215   -3.1527    2.9616 H   0  0  0  0  0  0  0  0  0  0  0  0
    5.2504   -3.1241    2.2029 H   0  0  0  0  0  0  0  0  0  0  0  0
    4.3928   -1.5888    2.5237 H   0  0  0  0  0  0  0  0  0  0  0  0
    3.1375   -4.2349   -0.5604 H   0  0  0  0  0  0  0  0  0  0  0  0
    4.5804   -4.5925    0.4458 H   0  0  0  0  0  0  0  0  0  0  0  0
    2.9410   -4.7301    1.1587 H   0  0  0  0  0  0  0  0  0  0  0  0
    3.9109   -1.8594   -1.0706 H   0  0  0  0  0  0  0  0  0  0  0  0
    4.7765   -1.0014    0.2683 H   0  0  0  0  0  0  0  0  0  0  0  0
    5.3884   -2.5571   -0.3351 H   0  0  0  0  0  0  0  0  0  0  0  0
   -8.1013    8.5268    2.5472 H   0  0  0  0  0  0  0  0  0  0  0  0
   -6.7644    7.4414    2.8431 H   0  0  0  0  0  0  0  0  0  0  0  0
   -7.9473    7.0665    1.5873 H   0  0  0  0  0  0  0  0  0  0  0  0
   -7.0222   10.7314    0.4817 H   0  0  0  0  0  0  0  0  0  0  0  0
   -6.5006    9.7809   -0.8177 H   0  0  0  0  0  0  0  0  0  0  0  0
   -8.1183    9.4849   -0.1311 H   0  0  0  0  0  0  0  0  0  0  0  0
   -3.6647    9.6492    3.6782 H   0  0  0  0  0  0  0  0  0  0  0  0
   -4.0230   11.1819    5.6087 H   0  0  0  0  0  0  0  0  0  0  0  0
   -7.0236   15.1905    6.7647 H   0  0  0  0  0  0  0  0  0  0  0  0
   -9.2759   15.8545    7.5660 H   0  0  0  0  0  0  0  0  0  0  0  0
  -11.0773   14.1559    7.7610 H   0  0  0  0  0  0  0  0  0  0  0  0
  -10.6327   11.7914    7.1475 H   0  0  0  0  0  0  0  0  0  0  0  0
   -8.3871   11.1096    6.3908 H   0  0  0  0  0  0  0  0  0  0  0  0
   -7.8968   12.2309    4.0051 H   0  0  0  0  0  0  0  0  0  0  0  0
   -7.6359   10.6363    2.3061 H   0  0  0  0  0  0  0  0  0  0  0  0
  1  2  1  0  0  0  0
  1 29  1  0  0  0  0
  2  3  1  0  0  0  0
  2 30  1  0  0  0  0
  2 31  1  0  0  0  0
  3  4  1  0  0  0  0
  3 32  1  0  0  0  0
  3 33  1  0  0  0  0
  4  5  1  0  0  0  0
  4  6  1  0  0  0  0
  4  7  1  0  0  0  0
  5 34  1  0  0  0  0
  5 35  1  0  0  0  0
  5 36  1  0  0  0  0
  6 37  1  0  0  0  0
  6 38  1  0  0  0  0
  6 39  1  0  0  0  0
  7 40  1  0  0  0  0
  7 41  1  0  0  0  0
  7 42  1  0  0  0  0
  8  9  1  0  0  0  0
  8 43  1  0  0  0  0
  8 44  1  0  0  0  0
  8 45  1  0  0  0  0
  9 10  1  0  0  0  0
  9 11  1  0  0  0  0
  9 26  1  0  0  0  0
 10 46  1  0  0  0  0
 10 47  1  0  0  0  0
 10 48  1  0  0  0  0
 11 12  1  0  0  0  0
 12 13  2  0  0  0  0
 12 25  1  0  0  0  0
 13 14  1  0  0  0  0
 13 49  1  0  0  0  0
 14 15  2  0  0  0  0
 14 50  1  0  0  0  0
 15 16  1  0  0  0  0
 15 24  1  0  0  0  0
 16 17  1  0  0  0  0
 16 23  2  0  0  0  0
 17 18  2  0  0  0  0
 17 22  1  0  0  0  0
 18 19  1  0  0  0  0
 18 51  1  0  0  0  0
 19 20  2  0  0  0  0
 19 52  1  0  0  0  0
 20 21  1  0  0  0  0
 20 53  1  0  0  0  0
 21 22  2  0  0  0  0
 21 54  1  0  0  0  0
 22 55  1  0  0  0  0
 24 25  2  0  0  0  0
 24 56  1  0  0  0  0
 25 57  1  0  0  0  0
 26 27  1  0  0  0  0
 26 28  2  0  0  0  0
M  CHG  2   4   1  27  -1
M  END
>  <Mol_ID>
3438

>  <Formula>
C22H28ClNO5

>  <MolWeight>
421.91442

>  <Cat>
S5812

>  <Name>
Choline Fenofibrate

>  <Synonyms>
ABT-335

>  <Target>
PPAR

>  <Form>
Free Base

>  <CAS>
856676-23-8

>  <URL>
http://www.selleckchem.com/products/choline-fenofibrate.html

$$$$
