CHR-6494
 OpenBabel08302521333D

 38 41  0  0  0  0  0  0  0  0999 V2000
    2.0671   -0.5913    0.0083 C   0  0  0  0  0  0  0  0  0  0  0  0
    2.0182    0.9036    0.0303 C   0  0  0  0  0  0  0  0  0  0  0  0
    0.8208    1.5133    0.0188 C   0  0  0  0  0  0  0  0  0  0  0  0
   -0.3464    0.7281    0.0108 C   0  0  0  0  0  0  0  0  0  0  0  0
   -0.1856   -0.6439   -0.0004 N   0  0  0  0  0  0  0  0  0  0  0  0
    0.9951   -1.3300   -0.0294 N   0  0  0  0  0  0  0  0  0  0  0  0
   -1.6139    1.0803   -0.0049 N   0  0  0  0  0  0  0  0  0  0  0  0
   -2.3005   -0.1096   -0.0168 C   0  0  0  0  0  0  0  0  0  0  0  0
   -1.4507   -1.2010   -0.0015 C   0  0  0  0  0  0  0  0  0  0  0  0
    3.2959   -1.2069    0.0293 N   0  0  0  0  0  0  0  0  0  0  0  0
    3.5802   -2.4904   -0.5872 C   0  0  0  0  0  0  0  0  0  0  0  0
    3.9901   -2.3296   -2.0526 C   0  0  0  0  0  0  0  0  0  0  0  0
    5.2367   -1.4742   -2.2386 C   0  0  0  0  0  0  0  0  0  0  0  0
   -1.7522   -2.6333   -0.0123 C   0  0  0  0  0  0  0  0  0  0  0  0
   -2.9036   -3.0894   -0.6796 C   0  0  0  0  0  0  0  0  0  0  0  0
   -3.2099   -4.4586   -0.6635 C   0  0  0  0  0  0  0  0  0  0  0  0
   -2.3698   -5.3360    0.0091 C   0  0  0  0  0  0  0  0  0  0  0  0
   -1.2171   -4.9258    0.6758 C   0  0  0  0  0  0  0  0  0  0  0  0
   -0.9305   -3.5577    0.6514 C   0  0  0  0  0  0  0  0  0  0  0  0
   -4.2335   -5.2801   -1.1882 C   0  0  0  0  0  0  0  0  0  0  0  0
   -4.0719   -6.5674   -0.8780 N   0  0  0  0  0  0  0  0  0  0  0  0
   -2.9376   -6.5710   -0.1529 N   0  0  0  0  0  0  0  0  0  0  0  0
    2.9444    1.4561    0.0030 H   0  0  0  0  0  0  0  0  0  0  0  0
    0.7284    2.5905    0.0016 H   0  0  0  0  0  0  0  0  0  0  0  0
   -3.3822   -0.1228   -0.0295 H   0  0  0  0  0  0  0  0  0  0  0  0
    4.0968   -0.6865    0.3607 H   0  0  0  0  0  0  0  0  0  0  0  0
    4.3923   -2.9701   -0.0284 H   0  0  0  0  0  0  0  0  0  0  0  0
    2.7167   -3.1620   -0.5248 H   0  0  0  0  0  0  0  0  0  0  0  0
    4.1841   -3.3243   -2.4744 H   0  0  0  0  0  0  0  0  0  0  0  0
    3.1670   -1.8948   -2.6312 H   0  0  0  0  0  0  0  0  0  0  0  0
    6.0807   -1.8834   -1.6743 H   0  0  0  0  0  0  0  0  0  0  0  0
    5.5196   -1.4409   -3.2959 H   0  0  0  0  0  0  0  0  0  0  0  0
    5.0663   -0.4451   -1.9083 H   0  0  0  0  0  0  0  0  0  0  0  0
   -3.5523   -2.4000   -1.2105 H   0  0  0  0  0  0  0  0  0  0  0  0
   -0.5688   -5.6211    1.1977 H   0  0  0  0  0  0  0  0  0  0  0  0
   -0.0389   -3.2188    1.1760 H   0  0  0  0  0  0  0  0  0  0  0  0
   -5.0878   -4.9837   -1.7806 H   0  0  0  0  0  0  0  0  0  0  0  0
   -2.6029   -7.4560    0.2053 H   0  0  0  0  0  0  0  0  0  0  0  0
  1  2  1  0  0  0  0
  1 10  1  0  0  0  0
  2  3  2  0  0  0  0
  2 23  1  0  0  0  0
  3  4  1  0  0  0  0
  3 24  1  0  0  0  0
  4  5  1  0  0  0  0
  4  7  2  0  0  0  0
  5  6  1  0  0  0  0
  6  1  2  0  0  0  0
  7  8  1  0  0  0  0
  8  9  2  0  0  0  0
  8 25  1  0  0  0  0
  9  5  1  0  0  0  0
  9 14  1  0  0  0  0
 10 11  1  0  0  0  0
 10 26  1  0  0  0  0
 11 12  1  0  0  0  0
 11 27  1  0  0  0  0
 11 28  1  0  0  0  0
 12 13  1  0  0  0  0
 12 29  1  0  0  0  0
 12 30  1  0  0  0  0
 13 31  1  0  0  0  0
 13 32  1  0  0  0  0
 13 33  1  0  0  0  0
 14 15  2  0  0  0  0
 15 16  1  0  0  0  0
 15 34  1  0  0  0  0
 16 17  2  0  0  0  0
 16 20  1  0  0  0  0
 17 18  1  0  0  0  0
 18 19  2  0  0  0  0
 18 35  1  0  0  0  0
 19 14  1  0  0  0  0
 19 36  1  0  0  0  0
 20 21  2  0  0  0  0
 20 37  1  0  0  0  0
 21 22  1  0  0  0  0
 22 17  1  0  0  0  0
 22 38  1  0  0  0  0
M  END
>  <Mol_ID>
6403

>  <Formula>
C16H16N6

>  <MolWeight>
292.33844

>  <Cat>
E1132

>  <Name>
CHR-6494

>  <Target>
Haspin Kinase

>  <Form>
free base

>  <CAS>
1333377-65-3

>  <URL>
http://www.selleckchem.com/products/chr-6494.html

$$$$
