Chroman 1
 OpenBabel08302521373D

 60 63  0  0  1  0  0  0  0  0999 V2000
    1.0733   -0.6653   -0.2822 C   0  0  0  0  0  0  0  0  0  0  0  0
    0.4977   -0.9870   -1.5215 N   0  0  0  0  0  0  0  0  0  0  0  0
    0.3832   -0.1854    0.6149 O   0  0  0  0  0  0  0  0  0  0  0  0
    4.6934   -6.7351    0.0006 O   0  0  0  0  0  0  0  0  0  0  0  0
    5.4248   -7.6774   -0.7760 C   0  0  0  0  0  0  0  0  0  0  0  0
   -1.2242    1.7034   -1.5990 O   0  0  0  0  0  0  0  0  0  0  0  0
    0.1219    2.1593   -1.6379 C   0  0  0  0  0  0  0  0  0  0  0  0
    0.6338    2.3945   -3.0727 C   0  0  0  0  0  0  0  0  0  0  0  0
    2.0592    2.7694   -3.2301 N   0  0  0  0  0  0  0  0  0  0  0  0
    2.3209    3.2912   -4.5765 C   0  0  0  0  0  0  0  0  0  0  0  0
    2.5813    3.7017   -2.2343 C   0  0  0  0  0  0  0  0  0  0  0  0
    3.6756   -3.2353   -0.1033 C   0  0  0  0  0  0  0  0  0  0  0  0
    4.3905   -2.7502   -1.1943 C   0  0  0  0  0  0  0  0  0  0  0  0
    2.7530   -2.3554    0.6867 C   0  0  0  0  0  0  0  0  0  0  0  0
    3.8456   -4.5792    0.2760 C   0  0  0  0  0  0  0  0  0  0  0  0
    4.2363   -1.4842   -1.6837 O   0  0  0  0  0  0  0  0  0  0  0  0
    5.2517   -3.5959   -1.8982 C   0  0  0  0  0  0  0  0  0  0  0  0
    2.5426   -0.9738    0.0779 C   0  0  1  0  0  0  0  0  0  0  0  0
    4.6728   -5.4438   -0.4512 C   0  0  0  0  0  0  0  0  0  0  0  0
    3.7328   -0.5270   -0.7514 C   0  0  0  0  0  0  0  0  0  0  0  0
    5.3807   -4.9450   -1.5406 C   0  0  0  0  0  0  0  0  0  0  0  0
   -0.9365   -0.8154   -1.6321 C   0  0  0  0  0  0  0  0  0  0  0  0
   -1.6455    0.4019   -1.5493 C   0  0  0  0  0  0  0  0  0  0  0  0
   -1.7050   -2.0021   -1.7152 C   0  0  0  0  0  0  0  0  0  0  0  0
   -3.0700    0.3757   -1.4452 C   0  0  0  0  0  0  0  0  0  0  0  0
   -3.1184   -1.9985   -1.6054 C   0  0  0  0  0  0  0  0  0  0  0  0
   -3.8218   -0.8064   -1.4548 C   0  0  0  0  0  0  0  0  0  0  0  0
   -5.2866   -0.7957   -1.3046 C   0  0  0  0  0  0  0  0  0  0  0  0
   -6.1767   -1.7231   -0.6923 C   0  0  0  0  0  0  0  0  0  0  0  0
   -6.1395    0.1867   -1.7911 C   0  0  0  0  0  0  0  0  0  0  0  0
   -7.4646   -1.3702   -0.7935 N   0  0  0  0  0  0  0  0  0  0  0  0
   -7.4122   -0.1976   -1.4652 N   0  0  0  0  0  0  0  0  0  0  0  0
    0.8827   -1.8148   -1.9430 H   0  0  0  0  0  0  0  0  0  0  0  0
    5.0066   -7.7677   -1.7845 H   0  0  0  0  0  0  0  0  0  0  0  0
    6.4887   -7.4214   -0.8107 H   0  0  0  0  0  0  0  0  0  0  0  0
    5.3361   -8.6547   -0.2908 H   0  0  0  0  0  0  0  0  0  0  0  0
    0.0928    3.1339   -1.1341 H   0  0  0  0  0  0  0  0  0  0  0  0
    0.8021    1.5576   -1.0478 H   0  0  0  0  0  0  0  0  0  0  0  0
    0.4776    1.4676   -3.6376 H   0  0  0  0  0  0  0  0  0  0  0  0
   -0.0208    3.1422   -3.5421 H   0  0  0  0  0  0  0  0  0  0  0  0
    1.8588    4.2727   -4.7437 H   0  0  0  0  0  0  0  0  0  0  0  0
    3.4006    3.3982   -4.7369 H   0  0  0  0  0  0  0  0  0  0  0  0
    1.9578    2.6034   -5.3470 H   0  0  0  0  0  0  0  0  0  0  0  0
    2.0706    4.6708   -2.2426 H   0  0  0  0  0  0  0  0  0  0  0  0
    2.5262    3.2775   -1.2271 H   0  0  0  0  0  0  0  0  0  0  0  0
    3.6490    3.8810   -2.4159 H   0  0  0  0  0  0  0  0  0  0  0  0
    3.2246   -2.2163    1.6707 H   0  0  0  0  0  0  0  0  0  0  0  0
    1.7996   -2.8670    0.8541 H   0  0  0  0  0  0  0  0  0  0  0  0
    3.3107   -4.9698    1.1408 H   0  0  0  0  0  0  0  0  0  0  0  0
    5.8230   -3.2107   -2.7397 H   0  0  0  0  0  0  0  0  0  0  0  0
    2.6248   -0.2840    0.9411 H   0  0  0  0  0  0  0  0  0  0  0  0
    3.5291    0.4008   -1.2949 H   0  0  0  0  0  0  0  0  0  0  0  0
    4.5614   -0.2920   -0.0617 H   0  0  0  0  0  0  0  0  0  0  0  0
    6.0322   -5.5729   -2.1365 H   0  0  0  0  0  0  0  0  0  0  0  0
   -1.2181   -2.9724   -1.7861 H   0  0  0  0  0  0  0  0  0  0  0  0
   -3.5861    1.3294   -1.3241 H   0  0  0  0  0  0  0  0  0  0  0  0
   -3.6521   -2.9472   -1.6220 H   0  0  0  0  0  0  0  0  0  0  0  0
   -5.9389   -2.6376   -0.1708 H   0  0  0  0  0  0  0  0  0  0  0  0
   -5.9703    1.0899   -2.3331 H   0  0  0  0  0  0  0  0  0  0  0  0
   -8.2883    0.2713   -1.6722 H   0  0  0  0  0  0  0  0  0  0  0  0
  1  2  1  0  0  0  0
  1  3  2  0  0  0  0
  2 22  1  0  0  0  0
  2 33  1  0  0  0  0
  4  5  1  0  0  0  0
  4 19  1  0  0  0  0
  5 34  1  0  0  0  0
  5 35  1  0  0  0  0
  5 36  1  0  0  0  0
  6  7  1  0  0  0  0
  6 23  1  0  0  0  0
  7  8  1  0  0  0  0
  7 37  1  0  0  0  0
  7 38  1  0  0  0  0
  8  9  1  0  0  0  0
  8 39  1  0  0  0  0
  8 40  1  0  0  0  0
  9 10  1  0  0  0  0
  9 11  1  0  0  0  0
 10 41  1  0  0  0  0
 10 42  1  0  0  0  0
 10 43  1  0  0  0  0
 11 44  1  0  0  0  0
 11 45  1  0  0  0  0
 11 46  1  0  0  0  0
 12 13  2  0  0  0  0
 12 14  1  0  0  0  0
 12 15  1  0  0  0  0
 13 16  1  0  0  0  0
 13 17  1  0  0  0  0
 14 18  1  0  0  0  0
 14 47  1  0  0  0  0
 14 48  1  0  0  0  0
 15 19  2  0  0  0  0
 15 49  1  0  0  0  0
 16 20  1  0  0  0  0
 17 21  2  0  0  0  0
 17 50  1  0  0  0  0
 18  1  1  0  0  0  0
 18 20  1  0  0  0  0
 18 51  1  1  0  0  0
 19 21  1  0  0  0  0
 20 52  1  0  0  0  0
 20 53  1  0  0  0  0
 21 54  1  0  0  0  0
 22 23  2  0  0  0  0
 22 24  1  0  0  0  0
 23 25  1  0  0  0  0
 24 26  2  0  0  0  0
 24 55  1  0  0  0  0
 25 27  2  0  0  0  0
 25 56  1  0  0  0  0
 26 27  1  0  0  0  0
 26 57  1  0  0  0  0
 27 28  1  0  0  0  0
 28 29  1  0  0  0  0
 28 30  2  0  0  0  0
 29 31  2  0  0  0  0
 29 58  1  0  0  0  0
 30 32  1  0  0  0  0
 30 59  1  0  0  0  0
 31 32  1  0  0  0  0
 32 60  1  0  0  0  0
M  END
>  <Mol_ID>
7499

>  <Formula>
C24H28N4O4

>  <MolWeight>
436.50352

>  <Cat>
E1261

>  <Name>
Chroman 1

>  <Target>
ROCK

>  <Form>
free base

>  <CAS>
1273579-40-0

>  <URL>
https://www.selleckchem.com/products/chroman-1.html

$$$$
