Chromocarb.cdx
 OpenBabel08302522053D

 20 21  0  0  0  0  0  0  0  0999 V2000
    2.3613    1.1261   -0.0083 C   0  0  0  0  0  0  0  0  0  0  0  0
    2.7492   -0.2156   -0.0045 C   0  0  0  0  0  0  0  0  0  0  0  0
    1.7853   -1.2275   -0.0047 C   0  0  0  0  0  0  0  0  0  0  0  0
    0.4306   -0.8956   -0.0101 C   0  0  0  0  0  0  0  0  0  0  0  0
    0.0466    0.4444   -0.0037 C   0  0  0  0  0  0  0  0  0  0  0  0
    1.0072    1.4603   -0.0045 C   0  0  0  0  0  0  0  0  0  0  0  0
   -0.4735   -1.9302   -0.0280 O   0  0  0  0  0  0  0  0  0  0  0  0
   -1.8244   -1.6119   -0.0538 C   0  0  0  0  0  0  0  0  0  0  0  0
   -2.3177   -0.3671   -0.0338 C   0  0  0  0  0  0  0  0  0  0  0  0
   -1.3872    0.7691    0.0028 C   0  0  0  0  0  0  0  0  0  0  0  0
   -1.7970    1.9217    0.0326 O   0  0  0  0  0  0  0  0  0  0  0  0
   -2.8017   -2.7324   -0.1136 C   0  0  0  0  0  0  0  0  0  0  0  0
   -2.1909   -3.9374   -0.1385 O   0  0  0  0  0  0  0  0  0  0  0  0
   -4.0130   -2.5974   -0.1433 O   0  0  0  0  0  0  0  0  0  0  0  0
    3.1137    1.9119   -0.0136 H   0  0  0  0  0  0  0  0  0  0  0  0
    3.8069   -0.4712   -0.0035 H   0  0  0  0  0  0  0  0  0  0  0  0
    2.0995   -2.2680   -0.0028 H   0  0  0  0  0  0  0  0  0  0  0  0
    0.7034    2.5053   -0.0053 H   0  0  0  0  0  0  0  0  0  0  0  0
   -3.3772   -0.1373   -0.0497 H   0  0  0  0  0  0  0  0  0  0  0  0
   -1.2162   -3.8678   -0.1137 H   0  0  0  0  0  0  0  0  0  0  0  0
  1  2  2  0  0  0  0
  1 15  1  0  0  0  0
  2  3  1  0  0  0  0
  2 16  1  0  0  0  0
  3  4  2  0  0  0  0
  3 17  1  0  0  0  0
  4  5  1  0  0  0  0
  4  7  1  0  0  0  0
  5  6  2  0  0  0  0
  6  1  1  0  0  0  0
  6 18  1  0  0  0  0
  7  8  1  0  0  0  0
  8  9  2  0  0  0  0
  8 12  1  0  0  0  0
  9 10  1  0  0  0  0
  9 19  1  0  0  0  0
 10  5  1  0  0  0  0
 10 11  2  0  0  0  0
 12 13  1  0  0  0  0
 12 14  2  0  0  0  0
 13 20  1  0  0  0  0
M  END
>  <Mol_ID>
1345

>  <Formula>
C10H6O4

>  <MolWeight>
190.15224

>  <Cat>
S4208

>  <Name>
Chromocarb

>  <Synonyms>
Atremon

>  <Target>
Others

>  <Form>
free base

>  <CAS>
4940-39-0

>  <URL>
http://selleckchem.com/products/chromocarb.html

$$$$
