Chrysin.cdx
 OpenBabel08302521363D

 29 31  0  0  0  0  0  0  0  0999 V2000
    1.9080    1.0662   -0.0081 C   0  0  0  0  0  0  0  0  0  0  0  0
    0.5380    1.3409   -0.0109 C   0  0  0  0  0  0  0  0  0  0  0  0
   -0.4014    0.2978   -0.0052 C   0  0  0  0  0  0  0  0  0  0  0  0
    0.0481   -1.0267    0.0069 C   0  0  0  0  0  0  0  0  0  0  0  0
    1.4175   -1.3068    0.0147 C   0  0  0  0  0  0  0  0  0  0  0  0
    2.3337   -0.2592    0.0001 C   0  0  0  0  0  0  0  0  0  0  0  0
   -1.8634    0.5319   -0.0194 C   0  0  0  0  0  0  0  0  0  0  0  0
   -2.7229   -0.6614   -0.0804 C   0  0  0  0  0  0  0  0  0  0  0  0
   -2.1591   -1.8736   -0.0655 C   0  0  0  0  0  0  0  0  0  0  0  0
   -0.7998   -2.1105    0.0042 O   0  0  0  0  0  0  0  0  0  0  0  0
    3.6603   -0.5760   -0.0094 O   0  0  0  0  0  0  0  0  0  0  0  0
    0.1310    2.6447   -0.0268 O   0  0  0  0  0  0  0  0  0  0  0  0
   -2.3963    1.6343    0.0133 O   0  0  0  0  0  0  0  0  0  0  0  0
   -2.9886   -3.0823   -0.1078 C   0  0  0  0  0  0  0  0  0  0  0  0
   -3.3807   -3.6376   -1.3328 C   0  0  0  0  0  0  0  0  0  0  0  0
   -4.1038   -4.8331   -1.3647 C   0  0  0  0  0  0  0  0  0  0  0  0
   -4.4477   -5.4738   -0.1748 C   0  0  0  0  0  0  0  0  0  0  0  0
   -4.0957   -4.9060    1.0486 C   0  0  0  0  0  0  0  0  0  0  0  0
   -3.3764   -3.7093    1.0830 C   0  0  0  0  0  0  0  0  0  0  0  0
    2.6319    1.8745   -0.0211 H   0  0  0  0  0  0  0  0  0  0  0  0
    1.7690   -2.3354    0.0238 H   0  0  0  0  0  0  0  0  0  0  0  0
   -3.7905   -0.4966   -0.1257 H   0  0  0  0  0  0  0  0  0  0  0  0
    4.1867    0.2397   -0.0564 H   0  0  0  0  0  0  0  0  0  0  0  0
    0.8898    3.2468    0.0030 H   0  0  0  0  0  0  0  0  0  0  0  0
   -3.1091   -3.1558   -2.2694 H   0  0  0  0  0  0  0  0  0  0  0  0
   -4.3825   -5.2748   -2.3181 H   0  0  0  0  0  0  0  0  0  0  0  0
   -4.9845   -6.4189   -0.2008 H   0  0  0  0  0  0  0  0  0  0  0  0
   -4.3653   -5.4036    1.9766 H   0  0  0  0  0  0  0  0  0  0  0  0
   -3.1052   -3.2792    2.0443 H   0  0  0  0  0  0  0  0  0  0  0  0
  1  2  2  0  0  0  0
  1 20  1  0  0  0  0
  2  3  1  0  0  0  0
  2 12  1  0  0  0  0
  3  4  2  0  0  0  0
  3  7  1  0  0  0  0
  4  5  1  0  0  0  0
  5  6  2  0  0  0  0
  5 21  1  0  0  0  0
  6  1  1  0  0  0  0
  6 11  1  0  0  0  0
  7  8  1  0  0  0  0
  7 13  2  0  0  0  0
  8  9  2  0  0  0  0
  8 22  1  0  0  0  0
  9 10  1  0  0  0  0
  9 14  1  0  0  0  0
 10  4  1  0  0  0  0
 11 23  1  0  0  0  0
 12 24  1  0  0  0  0
 14 15  2  0  0  0  0
 15 16  1  0  0  0  0
 15 25  1  0  0  0  0
 16 17  2  0  0  0  0
 16 26  1  0  0  0  0
 17 18  1  0  0  0  0
 17 27  1  0  0  0  0
 18 19  2  0  0  0  0
 18 28  1  0  0  0  0
 19 14  1  0  0  0  0
 19 29  1  0  0  0  0
M  END
>  <Mol_ID>
672

>  <Formula>
C15H10O4

>  <MolWeight>
254.2375

>  <Cat>
S2281

>  <Name>
Chrysin

>  <Synonyms>
NSC 407436

>  <Target>
Others

>  <Form>
free base

>  <CAS>
480-40-0

>  <URL>
http://selleckchem.com/products/Chrysin.html

$$$$
