Chrysoeriol
 OpenBabel08302521453D

 34 36  0  0  0  0  0  0  0  0999 V2000
   -2.4106    1.6185    0.0408 O   0  0  0  0  0  0  0  0  0  0  0  0
    0.1178    2.6321   -0.0251 O   0  0  0  0  0  0  0  0  0  0  0  0
    3.6458   -0.5915    0.0077 O   0  0  0  0  0  0  0  0  0  0  0  0
   -4.9101   -5.4622    2.0289 O   0  0  0  0  0  0  0  0  0  0  0  0
   -4.5916   -4.9777    3.3284 C   0  0  0  0  0  0  0  0  0  0  0  0
   -5.5376   -6.3672   -0.4003 O   0  0  0  0  0  0  0  0  0  0  0  0
    0.0351   -1.0404    0.0253 C   0  0  0  0  0  0  0  0  0  0  0  0
   -0.4154    0.2850    0.0108 C   0  0  0  0  0  0  0  0  0  0  0  0
   -0.8087   -2.1277    0.0248 O   0  0  0  0  0  0  0  0  0  0  0  0
    1.4039   -1.3189    0.0328 C   0  0  0  0  0  0  0  0  0  0  0  0
   -1.8790    0.5173    0.0021 C   0  0  0  0  0  0  0  0  0  0  0  0
    0.5237    1.3280   -0.0030 C   0  0  0  0  0  0  0  0  0  0  0  0
   -2.1663   -1.8913   -0.0493 C   0  0  0  0  0  0  0  0  0  0  0  0
    2.3203   -0.2739    0.0140 C   0  0  0  0  0  0  0  0  0  0  0  0
   -2.7331   -0.6805   -0.0606 C   0  0  0  0  0  0  0  0  0  0  0  0
    1.8942    1.0516   -0.0041 C   0  0  0  0  0  0  0  0  0  0  0  0
   -3.0057   -3.0930   -0.1258 C   0  0  0  0  0  0  0  0  0  0  0  0
   -3.4950   -3.6919    1.0479 C   0  0  0  0  0  0  0  0  0  0  0  0
   -3.3706   -3.6115   -1.3770 C   0  0  0  0  0  0  0  0  0  0  0  0
   -4.3487   -4.7947    0.9704 C   0  0  0  0  0  0  0  0  0  0  0  0
   -4.2187   -4.7151   -1.4597 C   0  0  0  0  0  0  0  0  0  0  0  0
   -4.6986   -5.2914   -0.2910 C   0  0  0  0  0  0  0  0  0  0  0  0
    0.8775    3.2339   -0.0103 H   0  0  0  0  0  0  0  0  0  0  0  0
    4.1754    0.2223   -0.0360 H   0  0  0  0  0  0  0  0  0  0  0  0
   -3.5202   -5.0762    3.5315 H   0  0  0  0  0  0  0  0  0  0  0  0
   -4.9272   -3.9436    3.4589 H   0  0  0  0  0  0  0  0  0  0  0  0
   -5.1277   -5.5948    4.0559 H   0  0  0  0  0  0  0  0  0  0  0  0
   -5.7556   -6.6132    0.5196 H   0  0  0  0  0  0  0  0  0  0  0  0
    1.7553   -2.3479    0.0458 H   0  0  0  0  0  0  0  0  0  0  0  0
   -3.8018   -0.5176   -0.1169 H   0  0  0  0  0  0  0  0  0  0  0  0
    2.6175    1.8594   -0.0222 H   0  0  0  0  0  0  0  0  0  0  0  0
   -3.2023   -3.2711    2.0044 H   0  0  0  0  0  0  0  0  0  0  0  0
   -3.0041   -3.1535   -2.2930 H   0  0  0  0  0  0  0  0  0  0  0  0
   -4.5105   -5.1182   -2.4250 H   0  0  0  0  0  0  0  0  0  0  0  0
  1 11  2  0  0  0  0
  2 12  1  0  0  0  0
  2 23  1  0  0  0  0
  3 14  1  0  0  0  0
  3 24  1  0  0  0  0
  4  5  1  0  0  0  0
  4 20  1  0  0  0  0
  5 25  1  0  0  0  0
  5 26  1  0  0  0  0
  5 27  1  0  0  0  0
  6 22  1  0  0  0  0
  6 28  1  0  0  0  0
  7  8  2  0  0  0  0
  7  9  1  0  0  0  0
  7 10  1  0  0  0  0
  8 11  1  0  0  0  0
  8 12  1  0  0  0  0
  9 13  1  0  0  0  0
 10 14  2  0  0  0  0
 10 29  1  0  0  0  0
 11 15  1  0  0  0  0
 12 16  2  0  0  0  0
 13 15  2  0  0  0  0
 13 17  1  0  0  0  0
 14 16  1  0  0  0  0
 15 30  1  0  0  0  0
 16 31  1  0  0  0  0
 17 18  2  0  0  0  0
 17 19  1  0  0  0  0
 18 20  1  0  0  0  0
 18 32  1  0  0  0  0
 19 21  2  0  0  0  0
 19 33  1  0  0  0  0
 20 22  2  0  0  0  0
 21 22  1  0  0  0  0
 21 34  1  0  0  0  0
M  END
>  <Mol_ID>
9563

>  <Formula>
C16H12O6

>  <MolWeight>
300.26288

>  <Cat>
E0431

>  <Name>
Chrysoeriol

>  <Synonyms>
NA

>  <Target>
JAK2/STAT3, NF-¦ÊB

>  <Form>
Free Base

>  <CAS>
491-71-4

>  <URL>
https://www.selleckchem.com/products/chrysoeriol.html

$$$$
