Chrysin-7-O-glucuronide
 OpenBabel08302521463D

 49 52  0  0  1  0  0  0  0  0999 V2000
   12.0859   -1.0360   -0.9813 O   0  0  0  0  0  0  0  0  0  0  0  0
   10.5273   -3.2498   -0.5036 O   0  0  0  0  0  0  0  0  0  0  0  0
    5.8616   -2.5965   -0.2523 O   0  0  0  0  0  0  0  0  0  0  0  0
    3.1259   -2.9556   -1.0742 O   0  0  0  0  0  0  0  0  0  0  0  0
    4.6726   -0.0074    3.5175 C   0  0  0  0  0  0  0  0  0  0  0  0
    5.8486   -0.6267    3.8474 O   0  0  0  0  0  0  0  0  0  0  0  0
    4.1510    0.8179    4.2550 O   0  0  0  0  0  0  0  0  0  0  0  0
    1.1574   -2.4001    0.9843 O   0  0  0  0  0  0  0  0  0  0  0  0
    1.8080   -0.1717    2.6823 O   0  0  0  0  0  0  0  0  0  0  0  0
    9.6931   -1.0145   -0.8050 C   0  0  0  0  0  0  0  0  0  0  0  0
    8.5879   -0.1678   -0.8709 C   0  0  0  0  0  0  0  0  0  0  0  0
   11.0363   -0.4086   -0.9894 C   0  0  0  0  0  0  0  0  0  0  0  0
    9.4795   -2.3788   -0.5755 C   0  0  0  0  0  0  0  0  0  0  0  0
    8.6753    1.1829   -1.0966 O   0  0  0  0  0  0  0  0  0  0  0  0
    7.2894   -0.6569   -0.7016 C   0  0  0  0  0  0  0  0  0  0  0  0
   11.0749    1.0524   -1.1950 C   0  0  0  0  0  0  0  0  0  0  0  0
    8.1796   -2.8721   -0.4052 C   0  0  0  0  0  0  0  0  0  0  0  0
    9.9278    1.7370   -1.2336 C   0  0  0  0  0  0  0  0  0  0  0  0
    7.0838   -2.0077   -0.4474 C   0  0  0  0  0  0  0  0  0  0  0  0
    9.9068    3.1848   -1.4541 C   0  0  0  0  0  0  0  0  0  0  0  0
    9.7702    3.6947   -2.7521 C   0  0  0  0  0  0  0  0  0  0  0  0
    9.9928    4.0693   -0.3725 C   0  0  0  0  0  0  0  0  0  0  0  0
    9.7151    5.0727   -2.9650 C   0  0  0  0  0  0  0  0  0  0  0  0
    9.9377    5.4502   -0.5888 C   0  0  0  0  0  0  0  0  0  0  0  0
    9.8003    5.9480   -1.8844 C   0  0  0  0  0  0  0  0  0  0  0  0
    4.8155   -1.7558    0.2527 C   0  0  2  0  0  0  0  0  0  0  0  0
    5.1353   -1.3362    1.5842 O   0  0  0  0  0  0  0  0  0  0  0  0
    3.4938   -2.5557    0.2505 C   0  0  1  0  0  0  0  0  0  0  0  0
    4.1618   -0.4288    2.1357 C   0  0  1  0  0  0  0  0  0  0  0  0
    2.3881   -1.6847    0.8684 C   0  0  2  0  0  0  0  0  0  0  0  0
    2.7932   -1.1056    2.2392 C   0  0  2  0  0  0  0  0  0  0  0  0
   10.2116   -4.1567   -0.3642 H   0  0  0  0  0  0  0  0  0  0  0  0
    2.9261   -2.1723   -1.6126 H   0  0  0  0  0  0  0  0  0  0  0  0
    6.1230   -1.2024    3.0986 H   0  0  0  0  0  0  0  0  0  0  0  0
    1.3148   -3.2285    1.4720 H   0  0  0  0  0  0  0  0  0  0  0  0
    1.1885    0.0343    1.9597 H   0  0  0  0  0  0  0  0  0  0  0  0
    6.4766    0.0522   -0.7874 H   0  0  0  0  0  0  0  0  0  0  0  0
   12.0503    1.5064   -1.3142 H   0  0  0  0  0  0  0  0  0  0  0  0
    8.0081   -3.9291   -0.2232 H   0  0  0  0  0  0  0  0  0  0  0  0
    9.6947    3.0175   -3.6011 H   0  0  0  0  0  0  0  0  0  0  0  0
   10.0909    3.6949    0.6432 H   0  0  0  0  0  0  0  0  0  0  0  0
    9.6073    5.4595   -3.9729 H   0  0  0  0  0  0  0  0  0  0  0  0
    9.9994    6.1346    0.2526 H   0  0  0  0  0  0  0  0  0  0  0  0
    9.7556    7.0202   -2.0516 H   0  0  0  0  0  0  0  0  0  0  0  0
    4.6818   -0.8903   -0.4081 H   0  0  0  0  0  0  0  0  0  0  0  0
    3.6095   -3.4790    0.8276 H   0  0  0  0  0  0  0  0  0  0  0  0
    4.1332    0.4772    1.5204 H   0  0  0  0  0  0  0  0  0  0  0  0
    2.1615   -0.8578    0.1829 H   0  0  0  0  0  0  0  0  0  0  0  0
    2.8209   -1.9181    2.9759 H   0  0  0  0  0  0  0  0  0  0  0  0
  1 12  2  0  0  0  0
  2 13  1  0  0  0  0
  2 32  1  0  0  0  0
  3 19  1  0  0  0  0
  4 33  1  0  0  0  0
  5  6  1  0  0  0  0
  5  7  2  0  0  0  0
  6 34  1  0  0  0  0
  8 35  1  0  0  0  0
  9 36  1  0  0  0  0
 10 11  2  0  0  0  0
 10 12  1  0  0  0  0
 10 13  1  0  0  0  0
 11 14  1  0  0  0  0
 11 15  1  0  0  0  0
 12 16  1  0  0  0  0
 13 17  2  0  0  0  0
 14 18  1  0  0  0  0
 15 19  2  0  0  0  0
 15 37  1  0  0  0  0
 16 18  2  0  0  0  0
 16 38  1  0  0  0  0
 17 19  1  0  0  0  0
 17 39  1  0  0  0  0
 18 20  1  0  0  0  0
 20 21  2  0  0  0  0
 20 22  1  0  0  0  0
 21 23  1  0  0  0  0
 21 40  1  0  0  0  0
 22 24  2  0  0  0  0
 22 41  1  0  0  0  0
 23 25  2  0  0  0  0
 23 42  1  0  0  0  0
 24 25  1  0  0  0  0
 24 43  1  0  0  0  0
 25 44  1  0  0  0  0
 26 27  1  0  0  0  0
 26 28  1  0  0  0  0
 26 45  1  6  0  0  0
 26  3  1  0  0  0  0
 27 29  1  0  0  0  0
 28  4  1  0  0  0  0
 28 30  1  0  0  0  0
 28 46  1  1  0  0  0
 29  5  1  0  0  0  0
 29 31  1  0  0  0  0
 29 47  1  6  0  0  0
 30  8  1  0  0  0  0
 30 31  1  0  0  0  0
 30 48  1  6  0  0  0
 31  9  1  0  0  0  0
 31 49  1  1  0  0  0
M  END
>  <Mol_ID>
9741

>  <Formula>
C21H18O10

>  <MolWeight>
430.36162

>  <Cat>
E2212

>  <Name>
Chrysin-7-O-glucuronide

>  <Synonyms>
Chrysin 7-O-beta-D-glucopyranuronoside

>  <Target>
¦Á-glucosidase, ¦Á-amylase

>  <Form>
Free Base

>  <CAS>
35775-49-6

>  <URL>
https://www.selleckchem.com/products/chrysin-7-o-glucuronide.html

$$$$
