Chrysosplenetin
 OpenBabel08302521473D

 45 47  0  0  0  0  0  0  0  0999 V2000
   -1.0807    2.3548   -0.1873 O   0  0  0  0  0  0  0  0  0  0  0  0
    1.4859    2.2040    0.3931 O   0  0  0  0  0  0  0  0  0  0  0  0
   -3.7175    1.0797    0.0291 O   0  0  0  0  0  0  0  0  0  0  0  0
   -3.7334    2.4994    0.0114 C   0  0  0  0  0  0  0  0  0  0  0  0
    3.8020    0.4763    0.0617 O   0  0  0  0  0  0  0  0  0  0  0  0
    4.1743    1.8406    0.1089 C   0  0  0  0  0  0  0  0  0  0  0  0
    3.2749   -2.3326   -0.0912 O   0  0  0  0  0  0  0  0  0  0  0  0
    4.6511   -1.9811   -0.0818 C   0  0  0  0  0  0  0  0  0  0  0  0
   -6.0858   -3.3011    2.4201 O   0  0  0  0  0  0  0  0  0  0  0  0
   -5.5483   -2.8773    3.6677 C   0  0  0  0  0  0  0  0  0  0  0  0
   -7.0862   -4.1209    0.0864 O   0  0  0  0  0  0  0  0  0  0  0  0
    0.0602    0.3110    0.0623 C   0  0  0  0  0  0  0  0  0  0  0  0
   -0.0996   -1.0630   -0.0092 C   0  0  0  0  0  0  0  0  0  0  0  0
   -1.1649    1.1441   -0.0250 C   0  0  0  0  0  0  0  0  0  0  0  0
    1.3583    0.8631    0.1403 C   0  0  0  0  0  0  0  0  0  0  0  0
   -1.3141   -1.6933   -0.0450 O   0  0  0  0  0  0  0  0  0  0  0  0
    1.0250   -1.8864   -0.0429 C   0  0  0  0  0  0  0  0  0  0  0  0
   -2.4926    0.4299    0.0155 C   0  0  0  0  0  0  0  0  0  0  0  0
    2.5060    0.0494    0.0576 C   0  0  0  0  0  0  0  0  0  0  0  0
   -2.4555   -0.9185    0.0056 C   0  0  0  0  0  0  0  0  0  0  0  0
    2.3207   -1.3469   -0.0286 C   0  0  0  0  0  0  0  0  0  0  0  0
   -3.6916   -1.7308    0.0323 C   0  0  0  0  0  0  0  0  0  0  0  0
   -4.2782   -2.0790    1.2603 C   0  0  0  0  0  0  0  0  0  0  0  0
   -4.2729   -2.1746   -1.1643 C   0  0  0  0  0  0  0  0  0  0  0  0
   -5.4249   -2.8770    1.2946 C   0  0  0  0  0  0  0  0  0  0  0  0
   -5.4184   -2.9662   -1.1347 C   0  0  0  0  0  0  0  0  0  0  0  0
   -5.9778   -3.3178    0.0840 C   0  0  0  0  0  0  0  0  0  0  0  0
    1.8225    2.6243   -0.4154 H   0  0  0  0  0  0  0  0  0  0  0  0
   -3.2528    2.9072    0.9060 H   0  0  0  0  0  0  0  0  0  0  0  0
   -3.2870    2.8903   -0.9091 H   0  0  0  0  0  0  0  0  0  0  0  0
   -4.7785    2.8237    0.0217 H   0  0  0  0  0  0  0  0  0  0  0  0
    3.8488    2.3732   -0.7898 H   0  0  0  0  0  0  0  0  0  0  0  0
    3.8308    2.3221    1.0274 H   0  0  0  0  0  0  0  0  0  0  0  0
    5.2693    1.8768    0.1164 H   0  0  0  0  0  0  0  0  0  0  0  0
    4.9181   -1.4080   -0.9762 H   0  0  0  0  0  0  0  0  0  0  0  0
    4.9274   -1.4612    0.8417 H   0  0  0  0  0  0  0  0  0  0  0  0
    5.2317   -2.9076   -0.1088 H   0  0  0  0  0  0  0  0  0  0  0  0
   -4.5340   -3.2642    3.8103 H   0  0  0  0  0  0  0  0  0  0  0  0
   -5.5739   -1.7865    3.7583 H   0  0  0  0  0  0  0  0  0  0  0  0
   -6.1769   -3.2920    4.4619 H   0  0  0  0  0  0  0  0  0  0  0  0
   -7.2953   -4.2625    1.0295 H   0  0  0  0  0  0  0  0  0  0  0  0
    0.8972   -2.9666   -0.0904 H   0  0  0  0  0  0  0  0  0  0  0  0
   -3.8212   -1.7136    2.1740 H   0  0  0  0  0  0  0  0  0  0  0  0
   -3.8362   -1.9047   -2.1234 H   0  0  0  0  0  0  0  0  0  0  0  0
   -5.8734   -3.3206   -2.0617 H   0  0  0  0  0  0  0  0  0  0  0  0
  1 14  2  0  0  0  0
  2 15  1  0  0  0  0
  2 28  1  0  0  0  0
  3  4  1  0  0  0  0
  3 18  1  0  0  0  0
  4 29  1  0  0  0  0
  4 30  1  0  0  0  0
  4 31  1  0  0  0  0
  5  6  1  0  0  0  0
  5 19  1  0  0  0  0
  6 32  1  0  0  0  0
  6 33  1  0  0  0  0
  6 34  1  0  0  0  0
  7  8  1  0  0  0  0
  7 21  1  0  0  0  0
  8 35  1  0  0  0  0
  8 36  1  0  0  0  0
  8 37  1  0  0  0  0
  9 10  1  0  0  0  0
  9 25  1  0  0  0  0
 10 38  1  0  0  0  0
 10 39  1  0  0  0  0
 10 40  1  0  0  0  0
 11 27  1  0  0  0  0
 11 41  1  0  0  0  0
 12 13  2  0  0  0  0
 12 14  1  0  0  0  0
 12 15  1  0  0  0  0
 13 16  1  0  0  0  0
 13 17  1  0  0  0  0
 14 18  1  0  0  0  0
 15 19  2  0  0  0  0
 16 20  1  0  0  0  0
 17 21  2  0  0  0  0
 17 42  1  0  0  0  0
 18 20  2  0  0  0  0
 19 21  1  0  0  0  0
 20 22  1  0  0  0  0
 22 23  2  0  0  0  0
 22 24  1  0  0  0  0
 23 25  1  0  0  0  0
 23 43  1  0  0  0  0
 24 26  2  0  0  0  0
 24 44  1  0  0  0  0
 25 27  2  0  0  0  0
 26 27  1  0  0  0  0
 26 45  1  0  0  0  0
M  END
>  <Mol_ID>
9752

>  <Formula>
C19H18O8

>  <MolWeight>
374.34142

>  <Cat>
E2229

>  <Name>
Chrysosplenetin

>  <Synonyms>
NA

>  <Target>
Wnt/¦Â-catenin

>  <Form>
Free Base

>  <CAS>
603-56-5

>  <URL>
https://www.selleckchem.com/products/chrysosplenetin.html

$$$$
