CHS828 (GMX1777).cdx
 OpenBabel08302520413D

 48 49  0  0  0  0  0  0  0  0999 V2000
   -0.8374    0.1095    2.2197 N   0  0  0  0  0  0  0  0  0  0  0  0
   -0.2264    1.1839    1.6766 C   0  0  0  0  0  0  0  0  0  0  0  0
    1.0476    1.1608    1.1282 C   0  0  0  0  0  0  0  0  0  0  0  0
    1.7621   -0.0367    1.1532 C   0  0  0  0  0  0  0  0  0  0  0  0
    1.1358   -1.1621    1.6978 C   0  0  0  0  0  0  0  0  0  0  0  0
   -0.1388   -1.0421    2.2189 C   0  0  0  0  0  0  0  0  0  0  0  0
    3.0911   -0.0714    0.6680 N   0  0  0  0  0  0  0  0  0  0  0  0
    4.0248   -1.0066    1.0719 C   0  0  0  0  0  0  0  0  0  0  0  0
    4.8797   -1.2650    0.0269 N   0  0  0  0  0  0  0  0  0  0  0  0
    3.9814   -1.4833    2.2736 N   0  0  0  0  0  0  0  0  0  0  0  0
    4.8739   -2.3442    2.7370 C   0  0  0  0  0  0  0  0  0  0  0  0
    5.6427   -3.1047    3.1610 N   0  0  0  0  0  0  0  0  0  0  0  0
    5.6453   -2.4834   -0.1739 C   0  0  0  0  0  0  0  0  0  0  0  0
    6.5393   -2.3868   -1.4108 C   0  0  0  0  0  0  0  0  0  0  0  0
    7.6485   -1.3316   -1.2955 C   0  0  0  0  0  0  0  0  0  0  0  0
    8.5841   -1.5032   -0.0916 C   0  0  0  0  0  0  0  0  0  0  0  0
    9.3493   -2.8301   -0.0480 C   0  0  0  0  0  0  0  0  0  0  0  0
   10.2520   -3.0309   -1.2669 C   0  0  0  0  0  0  0  0  0  0  0  0
   11.0238   -4.2289   -1.1458 O   0  0  0  0  0  0  0  0  0  0  0  0
   12.2173   -4.1349   -0.4849 C   0  0  0  0  0  0  0  0  0  0  0  0
   12.6045   -5.2745    0.2234 C   0  0  0  0  0  0  0  0  0  0  0  0
   13.7792   -5.2728    0.9787 C   0  0  0  0  0  0  0  0  0  0  0  0
   14.5863   -4.1377    1.0059 C   0  0  0  0  0  0  0  0  0  0  0  0
   14.2388   -3.0228    0.2466 C   0  0  0  0  0  0  0  0  0  0  0  0
   13.0624   -3.0255   -0.5069 C   0  0  0  0  0  0  0  0  0  0  0  0
   -0.8058    2.1017    1.7066 H   0  0  0  0  0  0  0  0  0  0  0  0
    1.4821    2.0705    0.7315 H   0  0  0  0  0  0  0  0  0  0  0  0
    1.6246   -2.1300    1.7253 H   0  0  0  0  0  0  0  0  0  0  0  0
   -0.6367   -1.8973    2.6661 H   0  0  0  0  0  0  0  0  0  0  0  0
    3.1611    0.2596   -0.2841 H   0  0  0  0  0  0  0  0  0  0  0  0
    5.2403   -0.4438   -0.4442 H   0  0  0  0  0  0  0  0  0  0  0  0
    6.2736   -2.7108    0.6852 H   0  0  0  0  0  0  0  0  0  0  0  0
    4.9482   -3.3195   -0.3022 H   0  0  0  0  0  0  0  0  0  0  0  0
    6.9935   -3.3687   -1.5899 H   0  0  0  0  0  0  0  0  0  0  0  0
    5.9284   -2.1651   -2.2943 H   0  0  0  0  0  0  0  0  0  0  0  0
    8.2342   -1.3356   -2.2218 H   0  0  0  0  0  0  0  0  0  0  0  0
    7.1991   -0.3331   -1.2421 H   0  0  0  0  0  0  0  0  0  0  0  0
    9.3060   -0.6772   -0.0954 H   0  0  0  0  0  0  0  0  0  0  0  0
    8.0159   -1.3890    0.8393 H   0  0  0  0  0  0  0  0  0  0  0  0
    9.9524   -2.8564    0.8680 H   0  0  0  0  0  0  0  0  0  0  0  0
    8.6576   -3.6763    0.0405 H   0  0  0  0  0  0  0  0  0  0  0  0
    9.6321   -3.1661   -2.1591 H   0  0  0  0  0  0  0  0  0  0  0  0
   10.8555   -2.1398   -1.4572 H   0  0  0  0  0  0  0  0  0  0  0  0
   11.9799   -6.1640    0.2012 H   0  0  0  0  0  0  0  0  0  0  0  0
   14.0594   -6.1540    1.5493 H   0  0  0  0  0  0  0  0  0  0  0  0
   15.4908   -4.1250    1.6080 H   0  0  0  0  0  0  0  0  0  0  0  0
   14.8838   -2.1482    0.2371 H   0  0  0  0  0  0  0  0  0  0  0  0
   12.8483   -2.1540   -1.1141 H   0  0  0  0  0  0  0  0  0  0  0  0
  1  2  2  0  0  0  0
  2  3  1  0  0  0  0
  2 26  1  0  0  0  0
  3  4  2  0  0  0  0
  3 27  1  0  0  0  0
  4  5  1  0  0  0  0
  4  7  1  0  0  0  0
  5  6  2  0  0  0  0
  5 28  1  0  0  0  0
  6  1  1  0  0  0  0
  6 29  1  0  0  0  0
  7  8  1  0  0  0  0
  7 30  1  0  0  0  0
  8  9  1  0  0  0  0
  8 10  2  0  0  0  0
  9 13  1  0  0  0  0
  9 31  1  0  0  0  0
 10 11  1  0  0  0  0
 11 12  3  0  0  0  0
 13 14  1  0  0  0  0
 13 32  1  0  0  0  0
 13 33  1  0  0  0  0
 14 15  1  0  0  0  0
 14 34  1  0  0  0  0
 14 35  1  0  0  0  0
 15 16  1  0  0  0  0
 15 36  1  0  0  0  0
 15 37  1  0  0  0  0
 16 17  1  0  0  0  0
 16 38  1  0  0  0  0
 16 39  1  0  0  0  0
 17 18  1  0  0  0  0
 17 40  1  0  0  0  0
 17 41  1  0  0  0  0
 18 19  1  0  0  0  0
 18 42  1  0  0  0  0
 18 43  1  0  0  0  0
 19 20  1  0  0  0  0
 20 21  2  0  0  0  0
 21 22  1  0  0  0  0
 21 44  1  0  0  0  0
 22 23  2  0  0  0  0
 22 45  1  0  0  0  0
 23 24  1  0  0  0  0
 23 46  1  0  0  0  0
 24 25  2  0  0  0  0
 24 47  1  0  0  0  0
 25 20  1  0  0  0  0
 25 48  1  0  0  0  0
M  END
>  <Mol_ID>
3902

>  <Formula>
C19H22ClN5O

>  <MolWeight>
371.86388

>  <Cat>
S8117

>  <Name>
GMX1778 (CHS828)

>  <Synonyms>
N/A

>  <Target>
Apoptosis related,NAMPT

>  <Form>
free base

>  <CAS>
200484-11-3

>  <URL>
http://selleckchem.com/products/gmx1778-chs828.html

$$$$
