CI994.cdx
 OpenBabel08302521323D

 35 36  0  0  0  0  0  0  0  0999 V2000
    1.5228   -0.1118   -0.1584 C   0  0  0  0  0  0  0  0  0  0  0  0
    0.6944   -1.1857   -0.5066 C   0  0  0  0  0  0  0  0  0  0  0  0
   -0.6914   -1.0206   -0.6425 C   0  0  0  0  0  0  0  0  0  0  0  0
   -1.2628    0.2341   -0.4369 C   0  0  0  0  0  0  0  0  0  0  0  0
   -0.4323    1.3185   -0.1105 C   0  0  0  0  0  0  0  0  0  0  0  0
    0.9478    1.1487    0.0239 C   0  0  0  0  0  0  0  0  0  0  0  0
    2.9147   -0.2269    0.0477 N   0  0  0  0  0  0  0  0  0  0  0  0
    3.6710   -1.3818   -0.0269 C   0  0  0  0  0  0  0  0  0  0  0  0
    5.1295   -1.1698    0.2885 C   0  0  0  0  0  0  0  0  0  0  0  0
    3.2654   -2.5070   -0.2993 O   0  0  0  0  0  0  0  0  0  0  0  0
   -2.7297    0.4747   -0.4298 C   0  0  0  0  0  0  0  0  0  0  0  0
   -3.1184    1.3645    0.3272 O   0  0  0  0  0  0  0  0  0  0  0  0
   -3.5269   -0.3168   -1.2366 N   0  0  0  0  0  0  0  0  0  0  0  0
   -4.9513   -0.2685   -1.3223 C   0  0  0  0  0  0  0  0  0  0  0  0
   -5.7569    0.8339   -0.9455 C   0  0  0  0  0  0  0  0  0  0  0  0
   -7.1556    0.7143   -1.0036 C   0  0  0  0  0  0  0  0  0  0  0  0
   -7.7640   -0.4738   -1.3961 C   0  0  0  0  0  0  0  0  0  0  0  0
   -6.9778   -1.5432   -1.8065 C   0  0  0  0  0  0  0  0  0  0  0  0
   -5.5825   -1.4374   -1.7836 C   0  0  0  0  0  0  0  0  0  0  0  0
   -5.2496    2.1463   -0.7953 N   0  0  0  0  0  0  0  0  0  0  0  0
    1.0922   -2.1854   -0.6525 H   0  0  0  0  0  0  0  0  0  0  0  0
   -1.2946   -1.8978   -0.8535 H   0  0  0  0  0  0  0  0  0  0  0  0
   -0.8661    2.3021    0.0689 H   0  0  0  0  0  0  0  0  0  0  0  0
    1.5493    2.0120    0.2974 H   0  0  0  0  0  0  0  0  0  0  0  0
    3.3952    0.6237    0.3135 H   0  0  0  0  0  0  0  0  0  0  0  0
    5.3764   -1.7192    1.2017 H   0  0  0  0  0  0  0  0  0  0  0  0
    5.7243   -1.5564   -0.5434 H   0  0  0  0  0  0  0  0  0  0  0  0
    5.3764   -0.1156    0.4326 H   0  0  0  0  0  0  0  0  0  0  0  0
   -3.0894   -1.0912   -1.7154 H   0  0  0  0  0  0  0  0  0  0  0  0
   -7.7772    1.5704   -0.7540 H   0  0  0  0  0  0  0  0  0  0  0  0
   -8.8480   -0.5456   -1.4082 H   0  0  0  0  0  0  0  0  0  0  0  0
   -7.4527   -2.4611   -2.1431 H   0  0  0  0  0  0  0  0  0  0  0  0
   -5.0005   -2.2961   -2.1069 H   0  0  0  0  0  0  0  0  0  0  0  0
   -5.7853    2.6846   -0.1235 H   0  0  0  0  0  0  0  0  0  0  0  0
   -4.2782    2.1125   -0.4732 H   0  0  0  0  0  0  0  0  0  0  0  0
  1  2  2  0  0  0  0
  1  7  1  0  0  0  0
  2  3  1  0  0  0  0
  2 21  1  0  0  0  0
  3  4  2  0  0  0  0
  3 22  1  0  0  0  0
  4  5  1  0  0  0  0
  4 11  1  0  0  0  0
  5  6  2  0  0  0  0
  5 23  1  0  0  0  0
  6  1  1  0  0  0  0
  6 24  1  0  0  0  0
  7  8  1  0  0  0  0
  7 25  1  0  0  0  0
  8  9  1  0  0  0  0
  8 10  2  0  0  0  0
  9 26  1  0  0  0  0
  9 27  1  0  0  0  0
  9 28  1  0  0  0  0
 11 12  2  0  0  0  0
 11 13  1  0  0  0  0
 13 14  1  0  0  0  0
 13 29  1  0  0  0  0
 14 15  2  0  0  0  0
 15 16  1  0  0  0  0
 15 20  1  0  0  0  0
 16 17  2  0  0  0  0
 16 30  1  0  0  0  0
 17 18  1  0  0  0  0
 17 31  1  0  0  0  0
 18 19  2  0  0  0  0
 18 32  1  0  0  0  0
 19 14  1  0  0  0  0
 19 33  1  0  0  0  0
 20 34  1  0  0  0  0
 20 35  1  0  0  0  0
M  END
>  <Mol_ID>
588

>  <Formula>
C15H15N3O2

>  <MolWeight>
269.2985

>  <Cat>
S2818

>  <Name>
Tacedinaline (CI994)

>  <Synonyms>
PD-123654, GOE-5549, Acetyldinaline

>  <Target>
HDAC

>  <Form>
free base

>  <CAS>
112522-64-2

>  <URL>
http://selleckchem.com/products/ci994-tacedinaline.html

$$$$
