CIA1
 OpenBabel08302521373D

 42 44  0  0  0  0  0  0  0  0999 V2000
   -0.6781   -1.9870   -0.5580 N   0  0  0  0  0  0  0  0  0  0  0  0
   -0.1905   -0.9337    0.3273 C   0  0  0  0  0  0  0  0  0  0  0  0
   -1.3550   -0.3508    1.1433 C   0  0  0  0  0  0  0  0  0  0  0  0
   -0.8811   -7.4181   -0.1946 C   0  0  0  0  0  0  0  0  0  0  0  0
   -3.6007    1.4268   -2.9894 O   0  0  0  0  0  0  0  0  0  0  0  0
   -2.5261    1.0747   -3.8399 C   0  0  0  0  0  0  0  0  0  0  0  0
   -5.5492    2.6052   -1.3080 O   0  0  0  0  0  0  0  0  0  0  0  0
   -6.1077    2.1369   -2.5344 C   0  0  0  0  0  0  0  0  0  0  0  0
    0.1777   -4.0875   -1.4273 C   0  0  0  0  0  0  0  0  0  0  0  0
    1.2666   -4.7434   -1.9740 C   0  0  0  0  0  0  0  0  0  0  0  0
    0.3118   -2.7037   -1.2303 C   0  0  0  0  0  0  0  0  0  0  0  0
   -0.8574   -5.0115   -1.0713 C   0  0  0  0  0  0  0  0  0  0  0  0
    1.0735   -6.4392   -1.9376 S   0  0  0  0  0  0  0  0  0  0  0  0
    2.4040   -4.1774   -2.4079 N   0  0  0  0  0  0  0  0  0  0  0  0
    1.4571   -2.1047   -1.6182 N   0  0  0  0  0  0  0  0  0  0  0  0
   -0.3579   -6.2933   -1.0107 C   0  0  0  0  0  0  0  0  0  0  0  0
    2.4166   -2.8581   -2.1849 C   0  0  0  0  0  0  0  0  0  0  0  0
   -2.3963    0.4577    0.4001 C   0  0  0  0  0  0  0  0  0  0  0  0
   -2.4727    0.5428   -1.0114 C   0  0  0  0  0  0  0  0  0  0  0  0
   -3.3571    1.1391    1.1681 C   0  0  0  0  0  0  0  0  0  0  0  0
   -3.4831    1.2763   -1.6326 C   0  0  0  0  0  0  0  0  0  0  0  0
   -4.3787    1.8587    0.5467 C   0  0  0  0  0  0  0  0  0  0  0  0
   -4.4671    1.9029   -0.8434 C   0  0  0  0  0  0  0  0  0  0  0  0
   -1.3509   -2.6014   -0.1127 H   0  0  0  0  0  0  0  0  0  0  0  0
    0.5369   -1.3560    1.0333 H   0  0  0  0  0  0  0  0  0  0  0  0
    0.3060   -0.1389   -0.2411 H   0  0  0  0  0  0  0  0  0  0  0  0
   -1.8735   -1.1700    1.6605 H   0  0  0  0  0  0  0  0  0  0  0  0
   -0.9223    0.2936    1.9188 H   0  0  0  0  0  0  0  0  0  0  0  0
   -1.3648   -7.0087    0.7022 H   0  0  0  0  0  0  0  0  0  0  0  0
   -1.6126   -8.0173   -0.7380 H   0  0  0  0  0  0  0  0  0  0  0  0
   -0.0662   -8.0583    0.1585 H   0  0  0  0  0  0  0  0  0  0  0  0
   -1.6417    1.6859   -3.6416 H   0  0  0  0  0  0  0  0  0  0  0  0
   -2.3052    0.0069   -3.7909 H   0  0  0  0  0  0  0  0  0  0  0  0
   -2.8557    1.2925   -4.8629 H   0  0  0  0  0  0  0  0  0  0  0  0
   -5.6098    2.6057   -3.3869 H   0  0  0  0  0  0  0  0  0  0  0  0
   -6.0874    1.0392   -2.6090 H   0  0  0  0  0  0  0  0  0  0  0  0
   -7.1532    2.4435   -2.5666 H   0  0  0  0  0  0  0  0  0  0  0  0
   -1.8087   -4.7253   -0.6402 H   0  0  0  0  0  0  0  0  0  0  0  0
    3.3230   -2.3341   -2.4724 H   0  0  0  0  0  0  0  0  0  0  0  0
   -1.7522    0.0029   -1.6137 H   0  0  0  0  0  0  0  0  0  0  0  0
   -3.3171    1.1051    2.2535 H   0  0  0  0  0  0  0  0  0  0  0  0
   -5.1177    2.3744    1.1553 H   0  0  0  0  0  0  0  0  0  0  0  0
  1  2  1  0  0  0  0
  1 11  1  0  0  0  0
  1 24  1  0  0  0  0
  2  3  1  0  0  0  0
  2 25  1  0  0  0  0
  2 26  1  0  0  0  0
  3 18  1  0  0  0  0
  3 27  1  0  0  0  0
  3 28  1  0  0  0  0
  4 16  1  0  0  0  0
  4 29  1  0  0  0  0
  4 30  1  0  0  0  0
  4 31  1  0  0  0  0
  5  6  1  0  0  0  0
  5 21  1  0  0  0  0
  6 32  1  0  0  0  0
  6 33  1  0  0  0  0
  6 34  1  0  0  0  0
  7  8  1  0  0  0  0
  7 23  1  0  0  0  0
  8 35  1  0  0  0  0
  8 36  1  0  0  0  0
  8 37  1  0  0  0  0
  9 10  2  0  0  0  0
  9 11  1  0  0  0  0
  9 12  1  0  0  0  0
 10 13  1  0  0  0  0
 10 14  1  0  0  0  0
 11 15  2  0  0  0  0
 12 16  2  0  0  0  0
 12 38  1  0  0  0  0
 13 16  1  0  0  0  0
 14 17  2  0  0  0  0
 15 17  1  0  0  0  0
 17 39  1  0  0  0  0
 18 19  2  0  0  0  0
 18 20  1  0  0  0  0
 19 21  1  0  0  0  0
 19 40  1  0  0  0  0
 20 22  2  0  0  0  0
 20 41  1  0  0  0  0
 21 23  2  0  0  0  0
 22 23  1  0  0  0  0
 22 42  1  0  0  0  0
M  END
>  <Mol_ID>
7495

>  <Formula>
C17H20ClN3O2S

>  <MolWeight>
365.8776

>  <Cat>
E1221

>  <Name>
CIA1

>  <Synonyms>
COUP-TFII inhibitor A1

>  <Target>
Others

>  <Form>
Chloride

>  <CAS>
1049691-47-5

>  <URL>
https://www.selleckchem.com/products/cia1.html

$$$$
