Ciclopirox ethanolamine.cdx
 OpenBabel08302521313D

 43 43  0  0  0  0  0  0  0  0999 V2000
   -0.4641    1.1893   -1.0110 C   0  0  0  0  0  0  0  0  0  0  0  0
   -1.1621    0.0551   -0.8558 C   0  0  0  0  0  0  0  0  0  0  0  0
   -0.4880   -1.2305   -0.9070 C   0  0  0  0  0  0  0  0  0  0  0  0
    0.8615   -1.3220   -0.9236 C   0  0  0  0  0  0  0  0  0  0  0  0
    1.5639   -0.1309   -0.9936 N   0  0  0  0  0  0  0  0  0  0  0  0
    1.0216    1.1365   -1.1314 C   0  0  0  0  0  0  0  0  0  0  0  0
    1.6369   -2.6404   -0.7228 C   0  0  0  0  0  0  0  0  0  0  0  0
    2.6272   -2.9733   -1.8589 C   0  0  0  0  0  0  0  0  0  0  0  0
    3.4066   -4.2547   -1.5720 C   0  0  0  0  0  0  0  0  0  0  0  0
    2.4577   -5.4322   -1.4202 C   0  0  0  0  0  0  0  0  0  0  0  0
    1.4729   -5.1839   -0.2878 C   0  0  0  0  0  0  0  0  0  0  0  0
    0.7198   -3.8644   -0.4594 C   0  0  0  0  0  0  0  0  0  0  0  0
   -2.6248    0.0476   -0.5169 C   0  0  0  0  0  0  0  0  0  0  0  0
    2.9675   -0.2120   -1.0249 O   0  0  0  0  0  0  0  0  0  0  0  0
    1.6624    2.1796   -1.2299 O   0  0  0  0  0  0  0  0  0  0  0  0
    0.8844    0.5268    2.1971 N   0  0  0  0  0  0  0  0  0  0  0  0
    0.1188   -0.6829    2.5256 C   0  0  0  0  0  0  0  0  0  0  0  0
    0.7847   -1.3794    3.7079 C   0  0  0  0  0  0  0  0  0  0  0  0
    0.9052   -0.4429    4.7754 O   0  0  0  0  0  0  0  0  0  0  0  0
   -0.9053    2.1790   -0.9568 H   0  0  0  0  0  0  0  0  0  0  0  0
   -1.1236   -2.1044   -0.8276 H   0  0  0  0  0  0  0  0  0  0  0  0
    2.2276   -2.5033    0.1960 H   0  0  0  0  0  0  0  0  0  0  0  0
    2.0875   -3.0670   -2.8076 H   0  0  0  0  0  0  0  0  0  0  0  0
    3.3674   -2.1837   -2.0036 H   0  0  0  0  0  0  0  0  0  0  0  0
    4.1138   -4.4466   -2.3843 H   0  0  0  0  0  0  0  0  0  0  0  0
    3.9978   -4.1323   -0.6553 H   0  0  0  0  0  0  0  0  0  0  0  0
    1.9128   -5.5837   -2.3600 H   0  0  0  0  0  0  0  0  0  0  0  0
    3.0264   -6.3478   -1.2252 H   0  0  0  0  0  0  0  0  0  0  0  0
    0.7514   -6.0076   -0.2471 H   0  0  0  0  0  0  0  0  0  0  0  0
    2.0058   -5.1795    0.6696 H   0  0  0  0  0  0  0  0  0  0  0  0
    0.1214   -3.6952    0.4444 H   0  0  0  0  0  0  0  0  0  0  0  0
    0.0199   -3.9860   -1.2946 H   0  0  0  0  0  0  0  0  0  0  0  0
   -3.2062   -0.4490   -1.2855 H   0  0  0  0  0  0  0  0  0  0  0  0
   -2.7760   -0.4833    0.4395 H   0  0  0  0  0  0  0  0  0  0  0  0
   -3.0200    1.0610   -0.3859 H   0  0  0  0  0  0  0  0  0  0  0  0
    3.2154    0.1477   -0.1571 H   0  0  0  0  0  0  0  0  0  0  0  0
    0.3248    1.1247    1.5893 H   0  0  0  0  0  0  0  0  0  0  0  0
    1.7045    0.2623    1.6504 H   0  0  0  0  0  0  0  0  0  0  0  0
   -0.8972   -0.3786    2.7898 H   0  0  0  0  0  0  0  0  0  0  0  0
    0.0637   -1.3708    1.6835 H   0  0  0  0  0  0  0  0  0  0  0  0
    0.1893   -2.2323    4.0431 H   0  0  0  0  0  0  0  0  0  0  0  0
    1.7879   -1.7309    3.4418 H   0  0  0  0  0  0  0  0  0  0  0  0
    1.0839    0.4094    4.3223 H   0  0  0  0  0  0  0  0  0  0  0  0
  1  2  2  0  0  0  0
  1 20  1  0  0  0  0
  2  3  1  0  0  0  0
  2 13  1  0  0  0  0
  3  4  2  0  0  0  0
  3 21  1  0  0  0  0
  4  5  1  0  0  0  0
  4  7  1  0  0  0  0
  5  6  1  0  0  0  0
  5 14  1  0  0  0  0
  6  1  1  0  0  0  0
  6 15  2  0  0  0  0
  7  8  1  0  0  0  0
  7 22  1  0  0  0  0
  8  9  1  0  0  0  0
  8 23  1  0  0  0  0
  8 24  1  0  0  0  0
  9 10  1  0  0  0  0
  9 25  1  0  0  0  0
  9 26  1  0  0  0  0
 10 11  1  0  0  0  0
 10 27  1  0  0  0  0
 10 28  1  0  0  0  0
 11 12  1  0  0  0  0
 11 29  1  0  0  0  0
 11 30  1  0  0  0  0
 12  7  1  0  0  0  0
 12 31  1  0  0  0  0
 12 32  1  0  0  0  0
 13 33  1  0  0  0  0
 13 34  1  0  0  0  0
 13 35  1  0  0  0  0
 14 36  1  0  0  0  0
 16 17  1  0  0  0  0
 16 37  1  0  0  0  0
 16 38  1  0  0  0  0
 17 18  1  0  0  0  0
 17 39  1  0  0  0  0
 17 40  1  0  0  0  0
 18 19  1  0  0  0  0
 18 41  1  0  0  0  0
 18 42  1  0  0  0  0
 19 43  1  0  0  0  0
M  END
>  <Mol_ID>
565

>  <Formula>
C14H24N2O3

>  <MolWeight>
268.35196

>  <Cat>
S3019

>  <Name>
Ciclopirox ethanolamine

>  <Synonyms>
Ciclopirox olamine, HOE 296,Ciclopiroxolamine

>  <Target>
ATPase,Fungal

>  <Form>
Ethanolamine

>  <CAS>
41621-49-2

>  <URL>
http://selleckchem.com/products/ciclopirox-ethanolamine.html

$$$$
