Ciclopirox.cdx
 OpenBabel08302521393D

 32 33  0  0  0  0  0  0  0  0999 V2000
   -1.4722    0.1794   -0.3654 C   0  0  0  0  0  0  0  0  0  0  0  0
   -1.0654   -1.1897    0.1593 C   0  0  0  0  0  0  0  0  0  0  0  0
    0.3836   -1.4846   -0.1917 C   0  0  0  0  0  0  0  0  0  0  0  0
    1.3211   -0.4185    0.3747 C   0  0  0  0  0  0  0  0  0  0  0  0
    0.9516    1.0059   -0.1048 C   0  0  0  0  0  0  0  0  0  0  0  0
   -0.5505    1.2676    0.1700 C   0  0  0  0  0  0  0  0  0  0  0  0
    1.8697    2.0877    0.4937 C   0  0  0  0  0  0  0  0  0  0  0  0
    3.2144    2.0911    0.1737 N   0  0  0  0  0  0  0  0  0  0  0  0
    4.1678    2.9693    0.6578 C   0  0  0  0  0  0  0  0  0  0  0  0
    3.6393    4.0355    1.5564 C   0  0  0  0  0  0  0  0  0  0  0  0
    2.3256    4.0809    1.8377 C   0  0  0  0  0  0  0  0  0  0  0  0
    1.4288    3.0848    1.2915 C   0  0  0  0  0  0  0  0  0  0  0  0
    1.7112    5.1228    2.7256 C   0  0  0  0  0  0  0  0  0  0  0  0
    5.3682    2.9521    0.3884 O   0  0  0  0  0  0  0  0  0  0  0  0
    3.6874    1.0331   -0.6241 O   0  0  0  0  0  0  0  0  0  0  0  0
   -1.4514    0.1825   -1.4611 H   0  0  0  0  0  0  0  0  0  0  0  0
   -2.5028    0.3963   -0.0614 H   0  0  0  0  0  0  0  0  0  0  0  0
   -1.1940   -1.2236    1.2486 H   0  0  0  0  0  0  0  0  0  0  0  0
   -1.7180   -1.9588   -0.2673 H   0  0  0  0  0  0  0  0  0  0  0  0
    0.6667   -2.4679    0.2010 H   0  0  0  0  0  0  0  0  0  0  0  0
    0.4971   -1.5319   -1.2825 H   0  0  0  0  0  0  0  0  0  0  0  0
    1.3008   -0.4578    1.4709 H   0  0  0  0  0  0  0  0  0  0  0  0
    2.3360   -0.6949    0.0769 H   0  0  0  0  0  0  0  0  0  0  0  0
    1.0837    1.0410   -1.1967 H   0  0  0  0  0  0  0  0  0  0  0  0
   -0.8484    2.2278   -0.2700 H   0  0  0  0  0  0  0  0  0  0  0  0
   -0.7218    1.3374    1.2523 H   0  0  0  0  0  0  0  0  0  0  0  0
    4.3600    4.7394    1.9430 H   0  0  0  0  0  0  0  0  0  0  0  0
    0.3840    3.1865    1.5660 H   0  0  0  0  0  0  0  0  0  0  0  0
    0.9862    5.7242    2.1646 H   0  0  0  0  0  0  0  0  0  0  0  0
    1.1882    4.6499    3.5648 H   0  0  0  0  0  0  0  0  0  0  0  0
    2.4607    5.8036    3.1416 H   0  0  0  0  0  0  0  0  0  0  0  0
    3.6942    1.4476   -1.5057 H   0  0  0  0  0  0  0  0  0  0  0  0
  1  2  1  0  0  0  0
  1 16  1  0  0  0  0
  1 17  1  0  0  0  0
  2  3  1  0  0  0  0
  2 18  1  0  0  0  0
  2 19  1  0  0  0  0
  3  4  1  0  0  0  0
  3 20  1  0  0  0  0
  3 21  1  0  0  0  0
  4  5  1  0  0  0  0
  4 22  1  0  0  0  0
  4 23  1  0  0  0  0
  5  6  1  0  0  0  0
  5  7  1  0  0  0  0
  5 24  1  0  0  0  0
  6  1  1  0  0  0  0
  6 25  1  0  0  0  0
  6 26  1  0  0  0  0
  7  8  1  0  0  0  0
  8  9  1  0  0  0  0
  8 15  1  0  0  0  0
  9 10  1  0  0  0  0
  9 14  2  0  0  0  0
 10 11  2  0  0  0  0
 10 27  1  0  0  0  0
 11 12  1  0  0  0  0
 11 13  1  0  0  0  0
 12  7  2  0  0  0  0
 12 28  1  0  0  0  0
 13 29  1  0  0  0  0
 13 30  1  0  0  0  0
 13 31  1  0  0  0  0
 15 32  1  0  0  0  0
M  END
>  <Mol_ID>
785

>  <Formula>
C12H17NO2

>  <MolWeight>
207.26888

>  <Cat>
S2528

>  <Name>
Ciclopirox

>  <Synonyms>
HOE 296b, Penlac

>  <Target>
ATPase,Fungal

>  <Form>
Free Base

>  <CAS>
29342-05-0

>  <URL>
http://selleckchem.com/products/Ciclopirox-Penlac.html

$$$$
