CID-1067700
 OpenBabel08302521313D

 44 46  0  0  0  0  0  0  0  0999 V2000
    1.8904    0.7686    0.4649 S   0  0  0  0  0  0  0  0  0  0  0  0
    6.3064   -1.3801    0.2669 S   0  0  0  0  0  0  0  0  0  0  0  0
   -2.0932    0.7293    0.2133 O   0  0  0  0  0  0  0  0  0  0  0  0
    2.5651   -3.6763    0.3150 O   0  0  0  0  0  0  0  0  0  0  0  0
    0.6437   -3.8153   -0.8463 O   0  0  0  0  0  0  0  0  0  0  0  0
    4.1070    1.7059   -1.6541 O   0  0  0  0  0  0  0  0  0  0  0  0
    3.7715   -1.0976   -0.1269 N   0  0  0  0  0  0  0  0  0  0  0  0
    5.0487    0.8882    0.3171 N   0  0  0  0  0  0  0  0  0  0  0  0
   -2.3246   -0.4135   -0.6373 C   0  0  0  0  0  0  0  0  0  0  0  0
   -1.2435   -1.5143   -0.4619 C   0  0  0  0  0  0  0  0  0  0  0  0
    0.1143   -0.9498   -0.1811 C   0  0  0  0  0  0  0  0  0  0  0  0
    0.2727    0.3834    0.1129 C   0  0  0  0  0  0  0  0  0  0  0  0
   -0.8222    1.3930    0.1114 C   0  0  0  0  0  0  0  0  0  0  0  0
   -3.6705   -0.9837   -0.1586 C   0  0  0  0  0  0  0  0  0  0  0  0
   -2.4794   -0.0139   -2.1137 C   0  0  0  0  0  0  0  0  0  0  0  0
    1.3625   -1.6683   -0.1306 C   0  0  0  0  0  0  0  0  0  0  0  0
    2.4282   -0.7811    0.0176 C   0  0  0  0  0  0  0  0  0  0  0  0
    1.4753   -3.1215   -0.2803 C   0  0  0  0  0  0  0  0  0  0  0  0
    4.9243   -0.4390    0.1081 C   0  0  0  0  0  0  0  0  0  0  0  0
    4.8595    1.8273   -0.6986 C   0  0  0  0  0  0  0  0  0  0  0  0
    5.7027    3.0607   -0.5590 C   0  0  0  0  0  0  0  0  0  0  0  0
    6.1145    3.5337    0.6963 C   0  0  0  0  0  0  0  0  0  0  0  0
    6.1344    3.7180   -1.7184 C   0  0  0  0  0  0  0  0  0  0  0  0
    7.0038    4.6103    0.7865 C   0  0  0  0  0  0  0  0  0  0  0  0
    7.0254    4.7948   -1.6203 C   0  0  0  0  0  0  0  0  0  0  0  0
    7.4698    5.2213   -0.3685 C   0  0  0  0  0  0  0  0  0  0  0  0
    2.9636   -3.0866    0.9825 H   0  0  0  0  0  0  0  0  0  0  0  0
    3.9564   -2.0483   -0.4392 H   0  0  0  0  0  0  0  0  0  0  0  0
    5.9477    1.0473    0.7583 H   0  0  0  0  0  0  0  0  0  0  0  0
   -1.5047   -2.1709    0.3768 H   0  0  0  0  0  0  0  0  0  0  0  0
   -1.2112   -2.1406   -1.3620 H   0  0  0  0  0  0  0  0  0  0  0  0
   -0.7971    2.0086   -0.7932 H   0  0  0  0  0  0  0  0  0  0  0  0
   -0.7452    2.0547    0.9805 H   0  0  0  0  0  0  0  0  0  0  0  0
   -4.4871   -0.2777   -0.3488 H   0  0  0  0  0  0  0  0  0  0  0  0
   -3.9094   -1.9324   -0.6498 H   0  0  0  0  0  0  0  0  0  0  0  0
   -3.6530   -1.1468    0.9258 H   0  0  0  0  0  0  0  0  0  0  0  0
   -1.5582    0.4088   -2.5260 H   0  0  0  0  0  0  0  0  0  0  0  0
   -2.7548   -0.8811   -2.7264 H   0  0  0  0  0  0  0  0  0  0  0  0
   -3.2621    0.7432   -2.2373 H   0  0  0  0  0  0  0  0  0  0  0  0
    5.7489    3.0866    1.6159 H   0  0  0  0  0  0  0  0  0  0  0  0
    5.7979    3.3853   -2.6947 H   0  0  0  0  0  0  0  0  0  0  0  0
    7.3390    4.9577    1.7626 H   0  0  0  0  0  0  0  0  0  0  0  0
    7.3727    5.2836   -2.5277 H   0  0  0  0  0  0  0  0  0  0  0  0
    8.1804    6.0428   -0.3029 H   0  0  0  0  0  0  0  0  0  0  0  0
  1 12  1  0  0  0  0
  1 17  1  0  0  0  0
  2 19  2  0  0  0  0
  3  9  1  0  0  0  0
  3 13  1  0  0  0  0
  4 18  1  0  0  0  0
  4 27  1  0  0  0  0
  5 18  2  0  0  0  0
  6 20  2  0  0  0  0
  7 17  1  0  0  0  0
  7 19  1  0  0  0  0
  7 28  1  0  0  0  0
  8 19  1  0  0  0  0
  8 20  1  0  0  0  0
  8 29  1  0  0  0  0
  9 10  1  0  0  0  0
  9 14  1  0  0  0  0
  9 15  1  0  0  0  0
 10 11  1  0  0  0  0
 10 30  1  0  0  0  0
 10 31  1  0  0  0  0
 11 12  2  0  0  0  0
 11 16  1  0  0  0  0
 12 13  1  0  0  0  0
 13 32  1  0  0  0  0
 13 33  1  0  0  0  0
 14 34  1  0  0  0  0
 14 35  1  0  0  0  0
 14 36  1  0  0  0  0
 15 37  1  0  0  0  0
 15 38  1  0  0  0  0
 15 39  1  0  0  0  0
 16 17  2  0  0  0  0
 16 18  1  0  0  0  0
 20 21  1  0  0  0  0
 21 22  2  0  0  0  0
 21 23  1  0  0  0  0
 22 24  1  0  0  0  0
 22 40  1  0  0  0  0
 23 25  2  0  0  0  0
 23 41  1  0  0  0  0
 24 26  2  0  0  0  0
 24 42  1  0  0  0  0
 25 26  1  0  0  0  0
 25 43  1  0  0  0  0
 26 44  1  0  0  0  0
M  END
>  <Mol_ID>
6079

>  <Formula>
C18H18N2O4S2

>  <MolWeight>
390.47652

>  <Cat>
E0135

>  <Name>
CID-1067700

>  <Synonyms>
ML282

>  <Target>
Ras

>  <Form>
Free Base

>  <CAS>
314042-01-8

>  <URL>
http://www.selleckchem.com/products/cid-1067700.html

$$$$
