CID16020046 (CID 16020046).cdx
 OpenBabel08302520433D

 51 55  0  0  0  0  0  0  0  0999 V2000
    0.1014   -1.3246   -0.2279 C   0  0  0  0  0  0  0  0  0  0  0  0
    0.8802   -0.1628   -0.2396 C   0  0  0  0  0  0  0  0  0  0  0  0
    0.3044    1.0947   -0.1061 C   0  0  0  0  0  0  0  0  0  0  0  0
   -1.0761    1.2102   -0.0029 C   0  0  0  0  0  0  0  0  0  0  0  0
   -1.8674    0.0612   -0.0039 C   0  0  0  0  0  0  0  0  0  0  0  0
   -1.2927   -1.2293   -0.0700 C   0  0  0  0  0  0  0  0  0  0  0  0
   -2.1891   -2.4146    0.2280 C   0  0  3  0  0  0  0  0  0  0  0  0
   -1.6920   -3.2732    1.3510 N   0  0  0  0  0  0  0  0  0  0  0  0
   -1.5764   -4.6332    0.9848 C   0  0  0  0  0  0  0  0  0  0  0  0
   -1.9421   -4.6436   -0.3803 C   0  0  0  0  0  0  0  0  0  0  0  0
   -2.2338   -3.4054   -0.8701 C   0  0  0  0  0  0  0  0  0  0  0  0
   -2.1961   -5.5505   -1.3338 N   0  0  0  0  0  0  0  0  0  0  0  0
   -2.6147   -4.9543   -2.4722 N   0  0  0  0  0  0  0  0  0  0  0  0
   -2.6317   -3.6251   -2.2013 C   0  0  0  0  0  0  0  0  0  0  0  0
   -3.0521   -2.6676   -3.2162 C   0  0  0  0  0  0  0  0  0  0  0  0
   -4.0284   -3.0157   -4.1576 C   0  0  0  0  0  0  0  0  0  0  0  0
   -4.3691   -2.1340   -5.1867 C   0  0  0  0  0  0  0  0  0  0  0  0
   -3.7411   -0.8886   -5.2865 C   0  0  0  0  0  0  0  0  0  0  0  0
   -2.7872   -0.5275   -4.3330 C   0  0  0  0  0  0  0  0  0  0  0  0
   -2.4397   -1.4152   -3.3151 C   0  0  0  0  0  0  0  0  0  0  0  0
   -1.4085   -2.7528    2.6394 C   0  0  0  0  0  0  0  0  0  0  0  0
   -0.5524   -3.4279    3.5154 C   0  0  0  0  0  0  0  0  0  0  0  0
   -0.2234   -2.8809    4.7579 C   0  0  0  0  0  0  0  0  0  0  0  0
   -0.7550   -1.6518    5.1546 C   0  0  0  0  0  0  0  0  0  0  0  0
   -1.6084   -0.9641    4.2908 C   0  0  0  0  0  0  0  0  0  0  0  0
   -1.9362   -1.5216    3.0531 C   0  0  0  0  0  0  0  0  0  0  0  0
   -0.3373   -1.1019    6.4697 C   0  0  0  0  0  0  0  0  0  0  0  0
   -1.2554   -0.3101    7.0582 O   0  0  0  0  0  0  0  0  0  0  0  0
    0.7329   -1.3774    6.9833 O   0  0  0  0  0  0  0  0  0  0  0  0
   -1.2730   -5.6134    1.6476 O   0  0  0  0  0  0  0  0  0  0  0  0
    2.2393   -0.2126   -0.3438 O   0  0  0  0  0  0  0  0  0  0  0  0
   -4.0345    0.0383   -6.4259 C   0  0  0  0  0  0  0  0  0  0  0  0
    0.5774   -2.2995   -0.2856 H   0  0  0  0  0  0  0  0  0  0  0  0
    0.9324    1.9812   -0.0716 H   0  0  0  0  0  0  0  0  0  0  0  0
   -1.5330    2.1901    0.1116 H   0  0  0  0  0  0  0  0  0  0  0  0
   -2.9442    0.1784    0.1116 H   0  0  0  0  0  0  0  0  0  0  0  0
   -3.2131   -2.1054    0.4721 H   0  0  0  0  0  0  0  0  0  0  0  0
   -2.1763   -6.5674   -1.2813 H   0  0  0  0  0  0  0  0  0  0  0  0
   -4.5084   -3.9914   -4.1121 H   0  0  0  0  0  0  0  0  0  0  0  0
   -5.1090   -2.4413   -5.9215 H   0  0  0  0  0  0  0  0  0  0  0  0
   -2.2789    0.4322   -4.3925 H   0  0  0  0  0  0  0  0  0  0  0  0
   -1.6408   -1.1264   -2.6442 H   0  0  0  0  0  0  0  0  0  0  0  0
   -0.0808   -4.3676    3.2388 H   0  0  0  0  0  0  0  0  0  0  0  0
    0.4696   -3.4139    5.4083 H   0  0  0  0  0  0  0  0  0  0  0  0
   -2.0020    0.0178    4.5359 H   0  0  0  0  0  0  0  0  0  0  0  0
   -2.6183   -0.9565    2.4233 H   0  0  0  0  0  0  0  0  0  0  0  0
   -2.1342   -0.3007    6.6411 H   0  0  0  0  0  0  0  0  0  0  0  0
    2.5205   -1.1399   -0.4071 H   0  0  0  0  0  0  0  0  0  0  0  0
   -4.3894    1.0019   -6.0485 H   0  0  0  0  0  0  0  0  0  0  0  0
   -3.1264    0.1940   -7.0178 H   0  0  0  0  0  0  0  0  0  0  0  0
   -4.8017   -0.3732   -7.0887 H   0  0  0  0  0  0  0  0  0  0  0  0
  1  2  2  0  0  0  0
  1 33  1  0  0  0  0
  2  3  1  0  0  0  0
  2 31  1  0  0  0  0
  3  4  2  0  0  0  0
  3 34  1  0  0  0  0
  4  5  1  0  0  0  0
  4 35  1  0  0  0  0
  5  6  2  0  0  0  0
  5 36  1  0  0  0  0
  6  1  1  0  0  0  0
  6  7  1  0  0  0  0
  7  8  1  0  0  0  0
  7 37  1  0  0  0  0
  8  9  1  0  0  0  0
  8 21  1  0  0  0  0
  9 10  1  0  0  0  0
  9 30  2  0  0  0  0
 10 11  2  0  0  0  0
 10 12  1  0  0  0  0
 11  7  1  0  0  0  0
 12 13  1  0  0  0  0
 12 38  1  0  0  0  0
 13 14  2  0  0  0  0
 14 11  1  0  0  0  0
 14 15  1  0  0  0  0
 15 16  2  0  0  0  0
 16 17  1  0  0  0  0
 16 39  1  0  0  0  0
 17 18  2  0  0  0  0
 17 40  1  0  0  0  0
 18 19  1  0  0  0  0
 18 32  1  0  0  0  0
 19 20  2  0  0  0  0
 19 41  1  0  0  0  0
 20 15  1  0  0  0  0
 20 42  1  0  0  0  0
 21 22  2  0  0  0  0
 22 23  1  0  0  0  0
 22 43  1  0  0  0  0
 23 24  2  0  0  0  0
 23 44  1  0  0  0  0
 24 25  1  0  0  0  0
 24 27  1  0  0  0  0
 25 26  2  0  0  0  0
 25 45  1  0  0  0  0
 26 21  1  0  0  0  0
 26 46  1  0  0  0  0
 27 28  1  0  0  0  0
 27 29  2  0  0  0  0
 28 47  1  0  0  0  0
 31 48  1  0  0  0  0
 32 49  1  0  0  0  0
 32 50  1  0  0  0  0
 32 51  1  0  0  0  0
M  END
>  <Mol_ID>
4221

>  <Formula>
C25H19N3O4

>  <MolWeight>
425.43606

>  <Cat>
S8694

>  <Name>
CID16020046

>  <Synonyms>
C390-0219

>  <Target>
Cannabinoid Receptor

>  <Form>
free base

>  <CAS>
834903-43-4

>  <URL>
https://www.selleckchem.com/products/cid16020046.html

$$$$
