CID44216842
 OpenBabel08302521313D

 50 53  0  0  0  0  0  0  0  0999 V2000
    1.3938    0.0758    0.0247 C   0  0  0  0  0  0  0  0  0  0  0  0
    0.8188    0.7924   -1.0211 C   0  0  0  0  0  0  0  0  0  0  0  0
   -0.5747    0.8372   -1.1325 C   0  0  0  0  0  0  0  0  0  0  0  0
   -1.4209    0.1852   -0.2141 C   0  0  0  0  0  0  0  0  0  0  0  0
   -0.8017   -0.5325    0.8228 C   0  0  0  0  0  0  0  0  0  0  0  0
    0.5912   -0.5948    0.9444 C   0  0  0  0  0  0  0  0  0  0  0  0
    3.1498    0.0219    0.1866 S   0  0  0  0  0  0  0  0  0  0  0  0
    3.5008   -0.6732    1.4043 O   0  0  0  0  0  0  0  0  0  0  0  0
    3.7310   -0.3071   -1.0924 O   0  0  0  0  0  0  0  0  0  0  0  0
    3.5245    1.6336    0.4779 N   0  0  0  0  0  0  0  0  0  0  0  0
   -2.8107    0.2376   -0.3642 N   0  0  0  0  0  0  0  0  0  0  0  0
   -3.3512    0.9561   -1.3914 N   0  0  0  0  0  0  0  0  0  0  0  0
   -4.5957    1.1824   -1.1011 C   0  0  0  0  0  0  0  0  0  0  0  0
   -5.0396    0.6778    0.2435 C   0  0  0  0  0  0  0  0  0  0  0  0
   -3.7689   -0.0309    0.7155 C   0  0  3  0  0  0  0  0  0  0  0  0
   -5.5120    1.9069   -2.0141 C   0  0  0  0  0  0  0  0  0  0  0  0
   -5.0275    2.3498   -3.2574 C   0  0  0  0  0  0  0  0  0  0  0  0
   -5.8802    2.9956   -4.1538 C   0  0  0  0  0  0  0  0  0  0  0  0
   -7.2132    3.2088   -3.7957 C   0  0  0  0  0  0  0  0  0  0  0  0
   -7.6957    2.7877   -2.5564 C   0  0  0  0  0  0  0  0  0  0  0  0
   -6.8465    2.1357   -1.6629 C   0  0  0  0  0  0  0  0  0  0  0  0
   -5.5480    3.4560   -5.3980 O   0  0  0  0  0  0  0  0  0  0  0  0
   -4.2055    3.2620   -5.8265 C   0  0  0  0  0  0  0  0  0  0  0  0
   -4.0011   -1.5128    0.9766 C   0  0  0  0  0  0  0  0  0  0  0  0
   -4.3211   -1.9373    2.2792 C   0  0  0  0  0  0  0  0  0  0  0  0
   -4.4606   -3.2956    2.5755 C   0  0  0  0  0  0  0  0  0  0  0  0
   -4.2977   -4.2428    1.5681 C   0  0  0  0  0  0  0  0  0  0  0  0
   -4.0214   -3.8424    0.2630 C   0  0  0  0  0  0  0  0  0  0  0  0
   -3.8807   -2.4833   -0.0321 C   0  0  0  0  0  0  0  0  0  0  0  0
   -4.4298   -6.0825    1.9816 Br  0  0  0  0  0  0  0  0  0  0  0  0
    1.4354    1.3163   -1.7463 H   0  0  0  0  0  0  0  0  0  0  0  0
   -1.0103    1.4052   -1.9523 H   0  0  0  0  0  0  0  0  0  0  0  0
   -1.3894   -1.0824    1.5512 H   0  0  0  0  0  0  0  0  0  0  0  0
    1.0311   -1.1725    1.7542 H   0  0  0  0  0  0  0  0  0  0  0  0
    3.8183    1.7521    1.4469 H   0  0  0  0  0  0  0  0  0  0  0  0
    4.2097    1.9531   -0.2074 H   0  0  0  0  0  0  0  0  0  0  0  0
   -5.9124    0.0250    0.1588 H   0  0  0  0  0  0  0  0  0  0  0  0
   -5.2721    1.5321    0.8888 H   0  0  0  0  0  0  0  0  0  0  0  0
   -3.4204    0.4465    1.6414 H   0  0  0  0  0  0  0  0  0  0  0  0
   -3.9854    2.1724   -3.5052 H   0  0  0  0  0  0  0  0  0  0  0  0
   -7.8825    3.7072   -4.4935 H   0  0  0  0  0  0  0  0  0  0  0  0
   -8.7361    2.9606   -2.2947 H   0  0  0  0  0  0  0  0  0  0  0  0
   -7.2514    1.8109   -0.7094 H   0  0  0  0  0  0  0  0  0  0  0  0
   -3.5122    3.8480   -5.2145 H   0  0  0  0  0  0  0  0  0  0  0  0
   -3.9345    2.2012   -5.8292 H   0  0  0  0  0  0  0  0  0  0  0  0
   -4.1299    3.6236   -6.8570 H   0  0  0  0  0  0  0  0  0  0  0  0
   -4.4371   -1.2122    3.0824 H   0  0  0  0  0  0  0  0  0  0  0  0
   -4.6784   -3.6039    3.5950 H   0  0  0  0  0  0  0  0  0  0  0  0
   -3.8940   -4.5780   -0.5276 H   0  0  0  0  0  0  0  0  0  0  0  0
   -3.6417   -2.1871   -1.0534 H   0  0  0  0  0  0  0  0  0  0  0  0
  1  2  2  0  0  0  0
  1  6  1  0  0  0  0
  1  7  1  0  0  0  0
  2  3  1  0  0  0  0
  2 31  1  0  0  0  0
  3  4  2  0  0  0  0
  3 32  1  0  0  0  0
  4  5  1  0  0  0  0
  4 11  1  0  0  0  0
  5  6  2  0  0  0  0
  5 33  1  0  0  0  0
  6 34  1  0  0  0  0
  7  8  2  0  0  0  0
  7  9  2  0  0  0  0
  7 10  1  0  0  0  0
 10 35  1  0  0  0  0
 10 36  1  0  0  0  0
 11 12  1  0  0  0  0
 11 15  1  0  0  0  0
 12 13  2  0  0  0  0
 13 14  1  0  0  0  0
 13 16  1  0  0  0  0
 14 15  1  0  0  0  0
 14 37  1  0  0  0  0
 14 38  1  0  0  0  0
 15 24  1  0  0  0  0
 15 39  1  0  0  0  0
 16 17  2  0  0  0  0
 16 21  1  0  0  0  0
 17 18  1  0  0  0  0
 17 40  1  0  0  0  0
 18 19  2  0  0  0  0
 18 22  1  0  0  0  0
 19 20  1  0  0  0  0
 19 41  1  0  0  0  0
 20 21  2  0  0  0  0
 20 42  1  0  0  0  0
 21 43  1  0  0  0  0
 22 23  1  0  0  0  0
 23 44  1  0  0  0  0
 23 45  1  0  0  0  0
 23 46  1  0  0  0  0
 24 25  2  0  0  0  0
 24 29  1  0  0  0  0
 25 26  1  0  0  0  0
 25 47  1  0  0  0  0
 26 27  2  0  0  0  0
 26 48  1  0  0  0  0
 27 28  1  0  0  0  0
 27 30  1  0  0  0  0
 28 29  2  0  0  0  0
 28 49  1  0  0  0  0
 29 50  1  0  0  0  0
M  END
>  <Mol_ID>
5883

>  <Formula>
C22H20BrN3O3S

>  <MolWeight>
486.3815

>  <Cat>
S6000

>  <Name>
CID44216842

>  <Synonyms>
Cdc42-IN-1

>  <Target>
Rho

>  <Form>
Free Base

>  <CAS>
1222513-26-9

>  <URL>
http://www.selleckchem.com/products/cid44216842.html

$$$$
