CID755673.cdx
 OpenBabel08302519583D

 27 29  0  0  0  0  0  0  0  0999 V2000
    0.4412    0.4657   -0.4296 C   0  0  0  0  0  0  0  0  0  0  0  0
   -0.9782    0.5090   -0.2893 C   0  0  0  0  0  0  0  0  0  0  0  0
   -1.3818   -0.8063   -0.1073 C   0  0  0  0  0  0  0  0  0  0  0  0
   -0.3102   -1.6372   -0.1469 O   0  0  0  0  0  0  0  0  0  0  0  0
    0.8121   -0.8605   -0.2683 C   0  0  0  0  0  0  0  0  0  0  0  0
   -1.9569    1.5174   -0.2494 C   0  0  0  0  0  0  0  0  0  0  0  0
   -3.2804    1.1483    0.0083 C   0  0  0  0  0  0  0  0  0  0  0  0
   -3.6537   -0.1811    0.1980 C   0  0  0  0  0  0  0  0  0  0  0  0
   -2.6963   -1.2002    0.1228 C   0  0  0  0  0  0  0  0  0  0  0  0
    2.0873   -1.5176   -0.1072 C   0  0  0  0  0  0  0  0  0  0  0  0
    3.1455   -0.8157    0.4252 N   0  0  0  0  0  0  0  0  0  0  0  0
    3.4953    0.5867    0.3029 C   0  0  0  0  0  0  0  0  0  0  0  0
    2.4061    1.6296    0.5186 C   0  0  0  0  0  0  0  0  0  0  0  0
    1.3681    1.6111   -0.5960 C   0  0  0  0  0  0  0  0  0  0  0  0
    2.2730   -2.7163   -0.3285 O   0  0  0  0  0  0  0  0  0  0  0  0
   -4.1987    2.1559    0.0996 O   0  0  0  0  0  0  0  0  0  0  0  0
   -1.6970    2.5628   -0.3775 H   0  0  0  0  0  0  0  0  0  0  0  0
   -4.6827   -0.4487    0.4175 H   0  0  0  0  0  0  0  0  0  0  0  0
   -2.9515   -2.2426    0.2770 H   0  0  0  0  0  0  0  0  0  0  0  0
    3.9290   -1.4468    0.5424 H   0  0  0  0  0  0  0  0  0  0  0  0
    3.9532    0.7110   -0.6836 H   0  0  0  0  0  0  0  0  0  0  0  0
    4.2815    0.7548    1.0480 H   0  0  0  0  0  0  0  0  0  0  0  0
    1.9307    1.4979    1.4986 H   0  0  0  0  0  0  0  0  0  0  0  0
    2.8829    2.6175    0.5225 H   0  0  0  0  0  0  0  0  0  0  0  0
    0.8085    2.5533   -0.5790 H   0  0  0  0  0  0  0  0  0  0  0  0
    1.8530    1.5581   -1.5795 H   0  0  0  0  0  0  0  0  0  0  0  0
   -5.0613    1.7706    0.3244 H   0  0  0  0  0  0  0  0  0  0  0  0
  1  2  1  0  0  0  0
  2  3  2  0  0  0  0
  2  6  1  0  0  0  0
  3  4  1  0  0  0  0
  4  5  1  0  0  0  0
  5  1  2  0  0  0  0
  5 10  1  0  0  0  0
  6  7  2  0  0  0  0
  6 17  1  0  0  0  0
  7  8  1  0  0  0  0
  7 16  1  0  0  0  0
  8  9  2  0  0  0  0
  8 18  1  0  0  0  0
  9  3  1  0  0  0  0
  9 19  1  0  0  0  0
 10 11  1  0  0  0  0
 10 15  2  0  0  0  0
 11 12  1  0  0  0  0
 11 20  1  0  0  0  0
 12 13  1  0  0  0  0
 12 21  1  0  0  0  0
 12 22  1  0  0  0  0
 13 14  1  0  0  0  0
 13 23  1  0  0  0  0
 13 24  1  0  0  0  0
 14  1  1  0  0  0  0
 14 25  1  0  0  0  0
 14 26  1  0  0  0  0
 16 27  1  0  0  0  0
M  END
>  <Mol_ID>
2497

>  <Formula>
C12H11NO3

>  <MolWeight>
217.22064

>  <Cat>
S7188

>  <Name>
CID755673

>  <Synonyms>
N/A

>  <Target>
CaMK,PKD

>  <Form>
free base

>  <CAS>
521937-07-5

>  <URL>
http://selleckchem.com/products/cid755673.html

$$$$
