Ciforadenant?(CPI-444)
 OpenBabel08302521223D

 51 55  0  0  0  0  0  0  0  0999 V2000
    1.0385   -1.6369    6.6895 O   0  0  0  0  0  0  0  0  0  0  0  0
   -2.3119   -0.5897    5.8927 O   0  0  0  0  0  0  0  0  0  0  0  0
    0.2046    8.7401    0.0269 O   0  0  0  0  0  0  0  0  0  0  0  0
   -0.0148    4.1536    1.9008 N   0  0  0  0  0  0  0  0  0  0  0  0
   -1.6090    1.8634    3.9585 N   0  0  0  0  0  0  0  0  0  0  0  0
    0.1190    4.4015    0.5779 N   0  0  0  0  0  0  0  0  0  0  0  0
    0.1309    5.7267    0.4199 N   0  0  0  0  0  0  0  0  0  0  0  0
   -0.1668    5.4501    3.9428 N   0  0  0  0  0  0  0  0  0  0  0  0
   -0.1857    7.7914    3.5115 N   0  0  0  0  0  0  0  0  0  0  0  0
   -0.4327    6.9557    5.6605 N   0  0  0  0  0  0  0  0  0  0  0  0
   -0.8910   -0.5750    5.7815 C   0  0  1  0  0  0  0  0  0  0  0  0
   -0.1846    0.3936    6.7050 C   0  0  0  0  0  0  0  0  0  0  0  0
   -0.3000   -1.9012    6.2409 C   0  0  0  0  0  0  0  0  0  0  0  0
    1.1926   -0.2176    6.8222 C   0  0  0  0  0  0  0  0  0  0  0  0
   -2.9457    0.6676    5.6239 C   0  0  0  0  0  0  0  0  0  0  0  0
   -2.7399    1.1475    4.2062 C   0  0  0  0  0  0  0  0  0  0  0  0
    0.0377    2.8132    2.4368 C   0  0  0  0  0  0  0  0  0  0  0  0
   -1.3262    2.2203    2.6798 C   0  0  0  0  0  0  0  0  0  0  0  0
   -0.0620    5.3135    2.6128 C   0  0  0  0  0  0  0  0  0  0  0  0
   -3.6204    0.7849    3.1955 C   0  0  0  0  0  0  0  0  0  0  0  0
    0.0180    6.3108    1.6591 C   0  0  0  0  0  0  0  0  0  0  0  0
   -2.1876    1.9206    1.6291 C   0  0  0  0  0  0  0  0  0  0  0  0
   -0.0346    7.6065    2.1651 C   0  0  0  0  0  0  0  0  0  0  0  0
   -3.3471    1.1963    1.8951 C   0  0  0  0  0  0  0  0  0  0  0  0
    0.0303    8.8233    1.3809 C   0  0  0  0  0  0  0  0  0  0  0  0
   -0.2266    6.7238    4.3166 C   0  0  0  0  0  0  0  0  0  0  0  0
   -0.0523   10.1538    1.7522 C   0  0  0  0  0  0  0  0  0  0  0  0
    0.2219   10.0208   -0.4541 C   0  0  0  0  0  0  0  0  0  0  0  0
    0.0664   10.9210    0.5745 C   0  0  0  0  0  0  0  0  0  0  0  0
    0.3934   10.1927   -1.9109 C   0  0  0  0  0  0  0  0  0  0  0  0
   -0.7944    6.1095    6.0840 H   0  0  0  0  0  0  0  0  0  0  0  0
   -0.9892    7.7904    5.7779 H   0  0  0  0  0  0  0  0  0  0  0  0
   -0.5887   -0.4117    4.7401 H   0  0  0  0  0  0  0  0  0  0  0  0
   -0.1494    1.4187    6.3249 H   0  0  0  0  0  0  0  0  0  0  0  0
   -0.6825    0.4229    7.6813 H   0  0  0  0  0  0  0  0  0  0  0  0
   -0.8659   -2.3350    7.0729 H   0  0  0  0  0  0  0  0  0  0  0  0
   -0.2738   -2.6394    5.4335 H   0  0  0  0  0  0  0  0  0  0  0  0
    1.8502    0.1253    6.0161 H   0  0  0  0  0  0  0  0  0  0  0  0
    1.6683    0.0126    7.7797 H   0  0  0  0  0  0  0  0  0  0  0  0
   -4.0175    0.5348    5.8158 H   0  0  0  0  0  0  0  0  0  0  0  0
   -2.6032    1.4235    6.3395 H   0  0  0  0  0  0  0  0  0  0  0  0
    0.5970    2.8591    3.3800 H   0  0  0  0  0  0  0  0  0  0  0  0
    0.6108    2.1785    1.7532 H   0  0  0  0  0  0  0  0  0  0  0  0
   -4.4935    0.1754    3.4089 H   0  0  0  0  0  0  0  0  0  0  0  0
   -1.9488    2.2063    0.6086 H   0  0  0  0  0  0  0  0  0  0  0  0
   -4.0178    0.9213    1.0851 H   0  0  0  0  0  0  0  0  0  0  0  0
   -0.1847   10.5124    2.7639 H   0  0  0  0  0  0  0  0  0  0  0  0
    0.0421   11.9982    0.4852 H   0  0  0  0  0  0  0  0  0  0  0  0
    1.3367    9.7525   -2.2465 H   0  0  0  0  0  0  0  0  0  0  0  0
   -0.4304    9.7221   -2.4541 H   0  0  0  0  0  0  0  0  0  0  0  0
    0.4063   11.2559   -2.1742 H   0  0  0  0  0  0  0  0  0  0  0  0
  1 13  1  0  0  0  0
  1 14  1  0  0  0  0
  2 15  1  0  0  0  0
  3 25  1  0  0  0  0
  3 28  1  0  0  0  0
  4  6  1  0  0  0  0
  4 17  1  0  0  0  0
  4 19  1  0  0  0  0
  5 16  2  0  0  0  0
  5 18  1  0  0  0  0
  6  7  2  0  0  0  0
  7 21  1  0  0  0  0
  8 19  1  0  0  0  0
  8 26  2  0  0  0  0
  9 23  2  0  0  0  0
  9 26  1  0  0  0  0
 10 26  1  0  0  0  0
 10 31  1  0  0  0  0
 10 32  1  0  0  0  0
 11 12  1  0  0  0  0
 11 13  1  0  0  0  0
 11 33  1  6  0  0  0
 11  2  1  0  0  0  0
 12 14  1  0  0  0  0
 12 34  1  0  0  0  0
 12 35  1  0  0  0  0
 13 36  1  0  0  0  0
 13 37  1  0  0  0  0
 14 38  1  0  0  0  0
 14 39  1  0  0  0  0
 15 16  1  0  0  0  0
 15 40  1  0  0  0  0
 15 41  1  0  0  0  0
 16 20  1  0  0  0  0
 17 18  1  0  0  0  0
 17 42  1  0  0  0  0
 17 43  1  0  0  0  0
 18 22  2  0  0  0  0
 19 21  2  0  0  0  0
 20 24  2  0  0  0  0
 20 44  1  0  0  0  0
 21 23  1  0  0  0  0
 22 24  1  0  0  0  0
 22 45  1  0  0  0  0
 23 25  1  0  0  0  0
 24 46  1  0  0  0  0
 25 27  2  0  0  0  0
 27 29  1  0  0  0  0
 27 47  1  0  0  0  0
 28 29  2  0  0  0  0
 28 30  1  0  0  0  0
 29 48  1  0  0  0  0
 30 49  1  0  0  0  0
 30 50  1  0  0  0  0
 30 51  1  0  0  0  0
M  END
>  <Mol_ID>
4759

>  <Formula>
C20H21N7O3

>  <MolWeight>
407.42584

>  <Cat>
S6646

>  <Name>
Ciforadenant?(CPI-444)

>  <Synonyms>
V81444

>  <Target>
Adenosine Receptor

>  <Form>
Free Base

>  <CAS>
1202402-40-1

>  <URL>
http://www.selleck.cn/products/cpi-444.html

$$$$
