Cilnidipine.cdx
 OpenBabel08302522063D

 64 66  0  0  0  0  0  0  0  0999 V2000
    1.7098    0.4299    0.1727 C   0  0  0  0  0  0  0  0  0  0  0  0
    1.1195   -0.8466    0.2361 C   0  0  0  0  0  0  0  0  0  0  0  0
   -0.1473   -1.0716   -0.2939 C   0  0  0  0  0  0  0  0  0  0  0  0
   -0.8436    0.0011   -0.8627 C   0  0  0  0  0  0  0  0  0  0  0  0
   -0.2764    1.2879   -0.8892 C   0  0  0  0  0  0  0  0  0  0  0  0
    1.0294    1.5164   -0.4007 C   0  0  0  0  0  0  0  0  0  0  0  0
    1.7218    2.8683   -0.7099 C   0  0  3  0  0  0  0  0  0  0  0  0
   -2.1386   -0.2386   -1.5115 N   0  3  0  0  0  0  0  0  0  0  0  0
   -2.4845   -1.4189   -1.6987 O   0  0  0  0  0  0  0  0  0  0  0  0
   -2.8040    0.7462   -1.8577 O   0  5  0  0  0  0  0  0  0  0  0  0
    2.5323    2.7040   -2.0164 C   0  0  0  0  0  0  0  0  0  0  0  0
    3.8816    2.7998   -1.9852 C   0  0  0  0  0  0  0  0  0  0  0  0
    4.5219    3.1426   -0.8107 N   0  0  0  0  0  0  0  0  0  0  0  0
    3.9077    3.6168    0.3355 C   0  0  0  0  0  0  0  0  0  0  0  0
    2.5592    3.4919    0.4660 C   0  0  0  0  0  0  0  0  0  0  0  0
    4.8313    2.5818   -3.1365 C   0  0  0  0  0  0  0  0  0  0  0  0
    4.8973    4.2798    1.2748 C   0  0  0  0  0  0  0  0  0  0  0  0
    1.7313    4.0278    1.5990 C   0  0  0  0  0  0  0  0  0  0  0  0
    2.4485    4.7166    2.5262 O   0  0  0  0  0  0  0  0  0  0  0  0
    1.7523    5.2409    3.6823 C   0  0  0  0  0  0  0  0  0  0  0  0
    1.6587    6.7697    3.6279 C   0  0  0  0  0  0  0  0  0  0  0  0
    0.5232    3.8484    1.6588 O   0  0  0  0  0  0  0  0  0  0  0  0
    0.9636    7.2550    2.4789 O   0  0  0  0  0  0  0  0  0  0  0  0
   -0.4397    7.0356    2.5348 C   0  0  0  0  0  0  0  0  0  0  0  0
    1.8421    2.2775   -3.2719 C   0  0  0  0  0  0  0  0  0  0  0  0
    0.7553    3.0441   -3.5639 O   0  0  0  0  0  0  0  0  0  0  0  0
    2.2280    1.3316   -3.9441 O   0  0  0  0  0  0  0  0  0  0  0  0
   -0.0694    2.5817   -4.6712 C   0  0  0  0  0  0  0  0  0  0  0  0
   -0.0469    3.4679   -5.9067 C   0  0  0  0  0  0  0  0  0  0  0  0
    0.7798    4.5161   -6.1156 C   0  0  0  0  0  0  0  0  0  0  0  0
    0.8759    5.4688   -7.2446 C   0  0  0  0  0  0  0  0  0  0  0  0
    1.4912    6.7000   -6.9574 C   0  0  0  0  0  0  0  0  0  0  0  0
    1.7328    7.6603   -7.9440 C   0  0  0  0  0  0  0  0  0  0  0  0
    1.3628    7.4102   -9.2594 C   0  0  0  0  0  0  0  0  0  0  0  0
    0.7380    6.2023   -9.5722 C   0  0  0  0  0  0  0  0  0  0  0  0
    0.4932    5.2365   -8.5741 C   0  0  0  0  0  0  0  0  0  0  0  0
    2.7293    0.5459    0.5385 H   0  0  0  0  0  0  0  0  0  0  0  0
    1.6729   -1.6796    0.6630 H   0  0  0  0  0  0  0  0  0  0  0  0
   -0.5683   -2.0764   -0.2821 H   0  0  0  0  0  0  0  0  0  0  0  0
   -0.8271    2.1113   -1.3423 H   0  0  0  0  0  0  0  0  0  0  0  0
    0.9348    3.6087   -0.9194 H   0  0  0  0  0  0  0  0  0  0  0  0
    5.5325    3.2526   -0.8681 H   0  0  0  0  0  0  0  0  0  0  0  0
    5.4504    3.4769   -3.2704 H   0  0  0  0  0  0  0  0  0  0  0  0
    5.5018    1.7457   -2.9049 H   0  0  0  0  0  0  0  0  0  0  0  0
    4.3542    2.3797   -4.0945 H   0  0  0  0  0  0  0  0  0  0  0  0
    5.8738    3.7793    1.2176 H   0  0  0  0  0  0  0  0  0  0  0  0
    5.0584    5.3178    0.9583 H   0  0  0  0  0  0  0  0  0  0  0  0
    4.6306    4.2598    2.3298 H   0  0  0  0  0  0  0  0  0  0  0  0
    0.7646    4.7854    3.8038 H   0  0  0  0  0  0  0  0  0  0  0  0
    2.3388    4.9630    4.5658 H   0  0  0  0  0  0  0  0  0  0  0  0
    1.1906    7.1658    4.5384 H   0  0  0  0  0  0  0  0  0  0  0  0
    2.6688    7.1916    3.5775 H   0  0  0  0  0  0  0  0  0  0  0  0
   -0.6727    5.9697    2.5071 H   0  0  0  0  0  0  0  0  0  0  0  0
   -0.8695    7.4879    3.4337 H   0  0  0  0  0  0  0  0  0  0  0  0
   -0.8915    7.5053    1.6574 H   0  0  0  0  0  0  0  0  0  0  0  0
    0.1665    1.5516   -4.9587 H   0  0  0  0  0  0  0  0  0  0  0  0
   -1.0966    2.5609   -4.2918 H   0  0  0  0  0  0  0  0  0  0  0  0
   -0.7858    3.2132   -6.6619 H   0  0  0  0  0  0  0  0  0  0  0  0
    1.4995    4.7214   -5.3218 H   0  0  0  0  0  0  0  0  0  0  0  0
    1.8013    6.9276   -5.9384 H   0  0  0  0  0  0  0  0  0  0  0  0
    2.2194    8.5960   -7.6816 H   0  0  0  0  0  0  0  0  0  0  0  0
    1.5654    8.1496  -10.0313 H   0  0  0  0  0  0  0  0  0  0  0  0
    0.4547    6.0122  -10.6065 H   0  0  0  0  0  0  0  0  0  0  0  0
    0.0216    4.3032   -8.8709 H   0  0  0  0  0  0  0  0  0  0  0  0
  1  2  2  0  0  0  0
  1 37  1  0  0  0  0
  2  3  1  0  0  0  0
  2 38  1  0  0  0  0
  3  4  2  0  0  0  0
  3 39  1  0  0  0  0
  4  5  1  0  0  0  0
  4  8  1  0  0  0  0
  5  6  2  0  0  0  0
  5 40  1  0  0  0  0
  6  1  1  0  0  0  0
  6  7  1  0  0  0  0
  7 11  1  0  0  0  0
  7 41  1  0  0  0  0
  8  9  2  0  0  0  0
  8 10  1  0  0  0  0
 11 12  2  0  0  0  0
 11 25  1  0  0  0  0
 12 13  1  0  0  0  0
 12 16  1  0  0  0  0
 13 14  1  0  0  0  0
 13 42  1  0  0  0  0
 14 15  2  0  0  0  0
 14 17  1  0  0  0  0
 15  7  1  0  0  0  0
 15 18  1  0  0  0  0
 16 43  1  0  0  0  0
 16 44  1  0  0  0  0
 16 45  1  0  0  0  0
 17 46  1  0  0  0  0
 17 47  1  0  0  0  0
 17 48  1  0  0  0  0
 18 19  1  0  0  0  0
 18 22  2  0  0  0  0
 19 20  1  0  0  0  0
 20 21  1  0  0  0  0
 20 49  1  0  0  0  0
 20 50  1  0  0  0  0
 21 23  1  0  0  0  0
 21 51  1  0  0  0  0
 21 52  1  0  0  0  0
 23 24  1  0  0  0  0
 24 53  1  0  0  0  0
 24 54  1  0  0  0  0
 24 55  1  0  0  0  0
 25 26  1  0  0  0  0
 25 27  2  0  0  0  0
 26 28  1  0  0  0  0
 28 29  1  0  0  0  0
 28 56  1  0  0  0  0
 28 57  1  0  0  0  0
 29 30  2  0  0  0  0
 29 58  1  0  0  0  0
 30 31  1  0  0  0  0
 30 59  1  0  0  0  0
 31 32  2  0  0  0  0
 32 33  1  0  0  0  0
 32 60  1  0  0  0  0
 33 34  2  0  0  0  0
 33 61  1  0  0  0  0
 34 35  1  0  0  0  0
 34 62  1  0  0  0  0
 35 36  2  0  0  0  0
 35 63  1  0  0  0  0
 36 31  1  0  0  0  0
 36 64  1  0  0  0  0
M  CHG  2   8   1  10  -1
M  END
>  <Mol_ID>
161

>  <Formula>
C27H28N2O7

>  <MolWeight>
492.52042

>  <Cat>
S1293

>  <Name>
Cilnidipine (FRC-8653)

>  <Synonyms>
FRC-8653

>  <Target>
Calcium Channel

>  <Form>
free base

>  <CAS>
132203-70-4

>  <URL>
http://selleckchem.com/products/Cilnidipine.html

$$$$
