Cinchonidine.cdx
 OpenBabel08302521363D

 44 47  0  0  0  0  0  0  0  0999 V2000
   -2.7133   -5.8816   -0.3006 C   0  0  0  0  0  0  0  0  0  0  0  0
   -2.6761   -5.1026    0.8863 C   0  0  0  0  0  0  0  0  0  0  0  0
   -3.2902   -5.6519    2.0424 C   0  0  0  0  0  0  0  0  0  0  0  0
   -3.8807   -6.9087    1.9825 C   0  0  0  0  0  0  0  0  0  0  0  0
   -3.8991   -7.6597    0.8136 C   0  0  0  0  0  0  0  0  0  0  0  0
   -3.3173   -7.1472   -0.3324 C   0  0  0  0  0  0  0  0  0  0  0  0
   -2.0774   -3.8078    1.0179 C   0  0  0  0  0  0  0  0  0  0  0  0
   -2.1525   -3.1694    2.2654 C   0  0  0  0  0  0  0  0  0  0  0  0
   -2.7780   -3.8055    3.3176 C   0  0  0  0  0  0  0  0  0  0  0  0
   -3.3356   -5.0244    3.2263 N   0  0  0  0  0  0  0  0  0  0  0  0
   -1.3542   -3.0897   -0.1211 C   0  0  2  0  0  0  0  0  0  0  0  0
    0.1907   -3.3509   -0.1808 C   0  0  1  0  0  0  0  0  0  0  0  0
    0.8661   -2.7863   -1.4077 N   0  0  3  0  0  0  0  0  0  0  0  0
    1.1883   -1.3417   -1.2913 C   0  0  0  0  0  0  0  0  0  0  0  0
    0.9803   -2.9600    1.0930 C   0  0  0  0  0  0  0  0  0  0  0  0
    1.9663   -1.0127   -0.0153 C   0  0  0  0  0  0  0  0  0  0  0  0
    2.3286   -2.3217    0.7034 C   0  0  3  0  0  0  0  0  0  0  0  0
    2.1795   -3.4968   -1.5235 C   0  0  0  0  0  0  0  0  0  0  0  0
    3.0983   -3.2328   -0.2905 C   0  0  2  0  0  0  0  0  0  0  0  0
    3.5751   -4.5028    0.3863 C   0  0  0  0  0  0  0  0  0  0  0  0
    4.8504   -4.8872    0.5047 C   0  0  0  0  0  0  0  0  0  0  0  0
   -1.6273   -1.6874   -0.0468 O   0  0  0  0  0  0  0  0  0  0  0  0
   -2.2807   -5.5165   -1.2281 H   0  0  0  0  0  0  0  0  0  0  0  0
   -4.3424   -7.3028    2.8827 H   0  0  0  0  0  0  0  0  0  0  0  0
   -4.3701   -8.6443    0.8054 H   0  0  0  0  0  0  0  0  0  0  0  0
   -3.3332   -7.7251   -1.2530 H   0  0  0  0  0  0  0  0  0  0  0  0
   -1.7292   -2.1822    2.4212 H   0  0  0  0  0  0  0  0  0  0  0  0
   -2.8460   -3.3373    4.2946 H   0  0  0  0  0  0  0  0  0  0  0  0
   -1.7996   -3.4151   -1.0662 H   0  0  0  0  0  0  0  0  0  0  0  0
    0.2622   -4.4436   -0.2686 H   0  0  0  0  0  0  0  0  0  0  0  0
    0.3043   -0.7047   -1.3655 H   0  0  0  0  0  0  0  0  0  0  0  0
    1.7853   -1.0415   -2.1635 H   0  0  0  0  0  0  0  0  0  0  0  0
    0.4316   -2.2535    1.7230 H   0  0  0  0  0  0  0  0  0  0  0  0
    1.1502   -3.8545    1.7038 H   0  0  0  0  0  0  0  0  0  0  0  0
    1.3505   -0.3836    0.6406 H   0  0  0  0  0  0  0  0  0  0  0  0
    2.8680   -0.4394   -0.2573 H   0  0  0  0  0  0  0  0  0  0  0  0
    2.9272   -2.1070    1.5959 H   0  0  0  0  0  0  0  0  0  0  0  0
    2.0025   -4.5633   -1.6952 H   0  0  0  0  0  0  0  0  0  0  0  0
    2.6855   -3.1431   -2.4332 H   0  0  0  0  0  0  0  0  0  0  0  0
    3.9778   -2.6755   -0.6434 H   0  0  0  0  0  0  0  0  0  0  0  0
    2.8163   -5.1377    0.8422 H   0  0  0  0  0  0  0  0  0  0  0  0
    5.1003   -5.8037    1.0393 H   0  0  0  0  0  0  0  0  0  0  0  0
    5.6797   -4.3174    0.0970 H   0  0  0  0  0  0  0  0  0  0  0  0
   -1.4191   -1.3528   -0.9373 H   0  0  0  0  0  0  0  0  0  0  0  0
  1  2  2  0  0  0  0
  1 23  1  0  0  0  0
  2  3  1  0  0  0  0
  2  7  1  0  0  0  0
  3  4  2  0  0  0  0
  4  5  1  0  0  0  0
  4 24  1  0  0  0  0
  5  6  2  0  0  0  0
  5 25  1  0  0  0  0
  6  1  1  0  0  0  0
  6 26  1  0  0  0  0
  7  8  2  0  0  0  0
  8  9  1  0  0  0  0
  8 27  1  0  0  0  0
  9 10  2  0  0  0  0
  9 28  1  0  0  0  0
 10  3  1  0  0  0  0
 11 29  1  6  0  0  0
 11 22  1  0  0  0  0
 11  7  1  0  0  0  0
 12 11  1  0  0  0  0
 12 13  1  0  0  0  0
 12 15  1  0  0  0  0
 12 30  1  6  0  0  0
 13 14  1  0  0  0  0
 13 18  1  0  0  0  0
 14 16  1  0  0  0  0
 14 31  1  0  0  0  0
 14 32  1  0  0  0  0
 15 17  1  0  0  0  0
 15 33  1  0  0  0  0
 15 34  1  0  0  0  0
 16 35  1  0  0  0  0
 16 36  1  0  0  0  0
 17 16  1  0  0  0  0
 17 19  1  0  0  0  0
 17 37  1  0  0  0  0
 18 38  1  0  0  0  0
 18 39  1  0  0  0  0
 19 18  1  0  0  0  0
 19 40  1  6  0  0  0
 19 20  1  0  0  0  0
 20 21  2  0  0  0  0
 20 41  1  0  0  0  0
 21 42  1  0  0  0  0
 21 43  1  0  0  0  0
 22 44  1  0  0  0  0
M  END
>  <Mol_ID>
673

>  <Formula>
C19H22N2O

>  <MolWeight>
294.39078

>  <Cat>
S2282

>  <Name>
Cinchonidine

>  <Synonyms>
N/A

>  <Target>
Anti-infection,Serotonin Transporter

>  <Form>
free base

>  <CAS>
485-71-2

>  <URL>
http://selleckchem.com/products/Cinchonidine.html

$$$$
