Cinchophen.cdx
 OpenBabel08302522043D

 30 32  0  0  0  0  0  0  0  0999 V2000
   -1.1825    1.2743    0.0031 N   0  0  0  0  0  0  0  0  0  0  0  0
   -2.3427    0.5800    0.0230 C   0  0  0  0  0  0  0  0  0  0  0  0
   -2.3512   -0.7997    0.0234 C   0  0  0  0  0  0  0  0  0  0  0  0
   -1.1460   -1.5065    0.0239 C   0  0  0  0  0  0  0  0  0  0  0  0
    0.0853   -0.7974    0.0184 C   0  0  0  0  0  0  0  0  0  0  0  0
    1.3835   -1.3739    0.0218 C   0  0  0  0  0  0  0  0  0  0  0  0
    2.5356   -0.5844    0.0099 C   0  0  0  0  0  0  0  0  0  0  0  0
    2.4161    0.7946   -0.0075 C   0  0  0  0  0  0  0  0  0  0  0  0
    1.1477    1.3745   -0.0108 C   0  0  0  0  0  0  0  0  0  0  0  0
   -0.0138    0.6111    0.0048 C   0  0  0  0  0  0  0  0  0  0  0  0
   -1.2252   -2.9994    0.0152 C   0  0  0  0  0  0  0  0  0  0  0  0
   -0.3117   -3.7976   -0.0075 O   0  0  0  0  0  0  0  0  0  0  0  0
   -2.5020   -3.4442    0.0348 O   0  0  0  0  0  0  0  0  0  0  0  0
   -3.5948    1.3607   -0.0032 C   0  0  0  0  0  0  0  0  0  0  0  0
   -3.6615    2.6063   -0.6525 C   0  0  0  0  0  0  0  0  0  0  0  0
   -4.8665    3.3028   -0.7600 C   0  0  0  0  0  0  0  0  0  0  0  0
   -6.0336    2.7764   -0.2099 C   0  0  0  0  0  0  0  0  0  0  0  0
   -5.9905    1.5639    0.4666 C   0  0  0  0  0  0  0  0  0  0  0  0
   -4.7812    0.8719    0.5769 C   0  0  0  0  0  0  0  0  0  0  0  0
   -3.2976   -1.3292   -0.0042 H   0  0  0  0  0  0  0  0  0  0  0  0
    1.5224   -2.4515    0.0344 H   0  0  0  0  0  0  0  0  0  0  0  0
    3.5162   -1.0519    0.0140 H   0  0  0  0  0  0  0  0  0  0  0  0
    3.3021    1.4238   -0.0179 H   0  0  0  0  0  0  0  0  0  0  0  0
    1.0611    2.4582   -0.0239 H   0  0  0  0  0  0  0  0  0  0  0  0
   -2.4153   -4.4203    0.0137 H   0  0  0  0  0  0  0  0  0  0  0  0
   -2.7627    3.0312   -1.1024 H   0  0  0  0  0  0  0  0  0  0  0  0
   -4.8953    4.2570   -1.2836 H   0  0  0  0  0  0  0  0  0  0  0  0
   -6.9730    3.3113   -0.3077 H   0  0  0  0  0  0  0  0  0  0  0  0
   -6.8923    1.1490    0.9070 H   0  0  0  0  0  0  0  0  0  0  0  0
   -4.7850   -0.0672    1.1263 H   0  0  0  0  0  0  0  0  0  0  0  0
  1  2  2  0  0  0  0
  1 10  1  0  0  0  0
  2  3  1  0  0  0  0
  2 14  1  0  0  0  0
  3  4  2  0  0  0  0
  3 20  1  0  0  0  0
  4  5  1  0  0  0  0
  4 11  1  0  0  0  0
  5  6  1  0  0  0  0
  5 10  2  0  0  0  0
  6  7  2  0  0  0  0
  6 21  1  0  0  0  0
  7  8  1  0  0  0  0
  7 22  1  0  0  0  0
  8  9  2  0  0  0  0
  8 23  1  0  0  0  0
  9 10  1  0  0  0  0
  9 24  1  0  0  0  0
 11 12  2  0  0  0  0
 11 13  1  0  0  0  0
 13 25  1  0  0  0  0
 14 15  2  0  0  0  0
 14 19  1  0  0  0  0
 15 16  1  0  0  0  0
 15 26  1  0  0  0  0
 16 17  2  0  0  0  0
 16 27  1  0  0  0  0
 17 18  1  0  0  0  0
 17 28  1  0  0  0  0
 18 19  2  0  0  0  0
 18 29  1  0  0  0  0
 19 30  1  0  0  0  0
M  END
>  <Mol_ID>
1275

>  <Formula>
C16H11NO2

>  <MolWeight>
249.26404

>  <Cat>
S4190

>  <Name>
Cinchophen

>  <Synonyms>
Cinconal

>  <Target>
Others

>  <Form>
free base

>  <CAS>
132-60-5

>  <URL>
http://selleckchem.com/products/cinchophen.html

$$$$
