Cinnamyl alcohol
 OpenBabel08302520383D

 20 20  0  0  0  0  0  0  0  0999 V2000
    1.3858   -0.1678    0.0482 C   0  0  0  0  0  0  0  0  0  0  0  0
    0.5206   -1.2715    0.0328 C   0  0  0  0  0  0  0  0  0  0  0  0
    0.8287    1.1177    0.0290 C   0  0  0  0  0  0  0  0  0  0  0  0
    2.8332   -0.4068    0.1700 C   0  0  0  0  0  0  0  0  0  0  0  0
   -0.8657   -1.0954   -0.0126 C   0  0  0  0  0  0  0  0  0  0  0  0
   -0.5587    1.2942   -0.0130 C   0  0  0  0  0  0  0  0  0  0  0  0
    3.7964    0.3844   -0.3317 C   0  0  0  0  0  0  0  0  0  0  0  0
   -1.4057    0.1892   -0.0328 C   0  0  0  0  0  0  0  0  0  0  0  0
    5.2581    0.1270   -0.1623 C   0  0  0  0  0  0  0  0  0  0  0  0
    5.8440   -0.0266   -1.4438 O   0  0  0  0  0  0  0  0  0  0  0  0
    0.9184   -2.2836    0.0550 H   0  0  0  0  0  0  0  0  0  0  0  0
    1.4636    1.9992    0.0653 H   0  0  0  0  0  0  0  0  0  0  0  0
    3.1092   -1.3072    0.7159 H   0  0  0  0  0  0  0  0  0  0  0  0
   -1.5221   -1.9615   -0.0255 H   0  0  0  0  0  0  0  0  0  0  0  0
   -0.9772    2.2972   -0.0203 H   0  0  0  0  0  0  0  0  0  0  0  0
    3.5440    1.2786   -0.8960 H   0  0  0  0  0  0  0  0  0  0  0  0
   -2.4829    0.3262   -0.0561 H   0  0  0  0  0  0  0  0  0  0  0  0
    5.7343    0.9775    0.3346 H   0  0  0  0  0  0  0  0  0  0  0  0
    5.4644   -0.7722    0.4270 H   0  0  0  0  0  0  0  0  0  0  0  0
    5.3482   -0.7298   -1.8973 H   0  0  0  0  0  0  0  0  0  0  0  0
  1  2  2  0  0  0  0
  1  3  1  0  0  0  0
  1  4  1  0  0  0  0
  2  5  1  0  0  0  0
  2 11  1  0  0  0  0
  3  6  2  0  0  0  0
  3 12  1  0  0  0  0
  4  7  2  0  0  0  0
  4 13  1  0  0  0  0
  5  8  2  0  0  0  0
  5 14  1  0  0  0  0
  6  8  1  0  0  0  0
  6 15  1  0  0  0  0
  7  9  1  0  0  0  0
  7 16  1  0  0  0  0
  8 17  1  0  0  0  0
  9 10  1  0  0  0  0
  9 18  1  0  0  0  0
  9 19  1  0  0  0  0
 10 20  1  0  0  0  0
M  END
>  <Mol_ID>
3448

>  <Formula>
C9H10O

>  <MolWeight>
134.1751

>  <Cat>
S5824

>  <Name>
Cinnamyl alcohol

>  <Synonyms>
N/A

>  <Target>
PPAR

>  <Form>
Free Base

>  <CAS>
104-54-1

>  <URL>
http://www.selleckchem.com/products/cinnamyl-alcohol.html

$$$$
