cinoxacin.cdx
 OpenBabel08302519573D

 29 31  0  0  0  0  0  0  0  0999 V2000
    2.2813    0.6601   -0.0250 N   0  0  0  0  0  0  0  0  0  0  0  0
    2.2589   -0.6413   -0.0515 C   0  0  0  0  0  0  0  0  0  0  0  0
    0.9616   -1.3800   -0.1657 C   0  0  0  0  0  0  0  0  0  0  0  0
   -0.2796   -0.6085   -0.0959 C   0  0  0  0  0  0  0  0  0  0  0  0
   -0.1464    0.7955   -0.0028 C   0  0  0  0  0  0  0  0  0  0  0  0
    1.1219    1.3808   -0.0835 N   0  0  0  0  0  0  0  0  0  0  0  0
   -1.5215   -1.2623   -0.0840 C   0  0  0  0  0  0  0  0  0  0  0  0
   -2.6350   -0.4767    0.0881 C   0  0  0  0  0  0  0  0  0  0  0  0
   -2.5360    0.8871    0.2201 C   0  0  0  0  0  0  0  0  0  0  0  0
   -1.3223    1.5409    0.1649 C   0  0  0  0  0  0  0  0  0  0  0  0
   -3.9214   -0.9077    0.1821 O   0  0  0  0  0  0  0  0  0  0  0  0
   -4.5860    0.3174    0.5613 C   0  0  0  0  0  0  0  0  0  0  0  0
   -3.7428    1.4787    0.4267 O   0  0  0  0  0  0  0  0  0  0  0  0
    1.3060    2.8401   -0.0898 C   0  0  0  0  0  0  0  0  0  0  0  0
    1.4558    3.3771    1.3256 C   0  0  0  0  0  0  0  0  0  0  0  0
    3.6047   -1.3717    0.0522 C   0  0  0  0  0  0  0  0  0  0  0  0
    3.5275   -2.7151    0.0296 O   0  0  0  0  0  0  0  0  0  0  0  0
    4.6616   -0.7743    0.1649 O   0  0  0  0  0  0  0  0  0  0  0  0
    0.9958   -2.6028   -0.2658 O   0  0  0  0  0  0  0  0  0  0  0  0
   -1.6054   -2.3403   -0.1746 H   0  0  0  0  0  0  0  0  0  0  0  0
   -1.3205    2.6188    0.2844 H   0  0  0  0  0  0  0  0  0  0  0  0
   -4.8914    0.2336    1.6118 H   0  0  0  0  0  0  0  0  0  0  0  0
   -5.4796    0.4528   -0.0566 H   0  0  0  0  0  0  0  0  0  0  0  0
    2.2096    3.0866   -0.6637 H   0  0  0  0  0  0  0  0  0  0  0  0
    0.4904    3.3501   -0.6119 H   0  0  0  0  0  0  0  0  0  0  0  0
    2.3056    2.9096    1.8351 H   0  0  0  0  0  0  0  0  0  0  0  0
    1.6252    4.4576    1.3024 H   0  0  0  0  0  0  0  0  0  0  0  0
    0.5616    3.1855    1.9249 H   0  0  0  0  0  0  0  0  0  0  0  0
    2.6119   -3.0700   -0.0824 H   0  0  0  0  0  0  0  0  0  0  0  0
  1  2  2  0  0  0  0
  2  3  1  0  0  0  0
  2 16  1  0  0  0  0
  3  4  1  0  0  0  0
  3 19  2  0  0  0  0
  4  5  2  0  0  0  0
  4  7  1  0  0  0  0
  5  6  1  0  0  0  0
  6  1  1  0  0  0  0
  6 14  1  0  0  0  0
  7  8  2  0  0  0  0
  7 20  1  0  0  0  0
  8  9  1  0  0  0  0
  8 11  1  0  0  0  0
  9 10  2  0  0  0  0
 10  5  1  0  0  0  0
 10 21  1  0  0  0  0
 11 12  1  0  0  0  0
 12 13  1  0  0  0  0
 12 22  1  0  0  0  0
 12 23  1  0  0  0  0
 13  9  1  0  0  0  0
 14 15  1  0  0  0  0
 14 24  1  0  0  0  0
 14 25  1  0  0  0  0
 15 26  1  0  0  0  0
 15 27  1  0  0  0  0
 15 28  1  0  0  0  0
 16 17  1  0  0  0  0
 16 18  2  0  0  0  0
 17 29  1  0  0  0  0
M  END
>  <Mol_ID>
2284

>  <Formula>
C12H10N2O5

>  <MolWeight>
262.2182

>  <Cat>
S4361

>  <Name>
Cinoxacin

>  <Synonyms>
N/A

>  <Target>
Bacterial

>  <Form>
Free Base

>  <CAS>
28657-80-9

>  <URL>
http://selleckchem.com/products/cinoxacin.html

$$$$
