Cinobufagin
 OpenBabel08302521253D

 66 71  0  0  0  0  0  0  0  0999 V2000
    0.9203    2.6528    2.5452 O   0  0  0  0  0  0  0  0  0  0  0  0
    2.4214    0.5254    0.5823 O   0  0  0  0  0  0  0  0  0  0  0  0
   -6.2678    1.8816   -1.3032 O   0  0  0  0  0  0  0  0  0  0  0  0
    6.0315    3.2548    1.1968 O   0  0  0  0  0  0  0  0  0  0  0  0
    0.7012   -0.8329   -0.1238 O   0  0  0  0  0  0  0  0  0  0  0  0
    7.9424    2.7252    0.0811 O   0  0  0  0  0  0  0  0  0  0  0  0
    0.4440    3.4169    1.4388 C   0  0  1  0  0  0  0  0  0  0  0  0
    1.5236    4.1485    0.6703 C   0  0  1  0  0  0  0  0  0  0  0  0
    0.6082    1.9271    1.3560 C   0  0  1  0  0  0  0  0  0  0  0  0
   -0.9518    3.9513    1.3147 C   0  0  1  0  0  0  0  0  0  0  0  0
   -1.3325    3.7009   -0.1830 C   0  0  1  0  0  0  0  0  0  0  0  0
    2.3766    2.9867    0.0131 C   0  0  2  0  0  0  0  0  0  0  0  0
    1.6006    1.6556    0.2839 C   0  0  1  0  0  0  0  0  0  0  0  0
   -2.7948    4.0682   -0.5608 C   0  0  2  0  0  0  0  0  0  0  0  0
    0.8778    5.0070   -0.4520 C   0  0  0  0  0  0  0  0  0  0  0  0
   -0.2587    4.2725   -1.1648 C   0  0  0  0  0  0  0  0  0  0  0  0
   -1.9401    3.3892    2.3403 C   0  0  0  0  0  0  0  0  0  0  0  0
   -3.7534    3.8464    0.6549 C   0  0  2  0  0  0  0  0  0  0  0  0
    2.2110    5.1259    1.6370 C   0  0  0  0  0  0  0  0  0  0  0  0
   -3.2093    2.8596    1.7000 C   0  0  0  0  0  0  0  0  0  0  0  0
   -3.2107    3.1886   -1.7931 C   0  0  0  0  0  0  0  0  0  0  0  0
    3.8809    2.9125    0.1344 C   0  0  0  0  0  0  0  0  0  0  0  0
   -5.1337    3.4103    0.1602 C   0  0  0  0  0  0  0  0  0  0  0  0
   -2.9018    5.5564   -0.9848 C   0  0  0  0  0  0  0  0  0  0  0  0
   -3.8484    1.8518   -1.4049 C   0  0  0  0  0  0  0  0  0  0  0  0
   -5.0873    2.0427   -0.5228 C   0  0  2  0  0  0  0  0  0  0  0  0
    4.5866    2.4140   -1.0273 C   0  0  0  0  0  0  0  0  0  0  0  0
    4.6288    3.2873    1.1775 C   0  0  0  0  0  0  0  0  0  0  0  0
    1.8463   -0.6742    0.2805 C   0  0  0  0  0  0  0  0  0  0  0  0
    5.9195    2.3464   -1.0492 C   0  0  0  0  0  0  0  0  0  0  0  0
    2.8175   -1.7913    0.4943 C   0  0  0  0  0  0  0  0  0  0  0  0
    6.7143    2.7796    0.1128 C   0  0  0  0  0  0  0  0  0  0  0  0
   -6.2417    2.5378   -2.0199 H   0  0  0  0  0  0  0  0  0  0  0  0
   -0.2318    1.2484    1.3790 H   0  0  0  0  0  0  0  0  0  0  0  0
   -0.9247    5.0347    1.4909 H   0  0  0  0  0  0  0  0  0  0  0  0
   -1.2670    2.6108   -0.3184 H   0  0  0  0  0  0  0  0  0  0  0  0
    2.2393    3.1412   -1.0692 H   0  0  0  0  0  0  0  0  0  0  0  0
    1.0368    1.4477   -0.6383 H   0  0  0  0  0  0  0  0  0  0  0  0
    1.6406    5.3233   -1.1746 H   0  0  0  0  0  0  0  0  0  0  0  0
    0.4664    5.9382   -0.0388 H   0  0  0  0  0  0  0  0  0  0  0  0
    0.1488    3.4435   -1.7559 H   0  0  0  0  0  0  0  0  0  0  0  0
   -0.6754    4.9494   -1.9127 H   0  0  0  0  0  0  0  0  0  0  0  0
   -1.5094    2.6047    2.9715 H   0  0  0  0  0  0  0  0  0  0  0  0
   -2.2066    4.1950    3.0378 H   0  0  0  0  0  0  0  0  0  0  0  0
   -3.8794    4.8059    1.1772 H   0  0  0  0  0  0  0  0  0  0  0  0
    1.5009    5.8907    1.9795 H   0  0  0  0  0  0  0  0  0  0  0  0
    3.0500    5.6479    1.1699 H   0  0  0  0  0  0  0  0  0  0  0  0
    2.5427    4.6347    2.5565 H   0  0  0  0  0  0  0  0  0  0  0  0
   -3.9575    2.6889    2.4832 H   0  0  0  0  0  0  0  0  0  0  0  0
   -2.9936    1.8801    1.2616 H   0  0  0  0  0  0  0  0  0  0  0  0
   -2.3397    2.9850   -2.4304 H   0  0  0  0  0  0  0  0  0  0  0  0
   -3.9186    3.7333   -2.4295 H   0  0  0  0  0  0  0  0  0  0  0  0
   -5.5298    4.1642   -0.5335 H   0  0  0  0  0  0  0  0  0  0  0  0
   -5.8502    3.3859    0.9896 H   0  0  0  0  0  0  0  0  0  0  0  0
   -3.9295    5.9252   -0.9075 H   0  0  0  0  0  0  0  0  0  0  0  0
   -2.6035    5.7089   -2.0284 H   0  0  0  0  0  0  0  0  0  0  0  0
   -2.2732    6.1961   -0.3559 H   0  0  0  0  0  0  0  0  0  0  0  0
   -4.1025    1.2903   -2.3114 H   0  0  0  0  0  0  0  0  0  0  0  0
   -3.1060    1.2464   -0.8709 H   0  0  0  0  0  0  0  0  0  0  0  0
   -5.1077    1.2510    0.2348 H   0  0  0  0  0  0  0  0  0  0  0  0
    4.0242    2.0799   -1.8981 H   0  0  0  0  0  0  0  0  0  0  0  0
    4.2846    3.6647    2.1256 H   0  0  0  0  0  0  0  0  0  0  0  0
    6.4714    1.9810   -1.9007 H   0  0  0  0  0  0  0  0  0  0  0  0
    2.9692   -1.9525    1.5632 H   0  0  0  0  0  0  0  0  0  0  0  0
    2.4179   -2.7059    0.0445 H   0  0  0  0  0  0  0  0  0  0  0  0
    3.7623   -1.5578   -0.0034 H   0  0  0  0  0  0  0  0  0  0  0  0
  2 29  1  0  0  0  0
  3 33  1  0  0  0  0
  4 28  1  0  0  0  0
  4 32  1  0  0  0  0
  5 29  2  0  0  0  0
  6 32  2  0  0  0  0
  7  1  1  1  0  0  0
  7  8  1  0  0  0  0
  7  9  1  0  0  0  0
  7 10  1  0  0  0  0
  8 12  1  0  0  0  0
  8 15  1  0  0  0  0
  8 19  1  1  0  0  0
  9  1  1  0  0  0  0
  9 13  1  0  0  0  0
  9 34  1  1  0  0  0
 10 11  1  0  0  0  0
 10 17  1  0  0  0  0
 10 35  1  1  0  0  0
 11 14  1  0  0  0  0
 11 16  1  0  0  0  0
 11 36  1  6  0  0  0
 12 13  1  0  0  0  0
 12 22  1  0  0  0  0
 12 37  1  6  0  0  0
 13  2  1  0  0  0  0
 13 38  1  6  0  0  0
 14 18  1  0  0  0  0
 14 21  1  0  0  0  0
 14 24  1  6  0  0  0
 15 16  1  0  0  0  0
 15 39  1  0  0  0  0
 15 40  1  0  0  0  0
 16 41  1  0  0  0  0
 16 42  1  0  0  0  0
 17 20  1  0  0  0  0
 17 43  1  0  0  0  0
 17 44  1  0  0  0  0
 18 20  1  0  0  0  0
 18 23  1  0  0  0  0
 18 45  1  1  0  0  0
 19 46  1  0  0  0  0
 19 47  1  0  0  0  0
 19 48  1  0  0  0  0
 20 49  1  0  0  0  0
 20 50  1  0  0  0  0
 21 25  1  0  0  0  0
 21 51  1  0  0  0  0
 21 52  1  0  0  0  0
 22 27  1  0  0  0  0
 22 28  2  0  0  0  0
 23 26  1  0  0  0  0
 23 53  1  0  0  0  0
 23 54  1  0  0  0  0
 24 55  1  0  0  0  0
 24 56  1  0  0  0  0
 24 57  1  0  0  0  0
 25 26  1  0  0  0  0
 25 58  1  0  0  0  0
 25 59  1  0  0  0  0
 26  3  1  0  0  0  0
 26 60  1  1  0  0  0
 27 30  2  0  0  0  0
 27 61  1  0  0  0  0
 28 62  1  0  0  0  0
 29 31  1  0  0  0  0
 30 32  1  0  0  0  0
 30 63  1  0  0  0  0
 31 64  1  0  0  0  0
 31 65  1  0  0  0  0
 31 66  1  0  0  0  0
M  END
>  <Mol_ID>
5113

>  <Formula>
C26H34O6

>  <MolWeight>
442.54456

>  <Cat>
S3224

>  <Name>
Cinobufagin

>  <Synonyms>
Cinobufagine

>  <Target>
Akt,Apoptosis related,ATM/ATR,Bcl-2,Caspase,CDK,Chk,PI3K

>  <Form>
free base

>  <CAS>
470-37-1

>  <URL>
http://www.selleckchem.com/products/cinobufagin.html

$$$$
