Ciproxifan.cdx
 OpenBabel08302521433D

 50 51  0  0  0  0  0  0  0  0999 V2000
    1.7302    1.2793   -0.6569 C   0  0  0  0  0  0  0  0  0  0  0  0
    2.5983    0.4388   -0.4298 O   0  0  0  0  0  0  0  0  0  0  0  0
    0.6724    0.9815   -1.6681 C   0  0  0  0  0  0  0  0  0  0  0  0
    0.7553   -0.2519   -2.3202 C   0  0  0  0  0  0  0  0  0  0  0  0
   -0.1481   -0.5907   -3.3242 C   0  0  0  0  0  0  0  0  0  0  0  0
   -1.1185    0.3074   -3.7455 C   0  0  0  0  0  0  0  0  0  0  0  0
   -1.2445    1.5202   -3.0635 C   0  0  0  0  0  0  0  0  0  0  0  0
   -0.3666    1.8518   -2.0149 C   0  0  0  0  0  0  0  0  0  0  0  0
   -1.8956    0.1187   -4.8558 O   0  0  0  0  0  0  0  0  0  0  0  0
   -2.2710   -1.2279   -5.1737 C   0  0  0  0  0  0  0  0  0  0  0  0
   -1.7385   -1.7246   -6.5257 C   0  0  0  0  0  0  0  0  0  0  0  0
   -0.2233   -1.7873   -6.7477 C   0  0  0  0  0  0  0  0  0  0  0  0
    0.9179   -4.3892   -4.5709 C   0  0  0  0  0  0  0  0  0  0  0  0
   -0.0497   -3.7796   -5.2240 N   0  0  0  0  0  0  0  0  0  0  0  0
    0.5509   -2.7376   -5.8940 C   0  0  0  0  0  0  0  0  0  0  0  0
    1.9053   -2.7164   -5.6173 C   0  0  0  0  0  0  0  0  0  0  0  0
    2.1214   -3.7721   -4.7747 N   0  0  0  0  0  0  0  0  0  0  0  0
    1.7952    2.6226   -0.0145 C   0  0  0  0  0  0  0  0  0  0  0  0
    3.0265    3.4578   -0.2884 C   0  0  0  0  0  0  0  0  0  0  0  0
    2.7721    2.9386    1.0947 C   0  0  0  0  0  0  0  0  0  0  0  0
    0.1663   -0.9371    1.2039 C   0  0  0  0  0  0  0  0  0  0  0  0
   -0.6985   -1.7293    0.2941 C   0  0  0  0  0  0  0  0  0  0  0  0
   -1.9202   -1.3799   -0.1379 C   0  0  0  0  0  0  0  0  0  0  0  0
   -2.6584   -0.1668    0.2317 C   0  0  0  0  0  0  0  0  0  0  0  0
   -0.0100    0.2243    1.5263 O   0  0  0  0  0  0  0  0  0  0  0  0
    1.2337   -1.6482    1.6182 O   0  0  0  0  0  0  0  0  0  0  0  0
   -3.3540    0.4788   -0.5283 O   0  0  0  0  0  0  0  0  0  0  0  0
   -2.4953    0.1423    1.5207 O   0  0  0  0  0  0  0  0  0  0  0  0
    1.5362   -0.9633   -2.0627 H   0  0  0  0  0  0  0  0  0  0  0  0
   -0.0456   -1.5600   -3.7830 H   0  0  0  0  0  0  0  0  0  0  0  0
   -2.0334    2.2169   -3.3406 H   0  0  0  0  0  0  0  0  0  0  0  0
   -0.5147    2.7986   -1.5060 H   0  0  0  0  0  0  0  0  0  0  0  0
   -2.0821   -1.9418   -4.3660 H   0  0  0  0  0  0  0  0  0  0  0  0
   -3.3653   -1.1967   -5.2663 H   0  0  0  0  0  0  0  0  0  0  0  0
   -2.1671   -2.7176   -6.7109 H   0  0  0  0  0  0  0  0  0  0  0  0
   -2.1406   -1.0639   -7.3056 H   0  0  0  0  0  0  0  0  0  0  0  0
   -0.0628   -2.1138   -7.7845 H   0  0  0  0  0  0  0  0  0  0  0  0
    0.2057   -0.7815   -6.6734 H   0  0  0  0  0  0  0  0  0  0  0  0
    0.8136   -5.2688   -3.9547 H   0  0  0  0  0  0  0  0  0  0  0  0
    2.7010   -2.0526   -5.9302 H   0  0  0  0  0  0  0  0  0  0  0  0
    3.0052   -4.0434   -4.3708 H   0  0  0  0  0  0  0  0  0  0  0  0
    0.8455    3.1313    0.1038 H   0  0  0  0  0  0  0  0  0  0  0  0
    3.8457    3.0030   -0.8370 H   0  0  0  0  0  0  0  0  0  0  0  0
    2.8809    4.5105   -0.4927 H   0  0  0  0  0  0  0  0  0  0  0  0
    2.4681    3.6540    1.8511 H   0  0  0  0  0  0  0  0  0  0  0  0
    3.3975    2.1384    1.4750 H   0  0  0  0  0  0  0  0  0  0  0  0
   -0.2654   -2.6340   -0.1137 H   0  0  0  0  0  0  0  0  0  0  0  0
   -2.4163   -1.9744   -0.8990 H   0  0  0  0  0  0  0  0  0  0  0  0
    1.4396   -2.4479    1.1045 H   0  0  0  0  0  0  0  0  0  0  0  0
   -2.4754    1.1196    1.5600 H   0  0  0  0  0  0  0  0  0  0  0  0
  1  2  2  0  0  0  0
  1  3  1  0  0  0  0
  1 18  1  0  0  0  0
  3  4  2  0  0  0  0
  3  8  1  0  0  0  0
  4  5  1  0  0  0  0
  4 29  1  0  0  0  0
  5  6  2  0  0  0  0
  5 30  1  0  0  0  0
  6  7  1  0  0  0  0
  6  9  1  0  0  0  0
  7  8  2  0  0  0  0
  7 31  1  0  0  0  0
  8 32  1  0  0  0  0
  9 10  1  0  0  0  0
 10 11  1  0  0  0  0
 10 33  1  0  0  0  0
 10 34  1  0  0  0  0
 11 12  1  0  0  0  0
 11 35  1  0  0  0  0
 11 36  1  0  0  0  0
 12 15  1  0  0  0  0
 12 37  1  0  0  0  0
 12 38  1  0  0  0  0
 13 14  2  0  0  0  0
 13 17  1  0  0  0  0
 13 39  1  0  0  0  0
 14 15  1  0  0  0  0
 15 16  2  0  0  0  0
 16 17  1  0  0  0  0
 16 40  1  0  0  0  0
 17 41  1  0  0  0  0
 18 19  1  0  0  0  0
 18 20  1  0  0  0  0
 18 42  1  0  0  0  0
 19 20  1  0  0  0  0
 19 43  1  0  0  0  0
 19 44  1  0  0  0  0
 20 45  1  0  0  0  0
 20 46  1  0  0  0  0
 21 22  1  0  0  0  0
 21 25  2  0  0  0  0
 21 26  1  0  0  0  0
 22 23  2  0  0  0  0
 22 47  1  0  0  0  0
 23 24  1  0  0  0  0
 23 48  1  0  0  0  0
 24 27  2  0  0  0  0
 24 28  1  0  0  0  0
 26 49  1  0  0  0  0
 28 50  1  0  0  0  0
M  END
>  <Mol_ID>
856

>  <Formula>
C20H22N2O6

>  <MolWeight>
386.39848

>  <Cat>
S2813

>  <Name>
Ciproxifan Maleate

>  <Synonyms>
FUB 359

>  <Target>
Histamine Receptor

>  <Form>
Maleate

>  <CAS>
184025-19-2

>  <URL>
http://selleckchem.com/products/ciproxifan.html

$$$$
