Ciprofloxacin hydrochloride
 OpenBabel08302521313D

 42 45  0  0  0  0  0  0  0  0999 V2000
    0.9277    0.0107   -0.1584 F   0  0  0  0  0  0  0  0  0  0  0  0
    4.4593   -3.5232    0.0060 O   0  0  0  0  0  0  0  0  0  0  0  0
    6.6031   -4.8125    0.5400 O   0  0  0  0  0  0  0  0  0  0  0  0
    8.4968   -3.6439    0.8922 O   0  0  0  0  0  0  0  0  0  0  0  0
    6.4733   -0.0048    0.3897 N   0  0  0  0  0  0  0  0  0  0  0  0
    2.3160    2.5295   -0.1351 N   0  0  0  0  0  0  0  0  0  0  0  0
    1.0775    5.1612   -0.3996 N   0  0  0  0  0  0  0  0  0  0  0  0
    7.1728    1.1883    0.9232 C   0  0  0  0  0  0  0  0  0  0  0  0
    7.6803    2.2773    0.0115 C   0  0  0  0  0  0  0  0  0  0  0  0
    8.6528    1.4401    0.7816 C   0  0  0  0  0  0  0  0  0  0  0  0
    5.0594    0.0341    0.1954 C   0  0  0  0  0  0  0  0  0  0  0  0
    7.0864   -1.2387    0.5453 C   0  0  0  0  0  0  0  0  0  0  0  0
    4.3339   -1.1620    0.0862 C   0  0  0  0  0  0  0  0  0  0  0  0
    4.3434    1.2405    0.1151 C   0  0  0  0  0  0  0  0  0  0  0  0
    2.9393    1.2931   -0.0132 C   0  0  0  0  0  0  0  0  0  0  0  0
    6.4975   -2.4388    0.4340 C   0  0  0  0  0  0  0  0  0  0  0  0
    0.9661    2.6400   -0.7140 C   0  0  0  0  0  0  0  0  0  0  0  0
    2.6223    3.5911    0.8422 C   0  0  0  0  0  0  0  0  0  0  0  0
    5.0474   -2.4550    0.1519 C   0  0  0  0  0  0  0  0  0  0  0  0
    0.7900    4.0492   -1.3334 C   0  0  0  0  0  0  0  0  0  0  0  0
    2.4282    4.9704    0.1720 C   0  0  0  0  0  0  0  0  0  0  0  0
    2.9451   -1.1567   -0.0460 C   0  0  0  0  0  0  0  0  0  0  0  0
    2.2675    0.0588   -0.0817 C   0  0  0  0  0  0  0  0  0  0  0  0
    7.2990   -3.6623    0.6392 C   0  0  0  0  0  0  0  0  0  0  0  0
    5.6472   -4.6913    0.3170 H   0  0  0  0  0  0  0  0  0  0  0  0
    0.4021    5.1142    0.3608 H   0  0  0  0  0  0  0  0  0  0  0  0
    6.7439    1.5013    1.8745 H   0  0  0  0  0  0  0  0  0  0  0  0
    7.6332    2.1237   -1.0608 H   0  0  0  0  0  0  0  0  0  0  0  0
    7.5418    3.3066    0.3206 H   0  0  0  0  0  0  0  0  0  0  0  0
    9.1613    1.8914    1.6275 H   0  0  0  0  0  0  0  0  0  0  0  0
    9.2693    0.7529    0.2159 H   0  0  0  0  0  0  0  0  0  0  0  0
    8.1466   -1.1770    0.7811 H   0  0  0  0  0  0  0  0  0  0  0  0
    4.8949    2.1764    0.1054 H   0  0  0  0  0  0  0  0  0  0  0  0
    0.8122    1.9090   -1.5155 H   0  0  0  0  0  0  0  0  0  0  0  0
    0.2089    2.4726    0.0621 H   0  0  0  0  0  0  0  0  0  0  0  0
    1.9471    3.4970    1.7037 H   0  0  0  0  0  0  0  0  0  0  0  0
    3.6437    3.5358    1.2323 H   0  0  0  0  0  0  0  0  0  0  0  0
    1.4489    4.1429   -2.2058 H   0  0  0  0  0  0  0  0  0  0  0  0
   -0.2363    4.1561   -1.7009 H   0  0  0  0  0  0  0  0  0  0  0  0
    3.1744    5.0974   -0.6227 H   0  0  0  0  0  0  0  0  0  0  0  0
    2.6121    5.7608    0.9076 H   0  0  0  0  0  0  0  0  0  0  0  0
    2.3786   -2.0801   -0.1083 H   0  0  0  0  0  0  0  0  0  0  0  0
  1 23  1  0  0  0  0
  2 19  2  0  0  0  0
  3 24  1  0  0  0  0
  3 25  1  0  0  0  0
  4 24  2  0  0  0  0
  5  8  1  0  0  0  0
  5 11  1  0  0  0  0
  5 12  1  0  0  0  0
  6 15  1  0  0  0  0
  6 17  1  0  0  0  0
  6 18  1  0  0  0  0
  7 20  1  0  0  0  0
  7 21  1  0  0  0  0
  7 26  1  0  0  0  0
  8  9  1  0  0  0  0
  8 10  1  0  0  0  0
  8 27  1  0  0  0  0
  9 10  1  0  0  0  0
  9 28  1  0  0  0  0
  9 29  1  0  0  0  0
 10 30  1  0  0  0  0
 10 31  1  0  0  0  0
 11 13  2  0  0  0  0
 11 14  1  0  0  0  0
 12 16  2  0  0  0  0
 12 32  1  0  0  0  0
 13 19  1  0  0  0  0
 13 22  1  0  0  0  0
 14 15  2  0  0  0  0
 14 33  1  0  0  0  0
 15 23  1  0  0  0  0
 16 19  1  0  0  0  0
 16 24  1  0  0  0  0
 17 20  1  0  0  0  0
 17 34  1  0  0  0  0
 17 35  1  0  0  0  0
 18 21  1  0  0  0  0
 18 36  1  0  0  0  0
 18 37  1  0  0  0  0
 20 38  1  0  0  0  0
 20 39  1  0  0  0  0
 21 40  1  0  0  0  0
 21 41  1  0  0  0  0
 22 23  2  0  0  0  0
 22 42  1  0  0  0  0
M  END
>  <Mol_ID>
5789

>  <Formula>
C17H19ClFN3O3

>  <MolWeight>
367.8024632

>  <Cat>
S5008

>  <Name>
Ciprofloxacin hydrochloride

>  <Synonyms>
CPX, Cetraxal, Ciloxan, Cipro, Bay-09867 hydrochloride

>  <Target>
Antibiotics,Antineoplastic and Immunosuppressive Antibiotics,Bacterial,Topoisomerase

>  <Form>
Hydrochloride

>  <CAS>
93107-08-5

>  <URL>
http://www.selleckchem.com/products/ciprofloxacin-hydrochloride.html

$$$$
