cis,cis-Muconic acid
 OpenBabel08302520393D

 16 15  0  0  0  0  0  0  0  0999 V2000
    1.0277   -0.0242   -0.0885 C   0  0  0  0  0  0  0  0  0  0  0  0
    0.1824   -0.8869    0.7652 C   0  0  0  0  0  0  0  0  0  0  0  0
    2.3425   -0.2472    0.1297 O   0  0  0  0  0  0  0  0  0  0  0  0
    0.6224    0.7931   -0.8950 O   0  0  0  0  0  0  0  0  0  0  0  0
   -1.1575   -0.9343    0.8125 C   0  0  0  0  0  0  0  0  0  0  0  0
   -2.1230   -0.1691    0.0553 C   0  0  0  0  0  0  0  0  0  0  0  0
   -3.4643   -0.2469    0.1340 C   0  0  0  0  0  0  0  0  0  0  0  0
   -4.2519   -1.1392    1.0211 C   0  0  0  0  0  0  0  0  0  0  0  0
   -5.5809   -0.9703    0.8582 O   0  0  0  0  0  0  0  0  0  0  0  0
   -3.7927   -1.9431    1.8111 O   0  0  0  0  0  0  0  0  0  0  0  0
    0.7089   -1.5609    1.4321 H   0  0  0  0  0  0  0  0  0  0  0  0
    2.5599   -0.9227    0.7960 H   0  0  0  0  0  0  0  0  0  0  0  0
   -1.5658   -1.6514    1.5223 H   0  0  0  0  0  0  0  0  0  0  0  0
   -1.7217    0.5511   -0.6587 H   0  0  0  0  0  0  0  0  0  0  0  0
   -4.0344    0.4091   -0.5152 H   0  0  0  0  0  0  0  0  0  0  0  0
   -5.8517   -0.3046    0.2025 H   0  0  0  0  0  0  0  0  0  0  0  0
  1  2  1  0  0  0  0
  1  3  1  0  0  0  0
  1  4  2  0  0  0  0
  2  5  2  0  0  0  0
  2 11  1  0  0  0  0
  3 12  1  0  0  0  0
  5  6  1  0  0  0  0
  5 13  1  0  0  0  0
  6  7  2  0  0  0  0
  6 14  1  0  0  0  0
  7  8  1  0  0  0  0
  7 15  1  0  0  0  0
  8  9  1  0  0  0  0
  8 10  2  0  0  0  0
  9 16  1  0  0  0  0
M  END
>  <Mol_ID>
3558

>  <Formula>
C6H6O4

>  <MolWeight>
142.10944

>  <Cat>
S6092

>  <Name>
cis,cis-Muconic acid

>  <Synonyms>
cis,cis-Muconate; cis,cis-2,4-Hexadienedioic acid; cis,cis-2,4-Hexadienedioate

>  <Target>
Others

>  <Form>
free base

>  <CAS>
1119-72-8

>  <URL>
http://www.selleck.cn/products/cis-muconic-acid.html

$$$$
