cis-4-Hydroxy-L-proline
 OpenBabel08302521453D

 18 18  0  0  1  0  0  0  0  0999 V2000
    2.9710    0.1391    1.3711 C   0  0  0  0  0  0  0  0  0  0  0  0
    3.7314    1.2448    1.5640 O   0  0  0  0  0  0  0  0  0  0  0  0
    2.7244   -0.6665    2.2592 O   0  0  0  0  0  0  0  0  0  0  0  0
    4.4637   -1.6612   -2.6203 O   0  0  0  0  0  0  0  0  0  0  0  0
    2.4781    0.0088   -0.0725 C   0  0  2  0  0  0  0  0  0  0  0  0
    3.0043   -1.2658   -0.7211 C   0  0  0  0  0  0  0  0  0  0  0  0
    2.9745    1.1727   -0.8850 N   0  0  0  0  0  0  0  0  0  0  0  0
    3.4417   -0.8293   -2.1043 C   0  0  1  0  0  0  0  0  0  0  0  0
    3.9079    0.6013   -1.8740 C   0  0  0  0  0  0  0  0  0  0  0  0
    3.7634    1.7191    0.6959 H   0  0  0  0  0  0  0  0  0  0  0  0
    5.2121   -1.6621   -1.9978 H   0  0  0  0  0  0  0  0  0  0  0  0
    1.3830    0.0368   -0.0591 H   0  0  0  0  0  0  0  0  0  0  0  0
    2.2296   -2.0380   -0.7844 H   0  0  0  0  0  0  0  0  0  0  0  0
    3.8430   -1.7003   -0.1631 H   0  0  0  0  0  0  0  0  0  0  0  0
    2.1651    1.5291   -1.4059 H   0  0  0  0  0  0  0  0  0  0  0  0
    2.5912   -0.8510   -2.7960 H   0  0  0  0  0  0  0  0  0  0  0  0
    4.9268    0.6260   -1.4714 H   0  0  0  0  0  0  0  0  0  0  0  0
    3.9139    1.1798   -2.8032 H   0  0  0  0  0  0  0  0  0  0  0  0
  1  2  1  0  0  0  0
  1  3  2  0  0  0  0
  2 10  1  0  0  0  0
  4 11  1  0  0  0  0
  5  6  1  0  0  0  0
  5  7  1  0  0  0  0
  5 12  1  6  0  0  0
  5  1  1  0  0  0  0
  6  8  1  0  0  0  0
  6 13  1  0  0  0  0
  6 14  1  0  0  0  0
  7  9  1  0  0  0  0
  7 15  1  0  0  0  0
  8  4  1  0  0  0  0
  8  9  1  0  0  0  0
  8 16  1  6  0  0  0
  9 17  1  0  0  0  0
  9 18  1  0  0  0  0
M  END
>  <Mol_ID>
9486

>  <Formula>
C5H9NO3

>  <MolWeight>
131.12986

>  <Cat>
E4055

>  <Name>
cis-4-Hydroxy-L-proline

>  <Synonyms>
cis-4-Hydroxy-L-proline

>  <Target>
Others

>  <Form>
free base

>  <CAS>
618-27-9

>  <URL>
https://www.selleckchem.com/products/cis-4-hydroxy-l-proline.html

$$$$
