cis-Isolimonenol
 OpenBabel08302521363D

 27 27  0  0  1  0  0  0  0  0999 V2000
    0.8872    0.0255    0.1300 C   0  0  0  0  0  0  0  0  0  0  0  0
    0.2296    0.1563   -1.2164 C   0  0  0  0  0  0  0  0  0  0  0  0
    0.1189   -0.1197    1.2287 C   0  0  0  0  0  0  0  0  0  0  0  0
    5.7047    0.1119   -2.2681 C   0  0  0  0  0  0  0  0  0  0  0  0
    3.7498   -0.1373   -3.6039 O   0  0  0  0  0  0  0  0  0  0  0  0
    2.4072    0.0122    0.2210 C   0  0  2  0  0  0  0  0  0  0  0  0
    3.0848    1.3159   -0.2522 C   0  0  0  0  0  0  0  0  0  0  0  0
    2.9636   -1.2189   -0.4381 C   0  0  0  0  0  0  0  0  0  0  0  0
    3.5371    1.3432   -1.7162 C   0  0  0  0  0  0  0  0  0  0  0  0
    3.7439   -1.1998   -1.5293 C   0  0  0  0  0  0  0  0  0  0  0  0
    4.1751    0.0407   -2.2485 C   0  0  2  0  0  0  0  0  0  0  0  0
   -0.3627   -0.7371   -1.4421 H   0  0  0  0  0  0  0  0  0  0  0  0
   -0.4287    1.0311   -1.2363 H   0  0  0  0  0  0  0  0  0  0  0  0
    0.9525    0.2712   -2.0257 H   0  0  0  0  0  0  0  0  0  0  0  0
    0.5508   -0.2500    2.2152 H   0  0  0  0  0  0  0  0  0  0  0  0
   -0.9643   -0.1430    1.1589 H   0  0  0  0  0  0  0  0  0  0  0  0
    6.1303   -0.7701   -2.7645 H   0  0  0  0  0  0  0  0  0  0  0  0
    6.0490    0.9743   -2.8509 H   0  0  0  0  0  0  0  0  0  0  0  0
    6.1277    0.1786   -1.2618 H   0  0  0  0  0  0  0  0  0  0  0  0
    3.9229    0.6926   -4.0787 H   0  0  0  0  0  0  0  0  0  0  0  0
    2.6704   -0.0747    1.2857 H   0  0  0  0  0  0  0  0  0  0  0  0
    3.9665    1.4914    0.3762 H   0  0  0  0  0  0  0  0  0  0  0  0
    2.4210    2.1727   -0.0743 H   0  0  0  0  0  0  0  0  0  0  0  0
    2.6930   -2.1777    0.0055 H   0  0  0  0  0  0  0  0  0  0  0  0
    2.6866    1.6287   -2.3465 H   0  0  0  0  0  0  0  0  0  0  0  0
    4.2492    2.1734   -1.8322 H   0  0  0  0  0  0  0  0  0  0  0  0
    4.0835   -2.1468   -1.9414 H   0  0  0  0  0  0  0  0  0  0  0  0
  1  2  1  0  0  0  0
  1  3  2  0  0  0  0
  2 12  1  0  0  0  0
  2 13  1  0  0  0  0
  2 14  1  0  0  0  0
  3 15  1  0  0  0  0
  3 16  1  0  0  0  0
  4 17  1  0  0  0  0
  4 18  1  0  0  0  0
  4 19  1  0  0  0  0
  5 20  1  0  0  0  0
  6  1  1  0  0  0  0
  6  7  1  0  0  0  0
  6  8  1  0  0  0  0
  6 21  1  1  0  0  0
  7  9  1  0  0  0  0
  7 22  1  0  0  0  0
  7 23  1  0  0  0  0
  8 10  2  0  0  0  0
  8 24  1  0  0  0  0
  9 11  1  0  0  0  0
  9 25  1  0  0  0  0
  9 26  1  0  0  0  0
 10 11  1  0  0  0  0
 10 27  1  0  0  0  0
 11  5  1  6  0  0  0
 11  4  1  0  0  0  0
M  END
>  <Mol_ID>
7057

>  <Formula>
C10H16O

>  <MolWeight>
152.23344

>  <Cat>
E4069

>  <Name>
cis-Isolimonenol

>  <Synonyms>
(1S,4R)-p-Mentha-2,8-dien-1-ol

>  <Target>
Others

>  <Form>
Free base

>  <CAS>
22972-51-6

>  <URL>
https://www.selleckchem.com/products/cis-isolimonenol.html

$$$$
