cis-3-Hexen-1-ol
 OpenBabel08302520393D

 19 18  0  0  0  0  0  0  0  0999 V2000
    0.9675    0.0600    0.0806 C   0  0  0  0  0  0  0  0  0  0  0  0
    0.2673    1.0827    0.5966 C   0  0  0  0  0  0  0  0  0  0  0  0
    0.3970   -1.1759   -0.5630 C   0  0  0  0  0  0  0  0  0  0  0  0
   -1.2275    1.2194    0.6508 C   0  0  0  0  0  0  0  0  0  0  0  0
    1.4828   -2.1586   -1.0176 C   0  0  0  0  0  0  0  0  0  0  0  0
   -1.7137    1.3571    2.0857 C   0  0  0  0  0  0  0  0  0  0  0  0
    2.3140   -1.5943   -2.0272 O   0  0  0  0  0  0  0  0  0  0  0  0
    2.0562    0.1278    0.1145 H   0  0  0  0  0  0  0  0  0  0  0  0
    0.8287    1.9175    1.0155 H   0  0  0  0  0  0  0  0  0  0  0  0
   -0.2574   -1.6895    0.1503 H   0  0  0  0  0  0  0  0  0  0  0  0
   -0.1979   -0.8773   -1.4336 H   0  0  0  0  0  0  0  0  0  0  0  0
   -1.5186    2.1112    0.0844 H   0  0  0  0  0  0  0  0  0  0  0  0
   -1.7281    0.3661    0.1813 H   0  0  0  0  0  0  0  0  0  0  0  0
    2.1212   -2.4558   -0.1790 H   0  0  0  0  0  0  0  0  0  0  0  0
    1.0244   -3.0636   -1.4299 H   0  0  0  0  0  0  0  0  0  0  0  0
   -1.3137    2.2635    2.5534 H   0  0  0  0  0  0  0  0  0  0  0  0
   -2.8061    1.4204    2.1117 H   0  0  0  0  0  0  0  0  0  0  0  0
   -1.4085    0.4978    2.6929 H   0  0  0  0  0  0  0  0  0  0  0  0
    1.7369   -1.2939   -2.7502 H   0  0  0  0  0  0  0  0  0  0  0  0
  1  2  2  0  0  0  0
  1  3  1  0  0  0  0
  1  8  1  0  0  0  0
  2  4  1  0  0  0  0
  2  9  1  0  0  0  0
  3  5  1  0  0  0  0
  3 10  1  0  0  0  0
  3 11  1  0  0  0  0
  4  6  1  0  0  0  0
  4 12  1  0  0  0  0
  4 13  1  0  0  0  0
  5  7  1  0  0  0  0
  5 14  1  0  0  0  0
  5 15  1  0  0  0  0
  6 16  1  0  0  0  0
  6 17  1  0  0  0  0
  6 18  1  0  0  0  0
  7 19  1  0  0  0  0
M  END
>  <Mol_ID>
3540

>  <Formula>
C6H12O

>  <MolWeight>
100.15888

>  <Cat>
S6059

>  <Name>
cis-3-Hexen-1-ol

>  <Synonyms>
Leaf alcohol

>  <Target>
Others

>  <Form>
free base

>  <CAS>
928-96-1

>  <URL>
http://www.selleck.cn/products/cis-3-hexen-1-ol.html

$$$$
