cis-3-Hexenyl hexanoate
 OpenBabel08302521293D

 36 35  0  0  0  0  0  0  0  0999 V2000
    1.0889   -0.0312    0.1661 C   0  0  0  0  0  0  0  0  0  0  0  0
    0.1654    1.0074   -0.4217 C   0  0  0  0  0  0  0  0  0  0  0  0
    0.0619    0.9496   -1.9451 C   0  0  0  0  0  0  0  0  0  0  0  0
   -0.4065   -0.3965   -2.5155 C   0  0  0  0  0  0  0  0  0  0  0  0
   -1.8037   -0.8164   -2.0553 C   0  0  0  0  0  0  0  0  0  0  0  0
   -2.2132   -2.1489   -2.6672 C   0  0  0  0  0  0  0  0  0  0  0  0
    0.7142   -0.8526    1.0049 O   0  0  0  0  0  0  0  0  0  0  0  0
    2.3500    0.0565   -0.3128 O   0  0  0  0  0  0  0  0  0  0  0  0
    3.2816   -0.9518    0.1506 C   0  0  0  0  0  0  0  0  0  0  0  0
    3.1598   -2.2513   -0.6651 C   0  0  0  0  0  0  0  0  0  0  0  0
    3.4207   -2.0051   -2.1250 C   0  0  0  0  0  0  0  0  0  0  0  0
    3.2890   -2.8608   -3.1524 C   0  0  0  0  0  0  0  0  0  0  0  0
    2.7463   -4.2598   -3.1353 C   0  0  0  0  0  0  0  0  0  0  0  0
    1.5908   -4.3253   -4.1241 C   0  0  0  0  0  0  0  0  0  0  0  0
   -0.8263    0.8737    0.0242 H   0  0  0  0  0  0  0  0  0  0  0  0
    0.5054    2.0002   -0.1014 H   0  0  0  0  0  0  0  0  0  0  0  0
   -0.6236    1.7397   -2.2828 H   0  0  0  0  0  0  0  0  0  0  0  0
    1.0395    1.1837   -2.3809 H   0  0  0  0  0  0  0  0  0  0  0  0
   -0.4009   -0.3197   -3.6106 H   0  0  0  0  0  0  0  0  0  0  0  0
    0.3161   -1.1744   -2.2543 H   0  0  0  0  0  0  0  0  0  0  0  0
   -1.8318   -0.9165   -0.9656 H   0  0  0  0  0  0  0  0  0  0  0  0
   -2.5373   -0.0509   -2.3331 H   0  0  0  0  0  0  0  0  0  0  0  0
   -1.4967   -2.9358   -2.4095 H   0  0  0  0  0  0  0  0  0  0  0  0
   -3.1960   -2.4511   -2.2915 H   0  0  0  0  0  0  0  0  0  0  0  0
   -2.2731   -2.0821   -3.7581 H   0  0  0  0  0  0  0  0  0  0  0  0
    4.2900   -0.5345    0.0359 H   0  0  0  0  0  0  0  0  0  0  0  0
    3.1438   -1.1416    1.2186 H   0  0  0  0  0  0  0  0  0  0  0  0
    3.8970   -2.9662   -0.2856 H   0  0  0  0  0  0  0  0  0  0  0  0
    2.1604   -2.6831   -0.5251 H   0  0  0  0  0  0  0  0  0  0  0  0
    3.7447   -0.9953   -2.3849 H   0  0  0  0  0  0  0  0  0  0  0  0
    3.5492   -2.4878   -4.1417 H   0  0  0  0  0  0  0  0  0  0  0  0
    3.5297   -4.9664   -3.4328 H   0  0  0  0  0  0  0  0  0  0  0  0
    2.4016   -4.5533   -2.1389 H   0  0  0  0  0  0  0  0  0  0  0  0
    1.9621   -4.2613   -5.1540 H   0  0  0  0  0  0  0  0  0  0  0  0
    1.0344   -5.2597   -4.0223 H   0  0  0  0  0  0  0  0  0  0  0  0
    0.8940   -3.4926   -3.9718 H   0  0  0  0  0  0  0  0  0  0  0  0
  1  2  1  0  0  0  0
  1  7  2  0  0  0  0
  1  8  1  0  0  0  0
  2  3  1  0  0  0  0
  2 15  1  0  0  0  0
  2 16  1  0  0  0  0
  3  4  1  0  0  0  0
  3 17  1  0  0  0  0
  3 18  1  0  0  0  0
  4  5  1  0  0  0  0
  4 19  1  0  0  0  0
  4 20  1  0  0  0  0
  5  6  1  0  0  0  0
  5 21  1  0  0  0  0
  5 22  1  0  0  0  0
  6 23  1  0  0  0  0
  6 24  1  0  0  0  0
  6 25  1  0  0  0  0
  8  9  1  0  0  0  0
  9 10  1  0  0  0  0
  9 26  1  0  0  0  0
  9 27  1  0  0  0  0
 10 11  1  0  0  0  0
 10 28  1  0  0  0  0
 10 29  1  0  0  0  0
 11 12  2  0  0  0  0
 11 30  1  0  0  0  0
 12 13  1  0  0  0  0
 12 31  1  0  0  0  0
 13 14  1  0  0  0  0
 13 32  1  0  0  0  0
 13 33  1  0  0  0  0
 14 34  1  0  0  0  0
 14 35  1  0  0  0  0
 14 36  1  0  0  0  0
M  END
>  <Mol_ID>
5482

>  <Formula>
C12H22O2

>  <MolWeight>
198.30188

>  <Cat>
S3317

>  <Name>
cis-3-Hexenyl hexanoate

>  <Synonyms>
(Z)-3-hexenyl hexanoate

>  <Target>
Others

>  <Form>
Free Base

>  <CAS>
31501-11-8

>  <URL>
https://www.selleckchem.com/products/cis-3-hexenyl-hexanoate.html

$$$$
