cis-Resveratrol
 OpenBabel08302521303D

 29 30  0  0  0  0  0  0  0  0999 V2000
    0.5022   -1.1938    1.9344 O   0  0  0  0  0  0  0  0  0  0  0  0
   -0.7310   -0.9926   -2.6134 O   0  0  0  0  0  0  0  0  0  0  0  0
   -6.1373    1.2026    0.5947 O   0  0  0  0  0  0  0  0  0  0  0  0
   -0.0776    1.7201   -0.2244 C   0  0  0  0  0  0  0  0  0  0  0  0
   -2.5695    3.2864    0.2377 C   0  0  0  0  0  0  0  0  0  0  0  0
   -0.1232    3.1824   -0.1397 C   0  0  0  0  0  0  0  0  0  0  0  0
   -1.2456    3.8932    0.0725 C   0  0  0  0  0  0  0  0  0  0  0  0
   -0.3814    1.0684   -1.4274 C   0  0  0  0  0  0  0  0  0  0  0  0
    0.2213    0.9656    0.9173 C   0  0  0  0  0  0  0  0  0  0  0  0
    0.2072   -0.4261    0.8455 C   0  0  0  0  0  0  0  0  0  0  0  0
   -0.4085   -0.3240   -1.4687 C   0  0  0  0  0  0  0  0  0  0  0  0
   -3.0172    2.8964    1.5060 C   0  0  0  0  0  0  0  0  0  0  0  0
   -3.3595    3.0202   -0.8864 C   0  0  0  0  0  0  0  0  0  0  0  0
   -0.1147   -1.0772   -0.3389 C   0  0  0  0  0  0  0  0  0  0  0  0
   -4.2245    2.2070    1.6444 C   0  0  0  0  0  0  0  0  0  0  0  0
   -4.5661    2.3338   -0.7484 C   0  0  0  0  0  0  0  0  0  0  0  0
   -4.9789    1.9167    0.5114 C   0  0  0  0  0  0  0  0  0  0  0  0
    0.8201   -0.6135    2.6449 H   0  0  0  0  0  0  0  0  0  0  0  0
   -1.0512   -0.3496   -3.2669 H   0  0  0  0  0  0  0  0  0  0  0  0
   -6.2045    0.8326    1.4903 H   0  0  0  0  0  0  0  0  0  0  0  0
    0.8309    3.6903   -0.2475 H   0  0  0  0  0  0  0  0  0  0  0  0
   -1.2102    4.9784    0.1315 H   0  0  0  0  0  0  0  0  0  0  0  0
   -0.6080    1.6531   -2.3138 H   0  0  0  0  0  0  0  0  0  0  0  0
    0.4408    1.4704    1.8524 H   0  0  0  0  0  0  0  0  0  0  0  0
   -2.4160    3.1035    2.3876 H   0  0  0  0  0  0  0  0  0  0  0  0
   -3.0249    3.3175   -1.8765 H   0  0  0  0  0  0  0  0  0  0  0  0
   -0.1427   -2.1613   -0.3799 H   0  0  0  0  0  0  0  0  0  0  0  0
   -4.5494    1.8954    2.6320 H   0  0  0  0  0  0  0  0  0  0  0  0
   -5.1677    2.1016   -1.6221 H   0  0  0  0  0  0  0  0  0  0  0  0
  1 10  1  0  0  0  0
  1 18  1  0  0  0  0
  2 11  1  0  0  0  0
  2 19  1  0  0  0  0
  3 17  1  0  0  0  0
  3 20  1  0  0  0  0
  4  6  1  0  0  0  0
  4  8  2  0  0  0  0
  4  9  1  0  0  0  0
  5  7  1  0  0  0  0
  5 12  2  0  0  0  0
  5 13  1  0  0  0  0
  6  7  2  0  0  0  0
  6 21  1  0  0  0  0
  7 22  1  0  0  0  0
  8 11  1  0  0  0  0
  8 23  1  0  0  0  0
  9 10  2  0  0  0  0
  9 24  1  0  0  0  0
 10 14  1  0  0  0  0
 11 14  2  0  0  0  0
 12 15  1  0  0  0  0
 12 25  1  0  0  0  0
 13 16  2  0  0  0  0
 13 26  1  0  0  0  0
 14 27  1  0  0  0  0
 15 17  2  0  0  0  0
 15 28  1  0  0  0  0
 16 17  1  0  0  0  0
 16 29  1  0  0  0  0
M  END
>  <Mol_ID>
5653

>  <Formula>
C14H12O3

>  <MolWeight>
228.24328

>  <Cat>
S3168

>  <Name>
cis-Resveratrol

>  <Synonyms>
cis-RESV, cRes, (Z)-Resveratrol

>  <Target>
Apoptosis related,COX,DNA/RNA Synthesis,I¦ÊB/IKK,Lipoxygenase,Nrf2,Sirtuin

>  <Form>
Free Base

>  <CAS>
61434-67-1

>  <URL>
http://www.selleckchem.com/products/cis-resveratrol.html

$$$$
