cis-4-Hydroxy-D-proline
 OpenBabel08302521393D

 18 18  0  0  0  0  0  0  0  0999 V2000
    0.7965    0.0340    0.5431 C   0  0  1  0  0  0  0  0  0  0  0  0
   -0.2142    1.1737    0.4512 C   0  0  0  0  0  0  0  0  0  0  0  0
   -1.3129    0.7032   -0.4249 N   0  0  0  0  0  0  0  0  0  0  0  0
   -1.2020   -0.7827   -0.4744 C   0  0  2  0  0  0  0  0  0  0  0  0
   -0.0862   -1.1936    0.4788 C   0  0  0  0  0  0  0  0  0  0  0  0
   -0.9272   -1.2011   -1.9246 C   0  0  0  0  0  0  0  0  0  0  0  0
   -1.9236   -0.8095   -2.7592 O   0  0  0  0  0  0  0  0  0  0  0  0
    0.0952   -1.7369   -2.3195 O   0  0  0  0  0  0  0  0  0  0  0  0
    1.7187    0.0955   -0.5417 O   0  0  0  0  0  0  0  0  0  0  0  0
    1.3712    0.0766    1.4716 H   0  0  0  0  0  0  0  0  0  0  0  0
   -0.6343    1.3930    1.4395 H   0  0  0  0  0  0  0  0  0  0  0  0
    0.2285    2.0900    0.0466 H   0  0  0  0  0  0  0  0  0  0  0  0
   -1.1076    1.0874   -1.3531 H   0  0  0  0  0  0  0  0  0  0  0  0
   -2.1447   -1.2518   -0.1707 H   0  0  0  0  0  0  0  0  0  0  0  0
    0.4584   -2.0883    0.1554 H   0  0  0  0  0  0  0  0  0  0  0  0
   -0.5126   -1.3856    1.4705 H   0  0  0  0  0  0  0  0  0  0  0  0
   -2.6276   -0.3300   -2.2726 H   0  0  0  0  0  0  0  0  0  0  0  0
    1.4228   -0.4801   -1.2738 H   0  0  0  0  0  0  0  0  0  0  0  0
  1  2  1  0  0  0  0
  1  9  1  0  0  0  0
  1 10  1  1  0  0  0
  2  3  1  0  0  0  0
  2 11  1  0  0  0  0
  2 12  1  0  0  0  0
  3  4  1  0  0  0  0
  3 13  1  0  0  0  0
  4  5  1  0  0  0  0
  4 14  1  1  0  0  0
  4  6  1  0  0  0  0
  5  1  1  0  0  0  0
  5 15  1  0  0  0  0
  5 16  1  0  0  0  0
  6  7  1  0  0  0  0
  6  8  2  0  0  0  0
  7 17  1  0  0  0  0
  9 18  1  0  0  0  0
M  END
>  <Mol_ID>
7974

>  <Formula>
C5H9NO3

>  <MolWeight>
131.12986

>  <Cat>
S3367

>  <Name>
cis-4-Hydroxy-D-proline

>  <Synonyms>
H-D-cis-Hyp-OH

>  <Target>
Others

>  <Form>
Free Base

>  <CAS>
2584-71-6

>  <URL>
https://www.selleckchem.com/products/cis-4-hydroxy-d-proline.html

$$$$
