Citarinostat (ACY-241).cdx
 OpenBabel08302520433D

 59 61  0  0  0  0  0  0  0  0999 V2000
   -5.0528   -2.7872    1.5340 C   0  0  0  0  0  0  0  0  0  0  0  0
   -4.1506   -3.0111    0.5057 C   0  0  0  0  0  0  0  0  0  0  0  0
   -3.4459   -1.9403   -0.0669 C   0  0  0  0  0  0  0  0  0  0  0  0
   -3.5970   -0.6133    0.3931 C   0  0  0  0  0  0  0  0  0  0  0  0
   -4.5311   -0.4291    1.4314 C   0  0  0  0  0  0  0  0  0  0  0  0
   -5.2555   -1.4907    1.9895 C   0  0  0  0  0  0  0  0  0  0  0  0
   -2.8307    0.4743   -0.2138 N   0  0  0  0  0  0  0  0  0  0  0  0
   -3.3726    1.8238   -0.2758 C   0  0  0  0  0  0  0  0  0  0  0  0
   -1.4618    0.2399   -0.6691 C   0  0  0  0  0  0  0  0  0  0  0  0
   -4.2846    2.2448    0.6196 N   0  0  0  0  0  0  0  0  0  0  0  0
   -4.7204    3.5225    0.5868 C   0  0  0  0  0  0  0  0  0  0  0  0
   -4.2901    4.4410   -0.3296 C   0  0  0  0  0  0  0  0  0  0  0  0
   -3.3999    3.9537   -1.2455 C   0  0  0  0  0  0  0  0  0  0  0  0
   -2.9399    2.6849   -1.2202 N   0  0  0  0  0  0  0  0  0  0  0  0
   -0.8752    0.9392   -1.7463 C   0  0  0  0  0  0  0  0  0  0  0  0
    0.4732    0.7965   -2.0918 C   0  0  0  0  0  0  0  0  0  0  0  0
    1.2739   -0.1022   -1.4027 C   0  0  0  0  0  0  0  0  0  0  0  0
    0.7241   -0.8451   -0.3645 C   0  0  0  0  0  0  0  0  0  0  0  0
   -0.6166   -0.6635    0.0078 C   0  0  0  0  0  0  0  0  0  0  0  0
   -4.7972    5.8126   -0.3090 C   0  0  0  0  0  0  0  0  0  0  0  0
   -3.9869    6.7951   -0.8443 N   0  0  0  0  0  0  0  0  0  0  0  0
   -5.8893    6.0383    0.2045 O   0  0  0  0  0  0  0  0  0  0  0  0
   -4.3856    8.1882   -0.7974 C   0  0  0  0  0  0  0  0  0  0  0  0
   -3.9851    8.8450    0.5231 C   0  0  0  0  0  0  0  0  0  0  0  0
   -4.4165   10.3127    0.5647 C   0  0  0  0  0  0  0  0  0  0  0  0
   -4.0140   10.9899    1.8788 C   0  0  0  0  0  0  0  0  0  0  0  0
   -4.4547   12.4555    1.9016 C   0  0  0  0  0  0  0  0  0  0  0  0
   -4.0701   13.1555    3.2054 C   0  0  0  0  0  0  0  0  0  0  0  0
   -4.5553   14.5918    3.2337 C   0  0  0  0  0  0  0  0  0  0  0  0
   -4.2207   15.2668    4.3852 N   0  0  0  0  0  0  0  0  0  0  0  0
   -5.2110   15.1243    2.3412 O   0  0  0  0  0  0  0  0  0  0  0  0
   -4.6055   16.6288    4.4186 O   0  0  0  0  0  0  0  0  0  0  0  0
   -5.6046   -3.6097    1.9818 H   0  0  0  0  0  0  0  0  0  0  0  0
   -3.9923   -4.0224    0.1387 H   0  0  0  0  0  0  0  0  0  0  0  0
   -2.7728   -2.1632   -0.8920 H   0  0  0  0  0  0  0  0  0  0  0  0
   -4.7212    0.5405    1.8729 H   0  0  0  0  0  0  0  0  0  0  0  0
   -5.9688   -1.2917    2.7854 H   0  0  0  0  0  0  0  0  0  0  0  0
   -5.4382    3.7856    1.3621 H   0  0  0  0  0  0  0  0  0  0  0  0
   -3.0186    4.5530   -2.0619 H   0  0  0  0  0  0  0  0  0  0  0  0
   -1.4480    1.6190   -2.3666 H   0  0  0  0  0  0  0  0  0  0  0  0
    0.8855    1.3931   -2.9017 H   0  0  0  0  0  0  0  0  0  0  0  0
    2.3173   -0.2210   -1.6763 H   0  0  0  0  0  0  0  0  0  0  0  0
    1.3426   -1.5581    0.1745 H   0  0  0  0  0  0  0  0  0  0  0  0
   -0.9840   -1.2316    0.8585 H   0  0  0  0  0  0  0  0  0  0  0  0
   -3.0278    6.5936   -1.0922 H   0  0  0  0  0  0  0  0  0  0  0  0
   -3.8990    8.6869   -1.6405 H   0  0  0  0  0  0  0  0  0  0  0  0
   -5.4700    8.2521   -0.9413 H   0  0  0  0  0  0  0  0  0  0  0  0
   -4.4365    8.3041    1.3639 H   0  0  0  0  0  0  0  0  0  0  0  0
   -2.8973    8.7734    0.6531 H   0  0  0  0  0  0  0  0  0  0  0  0
   -3.9645   10.8500   -0.2779 H   0  0  0  0  0  0  0  0  0  0  0  0
   -5.5046   10.3749    0.4399 H   0  0  0  0  0  0  0  0  0  0  0  0
   -4.4701   10.4560    2.7212 H   0  0  0  0  0  0  0  0  0  0  0  0
   -2.9266   10.9299    2.0062 H   0  0  0  0  0  0  0  0  0  0  0  0
   -4.0040   12.9887    1.0552 H   0  0  0  0  0  0  0  0  0  0  0  0
   -5.5420   12.5108    1.7646 H   0  0  0  0  0  0  0  0  0  0  0  0
   -4.5184   12.6316    4.0577 H   0  0  0  0  0  0  0  0  0  0  0  0
   -2.9814   13.1494    3.3315 H   0  0  0  0  0  0  0  0  0  0  0  0
   -3.4302   15.0085    4.9657 H   0  0  0  0  0  0  0  0  0  0  0  0
   -5.1433   16.7139    3.5995 H   0  0  0  0  0  0  0  0  0  0  0  0
  1  2  2  0  0  0  0
  1 33  1  0  0  0  0
  2  3  1  0  0  0  0
  2 34  1  0  0  0  0
  3  4  2  0  0  0  0
  3 35  1  0  0  0  0
  4  5  1  0  0  0  0
  4  7  1  0  0  0  0
  5  6  2  0  0  0  0
  5 36  1  0  0  0  0
  6  1  1  0  0  0  0
  6 37  1  0  0  0  0
  7  8  1  0  0  0  0
  7  9  1  0  0  0  0
  8 10  2  0  0  0  0
  9 15  2  0  0  0  0
 10 11  1  0  0  0  0
 11 12  2  0  0  0  0
 11 38  1  0  0  0  0
 12 13  1  0  0  0  0
 12 20  1  0  0  0  0
 13 14  2  0  0  0  0
 13 39  1  0  0  0  0
 14  8  1  0  0  0  0
 15 16  1  0  0  0  0
 15 40  1  0  0  0  0
 16 17  2  0  0  0  0
 16 41  1  0  0  0  0
 17 18  1  0  0  0  0
 17 42  1  0  0  0  0
 18 19  2  0  0  0  0
 18 43  1  0  0  0  0
 19  9  1  0  0  0  0
 19 44  1  0  0  0  0
 20 21  1  0  0  0  0
 20 22  2  0  0  0  0
 21 23  1  0  0  0  0
 21 45  1  0  0  0  0
 23 24  1  0  0  0  0
 23 46  1  0  0  0  0
 23 47  1  0  0  0  0
 24 25  1  0  0  0  0
 24 48  1  0  0  0  0
 24 49  1  0  0  0  0
 25 26  1  0  0  0  0
 25 50  1  0  0  0  0
 25 51  1  0  0  0  0
 26 27  1  0  0  0  0
 26 52  1  0  0  0  0
 26 53  1  0  0  0  0
 27 28  1  0  0  0  0
 27 54  1  0  0  0  0
 27 55  1  0  0  0  0
 28 29  1  0  0  0  0
 28 56  1  0  0  0  0
 28 57  1  0  0  0  0
 29 30  1  0  0  0  0
 29 31  2  0  0  0  0
 30 32  1  0  0  0  0
 30 58  1  0  0  0  0
 32 59  1  0  0  0  0
M  END
>  <Mol_ID>
4113

>  <Formula>
C24H26ClN5O3

>  <MolWeight>
467.94794

>  <Cat>
S8464

>  <Name>
Citarinostat (ACY-241)

>  <Synonyms>
HDAC-IN-2

>  <Target>
HDAC

>  <Form>
free base

>  <CAS>
1316215-12-9

>  <URL>
http://selleckchem.com/products/citarinostat-acy-241.html

$$$$
