Citric acid
 OpenBabel08302520343D

 21 20  0  0  0  0  0  0  0  0999 V2000
   -0.6962   -1.6693    0.8241 C   0  0  0  0  0  0  0  0  0  0  0  0
   -0.3651   -2.8406    0.9524 O   0  0  0  0  0  0  0  0  0  0  0  0
   -1.8232   -1.3095    0.1776 O   0  0  0  0  0  0  0  0  0  0  0  0
    0.1673   -0.5194    1.2903 C   0  0  0  0  0  0  0  0  0  0  0  0
   -0.6417    0.6619    1.8347 C   0  0  0  0  0  0  0  0  0  0  0  0
    0.2936    1.7466    2.3859 C   0  0  0  0  0  0  0  0  0  0  0  0
   -0.4777    2.8782    3.0105 C   0  0  0  0  0  0  0  0  0  0  0  0
   -0.3928    3.2666    4.1593 O   0  0  0  0  0  0  0  0  0  0  0  0
   -1.3072    3.4787    2.1311 O   0  0  0  0  0  0  0  0  0  0  0  0
   -1.3656    1.1804    0.6977 O   0  0  0  0  0  0  0  0  0  0  0  0
   -1.5917    0.2007    2.9537 C   0  0  0  0  0  0  0  0  0  0  0  0
   -2.7890    0.4247    3.0064 O   0  0  0  0  0  0  0  0  0  0  0  0
   -0.9696   -0.4757    3.9332 O   0  0  0  0  0  0  0  0  0  0  0  0
   -1.9328   -0.3303    0.0965 H   0  0  0  0  0  0  0  0  0  0  0  0
    0.8408   -0.9097    2.0640 H   0  0  0  0  0  0  0  0  0  0  0  0
    0.7785   -0.2124    0.4325 H   0  0  0  0  0  0  0  0  0  0  0  0
    0.9545    1.3385    3.1587 H   0  0  0  0  0  0  0  0  0  0  0  0
    0.9240    2.1732    1.5967 H   0  0  0  0  0  0  0  0  0  0  0  0
   -1.7100    4.2177    2.6424 H   0  0  0  0  0  0  0  0  0  0  0  0
   -1.7168    2.0625    0.9547 H   0  0  0  0  0  0  0  0  0  0  0  0
   -1.6750   -0.7371    4.5642 H   0  0  0  0  0  0  0  0  0  0  0  0
  1  4  1  0  0  0  0
  1  3  1  0  0  0  0
  1  2  2  0  0  0  0
  3 14  1  0  0  0  0
  4  5  1  0  0  0  0
  4 15  1  0  0  0  0
  4 16  1  0  0  0  0
  5 10  1  0  0  0  0
  5 11  1  0  0  0  0
  5  6  1  0  0  0  0
  6  7  1  0  0  0  0
  6 17  1  0  0  0  0
  6 18  1  0  0  0  0
  7  8  2  0  0  0  0
  7  9  1  0  0  0  0
  9 19  1  0  0  0  0
 10 20  1  0  0  0  0
 11 12  2  0  0  0  0
 11 13  1  0  0  0  0
 13 21  1  0  0  0  0
M  END
>  <Mol_ID>
3402

>  <Formula>
C6H8O7

>  <MolWeight>
192.12352

>  <Cat>
S5761

>  <Name>
Citric acid

>  <Synonyms>
N/A

>  <Target>
Others

>  <Form>
Free Base

>  <CAS>
77-92-9

>  <URL>
http://www.selleckchem.com/products/citric-acid.html

$$$$
