Citraconic acid
 OpenBabel08302521293D

 15 14  0  0  0  0  0  0  0  0999 V2000
    0.7149   -0.4345    0.3440 O   0  0  0  0  0  0  0  0  0  0  0  0
    0.0731    3.5668    1.8847 O   0  0  0  0  0  0  0  0  0  0  0  0
    1.1424    1.7459    0.5845 O   0  0  0  0  0  0  0  0  0  0  0  0
   -1.8991    3.6979    2.9414 O   0  0  0  0  0  0  0  0  0  0  0  0
   -1.1222    0.9897    0.6613 C   0  0  0  0  0  0  0  0  0  0  0  0
   -2.0054   -0.0270   -0.0096 C   0  0  0  0  0  0  0  0  0  0  0  0
   -1.6881    2.0014    1.3474 C   0  0  0  0  0  0  0  0  0  0  0  0
    0.3340    0.8350    0.5322 C   0  0  0  0  0  0  0  0  0  0  0  0
   -1.1681    3.1392    2.1346 C   0  0  0  0  0  0  0  0  0  0  0  0
    1.6922   -0.4046    0.2717 H   0  0  0  0  0  0  0  0  0  0  0  0
    0.6005    3.0396    1.2441 H   0  0  0  0  0  0  0  0  0  0  0  0
   -2.6060   -0.5623    0.7336 H   0  0  0  0  0  0  0  0  0  0  0  0
   -2.6835    0.4685   -0.7139 H   0  0  0  0  0  0  0  0  0  0  0  0
   -1.4489   -0.7731   -0.5840 H   0  0  0  0  0  0  0  0  0  0  0  0
   -2.7776    2.0021    1.4097 H   0  0  0  0  0  0  0  0  0  0  0  0
  1  8  1  0  0  0  0
  1 10  1  0  0  0  0
  2  9  1  0  0  0  0
  2 11  1  0  0  0  0
  3  8  2  0  0  0  0
  4  9  2  0  0  0  0
  5  6  1  0  0  0  0
  5  7  2  0  0  0  0
  5  8  1  0  0  0  0
  6 12  1  0  0  0  0
  6 13  1  0  0  0  0
  6 14  1  0  0  0  0
  7  9  1  0  0  0  0
  7 15  1  0  0  0  0
M  END
>  <Mol_ID>
5470

>  <Formula>
C5H6O4

>  <MolWeight>
130.09874

>  <Cat>
S3159

>  <Name>
Citraconic acid

>  <Synonyms>
CA

>  <Target>
Others

>  <Form>
Free Base

>  <CAS>
498-23-7

>  <URL>
https://www.selleckchem.com/products/citraconic-acid.html

$$$$
