Citronellyl acetate
 OpenBabel08302520383D

 36 35  0  0  0  0  0  0  0  0999 V2000
    0.5168   -0.0129   -0.2284 C   0  0  3  0  0  0  0  0  0  0  0  0
    0.2077   -0.6063   -1.6283 C   0  0  0  0  0  0  0  0  0  0  0  0
    0.2659   -1.0141    0.9223 C   0  0  0  0  0  0  0  0  0  0  0  0
   -0.3232    1.2636   -0.0701 C   0  0  0  0  0  0  0  0  0  0  0  0
    1.0460   -1.8268   -2.0148 C   0  0  0  0  0  0  0  0  0  0  0  0
    0.5766   -0.4539    2.3152 C   0  0  0  0  0  0  0  0  0  0  0  0
    0.7804   -2.2656   -3.4349 C   0  0  0  0  0  0  0  0  0  0  0  0
    0.3881   -1.4581    3.3305 O   0  0  0  0  0  0  0  0  0  0  0  0
    0.2249   -3.4294   -3.8307 C   0  0  0  0  0  0  0  0  0  0  0  0
   -0.8706   -1.5500    3.8419 C   0  0  0  0  0  0  0  0  0  0  0  0
    0.1060   -3.7866   -5.2894 C   0  0  0  0  0  0  0  0  0  0  0  0
   -0.3047   -4.4602   -2.8734 C   0  0  0  0  0  0  0  0  0  0  0  0
   -0.9010   -2.4819    5.0148 C   0  0  0  0  0  0  0  0  0  0  0  0
   -1.8472   -0.9265    3.4431 O   0  0  0  0  0  0  0  0  0  0  0  0
    1.5758    0.2771   -0.2031 H   0  0  0  0  0  0  0  0  0  0  0  0
   -0.8567   -0.8653   -1.6849 H   0  0  0  0  0  0  0  0  0  0  0  0
    0.3742    0.1818   -2.3774 H   0  0  0  0  0  0  0  0  0  0  0  0
   -0.7701   -1.3715    0.8907 H   0  0  0  0  0  0  0  0  0  0  0  0
    0.8906   -1.9045    0.7830 H   0  0  0  0  0  0  0  0  0  0  0  0
   -0.1603    1.7550    0.8921 H   0  0  0  0  0  0  0  0  0  0  0  0
   -0.0598    1.9926   -0.8443 H   0  0  0  0  0  0  0  0  0  0  0  0
   -1.3925    1.0440   -0.1650 H   0  0  0  0  0  0  0  0  0  0  0  0
    2.1110   -1.5783   -1.9382 H   0  0  0  0  0  0  0  0  0  0  0  0
    0.8638   -2.6482   -1.3165 H   0  0  0  0  0  0  0  0  0  0  0  0
    1.6272   -0.1470    2.3684 H   0  0  0  0  0  0  0  0  0  0  0  0
   -0.0228    0.4276    2.5598 H   0  0  0  0  0  0  0  0  0  0  0  0
    1.1174   -1.5654   -4.1994 H   0  0  0  0  0  0  0  0  0  0  0  0
    0.5853   -4.7533   -5.4791 H   0  0  0  0  0  0  0  0  0  0  0  0
   -0.9463   -3.8590   -5.5839 H   0  0  0  0  0  0  0  0  0  0  0  0
    0.5889   -3.0502   -5.9395 H   0  0  0  0  0  0  0  0  0  0  0  0
    0.5145   -4.9193   -2.3118 H   0  0  0  0  0  0  0  0  0  0  0  0
   -1.0204   -4.0142   -2.1751 H   0  0  0  0  0  0  0  0  0  0  0  0
   -0.8316   -5.2614   -3.4040 H   0  0  0  0  0  0  0  0  0  0  0  0
   -0.8585   -1.8982    5.9381 H   0  0  0  0  0  0  0  0  0  0  0  0
   -1.8242   -3.0677    4.9853 H   0  0  0  0  0  0  0  0  0  0  0  0
   -0.0613   -3.1813    4.9874 H   0  0  0  0  0  0  0  0  0  0  0  0
  1  2  1  0  0  0  0
  1  3  1  0  0  0  0
  1  4  1  0  0  0  0
  1 15  1  0  0  0  0
  2  5  1  0  0  0  0
  2 16  1  0  0  0  0
  2 17  1  0  0  0  0
  3  6  1  0  0  0  0
  3 18  1  0  0  0  0
  3 19  1  0  0  0  0
  4 20  1  0  0  0  0
  4 21  1  0  0  0  0
  4 22  1  0  0  0  0
  5  7  1  0  0  0  0
  5 23  1  0  0  0  0
  5 24  1  0  0  0  0
  6  8  1  0  0  0  0
  6 25  1  0  0  0  0
  6 26  1  0  0  0  0
  7  9  2  0  0  0  0
  7 27  1  0  0  0  0
  8 10  1  0  0  0  0
  9 11  1  0  0  0  0
  9 12  1  0  0  0  0
 10 13  1  0  0  0  0
 10 14  2  0  0  0  0
 11 28  1  0  0  0  0
 11 29  1  0  0  0  0
 11 30  1  0  0  0  0
 12 31  1  0  0  0  0
 12 32  1  0  0  0  0
 12 33  1  0  0  0  0
 13 34  1  0  0  0  0
 13 35  1  0  0  0  0
 13 36  1  0  0  0  0
M  END
>  <Mol_ID>
3450

>  <Formula>
C12H22O2

>  <MolWeight>
198.30188

>  <Cat>
S5827

>  <Name>
Citronellyl acetate

>  <Synonyms>
Citronellol acetate

>  <Target>
Others

>  <Form>
Free Base

>  <CAS>
150-84-5

>  <URL>
http://www.selleckchem.com/products/citronellyl-acetate.html

$$$$
