CK-1827452.cdx
 OpenBabel08302521403D

 53 55  0  0  0  0  0  0  0  0999 V2000
   -7.4112   -4.2725   -1.6574 C   0  0  0  0  0  0  0  0  0  0  0  0
   -8.1742   -3.2338   -1.2636 N   0  0  0  0  0  0  0  0  0  0  0  0
   -7.5413   -2.0839   -0.9226 C   0  0  0  0  0  0  0  0  0  0  0  0
   -6.1606   -1.9023   -0.9456 C   0  0  0  0  0  0  0  0  0  0  0  0
   -5.3932   -3.0051   -1.3220 C   0  0  0  0  0  0  0  0  0  0  0  0
   -6.0226   -4.1997   -1.6927 C   0  0  0  0  0  0  0  0  0  0  0  0
   -8.1543   -5.5048   -2.0699 C   0  0  0  0  0  0  0  0  0  0  0  0
   -5.5077   -0.6826   -0.6414 N   0  0  0  0  0  0  0  0  0  0  0  0
   -6.1450    0.5204   -0.4077 C   0  0  0  0  0  0  0  0  0  0  0  0
   -5.2498    1.5739   -0.2690 N   0  0  0  0  0  0  0  0  0  0  0  0
   -5.7282    2.8869   -0.0040 C   0  0  0  0  0  0  0  0  0  0  0  0
   -7.3606    0.6766   -0.3758 O   0  0  0  0  0  0  0  0  0  0  0  0
   -5.2706    3.9519   -0.7863 C   0  0  0  0  0  0  0  0  0  0  0  0
   -5.7909    5.2443   -0.6289 C   0  0  0  0  0  0  0  0  0  0  0  0
   -6.7026    5.4733    0.4145 C   0  0  0  0  0  0  0  0  0  0  0  0
   -7.1458    4.4198    1.2169 C   0  0  0  0  0  0  0  0  0  0  0  0
   -6.6813    3.1243    0.9918 C   0  0  0  0  0  0  0  0  0  0  0  0
   -4.4037    3.6971   -1.7812 F   0  0  0  0  0  0  0  0  0  0  0  0
   -5.4765    6.3437   -1.6188 C   0  0  0  0  0  0  0  0  0  0  0  0
   -4.1508    6.9528   -1.4667 N   0  0  0  0  0  0  0  0  0  0  0  0
   -3.9912    7.7385   -0.2277 C   0  0  0  0  0  0  0  0  0  0  0  0
   -4.7064    9.1020   -0.1986 C   0  0  0  0  0  0  0  0  0  0  0  0
   -4.4661    9.8967   -1.4004 N   0  0  0  0  0  0  0  0  0  0  0  0
   -4.5409    9.1832   -2.6664 C   0  0  0  0  0  0  0  0  0  0  0  0
   -3.8255    7.8160   -2.6279 C   0  0  0  0  0  0  0  0  0  0  0  0
   -4.6386   11.2729   -1.4076 C   0  0  0  0  0  0  0  0  0  0  0  0
   -4.6804   11.9523   -2.4245 O   0  0  0  0  0  0  0  0  0  0  0  0
   -4.7552   11.7882   -0.1528 O   0  0  0  0  0  0  0  0  0  0  0  0
   -4.9328   13.2054   -0.1043 C   0  0  0  0  0  0  0  0  0  0  0  0
   -8.2319   -1.3074   -0.6158 H   0  0  0  0  0  0  0  0  0  0  0  0
   -4.3093   -2.9497   -1.3633 H   0  0  0  0  0  0  0  0  0  0  0  0
   -5.4323   -5.0511   -2.0159 H   0  0  0  0  0  0  0  0  0  0  0  0
   -8.7696   -5.8610   -1.2375 H   0  0  0  0  0  0  0  0  0  0  0  0
   -8.8110   -5.2715   -2.9148 H   0  0  0  0  0  0  0  0  0  0  0  0
   -7.4791   -6.3102   -2.3709 H   0  0  0  0  0  0  0  0  0  0  0  0
   -4.4996   -0.6915   -0.5928 H   0  0  0  0  0  0  0  0  0  0  0  0
   -4.4533    1.5363   -0.8929 H   0  0  0  0  0  0  0  0  0  0  0  0
   -7.1022    6.4698    0.5875 H   0  0  0  0  0  0  0  0  0  0  0  0
   -7.8842    4.5991    1.9963 H   0  0  0  0  0  0  0  0  0  0  0  0
   -7.0774    2.3067    1.5900 H   0  0  0  0  0  0  0  0  0  0  0  0
   -5.5538    5.8835   -2.6138 H   0  0  0  0  0  0  0  0  0  0  0  0
   -6.2728    7.0980   -1.5913 H   0  0  0  0  0  0  0  0  0  0  0  0
   -4.2860    7.1555    0.6511 H   0  0  0  0  0  0  0  0  0  0  0  0
   -2.9157    7.9201   -0.1012 H   0  0  0  0  0  0  0  0  0  0  0  0
   -5.7915    8.9717   -0.1114 H   0  0  0  0  0  0  0  0  0  0  0  0
   -4.3716    9.6536    0.6870 H   0  0  0  0  0  0  0  0  0  0  0  0
   -5.6038    9.0531   -2.9088 H   0  0  0  0  0  0  0  0  0  0  0  0
   -4.1030    9.7967   -3.4678 H   0  0  0  0  0  0  0  0  0  0  0  0
   -2.7428    7.9956   -2.6053 H   0  0  0  0  0  0  0  0  0  0  0  0
   -4.0105    7.2771   -3.5662 H   0  0  0  0  0  0  0  0  0  0  0  0
   -4.0943   13.7216   -0.5822 H   0  0  0  0  0  0  0  0  0  0  0  0
   -5.8821   13.4871   -0.5689 H   0  0  0  0  0  0  0  0  0  0  0  0
   -4.9624   13.5023    0.9487 H   0  0  0  0  0  0  0  0  0  0  0  0
  1  2  2  0  0  0  0
  1  7  1  0  0  0  0
  2  3  1  0  0  0  0
  3  4  2  0  0  0  0
  3 30  1  0  0  0  0
  4  5  1  0  0  0  0
  4  8  1  0  0  0  0
  5  6  2  0  0  0  0
  5 31  1  0  0  0  0
  6  1  1  0  0  0  0
  6 32  1  0  0  0  0
  7 33  1  0  0  0  0
  7 34  1  0  0  0  0
  7 35  1  0  0  0  0
  8  9  1  0  0  0  0
  8 36  1  0  0  0  0
  9 10  1  0  0  0  0
  9 12  2  0  0  0  0
 10 11  1  0  0  0  0
 10 37  1  0  0  0  0
 11 13  2  0  0  0  0
 13 14  1  0  0  0  0
 13 18  1  0  0  0  0
 14 15  2  0  0  0  0
 14 19  1  0  0  0  0
 15 16  1  0  0  0  0
 15 38  1  0  0  0  0
 16 17  2  0  0  0  0
 16 39  1  0  0  0  0
 17 11  1  0  0  0  0
 17 40  1  0  0  0  0
 19 20  1  0  0  0  0
 19 41  1  0  0  0  0
 19 42  1  0  0  0  0
 20 21  1  0  0  0  0
 21 22  1  0  0  0  0
 21 43  1  0  0  0  0
 21 44  1  0  0  0  0
 22 23  1  0  0  0  0
 22 45  1  0  0  0  0
 22 46  1  0  0  0  0
 23 24  1  0  0  0  0
 23 26  1  0  0  0  0
 24 25  1  0  0  0  0
 24 47  1  0  0  0  0
 24 48  1  0  0  0  0
 25 20  1  0  0  0  0
 25 49  1  0  0  0  0
 25 50  1  0  0  0  0
 26 27  2  0  0  0  0
 26 28  1  0  0  0  0
 28 29  1  0  0  0  0
 29 51  1  0  0  0  0
 29 52  1  0  0  0  0
 29 53  1  0  0  0  0
M  END
>  <Mol_ID>
809

>  <Formula>
C20H24FN5O3

>  <MolWeight>
401.4346632

>  <Cat>
S2623

>  <Name>
Omecamtiv mecarbil (CK-1827452)

>  <Synonyms>
N/A

>  <Target>
ATPase

>  <Form>
free base

>  <CAS>
873697-71-3

>  <URL>
http://selleckchem.com/products/Omecamtiv-mecarbil-CK-1827452.html

$$$$
