CK-869
 OpenBabel08302521313D

 39 41  0  0  0  0  0  0  0  0999 V2000
   -0.2573    0.9061   -2.3784 Br  0  0  0  0  0  0  0  0  0  0  0  0
    3.7658   -3.1045   -1.2032 S   0  0  0  0  0  0  0  0  0  0  0  0
    3.1714   -5.2899    1.9443 O   0  0  0  0  0  0  0  0  0  0  0  0
   -0.2717   -3.2886    1.4897 O   0  0  0  0  0  0  0  0  0  0  0  0
    0.1550   -1.0778    5.6593 O   0  0  0  0  0  0  0  0  0  0  0  0
    2.7343   -3.1214    1.1652 N   0  0  0  0  0  0  0  0  0  0  0  0
    3.3808   -2.1528    0.2931 C   0  0  3  0  0  0  0  0  0  0  0  0
    2.6541   -0.8328    0.0799 C   0  0  0  0  0  0  0  0  0  0  0  0
    2.0329   -2.7229    2.3165 C   0  0  0  0  0  0  0  0  0  0  0  0
    3.2468   -4.4262    1.0792 C   0  0  0  0  0  0  0  0  0  0  0  0
    3.8278   -4.6776   -0.2937 C   0  0  0  0  0  0  0  0  0  0  0  0
    0.6313   -2.7687    2.3738 C   0  0  0  0  0  0  0  0  0  0  0  0
    2.7614   -2.2330    3.4168 C   0  0  0  0  0  0  0  0  0  0  0  0
    1.7154   -0.5858   -0.9468 C   0  0  0  0  0  0  0  0  0  0  0  0
    2.8793    0.2185    0.9976 C   0  0  0  0  0  0  0  0  0  0  0  0
   -0.0104   -2.2183    3.4893 C   0  0  0  0  0  0  0  0  0  0  0  0
    2.0943   -1.7127    4.5271 C   0  0  0  0  0  0  0  0  0  0  0  0
    0.7024   -1.6697    4.5551 C   0  0  0  0  0  0  0  0  0  0  0  0
    1.0238    0.6279   -1.0124 C   0  0  0  0  0  0  0  0  0  0  0  0
    2.1897    1.4327    0.9243 C   0  0  0  0  0  0  0  0  0  0  0  0
    1.2505    1.6362   -0.0809 C   0  0  0  0  0  0  0  0  0  0  0  0
    0.1163   -3.7486    0.2113 C   0  0  0  0  0  0  0  0  0  0  0  0
   -1.2594   -0.9137    5.6484 C   0  0  0  0  0  0  0  0  0  0  0  0
    4.3635   -1.9267    0.7248 H   0  0  0  0  0  0  0  0  0  0  0  0
    3.2095   -5.4229   -0.8051 H   0  0  0  0  0  0  0  0  0  0  0  0
    4.8565   -5.0283   -0.2102 H   0  0  0  0  0  0  0  0  0  0  0  0
    3.8482   -2.2530    3.4185 H   0  0  0  0  0  0  0  0  0  0  0  0
    1.5094   -1.3450   -1.6965 H   0  0  0  0  0  0  0  0  0  0  0  0
    3.5969    0.0893    1.8090 H   0  0  0  0  0  0  0  0  0  0  0  0
   -1.0976   -2.2322    3.4898 H   0  0  0  0  0  0  0  0  0  0  0  0
    2.6617   -1.3356    5.3758 H   0  0  0  0  0  0  0  0  0  0  0  0
    2.3764    2.2100    1.6605 H   0  0  0  0  0  0  0  0  0  0  0  0
    0.7070    2.5752   -0.1268 H   0  0  0  0  0  0  0  0  0  0  0  0
    0.4786   -2.9249   -0.4019 H   0  0  0  0  0  0  0  0  0  0  0  0
    0.8296   -4.5728    0.2574 H   0  0  0  0  0  0  0  0  0  0  0  0
   -0.7744   -4.1435   -0.2859 H   0  0  0  0  0  0  0  0  0  0  0  0
   -1.5835   -0.3066    4.7947 H   0  0  0  0  0  0  0  0  0  0  0  0
   -1.7656   -1.8846    5.6570 H   0  0  0  0  0  0  0  0  0  0  0  0
   -1.5436   -0.3818    6.5597 H   0  0  0  0  0  0  0  0  0  0  0  0
  1 19  1  0  0  0  0
  2  7  1  0  0  0  0
  2 11  1  0  0  0  0
  3 10  2  0  0  0  0
  4 12  1  0  0  0  0
  4 22  1  0  0  0  0
  5 18  1  0  0  0  0
  5 23  1  0  0  0  0
  6  7  1  0  0  0  0
  6  9  1  0  0  0  0
  6 10  1  0  0  0  0
  7  8  1  0  0  0  0
  7 24  1  0  0  0  0
  8 14  2  0  0  0  0
  8 15  1  0  0  0  0
  9 12  2  0  0  0  0
  9 13  1  0  0  0  0
 10 11  1  0  0  0  0
 11 25  1  0  0  0  0
 11 26  1  0  0  0  0
 12 16  1  0  0  0  0
 13 17  2  0  0  0  0
 13 27  1  0  0  0  0
 14 19  1  0  0  0  0
 14 28  1  0  0  0  0
 15 20  2  0  0  0  0
 15 29  1  0  0  0  0
 16 18  2  0  0  0  0
 16 30  1  0  0  0  0
 17 18  1  0  0  0  0
 17 31  1  0  0  0  0
 19 21  2  0  0  0  0
 20 21  1  0  0  0  0
 20 32  1  0  0  0  0
 21 33  1  0  0  0  0
 22 34  1  0  0  0  0
 22 35  1  0  0  0  0
 22 36  1  0  0  0  0
 23 37  1  0  0  0  0
 23 38  1  0  0  0  0
 23 39  1  0  0  0  0
M  END
>  <Mol_ID>
5911

>  <Formula>
C17H16BrNO3S

>  <MolWeight>
394.28284

>  <Cat>
S6954

>  <Name>
CK-869

>  <Synonyms>
CK 0157869

>  <Target>
Microtubule Associated

>  <Form>
Free Base

>  <CAS>
388592-44-7

>  <URL>
http://www.selleckchem.com/products/ck-869.html

$$$$
