CL-101276
 OpenBabel08302521433D

 28 29  0  0  0  0  0  0  0  0999 V2000
    1.4079   -0.1999    0.1141 C   0  0  0  0  0  0  0  0  0  0  0  0
    2.8678   -0.5063    0.1936 C   0  0  0  0  0  0  0  0  0  0  0  0
    0.5874   -1.0978   -0.5847 C   0  0  0  0  0  0  0  0  0  0  0  0
    0.8195    0.8952    0.7635 C   0  0  0  0  0  0  0  0  0  0  0  0
    3.7382    0.5524    0.2982 N   0  0  0  0  0  0  0  0  0  0  0  0
    3.2460   -1.6792    0.1569 O   0  0  0  0  0  0  0  0  0  0  0  0
   -0.7972   -0.9181   -0.6235 C   0  0  0  0  0  0  0  0  0  0  0  0
   -0.5717    1.0590    0.7410 C   0  0  0  0  0  0  0  0  0  0  0  0
    5.1768    0.3588    0.3645 C   0  0  0  0  0  0  0  0  0  0  0  0
   -1.3787    0.1532    0.0514 C   0  0  0  0  0  0  0  0  0  0  0  0
    5.8426    0.3244   -0.9928 C   0  0  0  0  0  0  0  0  0  0  0  0
    5.9865   -0.8824   -1.6754 C   0  0  0  0  0  0  0  0  0  0  0  0
    6.2979    1.5032   -1.4945 N   0  0  0  0  0  0  0  0  0  0  0  0
    6.6569   -0.8924   -2.8951 C   0  0  0  0  0  0  0  0  0  0  0  0
    6.9384    1.4605   -2.6852 C   0  0  0  0  0  0  0  0  0  0  0  0
    7.1497    0.3000   -3.4098 C   0  0  0  0  0  0  0  0  0  0  0  0
    1.0289   -1.9484   -1.1013 H   0  0  0  0  0  0  0  0  0  0  0  0
    1.4131    1.6146    1.3184 H   0  0  0  0  0  0  0  0  0  0  0  0
    3.4107    1.5027    0.1854 H   0  0  0  0  0  0  0  0  0  0  0  0
   -1.4201   -1.6208   -1.1710 H   0  0  0  0  0  0  0  0  0  0  0  0
   -1.0317    1.8899    1.2716 H   0  0  0  0  0  0  0  0  0  0  0  0
    5.5826    1.1981    0.9411 H   0  0  0  0  0  0  0  0  0  0  0  0
    5.4108   -0.5567    0.9217 H   0  0  0  0  0  0  0  0  0  0  0  0
   -2.4590    0.2804    0.0407 H   0  0  0  0  0  0  0  0  0  0  0  0
    5.5911   -1.8047   -1.2582 H   0  0  0  0  0  0  0  0  0  0  0  0
    6.7980   -1.8255   -3.4329 H   0  0  0  0  0  0  0  0  0  0  0  0
    7.2966    2.4186   -3.0506 H   0  0  0  0  0  0  0  0  0  0  0  0
    7.6843    0.3236   -4.3524 H   0  0  0  0  0  0  0  0  0  0  0  0
  1  2  1  0  0  0  0
  1  3  2  0  0  0  0
  1  4  1  0  0  0  0
  2  5  1  0  0  0  0
  2  6  2  0  0  0  0
  3  7  1  0  0  0  0
  3 17  1  0  0  0  0
  4  8  2  0  0  0  0
  4 18  1  0  0  0  0
  5  9  1  0  0  0  0
  5 19  1  0  0  0  0
  7 10  2  0  0  0  0
  7 20  1  0  0  0  0
  8 10  1  0  0  0  0
  8 21  1  0  0  0  0
  9 11  1  0  0  0  0
  9 22  1  0  0  0  0
  9 23  1  0  0  0  0
 10 24  1  0  0  0  0
 11 12  2  0  0  0  0
 11 13  1  0  0  0  0
 12 14  1  0  0  0  0
 12 25  1  0  0  0  0
 13 15  2  0  0  0  0
 14 16  2  0  0  0  0
 14 26  1  0  0  0  0
 15 16  1  0  0  0  0
 15 27  1  0  0  0  0
 16 28  1  0  0  0  0
M  END
>  <Mol_ID>
8846

>  <Formula>
C13H12N2O

>  <MolWeight>
212.24718

>  <Cat>
P2001

>  <Name>
CL-101276

>  <Synonyms>
N/A

>  <Target>
IL-4

>  <Form>
free base

>  <CAS>
868269-29-8

>  <URL>
N/A

$$$$
