CL-219782
 OpenBabel08302521423D

 32 34  0  0  0  0  0  0  0  0999 V2000
   -0.3438   -1.0918    0.1036 N   0  0  0  0  0  0  0  0  0  0  0  0
   -0.7208   -2.4591    0.0186 C   0  0  0  0  0  0  0  0  0  0  0  0
   -1.1425    0.0278   -0.0070 C   0  0  0  0  0  0  0  0  0  0  0  0
    0.9558   -0.7439    0.2997 N   0  0  0  0  0  0  0  0  0  0  0  0
   -2.0414   -2.8341   -0.2666 C   0  0  0  0  0  0  0  0  0  0  0  0
    0.2500   -3.4522    0.2262 C   0  0  0  0  0  0  0  0  0  0  0  0
   -0.3283    1.1358    0.1228 C   0  0  0  0  0  0  0  0  0  0  0  0
    0.9525    0.5861    0.3215 C   0  0  0  0  0  0  0  0  0  0  0  0
   -2.3751   -4.1868   -0.3599 C   0  0  0  0  0  0  0  0  0  0  0  0
   -0.0942   -4.8019    0.1423 C   0  0  0  0  0  0  0  0  0  0  0  0
   -0.7475    2.5252    0.0885 C   0  0  0  0  0  0  0  0  0  0  0  0
   -1.4047   -5.1667   -0.1569 C   0  0  0  0  0  0  0  0  0  0  0  0
    0.2008    3.5527   -0.4164 C   0  0  0  0  0  0  0  0  0  0  0  0
   -1.8476    2.8893    0.4943 O   0  0  0  0  0  0  0  0  0  0  0  0
    0.1611    4.8579    0.0907 C   0  0  0  0  0  0  0  0  0  0  0  0
    1.1336    3.2351   -1.4180 C   0  0  0  0  0  0  0  0  0  0  0  0
    1.0605    5.8177   -0.3707 C   0  0  0  0  0  0  0  0  0  0  0  0
   -0.7164    5.2641    1.0599 O   0  0  0  0  0  0  0  0  0  0  0  0
    2.0489    4.1904   -1.8584 C   0  0  0  0  0  0  0  0  0  0  0  0
    2.0112    5.4804   -1.3353 C   0  0  0  0  0  0  0  0  0  0  0  0
   -2.2077   -0.0375   -0.1692 H   0  0  0  0  0  0  0  0  0  0  0  0
   -2.8272   -2.1042   -0.4330 H   0  0  0  0  0  0  0  0  0  0  0  0
    1.2794   -3.1893    0.4631 H   0  0  0  0  0  0  0  0  0  0  0  0
    1.8931    1.1001    0.4807 H   0  0  0  0  0  0  0  0  0  0  0  0
   -3.3964   -4.4779   -0.5931 H   0  0  0  0  0  0  0  0  0  0  0  0
    0.6612   -5.5629    0.3072 H   0  0  0  0  0  0  0  0  0  0  0  0
   -1.6707   -6.2192   -0.2266 H   0  0  0  0  0  0  0  0  0  0  0  0
    1.1644    2.2470   -1.8708 H   0  0  0  0  0  0  0  0  0  0  0  0
    1.0246    6.8294    0.0259 H   0  0  0  0  0  0  0  0  0  0  0  0
   -1.3741    4.5516    1.2103 H   0  0  0  0  0  0  0  0  0  0  0  0
    2.7879    3.9262   -2.6109 H   0  0  0  0  0  0  0  0  0  0  0  0
    2.7205    6.2274   -1.6832 H   0  0  0  0  0  0  0  0  0  0  0  0
  1  2  1  0  0  0  0
  1  3  1  0  0  0  0
  1  4  1  0  0  0  0
  2  5  2  0  0  0  0
  2  6  1  0  0  0  0
  3  7  2  0  0  0  0
  3 21  1  0  0  0  0
  4  8  2  0  0  0  0
  5  9  1  0  0  0  0
  5 22  1  0  0  0  0
  6 10  2  0  0  0  0
  6 23  1  0  0  0  0
  7 11  1  0  0  0  0
  7  8  1  0  0  0  0
  8 24  1  0  0  0  0
  9 12  2  0  0  0  0
  9 25  1  0  0  0  0
 10 12  1  0  0  0  0
 10 26  1  0  0  0  0
 11 13  1  0  0  0  0
 11 14  2  0  0  0  0
 12 27  1  0  0  0  0
 13 15  2  0  0  0  0
 13 16  1  0  0  0  0
 15 17  1  0  0  0  0
 15 18  1  0  0  0  0
 16 19  2  0  0  0  0
 16 28  1  0  0  0  0
 17 20  2  0  0  0  0
 17 29  1  0  0  0  0
 18 30  1  0  0  0  0
 19 20  1  0  0  0  0
 19 31  1  0  0  0  0
 20 32  1  0  0  0  0
M  END
>  <Mol_ID>
8556

>  <Formula>
C16H12N2O2

>  <MolWeight>
264.27868

>  <Cat>
P2002

>  <Name>
CL-219782

>  <Synonyms>
N/A

>  <Target>
Anti-infection

>  <Form>
free base

>  <CAS>
853693-74-0

>  <URL>
N/A

$$$$
