CL-2660
 OpenBabel08302521423D

 27 28  0  0  0  0  0  0  0  0999 V2000
   -0.4009    0.9482    0.0155 C   0  0  0  0  0  0  0  0  0  0  0  0
   -0.5600   -0.4026   -0.2477 C   0  0  0  0  0  0  0  0  0  0  0  0
    0.8802    1.4990    0.1844 O   0  0  0  0  0  0  0  0  0  0  0  0
   -1.4863    1.8151    0.1751 C   0  0  0  0  0  0  0  0  0  0  0  0
    0.6408   -1.2269   -0.4158 C   0  0  0  0  0  0  0  0  0  0  0  0
   -1.8668   -0.9086   -0.2976 C   0  0  0  0  0  0  0  0  0  0  0  0
    2.0214    0.7060    0.2084 C   0  0  0  0  0  0  0  0  0  0  0  0
   -2.7779    1.2999    0.1112 C   0  0  0  0  0  0  0  0  0  0  0  0
    1.8593   -0.7297   -0.1254 C   0  0  0  0  0  0  0  0  0  0  0  0
    0.3932   -2.5162   -0.8603 O   0  0  0  0  0  0  0  0  0  0  0  0
   -2.9688   -0.0630   -0.1099 C   0  0  0  0  0  0  0  0  0  0  0  0
    3.1054    1.2266    0.4415 O   0  0  0  0  0  0  0  0  0  0  0  0
    3.0213   -1.6615   -0.1230 C   0  0  0  0  0  0  0  0  0  0  0  0
    4.0137   -1.1986    0.6637 O   0  0  0  0  0  0  0  0  0  0  0  0
    3.0037   -2.7523   -0.6860 O   0  0  0  0  0  0  0  0  0  0  0  0
    5.1296   -2.0462    0.9781 C   0  0  0  0  0  0  0  0  0  0  0  0
    6.0897   -2.2173   -0.1850 C   0  0  0  0  0  0  0  0  0  0  0  0
   -1.3235    2.8694    0.3648 H   0  0  0  0  0  0  0  0  0  0  0  0
   -2.0418   -1.9691   -0.4628 H   0  0  0  0  0  0  0  0  0  0  0  0
   -3.6341    1.9571    0.2471 H   0  0  0  0  0  0  0  0  0  0  0  0
    1.2446   -2.9511   -1.0903 H   0  0  0  0  0  0  0  0  0  0  0  0
   -3.9763   -0.4705   -0.1342 H   0  0  0  0  0  0  0  0  0  0  0  0
    5.6561   -1.5441    1.7966 H   0  0  0  0  0  0  0  0  0  0  0  0
    4.7814   -3.0103    1.3657 H   0  0  0  0  0  0  0  0  0  0  0  0
    6.0322   -1.3877   -0.8950 H   0  0  0  0  0  0  0  0  0  0  0  0
    7.1183   -2.3005    0.1829 H   0  0  0  0  0  0  0  0  0  0  0  0
    5.8695   -3.1430   -0.7262 H   0  0  0  0  0  0  0  0  0  0  0  0
  1  2  2  0  0  0  0
  1  3  1  0  0  0  0
  1  4  1  0  0  0  0
  2  5  1  0  0  0  0
  2  6  1  0  0  0  0
  3  7  1  0  0  0  0
  4  8  2  0  0  0  0
  4 18  1  0  0  0  0
  5  9  2  0  0  0  0
  5 10  1  0  0  0  0
  6 11  2  0  0  0  0
  6 19  1  0  0  0  0
  7 12  2  0  0  0  0
  7  9  1  0  0  0  0
  8 11  1  0  0  0  0
  8 20  1  0  0  0  0
  9 13  1  0  0  0  0
 10 21  1  0  0  0  0
 11 22  1  0  0  0  0
 13 14  1  0  0  0  0
 13 15  2  0  0  0  0
 14 16  1  0  0  0  0
 16 17  1  0  0  0  0
 16 23  1  0  0  0  0
 16 24  1  0  0  0  0
 17 25  1  0  0  0  0
 17 26  1  0  0  0  0
 17 27  1  0  0  0  0
M  END
>  <Mol_ID>
8558

>  <Formula>
C12H10O5

>  <MolWeight>
234.2048

>  <Cat>
P2005

>  <Name>
CL-2660

>  <Synonyms>
N/A

>  <Target>
Immunology & Inflammation related

>  <Form>
free base

>  <CAS>
853694-34-5

>  <URL>
N/A

$$$$
