CL-380803
 OpenBabel08302521393D

 37 39  0  0  0  0  0  0  0  0999 V2000
    0.7469   -0.1512   -0.1023 C   0  0  0  0  0  0  0  0  0  0  0  0
   -0.6450   -0.1387   -0.1959 C   0  0  0  0  0  0  0  0  0  0  0  0
    1.4043    1.0673    0.0624 C   0  0  0  0  0  0  0  0  0  0  0  0
    1.6448   -1.2370   -0.1075 N   0  3  0  0  0  0  0  0  0  0  0  0
   -1.4096    1.0255   -0.0455 C   0  0  0  0  0  0  0  0  0  0  0  0
   -1.5792   -1.4765   -0.5426 S   0  0  0  0  0  0  0  0  0  0  0  0
    0.6955    2.2711    0.1562 C   0  0  0  0  0  0  0  0  0  0  0  0
    3.0941    0.8341    0.1246 S   0  0  0  0  0  0  0  0  0  0  0  0
    2.9275   -0.8576   -0.0348 C   0  0  0  0  0  0  0  0  0  0  0  0
    1.3582   -2.6922   -0.2133 C   0  0  0  0  0  0  0  0  0  0  0  0
   -0.7102    2.2506    0.1095 C   0  0  0  0  0  0  0  0  0  0  0  0
   -2.8067    0.6840   -0.0236 C   0  0  0  0  0  0  0  0  0  0  0  0
   -3.0375   -0.6366   -0.3277 C   0  0  0  0  0  0  0  0  0  0  0  0
    4.1472   -1.7207   -0.0608 C   0  0  0  0  0  0  0  0  0  0  0  0
    1.5648   -3.4471    1.1094 C   0  0  0  0  0  0  0  0  0  0  0  0
   -1.2829    3.4967    0.3326 O   0  0  0  0  0  0  0  0  0  0  0  0
    1.1840   -4.9306    1.0365 C   0  0  0  0  0  0  0  0  0  0  0  0
   -2.4237    3.8100   -0.4607 C   0  0  0  0  0  0  0  0  0  0  0  0
    1.9842   -5.7779   -0.2990 S   0  0  0  0  0  0  0  0  0  0  0  0
    3.3723   -5.3519   -0.1423 O   0  0  0  0  0  0  0  0  0  0  0  0
    1.6983   -7.1802   -0.0407 O   0  0  0  0  0  0  0  0  0  0  0  0
    1.3089   -5.2023   -1.4603 O   0  5  0  0  0  0  0  0  0  0  0  0
    1.2173    3.2181    0.2853 H   0  0  0  0  0  0  0  0  0  0  0  0
    0.3639   -2.8975   -0.5800 H   0  0  0  0  0  0  0  0  0  0  0  0
    2.0203   -3.0528   -1.0039 H   0  0  0  0  0  0  0  0  0  0  0  0
   -3.6179    1.3685    0.1841 H   0  0  0  0  0  0  0  0  0  0  0  0
   -3.9912   -1.1399   -0.4212 H   0  0  0  0  0  0  0  0  0  0  0  0
    4.2698   -2.2498    0.8875 H   0  0  0  0  0  0  0  0  0  0  0  0
    4.1085   -2.4450   -0.8776 H   0  0  0  0  0  0  0  0  0  0  0  0
    5.0565   -1.1267   -0.2036 H   0  0  0  0  0  0  0  0  0  0  0  0
    2.6109   -3.3870    1.4187 H   0  0  0  0  0  0  0  0  0  0  0  0
    0.9930   -2.9674    1.9115 H   0  0  0  0  0  0  0  0  0  0  0  0
    1.4886   -5.4303    1.9633 H   0  0  0  0  0  0  0  0  0  0  0  0
    0.1035   -5.0551    0.9180 H   0  0  0  0  0  0  0  0  0  0  0  0
   -2.3451    3.4231   -1.4821 H   0  0  0  0  0  0  0  0  0  0  0  0
   -3.3341    3.4586    0.0297 H   0  0  0  0  0  0  0  0  0  0  0  0
   -2.5032    4.9007   -0.5171 H   0  0  0  0  0  0  0  0  0  0  0  0
  1  2  2  0  0  0  0
  1  3  1  0  0  0  0
  1  4  1  0  0  0  0
  2  5  1  0  0  0  0
  2  6  1  0  0  0  0
  3  7  2  0  0  0  0
  3  8  1  0  0  0  0
  4  9  2  0  0  0  0
  4 10  1  0  0  0  0
  5 11  2  0  0  0  0
  5 12  1  0  0  0  0
  6 13  1  0  0  0  0
  7 11  1  0  0  0  0
  7 23  1  0  0  0  0
  8  9  1  0  0  0  0
  9 14  1  0  0  0  0
 10 15  1  0  0  0  0
 10 24  1  0  0  0  0
 10 25  1  0  0  0  0
 11 16  1  0  0  0  0
 12 13  2  0  0  0  0
 12 26  1  0  0  0  0
 13 27  1  0  0  0  0
 14 28  1  0  0  0  0
 14 29  1  0  0  0  0
 14 30  1  0  0  0  0
 15 17  1  0  0  0  0
 15 31  1  0  0  0  0
 15 32  1  0  0  0  0
 16 18  1  0  0  0  0
 17 19  1  0  0  0  0
 17 33  1  0  0  0  0
 17 34  1  0  0  0  0
 18 35  1  0  0  0  0
 18 36  1  0  0  0  0
 18 37  1  0  0  0  0
 19 20  2  0  0  0  0
 19 21  2  0  0  0  0
 19 22  1  0  0  0  0
M  CHG  2   4   1  22  -1
M  END
>  <Mol_ID>
8060

>  <Formula>
C14H15NO4S3

>  <MolWeight>
357.4682

>  <Cat>
P2014

>  <Name>
CL-380803

>  <Synonyms>
N/A

>  <Target>
TNFa

>  <Form>
free base

>  <CAS>
297148-55-1

>  <URL>
N/A

$$$$
