CL-349010
 OpenBabel08302521433D

 22 23  0  0  0  0  0  0  0  0999 V2000
    0.2594    0.7131   -0.0003 N   0  0  0  0  0  0  0  0  0  0  0  0
    0.2941   -0.6879   -0.0018 C   0  0  0  0  0  0  0  0  0  0  0  0
    1.5186    1.1997   -0.0011 N   0  0  0  0  0  0  0  0  0  0  0  0
   -0.9496    1.4139    0.0031 C   0  0  0  0  0  0  0  0  0  0  0  0
    1.5486   -1.0898   -0.0039 N   0  0  0  0  0  0  0  0  0  0  0  0
   -0.8538   -1.4334   -0.0004 N   0  0  0  0  0  0  0  0  0  0  0  0
    2.2693    0.0904   -0.0030 C   0  0  0  0  0  0  0  0  0  0  0  0
   -2.0996    0.7185    0.0044 C   0  0  0  0  0  0  0  0  0  0  0  0
   -0.9053    2.9098    0.0060 C   0  0  0  0  0  0  0  0  0  0  0  0
   -1.9774   -0.7741    0.0031 C   0  0  0  0  0  0  0  0  0  0  0  0
    3.7442    0.0834   -0.0025 C   0  0  0  0  0  0  0  0  0  0  0  0
   -3.2723   -1.5510    0.0077 C   0  0  0  0  0  0  0  0  0  0  0  0
    4.2621   -1.1802   -0.0029 O   0  0  0  0  0  0  0  0  0  0  0  0
    4.4592    1.0760   -0.0012 O   0  0  0  0  0  0  0  0  0  0  0  0
   -3.0793    1.1777    0.0069 H   0  0  0  0  0  0  0  0  0  0  0  0
   -0.3872    3.2785    0.8974 H   0  0  0  0  0  0  0  0  0  0  0  0
   -0.3858    3.2826   -0.8828 H   0  0  0  0  0  0  0  0  0  0  0  0
   -1.9118    3.3417    0.0062 H   0  0  0  0  0  0  0  0  0  0  0  0
   -3.3205   -2.1846   -0.8820 H   0  0  0  0  0  0  0  0  0  0  0  0
   -3.3172   -2.1784    0.9021 H   0  0  0  0  0  0  0  0  0  0  0  0
   -4.1382   -0.8825    0.0071 H   0  0  0  0  0  0  0  0  0  0  0  0
    3.5188   -1.8239   -0.0034 H   0  0  0  0  0  0  0  0  0  0  0  0
  1  2  1  0  0  0  0
  1  3  1  0  0  0  0
  1  4  1  0  0  0  0
  2  5  2  0  0  0  0
  2  6  1  0  0  0  0
  3  7  2  0  0  0  0
  4  8  2  0  0  0  0
  4  9  1  0  0  0  0
  5  7  1  0  0  0  0
  6 10  2  0  0  0  0
  7 11  1  0  0  0  0
  8 10  1  0  0  0  0
  8 15  1  0  0  0  0
  9 16  1  0  0  0  0
  9 17  1  0  0  0  0
  9 18  1  0  0  0  0
 10 12  1  0  0  0  0
 11 13  1  0  0  0  0
 11 14  2  0  0  0  0
 12 19  1  0  0  0  0
 12 20  1  0  0  0  0
 12 21  1  0  0  0  0
 13 22  1  0  0  0  0
M  END
>  <Mol_ID>
8848

>  <Formula>
C8H8N4O2

>  <MolWeight>
192.17472

>  <Cat>
P2013

>  <Name>
CL-349010

>  <Synonyms>
N/A

>  <Target>
Others

>  <Form>
free base

>  <CAS>
868269-33-4

>  <URL>
N/A

$$$$
