CL-300619
 OpenBabel08302521403D

 34 37  0  0  0  0  0  0  0  0999 V2000
    1.2491   -0.9204   -0.0680 C   0  0  0  0  0  0  0  0  0  0  0  0
    0.7608    0.3608    0.0044 C   0  0  0  0  0  0  0  0  0  0  0  0
    0.0459   -2.1099   -0.1002 S   0  0  0  0  0  0  0  0  0  0  0  0
    2.5709   -1.1504   -0.0952 N   0  0  0  0  0  0  0  0  0  0  0  0
   -0.6742    0.3643   -0.0109 C   0  0  0  0  0  0  0  0  0  0  0  0
    1.7042    1.4808    0.0858 C   0  0  0  0  0  0  0  0  0  0  0  0
   -1.1775   -0.9269   -0.0323 C   0  0  0  0  0  0  0  0  0  0  0  0
    3.4402   -0.0836   -0.0049 C   0  0  0  0  0  0  0  0  0  0  0  0
   -1.5742    1.5646    0.0321 C   0  0  0  0  0  0  0  0  0  0  0  0
    3.0537    1.1570    0.0900 N   0  0  0  0  0  0  0  0  0  0  0  0
    1.3113    2.6392    0.1615 O   0  0  0  0  0  0  0  0  0  0  0  0
   -2.6303   -1.2890   -0.0362 C   0  0  0  0  0  0  0  0  0  0  0  0
    4.9065   -0.3660    0.0013 C   0  0  0  0  0  0  0  0  0  0  0  0
   -3.0189    1.2008   -0.3479 C   0  0  0  0  0  0  0  0  0  0  0  0
   -3.4838   -0.0764    0.3657 C   0  0  0  0  0  0  0  0  0  0  0  0
    5.4228   -1.4491   -0.7215 C   0  0  0  0  0  0  0  0  0  0  0  0
    5.7646    0.4487    0.7473 C   0  0  0  0  0  0  0  0  0  0  0  0
    6.7892   -1.7284   -0.6752 C   0  0  0  0  0  0  0  0  0  0  0  0
    7.1296    0.1619    0.7938 C   0  0  0  0  0  0  0  0  0  0  0  0
    7.6393   -0.9280    0.0876 C   0  0  0  0  0  0  0  0  0  0  0  0
    2.9224   -2.0998   -0.0599 H   0  0  0  0  0  0  0  0  0  0  0  0
   -1.2111    2.3401   -0.6512 H   0  0  0  0  0  0  0  0  0  0  0  0
   -1.5571    1.9799    1.0470 H   0  0  0  0  0  0  0  0  0  0  0  0
   -2.9132   -1.6157   -1.0443 H   0  0  0  0  0  0  0  0  0  0  0  0
   -2.8305   -2.1190    0.6511 H   0  0  0  0  0  0  0  0  0  0  0  0
   -3.0854    1.0485   -1.4332 H   0  0  0  0  0  0  0  0  0  0  0  0
   -3.6840    2.0352   -0.0997 H   0  0  0  0  0  0  0  0  0  0  0  0
   -4.5356   -0.2767    0.1334 H   0  0  0  0  0  0  0  0  0  0  0  0
   -3.4180    0.0762    1.4509 H   0  0  0  0  0  0  0  0  0  0  0  0
    4.7821   -2.0667   -1.3442 H   0  0  0  0  0  0  0  0  0  0  0  0
    5.3734    1.2991    1.3017 H   0  0  0  0  0  0  0  0  0  0  0  0
    7.1926   -2.5663   -1.2386 H   0  0  0  0  0  0  0  0  0  0  0  0
    7.7950    0.7891    1.3820 H   0  0  0  0  0  0  0  0  0  0  0  0
    8.7033   -1.1489    0.1253 H   0  0  0  0  0  0  0  0  0  0  0  0
  1  2  2  0  0  0  0
  1  3  1  0  0  0  0
  1  4  1  0  0  0  0
  2  5  1  0  0  0  0
  2  6  1  0  0  0  0
  3  7  1  0  0  0  0
  4  8  1  0  0  0  0
  4 21  1  0  0  0  0
  5  9  1  0  0  0  0
  5  7  2  0  0  0  0
  6 10  1  0  0  0  0
  6 11  2  0  0  0  0
  7 12  1  0  0  0  0
  8 13  1  0  0  0  0
  8 10  2  0  0  0  0
  9 14  1  0  0  0  0
  9 22  1  0  0  0  0
  9 23  1  0  0  0  0
 12 15  1  0  0  0  0
 12 24  1  0  0  0  0
 12 25  1  0  0  0  0
 13 16  2  0  0  0  0
 13 17  1  0  0  0  0
 14 15  1  0  0  0  0
 14 26  1  0  0  0  0
 14 27  1  0  0  0  0
 15 28  1  0  0  0  0
 15 29  1  0  0  0  0
 16 18  1  0  0  0  0
 16 30  1  0  0  0  0
 17 19  2  0  0  0  0
 17 31  1  0  0  0  0
 18 20  2  0  0  0  0
 18 32  1  0  0  0  0
 19 20  1  0  0  0  0
 19 33  1  0  0  0  0
 20 34  1  0  0  0  0
M  END
>  <Mol_ID>
8310

>  <Formula>
C16H14N2OS

>  <MolWeight>
282.36016

>  <Cat>
P2010

>  <Name>
CL-300619

>  <Synonyms>
N/A

>  <Target>
antiinflammatory

>  <Form>
free base

>  <CAS>
19819-18-2

>  <URL>
N/A

$$$$
