CL-387785.cdx
 OpenBabel08302519593D

 37 39  0  0  0  0  0  0  0  0999 V2000
    2.4324    0.8243   -0.0427 C   0  0  0  0  0  0  0  0  0  0  0  0
   -1.2948    1.3166   -0.0022 C   0  0  0  0  0  0  0  0  0  0  0  0
   -1.4227    2.7259    0.0238 N   0  0  0  0  0  0  0  0  0  0  0  0
   -2.4447    3.4623    0.6526 C   0  0  0  0  0  0  0  0  0  0  0  0
   -2.8045    4.7279    0.1715 C   0  0  0  0  0  0  0  0  0  0  0  0
   -3.7863    5.4862    0.8183 C   0  0  0  0  0  0  0  0  0  0  0  0
   -4.4029    4.9980    1.9697 C   0  0  0  0  0  0  0  0  0  0  0  0
   -4.0295    3.7553    2.4714 C   0  0  0  0  0  0  0  0  0  0  0  0
   -3.0585    2.9952    1.8236 C   0  0  0  0  0  0  0  0  0  0  0  0
   -4.8296    3.0958    4.0524 Br  0  0  0  0  0  0  0  0  0  0  0  0
    3.6673    1.4973   -0.0800 N   0  0  0  0  0  0  0  0  0  0  0  0
    3.8747    2.8537   -0.1778 C   0  0  0  0  0  0  0  0  0  0  0  0
    5.2696    3.2267   -0.2834 C   0  0  0  0  0  0  0  0  0  0  0  0
    3.0373    3.7445   -0.2089 O   0  0  0  0  0  0  0  0  0  0  0  0
    6.4252    3.5366   -0.4014 C   0  0  0  0  0  0  0  0  0  0  0  0
    7.8213    3.9247   -0.5705 C   0  0  0  0  0  0  0  0  0  0  0  0
    1.1987    1.4707   -0.0487 C   0  0  0  0  0  0  0  0  0  0  0  0
   -0.0156    0.7384   -0.0397 C   0  0  0  0  0  0  0  0  0  0  0  0
    0.0143   -0.6602   -0.0218 C   0  0  0  0  0  0  0  0  0  0  0  0
    1.2502   -1.2911    0.0003 C   0  0  0  0  0  0  0  0  0  0  0  0
    2.4503   -0.5691   -0.0058 C   0  0  0  0  0  0  0  0  0  0  0  0
   -2.4157    0.5713    0.0233 N   0  0  0  0  0  0  0  0  0  0  0  0
   -2.2574   -0.7533    0.0086 C   0  0  0  0  0  0  0  0  0  0  0  0
   -1.0920   -1.4090   -0.0095 N   0  0  0  0  0  0  0  0  0  0  0  0
   -1.0672    3.1383   -0.8310 H   0  0  0  0  0  0  0  0  0  0  0  0
   -2.3293    5.1348   -0.7173 H   0  0  0  0  0  0  0  0  0  0  0  0
   -4.0657    6.4604    0.4260 H   0  0  0  0  0  0  0  0  0  0  0  0
   -5.1612    5.5926    2.4707 H   0  0  0  0  0  0  0  0  0  0  0  0
   -2.7624    2.0361    2.2408 H   0  0  0  0  0  0  0  0  0  0  0  0
    4.5026    0.9250   -0.0728 H   0  0  0  0  0  0  0  0  0  0  0  0
    8.4832    3.0657   -0.4234 H   0  0  0  0  0  0  0  0  0  0  0  0
    7.9960    4.3187   -1.5771 H   0  0  0  0  0  0  0  0  0  0  0  0
    8.1025    4.6992    0.1501 H   0  0  0  0  0  0  0  0  0  0  0  0
    1.1427    2.5547   -0.0390 H   0  0  0  0  0  0  0  0  0  0  0  0
    1.2823   -2.3785    0.0305 H   0  0  0  0  0  0  0  0  0  0  0  0
    3.3869   -1.1204    0.0168 H   0  0  0  0  0  0  0  0  0  0  0  0
   -3.1615   -1.3521    0.0141 H   0  0  0  0  0  0  0  0  0  0  0  0
  1 11  1  0  0  0  0
  1 17  2  0  0  0  0
  2  3  1  0  0  0  0
  2 22  2  0  0  0  0
  3  4  1  0  0  0  0
  3 25  1  0  0  0  0
  4  5  2  0  0  0  0
  5  6  1  0  0  0  0
  5 26  1  0  0  0  0
  6  7  2  0  0  0  0
  6 27  1  0  0  0  0
  7  8  1  0  0  0  0
  7 28  1  0  0  0  0
  8  9  2  0  0  0  0
  8 10  1  0  0  0  0
  9  4  1  0  0  0  0
  9 29  1  0  0  0  0
 11 12  1  0  0  0  0
 11 30  1  0  0  0  0
 12 13  1  0  0  0  0
 12 14  2  0  0  0  0
 13 15  3  0  0  0  0
 15 16  1  0  0  0  0
 16 31  1  0  0  0  0
 16 32  1  0  0  0  0
 16 33  1  0  0  0  0
 17 18  1  0  0  0  0
 17 34  1  0  0  0  0
 18 19  2  0  0  0  0
 18  2  1  0  0  0  0
 19 20  1  0  0  0  0
 20 21  2  0  0  0  0
 20 35  1  0  0  0  0
 21  1  1  0  0  0  0
 21 36  1  0  0  0  0
 22 23  1  0  0  0  0
 23 24  2  0  0  0  0
 23 37  1  0  0  0  0
 24 19  1  0  0  0  0
M  END
>  <Mol_ID>
2564

>  <Formula>
C18H13BrN4O

>  <MolWeight>
381.22602

>  <Cat>
S7557

>  <Name>
CL-387785 (EKI-785)

>  <Synonyms>
WAY-EKI 785

>  <Target>
EGFR

>  <Form>
free base

>  <CAS>
194423-06-8

>  <URL>
http://selleckchem.com/products/cl-387785-eki-785.html

$$$$
