CL-394079
 OpenBabel08302521403D

 43 45  0  0  0  0  0  0  0  0999 V2000
    0.3657    0.7056    0.1224 C   0  0  0  0  0  0  0  0  0  0  0  0
    1.6749    1.1258    0.1289 N   0  0  0  0  0  0  0  0  0  0  0  0
    0.4211   -0.6526    0.0438 C   0  0  0  0  0  0  0  0  0  0  0  0
   -0.8621    1.4243    0.1607 C   0  0  0  0  0  0  0  0  0  0  0  0
    2.4752   -0.0137    0.0399 C   0  0  0  0  0  0  0  0  0  0  0  0
    2.0564    2.5216    0.0115 C   0  0  0  0  0  0  0  0  0  0  0  0
    1.7085   -1.0931   -0.0350 N   0  0  0  0  0  0  0  0  0  0  0  0
   -0.7276   -1.4171    0.0163 N   0  0  0  0  0  0  0  0  0  0  0  0
   -1.9613    0.6028    0.0994 N   0  0  0  0  0  0  0  0  0  0  0  0
   -0.9666    2.6460    0.2332 O   0  0  0  0  0  0  0  0  0  0  0  0
    3.8452    0.0032   -0.0382 N   0  0  0  0  0  0  0  0  0  0  0  0
    2.1837    3.2575    1.3482 C   0  0  0  0  0  0  0  0  0  0  0  0
   -1.9666   -0.7760    0.0512 C   0  0  0  0  0  0  0  0  0  0  0  0
   -0.6662   -2.8668   -0.0240 C   0  0  0  0  0  0  0  0  0  0  0  0
    4.5113   -1.0954   -0.7463 C   0  0  0  0  0  0  0  0  0  0  0  0
    4.6419    0.9455    0.7390 C   0  0  0  0  0  0  0  0  0  0  0  0
    0.9601    3.3574    2.0652 O   0  0  0  0  0  0  0  0  0  0  0  0
   -3.0511   -1.3603    0.0290 O   0  0  0  0  0  0  0  0  0  0  0  0
    4.8905   -2.2628    0.1664 C   0  0  0  0  0  0  0  0  0  0  0  0
    6.0269    0.4893    1.1749 C   0  0  0  0  0  0  0  0  0  0  0  0
    6.1133   -2.0267    1.0528 C   0  0  0  0  0  0  0  0  0  0  0  0
    6.0093   -0.8119    1.9645 C   0  0  0  0  0  0  0  0  0  0  0  0
    2.9805    2.5797   -0.5677 H   0  0  0  0  0  0  0  0  0  0  0  0
    1.3025    3.0133   -0.6127 H   0  0  0  0  0  0  0  0  0  0  0  0
   -2.8664    1.0436    0.1270 H   0  0  0  0  0  0  0  0  0  0  0  0
    2.8996    2.7825    2.0194 H   0  0  0  0  0  0  0  0  0  0  0  0
    2.5407    4.2757    1.1664 H   0  0  0  0  0  0  0  0  0  0  0  0
   -0.1324   -3.1815   -0.9252 H   0  0  0  0  0  0  0  0  0  0  0  0
   -0.1414   -3.2253    0.8664 H   0  0  0  0  0  0  0  0  0  0  0  0
   -1.6650   -3.3125   -0.0375 H   0  0  0  0  0  0  0  0  0  0  0  0
    5.3980   -0.7166   -1.2698 H   0  0  0  0  0  0  0  0  0  0  0  0
    3.8560   -1.4753   -1.5421 H   0  0  0  0  0  0  0  0  0  0  0  0
    4.1044    1.1945    1.6571 H   0  0  0  0  0  0  0  0  0  0  0  0
    4.7814    1.8624    0.1581 H   0  0  0  0  0  0  0  0  0  0  0  0
    0.2424    3.5781    1.4366 H   0  0  0  0  0  0  0  0  0  0  0  0
    5.1228   -3.1265   -0.4706 H   0  0  0  0  0  0  0  0  0  0  0  0
    4.0389   -2.5552    0.7901 H   0  0  0  0  0  0  0  0  0  0  0  0
    6.4359    1.2783    1.8204 H   0  0  0  0  0  0  0  0  0  0  0  0
    6.7075    0.4235    0.3180 H   0  0  0  0  0  0  0  0  0  0  0  0
    6.2683   -2.9163    1.6754 H   0  0  0  0  0  0  0  0  0  0  0  0
    7.0097   -1.9343    0.4260 H   0  0  0  0  0  0  0  0  0  0  0  0
    5.1171   -0.8779    2.5987 H   0  0  0  0  0  0  0  0  0  0  0  0
    6.8742   -0.8170    2.6392 H   0  0  0  0  0  0  0  0  0  0  0  0
  1  2  1  0  0  0  0
  1  3  2  0  0  0  0
  1  4  1  0  0  0  0
  2  5  1  0  0  0  0
  2  6  1  0  0  0  0
  3  7  1  0  0  0  0
  3  8  1  0  0  0  0
  4  9  1  0  0  0  0
  4 10  2  0  0  0  0
  5 11  1  0  0  0  0
  5  7  2  0  0  0  0
  6 12  1  0  0  0  0
  6 23  1  0  0  0  0
  6 24  1  0  0  0  0
  8 13  1  0  0  0  0
  8 14  1  0  0  0  0
  9 13  1  0  0  0  0
  9 25  1  0  0  0  0
 11 15  1  0  0  0  0
 11 16  1  0  0  0  0
 12 17  1  0  0  0  0
 12 26  1  0  0  0  0
 12 27  1  0  0  0  0
 13 18  2  0  0  0  0
 14 28  1  0  0  0  0
 14 29  1  0  0  0  0
 14 30  1  0  0  0  0
 15 19  1  0  0  0  0
 15 31  1  0  0  0  0
 15 32  1  0  0  0  0
 16 20  1  0  0  0  0
 16 33  1  0  0  0  0
 16 34  1  0  0  0  0
 17 35  1  0  0  0  0
 19 21  1  0  0  0  0
 19 36  1  0  0  0  0
 19 37  1  0  0  0  0
 20 22  1  0  0  0  0
 20 38  1  0  0  0  0
 20 39  1  0  0  0  0
 21 22  1  0  0  0  0
 21 40  1  0  0  0  0
 21 41  1  0  0  0  0
 22 42  1  0  0  0  0
 22 43  1  0  0  0  0
M  END
>  <Mol_ID>
8342

>  <Formula>
C14H21N5O3

>  <MolWeight>
307.34824

>  <Cat>
P2015

>  <Name>
CL-394079

>  <Synonyms>
N/A

>  <Target>
Anti-infection

>  <Form>
free base

>  <CAS>
115294-84-3

>  <URL>
N/A

$$$$
