CL-31308
 OpenBabel08302521433D

 20 21  0  0  0  0  0  0  0  0999 V2000
   -0.5757    1.2926    0.0356 C   0  0  0  0  0  0  0  0  0  0  0  0
   -1.3588    2.5489    0.1736 C   0  0  0  0  0  0  0  0  0  0  0  0
   -1.2032    0.0679    0.2248 C   0  0  0  0  0  0  0  0  0  0  0  0
    0.7472    1.4014   -0.2873 N   0  0  0  0  0  0  0  0  0  0  0  0
   -0.6452    3.6835   -0.1373 N   0  0  0  0  0  0  0  0  0  0  0  0
   -2.5350    2.4749    0.5113 O   0  0  0  0  0  0  0  0  0  0  0  0
   -0.5405   -1.1105    0.1063 N   0  0  0  0  0  0  0  0  0  0  0  0
    1.3984    0.2171   -0.3940 C   0  0  0  0  0  0  0  0  0  0  0  0
   -1.2133    4.9241   -0.1104 C   0  0  0  0  0  0  0  0  0  0  0  0
    0.7714   -1.0069   -0.2036 C   0  0  0  0  0  0  0  0  0  0  0  0
   -2.3919    5.2789    0.3319 N   0  0  0  0  0  0  0  0  0  0  0  0
   -0.2469    6.1682   -0.7709 S   0  0  0  0  0  0  0  0  0  0  0  0
   -2.5802    6.6266    0.1110 C   0  0  0  0  0  0  0  0  0  0  0  0
   -1.5347    7.2759   -0.5105 C   0  0  0  0  0  0  0  0  0  0  0  0
   -2.2579   -0.0027    0.4707 H   0  0  0  0  0  0  0  0  0  0  0  0
    0.3069    3.5871   -0.4665 H   0  0  0  0  0  0  0  0  0  0  0  0
    2.4538    0.2715   -0.6383 H   0  0  0  0  0  0  0  0  0  0  0  0
    1.3106   -1.9436   -0.2957 H   0  0  0  0  0  0  0  0  0  0  0  0
   -3.5135    7.0843    0.4159 H   0  0  0  0  0  0  0  0  0  0  0  0
   -1.4675    8.3130   -0.8050 H   0  0  0  0  0  0  0  0  0  0  0  0
  1  2  1  0  0  0  0
  1  3  2  0  0  0  0
  1  4  1  0  0  0  0
  2  5  1  0  0  0  0
  2  6  2  0  0  0  0
  3  7  1  0  0  0  0
  3 15  1  0  0  0  0
  4  8  2  0  0  0  0
  5  9  1  0  0  0  0
  5 16  1  0  0  0  0
  7 10  2  0  0  0  0
  8 10  1  0  0  0  0
  8 17  1  0  0  0  0
  9 11  2  0  0  0  0
  9 12  1  0  0  0  0
 10 18  1  0  0  0  0
 11 13  1  0  0  0  0
 12 14  1  0  0  0  0
 13 14  2  0  0  0  0
 13 19  1  0  0  0  0
 14 20  1  0  0  0  0
M  END
>  <Mol_ID>
8847

>  <Formula>
C8H6N4OS

>  <MolWeight>
206.22444

>  <Cat>
P2012

>  <Name>
CL-31308

>  <Synonyms>
N/A

>  <Target>
Others

>  <Form>
free base

>  <CAS>
868269-30-1

>  <URL>
N/A

$$$$
