CL-412730
 OpenBabel08302521403D

 45 48  0  0  0  0  0  0  0  0999 V2000
    0.7864    0.4681    0.0230 C   0  0  0  0  0  0  0  0  0  0  0  0
    1.1783   -0.8573    0.0077 C   0  0  0  0  0  0  0  0  0  0  0  0
   -0.6347    0.5021    0.0020 C   0  0  0  0  0  0  0  0  0  0  0  0
    1.7169    1.4507    0.0512 N   0  0  0  0  0  0  0  0  0  0  0  0
    0.0479   -1.6299   -0.0122 N   0  0  0  0  0  0  0  0  0  0  0  0
    2.4529   -1.2942    0.0152 N   0  0  0  0  0  0  0  0  0  0  0  0
   -1.0790   -0.8241   -0.0331 C   0  0  0  0  0  0  0  0  0  0  0  0
   -1.5913    1.5439    0.0055 C   0  0  0  0  0  0  0  0  0  0  0  0
    2.9946    1.0557    0.0721 N   0  0  0  0  0  0  0  0  0  0  0  0
    0.0503   -3.0818    0.0178 C   0  0  0  0  0  0  0  0  0  0  0  0
    3.3204   -0.2630    0.0534 C   0  0  0  0  0  0  0  0  0  0  0  0
   -2.4465   -1.1473   -0.0750 C   0  0  0  0  0  0  0  0  0  0  0  0
   -2.9542    1.2280   -0.0267 C   0  0  0  0  0  0  0  0  0  0  0  0
    0.0651   -3.6858   -1.3755 C   0  0  0  0  0  0  0  0  0  0  0  0
    5.0617   -0.6500    0.1034 S   0  0  0  0  0  0  0  0  0  0  0  0
   -3.3698   -0.1021   -0.0712 C   0  0  0  0  0  0  0  0  0  0  0  0
    5.0234   -2.2398   -0.7721 C   0  0  0  0  0  0  0  0  0  0  0  0
    6.3943   -2.8817   -0.8446 C   0  0  0  0  0  0  0  0  0  0  0  0
    7.3850   -2.0683   -1.3610 N   0  0  0  0  0  0  0  0  0  0  0  0
    6.5509   -4.0552   -0.5064 O   0  0  0  0  0  0  0  0  0  0  0  0
    8.7146   -2.4899   -1.4384 C   0  0  0  0  0  0  0  0  0  0  0  0
    9.0558   -3.7455   -1.9305 C   0  0  0  0  0  0  0  0  0  0  0  0
    9.6193   -1.6023   -0.9859 N   0  0  0  0  0  0  0  0  0  0  0  0
   10.3911   -4.1502   -1.8905 C   0  0  0  0  0  0  0  0  0  0  0  0
   10.8964   -2.0345   -0.9008 C   0  0  0  0  0  0  0  0  0  0  0  0
   11.3246   -3.2840   -1.3240 C   0  0  0  0  0  0  0  0  0  0  0  0
   10.7997   -5.5048   -2.3826 C   0  0  0  0  0  0  0  0  0  0  0  0
   -1.2722    2.5826    0.0404 H   0  0  0  0  0  0  0  0  0  0  0  0
    0.9253   -3.4100    0.5877 H   0  0  0  0  0  0  0  0  0  0  0  0
   -0.8347   -3.4119    0.5729 H   0  0  0  0  0  0  0  0  0  0  0  0
   -2.7875   -2.1787   -0.1064 H   0  0  0  0  0  0  0  0  0  0  0  0
   -3.6916    2.0250   -0.0189 H   0  0  0  0  0  0  0  0  0  0  0  0
    0.9753   -3.4053   -1.9159 H   0  0  0  0  0  0  0  0  0  0  0  0
    0.0277   -4.7785   -1.3148 H   0  0  0  0  0  0  0  0  0  0  0  0
   -0.7921   -3.3466   -1.9653 H   0  0  0  0  0  0  0  0  0  0  0  0
   -4.4345   -0.3276   -0.0977 H   0  0  0  0  0  0  0  0  0  0  0  0
    4.3675   -2.9402   -0.2439 H   0  0  0  0  0  0  0  0  0  0  0  0
    4.6539   -2.1059   -1.7936 H   0  0  0  0  0  0  0  0  0  0  0  0
    7.2957   -1.0784   -1.1644 H   0  0  0  0  0  0  0  0  0  0  0  0
    8.2939   -4.4017   -2.3396 H   0  0  0  0  0  0  0  0  0  0  0  0
   11.5907   -1.3317   -0.4490 H   0  0  0  0  0  0  0  0  0  0  0  0
   12.3643   -3.5714   -1.2095 H   0  0  0  0  0  0  0  0  0  0  0  0
   11.6895   -5.4290   -3.0163 H   0  0  0  0  0  0  0  0  0  0  0  0
   11.0145   -6.1640   -1.5364 H   0  0  0  0  0  0  0  0  0  0  0  0
   10.0088   -5.9651   -2.9852 H   0  0  0  0  0  0  0  0  0  0  0  0
  1  2  1  0  0  0  0
  1  3  1  0  0  0  0
  1  4  2  0  0  0  0
  2  5  1  0  0  0  0
  2  6  2  0  0  0  0
  3  7  2  0  0  0  0
  3  8  1  0  0  0  0
  4  9  1  0  0  0  0
  5 10  1  0  0  0  0
  5  7  1  0  0  0  0
  6 11  1  0  0  0  0
  7 12  1  0  0  0  0
  8 13  2  0  0  0  0
  8 28  1  0  0  0  0
  9 11  2  0  0  0  0
 10 14  1  0  0  0  0
 10 29  1  0  0  0  0
 10 30  1  0  0  0  0
 11 15  1  0  0  0  0
 12 16  2  0  0  0  0
 12 31  1  0  0  0  0
 13 16  1  0  0  0  0
 13 32  1  0  0  0  0
 14 33  1  0  0  0  0
 14 34  1  0  0  0  0
 14 35  1  0  0  0  0
 15 17  1  0  0  0  0
 16 36  1  0  0  0  0
 17 18  1  0  0  0  0
 17 37  1  0  0  0  0
 17 38  1  0  0  0  0
 18 19  1  0  0  0  0
 18 20  2  0  0  0  0
 19 21  1  0  0  0  0
 19 39  1  0  0  0  0
 21 22  2  0  0  0  0
 21 23  1  0  0  0  0
 22 24  1  0  0  0  0
 22 40  1  0  0  0  0
 23 25  2  0  0  0  0
 24 26  2  0  0  0  0
 24 27  1  0  0  0  0
 25 26  1  0  0  0  0
 25 41  1  0  0  0  0
 26 42  1  0  0  0  0
 27 43  1  0  0  0  0
 27 44  1  0  0  0  0
 27 45  1  0  0  0  0
M  END
>  <Mol_ID>
8343

>  <Formula>
C19H18N6OS

>  <MolWeight>
378.45082

>  <Cat>
P2019

>  <Name>
CL-412730

>  <Synonyms>
N/A

>  <Target>
UCH-L1

>  <Form>
free base

>  <CAS>
311777-48-7

>  <URL>
N/A

$$$$
