CL-409141
 OpenBabel08302521393D

 46 49  0  0  0  0  0  0  0  0999 V2000
    0.0738   -0.8330    0.0255 C   0  0  0  0  0  0  0  0  0  0  0  0
   -1.1469   -1.4282    0.0908 N   0  0  0  0  0  0  0  0  0  0  0  0
   -0.0981    0.4878   -0.0334 C   0  0  0  0  0  0  0  0  0  0  0  0
    1.6494   -1.3137   -0.0612 S   0  0  0  0  0  0  0  0  0  0  0  0
   -1.4334   -2.8020    0.3051 C   0  0  0  0  0  0  0  0  0  0  0  0
   -2.1285   -0.4747   -0.0504 N   0  0  0  0  0  0  0  0  0  0  0  0
    1.0893    1.2315   -0.0443 C   0  0  0  0  0  0  0  0  0  0  0  0
   -1.4718    0.7131   -0.0502 C   0  0  0  0  0  0  0  0  0  0  0  0
    2.1791    0.3483   -0.0337 C   0  0  0  0  0  0  0  0  0  0  0  0
   -0.4915   -3.6378    0.9304 C   0  0  0  0  0  0  0  0  0  0  0  0
   -2.6618   -3.3289   -0.0942 C   0  0  0  0  0  0  0  0  0  0  0  0
   -2.2356    1.9826   -0.0748 C   0  0  0  0  0  0  0  0  0  0  0  0
    3.6203    0.6104   -0.0162 C   0  0  0  0  0  0  0  0  0  0  0  0
   -0.7674   -4.9890    1.1401 C   0  0  0  0  0  0  0  0  0  0  0  0
   -2.9301   -4.6869    0.1135 C   0  0  0  0  0  0  0  0  0  0  0  0
    4.3734   -0.5665   -0.0183 N   0  0  0  0  0  0  0  0  0  0  0  0
    4.0881    1.7448   -0.0067 O   0  0  0  0  0  0  0  0  0  0  0  0
   -1.9857   -5.5104    0.7302 C   0  0  0  0  0  0  0  0  0  0  0  0
    5.7151   -0.7405   -0.0952 N   0  0  0  0  0  0  0  0  0  0  0  0
    6.4985    0.1739    0.3835 C   0  0  0  0  0  0  0  0  0  0  0  0
    7.9607    0.0119    0.2997 C   0  0  0  0  0  0  0  0  0  0  0  0
    8.8829    0.5748    1.1909 C   0  0  0  0  0  0  0  0  0  0  0  0
    8.4210   -0.7507   -0.7979 C   0  0  0  0  0  0  0  0  0  0  0  0
   10.2515    0.3692    0.9356 C   0  0  0  0  0  0  0  0  0  0  0  0
    8.7081    1.3148    2.3246 O   0  0  0  0  0  0  0  0  0  0  0  0
    9.7812   -0.9411   -1.0286 C   0  0  0  0  0  0  0  0  0  0  0  0
   10.6993   -0.3749   -0.1581 C   0  0  0  0  0  0  0  0  0  0  0  0
    7.4311    1.5020    2.9048 C   0  0  0  0  0  0  0  0  0  0  0  0
    1.1905    2.3111   -0.0550 H   0  0  0  0  0  0  0  0  0  0  0  0
    0.4506   -3.2661    1.3180 H   0  0  0  0  0  0  0  0  0  0  0  0
   -3.4024   -2.7051   -0.5905 H   0  0  0  0  0  0  0  0  0  0  0  0
   -2.0083    2.5865    0.8095 H   0  0  0  0  0  0  0  0  0  0  0  0
   -1.9951    2.5667   -0.9680 H   0  0  0  0  0  0  0  0  0  0  0  0
   -3.3159    1.7954   -0.0777 H   0  0  0  0  0  0  0  0  0  0  0  0
   -0.0310   -5.6180    1.6332 H   0  0  0  0  0  0  0  0  0  0  0  0
   -3.8777   -5.1038   -0.2125 H   0  0  0  0  0  0  0  0  0  0  0  0
    3.8570   -1.4273   -0.1802 H   0  0  0  0  0  0  0  0  0  0  0  0
   -2.2041   -6.5617    0.8977 H   0  0  0  0  0  0  0  0  0  0  0  0
    6.1019    1.0607    0.8825 H   0  0  0  0  0  0  0  0  0  0  0  0
    7.7123   -1.1927   -1.4975 H   0  0  0  0  0  0  0  0  0  0  0  0
   10.9880    0.7990    1.6129 H   0  0  0  0  0  0  0  0  0  0  0  0
   10.1138   -1.5209   -1.8845 H   0  0  0  0  0  0  0  0  0  0  0  0
   11.7649   -0.5101   -0.3235 H   0  0  0  0  0  0  0  0  0  0  0  0
    6.8642    2.2468    2.3403 H   0  0  0  0  0  0  0  0  0  0  0  0
    6.8864    0.5606    3.0233 H   0  0  0  0  0  0  0  0  0  0  0  0
    7.5791    1.9194    3.9060 H   0  0  0  0  0  0  0  0  0  0  0  0
  1  2  1  0  0  0  0
  1  3  2  0  0  0  0
  1  4  1  0  0  0  0
  2  5  1  0  0  0  0
  2  6  1  0  0  0  0
  3  7  1  0  0  0  0
  3  8  1  0  0  0  0
  4  9  1  0  0  0  0
  5 10  2  0  0  0  0
  5 11  1  0  0  0  0
  6  8  2  0  0  0  0
  7  9  2  0  0  0  0
  7 29  1  0  0  0  0
  8 12  1  0  0  0  0
  9 13  1  0  0  0  0
 10 14  1  0  0  0  0
 10 30  1  0  0  0  0
 11 15  2  0  0  0  0
 11 31  1  0  0  0  0
 12 32  1  0  0  0  0
 12 33  1  0  0  0  0
 12 34  1  0  0  0  0
 13 16  1  0  0  0  0
 13 17  2  0  0  0  0
 14 18  2  0  0  0  0
 14 35  1  0  0  0  0
 15 18  1  0  0  0  0
 15 36  1  0  0  0  0
 16 19  1  0  0  0  0
 16 37  1  0  0  0  0
 18 38  1  0  0  0  0
 19 20  2  0  0  0  0
 20 21  1  0  0  0  0
 20 39  1  0  0  0  0
 21 22  2  0  0  0  0
 21 23  1  0  0  0  0
 22 24  1  0  0  0  0
 22 25  1  0  0  0  0
 23 26  2  0  0  0  0
 23 40  1  0  0  0  0
 24 27  2  0  0  0  0
 24 41  1  0  0  0  0
 25 28  1  0  0  0  0
 26 27  1  0  0  0  0
 26 42  1  0  0  0  0
 27 43  1  0  0  0  0
 28 44  1  0  0  0  0
 28 45  1  0  0  0  0
 28 46  1  0  0  0  0
M  END
>  <Mol_ID>
8108

>  <Formula>
C21H18N4O2S

>  <MolWeight>
390.45822

>  <Cat>
P2017

>  <Name>
CL-409141

>  <Synonyms>
N/A

>  <Target>
ENTPD-5

>  <Form>
free base

>  <CAS>
332390-37-1

>  <URL>
N/A

$$$$
