CL-47345
 OpenBabel08302521413D

 39 40  0  0  0  0  0  0  0  0999 V2000
   -1.8326   -0.2482    0.3158 C   0  0  0  0  0  0  0  0  0  0  0  0
   -3.2355   -0.3081    0.1727 N   0  0  0  0  0  0  0  0  0  0  0  0
   -1.0228   -1.3839    0.3719 C   0  0  0  0  0  0  0  0  0  0  0  0
   -1.2266    1.0107    0.3994 C   0  0  0  0  0  0  0  0  0  0  0  0
   -4.0055   -1.4554    0.1221 C   0  0  0  0  0  0  0  0  0  0  0  0
    0.3598   -1.2730    0.5302 C   0  0  0  0  0  0  0  0  0  0  0  0
    0.1609    1.1236    0.5601 C   0  0  0  0  0  0  0  0  0  0  0  0
   -5.4698   -1.2180   -0.1024 C   0  0  0  0  0  0  0  0  0  0  0  0
   -3.6035   -2.6189    0.2152 O   0  0  0  0  0  0  0  0  0  0  0  0
    0.9627   -0.0212    0.6305 C   0  0  0  0  0  0  0  0  0  0  0  0
   -5.9997   -1.7902   -1.3977 C   0  0  0  0  0  0  0  0  0  0  0  0
    2.4458    0.0889    0.8199 C   0  0  0  0  0  0  0  0  0  0  0  0
   -5.3660   -2.9296   -1.8614 N   0  0  0  0  0  0  0  0  0  0  0  0
   -6.9860   -1.2580   -1.9065 O   0  0  0  0  0  0  0  0  0  0  0  0
   -5.6833   -3.6297   -3.0461 C   0  0  0  0  0  0  0  0  0  0  0  0
   -6.4741   -3.0773   -4.0529 C   0  0  0  0  0  0  0  0  0  0  0  0
   -5.2011   -4.9323   -3.2080 C   0  0  0  0  0  0  0  0  0  0  0  0
   -6.8712   -3.8402   -5.1516 C   0  0  0  0  0  0  0  0  0  0  0  0
   -5.6039   -5.7039   -4.3076 C   0  0  0  0  0  0  0  0  0  0  0  0
   -6.4710   -5.1714   -5.2691 C   0  0  0  0  0  0  0  0  0  0  0  0
   -7.0021   -6.0222   -6.3830 C   0  0  0  0  0  0  0  0  0  0  0  0
   -3.7088    0.5833    0.1116 H   0  0  0  0  0  0  0  0  0  0  0  0
   -1.4273   -2.3857    0.2951 H   0  0  0  0  0  0  0  0  0  0  0  0
   -1.8178    1.9216    0.3514 H   0  0  0  0  0  0  0  0  0  0  0  0
    0.9526   -2.1838    0.5754 H   0  0  0  0  0  0  0  0  0  0  0  0
    0.6123    2.1104    0.6333 H   0  0  0  0  0  0  0  0  0  0  0  0
   -6.0186   -1.6743    0.7264 H   0  0  0  0  0  0  0  0  0  0  0  0
   -5.6899   -0.1453   -0.0925 H   0  0  0  0  0  0  0  0  0  0  0  0
    2.8921    0.6624    0.0027 H   0  0  0  0  0  0  0  0  0  0  0  0
    2.6680    0.5747    1.7741 H   0  0  0  0  0  0  0  0  0  0  0  0
    2.9186   -0.9003    0.8310 H   0  0  0  0  0  0  0  0  0  0  0  0
   -4.6890   -3.3754   -1.2388 H   0  0  0  0  0  0  0  0  0  0  0  0
   -6.8120   -2.0462   -4.0098 H   0  0  0  0  0  0  0  0  0  0  0  0
   -4.5490   -5.3835   -2.4638 H   0  0  0  0  0  0  0  0  0  0  0  0
   -7.5194   -3.3850   -5.8965 H   0  0  0  0  0  0  0  0  0  0  0  0
   -5.2617   -6.7335   -4.3913 H   0  0  0  0  0  0  0  0  0  0  0  0
   -6.1847   -6.4473   -6.9717 H   0  0  0  0  0  0  0  0  0  0  0  0
   -7.6158   -6.8301   -5.9712 H   0  0  0  0  0  0  0  0  0  0  0  0
   -7.6371   -5.4391   -7.0596 H   0  0  0  0  0  0  0  0  0  0  0  0
  1  2  1  0  0  0  0
  1  3  2  0  0  0  0
  1  4  1  0  0  0  0
  2  5  1  0  0  0  0
  2 22  1  0  0  0  0
  3  6  1  0  0  0  0
  3 23  1  0  0  0  0
  4  7  2  0  0  0  0
  4 24  1  0  0  0  0
  5  8  1  0  0  0  0
  5  9  2  0  0  0  0
  6 10  2  0  0  0  0
  6 25  1  0  0  0  0
  7 10  1  0  0  0  0
  7 26  1  0  0  0  0
  8 11  1  0  0  0  0
  8 27  1  0  0  0  0
  8 28  1  0  0  0  0
 10 12  1  0  0  0  0
 11 13  1  0  0  0  0
 11 14  2  0  0  0  0
 12 29  1  0  0  0  0
 12 30  1  0  0  0  0
 12 31  1  0  0  0  0
 13 15  1  0  0  0  0
 13 32  1  0  0  0  0
 15 16  2  0  0  0  0
 15 17  1  0  0  0  0
 16 18  1  0  0  0  0
 16 33  1  0  0  0  0
 17 19  2  0  0  0  0
 17 34  1  0  0  0  0
 18 20  2  0  0  0  0
 18 35  1  0  0  0  0
 19 20  1  0  0  0  0
 19 36  1  0  0  0  0
 20 21  1  0  0  0  0
 21 37  1  0  0  0  0
 21 38  1  0  0  0  0
 21 39  1  0  0  0  0
M  END
>  <Mol_ID>
8369

>  <Formula>
C17H18N2O2

>  <MolWeight>
282.33702

>  <Cat>
P2028

>  <Name>
CL-47345

>  <Synonyms>
N/A

>  <Target>
glycogen phosphorylase

>  <Form>
free base

>  <CAS>
111922-87-3

>  <URL>
N/A

$$$$
