CL-417513
 OpenBabel08302521403D

 55 59  0  0  0  0  0  0  0  0999 V2000
    0.3699    0.5238    0.6529 N   0  0  0  0  0  0  0  0  0  0  0  0
    0.1500   -0.4598   -0.3129 C   0  0  0  0  0  0  0  0  0  0  0  0
   -0.6790    1.2517    1.1912 C   0  0  0  0  0  0  0  0  0  0  0  0
    1.6753    0.6201    0.9384 N   0  0  0  0  0  0  0  0  0  0  0  0
   -1.1024   -0.8084   -0.7178 N   0  0  0  0  0  0  0  0  0  0  0  0
    1.3931   -0.8951   -0.7099 C   0  0  0  0  0  0  0  0  0  0  0  0
   -1.9363    0.9613    0.8075 C   0  0  0  0  0  0  0  0  0  0  0  0
   -0.3708    2.3303    2.1660 C   0  0  0  0  0  0  0  0  0  0  0  0
    2.3134   -0.1155    0.0212 C   0  0  0  0  0  0  0  0  0  0  0  0
   -2.0952   -0.1577   -0.1809 C   0  0  0  0  0  0  0  0  0  0  0  0
    0.9387    2.5619    2.4217 F   0  0  0  0  0  0  0  0  0  0  0  0
   -0.8829    3.5227    1.7500 F   0  0  0  0  0  0  0  0  0  0  0  0
   -0.9575    2.0739    3.3665 F   0  0  0  0  0  0  0  0  0  0  0  0
    3.7755   -0.0992   -0.1295 C   0  0  0  0  0  0  0  0  0  0  0  0
   -3.4848   -0.5033   -0.5752 C   0  0  0  0  0  0  0  0  0  0  0  0
    4.4444    1.1035    0.1135 N   0  0  0  0  0  0  0  0  0  0  0  0
    4.3707   -1.1078   -0.5110 O   0  0  0  0  0  0  0  0  0  0  0  0
   -4.5642   -0.3276    0.2998 C   0  0  0  0  0  0  0  0  0  0  0  0
   -3.7136   -1.0281   -1.8525 C   0  0  0  0  0  0  0  0  0  0  0  0
    3.8398    2.3839    0.5257 C   0  0  0  0  0  0  0  0  0  0  0  0
    5.8970    1.1236    0.0917 C   0  0  0  0  0  0  0  0  0  0  0  0
   -5.8589   -0.6381   -0.1107 C   0  0  0  0  0  0  0  0  0  0  0  0
   -5.0035   -1.3418   -2.2597 C   0  0  0  0  0  0  0  0  0  0  0  0
    4.3446    3.5523   -0.3203 C   0  0  0  0  0  0  0  0  0  0  0  0
    6.4235    2.3084   -0.7170 C   0  0  0  0  0  0  0  0  0  0  0  0
   -6.0780   -1.1409   -1.3933 C   0  0  0  0  0  0  0  0  0  0  0  0
    5.8027    3.5878   -0.3322 N   0  0  0  0  0  0  0  0  0  0  0  0
    6.4283    4.7540    0.1151 C   0  0  0  0  0  0  0  0  0  0  0  0
    7.9104    4.8762    0.0677 C   0  0  0  0  0  0  0  0  0  0  0  0
    5.8011    5.7031    0.5668 O   0  0  0  0  0  0  0  0  0  0  0  0
    8.6887    4.2770   -0.9277 C   0  0  0  0  0  0  0  0  0  0  0  0
    8.5377    5.6825    1.0265 C   0  0  0  0  0  0  0  0  0  0  0  0
   10.0760    4.3613   -0.8955 C   0  0  0  0  0  0  0  0  0  0  0  0
    9.9264    5.8231    1.0197 C   0  0  0  0  0  0  0  0  0  0  0  0
   10.6943    5.1428    0.0744 C   0  0  0  0  0  0  0  0  0  0  0  0
    1.6128   -1.6345   -1.4658 H   0  0  0  0  0  0  0  0  0  0  0  0
   -2.7945    1.5071    1.1766 H   0  0  0  0  0  0  0  0  0  0  0  0
   -4.4218    0.0336    1.3146 H   0  0  0  0  0  0  0  0  0  0  0  0
   -2.8772   -1.1940   -2.5420 H   0  0  0  0  0  0  0  0  0  0  0  0
    2.7621    2.4084    0.4255 H   0  0  0  0  0  0  0  0  0  0  0  0
    4.1035    2.5237    1.5800 H   0  0  0  0  0  0  0  0  0  0  0  0
    6.2327    1.2221    1.1304 H   0  0  0  0  0  0  0  0  0  0  0  0
    6.3237    0.1964   -0.3056 H   0  0  0  0  0  0  0  0  0  0  0  0
   -6.6943   -0.4922    0.5684 H   0  0  0  0  0  0  0  0  0  0  0  0
   -5.1787   -1.7451   -3.2552 H   0  0  0  0  0  0  0  0  0  0  0  0
    4.0125    3.4316   -1.3596 H   0  0  0  0  0  0  0  0  0  0  0  0
    3.9055    4.4842    0.0516 H   0  0  0  0  0  0  0  0  0  0  0  0
    6.2128    2.1705   -1.7850 H   0  0  0  0  0  0  0  0  0  0  0  0
    7.4958    2.2963   -0.5591 H   0  0  0  0  0  0  0  0  0  0  0  0
   -7.0863   -1.3860   -1.7130 H   0  0  0  0  0  0  0  0  0  0  0  0
    8.2332    3.7318   -1.7468 H   0  0  0  0  0  0  0  0  0  0  0  0
    7.9445    6.2163    1.7682 H   0  0  0  0  0  0  0  0  0  0  0  0
   10.6628    3.8341   -1.6420 H   0  0  0  0  0  0  0  0  0  0  0  0
   10.4081    6.4687    1.7487 H   0  0  0  0  0  0  0  0  0  0  0  0
   11.7747    5.2434    0.0729 H   0  0  0  0  0  0  0  0  0  0  0  0
  1  2  1  0  0  0  0
  1  3  1  0  0  0  0
  1  4  1  0  0  0  0
  2  5  1  0  0  0  0
  2  6  2  0  0  0  0
  3  7  2  0  0  0  0
  3  8  1  0  0  0  0
  4  9  2  0  0  0  0
  5 10  2  0  0  0  0
  6  9  1  0  0  0  0
  6 36  1  0  0  0  0
  7 10  1  0  0  0  0
  7 37  1  0  0  0  0
  8 11  1  0  0  0  0
  8 12  1  0  0  0  0
  8 13  1  0  0  0  0
  9 14  1  0  0  0  0
 10 15  1  0  0  0  0
 14 16  1  0  0  0  0
 14 17  2  0  0  0  0
 15 18  2  0  0  0  0
 15 19  1  0  0  0  0
 16 20  1  0  0  0  0
 16 21  1  0  0  0  0
 18 22  1  0  0  0  0
 18 38  1  0  0  0  0
 19 23  2  0  0  0  0
 19 39  1  0  0  0  0
 20 24  1  0  0  0  0
 20 40  1  0  0  0  0
 20 41  1  0  0  0  0
 21 25  1  0  0  0  0
 21 42  1  0  0  0  0
 21 43  1  0  0  0  0
 22 26  2  0  0  0  0
 22 44  1  0  0  0  0
 23 26  1  0  0  0  0
 23 45  1  0  0  0  0
 24 27  1  0  0  0  0
 24 46  1  0  0  0  0
 24 47  1  0  0  0  0
 25 27  1  0  0  0  0
 25 48  1  0  0  0  0
 25 49  1  0  0  0  0
 26 50  1  0  0  0  0
 27 28  1  0  0  0  0
 28 29  1  0  0  0  0
 28 30  2  0  0  0  0
 29 31  2  0  0  0  0
 29 32  1  0  0  0  0
 31 33  1  0  0  0  0
 31 51  1  0  0  0  0
 32 34  2  0  0  0  0
 32 52  1  0  0  0  0
 33 35  2  0  0  0  0
 33 53  1  0  0  0  0
 34 35  1  0  0  0  0
 34 54  1  0  0  0  0
 35 55  1  0  0  0  0
M  END
>  <Mol_ID>
8314

>  <Formula>
C25H20F3N5O2

>  <MolWeight>
479.4538096

>  <Cat>
P2022

>  <Name>
CL-417513

>  <Synonyms>
N/A

>  <Target>
PAR-2,11¦Â-HSD1

>  <Form>
free base

>  <CAS>
313986-65-1

>  <URL>
N/A

$$$$
