CL-424032
 OpenBabel08302521403D

 28 30  0  0  0  0  0  0  0  0999 V2000
    0.3201    0.6368    0.0271 N   0  0  0  0  0  0  0  0  0  0  0  0
    0.1724   -0.7546    0.0476 C   0  0  0  0  0  0  0  0  0  0  0  0
   -0.7982    1.4591    0.0124 C   0  0  0  0  0  0  0  0  0  0  0  0
    1.6291    0.9878    0.0171 N   0  0  0  0  0  0  0  0  0  0  0  0
   -1.0513   -1.3677    0.0651 N   0  0  0  0  0  0  0  0  0  0  0  0
    1.4417   -1.2764    0.0268 C   0  0  0  0  0  0  0  0  0  0  0  0
   -2.0277    0.9042    0.0102 C   0  0  0  0  0  0  0  0  0  0  0  0
   -0.5956    2.9280    0.0041 C   0  0  0  0  0  0  0  0  0  0  0  0
    2.3147   -0.1676    0.0070 C   0  0  0  0  0  0  0  0  0  0  0  0
   -2.1009   -0.5937    0.0376 C   0  0  0  0  0  0  0  0  0  0  0  0
    0.6892    3.3551   -0.0085 F   0  0  0  0  0  0  0  0  0  0  0  0
   -1.1936    3.4974   -1.0775 F   0  0  0  0  0  0  0  0  0  0  0  0
   -1.1732    3.4986    1.0961 F   0  0  0  0  0  0  0  0  0  0  0  0
    3.7823   -0.2140   -0.0190 C   0  0  0  0  0  0  0  0  0  0  0  0
   -3.4178   -1.1946    0.0196 C   0  0  0  0  0  0  0  0  0  0  0  0
    4.4053    1.0025   -0.0281 N   0  0  0  0  0  0  0  0  0  0  0  0
    4.4270   -1.2602   -0.0288 O   0  0  0  0  0  0  0  0  0  0  0  0
   -3.8348   -2.5128    0.0648 C   0  0  0  0  0  0  0  0  0  0  0  0
   -4.5169   -0.3815   -0.0785 O   0  0  0  0  0  0  0  0  0  0  0  0
   -5.2478   -2.5005   -0.0241 C   0  0  0  0  0  0  0  0  0  0  0  0
   -5.6129   -1.1787   -0.1120 C   0  0  0  0  0  0  0  0  0  0  0  0
    1.7149   -2.3211    0.0213 H   0  0  0  0  0  0  0  0  0  0  0  0
   -2.9459    1.4789   -0.0042 H   0  0  0  0  0  0  0  0  0  0  0  0
    5.4134    1.0379   -0.0320 H   0  0  0  0  0  0  0  0  0  0  0  0
    3.8559    1.8538   -0.0085 H   0  0  0  0  0  0  0  0  0  0  0  0
   -3.1846   -3.3752    0.1427 H   0  0  0  0  0  0  0  0  0  0  0  0
   -5.9167   -3.3498   -0.0272 H   0  0  0  0  0  0  0  0  0  0  0  0
   -6.5603   -0.6657   -0.2020 H   0  0  0  0  0  0  0  0  0  0  0  0
  1  2  1  0  0  0  0
  1  3  1  0  0  0  0
  1  4  1  0  0  0  0
  2  5  1  0  0  0  0
  2  6  2  0  0  0  0
  3  7  2  0  0  0  0
  3  8  1  0  0  0  0
  4  9  2  0  0  0  0
  5 10  2  0  0  0  0
  6  9  1  0  0  0  0
  6 22  1  0  0  0  0
  7 10  1  0  0  0  0
  7 23  1  0  0  0  0
  8 11  1  0  0  0  0
  8 12  1  0  0  0  0
  8 13  1  0  0  0  0
  9 14  1  0  0  0  0
 10 15  1  0  0  0  0
 14 16  1  0  0  0  0
 14 17  2  0  0  0  0
 15 18  2  0  0  0  0
 15 19  1  0  0  0  0
 16 24  1  0  0  0  0
 16 25  1  0  0  0  0
 18 20  1  0  0  0  0
 18 26  1  0  0  0  0
 19 21  1  0  0  0  0
 20 21  2  0  0  0  0
 20 27  1  0  0  0  0
 21 28  1  0  0  0  0
M  END
>  <Mol_ID>
8328

>  <Formula>
C12H7F3N4O2

>  <MolWeight>
296.2047896

>  <Cat>
P2026

>  <Name>
CL-424032

>  <Synonyms>
N/A

>  <Target>
sodium channel

>  <Form>
free base

>  <CAS>
312634-62-1

>  <URL>
N/A

$$$$
