CL-423530
 OpenBabel08302521413D

 36 38  0  0  0  0  0  0  0  0999 V2000
    0.1786   -0.7518   -0.1899 C   0  0  0  0  0  0  0  0  0  0  0  0
    1.4405   -1.1826   -0.0153 N   0  0  0  0  0  0  0  0  0  0  0  0
    0.2031    0.5688    0.0246 N   0  3  0  0  0  0  0  0  0  0  0  0
   -1.0234   -1.4339   -0.4726 C   0  0  0  0  0  0  0  0  0  0  0  0
    1.9441   -2.5409    0.0690 C   0  0  0  0  0  0  0  0  0  0  0  0
    2.2954   -0.1064    0.2257 N   0  0  0  0  0  0  0  0  0  0  0  0
   -0.8445    1.3567    0.0550 N   0  0  0  0  0  0  0  0  0  0  0  0
    1.4997    0.9062    0.2380 C   0  0  0  0  0  0  0  0  0  0  0  0
   -2.1899   -0.6496   -0.2653 C   0  0  0  0  0  0  0  0  0  0  0  0
   -0.9631   -2.6472   -0.8512 O   0  5  0  0  0  0  0  0  0  0  0  0
    1.8559   -3.0476    1.4955 C   0  0  0  0  0  0  0  0  0  0  0  0
   -2.0504    0.7357   -0.0484 C   0  0  0  0  0  0  0  0  0  0  0  0
   -3.5324   -1.3553   -0.1999 C   0  0  0  0  0  0  0  0  0  0  0  0
    0.6848   -3.6578    1.9738 C   0  0  0  0  0  0  0  0  0  0  0  0
    2.9465   -2.9261    2.3677 C   0  0  0  0  0  0  0  0  0  0  0  0
   -3.2186    1.6741    0.0512 C   0  0  0  0  0  0  0  0  0  0  0  0
   -4.2532   -1.4788   -1.5297 C   0  0  0  0  0  0  0  0  0  0  0  0
    0.6093   -4.1466    3.2795 C   0  0  0  0  0  0  0  0  0  0  0  0
    2.8726   -3.4236    3.6747 C   0  0  0  0  0  0  0  0  0  0  0  0
    1.7053   -4.0349    4.1292 C   0  0  0  0  0  0  0  0  0  0  0  0
    1.4407   -3.2126   -0.6274 H   0  0  0  0  0  0  0  0  0  0  0  0
    2.9935   -2.5341   -0.2525 H   0  0  0  0  0  0  0  0  0  0  0  0
    1.7465    1.9419    0.4055 H   0  0  0  0  0  0  0  0  0  0  0  0
   -3.3962   -2.3587    0.2257 H   0  0  0  0  0  0  0  0  0  0  0  0
   -4.1760   -0.8581    0.5337 H   0  0  0  0  0  0  0  0  0  0  0  0
   -0.1848   -3.7731    1.3294 H   0  0  0  0  0  0  0  0  0  0  0  0
    3.8691   -2.4557    2.0370 H   0  0  0  0  0  0  0  0  0  0  0  0
   -3.1146    2.2966    0.9464 H   0  0  0  0  0  0  0  0  0  0  0  0
   -3.2352    2.3284   -0.8267 H   0  0  0  0  0  0  0  0  0  0  0  0
   -4.1873    1.1767    0.1098 H   0  0  0  0  0  0  0  0  0  0  0  0
   -3.7218   -2.1531   -2.2090 H   0  0  0  0  0  0  0  0  0  0  0  0
   -5.2531   -1.8957   -1.3661 H   0  0  0  0  0  0  0  0  0  0  0  0
   -4.3633   -0.5101   -2.0251 H   0  0  0  0  0  0  0  0  0  0  0  0
   -0.3067   -4.6199    3.6254 H   0  0  0  0  0  0  0  0  0  0  0  0
    3.7305   -3.3435    4.3373 H   0  0  0  0  0  0  0  0  0  0  0  0
    1.6497   -4.4262    5.1401 H   0  0  0  0  0  0  0  0  0  0  0  0
  1  2  1  0  0  0  0
  1  3  1  0  0  0  0
  1  4  2  0  0  0  0
  2  5  1  0  0  0  0
  2  6  1  0  0  0  0
  3  7  2  0  0  0  0
  3  8  1  0  0  0  0
  4  9  1  0  0  0  0
  4 10  1  0  0  0  0
  5 11  1  0  0  0  0
  5 21  1  0  0  0  0
  5 22  1  0  0  0  0
  6  8  2  0  0  0  0
  7 12  1  0  0  0  0
  8 23  1  0  0  0  0
  9 13  1  0  0  0  0
  9 12  2  0  0  0  0
 11 14  2  0  0  0  0
 11 15  1  0  0  0  0
 12 16  1  0  0  0  0
 13 17  1  0  0  0  0
 13 24  1  0  0  0  0
 13 25  1  0  0  0  0
 14 18  1  0  0  0  0
 14 26  1  0  0  0  0
 15 19  2  0  0  0  0
 15 27  1  0  0  0  0
 16 28  1  0  0  0  0
 16 29  1  0  0  0  0
 16 30  1  0  0  0  0
 17 31  1  0  0  0  0
 17 32  1  0  0  0  0
 17 33  1  0  0  0  0
 18 20  2  0  0  0  0
 18 34  1  0  0  0  0
 19 20  1  0  0  0  0
 19 35  1  0  0  0  0
 20 36  1  0  0  0  0
M  CHG  2   3   1  10  -1
M  END
>  <Mol_ID>
8367

>  <Formula>
C15H15ClN4O

>  <MolWeight>
302.7588

>  <Cat>
P2025

>  <Name>
CL-423530

>  <Synonyms>
N/A

>  <Target>
SERT

>  <Form>
free base

>  <CAS>
1095530-73-6

>  <URL>
N/A

$$$$
