CL-425659
 OpenBabel08302521413D

 36 38  0  0  0  0  0  0  0  0999 V2000
   -1.0414   -1.8071   -0.1383 C   0  0  0  0  0  0  0  0  0  0  0  0
    0.1523   -0.9708   -0.0639 C   0  0  0  0  0  0  0  0  0  0  0  0
   -2.1670   -0.9978   -0.1253 C   0  0  0  0  0  0  0  0  0  0  0  0
   -0.9720   -3.2678   -0.2946 C   0  0  0  0  0  0  0  0  0  0  0  0
   -0.1447    0.3778   -0.0892 C   0  0  0  0  0  0  0  0  0  0  0  0
    1.5803   -1.4515   -0.0432 C   0  0  0  0  0  0  0  0  0  0  0  0
   -1.8076    0.6667   -0.2393 S   0  0  0  0  0  0  0  0  0  0  0  0
   -3.5271   -1.2184   -0.0955 N   0  0  0  0  0  0  0  0  0  0  0  0
   -2.1247   -3.8581   -0.7288 O   0  0  0  0  0  0  0  0  0  0  0  0
    0.0812   -3.8866   -0.1676 O   0  0  0  0  0  0  0  0  0  0  0  0
    0.8565    1.4890    0.0010 C   0  0  0  0  0  0  0  0  0  0  0  0
    2.5595   -0.3569    0.3962 C   0  0  0  0  0  0  0  0  0  0  0  0
   -4.1288   -1.9521    0.9175 C   0  0  0  0  0  0  0  0  0  0  0  0
   -1.9831   -5.2337   -1.1123 C   0  0  0  0  0  0  0  0  0  0  0  0
    2.2733    0.9776   -0.2993 C   0  0  0  0  0  0  0  0  0  0  0  0
   -5.5892   -2.0254    0.8227 C   0  0  0  0  0  0  0  0  0  0  0  0
   -3.5091   -2.4388    1.8607 O   0  0  0  0  0  0  0  0  0  0  0  0
   -6.4811   -2.6330    1.6999 C   0  0  0  0  0  0  0  0  0  0  0  0
   -6.4511   -1.3364   -0.5034 S   0  0  0  0  0  0  0  0  0  0  0  0
   -7.8359   -2.5228    1.2908 C   0  0  0  0  0  0  0  0  0  0  0  0
   -7.9680   -1.8232    0.1097 C   0  0  0  0  0  0  0  0  0  0  0  0
    1.8431   -1.7919   -1.0530 H   0  0  0  0  0  0  0  0  0  0  0  0
    1.6952   -2.2995    0.6389 H   0  0  0  0  0  0  0  0  0  0  0  0
   -4.1035   -0.4630   -0.4462 H   0  0  0  0  0  0  0  0  0  0  0  0
    0.8316    1.9017    1.0172 H   0  0  0  0  0  0  0  0  0  0  0  0
    0.6112    2.3012   -0.6923 H   0  0  0  0  0  0  0  0  0  0  0  0
    3.5840   -0.6812    0.1805 H   0  0  0  0  0  0  0  0  0  0  0  0
    2.4890   -0.2207    1.4827 H   0  0  0  0  0  0  0  0  0  0  0  0
   -0.9484   -5.5370   -1.3136 H   0  0  0  0  0  0  0  0  0  0  0  0
   -2.4011   -5.8760   -0.3326 H   0  0  0  0  0  0  0  0  0  0  0  0
   -2.5459   -5.3857   -2.0371 H   0  0  0  0  0  0  0  0  0  0  0  0
    3.0076    1.7257    0.0211 H   0  0  0  0  0  0  0  0  0  0  0  0
    2.3982    0.8508   -1.3822 H   0  0  0  0  0  0  0  0  0  0  0  0
   -6.1553   -3.1441    2.6062 H   0  0  0  0  0  0  0  0  0  0  0  0
   -8.6832   -2.9310    1.8372 H   0  0  0  0  0  0  0  0  0  0  0  0
   -8.8747   -1.5865   -0.4211 H   0  0  0  0  0  0  0  0  0  0  0  0
  1  2  1  0  0  0  0
  1  3  2  0  0  0  0
  1  4  1  0  0  0  0
  2  5  2  0  0  0  0
  2  6  1  0  0  0  0
  3  7  1  0  0  0  0
  3  8  1  0  0  0  0
  4  9  1  0  0  0  0
  4 10  2  0  0  0  0
  5 11  1  0  0  0  0
  5  7  1  0  0  0  0
  6 12  1  0  0  0  0
  6 22  1  0  0  0  0
  6 23  1  0  0  0  0
  8 13  1  0  0  0  0
  8 24  1  0  0  0  0
  9 14  1  0  0  0  0
 11 15  1  0  0  0  0
 11 25  1  0  0  0  0
 11 26  1  0  0  0  0
 12 15  1  0  0  0  0
 12 27  1  0  0  0  0
 12 28  1  0  0  0  0
 13 16  1  0  0  0  0
 13 17  2  0  0  0  0
 14 29  1  0  0  0  0
 14 30  1  0  0  0  0
 14 31  1  0  0  0  0
 15 32  1  0  0  0  0
 15 33  1  0  0  0  0
 16 18  2  0  0  0  0
 16 19  1  0  0  0  0
 18 20  1  0  0  0  0
 18 34  1  0  0  0  0
 19 21  1  0  0  0  0
 20 21  2  0  0  0  0
 20 35  1  0  0  0  0
 21 36  1  0  0  0  0
M  END
>  <Mol_ID>
8368

>  <Formula>
C15H15NO3S2

>  <MolWeight>
321.4145

>  <Cat>
P2027

>  <Name>
CL-425659

>  <Synonyms>
N/A

>  <Target>
PGE2 receptor

>  <Form>
free base

>  <CAS>
1101220-90-9

>  <URL>
N/A

$$$$
