CL-415786
 OpenBabel08302521403D

 19 20  0  0  0  0  0  0  0  0999 V2000
    0.1523   -0.7424   -0.0016 C   0  0  0  0  0  0  0  0  0  0  0  0
    0.2585    0.5710   -0.0004 N   0  3  0  0  0  0  0  0  0  0  0  0
    1.7068   -1.4272   -0.0036 S   0  0  0  0  0  0  0  0  0  0  0  0
   -0.9994   -1.4358   -0.0003 N   0  0  0  0  0  0  0  0  0  0  0  0
   -0.9766    1.4013    0.0035 C   0  0  0  0  0  0  0  0  0  0  0  0
    1.4946    1.1420   -0.0002 N   0  0  0  0  0  0  0  0  0  0  0  0
    2.3896    0.1725   -0.0009 C   0  0  0  0  0  0  0  0  0  0  0  0
   -2.1270   -0.6910    0.0036 C   0  0  0  0  0  0  0  0  0  0  0  0
   -2.1693    0.6990    0.0040 C   0  0  0  0  0  0  0  0  0  0  0  0
   -0.9004    2.8890    0.0065 C   0  0  0  0  0  0  0  0  0  0  0  0
    4.0534    0.4625    0.0007 S   0  5  0  0  0  0  0  0  0  0  0  0
   -3.4142   -1.4730    0.0086 C   0  0  0  0  0  0  0  0  0  0  0  0
   -3.1198    1.2267    0.0068 H   0  0  0  0  0  0  0  0  0  0  0  0
   -0.3758    3.2361    0.9009 H   0  0  0  0  0  0  0  0  0  0  0  0
   -0.3704    3.2417   -0.8824 H   0  0  0  0  0  0  0  0  0  0  0  0
   -1.9003    3.3365    0.0049 H   0  0  0  0  0  0  0  0  0  0  0  0
   -3.4639   -2.1096   -0.8802 H   0  0  0  0  0  0  0  0  0  0  0  0
   -3.4596   -2.1027    0.9026 H   0  0  0  0  0  0  0  0  0  0  0  0
   -4.2904   -0.8167    0.0083 H   0  0  0  0  0  0  0  0  0  0  0  0
  1  2  2  0  0  0  0
  1  3  1  0  0  0  0
  1  4  1  0  0  0  0
  2  5  1  0  0  0  0
  2  6  1  0  0  0  0
  3  7  1  0  0  0  0
  4  8  2  0  0  0  0
  5  9  2  0  0  0  0
  5 10  1  0  0  0  0
  6  7  2  0  0  0  0
  7 11  1  0  0  0  0
  8 12  1  0  0  0  0
  8  9  1  0  0  0  0
  9 13  1  0  0  0  0
 10 14  1  0  0  0  0
 10 15  1  0  0  0  0
 10 16  1  0  0  0  0
 12 17  1  0  0  0  0
 12 18  1  0  0  0  0
 12 19  1  0  0  0  0
M  CHG  2   2   1  11  -1
M  END
>  <Mol_ID>
8344

>  <Formula>
C7H7N3S2

>  <MolWeight>
197.28058

>  <Cat>
P2020

>  <Name>
CL-415786

>  <Synonyms>
N/A

>  <Target>
Anti-infection

>  <Form>
free base

>  <CAS>
87253-83-6

>  <URL>
N/A

$$$$
