CL-409822
 OpenBabel08302521403D

 54 57  0  0  0  0  0  0  0  0999 V2000
    0.1579    0.4526    0.3956 C   0  0  0  0  0  0  0  0  0  0  0  0
    1.4696    0.8848    0.4330 N   0  0  0  0  0  0  0  0  0  0  0  0
    0.2385   -0.8929    0.1937 C   0  0  0  0  0  0  0  0  0  0  0  0
   -1.1192    1.0897    0.4798 C   0  0  0  0  0  0  0  0  0  0  0  0
    2.2730   -0.2749    0.3873 C   0  0  0  0  0  0  0  0  0  0  0  0
    1.9659    2.2507    0.3270 C   0  0  0  0  0  0  0  0  0  0  0  0
    1.5124   -1.3398    0.2234 N   0  0  0  0  0  0  0  0  0  0  0  0
   -0.8776   -1.6864    0.0163 N   0  0  0  0  0  0  0  0  0  0  0  0
   -2.1422    0.3020    0.0083 N   0  0  0  0  0  0  0  0  0  0  0  0
   -1.3607    2.1744    0.9986 O   0  0  0  0  0  0  0  0  0  0  0  0
    3.6391   -0.3213    0.3860 N   0  0  0  0  0  0  0  0  0  0  0  0
    1.0461    3.3789   -0.1893 C   0  0  3  0  0  0  0  0  0  0  0  0
   -2.1179   -1.0725   -0.0864 C   0  0  0  0  0  0  0  0  0  0  0  0
   -0.7566   -3.1262   -0.0719 C   0  0  0  0  0  0  0  0  0  0  0  0
    4.2799   -1.3636   -0.4350 C   0  0  0  0  0  0  0  0  0  0  0  0
    4.5145    0.5104    1.1997 C   0  0  0  0  0  0  0  0  0  0  0  0
    1.8110    4.7042   -0.2329 C   0  0  0  0  0  0  0  0  0  0  0  0
    0.5600    3.0695   -1.5003 O   0  0  0  0  0  0  0  0  0  0  0  0
   -3.1806   -1.6780   -0.2257 O   0  0  0  0  0  0  0  0  0  0  0  0
    5.2844   -2.1993    0.3582 C   0  0  0  0  0  0  0  0  0  0  0  0
    5.5268   -0.3405    1.9894 C   0  0  0  0  0  0  0  0  0  0  0  0
    0.9228    5.7835   -0.5843 O   0  0  0  0  0  0  0  0  0  0  0  0
    6.2815   -1.3128    1.0900 C   0  0  0  0  0  0  0  0  0  0  0  0
    1.5822    6.9849   -0.7222 C   0  0  0  0  0  0  0  0  0  0  0  0
    1.1254    7.8532   -1.7138 C   0  0  0  0  0  0  0  0  0  0  0  0
    2.6701    7.3635    0.0721 C   0  0  0  0  0  0  0  0  0  0  0  0
    1.8179    9.0399   -1.9763 C   0  0  0  0  0  0  0  0  0  0  0  0
    3.3630    8.5424   -0.1950 C   0  0  0  0  0  0  0  0  0  0  0  0
    2.9506    9.3704   -1.2321 C   0  0  0  0  0  0  0  0  0  0  0  0
    2.3307    2.5183    1.3246 H   0  0  0  0  0  0  0  0  0  0  0  0
    2.8223    2.1990   -0.3570 H   0  0  0  0  0  0  0  0  0  0  0  0
   -3.0636    0.7087    0.0411 H   0  0  0  0  0  0  0  0  0  0  0  0
    0.1922    3.5432    0.4685 H   0  0  0  0  0  0  0  0  0  0  0  0
   -0.1833   -3.3831   -0.9672 H   0  0  0  0  0  0  0  0  0  0  0  0
   -0.2376   -3.4959    0.8187 H   0  0  0  0  0  0  0  0  0  0  0  0
   -1.7359   -3.6081   -0.1289 H   0  0  0  0  0  0  0  0  0  0  0  0
    4.7976   -0.8721   -1.2675 H   0  0  0  0  0  0  0  0  0  0  0  0
    3.5526   -2.0481   -0.8883 H   0  0  0  0  0  0  0  0  0  0  0  0
    3.9606    1.1113    1.9233 H   0  0  0  0  0  0  0  0  0  0  0  0
    5.0661    1.1956    0.5456 H   0  0  0  0  0  0  0  0  0  0  0  0
    2.2273    4.8719    0.7650 H   0  0  0  0  0  0  0  0  0  0  0  0
    2.6043    4.6454   -0.9881 H   0  0  0  0  0  0  0  0  0  0  0  0
    0.1287    3.8820   -1.8298 H   0  0  0  0  0  0  0  0  0  0  0  0
    5.8205   -2.8742   -0.3194 H   0  0  0  0  0  0  0  0  0  0  0  0
    4.7572   -2.8300    1.0847 H   0  0  0  0  0  0  0  0  0  0  0  0
    5.0014   -0.9104    2.7662 H   0  0  0  0  0  0  0  0  0  0  0  0
    6.2435    0.3114    2.5019 H   0  0  0  0  0  0  0  0  0  0  0  0
    6.9641   -1.9302    1.6862 H   0  0  0  0  0  0  0  0  0  0  0  0
    6.8949   -0.7617    0.3687 H   0  0  0  0  0  0  0  0  0  0  0  0
    0.2470    7.6027   -2.3039 H   0  0  0  0  0  0  0  0  0  0  0  0
    2.9992    6.7614    0.9098 H   0  0  0  0  0  0  0  0  0  0  0  0
    1.4841    9.7026   -2.7707 H   0  0  0  0  0  0  0  0  0  0  0  0
    4.2286    8.8030    0.4083 H   0  0  0  0  0  0  0  0  0  0  0  0
    3.5076   10.2770   -1.4527 H   0  0  0  0  0  0  0  0  0  0  0  0
  1  2  1  0  0  0  0
  1  3  2  0  0  0  0
  1  4  1  0  0  0  0
  2  5  1  0  0  0  0
  2  6  1  0  0  0  0
  3  7  1  0  0  0  0
  3  8  1  0  0  0  0
  4  9  1  0  0  0  0
  4 10  2  0  0  0  0
  5 11  1  0  0  0  0
  5  7  2  0  0  0  0
  6 12  1  0  0  0  0
  6 30  1  0  0  0  0
  6 31  1  0  0  0  0
  8 13  1  0  0  0  0
  8 14  1  0  0  0  0
  9 13  1  0  0  0  0
  9 32  1  0  0  0  0
 11 15  1  0  0  0  0
 11 16  1  0  0  0  0
 12 17  1  0  0  0  0
 12 18  1  0  0  0  0
 12 33  1  0  0  0  0
 13 19  2  0  0  0  0
 14 34  1  0  0  0  0
 14 35  1  0  0  0  0
 14 36  1  0  0  0  0
 15 20  1  0  0  0  0
 15 37  1  0  0  0  0
 15 38  1  0  0  0  0
 16 21  1  0  0  0  0
 16 39  1  0  0  0  0
 16 40  1  0  0  0  0
 17 22  1  0  0  0  0
 17 41  1  0  0  0  0
 17 42  1  0  0  0  0
 18 43  1  0  0  0  0
 20 23  1  0  0  0  0
 20 44  1  0  0  0  0
 20 45  1  0  0  0  0
 21 23  1  0  0  0  0
 21 46  1  0  0  0  0
 21 47  1  0  0  0  0
 22 24  1  0  0  0  0
 23 48  1  0  0  0  0
 23 49  1  0  0  0  0
 24 25  2  0  0  0  0
 24 26  1  0  0  0  0
 25 27  1  0  0  0  0
 25 50  1  0  0  0  0
 26 28  2  0  0  0  0
 26 51  1  0  0  0  0
 27 29  2  0  0  0  0
 27 52  1  0  0  0  0
 28 29  1  0  0  0  0
 28 53  1  0  0  0  0
 29 54  1  0  0  0  0
M  END
>  <Mol_ID>
8313

>  <Formula>
C20H25N5O4

>  <MolWeight>
399.4436

>  <Cat>
P2018

>  <Name>
CL-409822

>  <Synonyms>
N/A

>  <Target>
others

>  <Form>
free base

>  <CAS>
102838-04-0

>  <URL>
N/A

$$$$
