CL-77474
 OpenBabel08302521393D

 29 30  0  0  0  0  0  0  0  0999 V2000
    0.6803    1.2026    0.0536 C   0  0  0  0  0  0  0  0  0  0  0  0
    1.3980    2.4972    0.2202 C   0  0  0  0  0  0  0  0  0  0  0  0
    1.3465    0.0262   -0.3031 C   0  0  0  0  0  0  0  0  0  0  0  0
   -0.6880    1.1287    0.2774 C   0  0  0  0  0  0  0  0  0  0  0  0
    0.7519    3.6104    0.0050 N   0  0  0  0  0  0  0  0  0  0  0  0
    2.8628    2.4096    0.6057 C   0  0  0  0  0  0  0  0  0  0  0  0
    0.6371   -1.1708   -0.3802 C   0  0  0  0  0  0  0  0  0  0  0  0
   -1.4013   -0.0256    0.2148 N   0  0  0  0  0  0  0  0  0  0  0  0
    1.4506    4.7664    0.1352 N   0  0  0  0  0  0  0  0  0  0  0  0
   -0.7204   -1.1476   -0.1052 C   0  0  0  0  0  0  0  0  0  0  0  0
    0.8699    5.9936   -0.2559 C   0  0  0  0  0  0  0  0  0  0  0  0
   -0.3735    6.0879   -0.8894 C   0  0  0  0  0  0  0  0  0  0  0  0
    1.6433    7.1607   -0.1382 C   0  0  0  0  0  0  0  0  0  0  0  0
   -0.8430    7.3165   -1.3688 C   0  0  0  0  0  0  0  0  0  0  0  0
    1.1834    8.3866   -0.6252 C   0  0  0  0  0  0  0  0  0  0  0  0
   -0.0613    8.4636   -1.2430 C   0  0  0  0  0  0  0  0  0  0  0  0
    2.4089    0.0225   -0.5314 H   0  0  0  0  0  0  0  0  0  0  0  0
   -1.2680    2.0101    0.5388 H   0  0  0  0  0  0  0  0  0  0  0  0
    3.0303    1.5450    1.2604 H   0  0  0  0  0  0  0  0  0  0  0  0
    3.4714    2.3023   -0.2963 H   0  0  0  0  0  0  0  0  0  0  0  0
    3.2049    3.2800    1.1651 H   0  0  0  0  0  0  0  0  0  0  0  0
    1.1315   -2.0988   -0.6454 H   0  0  0  0  0  0  0  0  0  0  0  0
    2.0705    4.8831    0.9326 H   0  0  0  0  0  0  0  0  0  0  0  0
   -1.3130   -2.0580   -0.1347 H   0  0  0  0  0  0  0  0  0  0  0  0
   -0.9885    5.1997   -1.0114 H   0  0  0  0  0  0  0  0  0  0  0  0
    2.6298    7.1160    0.3154 H   0  0  0  0  0  0  0  0  0  0  0  0
   -1.8153    7.3720   -1.8517 H   0  0  0  0  0  0  0  0  0  0  0  0
    1.8057    9.2732   -0.5381 H   0  0  0  0  0  0  0  0  0  0  0  0
   -0.4155    9.4119   -1.6376 H   0  0  0  0  0  0  0  0  0  0  0  0
  1  2  1  0  0  0  0
  1  3  2  0  0  0  0
  1  4  1  0  0  0  0
  2  5  2  0  0  0  0
  2  6  1  0  0  0  0
  3  7  1  0  0  0  0
  3 17  1  0  0  0  0
  4  8  2  0  0  0  0
  4 18  1  0  0  0  0
  5  9  1  0  0  0  0
  6 19  1  0  0  0  0
  6 20  1  0  0  0  0
  6 21  1  0  0  0  0
  7 10  2  0  0  0  0
  7 22  1  0  0  0  0
  8 10  1  0  0  0  0
  9 11  1  0  0  0  0
  9 23  1  0  0  0  0
 10 24  1  0  0  0  0
 11 12  2  0  0  0  0
 11 13  1  0  0  0  0
 12 14  1  0  0  0  0
 12 25  1  0  0  0  0
 13 15  2  0  0  0  0
 13 26  1  0  0  0  0
 14 16  2  0  0  0  0
 14 27  1  0  0  0  0
 15 16  1  0  0  0  0
 15 28  1  0  0  0  0
 16 29  1  0  0  0  0
M  END
>  <Mol_ID>
8061

>  <Formula>
C13H13N3

>  <MolWeight>
211.26242

>  <Cat>
P2030

>  <Name>
CL-77474

>  <Synonyms>
N/A

>  <Target>
PPAR

>  <Form>
free base

>  <CAS>
5973-84-2

>  <URL>
N/A

$$$$
