CL-82198
 OpenBabel08302521313D

 44 46  0  0  0  0  0  0  0  0999 V2000
   -2.1858    3.1182    0.7692 O   0  0  0  0  0  0  0  0  0  0  0  0
    1.5528   -6.4819   -2.5363 O   0  0  0  0  0  0  0  0  0  0  0  0
   -0.2395   -4.3156   -0.3078 O   0  0  0  0  0  0  0  0  0  0  0  0
   -1.9872    1.3750   -1.6068 N   0  0  0  0  0  0  0  0  0  0  0  0
    0.1955   -4.0600   -2.5301 N   0  0  0  0  0  0  0  0  0  0  0  0
   -1.3425    0.0655   -1.4079 C   0  0  0  0  0  0  0  0  0  0  0  0
   -1.1100    2.5399   -1.3529 C   0  0  0  0  0  0  0  0  0  0  0  0
   -3.2183    1.5289   -0.7953 C   0  0  0  0  0  0  0  0  0  0  0  0
   -0.2929   -0.2351   -2.4976 C   0  0  0  0  0  0  0  0  0  0  0  0
    0.3891   -1.6059   -2.3708 C   0  0  0  0  0  0  0  0  0  0  0  0
   -0.9238    2.8998    0.1307 C   0  0  0  0  0  0  0  0  0  0  0  0
   -2.9936    1.9403    0.6714 C   0  0  0  0  0  0  0  0  0  0  0  0
   -0.5248   -2.8015   -2.6388 C   0  0  0  0  0  0  0  0  0  0  0  0
    0.2844   -4.7438   -1.3343 C   0  0  0  0  0  0  0  0  0  0  0  0
    1.0379   -5.9840   -1.3630 C   0  0  0  0  0  0  0  0  0  0  0  0
    2.0810   -7.9216   -0.8666 C   0  0  0  0  0  0  0  0  0  0  0  0
    1.3448   -6.8431   -0.3222 C   0  0  0  0  0  0  0  0  0  0  0  0
    2.1755   -7.6625   -2.2300 C   0  0  0  0  0  0  0  0  0  0  0  0
    2.6665   -9.0927   -0.3514 C   0  0  0  0  0  0  0  0  0  0  0  0
    2.8216   -8.5109   -3.1295 C   0  0  0  0  0  0  0  0  0  0  0  0
    3.3270   -9.9584   -1.2317 C   0  0  0  0  0  0  0  0  0  0  0  0
    3.3996   -9.6727   -2.5975 C   0  0  0  0  0  0  0  0  0  0  0  0
    0.7193   -4.4212   -3.3192 H   0  0  0  0  0  0  0  0  0  0  0  0
   -0.8982   -0.0209   -0.4102 H   0  0  0  0  0  0  0  0  0  0  0  0
   -2.1156   -0.7083   -1.4841 H   0  0  0  0  0  0  0  0  0  0  0  0
   -1.5791    3.3999   -1.8490 H   0  0  0  0  0  0  0  0  0  0  0  0
   -0.1318    2.4265   -1.8282 H   0  0  0  0  0  0  0  0  0  0  0  0
   -3.8161    2.3145   -1.2756 H   0  0  0  0  0  0  0  0  0  0  0  0
   -3.8308    0.6205   -0.8350 H   0  0  0  0  0  0  0  0  0  0  0  0
   -0.7534   -0.1494   -3.4901 H   0  0  0  0  0  0  0  0  0  0  0  0
    0.5048    0.5147   -2.4569 H   0  0  0  0  0  0  0  0  0  0  0  0
    1.2152   -1.6398   -3.0939 H   0  0  0  0  0  0  0  0  0  0  0  0
    0.8488   -1.6956   -1.3794 H   0  0  0  0  0  0  0  0  0  0  0  0
   -0.3737    2.1230    0.6733 H   0  0  0  0  0  0  0  0  0  0  0  0
   -0.3511    3.8296    0.2142 H   0  0  0  0  0  0  0  0  0  0  0  0
   -3.9571    2.1696    1.1393 H   0  0  0  0  0  0  0  0  0  0  0  0
   -2.5266    1.1365    1.2510 H   0  0  0  0  0  0  0  0  0  0  0  0
   -1.3594   -2.8142   -1.9304 H   0  0  0  0  0  0  0  0  0  0  0  0
   -0.9402   -2.7539   -3.6501 H   0  0  0  0  0  0  0  0  0  0  0  0
    1.0563   -6.6965    0.7094 H   0  0  0  0  0  0  0  0  0  0  0  0
    2.6110   -9.3215    0.7068 H   0  0  0  0  0  0  0  0  0  0  0  0
    2.8718   -8.2846   -4.1868 H   0  0  0  0  0  0  0  0  0  0  0  0
    3.7868  -10.8664   -0.8444 H   0  0  0  0  0  0  0  0  0  0  0  0
    3.9149  -10.3666   -3.2596 H   0  0  0  0  0  0  0  0  0  0  0  0
  1 11  1  0  0  0  0
  1 12  1  0  0  0  0
  2 15  1  0  0  0  0
  2 18  1  0  0  0  0
  3 14  2  0  0  0  0
  4  6  1  0  0  0  0
  4  7  1  0  0  0  0
  4  8  1  0  0  0  0
  5 13  1  0  0  0  0
  5 14  1  0  0  0  0
  5 23  1  0  0  0  0
  6  9  1  0  0  0  0
  6 24  1  0  0  0  0
  6 25  1  0  0  0  0
  7 11  1  0  0  0  0
  7 26  1  0  0  0  0
  7 27  1  0  0  0  0
  8 12  1  0  0  0  0
  8 28  1  0  0  0  0
  8 29  1  0  0  0  0
  9 10  1  0  0  0  0
  9 30  1  0  0  0  0
  9 31  1  0  0  0  0
 10 13  1  0  0  0  0
 10 32  1  0  0  0  0
 10 33  1  0  0  0  0
 11 34  1  0  0  0  0
 11 35  1  0  0  0  0
 12 36  1  0  0  0  0
 12 37  1  0  0  0  0
 13 38  1  0  0  0  0
 13 39  1  0  0  0  0
 14 15  1  0  0  0  0
 15 17  2  0  0  0  0
 16 17  1  0  0  0  0
 16 18  2  0  0  0  0
 16 19  1  0  0  0  0
 17 40  1  0  0  0  0
 18 20  1  0  0  0  0
 19 21  2  0  0  0  0
 19 41  1  0  0  0  0
 20 22  2  0  0  0  0
 20 42  1  0  0  0  0
 21 22  1  0  0  0  0
 21 43  1  0  0  0  0
 22 44  1  0  0  0  0
M  END
>  <Mol_ID>
6064

>  <Formula>
C17H22N2O3

>  <MolWeight>
302.36818

>  <Cat>
E0073

>  <Name>
CL-82198

>  <Synonyms>
N/A

>  <Target>
MMP

>  <Form>
Free Base

>  <CAS>
307002-71-7

>  <URL>
http://www.selleckchem.com/products/cl-82198.html

$$$$
