CL-802
 OpenBabel08302521423D

 29 30  0  0  0  0  0  0  0  0999 V2000
    1.5204   -0.1789   -0.3578 C   0  0  0  0  0  0  0  0  0  0  0  0
    0.4207   -0.9098    0.1130 C   0  0  0  0  0  0  0  0  0  0  0  0
    0.0150    1.2493   -1.6142 C   0  0  0  0  0  0  0  0  0  0  0  0
   -1.0745    0.5196   -1.1404 C   0  0  0  0  0  0  0  0  0  0  0  0
   -0.8735   -0.5573   -0.2767 C   0  0  0  0  0  0  0  0  0  0  0  0
    1.3107    0.9048   -1.2234 C   0  0  0  0  0  0  0  0  0  0  0  0
    3.1420   -1.7564    0.3190 O   0  0  0  0  0  0  0  0  0  0  0  0
    2.8858   -0.5904    0.0650 C   0  0  0  0  0  0  0  0  0  0  0  0
    3.8226    0.4481    0.1082 N   0  0  0  0  0  0  0  0  0  0  0  0
    6.0839   -0.5741   -0.9413 C   0  0  0  0  0  0  0  0  0  0  0  0
    6.5670    0.1486   -2.0382 C   0  0  0  0  0  0  0  0  0  0  0  0
    7.1415   -0.5325   -3.1129 C   0  0  0  0  0  0  0  0  0  0  0  0
    7.2406   -1.9244   -3.0851 C   0  0  0  0  0  0  0  0  0  0  0  0
    6.7631   -2.6409   -1.9858 C   0  0  0  0  0  0  0  0  0  0  0  0
    6.1866   -1.9670   -0.9086 C   0  0  0  0  0  0  0  0  0  0  0  0
    5.4362    0.2899    0.4681 S   0  0  0  0  0  0  0  0  0  0  0  0
    5.9585    1.6418    0.4233 O   0  0  0  0  0  0  0  0  0  0  0  0
    5.6034   -0.5246    1.6492 O   0  0  0  0  0  0  0  0  0  0  0  0
    0.5678   -1.7553    0.7832 H   0  0  0  0  0  0  0  0  0  0  0  0
   -0.1448    2.0779   -2.3005 H   0  0  0  0  0  0  0  0  0  0  0  0
   -2.0821    0.7844   -1.4533 H   0  0  0  0  0  0  0  0  0  0  0  0
   -1.7259   -1.1270    0.0871 H   0  0  0  0  0  0  0  0  0  0  0  0
    2.1424    1.4662   -1.6394 H   0  0  0  0  0  0  0  0  0  0  0  0
    3.5413    1.4215    0.0586 H   0  0  0  0  0  0  0  0  0  0  0  0
    6.5156    1.2345   -2.0582 H   0  0  0  0  0  0  0  0  0  0  0  0
    7.5267    0.0211   -3.9659 H   0  0  0  0  0  0  0  0  0  0  0  0
    7.7001   -2.4530   -3.9172 H   0  0  0  0  0  0  0  0  0  0  0  0
    6.8498   -3.7244   -1.9634 H   0  0  0  0  0  0  0  0  0  0  0  0
    5.8244   -2.5296   -0.0495 H   0  0  0  0  0  0  0  0  0  0  0  0
  1  6  1  0  0  0  0
  1  2  2  0  0  0  0
  1  8  1  0  0  0  0
  2 19  1  0  0  0  0
  3  4  1  0  0  0  0
  3 20  1  0  0  0  0
  4  5  2  0  0  0  0
  4 21  1  0  0  0  0
  5  2  1  0  0  0  0
  5 22  1  0  0  0  0
  6  3  2  0  0  0  0
  6 23  1  0  0  0  0
  8  9  1  0  0  0  0
  8  7  2  0  0  0  0
  9 16  1  0  0  0  0
  9 24  1  0  0  0  0
 10 11  2  0  0  0  0
 11 12  1  0  0  0  0
 11 25  1  0  0  0  0
 12 13  2  0  0  0  0
 12 26  1  0  0  0  0
 13 14  1  0  0  0  0
 13 27  1  0  0  0  0
 14 15  2  0  0  0  0
 14 28  1  0  0  0  0
 15 10  1  0  0  0  0
 15 29  1  0  0  0  0
 16 10  1  0  0  0  0
 16 17  2  0  0  0  0
 16 18  2  0  0  0  0
M  END
>  <Mol_ID>
8560

>  <Formula>
C13H11NO3S

>  <MolWeight>
261.29634

>  <Cat>
P2031

>  <Name>
CL-802

>  <Synonyms>
N/A

>  <Target>
others

>  <Form>
free base

>  <CAS>
853695-44-0

>  <URL>
N/A

$$$$
