Cl-amidine.cdx
 OpenBabel08302520413D

 48 47  0  0  0  0  0  0  0  0999 V2000
   -3.7150   -5.1760    5.0719 C   0  0  0  0  0  0  0  0  0  0  0  0
   -4.7672   -5.0987    4.1594 C   0  0  0  0  0  0  0  0  0  0  0  0
   -4.8116   -4.0595    3.2250 C   0  0  0  0  0  0  0  0  0  0  0  0
   -3.7831   -3.1094    3.1862 C   0  0  0  0  0  0  0  0  0  0  0  0
   -2.7696   -3.1497    4.1528 C   0  0  0  0  0  0  0  0  0  0  0  0
   -2.7331   -4.1865    5.0892 C   0  0  0  0  0  0  0  0  0  0  0  0
   -3.6635   -2.1116    2.0813 C   0  0  0  0  0  0  0  0  0  0  0  0
   -3.1258   -1.0285    2.2678 O   0  0  0  0  0  0  0  0  0  0  0  0
   -4.1015   -2.5376    0.8395 N   0  0  0  0  0  0  0  0  0  0  0  0
   -3.6194   -1.8926   -0.3974 C   0  0  2  0  0  0  0  0  0  0  0  0
   -4.4919   -0.6936   -0.8213 C   0  0  0  0  0  0  0  0  0  0  0  0
   -3.5793   -2.8938   -1.5688 C   0  0  0  0  0  0  0  0  0  0  0  0
   -5.7255   -0.6142   -0.2298 N   0  0  0  0  0  0  0  0  0  0  0  0
   -4.2020    0.0675   -1.7412 O   0  0  0  0  0  0  0  0  0  0  0  0
   -2.6707   -4.0983   -1.3021 C   0  0  0  0  0  0  0  0  0  0  0  0
   -2.6615   -5.0866   -2.4721 C   0  0  0  0  0  0  0  0  0  0  0  0
   -1.8121   -6.2153   -2.1415 N   0  0  0  0  0  0  0  0  0  0  0  0
   -1.5838   -7.2601   -2.9911 C   0  0  0  0  0  0  0  0  0  0  0  0
   -0.6790   -8.3751   -2.5196 C   0  0  0  0  0  0  0  0  0  0  0  0
   -2.1045   -7.3186   -4.1729 N   0  0  0  0  0  0  0  0  0  0  0  0
    1.0585    0.0589    0.0018 C   0  0  0  0  0  0  0  0  0  0  0  0
    0.5324    0.6089   -1.1285 F   0  0  0  0  0  0  0  0  0  0  0  0
    0.5379   -1.1987    0.0899 F   0  0  0  0  0  0  0  0  0  0  0  0
    0.5433    0.7639    1.0477 F   0  0  0  0  0  0  0  0  0  0  0  0
    2.5935    0.0479    0.0169 C   0  0  0  0  0  0  0  0  0  0  0  0
    3.3138   -0.3862    0.9080 O   0  0  0  0  0  0  0  0  0  0  0  0
    3.1771    0.5774   -1.0893 O   0  0  0  0  0  0  0  0  0  0  0  0
   -3.6629   -6.0050    5.7749 H   0  0  0  0  0  0  0  0  0  0  0  0
   -5.5460   -5.8575    4.1696 H   0  0  0  0  0  0  0  0  0  0  0  0
   -5.6500   -4.0081    2.5372 H   0  0  0  0  0  0  0  0  0  0  0  0
   -1.9853   -2.3950    4.1570 H   0  0  0  0  0  0  0  0  0  0  0  0
   -1.9273   -4.2327    5.8179 H   0  0  0  0  0  0  0  0  0  0  0  0
   -4.4475   -3.4826    0.7529 H   0  0  0  0  0  0  0  0  0  0  0  0
   -2.6153   -1.4970   -0.2049 H   0  0  0  0  0  0  0  0  0  0  0  0
   -4.5956   -3.2428   -1.7926 H   0  0  0  0  0  0  0  0  0  0  0  0
   -3.2244   -2.3774   -2.4705 H   0  0  0  0  0  0  0  0  0  0  0  0
   -6.2668    0.2192   -0.4285 H   0  0  0  0  0  0  0  0  0  0  0  0
   -5.8581   -1.0642    0.6675 H   0  0  0  0  0  0  0  0  0  0  0  0
   -1.6488   -3.7515   -1.1047 H   0  0  0  0  0  0  0  0  0  0  0  0
   -3.0021   -4.6284   -0.4017 H   0  0  0  0  0  0  0  0  0  0  0  0
   -3.6810   -5.4374   -2.6709 H   0  0  0  0  0  0  0  0  0  0  0  0
   -2.2896   -4.5915   -3.3767 H   0  0  0  0  0  0  0  0  0  0  0  0
   -1.5131   -6.3020   -1.1784 H   0  0  0  0  0  0  0  0  0  0  0  0
   -1.2064   -9.3305   -2.5898 H   0  0  0  0  0  0  0  0  0  0  0  0
    0.2080   -8.4104   -3.1589 H   0  0  0  0  0  0  0  0  0  0  0  0
   -0.3636   -8.2166   -1.4848 H   0  0  0  0  0  0  0  0  0  0  0  0
   -1.8075   -8.1754   -4.6507 H   0  0  0  0  0  0  0  0  0  0  0  0
    4.1424    0.4956   -0.9190 H   0  0  0  0  0  0  0  0  0  0  0  0
  1  2  2  0  0  0  0
  1 28  1  0  0  0  0
  2  3  1  0  0  0  0
  2 29  1  0  0  0  0
  3  4  2  0  0  0  0
  3 30  1  0  0  0  0
  4  5  1  0  0  0  0
  4  7  1  0  0  0  0
  5  6  2  0  0  0  0
  5 31  1  0  0  0  0
  6  1  1  0  0  0  0
  6 32  1  0  0  0  0
  7  8  2  0  0  0  0
  7  9  1  0  0  0  0
  9 33  1  0  0  0  0
 10 12  1  0  0  0  0
 10 34  1  1  0  0  0
 10 11  1  0  0  0  0
 10  9  1  0  0  0  0
 11 13  1  0  0  0  0
 11 14  2  0  0  0  0
 12 15  1  0  0  0  0
 12 35  1  0  0  0  0
 12 36  1  0  0  0  0
 13 37  1  0  0  0  0
 13 38  1  0  0  0  0
 15 16  1  0  0  0  0
 15 39  1  0  0  0  0
 15 40  1  0  0  0  0
 16 17  1  0  0  0  0
 16 41  1  0  0  0  0
 16 42  1  0  0  0  0
 17 18  1  0  0  0  0
 17 43  1  0  0  0  0
 18 19  1  0  0  0  0
 18 20  2  0  0  0  0
 19 44  1  0  0  0  0
 19 45  1  0  0  0  0
 19 46  1  0  0  0  0
 20 47  1  0  0  0  0
 21 22  1  0  0  0  0
 21 23  1  0  0  0  0
 21 24  1  0  0  0  0
 21 25  1  0  0  0  0
 25 26  2  0  0  0  0
 25 27  1  0  0  0  0
 27 48  1  0  0  0  0
M  END
>  <Mol_ID>
3986

>  <Formula>
C16H20ClF3N4O4

>  <MolWeight>
424.8026096

>  <Cat>
S8141

>  <Name>
Cl-amidine

>  <Synonyms>
N/A

>  <Target>
Apoptosis related,Immunology & Inflammation related,PAD

>  <Form>
trifluoroacetate

>  <CAS>
1043444-18-3

>  <URL>
http://selleckchem.com/products/cl-amidine.html

$$$$
