Clascoterone
 OpenBabel08302521253D

 63 66  0  0  0  0  0  0  0  0999 V2000
   -3.7069   -1.3467   -0.0356 C   0  0  0  0  0  0  0  0  0  0  0  0
   -4.1434    0.0210    0.4207 C   0  0  0  0  0  0  0  0  0  0  0  0
   -3.2002    1.1478    0.2247 C   0  0  0  0  0  0  0  0  0  0  0  0
   -1.9390    0.9483   -0.1979 C   0  0  0  0  0  0  0  0  0  0  0  0
   -1.3215   -0.4425   -0.3995 C   0  0  2  0  0  0  0  0  0  0  0  0
   -2.2218   -1.5365    0.2452 C   0  0  0  0  0  0  0  0  0  0  0  0
   -1.0598    2.1367   -0.5258 C   0  0  0  0  0  0  0  0  0  0  0  0
    0.3337    2.0509    0.1004 C   0  0  0  0  0  0  0  0  0  0  0  0
    1.0028    0.7021   -0.2038 C   0  0  2  0  0  0  0  0  0  0  0  0
    0.0941   -0.4627    0.3024 C   0  0  2  0  0  0  0  0  0  0  0  0
    2.4190    0.5792    0.3927 C   0  0  1  0  0  0  0  0  0  0  0  0
    3.0877   -0.7873    0.0889 C   0  0  2  0  0  0  0  0  0  0  0  0
    2.2350   -1.8510    0.7990 C   0  0  0  0  0  0  0  0  0  0  0  0
    0.7869   -1.8535    0.2752 C   0  0  0  0  0  0  0  0  0  0  0  0
    3.4709    1.5726   -0.0866 C   0  0  0  0  0  0  0  0  0  0  0  0
    4.8422    0.8927    0.1845 C   0  0  0  0  0  0  0  0  0  0  0  0
    4.5598   -0.5595    0.6733 C   0  0  2  0  0  0  0  0  0  0  0  0
   -1.2314   -0.7190   -1.9207 C   0  0  0  0  0  0  0  0  0  0  0  0
    3.0880   -1.0790   -1.4417 C   0  0  0  0  0  0  0  0  0  0  0  0
    5.5338   -1.7514    0.3247 C   0  0  0  0  0  0  0  0  0  0  0  0
    4.4367   -0.5006    2.1642 O   0  0  0  0  0  0  0  0  0  0  0  0
    5.5516   -0.4544    2.9750 C   0  0  0  0  0  0  0  0  0  0  0  0
    5.2461   -0.4408    4.4782 C   0  0  0  0  0  0  0  0  0  0  0  0
    3.9422    0.2510    4.8209 C   0  0  0  0  0  0  0  0  0  0  0  0
    6.6865   -0.4760    2.5572 O   0  0  0  0  0  0  0  0  0  0  0  0
    6.8478   -1.5258   -0.4389 C   0  0  0  0  0  0  0  0  0  0  0  0
    6.7598   -1.7012   -1.8409 O   0  0  0  0  0  0  0  0  0  0  0  0
    5.2752   -2.8972    0.7160 O   0  0  0  0  0  0  0  0  0  0  0  0
   -5.2679    0.2421    0.8617 O   0  0  0  0  0  0  0  0  0  0  0  0
   -4.2762   -2.0998    0.5178 H   0  0  0  0  0  0  0  0  0  0  0  0
   -3.9424   -1.4565   -1.0993 H   0  0  0  0  0  0  0  0  0  0  0  0
   -3.6206    2.1346    0.3803 H   0  0  0  0  0  0  0  0  0  0  0  0
   -2.0780   -1.5333    1.3346 H   0  0  0  0  0  0  0  0  0  0  0  0
   -1.9258   -2.5333   -0.1052 H   0  0  0  0  0  0  0  0  0  0  0  0
   -0.9611    2.2042   -1.6170 H   0  0  0  0  0  0  0  0  0  0  0  0
   -1.5306    3.0741   -0.2071 H   0  0  0  0  0  0  0  0  0  0  0  0
    0.9427    2.8695   -0.3023 H   0  0  0  0  0  0  0  0  0  0  0  0
    0.2641    2.2067    1.1834 H   0  0  0  0  0  0  0  0  0  0  0  0
    1.0843    0.6627   -1.2927 H   0  0  0  0  0  0  0  0  0  0  0  0
   -0.0814   -0.2585    1.3716 H   0  0  0  0  0  0  0  0  0  0  0  0
    2.3216    0.7016    1.4831 H   0  0  0  0  0  0  0  0  0  0  0  0
    2.2152   -1.6735    1.8811 H   0  0  0  0  0  0  0  0  0  0  0  0
    2.6715   -2.8462    0.6560 H   0  0  0  0  0  0  0  0  0  0  0  0
    0.2155   -2.5581    0.8913 H   0  0  0  0  0  0  0  0  0  0  0  0
    0.7765   -2.2680   -0.7373 H   0  0  0  0  0  0  0  0  0  0  0  0
    3.3613    1.7952   -1.1547 H   0  0  0  0  0  0  0  0  0  0  0  0
    3.3877    2.5237    0.4526 H   0  0  0  0  0  0  0  0  0  0  0  0
    5.4650    0.9430   -0.7138 H   0  0  0  0  0  0  0  0  0  0  0  0
    5.3315    1.4831    0.9626 H   0  0  0  0  0  0  0  0  0  0  0  0
   -0.5981    0.0017   -2.4459 H   0  0  0  0  0  0  0  0  0  0  0  0
   -0.8310   -1.7159   -2.1289 H   0  0  0  0  0  0  0  0  0  0  0  0
   -2.2166   -0.6651   -2.3981 H   0  0  0  0  0  0  0  0  0  0  0  0
    3.8252   -0.4784   -1.9801 H   0  0  0  0  0  0  0  0  0  0  0  0
    3.2729   -2.1384   -1.6304 H   0  0  0  0  0  0  0  0  0  0  0  0
    2.1268   -0.8797   -1.9288 H   0  0  0  0  0  0  0  0  0  0  0  0
    5.2407   -1.4744    4.8468 H   0  0  0  0  0  0  0  0  0  0  0  0
    6.0507    0.0670    5.0284 H   0  0  0  0  0  0  0  0  0  0  0  0
    3.0960   -0.3250    4.4414 H   0  0  0  0  0  0  0  0  0  0  0  0
    3.8313    0.3475    5.9055 H   0  0  0  0  0  0  0  0  0  0  0  0
    3.9015    1.2511    4.3805 H   0  0  0  0  0  0  0  0  0  0  0  0
    7.1842   -0.5069   -0.2416 H   0  0  0  0  0  0  0  0  0  0  0  0
    7.6441   -2.1610   -0.0403 H   0  0  0  0  0  0  0  0  0  0  0  0
    6.9585   -2.6354   -2.0409 H   0  0  0  0  0  0  0  0  0  0  0  0
  1  2  1  0  0  0  0
  1 30  1  0  0  0  0
  1 31  1  0  0  0  0
  2  3  1  0  0  0  0
  2 29  2  0  0  0  0
  3  4  2  0  0  0  0
  3 32  1  0  0  0  0
  4  5  1  0  0  0  0
  4  7  1  0  0  0  0
  5  6  1  0  0  0  0
  5 18  1  6  0  0  0
  6  1  1  0  0  0  0
  6 33  1  0  0  0  0
  6 34  1  0  0  0  0
  7  8  1  0  0  0  0
  7 35  1  0  0  0  0
  7 36  1  0  0  0  0
  8 37  1  0  0  0  0
  8 38  1  0  0  0  0
  9  8  1  0  0  0  0
  9 10  1  0  0  0  0
  9 11  1  0  0  0  0
  9 39  1  6  0  0  0
 10  5  1  0  0  0  0
 10 14  1  0  0  0  0
 10 40  1  1  0  0  0
 11 12  1  0  0  0  0
 11 15  1  0  0  0  0
 11 41  1  1  0  0  0
 12 13  1  0  0  0  0
 12 19  1  6  0  0  0
 13 14  1  0  0  0  0
 13 42  1  0  0  0  0
 13 43  1  0  0  0  0
 14 44  1  0  0  0  0
 14 45  1  0  0  0  0
 15 16  1  0  0  0  0
 15 46  1  0  0  0  0
 15 47  1  0  0  0  0
 16 17  1  0  0  0  0
 16 48  1  0  0  0  0
 16 49  1  0  0  0  0
 17 12  1  0  0  0  0
 17 21  1  1  0  0  0
 17 20  1  0  0  0  0
 18 50  1  0  0  0  0
 18 51  1  0  0  0  0
 18 52  1  0  0  0  0
 19 53  1  0  0  0  0
 19 54  1  0  0  0  0
 19 55  1  0  0  0  0
 20 26  1  0  0  0  0
 20 28  2  0  0  0  0
 21 22  1  0  0  0  0
 22 23  1  0  0  0  0
 22 25  2  0  0  0  0
 23 24  1  0  0  0  0
 23 56  1  0  0  0  0
 23 57  1  0  0  0  0
 24 58  1  0  0  0  0
 24 59  1  0  0  0  0
 24 60  1  0  0  0  0
 26 27  1  0  0  0  0
 26 61  1  0  0  0  0
 26 62  1  0  0  0  0
 27 63  1  0  0  0  0
M  END
>  <Mol_ID>
5206

>  <Formula>
C24H34O5

>  <MolWeight>
402.52376

>  <Cat>
S6896

>  <Name>
Clascoterone

>  <Synonyms>
Winlevi, Cortexolone 17 alpha-propionate, Cortexolone 17¦Á-propionate, CB-03-01

>  <Target>
Androgen Receptor

>  <Form>
free base

>  <CAS>
19608-29-8

>  <URL>
http://www.selleckchem.com/products/clascoterone.html

$$$$
