Clemizole
 OpenBabel08302520403D

 43 46  0  0  0  0  0  0  0  0999 V2000
    1.3933   -1.2357   -0.3666 N   0  0  0  0  0  0  0  0  0  0  0  0
    0.0869   -0.7695   -0.2859 C   0  0  0  0  0  0  0  0  0  0  0  0
    2.2331   -0.1610   -0.1155 C   0  0  0  0  0  0  0  0  0  0  0  0
    1.7755   -2.6402   -0.5233 C   0  0  0  0  0  0  0  0  0  0  0  0
    0.2161    0.5882   -0.0326 C   0  0  0  0  0  0  0  0  0  0  0  0
   -1.1695   -1.3818   -0.4315 C   0  0  0  0  0  0  0  0  0  0  0  0
    1.5277    0.9426    0.0795 N   0  0  0  0  0  0  0  0  0  0  0  0
    3.7342   -0.1964    0.0215 C   0  0  0  0  0  0  0  0  0  0  0  0
    1.2701   -3.3455   -1.7699 C   0  0  0  0  0  0  0  0  0  0  0  0
   -0.9263    1.3938    0.0820 C   0  0  0  0  0  0  0  0  0  0  0  0
   -2.2996   -0.5611   -0.3331 C   0  0  0  0  0  0  0  0  0  0  0  0
    4.4828   -0.0166   -1.2408 N   0  0  0  0  0  0  0  0  0  0  0  0
    0.7126   -2.6770   -2.8697 C   0  0  0  0  0  0  0  0  0  0  0  0
    1.3438   -4.7506   -1.8218 C   0  0  0  0  0  0  0  0  0  0  0  0
   -2.1830    0.8074   -0.0746 C   0  0  0  0  0  0  0  0  0  0  0  0
    5.9323    0.0497   -0.9633 C   0  0  0  0  0  0  0  0  0  0  0  0
    4.1759    1.2597   -1.9231 C   0  0  0  0  0  0  0  0  0  0  0  0
    0.1533   -3.3881   -3.9342 C   0  0  0  0  0  0  0  0  0  0  0  0
    0.8134   -5.4608   -2.9037 C   0  0  0  0  0  0  0  0  0  0  0  0
    6.2364    1.5148   -0.6977 C   0  0  0  0  0  0  0  0  0  0  0  0
    5.3240    2.2336   -1.6666 C   0  0  0  0  0  0  0  0  0  0  0  0
    0.1967   -4.7789   -3.9484 C   0  0  0  0  0  0  0  0  0  0  0  0
    2.8641   -2.7236   -0.4793 H   0  0  0  0  0  0  0  0  0  0  0  0
    1.3585   -3.1443    0.3594 H   0  0  0  0  0  0  0  0  0  0  0  0
   -1.2772   -2.4390   -0.6511 H   0  0  0  0  0  0  0  0  0  0  0  0
    4.0120    0.5797    0.7478 H   0  0  0  0  0  0  0  0  0  0  0  0
    4.0273   -1.1492    0.4777 H   0  0  0  0  0  0  0  0  0  0  0  0
   -0.8213    2.4532    0.2834 H   0  0  0  0  0  0  0  0  0  0  0  0
   -3.2888   -0.9962   -0.4671 H   0  0  0  0  0  0  0  0  0  0  0  0
    0.6627   -1.5904   -2.9000 H   0  0  0  0  0  0  0  0  0  0  0  0
    1.8043   -5.3102   -1.0093 H   0  0  0  0  0  0  0  0  0  0  0  0
   -3.0746    1.4200    0.0047 H   0  0  0  0  0  0  0  0  0  0  0  0
    6.4775   -0.2806   -1.8560 H   0  0  0  0  0  0  0  0  0  0  0  0
    6.2516   -0.5927   -0.1356 H   0  0  0  0  0  0  0  0  0  0  0  0
    3.2224    1.7135   -1.6451 H   0  0  0  0  0  0  0  0  0  0  0  0
    4.1133    1.0660   -3.0024 H   0  0  0  0  0  0  0  0  0  0  0  0
   -0.3268   -2.8491   -4.7471 H   0  0  0  0  0  0  0  0  0  0  0  0
    0.8689   -6.5464   -2.9253 H   0  0  0  0  0  0  0  0  0  0  0  0
    5.9823    1.7901    0.3325 H   0  0  0  0  0  0  0  0  0  0  0  0
    7.2893    1.7640   -0.8615 H   0  0  0  0  0  0  0  0  0  0  0  0
    4.9765    3.1878   -1.2572 H   0  0  0  0  0  0  0  0  0  0  0  0
    5.8572    2.4431   -2.6017 H   0  0  0  0  0  0  0  0  0  0  0  0
   -0.2459   -5.3279   -4.7754 H   0  0  0  0  0  0  0  0  0  0  0  0
  1  2  1  0  0  0  0
  1  3  1  0  0  0  0
  1  4  1  0  0  0  0
  2  5  1  0  0  0  0
  2  6  2  0  0  0  0
  3  7  2  0  0  0  0
  3  8  1  0  0  0  0
  4  9  1  0  0  0  0
  4 23  1  0  0  0  0
  4 24  1  0  0  0  0
  5 10  2  0  0  0  0
  5  7  1  0  0  0  0
  6 11  1  0  0  0  0
  6 25  1  0  0  0  0
  8 12  1  0  0  0  0
  8 26  1  0  0  0  0
  8 27  1  0  0  0  0
  9 13  2  0  0  0  0
  9 14  1  0  0  0  0
 10 15  1  0  0  0  0
 10 28  1  0  0  0  0
 11 15  2  0  0  0  0
 11 29  1  0  0  0  0
 12 16  1  0  0  0  0
 12 17  1  0  0  0  0
 13 18  1  0  0  0  0
 13 30  1  0  0  0  0
 14 19  2  0  0  0  0
 14 31  1  0  0  0  0
 15 32  1  0  0  0  0
 16 20  1  0  0  0  0
 16 33  1  0  0  0  0
 16 34  1  0  0  0  0
 17 21  1  0  0  0  0
 17 35  1  0  0  0  0
 17 36  1  0  0  0  0
 18 22  2  0  0  0  0
 18 37  1  0  0  0  0
 19 22  1  0  0  0  0
 19 38  1  0  0  0  0
 20 21  1  0  0  0  0
 20 39  1  0  0  0  0
 20 40  1  0  0  0  0
 21 41  1  0  0  0  0
 21 42  1  0  0  0  0
 22 43  1  0  0  0  0
M  END
>  <Mol_ID>
3731

>  <Formula>
C19H20ClN3

>  <MolWeight>
325.8352

>  <Cat>
S6410

>  <Name>
Clemizole

>  <Synonyms>
N/A

>  <Target>
Dopamine Receptor,TRP Channel

>  <Form>
Free Base

>  <CAS>
442-52-4

>  <URL>
http://www.selleck.cn/products/clemizole.html

$$$$
