clemastine fumarate.cdx
 OpenBabel08302521233D

 62 63  0  0  0  0  0  0  0  0999 V2000
    1.2573   -0.1491    0.2949 C   0  0  0  0  0  0  0  0  0  0  0  0
    0.4259   -1.2863    0.2683 C   0  0  0  0  0  0  0  0  0  0  0  0
   -0.8969   -1.1107    0.7381 C   0  0  0  0  0  0  0  0  0  0  0  0
   -1.3473    0.1561    1.1722 C   0  0  0  0  0  0  0  0  0  0  0  0
   -0.5057    1.2629    1.1595 C   0  0  0  0  0  0  0  0  0  0  0  0
    0.8059    1.1071    0.7350 C   0  0  0  0  0  0  0  0  0  0  0  0
    0.9194   -2.6962   -0.1766 C   0  0  0  0  0  0  0  0  0  0  0  0
    0.6979   -3.5751    0.9778 O   0  0  0  0  0  0  0  0  0  0  0  0
    1.2383   -4.9046    0.8915 C   0  0  0  0  0  0  0  0  0  0  0  0
    0.9312   -5.7223    2.1577 C   0  0  0  0  0  0  0  0  0  0  0  0
    1.4061   -7.1889    2.0165 C   0  0  2  0  0  0  0  0  0  0  0  0
    1.2649   -8.0000    3.2390 N   0  0  0  0  0  0  0  0  0  0  0  0
    2.1868   -9.1353    3.0900 C   0  0  0  0  0  0  0  0  0  0  0  0
    3.3860   -8.5784    2.3488 C   0  0  0  0  0  0  0  0  0  0  0  0
    2.9113   -7.2715    1.7372 C   0  0  0  0  0  0  0  0  0  0  0  0
    0.2024   -3.2512   -1.4433 C   0  0  0  0  0  0  0  0  0  0  0  0
    2.4516   -2.6486   -0.4633 C   0  0  0  0  0  0  0  0  0  0  0  0
    0.7156   -3.0163   -2.7353 C   0  0  0  0  0  0  0  0  0  0  0  0
    0.3088   -3.7770   -3.8348 C   0  0  0  0  0  0  0  0  0  0  0  0
   -0.6632   -4.7562   -3.6801 C   0  0  0  0  0  0  0  0  0  0  0  0
   -1.2782   -4.9217   -2.4425 C   0  0  0  0  0  0  0  0  0  0  0  0
   -0.8723   -4.1552   -1.3424 C   0  0  0  0  0  0  0  0  0  0  0  0
   -0.0911   -8.4961    3.4639 C   0  0  0  0  0  0  0  0  0  0  0  0
    0.7896    0.3731   -2.8116 O   0  0  0  0  0  0  0  0  0  0  0  0
    0.0303    1.4250   -2.4513 C   0  0  0  0  0  0  0  0  0  0  0  0
    0.8493    2.6228   -2.2087 C   0  0  0  0  0  0  0  0  0  0  0  0
    0.2257    3.8020   -2.0858 C   0  0  0  0  0  0  0  0  0  0  0  0
    1.0494    5.0129   -1.9783 C   0  0  0  0  0  0  0  0  0  0  0  0
    0.3064    6.1335   -1.9834 O   0  0  0  0  0  0  0  0  0  0  0  0
   -1.1880    1.4111   -2.4136 O   0  0  0  0  0  0  0  0  0  0  0  0
    2.2677    5.0077   -1.9248 O   0  0  0  0  0  0  0  0  0  0  0  0
    2.2888   -0.1904   -0.0385 H   0  0  0  0  0  0  0  0  0  0  0  0
   -1.5746   -1.9510    0.7822 H   0  0  0  0  0  0  0  0  0  0  0  0
   -2.3711    0.2627    1.5196 H   0  0  0  0  0  0  0  0  0  0  0  0
   -0.8686    2.2314    1.4782 H   0  0  0  0  0  0  0  0  0  0  0  0
    1.4782    1.9627    0.7250 H   0  0  0  0  0  0  0  0  0  0  0  0
    0.8173   -5.4346    0.0350 H   0  0  0  0  0  0  0  0  0  0  0  0
    2.3198   -4.8500    0.7667 H   0  0  0  0  0  0  0  0  0  0  0  0
    1.4176   -5.2404    3.0157 H   0  0  0  0  0  0  0  0  0  0  0  0
   -0.1446   -5.6848    2.3647 H   0  0  0  0  0  0  0  0  0  0  0  0
    0.8690   -7.6680    1.1860 H   0  0  0  0  0  0  0  0  0  0  0  0
    2.4741   -9.5476    4.0634 H   0  0  0  0  0  0  0  0  0  0  0  0
    1.7482   -9.9466    2.4951 H   0  0  0  0  0  0  0  0  0  0  0  0
    3.7296   -9.2763    1.5776 H   0  0  0  0  0  0  0  0  0  0  0  0
    4.2237   -8.3945    3.0303 H   0  0  0  0  0  0  0  0  0  0  0  0
    3.1187   -7.2421    0.6618 H   0  0  0  0  0  0  0  0  0  0  0  0
    3.4554   -6.4413    2.2058 H   0  0  0  0  0  0  0  0  0  0  0  0
    2.7178   -1.9018   -1.2209 H   0  0  0  0  0  0  0  0  0  0  0  0
    3.0202   -2.4209    0.4451 H   0  0  0  0  0  0  0  0  0  0  0  0
    2.8251   -3.6032   -0.8488 H   0  0  0  0  0  0  0  0  0  0  0  0
    1.4871   -2.2729   -2.9063 H   0  0  0  0  0  0  0  0  0  0  0  0
    0.7795   -3.6223   -4.8024 H   0  0  0  0  0  0  0  0  0  0  0  0
   -0.9436   -5.3826   -4.5226 H   0  0  0  0  0  0  0  0  0  0  0  0
   -2.0484   -5.6790   -2.3216 H   0  0  0  0  0  0  0  0  0  0  0  0
   -1.3405   -4.3435   -0.3781 H   0  0  0  0  0  0  0  0  0  0  0  0
   -0.4138   -9.1960    2.6831 H   0  0  0  0  0  0  0  0  0  0  0  0
   -0.1395   -9.0232    4.4247 H   0  0  0  0  0  0  0  0  0  0  0  0
   -0.8183   -7.6806    3.5115 H   0  0  0  0  0  0  0  0  0  0  0  0
    1.7488    0.5119   -2.7246 H   0  0  0  0  0  0  0  0  0  0  0  0
    1.9280    2.5385   -2.1668 H   0  0  0  0  0  0  0  0  0  0  0  0
   -0.8535    3.8794   -2.1119 H   0  0  0  0  0  0  0  0  0  0  0  0
   -0.6566    5.9998   -2.0602 H   0  0  0  0  0  0  0  0  0  0  0  0
  1  2  2  0  0  0  0
  1 32  1  0  0  0  0
  2  3  1  0  0  0  0
  2  7  1  0  0  0  0
  3  4  2  0  0  0  0
  3 33  1  0  0  0  0
  4  5  1  0  0  0  0
  4 34  1  0  0  0  0
  5  6  2  0  0  0  0
  5 35  1  0  0  0  0
  6  1  1  0  0  0  0
  6 36  1  0  0  0  0
  7  8  1  0  0  0  0
  7 16  1  0  0  0  0
  7 17  1  0  0  0  0
  8  9  1  0  0  0  0
  9 10  1  0  0  0  0
  9 37  1  0  0  0  0
  9 38  1  0  0  0  0
 10 39  1  0  0  0  0
 10 40  1  0  0  0  0
 11 10  1  0  0  0  0
 11 12  1  0  0  0  0
 11 41  1  6  0  0  0
 12 13  1  0  0  0  0
 12 23  1  0  0  0  0
 13 14  1  0  0  0  0
 13 42  1  0  0  0  0
 13 43  1  0  0  0  0
 14 15  1  0  0  0  0
 14 44  1  0  0  0  0
 14 45  1  0  0  0  0
 15 11  1  0  0  0  0
 15 46  1  0  0  0  0
 15 47  1  0  0  0  0
 16 18  2  0  0  0  0
 17 48  1  0  0  0  0
 17 49  1  0  0  0  0
 17 50  1  0  0  0  0
 18 19  1  0  0  0  0
 18 51  1  0  0  0  0
 19 20  2  0  0  0  0
 19 52  1  0  0  0  0
 20 21  1  0  0  0  0
 20 53  1  0  0  0  0
 21 22  2  0  0  0  0
 21 54  1  0  0  0  0
 22 16  1  0  0  0  0
 22 55  1  0  0  0  0
 23 56  1  0  0  0  0
 23 57  1  0  0  0  0
 23 58  1  0  0  0  0
 24 25  1  0  0  0  0
 24 59  1  0  0  0  0
 25 26  1  0  0  0  0
 25 30  2  0  0  0  0
 26 27  2  0  0  0  0
 26 60  1  0  0  0  0
 27 28  1  0  0  0  0
 27 61  1  0  0  0  0
 28 29  1  0  0  0  0
 28 31  2  0  0  0  0
 29 62  1  0  0  0  0
M  END
>  <Mol_ID>
457

>  <Formula>
C25H30ClNO5

>  <MolWeight>
459.9624

>  <Cat>
S1847

>  <Name>
Clemastine (HS-592) fumarate

>  <Synonyms>
HS-592 fumarate, Meclastine fumarate

>  <Target>
Autophagy,Histamine Receptor,mTOR

>  <Form>
Fumarate

>  <CAS>
14976-57-9

>  <URL>
http://selleckchem.com/products/Clemastine-Fumarate.html

$$$$
