Cleviprex.cdx
 OpenBabel08302522023D

 53 54  0  0  0  0  0  0  0  0999 V2000
   -3.8372   -2.6110    7.0330 C   0  0  0  0  0  0  0  0  0  0  0  0
   -4.0731   -3.9939    6.4372 C   0  0  0  0  0  0  0  0  0  0  0  0
   -4.9467   -3.9510    5.1861 C   0  0  0  0  0  0  0  0  0  0  0  0
   -4.3368   -3.0670    4.1347 C   0  0  0  0  0  0  0  0  0  0  0  0
   -3.1062   -3.5333    3.7934 O   0  0  0  0  0  0  0  0  0  0  0  0
   -2.3738   -2.6656    2.9347 C   0  0  0  0  0  0  0  0  0  0  0  0
   -3.0413   -2.4695    1.6982 O   0  0  0  0  0  0  0  0  0  0  0  0
   -2.6530   -3.2068    0.6387 C   0  0  0  0  0  0  0  0  0  0  0  0
   -3.5493   -2.9073   -0.5056 C   0  0  0  0  0  0  0  0  0  0  0  0
   -4.8705   -2.0484    3.7146 O   0  0  0  0  0  0  0  0  0  0  0  0
   -4.0239   -1.6619   -0.7451 C   0  0  0  0  0  0  0  0  0  0  0  0
   -4.9196   -1.4665   -1.7756 N   0  0  0  0  0  0  0  0  0  0  0  0
   -5.3087   -2.4193   -2.6962 C   0  0  0  0  0  0  0  0  0  0  0  0
   -4.8744   -3.7000   -2.5681 C   0  0  0  0  0  0  0  0  0  0  0  0
   -3.9414   -4.0980   -1.4064 C   0  0  3  0  0  0  0  0  0  0  0  0
   -6.1795   -1.8423   -3.7903 C   0  0  0  0  0  0  0  0  0  0  0  0
   -5.2684   -6.9494   -4.2486 C   0  0  0  0  0  0  0  0  0  0  0  0
   -5.0716   -5.9408   -3.2508 O   0  0  0  0  0  0  0  0  0  0  0  0
   -5.0888   -4.6617   -3.6883 C   0  0  0  0  0  0  0  0  0  0  0  0
   -3.6868   -0.3855   -0.0039 C   0  0  0  0  0  0  0  0  0  0  0  0
   -1.7649   -4.0379    0.6274 O   0  0  0  0  0  0  0  0  0  0  0  0
   -5.2233   -4.3340   -4.8591 O   0  0  0  0  0  0  0  0  0  0  0  0
   -4.4103   -5.2781   -0.5348 C   0  0  0  0  0  0  0  0  0  0  0  0
   -3.5778   -6.4121   -0.4268 C   0  0  0  0  0  0  0  0  0  0  0  0
   -3.7965   -7.3778    0.5564 C   0  0  0  0  0  0  0  0  0  0  0  0
   -4.8671   -7.2435    1.4328 C   0  0  0  0  0  0  0  0  0  0  0  0
   -5.7502   -6.1719    1.2868 C   0  0  0  0  0  0  0  0  0  0  0  0
   -5.5320   -5.1986    0.3041 C   0  0  0  0  0  0  0  0  0  0  0  0
   -3.2533   -1.9777    6.3561 H   0  0  0  0  0  0  0  0  0  0  0  0
   -3.2778   -2.6934    7.9693 H   0  0  0  0  0  0  0  0  0  0  0  0
   -4.7853   -2.1053    7.2402 H   0  0  0  0  0  0  0  0  0  0  0  0
   -3.1027   -4.4494    6.2053 H   0  0  0  0  0  0  0  0  0  0  0  0
   -4.5545   -4.6324    7.1853 H   0  0  0  0  0  0  0  0  0  0  0  0
   -5.0855   -4.9523    4.7642 H   0  0  0  0  0  0  0  0  0  0  0  0
   -5.9416   -3.5611    5.4305 H   0  0  0  0  0  0  0  0  0  0  0  0
   -2.2624   -1.6877    3.4240 H   0  0  0  0  0  0  0  0  0  0  0  0
   -1.3612   -3.0619    2.8112 H   0  0  0  0  0  0  0  0  0  0  0  0
   -5.1905   -0.5021   -1.9706 H   0  0  0  0  0  0  0  0  0  0  0  0
   -3.0056   -4.4063   -1.8972 H   0  0  0  0  0  0  0  0  0  0  0  0
   -7.0201   -1.3007   -3.3384 H   0  0  0  0  0  0  0  0  0  0  0  0
   -5.6008   -1.1208   -4.3794 H   0  0  0  0  0  0  0  0  0  0  0  0
   -6.6191   -2.5703   -4.4700 H   0  0  0  0  0  0  0  0  0  0  0  0
   -5.8804   -7.7426   -3.8106 H   0  0  0  0  0  0  0  0  0  0  0  0
   -5.7830   -6.5836   -5.1431 H   0  0  0  0  0  0  0  0  0  0  0  0
   -4.2982   -7.3704   -4.5277 H   0  0  0  0  0  0  0  0  0  0  0  0
   -3.3665    0.3818   -0.7195 H   0  0  0  0  0  0  0  0  0  0  0  0
   -4.5765   -0.0109    0.5161 H   0  0  0  0  0  0  0  0  0  0  0  0
   -2.8761   -0.4662    0.7192 H   0  0  0  0  0  0  0  0  0  0  0  0
   -2.7054   -6.5151   -1.0695 H   0  0  0  0  0  0  0  0  0  0  0  0
   -3.1040   -8.2099    0.6616 H   0  0  0  0  0  0  0  0  0  0  0  0
   -5.0028   -7.9622    2.2358 H   0  0  0  0  0  0  0  0  0  0  0  0
   -6.5925   -6.0773    1.9685 H   0  0  0  0  0  0  0  0  0  0  0  0
   -6.2120   -4.3507    0.2400 H   0  0  0  0  0  0  0  0  0  0  0  0
  1  2  1  0  0  0  0
  1 29  1  0  0  0  0
  1 30  1  0  0  0  0
  1 31  1  0  0  0  0
  2  3  1  0  0  0  0
  2 32  1  0  0  0  0
  2 33  1  0  0  0  0
  3  4  1  0  0  0  0
  3 34  1  0  0  0  0
  3 35  1  0  0  0  0
  4  5  1  0  0  0  0
  4 10  2  0  0  0  0
  5  6  1  0  0  0  0
  6  7  1  0  0  0  0
  6 36  1  0  0  0  0
  6 37  1  0  0  0  0
  7  8  1  0  0  0  0
  8 21  2  0  0  0  0
  9 11  2  0  0  0  0
  9  8  1  0  0  0  0
 11 12  1  0  0  0  0
 11 20  1  0  0  0  0
 12 13  1  0  0  0  0
 12 38  1  0  0  0  0
 13 14  2  0  0  0  0
 13 16  1  0  0  0  0
 14 15  1  0  0  0  0
 15  9  1  0  0  0  0
 15 23  1  0  0  0  0
 15 39  1  0  0  0  0
 16 40  1  0  0  0  0
 16 41  1  0  0  0  0
 16 42  1  0  0  0  0
 17 18  1  0  0  0  0
 17 43  1  0  0  0  0
 17 44  1  0  0  0  0
 17 45  1  0  0  0  0
 18 19  1  0  0  0  0
 19 14  1  0  0  0  0
 19 22  2  0  0  0  0
 20 46  1  0  0  0  0
 20 47  1  0  0  0  0
 20 48  1  0  0  0  0
 23 24  2  0  0  0  0
 24 25  1  0  0  0  0
 24 49  1  0  0  0  0
 25 26  2  0  0  0  0
 25 50  1  0  0  0  0
 26 27  1  0  0  0  0
 26 51  1  0  0  0  0
 27 28  2  0  0  0  0
 27 52  1  0  0  0  0
 28 23  1  0  0  0  0
 28 53  1  0  0  0  0
M  END
>  <Mol_ID>
1139

>  <Formula>
C21H23Cl2NO6

>  <MolWeight>
456.31642

>  <Cat>
S2080

>  <Name>
Clevidipine Butyrate

>  <Synonyms>
Cleviprex

>  <Target>
Calcium Channel

>  <Form>
free base

>  <CAS>
167221-71-8

>  <URL>
http://selleckchem.com/products/cleviprex-clevidipine.html

$$$$
