Clevudine.cdx
 OpenBabel08302522033D

 31 32  0  0  0  0  0  0  0  0999 V2000
   -0.8303    0.3321   -0.8636 N   0  0  0  0  0  0  0  0  0  0  0  0
   -1.4340   -0.3440    0.1584 C   0  0  0  0  0  0  0  0  0  0  0  0
   -0.5318   -0.8466    1.2182 C   0  0  0  0  0  0  0  0  0  0  0  0
    0.7862   -0.6667    1.0597 C   0  0  0  0  0  0  0  0  0  0  0  0
    1.3244   -0.0269   -0.0372 N   0  0  0  0  0  0  0  0  0  0  0  0
    0.5133    0.5205   -1.0220 C   0  0  0  0  0  0  0  0  0  0  0  0
    0.9480    1.1366   -1.9929 O   0  0  0  0  0  0  0  0  0  0  0  0
   -2.6482   -0.5229    0.1862 O   0  0  0  0  0  0  0  0  0  0  0  0
   -1.1095   -1.5580    2.3978 C   0  0  0  0  0  0  0  0  0  0  0  0
    2.7666    0.1100   -0.2296 C   0  0  1  0  0  0  0  0  0  0  0  0
    3.5126   -0.4280    0.8956 O   0  0  0  0  0  0  0  0  0  0  0  0
    4.5302   -1.3234    0.3816 C   0  0  2  0  0  0  0  0  0  0  0  0
    4.7071   -0.9593   -1.0862 C   0  0  1  0  0  0  0  0  0  0  0  0
    3.3076   -0.5661   -1.4986 C   0  0  1  0  0  0  0  0  0  0  0  0
    2.6051   -1.7019   -1.7738 F   0  0  0  0  0  0  0  0  0  0  0  0
    5.6042    0.1480   -1.2362 O   0  0  0  0  0  0  0  0  0  0  0  0
    4.0757   -2.7728    0.6041 C   0  0  0  0  0  0  0  0  0  0  0  0
    4.0008   -3.0634    2.0017 O   0  0  0  0  0  0  0  0  0  0  0  0
   -1.4300    0.6856   -1.5919 H   0  0  0  0  0  0  0  0  0  0  0  0
    1.4771   -1.0297    1.8143 H   0  0  0  0  0  0  0  0  0  0  0  0
   -0.6149   -2.5245    2.5405 H   0  0  0  0  0  0  0  0  0  0  0  0
   -0.9740   -0.9616    3.3059 H   0  0  0  0  0  0  0  0  0  0  0  0
   -2.1793   -1.7568    2.2854 H   0  0  0  0  0  0  0  0  0  0  0  0
    3.0006    1.1826   -0.2592 H   0  0  0  0  0  0  0  0  0  0  0  0
    5.4370   -1.1310    0.9654 H   0  0  0  0  0  0  0  0  0  0  0  0
    5.1038   -1.7895   -1.6772 H   0  0  0  0  0  0  0  0  0  0  0  0
    3.2698    0.0849   -2.3757 H   0  0  0  0  0  0  0  0  0  0  0  0
    5.4778    0.7706   -0.4970 H   0  0  0  0  0  0  0  0  0  0  0  0
    3.0864   -2.9665    0.1803 H   0  0  0  0  0  0  0  0  0  0  0  0
    4.7909   -3.4740    0.1639 H   0  0  0  0  0  0  0  0  0  0  0  0
    3.8796   -2.2193    2.4732 H   0  0  0  0  0  0  0  0  0  0  0  0
  1  2  1  0  0  0  0
  1 19  1  0  0  0  0
  2  3  1  0  0  0  0
  2  8  2  0  0  0  0
  3  4  2  0  0  0  0
  3  9  1  0  0  0  0
  4  5  1  0  0  0  0
  4 20  1  0  0  0  0
  5  6  1  0  0  0  0
  6  1  1  0  0  0  0
  6  7  2  0  0  0  0
  9 21  1  0  0  0  0
  9 22  1  0  0  0  0
  9 23  1  0  0  0  0
 10  5  1  0  0  0  0
 10 11  1  0  0  0  0
 10 24  1  6  0  0  0
 11 12  1  0  0  0  0
 12 13  1  0  0  0  0
 12 25  1  1  0  0  0
 12 17  1  0  0  0  0
 13 14  1  0  0  0  0
 13 16  1  0  0  0  0
 13 26  1  6  0  0  0
 14 10  1  0  0  0  0
 14 15  1  0  0  0  0
 14 27  1  6  0  0  0
 16 28  1  0  0  0  0
 17 18  1  0  0  0  0
 17 29  1  0  0  0  0
 17 30  1  0  0  0  0
 18 31  1  0  0  0  0
M  END
>  <Mol_ID>
1162

>  <Formula>
C10H13FN2O5

>  <MolWeight>
260.2190232

>  <Cat>
S3001

>  <Name>
Clevudine

>  <Synonyms>
Levovir,L-FMAU

>  <Target>
DNA/RNA Synthesis

>  <Form>
free base

>  <CAS>
163252-36-6

>  <URL>
http://selleckchem.com/products/clevudine-levovir.html

$$$$
