Climbazole.cdx
 OpenBabel08302522043D

 37 38  0  0  0  0  0  0  0  0999 V2000
    0.9572   -0.0076   -0.0242 C   0  0  3  0  0  0  0  0  0  0  0  0
    0.4999    0.6009    1.2261 N   0  0  0  0  0  0  0  0  0  0  0  0
    0.4413    0.7043   -1.1509 O   0  0  0  0  0  0  0  0  0  0  0  0
    0.4701   -1.4484   -0.1807 C   0  0  0  0  0  0  0  0  0  0  0  0
    1.1817    0.5856    2.4189 C   0  0  0  0  0  0  0  0  0  0  0  0
   -0.6397    1.3312    1.4235 C   0  0  0  0  0  0  0  0  0  0  0  0
    1.0768    1.8300   -1.5893 C   0  0  0  0  0  0  0  0  0  0  0  0
    1.3254   -2.4263   -1.0277 C   0  0  0  0  0  0  0  0  0  0  0  0
   -0.5483   -1.8564    0.3908 O   0  0  0  0  0  0  0  0  0  0  0  0
    0.4109    1.3290    3.2828 C   0  0  0  0  0  0  0  0  0  0  0  0
   -0.7106    1.7933    2.6516 N   0  0  0  0  0  0  0  0  0  0  0  0
    2.2805    2.3429   -1.1084 C   0  0  0  0  0  0  0  0  0  0  0  0
    0.4139    2.4990   -2.6237 C   0  0  0  0  0  0  0  0  0  0  0  0
    2.8075    3.5185   -1.6518 C   0  0  0  0  0  0  0  0  0  0  0  0
    0.9376    3.6750   -3.1625 C   0  0  0  0  0  0  0  0  0  0  0  0
    2.1353    4.1869   -2.6727 C   0  0  0  0  0  0  0  0  0  0  0  0
    2.3249   -3.1104   -0.0851 C   0  0  0  0  0  0  0  0  0  0  0  0
    0.3945   -3.4889   -1.6396 C   0  0  0  0  0  0  0  0  0  0  0  0
    2.0915   -1.7542   -2.1764 C   0  0  0  0  0  0  0  0  0  0  0  0
    2.0506   -0.0298    0.0155 H   0  0  0  0  0  0  0  0  0  0  0  0
    2.1176    0.0645    2.5567 H   0  0  0  0  0  0  0  0  0  0  0  0
   -1.3728    1.5036    0.6454 H   0  0  0  0  0  0  0  0  0  0  0  0
    0.6046    1.5541    4.3232 H   0  0  0  0  0  0  0  0  0  0  0  0
    2.8416    1.8740   -0.3092 H   0  0  0  0  0  0  0  0  0  0  0  0
   -0.5268    2.1102   -3.0078 H   0  0  0  0  0  0  0  0  0  0  0  0
    3.7433    3.9185   -1.2687 H   0  0  0  0  0  0  0  0  0  0  0  0
    0.4071    4.1933   -3.9571 H   0  0  0  0  0  0  0  0  0  0  0  0
    2.5419    5.1087   -3.0804 H   0  0  0  0  0  0  0  0  0  0  0  0
    1.8106   -3.6203    0.7373 H   0  0  0  0  0  0  0  0  0  0  0  0
    2.9257   -3.8566   -0.6178 H   0  0  0  0  0  0  0  0  0  0  0  0
    3.0123   -2.3835    0.3620 H   0  0  0  0  0  0  0  0  0  0  0  0
   -0.3587   -3.0221   -2.2851 H   0  0  0  0  0  0  0  0  0  0  0  0
    0.9551   -4.2119   -2.2425 H   0  0  0  0  0  0  0  0  0  0  0  0
   -0.1407   -4.0509   -0.8659 H   0  0  0  0  0  0  0  0  0  0  0  0
    1.4132   -1.2324   -2.8594 H   0  0  0  0  0  0  0  0  0  0  0  0
    2.8280   -1.0292   -1.8154 H   0  0  0  0  0  0  0  0  0  0  0  0
    2.6445   -2.4976   -2.7638 H   0  0  0  0  0  0  0  0  0  0  0  0
  1  2  1  0  0  0  0
  1  3  1  0  0  0  0
  1  4  1  0  0  0  0
  1 20  1  0  0  0  0
  2  5  1  0  0  0  0
  2  6  1  0  0  0  0
  3  7  1  0  0  0  0
  4  8  1  0  0  0  0
  4  9  2  0  0  0  0
  5 10  2  0  0  0  0
  5 21  1  0  0  0  0
  6 11  2  0  0  0  0
  6 22  1  0  0  0  0
  7 12  2  0  0  0  0
  7 13  1  0  0  0  0
  8 17  1  0  0  0  0
  8 18  1  0  0  0  0
  8 19  1  0  0  0  0
 10 11  1  0  0  0  0
 10 23  1  0  0  0  0
 12 14  1  0  0  0  0
 12 24  1  0  0  0  0
 13 15  2  0  0  0  0
 13 25  1  0  0  0  0
 14 16  2  0  0  0  0
 14 26  1  0  0  0  0
 15 16  1  0  0  0  0
 15 27  1  0  0  0  0
 16 28  1  0  0  0  0
 17 29  1  0  0  0  0
 17 30  1  0  0  0  0
 17 31  1  0  0  0  0
 18 32  1  0  0  0  0
 18 33  1  0  0  0  0
 18 34  1  0  0  0  0
 19 35  1  0  0  0  0
 19 36  1  0  0  0  0
 19 37  1  0  0  0  0
M  END
>  <Mol_ID>
1276

>  <Formula>
C15H17ClN2O2

>  <MolWeight>
292.76068

>  <Cat>
S4178

>  <Name>
Climbazole

>  <Synonyms>
BAY-e 6975

>  <Target>
Fungal

>  <Form>
free base

>  <CAS>
38083-17-9

>  <URL>
http://selleckchem.com/products/climbazole.html

$$$$
