Clinafoxacin HCl
 OpenBabel08302520303D

 42 45  0  0  0  0  0  0  0  0999 V2000
    1.2069    1.3988    0.0173 N   0  0  0  0  0  0  0  0  0  0  0  0
    2.3586    0.6273    0.1239 C   0  0  0  0  0  0  0  0  0  0  0  0
    2.4440   -0.7072    0.1654 C   0  0  0  0  0  0  0  0  0  0  0  0
    1.1676   -1.4499    0.1104 C   0  0  0  0  0  0  0  0  0  0  0  0
   -0.0943   -0.6582    0.0768 C   0  0  0  0  0  0  0  0  0  0  0  0
   -1.2981   -1.3580    0.1154 C   0  0  0  0  0  0  0  0  0  0  0  0
   -2.4822   -0.6485    0.1388 C   0  0  0  0  0  0  0  0  0  0  0  0
   -2.5306    0.7646    0.1316 C   0  0  0  0  0  0  0  0  0  0  0  0
   -1.2867    1.4342    0.0403 C   0  0  0  0  0  0  0  0  0  0  0  0
   -0.0619    0.7488    0.0236 C   0  0  0  0  0  0  0  0  0  0  0  0
    3.7572   -1.3729    0.2125 C   0  0  0  0  0  0  0  0  0  0  0  0
    3.9781   -2.5650    0.2870 O   0  0  0  0  0  0  0  0  0  0  0  0
    4.7978   -0.5127    0.1445 O   0  0  0  0  0  0  0  0  0  0  0  0
    1.1163   -2.6755    0.1022 O   0  0  0  0  0  0  0  0  0  0  0  0
   -3.6138   -1.3712    0.1740 F   0  0  0  0  0  0  0  0  0  0  0  0
    1.4902    2.7775   -0.4351 C   0  0  0  0  0  0  0  0  0  0  0  0
    0.8657    3.7590   -1.3809 C   0  0  0  0  0  0  0  0  0  0  0  0
    1.8778    2.8152   -1.9152 C   0  0  0  0  0  0  0  0  0  0  0  0
   -3.7389    1.4340    0.2339 N   0  0  0  0  0  0  0  0  0  0  0  0
   -4.8367    0.8349    1.0192 C   0  0  0  0  0  0  0  0  0  0  0  0
   -5.7019    2.0226    1.5082 C   0  0  3  0  0  0  0  0  0  0  0  0
   -4.8426    3.2531    1.2182 C   0  0  0  0  0  0  0  0  0  0  0  0
   -3.9724    2.8545    0.0335 C   0  0  0  0  0  0  0  0  0  0  0  0
   -7.0136    2.0916    0.8550 N   0  0  0  0  0  0  0  0  0  0  0  0
    3.2632    1.2331    0.1366 H   0  0  0  0  0  0  0  0  0  0  0  0
   -1.3209   -2.4432    0.1367 H   0  0  0  0  0  0  0  0  0  0  0  0
   -1.2578    2.5164    0.0554 H   0  0  0  0  0  0  0  0  0  0  0  0
    5.5774   -1.1150    0.1615 H   0  0  0  0  0  0  0  0  0  0  0  0
    2.1344    3.2742    0.2922 H   0  0  0  0  0  0  0  0  0  0  0  0
   -0.1608    3.6546   -1.6954 H   0  0  0  0  0  0  0  0  0  0  0  0
    1.1966    4.7947   -1.3200 H   0  0  0  0  0  0  0  0  0  0  0  0
    2.8962    3.1081   -2.1280 H   0  0  0  0  0  0  0  0  0  0  0  0
    1.4987    2.0289   -2.5638 H   0  0  0  0  0  0  0  0  0  0  0  0
   -5.4218    0.1437    0.4008 H   0  0  0  0  0  0  0  0  0  0  0  0
   -4.4570    0.2888    1.8915 H   0  0  0  0  0  0  0  0  0  0  0  0
   -5.8807    1.9314    2.5855 H   0  0  0  0  0  0  0  0  0  0  0  0
   -5.4232    4.1584    1.0144 H   0  0  0  0  0  0  0  0  0  0  0  0
   -4.2044    3.4605    2.0856 H   0  0  0  0  0  0  0  0  0  0  0  0
   -3.0770    3.4777   -0.0044 H   0  0  0  0  0  0  0  0  0  0  0  0
   -4.5170    2.9939   -0.9079 H   0  0  0  0  0  0  0  0  0  0  0  0
   -7.4966    2.9428    1.1373 H   0  0  0  0  0  0  0  0  0  0  0  0
   -6.8987    2.1341   -0.1566 H   0  0  0  0  0  0  0  0  0  0  0  0
  1  2  1  0  0  0  0
  1 10  1  0  0  0  0
  1 16  1  0  0  0  0
  2  3  2  0  0  0  0
  2 25  1  0  0  0  0
  3  4  1  0  0  0  0
  3 11  1  0  0  0  0
  4  5  1  0  0  0  0
  4 14  2  0  0  0  0
  5  6  1  0  0  0  0
  5 10  2  0  0  0  0
  6  7  2  0  0  0  0
  6 26  1  0  0  0  0
  7  8  1  0  0  0  0
  7 15  1  0  0  0  0
  8  9  2  0  0  0  0
  8 19  1  0  0  0  0
  9 10  1  0  0  0  0
  9 27  1  0  0  0  0
 11 12  2  0  0  0  0
 11 13  1  0  0  0  0
 13 28  1  0  0  0  0
 16 17  1  0  0  0  0
 16 18  1  0  0  0  0
 16 29  1  0  0  0  0
 17 18  1  0  0  0  0
 17 30  1  0  0  0  0
 17 31  1  0  0  0  0
 18 32  1  0  0  0  0
 18 33  1  0  0  0  0
 19 20  1  0  0  0  0
 19 23  1  0  0  0  0
 20 21  1  0  0  0  0
 20 34  1  0  0  0  0
 20 35  1  0  0  0  0
 21 22  1  0  0  0  0
 21 24  1  0  0  0  0
 21 36  1  0  0  0  0
 22 23  1  0  0  0  0
 22 37  1  0  0  0  0
 22 38  1  0  0  0  0
 23 39  1  0  0  0  0
 23 40  1  0  0  0  0
 24 41  1  0  0  0  0
 24 42  1  0  0  0  0
M  END
>  <Mol_ID>
3315

>  <Formula>
C17H18Cl2FN3O3

>  <MolWeight>
402.2475232

>  <Cat>
S4315

>  <Name>
Clinafoxacin HCl

>  <Synonyms>
N/A

>  <Target>
Others

>  <Form>
Hydrochloride

>  <CAS>
105956-99-8

>  <URL>
http://www.selleckchem.com/products/clinafoxacin-hcl.html

$$$$
