Clindamycin.cdx
 OpenBabel08302519553D

 60 61  0  0  0  0  0  0  0  0999 V2000
   -4.3500    1.9016    5.7572 C   0  0  2  0  0  0  0  0  0  0  0  0
   -5.6160    1.5424    4.9717 C   0  0  2  0  0  0  0  0  0  0  0  0
   -5.3012    1.4773    3.4722 C   0  0  2  0  0  0  0  0  0  0  0  0
   -4.1725    0.4590    3.2319 C   0  0  2  0  0  0  0  0  0  0  0  0
   -2.9965    0.8813    3.9706 O   0  0  0  0  0  0  0  0  0  0  0  0
   -3.1927    0.9372    5.4120 C   0  0  2  0  0  0  0  0  0  0  0  0
   -4.9316    2.8128    3.0844 O   0  0  0  0  0  0  0  0  0  0  0  0
   -2.9686    1.2410   -0.4772 C   0  0  0  0  0  0  0  0  0  0  0  0
   -3.2661    1.4537    1.0000 C   0  0  0  0  0  0  0  0  0  0  0  0
   -3.8203    0.2138    1.7268 C   0  0  1  0  0  0  0  0  0  0  0  0
   -3.8487   -1.8974   -0.1896 O   0  0  0  0  0  0  0  0  0  0  0  0
   -2.9576   -1.8936    0.6563 C   0  0  0  0  0  0  0  0  0  0  0  0
   -2.8698   -0.9069    1.6248 N   0  0  0  0  0  0  0  0  0  0  0  0
   -1.8396   -2.9726    0.7148 C   0  0  1  0  0  0  0  0  0  0  0  0
   -2.0140   -3.9657    1.7927 N   0  0  0  0  0  0  0  0  0  0  0  0
   -3.1283   -4.8168    1.3785 C   0  0  0  0  0  0  0  0  0  0  0  0
   -2.8762   -5.0324   -0.1190 C   0  0  1  0  0  0  0  0  0  0  0  0
   -1.8779   -3.9131   -0.4957 C   0  0  0  0  0  0  0  0  0  0  0  0
   -6.6058    2.5534    5.2342 O   0  0  0  0  0  0  0  0  0  0  0  0
   -4.6447    2.0060    7.1540 O   0  0  0  0  0  0  0  0  0  0  0  0
   -3.2959   -0.7711    6.1063 S   0  0  0  0  0  0  0  0  0  0  0  0
   -2.3188   -6.4214   -0.4817 C   0  0  0  0  0  0  0  0  0  0  0  0
   -3.2924   -0.4230    7.8811 C   0  0  0  0  0  0  0  0  0  0  0  0
   -2.1277   -3.4700    3.1467 C   0  0  0  0  0  0  0  0  0  0  0  0
   -3.2839   -7.5734   -0.1792 C   0  0  0  0  0  0  0  0  0  0  0  0
   -2.7448   -8.8988   -0.6964 C   0  0  0  0  0  0  0  0  0  0  0  0
   -4.0439    2.9159    5.4664 H   0  0  0  0  0  0  0  0  0  0  0  0
   -6.0356    0.5972    5.3299 H   0  0  0  0  0  0  0  0  0  0  0  0
   -6.2031    1.2208    2.9072 H   0  0  0  0  0  0  0  0  0  0  0  0
   -4.4998   -0.5121    3.6240 H   0  0  0  0  0  0  0  0  0  0  0  0
   -2.2675    1.3584    5.8211 H   0  0  0  0  0  0  0  0  0  0  0  0
   -3.9605    2.8944    3.1682 H   0  0  0  0  0  0  0  0  0  0  0  0
   -3.8533    0.8818   -1.0105 H   0  0  0  0  0  0  0  0  0  0  0  0
   -2.6646    2.1904   -0.9345 H   0  0  0  0  0  0  0  0  0  0  0  0
   -2.1479    0.5350   -0.6285 H   0  0  0  0  0  0  0  0  0  0  0  0
   -4.0025    2.2600    1.0369 H   0  0  0  0  0  0  0  0  0  0  0  0
   -2.3582    1.8109    1.4989 H   0  0  0  0  0  0  0  0  0  0  0  0
   -4.7463   -0.0924    1.2227 H   0  0  0  0  0  0  0  0  0  0  0  0
   -2.0769   -0.9066    2.2560 H   0  0  0  0  0  0  0  0  0  0  0  0
   -0.8666   -2.4718    0.7758 H   0  0  0  0  0  0  0  0  0  0  0  0
   -3.1585   -5.7460    1.9531 H   0  0  0  0  0  0  0  0  0  0  0  0
   -4.0909   -4.3058    1.5173 H   0  0  0  0  0  0  0  0  0  0  0  0
   -3.8134   -4.8750   -0.6681 H   0  0  0  0  0  0  0  0  0  0  0  0
   -2.1701   -3.4160   -1.4257 H   0  0  0  0  0  0  0  0  0  0  0  0
   -0.8752   -4.3369   -0.6583 H   0  0  0  0  0  0  0  0  0  0  0  0
   -6.4351    3.2693    4.5865 H   0  0  0  0  0  0  0  0  0  0  0  0
   -5.5745    2.3104    7.2084 H   0  0  0  0  0  0  0  0  0  0  0  0
   -2.0824   -6.4325   -1.5539 H   0  0  0  0  0  0  0  0  0  0  0  0
   -1.3750   -6.5964    0.0507 H   0  0  0  0  0  0  0  0  0  0  0  0
   -2.4978    0.2771    8.1542 H   0  0  0  0  0  0  0  0  0  0  0  0
   -4.2626   -0.0466    8.2160 H   0  0  0  0  0  0  0  0  0  0  0  0
   -3.1215   -1.3604    8.4230 H   0  0  0  0  0  0  0  0  0  0  0  0
   -3.0551   -2.9196    3.3277 H   0  0  0  0  0  0  0  0  0  0  0  0
   -2.0960   -4.3069    3.8532 H   0  0  0  0  0  0  0  0  0  0  0  0
   -1.2761   -2.8260    3.3894 H   0  0  0  0  0  0  0  0  0  0  0  0
   -3.4454   -7.6635    0.8998 H   0  0  0  0  0  0  0  0  0  0  0  0
   -4.2594   -7.3801   -0.6393 H   0  0  0  0  0  0  0  0  0  0  0  0
   -1.7568   -9.1166   -0.2764 H   0  0  0  0  0  0  0  0  0  0  0  0
   -3.4163   -9.7189   -0.4204 H   0  0  0  0  0  0  0  0  0  0  0  0
   -2.6578   -8.8894   -1.7885 H   0  0  0  0  0  0  0  0  0  0  0  0
  1  2  1  0  0  0  0
  1 20  1  0  0  0  0
  1 27  1  6  0  0  0
  2  3  1  0  0  0  0
  2 19  1  0  0  0  0
  2 28  1  1  0  0  0
  3  4  1  0  0  0  0
  3  7  1  0  0  0  0
  3 29  1  6  0  0  0
  4  5  1  0  0  0  0
  4 10  1  0  0  0  0
  4 30  1  1  0  0  0
  5  6  1  0  0  0  0
  6  1  1  0  0  0  0
  6 31  1  1  0  0  0
  6 21  1  0  0  0  0
  7 32  1  0  0  0  0
  8 33  1  0  0  0  0
  8 34  1  0  0  0  0
  8 35  1  0  0  0  0
  9  8  1  0  0  0  0
  9 10  1  0  0  0  0
  9 36  1  0  0  0  0
  9 37  1  0  0  0  0
 10 13  1  0  0  0  0
 10 38  1  6  0  0  0
 11 12  2  0  0  0  0
 12 13  1  0  0  0  0
 13 39  1  0  0  0  0
 14 15  1  0  0  0  0
 14 40  1  1  0  0  0
 14 12  1  0  0  0  0
 15 16  1  0  0  0  0
 15 24  1  0  0  0  0
 16 17  1  0  0  0  0
 16 41  1  0  0  0  0
 16 42  1  0  0  0  0
 17 18  1  0  0  0  0
 17 43  1  6  0  0  0
 17 22  1  0  0  0  0
 18 14  1  0  0  0  0
 18 44  1  0  0  0  0
 18 45  1  0  0  0  0
 19 46  1  0  0  0  0
 20 47  1  0  0  0  0
 21 23  1  0  0  0  0
 22 25  1  0  0  0  0
 22 48  1  0  0  0  0
 22 49  1  0  0  0  0
 23 50  1  0  0  0  0
 23 51  1  0  0  0  0
 23 52  1  0  0  0  0
 24 53  1  0  0  0  0
 24 54  1  0  0  0  0
 24 55  1  0  0  0  0
 25 26  1  0  0  0  0
 25 56  1  0  0  0  0
 25 57  1  0  0  0  0
 26 58  1  0  0  0  0
 26 59  1  0  0  0  0
 26 60  1  0  0  0  0
M  END
>  <Mol_ID>
2114

>  <Formula>
C18H33ClN2O5S

>  <MolWeight>
424.98302

>  <Cat>
S2830

>  <Name>
Clindamycin

>  <Synonyms>
N/A

>  <Target>
Bacterial

>  <Form>
Free Base

>  <CAS>
18323-44-9

>  <URL>
http://selleckchem.com/products/clindamycin.html

$$$$
