Clobetasone butyrate
 OpenBabel08302520413D

 65 68  0  0  0  0  0  0  0  0999 V2000
    2.0305    0.5958    0.9033 C   0  0  1  0  0  0  0  0  0  0  0  0
    0.4680    0.6957    1.0039 C   0  0  2  0  0  0  0  0  0  0  0  0
    2.2087   -0.8621    0.3083 C   0  0  2  0  0  0  0  0  0  0  0  0
    2.4844    1.5023   -0.1490 O   0  0  0  0  0  0  0  0  0  0  0  0
    2.8871    0.7939    2.1854 C   0  0  0  0  0  0  0  0  0  0  0  0
    0.0848    0.0725   -0.3904 C   0  0  1  0  0  0  0  0  0  0  0  0
   -0.2205    2.1016    1.0025 C   0  0  0  0  0  0  0  0  0  0  0  0
   -0.0944   -0.1126    2.2188 C   0  0  0  0  0  0  0  0  0  0  0  0
    1.0977   -0.9995   -0.7531 C   0  0  0  0  0  0  0  0  0  0  0  0
    2.0847   -2.0516    1.2708 C   0  0  0  0  0  0  0  0  0  0  0  0
    2.5158    2.8365    0.1278 C   0  0  0  0  0  0  0  0  0  0  0  0
    4.3863    0.6753    2.0452 C   0  0  0  0  0  0  0  0  0  0  0  0
    2.4078    1.0695    3.2909 O   0  0  0  0  0  0  0  0  0  0  0  0
   -1.4355   -0.1070   -0.4466 C   0  0  1  0  0  0  0  0  0  0  0  0
   -1.6992    1.9622    0.6457 C   0  0  0  0  0  0  0  0  0  0  0  0
    2.4133    3.6306   -1.1490 C   0  0  0  0  0  0  0  0  0  0  0  0
    2.4749    3.3186    1.2494 O   0  0  0  0  0  0  0  0  0  0  0  0
   -2.0103    1.3071   -0.7463 C   0  0  2  0  0  0  0  0  0  0  0  0
   -2.0620   -1.2753   -1.1495 C   0  0  0  0  0  0  0  0  0  0  0  0
   -2.5424    2.1866    1.5092 O   0  0  0  0  0  0  0  0  0  0  0  0
    2.6479    5.1103   -0.8686 C   0  0  0  0  0  0  0  0  0  0  0  0
   -3.5005    1.4150   -1.1720 C   0  0  2  0  0  0  0  0  0  0  0  0
   -1.2852    1.9063   -1.7463 F   0  0  0  0  0  0  0  0  0  0  0  0
   -3.5920   -1.2023   -0.9597 C   0  0  0  0  0  0  0  0  0  0  0  0
    2.8142    5.8993   -2.1520 C   0  0  0  0  0  0  0  0  0  0  0  0
   -4.2025    0.1677   -0.5775 C   0  0  0  0  0  0  0  0  0  0  0  0
   -4.0309    1.3607   -2.6158 C   0  0  0  0  0  0  0  0  0  0  0  0
   -3.8996    2.9033   -0.8360 C   0  0  0  0  0  0  0  0  0  0  0  0
   -5.5258    0.2085   -0.4121 C   0  0  0  0  0  0  0  0  0  0  0  0
   -5.3782    1.2417   -2.7423 C   0  0  0  0  0  0  0  0  0  0  0  0
   -6.2081    0.9867   -1.5014 C   0  0  0  0  0  0  0  0  0  0  0  0
   -7.3914    1.2765   -1.4356 O   0  0  0  0  0  0  0  0  0  0  0  0
    3.1822   -0.9354   -0.1936 H   0  0  0  0  0  0  0  0  0  0  0  0
    0.3321    0.8299   -1.1485 H   0  0  0  0  0  0  0  0  0  0  0  0
   -0.1093    2.5977    1.9653 H   0  0  0  0  0  0  0  0  0  0  0  0
    0.1565    2.7720    0.2313 H   0  0  0  0  0  0  0  0  0  0  0  0
    0.6162   -0.2402    3.0338 H   0  0  0  0  0  0  0  0  0  0  0  0
   -0.9569    0.3839    2.6779 H   0  0  0  0  0  0  0  0  0  0  0  0
   -0.4193   -1.1198    1.9446 H   0  0  0  0  0  0  0  0  0  0  0  0
    1.5322   -0.7508   -1.7345 H   0  0  0  0  0  0  0  0  0  0  0  0
    0.6810   -2.0025   -0.8612 H   0  0  0  0  0  0  0  0  0  0  0  0
    1.1077   -2.5455    1.1990 H   0  0  0  0  0  0  0  0  0  0  0  0
    2.8205   -2.8167    1.0018 H   0  0  0  0  0  0  0  0  0  0  0  0
    2.2508   -1.7859    2.3154 H   0  0  0  0  0  0  0  0  0  0  0  0
    4.8283    1.6750    2.0220 H   0  0  0  0  0  0  0  0  0  0  0  0
    4.6593    0.1458    1.1327 H   0  0  0  0  0  0  0  0  0  0  0  0
    4.7876    0.1140    2.8943 H   0  0  0  0  0  0  0  0  0  0  0  0
   -1.7675   -0.3400    0.5736 H   0  0  0  0  0  0  0  0  0  0  0  0
    1.4145    3.4844   -1.5808 H   0  0  0  0  0  0  0  0  0  0  0  0
    3.1566    3.2472   -1.8518 H   0  0  0  0  0  0  0  0  0  0  0  0
   -1.7714   -1.3401   -2.2007 H   0  0  0  0  0  0  0  0  0  0  0  0
   -1.7182   -2.2082   -0.6730 H   0  0  0  0  0  0  0  0  0  0  0  0
    1.8120    5.5221   -0.2887 H   0  0  0  0  0  0  0  0  0  0  0  0
    3.5468    5.2299   -0.2541 H   0  0  0  0  0  0  0  0  0  0  0  0
   -3.9160   -1.9553   -0.2340 H   0  0  0  0  0  0  0  0  0  0  0  0
   -4.0232   -1.5049   -1.9245 H   0  0  0  0  0  0  0  0  0  0  0  0
    3.5351    5.4161   -2.8188 H   0  0  0  0  0  0  0  0  0  0  0  0
    1.8607    5.9908   -2.6810 H   0  0  0  0  0  0  0  0  0  0  0  0
    3.1804    6.9051   -1.9267 H   0  0  0  0  0  0  0  0  0  0  0  0
   -3.3960    1.5786   -3.4665 H   0  0  0  0  0  0  0  0  0  0  0  0
   -4.7297    3.3196   -1.4193 H   0  0  0  0  0  0  0  0  0  0  0  0
   -4.1791    3.0466    0.2059 H   0  0  0  0  0  0  0  0  0  0  0  0
   -3.0537    3.5730   -1.0722 H   0  0  0  0  0  0  0  0  0  0  0  0
   -6.1099   -0.6200   -0.0311 H   0  0  0  0  0  0  0  0  0  0  0  0
   -5.9318    1.3526   -3.6629 H   0  0  0  0  0  0  0  0  0  0  0  0
  1  2  1  0  0  0  0
  1  3  1  0  0  0  0
  1  4  1  6  0  0  0
  1  5  1  0  0  0  0
  2  6  1  0  0  0  0
  2  7  1  0  0  0  0
  2  8  1  1  0  0  0
  3  9  1  0  0  0  0
  3 10  1  0  0  0  0
  3 33  1  6  0  0  0
  4 11  1  0  0  0  0
  5 12  1  0  0  0  0
  5 13  2  0  0  0  0
  6 14  1  0  0  0  0
  6  9  1  0  0  0  0
  6 34  1  6  0  0  0
  7 15  1  0  0  0  0
  7 35  1  0  0  0  0
  7 36  1  0  0  0  0
  8 37  1  0  0  0  0
  8 38  1  0  0  0  0
  8 39  1  0  0  0  0
  9 40  1  0  0  0  0
  9 41  1  0  0  0  0
 10 42  1  0  0  0  0
 10 43  1  0  0  0  0
 10 44  1  0  0  0  0
 11 16  1  0  0  0  0
 11 17  2  0  0  0  0
 12 45  1  0  0  0  0
 12 46  1  0  0  0  0
 12 47  1  0  0  0  0
 14 18  1  0  0  0  0
 14 19  1  0  0  0  0
 14 48  1  1  0  0  0
 15 20  2  0  0  0  0
 15 18  1  0  0  0  0
 16 21  1  0  0  0  0
 16 49  1  0  0  0  0
 16 50  1  0  0  0  0
 18 22  1  0  0  0  0
 18 23  1  6  0  0  0
 19 24  1  0  0  0  0
 19 51  1  0  0  0  0
 19 52  1  0  0  0  0
 21 25  1  0  0  0  0
 21 53  1  0  0  0  0
 21 54  1  0  0  0  0
 22 26  1  0  0  0  0
 22 27  1  0  0  0  0
 22 28  1  1  0  0  0
 24 26  1  0  0  0  0
 24 55  1  0  0  0  0
 24 56  1  0  0  0  0
 25 57  1  0  0  0  0
 25 58  1  0  0  0  0
 25 59  1  0  0  0  0
 26 29  2  0  0  0  0
 27 30  2  0  0  0  0
 27 60  1  0  0  0  0
 28 61  1  0  0  0  0
 28 62  1  0  0  0  0
 28 63  1  0  0  0  0
 29 31  1  0  0  0  0
 29 64  1  0  0  0  0
 30 31  1  0  0  0  0
 30 65  1  0  0  0  0
 31 32  2  0  0  0  0
M  END
>  <Mol_ID>
3849

>  <Formula>
C26H32ClFO5

>  <MolWeight>
478.9806832

>  <Cat>
S6587

>  <Name>
Clobetasone butyrate

>  <Synonyms>
N/A

>  <Target>
Others

>  <Form>
free base

>  <CAS>
25122-57-0

>  <URL>
http://www.selleck.cn/products/clobetasone-butyrate.html

$$$$
