Clobetasol propionate.cdx
 OpenBabel08302521542D

 64 67  0  0  0  0  0  0  0  0999 V2000
    1.2082    2.1000    0.0000 C   0  0  0  0  0  0  0  0  0  0  0  0
    1.2082    0.7000    0.0000 C   0  0  0  0  0  0  0  0  0  0  0  0
    2.4207    0.0000    0.0000 C   0  0  0  0  0  0  0  0  0  0  0  0
    3.6331    0.7000    0.0000 C   0  0  0  0  0  0  0  0  0  0  0  0
    3.6331    2.1000    0.0000 C   0  0  2  0  0  0  0  0  0  0  0  0
    2.4207    2.8000    0.0000 C   0  0  0  0  0  0  0  0  0  0  0  0
    4.8455    0.0000    0.0000 C   0  0  0  0  0  0  0  0  0  0  0  0
    6.0580    0.7000    0.0000 C   0  0  0  0  0  0  0  0  0  0  0  0
    6.0580    2.1000    0.0000 C   0  0  2  0  0  0  0  0  0  0  0  0
    4.8455    2.8000    0.0000 C   0  0  2  0  0  0  0  0  0  0  0  0
    7.2704    2.8000    0.0000 C   0  0  1  0  0  0  0  0  0  0  0  0
    7.2704    4.2000    0.0000 C   0  0  2  0  0  0  0  0  0  0  0  0
    6.0580    4.9000    0.0000 C   0  0  0  0  0  0  0  0  0  0  0  0
    4.8455    4.2000    0.0000 C   0  0  2  0  0  0  0  0  0  0  0  0
    8.6019    2.3674    0.0000 C   0  0  0  0  0  0  0  0  0  0  0  0
    9.4248    3.5000    0.0000 C   0  0  1  0  0  0  0  0  0  0  0  0
    8.6019    4.6326    0.0000 C   0  0  2  0  0  0  0  0  0  0  0  0
    0.0000    0.0024    0.0000 O   0  0  0  0  0  0  0  0  0  0  0  0
    3.6331    3.5000    0.0000 C   0  0  0  0  0  0  0  0  0  0  0  0
    3.6373    4.8976    0.0000 O   0  0  0  0  0  0  0  0  0  0  0  0
    7.2704    5.6000    0.0000 C   0  0  0  0  0  0  0  0  0  0  0  0
    9.8143    5.3326    0.0000 C   0  0  0  0  0  0  0  0  0  0  0  0
   10.6372    2.8000    0.0000 C   0  0  0  0  0  0  0  0  0  0  0  0
    8.6019    6.0326    0.0000 O   0  0  0  0  0  0  0  0  0  0  0  0
    7.3894    6.7326    0.0000 C   0  0  0  0  0  0  0  0  0  0  0  0
    6.1770    6.0326    0.0000 C   0  0  0  0  0  0  0  0  0  0  0  0
    4.9646    6.7326    0.0000 C   0  0  0  0  0  0  0  0  0  0  0  0
    7.3894    8.1278    0.0000 O   0  0  0  0  0  0  0  0  0  0  0  0
    4.8455    1.4000    0.0000 F   0  0  0  0  0  0  0  0  0  0  0  0
   11.0268    4.6326    0.0000 C   0  0  0  0  0  0  0  0  0  0  0  0
    9.8143    6.7278    0.0000 O   0  0  0  0  0  0  0  0  0  0  0  0
    0.3145    2.6160    0.0000 H   0  0  0  0  0  0  0  0  0  0  0  0
    2.4207   -1.0320    0.0000 H   0  0  0  0  0  0  0  0  0  0  0  0
    2.4207    3.8320    0.0000 H   0  0  0  0  0  0  0  0  0  0  0  0
    4.8455   -1.0700    0.0000 H   0  0  0  0  0  0  0  0  0  0  0  0
    5.7721   -0.5350    0.0000 H   0  0  0  0  0  0  0  0  0  0  0  0
    6.9846    0.1650    0.0000 H   0  0  0  0  0  0  0  0  0  0  0  0
    6.9847    1.2350    0.0000 H   0  0  0  0  0  0  0  0  0  0  0  0
    5.1314    1.5650    0.0000 H   0  0  0  0  0  0  0  0  0  0  0  0
    7.3823    1.7359    0.0000 H   0  0  0  0  0  0  0  0  0  0  0  0
    6.0580    5.9700    0.0000 H   0  0  0  0  0  0  0  0  0  0  0  0
    5.1314    5.4350    0.0000 H   0  0  0  0  0  0  0  0  0  0  0  0
    4.8455    5.2700    0.0000 H   0  0  0  0  0  0  0  0  0  0  0  0
    8.9326    1.3498    0.0000 H   0  0  0  0  0  0  0  0  0  0  0  0
    9.6587    2.2000    0.0000 H   0  0  0  0  0  0  0  0  0  0  0  0
    9.6473    2.4534    0.0000 H   0  0  0  0  0  0  0  0  0  0  0  0
    4.5597    4.0350    0.0000 H   0  0  0  0  0  0  0  0  0  0  0  0
    2.7065    4.0350    0.0000 H   0  0  0  0  0  0  0  0  0  0  0  0
    3.6331    4.5700    0.0000 H   0  0  0  0  0  0  0  0  0  0  0  0
    3.6373    5.8676    0.0000 H   0  0  0  0  0  0  0  0  0  0  0  0
    8.1970    6.1350    0.0000 H   0  0  0  0  0  0  0  0  0  0  0  0
    6.3438    6.1350    0.0000 H   0  0  0  0  0  0  0  0  0  0  0  0
    7.2704    6.6700    0.0000 H   0  0  0  0  0  0  0  0  0  0  0  0
   10.6372    1.7300    0.0000 H   0  0  0  0  0  0  0  0  0  0  0  0
   11.5639    3.3350    0.0000 H   0  0  0  0  0  0  0  0  0  0  0  0
   11.5638    2.2650    0.0000 H   0  0  0  0  0  0  0  0  0  0  0  0
    6.1770    4.9626    0.0000 H   0  0  0  0  0  0  0  0  0  0  0  0
    5.2503    5.4976    0.0000 H   0  0  0  0  0  0  0  0  0  0  0  0
    4.9646    7.8026    0.0000 H   0  0  0  0  0  0  0  0  0  0  0  0
    4.0379    6.1976    0.0000 H   0  0  0  0  0  0  0  0  0  0  0  0
    4.0380    7.2676    0.0000 H   0  0  0  0  0  0  0  0  0  0  0  0
   11.0268    3.5626    0.0000 H   0  0  0  0  0  0  0  0  0  0  0  0
   11.9534    5.1676    0.0000 H   0  0  0  0  0  0  0  0  0  0  0  0
   11.9535    4.0976    0.0000 H   0  0  0  0  0  0  0  0  0  0  0  0
  1  2  1  0  0  0  0
  1 32  1  0  0  0  0
  2  3  1  0  0  0  0
  2 18  2  0  0  0  0
  3  4  2  0  0  0  0
  3 33  1  0  0  0  0
  4  5  1  0  0  0  0
  4  7  1  0  0  0  0
  5  6  1  0  0  0  0
  5 19  1  1  0  0  0
  6  1  2  0  0  0  0
  6 34  1  0  0  0  0
  7  8  1  0  0  0  0
  7 35  1  0  0  0  0
  7 36  1  0  0  0  0
  8 37  1  0  0  0  0
  8 38  1  0  0  0  0
  9  8  1  0  0  0  0
  9 10  1  0  0  0  0
  9 11  1  0  0  0  0
  9 39  1  1  0  0  0
 10  5  1  0  0  0  0
 10 29  1  6  0  0  0
 11 12  1  0  0  0  0
 11 15  1  0  0  0  0
 11 40  1  6  0  0  0
 12 13  1  0  0  0  0
 12 21  1  1  0  0  0
 13 14  1  0  0  0  0
 13 41  1  0  0  0  0
 13 42  1  0  0  0  0
 14 10  1  0  0  0  0
 14 20  1  0  0  0  0
 14 43  1  6  0  0  0
 15 16  1  0  0  0  0
 15 44  1  0  0  0  0
 15 45  1  0  0  0  0
 16 17  1  0  0  0  0
 16 23  1  0  0  0  0
 16 46  1  6  0  0  0
 17 12  1  0  0  0  0
 17 22  1  1  0  0  0
 17 24  1  0  0  0  0
 19 47  1  0  0  0  0
 19 48  1  0  0  0  0
 19 49  1  0  0  0  0
 20 50  1  0  0  0  0
 21 51  1  0  0  0  0
 21 52  1  0  0  0  0
 21 53  1  0  0  0  0
 22 30  1  0  0  0  0
 22 31  2  0  0  0  0
 23 54  1  0  0  0  0
 23 55  1  0  0  0  0
 23 56  1  0  0  0  0
 24 25  1  0  0  0  0
 25 26  1  0  0  0  0
 25 28  2  0  0  0  0
 26 27  1  0  0  0  0
 26 57  1  0  0  0  0
 26 58  1  0  0  0  0
 27 59  1  0  0  0  0
 27 60  1  0  0  0  0
 27 61  1  0  0  0  0
 30 62  1  0  0  0  0
 30 63  1  0  0  0  0
 30 64  1  0  0  0  0
M  END
>  <Mol_ID>
934

>  <Formula>
C25H32ClFO5

>  <MolWeight>
466.9699832

>  <Cat>
S2584

>  <Name>
Clobetasol propionate

>  <Synonyms>
CGP9555, CCl 4725

>  <Target>
Glucocorticoid Receptor

>  <Form>
free base

>  <CAS>
25122-46-7

>  <URL>
http://selleckchem.com/products/clobetasol-propionate.html

$$$$
