Clocortolone Pivalate
 OpenBabel08302521383D

 70 73  0  0  1  0  0  0  0  0999 V2000
    2.9721    1.9569    1.9826 C   0  0  0  0  0  0  0  0  0  0  0  0
    1.9167    2.3415   -1.2926 O   0  0  0  0  0  0  0  0  0  0  0  0
    0.2111    0.3927   -3.1280 C   0  0  0  0  0  0  0  0  0  0  0  0
    5.5320   -1.5589    0.1388 F   0  0  0  0  0  0  0  0  0  0  0  0
   -2.4280   -0.7295   -1.7035 C   0  0  0  0  0  0  0  0  0  0  0  0
   -3.2832   -0.8850   -0.4550 C   0  0  0  0  0  0  0  0  0  0  0  0
   -2.8399   -0.2509   -2.7566 O   0  0  0  0  0  0  0  0  0  0  0  0
   -4.4914   -0.1811   -0.5703 O   0  0  0  0  0  0  0  0  0  0  0  0
   -4.3269    1.1683   -0.4285 C   0  0  0  0  0  0  0  0  0  0  0  0
   -5.6877    1.8255   -0.5134 C   0  0  0  0  0  0  0  0  0  0  0  0
   -3.2491    1.7228   -0.1912 O   0  0  0  0  0  0  0  0  0  0  0  0
   -6.5212    1.1940    0.6134 C   0  0  0  0  0  0  0  0  0  0  0  0
   -5.5419    3.3325   -0.2924 C   0  0  0  0  0  0  0  0  0  0  0  0
   -6.2670    1.5585   -1.9082 C   0  0  0  0  0  0  0  0  0  0  0  0
   -1.0584   -3.7174   -1.5904 C   0  0  0  0  0  0  0  0  0  0  0  0
    6.4997    1.5722    3.2306 O   0  0  0  0  0  0  0  0  0  0  0  0
    2.4987   -0.3870   -1.1311 C   0  0  2  0  0  0  0  0  0  0  0  0
    2.2058    0.3820    0.2084 C   0  0  1  0  0  0  0  0  0  0  0  0
    1.2156   -1.1566   -1.3390 C   0  0  1  0  0  0  0  0  0  0  0  0
    3.7548   -1.1920   -1.2585 C   0  0  0  0  0  0  0  0  0  0  0  0
    3.3696    0.6760    1.1696 C   0  0  1  0  0  0  0  0  0  0  0  0
    1.3117    1.5882   -0.2445 C   0  0  2  0  0  0  0  0  0  0  0  0
    0.0726   -0.1652   -1.6855 C   0  0  1  0  0  0  0  0  0  0  0  0
    0.9963   -2.3466   -2.2669 C   0  0  0  0  0  0  0  0  0  0  0  0
    4.9376   -0.5399   -0.5702 C   0  0  1  0  0  0  0  0  0  0  0  0
    4.6868    0.6176    0.4064 C   0  0  0  0  0  0  0  0  0  0  0  0
    3.6371   -0.2940    2.3348 C   0  0  0  0  0  0  0  0  0  0  0  0
   -0.0448    1.0166   -0.6908 C   0  0  0  0  0  0  0  0  0  0  0  0
   -1.0245   -1.2104   -1.5062 C   0  0  2  0  0  0  0  0  0  0  0  0
   -0.5594   -2.4520   -2.2883 C   0  0  2  0  0  0  0  0  0  0  0  0
    5.7912    1.0677    1.0147 C   0  0  0  0  0  0  0  0  0  0  0  0
    4.7828   -0.0955    3.0315 C   0  0  0  0  0  0  0  0  0  0  0  0
    5.7510    0.9334    2.5078 C   0  0  0  0  0  0  0  0  0  0  0  0
    1.9161    1.8768    2.2962 H   0  0  0  0  0  0  0  0  0  0  0  0
    3.1181    2.8666    1.4030 H   0  0  0  0  0  0  0  0  0  0  0  0
    3.4832    2.0930    2.9388 H   0  0  0  0  0  0  0  0  0  0  0  0
    2.8174    2.5885   -1.0211 H   0  0  0  0  0  0  0  0  0  0  0  0
    0.2959    1.4850   -3.1380 H   0  0  0  0  0  0  0  0  0  0  0  0
   -0.6432    0.1422   -3.7600 H   0  0  0  0  0  0  0  0  0  0  0  0
    1.1048    0.0208   -3.6401 H   0  0  0  0  0  0  0  0  0  0  0  0
   -3.5003   -1.9466   -0.3188 H   0  0  0  0  0  0  0  0  0  0  0  0
   -2.7328   -0.5473    0.4347 H   0  0  0  0  0  0  0  0  0  0  0  0
   -6.9064    0.2081    0.3208 H   0  0  0  0  0  0  0  0  0  0  0  0
   -5.9033    1.0294    1.5056 H   0  0  0  0  0  0  0  0  0  0  0  0
   -7.3659    1.8183    0.9020 H   0  0  0  0  0  0  0  0  0  0  0  0
   -4.9599    3.7948   -1.0988 H   0  0  0  0  0  0  0  0  0  0  0  0
   -5.0282    3.5522    0.6505 H   0  0  0  0  0  0  0  0  0  0  0  0
   -6.5227    3.8167   -0.2651 H   0  0  0  0  0  0  0  0  0  0  0  0
   -6.6272    0.5280   -2.0073 H   0  0  0  0  0  0  0  0  0  0  0  0
   -7.1027    2.2292   -2.1317 H   0  0  0  0  0  0  0  0  0  0  0  0
   -5.5033    1.7021   -2.6850 H   0  0  0  0  0  0  0  0  0  0  0  0
   -0.6841   -4.6153   -2.0886 H   0  0  0  0  0  0  0  0  0  0  0  0
   -0.7268   -3.7526   -0.5448 H   0  0  0  0  0  0  0  0  0  0  0  0
   -2.1529   -3.7534   -1.5889 H   0  0  0  0  0  0  0  0  0  0  0  0
    2.6026    0.3333   -1.9507 H   0  0  0  0  0  0  0  0  0  0  0  0
    1.5404   -0.2209    0.8465 H   0  0  0  0  0  0  0  0  0  0  0  0
    1.0268   -1.6272   -0.3573 H   0  0  0  0  0  0  0  0  0  0  0  0
    3.9903   -1.2512   -2.3338 H   0  0  0  0  0  0  0  0  0  0  0  0
    3.6185   -2.2330   -0.9508 H   0  0  0  0  0  0  0  0  0  0  0  0
    1.0844    2.3085    0.5406 H   0  0  0  0  0  0  0  0  0  0  0  0
    1.3981   -2.1802   -3.2695 H   0  0  0  0  0  0  0  0  0  0  0  0
    1.4620   -3.2531   -1.8630 H   0  0  0  0  0  0  0  0  0  0  0  0
    5.6770   -0.2428   -1.3217 H   0  0  0  0  0  0  0  0  0  0  0  0
    2.8796   -0.9879    2.6891 H   0  0  0  0  0  0  0  0  0  0  0  0
   -0.6619    1.8165   -1.1188 H   0  0  0  0  0  0  0  0  0  0  0  0
   -0.5608    0.6835    0.2188 H   0  0  0  0  0  0  0  0  0  0  0  0
   -1.0038   -1.4911   -0.4388 H   0  0  0  0  0  0  0  0  0  0  0  0
   -0.9252   -2.4372   -3.3206 H   0  0  0  0  0  0  0  0  0  0  0  0
    6.7889    1.0058    0.5971 H   0  0  0  0  0  0  0  0  0  0  0  0
    5.0344   -0.5831    3.9598 H   0  0  0  0  0  0  0  0  0  0  0  0
  1 34  1  0  0  0  0
  1 35  1  0  0  0  0
  1 36  1  0  0  0  0
  2 37  1  0  0  0  0
  3 38  1  0  0  0  0
  3 39  1  0  0  0  0
  3 40  1  0  0  0  0
  5  6  1  0  0  0  0
  5  7  2  0  0  0  0
  6  8  1  0  0  0  0
  6 41  1  0  0  0  0
  6 42  1  0  0  0  0
  8  9  1  0  0  0  0
  9 10  1  0  0  0  0
  9 11  2  0  0  0  0
 10 12  1  0  0  0  0
 10 13  1  0  0  0  0
 10 14  1  0  0  0  0
 12 43  1  0  0  0  0
 12 44  1  0  0  0  0
 12 45  1  0  0  0  0
 13 46  1  0  0  0  0
 13 47  1  0  0  0  0
 13 48  1  0  0  0  0
 14 49  1  0  0  0  0
 14 50  1  0  0  0  0
 14 51  1  0  0  0  0
 15 52  1  0  0  0  0
 15 53  1  0  0  0  0
 15 54  1  0  0  0  0
 16 33  2  0  0  0  0
 17 18  1  0  0  0  0
 17 19  1  0  0  0  0
 17 20  1  0  0  0  0
 17 55  1  6  0  0  0
 18 21  1  0  0  0  0
 18 22  1  0  0  0  0
 18 56  1  1  0  0  0
 19 23  1  0  0  0  0
 19 24  1  0  0  0  0
 19 57  1  1  0  0  0
 20 25  1  0  0  0  0
 20 58  1  0  0  0  0
 20 59  1  0  0  0  0
 21  1  1  1  0  0  0
 21 26  1  0  0  0  0
 21 27  1  0  0  0  0
 22  2  1  0  0  0  0
 22 28  1  0  0  0  0
 22 60  1  1  0  0  0
 23  3  1  6  0  0  0
 23 28  1  0  0  0  0
 23 29  1  0  0  0  0
 24 30  1  0  0  0  0
 24 61  1  0  0  0  0
 24 62  1  0  0  0  0
 25  4  1  0  0  0  0
 25 26  1  0  0  0  0
 25 63  1  6  0  0  0
 26 31  2  0  0  0  0
 27 32  2  0  0  0  0
 27 64  1  0  0  0  0
 28 65  1  0  0  0  0
 28 66  1  0  0  0  0
 29  5  1  0  0  0  0
 29 30  1  0  0  0  0
 29 67  1  1  0  0  0
 30 15  1  0  0  0  0
 30 68  1  6  0  0  0
 31 33  1  0  0  0  0
 31 69  1  0  0  0  0
 32 33  1  0  0  0  0
 32 70  1  0  0  0  0
M  END
>  <Mol_ID>
7573

>  <Formula>
C27H36ClFO5

>  <MolWeight>
495.0231432

>  <Cat>
E2872

>  <Name>
Clocortolone Pivalate

>  <Target>
Others

>  <Form>
free base

>  <CAS>
34097-16-0

>  <URL>
https://www.selleckchem.com/products/clocortolone-pivalate.html

$$$$
