Clodronate disodium.cdx
 OpenBabel08302521363D

 13 12  0  0  0  0  0  0  0  0999 V2000
    1.0765   -0.0362    0.0533 C   0  0  0  0  0  0  0  0  0  0  0  0
    0.6254   -1.7851    0.3722 P   0  0  3  0  0  0  0  0  0  0  0  0
    0.4665    1.2985    1.1466 P   0  0  3  0  0  0  0  0  0  0  0  0
    1.2137   -1.9663    1.8759 O   0  0  0  0  0  0  0  0  0  0  0  0
   -0.8801   -1.8923    0.4536 O   0  0  0  0  0  0  0  0  0  0  0  0
    1.4371   -2.6642   -0.5488 O   0  5  0  0  0  0  0  0  0  0  0  0
    1.2918    0.6573    2.4217 O   0  0  0  0  0  0  0  0  0  0  0  0
    1.5021    2.2111    0.4466 O   0  0  0  0  0  0  0  0  0  0  0  0
   -0.1102    2.5603    2.1801 O   0  5  0  0  0  0  0  0  0  0  0  0
    0.7249    0.1839   -0.9614 H   0  0  0  0  0  0  0  0  0  0  0  0
    2.1740   -0.0233    0.0316 H   0  0  0  0  0  0  0  0  0  0  0  0
    1.2506   -1.0883    2.3239 H   0  0  0  0  0  0  0  0  0  0  0  0
    1.3749    1.4936    2.9386 H   0  0  0  0  0  0  0  0  0  0  0  0
  1  2  1  0  0  0  0
  1  3  1  0  0  0  0
  1 10  1  0  0  0  0
  1 11  1  0  0  0  0
  2  4  1  0  0  0  0
  2  5  2  0  0  0  0
  2  6  1  0  0  0  0
  3  7  1  0  0  0  0
  3  8  2  0  0  0  0
  3  9  1  0  0  0  0
  4 12  1  0  0  0  0
  7 13  1  0  0  0  0
M  CHG  2   6  -1   9  -1
M  END
>  <Mol_ID>
7111

>  <Formula>
CH2Cl2Na2O6P2

>  <MolWeight>
288.856042

>  <Cat>
S4108

>  <Name>
Clodronate Disodium

>  <Synonyms>
N/A

>  <Target>
Others

>  <Form>
Disodium salt

>  <CAS>
22560-50-5

>  <URL>
http://selleckchem.com/products/clodronate-disodium.html

$$$$
