Clofarabine.cdx
 OpenBabel08302522003D

 31 33  0  0  0  0  0  0  0  0999 V2000
    7.1019    2.5079    1.0168 N   0  0  0  0  0  0  0  0  0  0  0  0
    6.1434    1.6073    1.3230 C   0  0  0  0  0  0  0  0  0  0  0  0
    4.8249    1.6555    1.0422 N   0  0  0  0  0  0  0  0  0  0  0  0
    4.5307    2.7737    0.3579 C   0  0  0  0  0  0  0  0  0  0  0  0
    5.3976    3.7814   -0.0243 C   0  0  0  0  0  0  0  0  0  0  0  0
    6.7428    3.6314    0.3507 C   0  0  0  0  0  0  0  0  0  0  0  0
    3.3058    3.1651   -0.1071 N   0  0  0  0  0  0  0  0  0  0  0  0
    3.4651    4.3632   -0.7433 C   0  0  0  0  0  0  0  0  0  0  0  0
    4.7202    4.7657   -0.7231 N   0  0  0  0  0  0  0  0  0  0  0  0
    7.7246    4.5741    0.0782 N   0  0  0  0  0  0  0  0  0  0  0  0
    2.0886    2.4146    0.0923 C   0  0  1  0  0  0  0  0  0  0  0  0
    1.3472    2.7339    1.3789 C   0  0  2  0  0  0  0  0  0  0  0  0
   -0.0444    2.2433    1.0443 C   0  0  1  0  0  0  0  0  0  0  0  0
   -0.1818    2.6039   -0.4378 C   0  0  2  0  0  0  0  0  0  0  0  0
    1.1612    2.6439   -0.9950 O   0  0  0  0  0  0  0  0  0  0  0  0
    1.2923    4.0799    1.5782 F   0  0  0  0  0  0  0  0  0  0  0  0
   -0.8293    3.9723   -0.6651 C   0  0  0  0  0  0  0  0  0  0  0  0
   -0.1262    0.8295    1.2601 O   0  0  0  0  0  0  0  0  0  0  0  0
   -0.9347    4.2234   -2.0657 O   0  0  0  0  0  0  0  0  0  0  0  0
    6.4804    0.7294    1.8696 H   0  0  0  0  0  0  0  0  0  0  0  0
    2.6421    4.8989   -1.1999 H   0  0  0  0  0  0  0  0  0  0  0  0
    7.4894    5.2198   -0.6652 H   0  0  0  0  0  0  0  0  0  0  0  0
    8.6610    4.1977    0.1152 H   0  0  0  0  0  0  0  0  0  0  0  0
    2.3441    1.3481    0.0461 H   0  0  0  0  0  0  0  0  0  0  0  0
    1.7992    2.2674    2.2584 H   0  0  0  0  0  0  0  0  0  0  0  0
   -0.8163    2.7128    1.6608 H   0  0  0  0  0  0  0  0  0  0  0  0
   -0.7296    1.8380   -0.9981 H   0  0  0  0  0  0  0  0  0  0  0  0
   -1.8377    4.0023   -0.2416 H   0  0  0  0  0  0  0  0  0  0  0  0
   -0.2376    4.7838   -0.2322 H   0  0  0  0  0  0  0  0  0  0  0  0
    0.1789    0.3494    0.4690 H   0  0  0  0  0  0  0  0  0  0  0  0
   -0.0482    4.0692   -2.4435 H   0  0  0  0  0  0  0  0  0  0  0  0
  1  2  2  0  0  0  0
  2  3  1  0  0  0  0
  2 20  1  0  0  0  0
  3  4  2  0  0  0  0
  4  5  1  0  0  0  0
  4  7  1  0  0  0  0
  5  6  2  0  0  0  0
  6  1  1  0  0  0  0
  6 10  1  0  0  0  0
  7  8  1  0  0  0  0
  8  9  2  0  0  0  0
  8 21  1  0  0  0  0
  9  5  1  0  0  0  0
 10 22  1  0  0  0  0
 10 23  1  0  0  0  0
 11 12  1  0  0  0  0
 11 24  1  1  0  0  0
 11  7  1  0  0  0  0
 12 13  1  0  0  0  0
 12 16  1  0  0  0  0
 12 25  1  1  0  0  0
 13 14  1  0  0  0  0
 13 18  1  0  0  0  0
 13 26  1  1  0  0  0
 14 15  1  0  0  0  0
 14 17  1  0  0  0  0
 14 27  1  6  0  0  0
 15 11  1  0  0  0  0
 17 19  1  0  0  0  0
 17 28  1  0  0  0  0
 17 29  1  0  0  0  0
 18 30  1  0  0  0  0
 19 31  1  0  0  0  0
M  END
>  <Mol_ID>
124

>  <Formula>
C10H11ClFN5O3

>  <MolWeight>
303.6774432

>  <Cat>
S1218

>  <Name>
Clofarabine

>  <Synonyms>
Clolar

>  <Target>
Apoptosis related,Autophagy,DNA/RNA Synthesis,RNR

>  <Form>
free base

>  <CAS>
123318-82-1

>  <URL>
http://selleckchem.com/products/Clofarabine.html

$$$$
