Clofibrate
 OpenBabel08302520393D

 31 31  0  0  0  0  0  0  0  0999 V2000
    1.5737    0.0772   -0.5026 C   0  0  0  0  0  0  0  0  0  0  0  0
    0.8877   -1.1323   -0.4592 C   0  0  0  0  0  0  0  0  0  0  0  0
   -0.4869   -1.1382   -0.2330 C   0  0  0  0  0  0  0  0  0  0  0  0
   -1.1784    0.0626   -0.0373 C   0  0  0  0  0  0  0  0  0  0  0  0
   -0.4934    1.2756   -0.0502 C   0  0  0  0  0  0  0  0  0  0  0  0
    0.8830    1.2728   -0.2990 C   0  0  0  0  0  0  0  0  0  0  0  0
   -1.0084    2.5193    0.1654 O   0  0  0  0  0  0  0  0  0  0  0  0
   -2.3928    2.7398    0.4486 C   0  0  0  0  0  0  0  0  0  0  0  0
   -3.4096    2.2664   -0.6196 C   0  0  0  0  0  0  0  0  0  0  0  0
   -2.8736    2.3586   -1.8699 O   0  0  0  0  0  0  0  0  0  0  0  0
   -3.7695    2.1889   -2.9765 C   0  0  0  0  0  0  0  0  0  0  0  0
   -3.9700    0.7269   -3.3280 C   0  0  0  0  0  0  0  0  0  0  0  0
   -4.5652    1.9300   -0.3799 O   0  0  0  0  0  0  0  0  0  0  0  0
   -2.7440    2.2430    1.8631 C   0  0  0  0  0  0  0  0  0  0  0  0
   -2.5379    4.2762    0.4750 C   0  0  0  0  0  0  0  0  0  0  0  0
    2.6443    0.0933   -0.6893 H   0  0  0  0  0  0  0  0  0  0  0  0
    1.4218   -2.0679   -0.6036 H   0  0  0  0  0  0  0  0  0  0  0  0
   -1.0259   -2.0825   -0.2043 H   0  0  0  0  0  0  0  0  0  0  0  0
   -2.2473   -0.0011    0.1286 H   0  0  0  0  0  0  0  0  0  0  0  0
    1.4256    2.2154   -0.3309 H   0  0  0  0  0  0  0  0  0  0  0  0
   -4.7252    2.6882   -2.7798 H   0  0  0  0  0  0  0  0  0  0  0  0
   -3.3108    2.7024   -3.8288 H   0  0  0  0  0  0  0  0  0  0  0  0
   -4.4434    0.1818   -2.5048 H   0  0  0  0  0  0  0  0  0  0  0  0
   -4.6050    0.6325   -4.2145 H   0  0  0  0  0  0  0  0  0  0  0  0
   -3.0121    0.2397   -3.5296 H   0  0  0  0  0  0  0  0  0  0  0  0
   -2.0719    2.6887    2.6057 H   0  0  0  0  0  0  0  0  0  0  0  0
   -3.7737    2.4957    2.1359 H   0  0  0  0  0  0  0  0  0  0  0  0
   -2.6388    1.1611    1.9689 H   0  0  0  0  0  0  0  0  0  0  0  0
   -1.9147    4.7164    1.2627 H   0  0  0  0  0  0  0  0  0  0  0  0
   -2.1979    4.7176   -0.4696 H   0  0  0  0  0  0  0  0  0  0  0  0
   -3.5752    4.5859    0.6410 H   0  0  0  0  0  0  0  0  0  0  0  0
  1  2  2  0  0  0  0
  1 16  1  0  0  0  0
  2  3  1  0  0  0  0
  2 17  1  0  0  0  0
  3  4  2  0  0  0  0
  3 18  1  0  0  0  0
  4  5  1  0  0  0  0
  4 19  1  0  0  0  0
  5  6  2  0  0  0  0
  5  7  1  0  0  0  0
  6  1  1  0  0  0  0
  6 20  1  0  0  0  0
  7  8  1  0  0  0  0
  8  9  1  0  0  0  0
  8 14  1  0  0  0  0
  8 15  1  0  0  0  0
  9 10  1  0  0  0  0
  9 13  2  0  0  0  0
 10 11  1  0  0  0  0
 11 12  1  0  0  0  0
 11 21  1  0  0  0  0
 11 22  1  0  0  0  0
 12 23  1  0  0  0  0
 12 24  1  0  0  0  0
 12 25  1  0  0  0  0
 14 26  1  0  0  0  0
 14 27  1  0  0  0  0
 14 28  1  0  0  0  0
 15 29  1  0  0  0  0
 15 30  1  0  0  0  0
 15 31  1  0  0  0  0
M  END
>  <Mol_ID>
3686

>  <Formula>
C12H15ClO3

>  <MolWeight>
242.6987

>  <Cat>
S1820

>  <Name>
Clofibrate

>  <Target>
Others

>  <Form>
Free Base

>  <CAS>
637-07-0

>  <URL>
http://www.selleck.cn/products/Clofibrate(Atromid-S).html

$$$$
