Clomipramine hydrochloride.cdx
 OpenBabel08302521403D

 45 47  0  0  0  0  0  0  0  0999 V2000
    1.0546   -0.0210   -0.2494 C   0  0  0  0  0  0  0  0  0  0  0  0
    0.2964    0.1865   -1.5176 N   0  0  0  0  0  0  0  0  0  0  0  0
   -0.2726    1.4800   -1.6603 C   0  0  0  0  0  0  0  0  0  0  0  0
    0.1403    2.4495   -2.5971 C   0  0  0  0  0  0  0  0  0  0  0  0
    1.3351    2.3451   -3.5219 C   0  0  0  0  0  0  0  0  0  0  0  0
    2.3718    1.2605   -3.2504 C   0  0  0  0  0  0  0  0  0  0  0  0
    1.7887   -0.1065   -3.4644 C   0  0  0  0  0  0  0  0  0  0  0  0
    0.7968   -0.5819   -2.5932 C   0  0  0  0  0  0  0  0  0  0  0  0
   -1.4183    1.7646   -0.8844 C   0  0  0  0  0  0  0  0  0  0  0  0
   -2.1381    2.9531   -1.0177 C   0  0  0  0  0  0  0  0  0  0  0  0
   -1.7442    3.8863   -1.9533 C   0  0  0  0  0  0  0  0  0  0  0  0
   -0.6200    3.6366   -2.7341 C   0  0  0  0  0  0  0  0  0  0  0  0
    2.1955   -0.8935   -4.5557 C   0  0  0  0  0  0  0  0  0  0  0  0
    1.6174   -2.1417   -4.7843 C   0  0  0  0  0  0  0  0  0  0  0  0
    0.6369   -2.6184   -3.9202 C   0  0  0  0  0  0  0  0  0  0  0  0
    0.2378   -1.8457   -2.8287 C   0  0  0  0  0  0  0  0  0  0  0  0
    0.1800   -0.7093    0.8082 C   0  0  0  0  0  0  0  0  0  0  0  0
    0.8779   -0.9636    2.1507 C   0  0  0  0  0  0  0  0  0  0  0  0
    1.4240    0.2249    2.8314 N   0  0  0  0  0  0  0  0  0  0  0  0
    0.3950    1.2211    3.1409 C   0  0  0  0  0  0  0  0  0  0  0  0
    2.0952   -0.1886    4.0711 C   0  0  0  0  0  0  0  0  0  0  0  0
    1.4483    0.9321    0.1224 H   0  0  0  0  0  0  0  0  0  0  0  0
    1.9358   -0.6563   -0.4246 H   0  0  0  0  0  0  0  0  0  0  0  0
    0.9565    2.2390   -4.5474 H   0  0  0  0  0  0  0  0  0  0  0  0
    1.8686    3.3051   -3.4780 H   0  0  0  0  0  0  0  0  0  0  0  0
    2.7805    1.3422   -2.2356 H   0  0  0  0  0  0  0  0  0  0  0  0
    3.2211    1.4111   -3.9282 H   0  0  0  0  0  0  0  0  0  0  0  0
   -1.8145    1.0206   -0.2079 H   0  0  0  0  0  0  0  0  0  0  0  0
   -3.0245    3.1171   -0.4091 H   0  0  0  0  0  0  0  0  0  0  0  0
   -2.3183    4.7992   -2.0938 H   0  0  0  0  0  0  0  0  0  0  0  0
   -0.3345    4.3768   -3.4838 H   0  0  0  0  0  0  0  0  0  0  0  0
    2.9518   -0.5269   -5.2474 H   0  0  0  0  0  0  0  0  0  0  0  0
    1.9213   -2.7336   -5.6435 H   0  0  0  0  0  0  0  0  0  0  0  0
    0.1673   -3.5803   -4.1041 H   0  0  0  0  0  0  0  0  0  0  0  0
   -0.5495   -2.2107   -2.1746 H   0  0  0  0  0  0  0  0  0  0  0  0
   -0.7250   -0.1342    1.0070 H   0  0  0  0  0  0  0  0  0  0  0  0
   -0.1677   -1.6706    0.4130 H   0  0  0  0  0  0  0  0  0  0  0  0
    0.1540   -1.4651    2.8081 H   0  0  0  0  0  0  0  0  0  0  0  0
    1.6902   -1.6810    1.9768 H   0  0  0  0  0  0  0  0  0  0  0  0
   -0.4034    0.8131    3.7705 H   0  0  0  0  0  0  0  0  0  0  0  0
    0.8381    2.0781    3.6614 H   0  0  0  0  0  0  0  0  0  0  0  0
   -0.0495    1.6297    2.2284 H   0  0  0  0  0  0  0  0  0  0  0  0
    1.4606   -0.8325    4.6915 H   0  0  0  0  0  0  0  0  0  0  0  0
    3.0167   -0.7308    3.8364 H   0  0  0  0  0  0  0  0  0  0  0  0
    2.3866    0.6782    4.6752 H   0  0  0  0  0  0  0  0  0  0  0  0
  1  2  1  0  0  0  0
  1 17  1  0  0  0  0
  1 22  1  0  0  0  0
  1 23  1  0  0  0  0
  2  3  1  0  0  0  0
  3  4  2  0  0  0  0
  3  9  1  0  0  0  0
  4  5  1  0  0  0  0
  5  6  1  0  0  0  0
  5 24  1  0  0  0  0
  5 25  1  0  0  0  0
  6  7  1  0  0  0  0
  6 26  1  0  0  0  0
  6 27  1  0  0  0  0
  7  8  2  0  0  0  0
  7 13  1  0  0  0  0
  8  2  1  0  0  0  0
  9 10  2  0  0  0  0
  9 28  1  0  0  0  0
 10 11  1  0  0  0  0
 10 29  1  0  0  0  0
 11 12  2  0  0  0  0
 11 30  1  0  0  0  0
 12  4  1  0  0  0  0
 12 31  1  0  0  0  0
 13 14  2  0  0  0  0
 13 32  1  0  0  0  0
 14 15  1  0  0  0  0
 14 33  1  0  0  0  0
 15 16  2  0  0  0  0
 15 34  1  0  0  0  0
 16  8  1  0  0  0  0
 16 35  1  0  0  0  0
 17 18  1  0  0  0  0
 17 36  1  0  0  0  0
 17 37  1  0  0  0  0
 18 19  1  0  0  0  0
 18 38  1  0  0  0  0
 18 39  1  0  0  0  0
 19 20  1  0  0  0  0
 19 21  1  0  0  0  0
 20 40  1  0  0  0  0
 20 41  1  0  0  0  0
 20 42  1  0  0  0  0
 21 43  1  0  0  0  0
 21 44  1  0  0  0  0
 21 45  1  0  0  0  0
M  END
>  <Mol_ID>
804

>  <Formula>
C19H24Cl2N2

>  <MolWeight>
351.31326

>  <Cat>
S2541

>  <Name>
Clomipramine HCl

>  <Synonyms>
Anafranil

>  <Target>
Serotonin Transporter

>  <Form>
Hydrochloride

>  <CAS>
17321-77-6

>  <URL>
http://selleckchem.com/products/Clomipramine-hydrochloride-Anafranil.html

$$$$
