Clonidine HCl.cdx
 OpenBabel08302521373D

 23 24  0  0  0  0  0  0  0  0999 V2000
    1.2762   -0.2935   -0.3854 C   0  0  0  0  0  0  0  0  0  0  0  0
    0.4234   -1.3280   -0.0183 C   0  0  0  0  0  0  0  0  0  0  0  0
   -0.8790   -1.0393    0.3807 C   0  0  0  0  0  0  0  0  0  0  0  0
   -1.3191    0.2885    0.4396 C   0  0  0  0  0  0  0  0  0  0  0  0
   -0.4563    1.3482    0.1232 C   0  0  0  0  0  0  0  0  0  0  0  0
    0.8318    1.0284   -0.3270 C   0  0  0  0  0  0  0  0  0  0  0  0
   -0.9154    2.6778    0.2227 N   0  0  0  0  0  0  0  0  0  0  0  0
   -0.1277    3.7638    0.4580 C   0  0  0  0  0  0  0  0  0  0  0  0
   -0.8052    4.9554    0.4478 N   0  0  0  0  0  0  0  0  0  0  0  0
    0.1974    6.0031    0.3864 C   0  0  0  0  0  0  0  0  0  0  0  0
    1.4365    5.2627    0.8848 C   0  0  0  0  0  0  0  0  0  0  0  0
    1.1556    3.8250    0.6669 N   0  0  0  0  0  0  0  0  0  0  0  0
    2.2910   -0.5049   -0.7108 H   0  0  0  0  0  0  0  0  0  0  0  0
    0.7736   -2.3561   -0.0465 H   0  0  0  0  0  0  0  0  0  0  0  0
   -1.5516   -1.8464    0.6579 H   0  0  0  0  0  0  0  0  0  0  0  0
   -2.3386    0.4842    0.7600 H   0  0  0  0  0  0  0  0  0  0  0  0
    1.5191    1.8138   -0.6340 H   0  0  0  0  0  0  0  0  0  0  0  0
   -1.8465    2.7612    0.6016 H   0  0  0  0  0  0  0  0  0  0  0  0
   -1.5210    5.0155   -0.2662 H   0  0  0  0  0  0  0  0  0  0  0  0
   -0.0558    6.8657    1.0080 H   0  0  0  0  0  0  0  0  0  0  0  0
    0.3349    6.3279   -0.6510 H   0  0  0  0  0  0  0  0  0  0  0  0
    2.3355    5.5684    0.3411 H   0  0  0  0  0  0  0  0  0  0  0  0
    1.5995    5.4328    1.9554 H   0  0  0  0  0  0  0  0  0  0  0  0
  1  2  2  0  0  0  0
  1 13  1  0  0  0  0
  2  3  1  0  0  0  0
  2 14  1  0  0  0  0
  3  4  2  0  0  0  0
  3 15  1  0  0  0  0
  4  5  1  0  0  0  0
  4 16  1  0  0  0  0
  5  6  2  0  0  0  0
  5  7  1  0  0  0  0
  6  1  1  0  0  0  0
  6 17  1  0  0  0  0
  7  8  1  0  0  0  0
  7 18  1  0  0  0  0
  8  9  1  0  0  0  0
  9 10  1  0  0  0  0
  9 19  1  0  0  0  0
 10 11  1  0  0  0  0
 10 20  1  0  0  0  0
 10 21  1  0  0  0  0
 11 12  1  0  0  0  0
 11 22  1  0  0  0  0
 11 23  1  0  0  0  0
 12  8  2  0  0  0  0
M  END
>  <Mol_ID>
739

>  <Formula>
C9H10Cl3N3

>  <MolWeight>
266.5548

>  <Cat>
S2458

>  <Name>
Clonidine HCl

>  <Synonyms>
Kapvay

>  <Target>
Adrenergic Receptor,Autophagy

>  <Form>
Hydrochloride

>  <CAS>
4205-91-8

>  <URL>
http://selleckchem.com/products/Clonidine-hydrochloride(Catapres).html

$$$$
