Clopidogrel bisulfate.cdx
 OpenBabel08302519583D

 44 45  0  0  0  0  0  0  0  0999 V2000
    0.3391    4.8229    3.5386 C   0  0  0  0  0  0  0  0  0  0  0  0
   -0.3818    4.3253    4.6169 C   0  0  0  0  0  0  0  0  0  0  0  0
   -1.3596    3.3575    4.4052 C   0  0  0  0  0  0  0  0  0  0  0  0
   -1.6093    2.8795    3.1144 C   0  0  0  0  0  0  0  0  0  0  0  0
   -0.8653    3.3421    2.0109 C   0  0  0  0  0  0  0  0  0  0  0  0
    0.0992    4.3364    2.2522 C   0  0  0  0  0  0  0  0  0  0  0  0
   -1.0461    2.6636    0.6354 C   0  0  2  0  0  0  0  0  0  0  0  0
   -0.0614    1.5451    0.3747 N   0  0  0  0  0  0  0  0  0  0  0  0
   -0.0653    0.5127    1.4332 C   0  0  0  0  0  0  0  0  0  0  0  0
    1.0336   -0.5782    1.4175 C   0  0  0  0  0  0  0  0  0  0  0  0
    2.2647   -0.0959    0.7367 C   0  0  0  0  0  0  0  0  0  0  0  0
    2.3529    1.0954    0.0575 C   0  0  0  0  0  0  0  0  0  0  0  0
    1.2431    2.0814   -0.0348 C   0  0  0  0  0  0  0  0  0  0  0  0
    3.6735   -1.0379    0.5921 S   0  0  0  0  0  0  0  0  0  0  0  0
    4.4058    0.1197   -0.4372 C   0  0  0  0  0  0  0  0  0  0  0  0
    3.6087    1.2267   -0.6138 C   0  0  0  0  0  0  0  0  0  0  0  0
   -1.0287    3.6815   -0.5511 C   0  0  0  0  0  0  0  0  0  0  0  0
   -0.2176    4.5943   -0.6871 O   0  0  0  0  0  0  0  0  0  0  0  0
   -1.9556    3.3640   -1.5036 O   0  0  0  0  0  0  0  0  0  0  0  0
   -1.8953    4.1817   -2.6790 C   0  0  0  0  0  0  0  0  0  0  0  0
    1.3476   -0.2886   -2.2273 O   0  0  0  0  0  0  0  0  0  0  0  0
    0.1619   -1.1948   -2.7814 S   0  0  0  0  0  0  0  0  0  0  0  0
    0.0065   -0.5303   -4.2251 O   0  0  0  0  0  0  0  0  0  0  0  0
    0.6836   -2.5311   -2.9171 O   0  0  0  0  0  0  0  0  0  0  0  0
   -1.0329   -0.9012   -2.0221 O   0  0  0  0  0  0  0  0  0  0  0  0
    1.1061    5.5778    3.6932 H   0  0  0  0  0  0  0  0  0  0  0  0
   -0.1748    4.6874    5.6202 H   0  0  0  0  0  0  0  0  0  0  0  0
   -1.9134    2.9575    5.2507 H   0  0  0  0  0  0  0  0  0  0  0  0
   -2.3549    2.0969    2.9855 H   0  0  0  0  0  0  0  0  0  0  0  0
    0.7100    4.7419    1.4497 H   0  0  0  0  0  0  0  0  0  0  0  0
   -2.0557    2.2264    0.6260 H   0  0  0  0  0  0  0  0  0  0  0  0
   -0.0036    0.9646    2.4258 H   0  0  0  0  0  0  0  0  0  0  0  0
   -1.0328   -0.0084    1.3940 H   0  0  0  0  0  0  0  0  0  0  0  0
    1.2619   -0.8678    2.4516 H   0  0  0  0  0  0  0  0  0  0  0  0
    0.6629   -1.4705    0.8998 H   0  0  0  0  0  0  0  0  0  0  0  0
    1.1591    2.3636   -1.0930 H   0  0  0  0  0  0  0  0  0  0  0  0
    1.5496    2.9629    0.5269 H   0  0  0  0  0  0  0  0  0  0  0  0
    5.3783   -0.0654   -0.8717 H   0  0  0  0  0  0  0  0  0  0  0  0
    3.8773    2.0699   -1.2412 H   0  0  0  0  0  0  0  0  0  0  0  0
   -1.6030    5.2158   -2.4641 H   0  0  0  0  0  0  0  0  0  0  0  0
   -1.1933    3.7382   -3.3923 H   0  0  0  0  0  0  0  0  0  0  0  0
   -2.8890    4.2060   -3.1329 H   0  0  0  0  0  0  0  0  0  0  0  0
    1.8903   -0.8339   -1.6196 H   0  0  0  0  0  0  0  0  0  0  0  0
    0.2954    0.3999   -4.1289 H   0  0  0  0  0  0  0  0  0  0  0  0
  1  2  2  0  0  0  0
  1 26  1  0  0  0  0
  2  3  1  0  0  0  0
  2 27  1  0  0  0  0
  3  4  2  0  0  0  0
  3 28  1  0  0  0  0
  4  5  1  0  0  0  0
  4 29  1  0  0  0  0
  5  6  2  0  0  0  0
  6  1  1  0  0  0  0
  6 30  1  0  0  0  0
  7 17  1  0  0  0  0
  7 31  1  1  0  0  0
  7  8  1  0  0  0  0
  7  5  1  0  0  0  0
  8  9  1  0  0  0  0
  9 10  1  0  0  0  0
  9 32  1  0  0  0  0
  9 33  1  0  0  0  0
 10 11  1  0  0  0  0
 10 34  1  0  0  0  0
 10 35  1  0  0  0  0
 11 12  2  0  0  0  0
 11 14  1  0  0  0  0
 12 13  1  0  0  0  0
 13  8  1  0  0  0  0
 13 36  1  0  0  0  0
 13 37  1  0  0  0  0
 14 15  1  0  0  0  0
 15 16  2  0  0  0  0
 15 38  1  0  0  0  0
 16 12  1  0  0  0  0
 16 39  1  0  0  0  0
 17 18  2  0  0  0  0
 17 19  1  0  0  0  0
 19 20  1  0  0  0  0
 20 40  1  0  0  0  0
 20 41  1  0  0  0  0
 20 42  1  0  0  0  0
 21 22  1  0  0  0  0
 21 43  1  0  0  0  0
 22 23  1  0  0  0  0
 22 24  2  0  0  0  0
 22 25  2  0  0  0  0
 23 44  1  0  0  0  0
M  END
>  <Mol_ID>
247

>  <Formula>
C16H18ClNO6S2

>  <MolWeight>
419.90022

>  <Cat>
S1415

>  <Name>
Clopidogrel (SR-25990C) Bisulfate

>  <Synonyms>
SR-25990C, Clopidogrel hydrogen sulfate, Iscover, Plavix

>  <Target>
P2 Receptor

>  <Form>
Bisulfate

>  <CAS>
120202-66-6

>  <URL>
http://selleckchem.com/products/Clopidogrel-bisulfate.html

$$$$
