Clopidol.cdx
 OpenBabel08302521393D

 18 18  0  0  0  0  0  0  0  0999 V2000
   -0.6656    1.2534    0.0001 C   0  0  0  0  0  0  0  0  0  0  0  0
   -1.3254    0.0299   -0.0010 C   0  0  0  0  0  0  0  0  0  0  0  0
   -0.6670   -1.1548   -0.0000 N   0  0  0  0  0  0  0  0  0  0  0  0
    0.6887   -1.1341    0.0018 C   0  0  0  0  0  0  0  0  0  0  0  0
    1.4171    0.0472    0.0023 C   0  0  0  0  0  0  0  0  0  0  0  0
    0.7205    1.2432    0.0018 C   0  0  0  0  0  0  0  0  0  0  0  0
   -2.8232   -0.0343   -0.0046 C   0  0  0  0  0  0  0  0  0  0  0  0
    1.4033   -2.4519    0.0033 C   0  0  0  0  0  0  0  0  0  0  0  0
    1.4442    2.4004    0.0028 O   0  0  0  0  0  0  0  0  0  0  0  0
   -1.2255    2.1804   -0.0003 H   0  0  0  0  0  0  0  0  0  0  0  0
    2.5010    0.0408    0.0033 H   0  0  0  0  0  0  0  0  0  0  0  0
   -3.1707   -0.5635   -0.8970 H   0  0  0  0  0  0  0  0  0  0  0  0
   -3.1751   -0.5656    0.8850 H   0  0  0  0  0  0  0  0  0  0  0  0
   -3.2720    0.9642   -0.0046 H   0  0  0  0  0  0  0  0  0  0  0  0
    2.0313   -2.5418   -0.8886 H   0  0  0  0  0  0  0  0  0  0  0  0
    2.0318   -2.5395    0.8950 H   0  0  0  0  0  0  0  0  0  0  0  0
    0.6910   -3.2833    0.0046 H   0  0  0  0  0  0  0  0  0  0  0  0
    0.8316    3.1540    0.0036 H   0  0  0  0  0  0  0  0  0  0  0  0
  1  2  2  0  0  0  0
  1 10  1  0  0  0  0
  2  3  1  0  0  0  0
  2  7  1  0  0  0  0
  3  4  2  0  0  0  0
  4  5  1  0  0  0  0
  4  8  1  0  0  0  0
  5  6  2  0  0  0  0
  5 11  1  0  0  0  0
  6  1  1  0  0  0  0
  6  9  1  0  0  0  0
  7 12  1  0  0  0  0
  7 13  1  0  0  0  0
  7 14  1  0  0  0  0
  8 15  1  0  0  0  0
  8 16  1  0  0  0  0
  8 17  1  0  0  0  0
  9 18  1  0  0  0  0
M  END
>  <Mol_ID>
8166

>  <Formula>
C7H7Cl2NO

>  <MolWeight>
192.04258

>  <Cat>
S4142

>  <Name>
Clopidol

>  <Synonyms>
WR 61112

>  <Target>
Anti-infection

>  <Form>
free base

>  <CAS>
2971-90-6

>  <URL>
http://selleckchem.com/products/clopidol.html

$$$$
