Clorgyline HCl
 OpenBabel08302520303D

 32 32  0  0  0  0  0  0  0  0999 V2000
    4.5630    0.4078    1.3486 C   0  0  0  0  0  0  0  0  0  0  0  0
    3.5685    1.0688    2.0590 C   0  0  0  0  0  0  0  0  0  0  0  0
    5.8464    0.9762    1.3003 C   0  0  0  0  0  0  0  0  0  0  0  0
    4.4403   -0.7969    0.7021 O   0  0  0  0  0  0  0  0  0  0  0  0
    3.8453    2.2841    2.7027 C   0  0  0  0  0  0  0  0  0  0  0  0
    6.1276    2.1876    1.9445 C   0  0  0  0  0  0  0  0  0  0  0  0
    3.1401   -1.3623    0.4434 C   0  0  0  0  0  0  0  0  0  0  0  0
    5.1224    2.8425    2.6485 C   0  0  0  0  0  0  0  0  0  0  0  0
    2.8423   -2.4945    1.4350 C   0  0  0  0  0  0  0  0  0  0  0  0
    1.4450   -3.1449    1.3253 C   0  0  0  0  0  0  0  0  0  0  0  0
    1.0950   -3.8563    0.0871 N   0  0  0  0  0  0  0  0  0  0  0  0
    1.8526   -5.0756   -0.2208 C   0  0  0  0  0  0  0  0  0  0  0  0
   -0.3391   -4.1165   -0.0146 C   0  0  0  0  0  0  0  0  0  0  0  0
    2.0018   -6.1628    0.8310 C   0  0  0  0  0  0  0  0  0  0  0  0
    2.1298   -7.0953    1.7332 C   0  0  0  0  0  0  0  0  0  0  0  0
    2.5670    0.6654    2.1467 H   0  0  0  0  0  0  0  0  0  0  0  0
    6.6396    0.4718    0.7539 H   0  0  0  0  0  0  0  0  0  0  0  0
    3.0621    2.7949    3.2563 H   0  0  0  0  0  0  0  0  0  0  0  0
    7.1301    2.6074    1.8938 H   0  0  0  0  0  0  0  0  0  0  0  0
    2.3536   -0.6015    0.4165 H   0  0  0  0  0  0  0  0  0  0  0  0
    3.1940   -1.7822   -0.5673 H   0  0  0  0  0  0  0  0  0  0  0  0
    5.3369    3.7807    3.1538 H   0  0  0  0  0  0  0  0  0  0  0  0
    3.6269   -3.2567    1.3667 H   0  0  0  0  0  0  0  0  0  0  0  0
    2.9336   -2.0801    2.4482 H   0  0  0  0  0  0  0  0  0  0  0  0
    1.3057   -3.8114    2.1851 H   0  0  0  0  0  0  0  0  0  0  0  0
    0.7234   -2.3277    1.4643 H   0  0  0  0  0  0  0  0  0  0  0  0
    1.4678   -5.5384   -1.1393 H   0  0  0  0  0  0  0  0  0  0  0  0
    2.8726   -4.7634   -0.4821 H   0  0  0  0  0  0  0  0  0  0  0  0
   -0.6884   -4.8361    0.7320 H   0  0  0  0  0  0  0  0  0  0  0  0
   -0.9137   -3.1899    0.0933 H   0  0  0  0  0  0  0  0  0  0  0  0
   -0.5847   -4.5039   -1.0115 H   0  0  0  0  0  0  0  0  0  0  0  0
    2.2342   -7.8574    2.4706 H   0  0  0  0  0  0  0  0  0  0  0  0
  1  2  2  0  0  0  0
  1  3  1  0  0  0  0
  1  4  1  0  0  0  0
  2  5  1  0  0  0  0
  2 16  1  0  0  0  0
  3  6  2  0  0  0  0
  3 17  1  0  0  0  0
  4  7  1  0  0  0  0
  5  8  2  0  0  0  0
  5 18  1  0  0  0  0
  6  8  1  0  0  0  0
  6 19  1  0  0  0  0
  7  9  1  0  0  0  0
  7 20  1  0  0  0  0
  7 21  1  0  0  0  0
  8 22  1  0  0  0  0
  9 10  1  0  0  0  0
  9 23  1  0  0  0  0
  9 24  1  0  0  0  0
 10 11  1  0  0  0  0
 10 25  1  0  0  0  0
 10 26  1  0  0  0  0
 11 12  1  0  0  0  0
 11 13  1  0  0  0  0
 12 14  1  0  0  0  0
 12 27  1  0  0  0  0
 12 28  1  0  0  0  0
 13 29  1  0  0  0  0
 13 30  1  0  0  0  0
 13 31  1  0  0  0  0
 14 15  3  0  0  0  0
 15 32  1  0  0  0  0
M  END
>  <Mol_ID>
3316

>  <Formula>
C13H16Cl3NO

>  <MolWeight>
308.63124

>  <Cat>
S4317

>  <Name>
Clorgyline HCl

>  <Synonyms>
N/A

>  <Target>
MAO

>  <Form>
hydrochloride

>  <CAS>
17780-75-5

>  <URL>
http://www.selleckchem.com/products/clorgyline-hcl.html

$$$$
