Clorprenaline HCl.cdx
 OpenBabel08302522043D

 30 30  0  0  0  0  0  0  0  0999 V2000
    1.4636   -0.2833   -0.0170 C   0  0  0  0  0  0  0  0  0  0  0  0
    0.5773   -0.8381    0.9032 C   0  0  0  0  0  0  0  0  0  0  0  0
   -0.7924   -0.5843    0.7998 C   0  0  0  0  0  0  0  0  0  0  0  0
   -1.3011    0.2391   -0.2185 C   0  0  0  0  0  0  0  0  0  0  0  0
   -0.3938    0.7711   -1.1496 C   0  0  0  0  0  0  0  0  0  0  0  0
    0.9769    0.5179   -1.0457 C   0  0  0  0  0  0  0  0  0  0  0  0
   -2.7964    0.5043   -0.3056 C   0  0  3  0  0  0  0  0  0  0  0  0
   -3.3566    1.2079    0.9648 C   0  0  0  0  0  0  0  0  0  0  0  0
   -3.1032    1.3115   -1.4558 O   0  0  0  0  0  0  0  0  0  0  0  0
   -4.7870    1.5078    0.8134 N   0  0  0  0  0  0  0  0  0  0  0  0
   -5.4003    2.1869    1.9556 C   0  0  0  0  0  0  0  0  0  0  0  0
   -4.7911    3.5579    2.2538 C   0  0  0  0  0  0  0  0  0  0  0  0
   -6.8938    2.3461    1.6552 C   0  0  0  0  0  0  0  0  0  0  0  0
    2.5286   -0.4825    0.0605 H   0  0  0  0  0  0  0  0  0  0  0  0
    0.9539   -1.4779    1.6984 H   0  0  0  0  0  0  0  0  0  0  0  0
   -1.4623   -1.0463    1.5224 H   0  0  0  0  0  0  0  0  0  0  0  0
   -0.7430    1.3821   -1.9789 H   0  0  0  0  0  0  0  0  0  0  0  0
    1.6618    0.9408   -1.7768 H   0  0  0  0  0  0  0  0  0  0  0  0
   -3.3057   -0.4557   -0.4557 H   0  0  0  0  0  0  0  0  0  0  0  0
   -3.2034    0.5782    1.8479 H   0  0  0  0  0  0  0  0  0  0  0  0
   -2.7965    2.1387    1.1098 H   0  0  0  0  0  0  0  0  0  0  0  0
   -2.8858    2.2271   -1.2154 H   0  0  0  0  0  0  0  0  0  0  0  0
   -4.9425    2.0201   -0.0558 H   0  0  0  0  0  0  0  0  0  0  0  0
   -5.3039    1.5529    2.8456 H   0  0  0  0  0  0  0  0  0  0  0  0
   -4.7957    4.2006    1.3666 H   0  0  0  0  0  0  0  0  0  0  0  0
   -5.3575    4.0689    3.0404 H   0  0  0  0  0  0  0  0  0  0  0  0
   -3.7598    3.4705    2.6093 H   0  0  0  0  0  0  0  0  0  0  0  0
   -7.3673    1.3737    1.4791 H   0  0  0  0  0  0  0  0  0  0  0  0
   -7.4117    2.8177    2.4976 H   0  0  0  0  0  0  0  0  0  0  0  0
   -7.0614    2.9696    0.7690 H   0  0  0  0  0  0  0  0  0  0  0  0
  1  2  2  0  0  0  0
  1 14  1  0  0  0  0
  2  3  1  0  0  0  0
  2 15  1  0  0  0  0
  3  4  2  0  0  0  0
  3 16  1  0  0  0  0
  4  5  1  0  0  0  0
  4  7  1  0  0  0  0
  5  6  2  0  0  0  0
  5 17  1  0  0  0  0
  6  1  1  0  0  0  0
  6 18  1  0  0  0  0
  7  8  1  0  0  0  0
  7  9  1  0  0  0  0
  7 19  1  0  0  0  0
  8 10  1  0  0  0  0
  8 20  1  0  0  0  0
  8 21  1  0  0  0  0
  9 22  1  0  0  0  0
 10 11  1  0  0  0  0
 10 23  1  0  0  0  0
 11 12  1  0  0  0  0
 11 13  1  0  0  0  0
 11 24  1  0  0  0  0
 12 25  1  0  0  0  0
 12 26  1  0  0  0  0
 12 27  1  0  0  0  0
 13 28  1  0  0  0  0
 13 29  1  0  0  0  0
 13 30  1  0  0  0  0
M  END
>  <Mol_ID>
1278

>  <Formula>
C11H17Cl2NO

>  <MolWeight>
250.16478

>  <Cat>
S4135

>  <Name>
Clorprenaline HCl

>  <Synonyms>
NSC 334693

>  <Target>
Adrenergic Receptor

>  <Form>
Hydrochloride

>  <CAS>
6933-90-0

>  <URL>
http://selleckchem.com/products/clorprenaline-hcl.html

$$$$
