Clozapine.cdx
 OpenBabel08302521383D

 42 45  0  0  0  0  0  0  0  0999 V2000
    0.0227   -0.7400   -1.2868 N   0  0  0  0  0  0  0  0  0  0  0  0
    1.2334   -0.4885   -0.6154 C   0  0  0  0  0  0  0  0  0  0  0  0
    1.5268    0.7705   -0.0820 C   0  0  0  0  0  0  0  0  0  0  0  0
    0.6927    1.9734   -0.4014 C   0  0  0  0  0  0  0  0  0  0  0  0
   -0.6107    2.0179   -0.3726 N   0  0  0  0  0  0  0  0  0  0  0  0
   -1.4221    0.8885   -0.1098 C   0  0  0  0  0  0  0  0  0  0  0  0
   -1.1885   -0.4071   -0.6278 C   0  0  0  0  0  0  0  0  0  0  0  0
   -2.5921    1.0980    0.6342 C   0  0  0  0  0  0  0  0  0  0  0  0
   -3.4809    0.0528    0.9093 C   0  0  0  0  0  0  0  0  0  0  0  0
   -3.2259   -1.2250    0.4236 C   0  0  0  0  0  0  0  0  0  0  0  0
   -2.0907   -1.4512   -0.3495 C   0  0  0  0  0  0  0  0  0  0  0  0
    2.1054   -1.5510   -0.3394 C   0  0  0  0  0  0  0  0  0  0  0  0
    3.2495   -1.3581    0.4398 C   0  0  0  0  0  0  0  0  0  0  0  0
    3.5399   -0.0993    0.9541 C   0  0  0  0  0  0  0  0  0  0  0  0
    2.6849    0.9656    0.6902 C   0  0  0  0  0  0  0  0  0  0  0  0
    1.4328    3.1069   -0.7264 N   0  0  0  0  0  0  0  0  0  0  0  0
    2.2714    3.1130   -1.9345 C   0  0  0  0  0  0  0  0  0  0  0  0
    3.5625    3.9057   -1.6554 C   0  0  0  0  0  0  0  0  0  0  0  0
    3.2789    5.2887   -1.2091 N   0  0  0  0  0  0  0  0  0  0  0  0
    2.3762    5.2572   -0.0305 C   0  0  0  0  0  0  0  0  0  0  0  0
    1.0687    4.4522   -0.2835 C   0  0  0  0  0  0  0  0  0  0  0  0
    4.5226    5.9914   -0.9070 C   0  0  0  0  0  0  0  0  0  0  0  0
   -0.0110   -1.6482   -1.7306 H   0  0  0  0  0  0  0  0  0  0  0  0
   -2.8072    2.0955    1.0068 H   0  0  0  0  0  0  0  0  0  0  0  0
   -4.3694    0.2376    1.5058 H   0  0  0  0  0  0  0  0  0  0  0  0
   -3.8984   -2.0469    0.6531 H   0  0  0  0  0  0  0  0  0  0  0  0
   -1.8839   -2.4596   -0.6976 H   0  0  0  0  0  0  0  0  0  0  0  0
    1.8794   -2.5500   -0.7007 H   0  0  0  0  0  0  0  0  0  0  0  0
    3.9010   -2.1986    0.6612 H   0  0  0  0  0  0  0  0  0  0  0  0
    4.4254    0.0536    1.5656 H   0  0  0  0  0  0  0  0  0  0  0  0
    2.9074    1.9497    1.0956 H   0  0  0  0  0  0  0  0  0  0  0  0
    1.7173    3.5700   -2.7649 H   0  0  0  0  0  0  0  0  0  0  0  0
    2.5356    2.0970   -2.2487 H   0  0  0  0  0  0  0  0  0  0  0  0
    4.1636    3.9273   -2.5720 H   0  0  0  0  0  0  0  0  0  0  0  0
    4.1471    3.3737   -0.8920 H   0  0  0  0  0  0  0  0  0  0  0  0
    2.9016    4.8031    0.8227 H   0  0  0  0  0  0  0  0  0  0  0  0
    2.1088    6.2801    0.2562 H   0  0  0  0  0  0  0  0  0  0  0  0
    0.4523    4.9529   -1.0394 H   0  0  0  0  0  0  0  0  0  0  0  0
    0.4961    4.4108    0.6503 H   0  0  0  0  0  0  0  0  0  0  0  0
    4.3180    7.0266   -0.6143 H   0  0  0  0  0  0  0  0  0  0  0  0
    5.0918    5.5095   -0.1038 H   0  0  0  0  0  0  0  0  0  0  0  0
    5.1597    6.0365   -1.7978 H   0  0  0  0  0  0  0  0  0  0  0  0
  1  2  1  0  0  0  0
  1 23  1  0  0  0  0
  2  3  2  0  0  0  0
  2 12  1  0  0  0  0
  3  4  1  0  0  0  0
  4  5  2  0  0  0  0
  4 16  1  0  0  0  0
  5  6  1  0  0  0  0
  6  7  2  0  0  0  0
  6  8  1  0  0  0  0
  7  1  1  0  0  0  0
  8  9  2  0  0  0  0
  8 24  1  0  0  0  0
  9 10  1  0  0  0  0
  9 25  1  0  0  0  0
 10 11  2  0  0  0  0
 10 26  1  0  0  0  0
 11  7  1  0  0  0  0
 11 27  1  0  0  0  0
 12 13  2  0  0  0  0
 12 28  1  0  0  0  0
 13 14  1  0  0  0  0
 13 29  1  0  0  0  0
 14 15  2  0  0  0  0
 14 30  1  0  0  0  0
 15  3  1  0  0  0  0
 15 31  1  0  0  0  0
 16 17  1  0  0  0  0
 17 18  1  0  0  0  0
 17 32  1  0  0  0  0
 17 33  1  0  0  0  0
 18 19  1  0  0  0  0
 18 34  1  0  0  0  0
 18 35  1  0  0  0  0
 19 20  1  0  0  0  0
 19 22  1  0  0  0  0
 20 21  1  0  0  0  0
 20 36  1  0  0  0  0
 20 37  1  0  0  0  0
 21 16  1  0  0  0  0
 21 38  1  0  0  0  0
 21 39  1  0  0  0  0
 22 40  1  0  0  0  0
 22 41  1  0  0  0  0
 22 42  1  0  0  0  0
M  END
>  <Mol_ID>
740

>  <Formula>
C18H19ClN4

>  <MolWeight>
326.82326

>  <Cat>
S2459

>  <Name>
Clozapine

>  <Synonyms>
HF 1854, LX 100-129

>  <Target>
5-HT Receptor

>  <Form>
free base

>  <CAS>
5786-21-0

>  <URL>
http://selleckchem.com/products/Clozapine(Clozaril).html

$$$$
