CLP-3094
 OpenBabel08302521323D

 33 35  0  0  0  0  0  0  0  0999 V2000
   -4.4321    0.9409    0.3927 C   0  0  0  0  0  0  0  0  0  0  0  0
   -5.1838    0.9491   -0.6789 N   0  0  0  0  0  0  0  0  0  0  0  0
   -5.3058    2.2783   -1.0113 C   0  0  0  0  0  0  0  0  0  0  0  0
   -4.6411    3.0887   -0.0936 C   0  0  0  0  0  0  0  0  0  0  0  0
   -4.1192    2.2025    0.8148 N   0  0  0  0  0  0  0  0  0  0  0  0
   -5.9508    2.8720   -2.1073 C   0  0  0  0  0  0  0  0  0  0  0  0
   -5.8864    4.2643   -2.2508 C   0  0  0  0  0  0  0  0  0  0  0  0
   -5.2109    5.0507   -1.3139 C   0  0  0  0  0  0  0  0  0  0  0  0
   -4.5796    4.4795   -0.2020 C   0  0  0  0  0  0  0  0  0  0  0  0
   -3.7738   -0.4223    1.2161 S   0  0  0  0  0  0  0  0  0  0  0  0
   -4.5722   -1.8312    0.3768 C   0  0  0  0  0  0  0  0  0  0  0  0
   -4.1788   -1.9948   -1.0911 C   0  0  0  0  0  0  0  0  0  0  0  0
   -4.6931   -3.2470   -1.5758 O   0  0  0  0  0  0  0  0  0  0  0  0
   -4.2569   -3.6327   -2.8196 C   0  0  0  0  0  0  0  0  0  0  0  0
   -3.5244   -2.8388   -3.7020 C   0  0  0  0  0  0  0  0  0  0  0  0
   -3.0827   -3.3606   -4.9210 C   0  0  0  0  0  0  0  0  0  0  0  0
   -3.3857   -4.6717   -5.2755 C   0  0  0  0  0  0  0  0  0  0  0  0
   -4.1549   -5.4579   -4.4157 C   0  0  0  0  0  0  0  0  0  0  0  0
   -4.5919   -4.9372   -3.1948 C   0  0  0  0  0  0  0  0  0  0  0  0
   -3.5548    2.4231    1.6197 H   0  0  0  0  0  0  0  0  0  0  0  0
   -6.4693    2.2564   -2.8318 H   0  0  0  0  0  0  0  0  0  0  0  0
   -6.3626    4.7346   -3.1078 H   0  0  0  0  0  0  0  0  0  0  0  0
   -5.1704    6.1292   -1.4548 H   0  0  0  0  0  0  0  0  0  0  0  0
   -4.0548    5.0926    0.5225 H   0  0  0  0  0  0  0  0  0  0  0  0
   -4.2709   -2.7335    0.9224 H   0  0  0  0  0  0  0  0  0  0  0  0
   -5.6604   -1.7658    0.4844 H   0  0  0  0  0  0  0  0  0  0  0  0
   -4.6055   -1.1918   -1.6977 H   0  0  0  0  0  0  0  0  0  0  0  0
   -3.0849   -1.9925   -1.1723 H   0  0  0  0  0  0  0  0  0  0  0  0
   -3.2766   -1.8073   -3.4732 H   0  0  0  0  0  0  0  0  0  0  0  0
   -2.4965   -2.7376   -5.5929 H   0  0  0  0  0  0  0  0  0  0  0  0
   -3.0325   -5.0786   -6.2170 H   0  0  0  0  0  0  0  0  0  0  0  0
   -4.4077   -6.4780   -4.6943 H   0  0  0  0  0  0  0  0  0  0  0  0
   -5.1859   -5.5572   -2.5291 H   0  0  0  0  0  0  0  0  0  0  0  0
  1  2  2  0  0  0  0
  1  5  1  0  0  0  0
  1 10  1  0  0  0  0
  2  3  1  0  0  0  0
  3  4  2  0  0  0  0
  4  5  1  0  0  0  0
  5 20  1  0  0  0  0
  6  7  2  0  0  0  0
  6  3  1  0  0  0  0
  6 21  1  0  0  0  0
  7  8  1  0  0  0  0
  7 22  1  0  0  0  0
  8  9  2  0  0  0  0
  8 23  1  0  0  0  0
  9  4  1  0  0  0  0
  9 24  1  0  0  0  0
 10 11  1  0  0  0  0
 11 12  1  0  0  0  0
 11 25  1  0  0  0  0
 11 26  1  0  0  0  0
 12 13  1  0  0  0  0
 12 27  1  0  0  0  0
 12 28  1  0  0  0  0
 13 14  1  0  0  0  0
 14 15  2  0  0  0  0
 14 19  1  0  0  0  0
 15 16  1  0  0  0  0
 15 29  1  0  0  0  0
 16 17  2  0  0  0  0
 16 30  1  0  0  0  0
 17 18  1  0  0  0  0
 17 31  1  0  0  0  0
 18 19  2  0  0  0  0
 18 32  1  0  0  0  0
 19 33  1  0  0  0  0
M  END
>  <Mol_ID>
6259

>  <Formula>
C15H13ClN2OS

>  <MolWeight>
304.79452

>  <Cat>
E0377

>  <Name>
CLP-3094

>  <Synonyms>
N/A

>  <Target>
Androgen Receptor,GPR

>  <Form>
free base

>  <CAS>
312749-73-8

>  <URL>
http://www.selleckchem.com/products/clp-3094.html

$$$$
