CNX-774.cdx
 OpenBabel08302519583D

 59 62  0  0  0  0  0  0  0  0999 V2000
   -0.9884   -7.9629   -2.7271 C   0  0  0  0  0  0  0  0  0  0  0  0
   -1.8637   -6.9499   -3.1364 C   0  0  0  0  0  0  0  0  0  0  0  0
   -2.9009   -7.2894   -4.0111 C   0  0  0  0  0  0  0  0  0  0  0  0
   -3.1189   -8.6192   -4.4144 C   0  0  0  0  0  0  0  0  0  0  0  0
   -2.2535   -9.6163   -3.9520 C   0  0  0  0  0  0  0  0  0  0  0  0
   -1.1803   -9.2849   -3.1233 C   0  0  0  0  0  0  0  0  0  0  0  0
   -1.6667   -5.6037   -2.7427 N   0  0  0  0  0  0  0  0  0  0  0  0
   -1.1274   -5.2071   -1.5001 C   0  0  0  0  0  0  0  0  0  0  0  0
   -0.4705   -4.0084   -1.3532 C   0  0  0  0  0  0  0  0  0  0  0  0
    0.1026   -3.7788   -0.1236 C   0  0  0  0  0  0  0  0  0  0  0  0
    0.0187   -4.6331    0.9240 N   0  0  0  0  0  0  0  0  0  0  0  0
   -0.6827   -5.7545    0.7162 C   0  0  0  0  0  0  0  0  0  0  0  0
   -1.2402   -6.0496   -0.4624 N   0  0  0  0  0  0  0  0  0  0  0  0
   -0.3313   -3.1360   -2.3590 F   0  0  0  0  0  0  0  0  0  0  0  0
   -0.7806   -6.6754    1.7574 N   0  0  0  0  0  0  0  0  0  0  0  0
   -1.4386   -7.9149    1.7735 C   0  0  0  0  0  0  0  0  0  0  0  0
   -0.9132   -8.9681    2.5270 C   0  0  0  0  0  0  0  0  0  0  0  0
   -1.4690  -10.2515    2.4510 C   0  0  0  0  0  0  0  0  0  0  0  0
   -2.6042  -10.4922    1.6711 C   0  0  0  0  0  0  0  0  0  0  0  0
   -3.1337   -9.4564    0.9098 C   0  0  0  0  0  0  0  0  0  0  0  0
   -2.5541   -8.1866    0.9648 C   0  0  0  0  0  0  0  0  0  0  0  0
   -3.2239  -11.7140    1.5392 O   0  0  0  0  0  0  0  0  0  0  0  0
   -4.2025   -8.9993   -5.2529 N   0  0  0  0  0  0  0  0  0  0  0  0
   -4.9651   -8.1299   -5.9993 C   0  0  0  0  0  0  0  0  0  0  0  0
   -6.0895   -8.7703   -6.7337 C   0  0  0  0  0  0  0  0  0  0  0  0
   -4.7761   -6.9192   -6.1188 O   0  0  0  0  0  0  0  0  0  0  0  0
   -6.8591   -8.0059   -7.5235 C   0  0  0  0  0  0  0  0  0  0  0  0
   -3.2506  -12.5900    2.6000 C   0  0  0  0  0  0  0  0  0  0  0  0
   -3.2565  -12.1998    3.9372 C   0  0  0  0  0  0  0  0  0  0  0  0
   -3.2214  -13.1798    4.9104 C   0  0  0  0  0  0  0  0  0  0  0  0
   -3.2481  -14.5032    4.6471 N   0  0  0  0  0  0  0  0  0  0  0  0
   -3.3210  -14.8533    3.3316 C   0  0  0  0  0  0  0  0  0  0  0  0
   -3.3244  -13.9415    2.2844 C   0  0  0  0  0  0  0  0  0  0  0  0
   -3.3996  -16.3225    3.0324 C   0  0  0  0  0  0  0  0  0  0  0  0
   -3.3787  -17.1393    4.1461 N   0  0  0  0  0  0  0  0  0  0  0  0
   -3.4751  -16.7295    1.8791 O   0  0  0  0  0  0  0  0  0  0  0  0
   -3.4497  -18.5777    4.0604 C   0  0  0  0  0  0  0  0  0  0  0  0
   -0.1476   -7.7297   -2.0798 H   0  0  0  0  0  0  0  0  0  0  0  0
   -3.5629   -6.4988   -4.3409 H   0  0  0  0  0  0  0  0  0  0  0  0
   -2.3732  -10.6542   -4.2483 H   0  0  0  0  0  0  0  0  0  0  0  0
   -0.4877  -10.0471   -2.7768 H   0  0  0  0  0  0  0  0  0  0  0  0
   -2.4154   -4.9803   -3.0281 H   0  0  0  0  0  0  0  0  0  0  0  0
    0.6804   -2.8777    0.0528 H   0  0  0  0  0  0  0  0  0  0  0  0
   -0.1454   -6.4528    2.5070 H   0  0  0  0  0  0  0  0  0  0  0  0
   -0.0396   -8.8140    3.1550 H   0  0  0  0  0  0  0  0  0  0  0  0
   -0.9962  -11.0534    3.0107 H   0  0  0  0  0  0  0  0  0  0  0  0
   -3.9880   -9.6244    0.2601 H   0  0  0  0  0  0  0  0  0  0  0  0
   -2.9974   -7.4072    0.3508 H   0  0  0  0  0  0  0  0  0  0  0  0
   -4.3825   -9.9913   -5.3295 H   0  0  0  0  0  0  0  0  0  0  0  0
   -6.2816   -9.8265   -6.6144 H   0  0  0  0  0  0  0  0  0  0  0  0
   -7.6956   -8.4120   -8.0777 H   0  0  0  0  0  0  0  0  0  0  0  0
   -6.6684   -6.9379   -7.6367 H   0  0  0  0  0  0  0  0  0  0  0  0
   -3.2614  -11.1545    4.2272 H   0  0  0  0  0  0  0  0  0  0  0  0
   -3.1611  -12.9079    5.9618 H   0  0  0  0  0  0  0  0  0  0  0  0
   -3.3785  -14.2788    1.2545 H   0  0  0  0  0  0  0  0  0  0  0  0
   -3.3160  -16.6746    5.0405 H   0  0  0  0  0  0  0  0  0  0  0  0
   -2.5482  -18.9924    4.5154 H   0  0  0  0  0  0  0  0  0  0  0  0
   -4.3235  -18.9133    4.6235 H   0  0  0  0  0  0  0  0  0  0  0  0
   -3.5280  -18.9177    3.0250 H   0  0  0  0  0  0  0  0  0  0  0  0
  1  2  2  0  0  0  0
  1 38  1  0  0  0  0
  2  3  1  0  0  0  0
  2  7  1  0  0  0  0
  3  4  2  0  0  0  0
  3 39  1  0  0  0  0
  4  5  1  0  0  0  0
  4 23  1  0  0  0  0
  5  6  2  0  0  0  0
  5 40  1  0  0  0  0
  6  1  1  0  0  0  0
  6 41  1  0  0  0  0
  7  8  1  0  0  0  0
  7 42  1  0  0  0  0
  8  9  2  0  0  0  0
  9 10  1  0  0  0  0
  9 14  1  0  0  0  0
 10 11  2  0  0  0  0
 10 43  1  0  0  0  0
 11 12  1  0  0  0  0
 12 13  2  0  0  0  0
 12 15  1  0  0  0  0
 13  8  1  0  0  0  0
 15 16  1  0  0  0  0
 15 44  1  0  0  0  0
 16 17  2  0  0  0  0
 17 18  1  0  0  0  0
 17 45  1  0  0  0  0
 18 19  2  0  0  0  0
 18 46  1  0  0  0  0
 19 20  1  0  0  0  0
 19 22  1  0  0  0  0
 20 21  2  0  0  0  0
 20 47  1  0  0  0  0
 21 16  1  0  0  0  0
 21 48  1  0  0  0  0
 22 28  1  0  0  0  0
 23 24  1  0  0  0  0
 23 49  1  0  0  0  0
 24 25  1  0  0  0  0
 24 26  2  0  0  0  0
 25 27  2  0  0  0  0
 25 50  1  0  0  0  0
 27 51  1  0  0  0  0
 27 52  1  0  0  0  0
 28 29  2  0  0  0  0
 29 30  1  0  0  0  0
 29 53  1  0  0  0  0
 30 31  2  0  0  0  0
 30 54  1  0  0  0  0
 31 32  1  0  0  0  0
 32 33  2  0  0  0  0
 32 34  1  0  0  0  0
 33 28  1  0  0  0  0
 33 55  1  0  0  0  0
 34 35  1  0  0  0  0
 34 36  2  0  0  0  0
 35 37  1  0  0  0  0
 35 56  1  0  0  0  0
 37 57  1  0  0  0  0
 37 58  1  0  0  0  0
 37 59  1  0  0  0  0
M  END
>  <Mol_ID>
2347

>  <Formula>
C26H22FN7O3

>  <MolWeight>
499.4963832

>  <Cat>
S7257

>  <Name>
CNX-774

>  <Synonyms>
N/A

>  <Target>
BTK

>  <Form>
free base

>  <CAS>
1202759-32-7

>  <URL>
http://selleckchem.com/products/cnx-774.html

$$$$
