COH000
 OpenBabel08302521353D

 56 59  0  0  0  0  0  0  0  0999 V2000
   -1.6792    0.5169   -0.5153 C   0  0  0  0  0  0  0  0  0  0  0  0
   -1.5407   -0.8201   -0.6823 C   0  0  0  0  0  0  0  0  0  0  0  0
   -0.1923   -1.1948   -0.0567 C   0  0  2  0  0  0  0  0  0  0  0  0
    0.9023   -0.5807   -0.9102 C   0  0  0  0  0  0  0  0  0  0  0  0
    0.7750    0.7584   -0.7900 C   0  0  0  0  0  0  0  0  0  0  0  0
   -0.4076    0.9833    0.1327 C   0  0  2  0  0  0  0  0  0  0  0  0
   -2.7441    1.4652   -0.8632 C   0  0  0  0  0  0  0  0  0  0  0  0
   -2.3419   -1.7700   -1.4572 C   0  0  0  0  0  0  0  0  0  0  0  0
   -2.2134    2.7077   -1.0060 O   0  0  0  0  0  0  0  0  0  0  0  0
   -3.5474   -1.2453   -1.7530 O   0  0  0  0  0  0  0  0  0  0  0  0
   -4.4086   -2.0107   -2.5970 C   0  0  0  0  0  0  0  0  0  0  0  0
   -3.1603    3.7650   -1.2116 C   0  0  0  0  0  0  0  0  0  0  0  0
   -3.9296    1.1957   -0.9320 O   0  0  0  0  0  0  0  0  0  0  0  0
   -1.9091   -2.8452   -1.8483 O   0  0  0  0  0  0  0  0  0  0  0  0
    0.0596   -2.5805    0.6410 C   0  0  3  0  0  0  0  0  0  0  0  0
    1.4455   -2.6360    1.3751 C   0  0  0  0  0  0  0  0  0  0  0  0
   -1.0010   -2.8025    1.6521 N   0  0  0  0  0  0  0  0  0  0  0  0
    1.8729   -4.0133    1.8699 C   0  0  0  0  0  0  0  0  0  0  0  0
   -1.9599   -3.7967    1.5203 C   0  0  0  0  0  0  0  0  0  0  0  0
   -1.7353   -4.9941    0.8311 C   0  0  0  0  0  0  0  0  0  0  0  0
   -2.7156   -5.9877    0.7595 C   0  0  0  0  0  0  0  0  0  0  0  0
   -3.9335   -5.8113    1.4047 C   0  0  0  0  0  0  0  0  0  0  0  0
   -4.1619   -4.6480    2.1335 C   0  0  0  0  0  0  0  0  0  0  0  0
   -3.1770   -3.6588    2.2003 C   0  0  0  0  0  0  0  0  0  0  0  0
    2.9389   -4.6957    1.2670 C   0  0  0  0  0  0  0  0  0  0  0  0
    3.2625   -6.0050    1.6479 C   0  0  0  0  0  0  0  0  0  0  0  0
    2.5237   -6.6632    2.6360 C   0  0  0  0  0  0  0  0  0  0  0  0
    1.5341   -5.9492    3.3159 C   0  0  0  0  0  0  0  0  0  0  0  0
    1.2175   -4.6382    2.9398 C   0  0  0  0  0  0  0  0  0  0  0  0
    2.7947   -8.1020    2.9708 C   0  0  0  0  0  0  0  0  0  0  0  0
   -0.1914   -0.1557    1.0112 O   0  0  0  0  0  0  0  0  0  0  0  0
    1.6081   -1.1154   -1.5290 H   0  0  0  0  0  0  0  0  0  0  0  0
    1.3418    1.5252   -1.2894 H   0  0  0  0  0  0  0  0  0  0  0  0
   -0.4161    1.9050    0.7146 H   0  0  0  0  0  0  0  0  0  0  0  0
   -3.9583   -2.1479   -3.5843 H   0  0  0  0  0  0  0  0  0  0  0  0
   -4.6491   -2.9697   -2.1335 H   0  0  0  0  0  0  0  0  0  0  0  0
   -5.3388   -1.4449   -2.7247 H   0  0  0  0  0  0  0  0  0  0  0  0
   -4.1304    3.4215   -1.5845 H   0  0  0  0  0  0  0  0  0  0  0  0
   -3.2991    4.2982   -0.2665 H   0  0  0  0  0  0  0  0  0  0  0  0
   -2.7419    4.4596   -1.9452 H   0  0  0  0  0  0  0  0  0  0  0  0
    0.0633   -3.3450   -0.1420 H   0  0  0  0  0  0  0  0  0  0  0  0
    1.4583   -1.9467    2.2294 H   0  0  0  0  0  0  0  0  0  0  0  0
    2.2246   -2.2801    0.6900 H   0  0  0  0  0  0  0  0  0  0  0  0
   -1.3164   -1.9396    2.0914 H   0  0  0  0  0  0  0  0  0  0  0  0
   -0.7816   -5.1944    0.3526 H   0  0  0  0  0  0  0  0  0  0  0  0
   -2.5128   -6.9007    0.2067 H   0  0  0  0  0  0  0  0  0  0  0  0
   -4.6944   -6.5838    1.3512 H   0  0  0  0  0  0  0  0  0  0  0  0
   -5.1025   -4.5115    2.6592 H   0  0  0  0  0  0  0  0  0  0  0  0
   -3.3731   -2.7675    2.7896 H   0  0  0  0  0  0  0  0  0  0  0  0
    3.5243   -4.2233    0.4824 H   0  0  0  0  0  0  0  0  0  0  0  0
    4.0804   -6.5180    1.1472 H   0  0  0  0  0  0  0  0  0  0  0  0
    0.9757   -6.4163    4.1247 H   0  0  0  0  0  0  0  0  0  0  0  0
    0.4200   -4.1224    3.4709 H   0  0  0  0  0  0  0  0  0  0  0  0
    3.4929   -8.1830    3.8076 H   0  0  0  0  0  0  0  0  0  0  0  0
    1.8628   -8.6167    3.2303 H   0  0  0  0  0  0  0  0  0  0  0  0
    3.2140   -8.6282    2.1060 H   0  0  0  0  0  0  0  0  0  0  0  0
  1  2  2  0  0  0  0
  1  7  1  0  0  0  0
  2  3  1  0  0  0  0
  2  8  1  0  0  0  0
  3  4  1  0  0  0  0
  3 31  1  0  0  0  0
  3 15  1  1  0  0  0
  4  5  2  0  0  0  0
  4 32  1  0  0  0  0
  5 33  1  0  0  0  0
  6  5  1  0  0  0  0
  6  1  1  0  0  0  0
  6 31  1  0  0  0  0
  6 34  1  1  0  0  0
  7  9  1  0  0  0  0
  7 13  2  0  0  0  0
  8 10  1  0  0  0  0
  8 14  2  0  0  0  0
  9 12  1  0  0  0  0
 10 11  1  0  0  0  0
 11 35  1  0  0  0  0
 11 36  1  0  0  0  0
 11 37  1  0  0  0  0
 12 38  1  0  0  0  0
 12 39  1  0  0  0  0
 12 40  1  0  0  0  0
 15 16  1  0  0  0  0
 15 17  1  0  0  0  0
 15 41  1  0  0  0  0
 16 18  1  0  0  0  0
 16 42  1  0  0  0  0
 16 43  1  0  0  0  0
 17 19  1  0  0  0  0
 17 44  1  0  0  0  0
 18 25  2  0  0  0  0
 19 20  2  0  0  0  0
 20 21  1  0  0  0  0
 20 45  1  0  0  0  0
 21 22  2  0  0  0  0
 21 46  1  0  0  0  0
 22 23  1  0  0  0  0
 22 47  1  0  0  0  0
 23 24  2  0  0  0  0
 23 48  1  0  0  0  0
 24 19  1  0  0  0  0
 24 49  1  0  0  0  0
 25 26  1  0  0  0  0
 25 50  1  0  0  0  0
 26 27  2  0  0  0  0
 26 51  1  0  0  0  0
 27 28  1  0  0  0  0
 27 30  1  0  0  0  0
 28 29  2  0  0  0  0
 28 52  1  0  0  0  0
 29 18  1  0  0  0  0
 29 53  1  0  0  0  0
 30 54  1  0  0  0  0
 30 55  1  0  0  0  0
 30 56  1  0  0  0  0
M  END
>  <Mol_ID>
6623

>  <Formula>
C25H25NO5

>  <MolWeight>
419.4697

>  <Cat>
S0309

>  <Name>
COH000

>  <Synonyms>
N/A

>  <Target>
E1 Activating

>  <Form>
Free base

>  <CAS>
1534358-79-6

>  <URL>
http://www.selleckchem.com/products/coh000.html

$$$$
