Colchicine.cdx
 OpenBabel08302519503D

 54 56  0  0  0  0  0  0  0  0999 V2000
   -2.3250   -0.2228   -0.4336 C   0  0  0  0  0  0  0  0  0  0  0  0
   -2.2470   -1.6123   -0.4680 C   0  0  0  0  0  0  0  0  0  0  0  0
   -1.0437   -2.3194   -0.2093 C   0  0  0  0  0  0  0  0  0  0  0  0
    0.1875   -1.7156   -0.0502 C   0  0  0  0  0  0  0  0  0  0  0  0
    0.2554   -0.3295   -0.1620 C   0  0  0  0  0  0  0  0  0  0  0  0
   -0.9850    0.4192   -0.3776 C   0  0  0  0  0  0  0  0  0  0  0  0
   -3.7575    0.4389   -0.2378 C   0  0  0  0  0  0  0  0  0  0  0  0
   -5.2254   -0.2176   -0.2744 C   0  0  0  0  0  0  0  0  0  0  0  0
   -5.5753   -1.7312   -0.3264 C   0  0  2  0  0  0  0  0  0  0  0  0
   -4.7790   -2.6580   -1.1940 C   0  0  0  0  0  0  0  0  0  0  0  0
   -3.3128   -2.6062   -0.8811 C   0  0  0  0  0  0  0  0  0  0  0  0
   -3.6395    1.7180    0.2230 C   0  0  0  0  0  0  0  0  0  0  0  0
   -4.3867    2.1879    1.3851 C   0  0  0  0  0  0  0  0  0  0  0  0
   -5.6860    2.5193    1.2714 C   0  0  0  0  0  0  0  0  0  0  0  0
   -6.3941    1.2418    1.2545 C   0  0  0  0  0  0  0  0  0  0  0  0
   -6.3503    0.5228   -0.0480 C   0  0  0  0  0  0  0  0  0  0  0  0
   -6.1063    3.4908    0.3614 O   0  0  0  0  0  0  0  0  0  0  0  0
   -7.3412    4.0282    0.8466 C   0  0  0  0  0  0  0  0  0  0  0  0
   -6.9401    0.7574    2.2406 O   0  0  0  0  0  0  0  0  0  0  0  0
   -7.0210   -2.1068   -0.4822 N   0  0  0  0  0  0  0  0  0  0  0  0
   -7.6633   -2.4050   -1.6710 C   0  0  0  0  0  0  0  0  0  0  0  0
   -8.9416   -3.2057   -1.5171 C   0  0  0  0  0  0  0  0  0  0  0  0
   -7.2334   -2.1186   -2.7839 O   0  0  0  0  0  0  0  0  0  0  0  0
   -0.9547    1.7785   -0.6730 O   0  0  0  0  0  0  0  0  0  0  0  0
    1.4432    0.3635   -0.1045 O   0  0  0  0  0  0  0  0  0  0  0  0
    1.2825   -2.4947    0.2259 O   0  0  0  0  0  0  0  0  0  0  0  0
    0.1829    2.5870   -0.3686 C   0  0  0  0  0  0  0  0  0  0  0  0
    2.6839   -0.3404   -0.0187 C   0  0  0  0  0  0  0  0  0  0  0  0
    1.2862   -3.8081   -0.3391 C   0  0  0  0  0  0  0  0  0  0  0  0
   -1.1366   -3.3864   -0.1541 H   0  0  0  0  0  0  0  0  0  0  0  0
   -5.4048   -2.0462    0.7142 H   0  0  0  0  0  0  0  0  0  0  0  0
   -5.0880   -3.6994   -1.0019 H   0  0  0  0  0  0  0  0  0  0  0  0
   -4.9678   -2.5191   -2.2643 H   0  0  0  0  0  0  0  0  0  0  0  0
   -3.4647   -2.7279    0.1898 H   0  0  0  0  0  0  0  0  0  0  0  0
   -3.1184   -2.1611   -1.8562 H   0  0  0  0  0  0  0  0  0  0  0  0
   -2.7593    2.3342    0.1384 H   0  0  0  0  0  0  0  0  0  0  0  0
   -4.1349    1.5093    2.2024 H   0  0  0  0  0  0  0  0  0  0  0  0
   -7.3454    0.1187   -0.2057 H   0  0  0  0  0  0  0  0  0  0  0  0
   -8.1807    3.5001    0.3823 H   0  0  0  0  0  0  0  0  0  0  0  0
   -7.4319    3.9813    1.9399 H   0  0  0  0  0  0  0  0  0  0  0  0
   -7.3882    5.0806    0.5519 H   0  0  0  0  0  0  0  0  0  0  0  0
   -7.4982   -2.3622    0.3730 H   0  0  0  0  0  0  0  0  0  0  0  0
   -9.7574   -2.7144   -2.0553 H   0  0  0  0  0  0  0  0  0  0  0  0
   -8.7907   -4.2058   -1.9428 H   0  0  0  0  0  0  0  0  0  0  0  0
   -9.2345   -3.3269   -0.4716 H   0  0  0  0  0  0  0  0  0  0  0  0
   -0.0943    3.6327   -0.5405 H   0  0  0  0  0  0  0  0  0  0  0  0
    0.4766    2.5058    0.6842 H   0  0  0  0  0  0  0  0  0  0  0  0
    1.0189    2.3897   -1.0481 H   0  0  0  0  0  0  0  0  0  0  0  0
    2.7948   -0.8257    0.9555 H   0  0  0  0  0  0  0  0  0  0  0  0
    2.8106   -1.0397   -0.8488 H   0  0  0  0  0  0  0  0  0  0  0  0
    3.4942    0.3895   -0.0995 H   0  0  0  0  0  0  0  0  0  0  0  0
    0.6051   -4.4795    0.1956 H   0  0  0  0  0  0  0  0  0  0  0  0
    1.0550   -3.7809   -1.4118 H   0  0  0  0  0  0  0  0  0  0  0  0
    2.2934   -4.2100   -0.2249 H   0  0  0  0  0  0  0  0  0  0  0  0
  1  2  1  0  0  0  0
  1  7  1  0  0  0  0
  2  3  2  0  0  0  0
  3  4  1  0  0  0  0
  3 30  1  0  0  0  0
  4  5  2  0  0  0  0
  4 26  1  0  0  0  0
  5  6  1  0  0  0  0
  5 25  1  0  0  0  0
  6  1  2  0  0  0  0
  6 24  1  0  0  0  0
  7  8  1  0  0  0  0
  7 12  2  0  0  0  0
  8  9  1  0  0  0  0
  9 10  1  0  0  0  0
  9 31  1  1  0  0  0
  9 20  1  0  0  0  0
 10 11  1  0  0  0  0
 10 32  1  0  0  0  0
 10 33  1  0  0  0  0
 11  2  1  0  0  0  0
 11 34  1  0  0  0  0
 11 35  1  0  0  0  0
 12 13  1  0  0  0  0
 12 36  1  0  0  0  0
 13 14  2  0  0  0  0
 13 37  1  0  0  0  0
 14 15  1  0  0  0  0
 14 17  1  0  0  0  0
 15 16  1  0  0  0  0
 15 19  2  0  0  0  0
 16  8  2  0  0  0  0
 16 38  1  0  0  0  0
 17 18  1  0  0  0  0
 18 39  1  0  0  0  0
 18 40  1  0  0  0  0
 18 41  1  0  0  0  0
 20 21  1  0  0  0  0
 20 42  1  0  0  0  0
 21 22  1  0  0  0  0
 21 23  2  0  0  0  0
 22 43  1  0  0  0  0
 22 44  1  0  0  0  0
 22 45  1  0  0  0  0
 24 27  1  0  0  0  0
 25 28  1  0  0  0  0
 26 29  1  0  0  0  0
 27 46  1  0  0  0  0
 27 47  1  0  0  0  0
 27 48  1  0  0  0  0
 28 49  1  0  0  0  0
 28 50  1  0  0  0  0
 28 51  1  0  0  0  0
 29 52  1  0  0  0  0
 29 53  1  0  0  0  0
 29 54  1  0  0  0  0
M  END
>  <Mol_ID>
1745

>  <Formula>
C22H25NO6

>  <MolWeight>
399.437

>  <Cat>
S2284

>  <Name>
Colchicine (NSC 757)

>  <Synonyms>
Colchineos, Colchisol, Colcin,NSC 757

>  <Target>
Microtubule Associated

>  <Form>
free base

>  <CAS>
64-86-8

>  <URL>
http://selleckchem.com/products/colchicine.html

$$$$
