COLUMBIANETIN ACETATE
 OpenBabel08302521463D

 37 39  0  0  1  0  0  0  0  0999 V2000
    3.1019    0.9212   -0.7711 C   0  0  0  0  0  0  0  0  0  0  0  0
    2.0658    1.2386   -1.7569 O   0  0  0  0  0  0  0  0  0  0  0  0
    3.4517    2.1920    0.0127 C   0  0  0  0  0  0  0  0  0  0  0  0
    4.3104    0.5282   -1.6298 C   0  0  0  0  0  0  0  0  0  0  0  0
    0.8006    1.5805   -1.3700 C   0  0  0  0  0  0  0  0  0  0  0  0
   -0.1074    1.7860   -2.5485 C   0  0  0  0  0  0  0  0  0  0  0  0
    0.4393    1.7228   -0.2162 O   0  0  0  0  0  0  0  0  0  0  0  0
    5.6789   -5.5579    3.0792 O   0  0  0  0  0  0  0  0  0  0  0  0
    2.9799   -2.2660    1.2182 C   0  0  0  0  0  0  0  0  0  0  0  0
    3.1352   -3.3554    2.0562 C   0  0  0  0  0  0  0  0  0  0  0  0
    1.8544   -2.2176    0.4093 C   0  0  0  0  0  0  0  0  0  0  0  0
    3.7244   -0.9829    1.0396 C   0  0  0  0  0  0  0  0  0  0  0  0
    2.0280   -4.1780    2.3047 C   0  0  0  0  0  0  0  0  0  0  0  0
    4.3967   -3.7071    2.5659 O   0  0  0  0  0  0  0  0  0  0  0  0
    1.8859   -1.2097   -0.5144 O   0  0  0  0  0  0  0  0  0  0  0  0
    0.7590   -3.0388    0.5870 C   0  0  0  0  0  0  0  0  0  0  0  0
    2.6556   -0.2118    0.1947 C   0  0  2  0  0  0  0  0  0  0  0  0
    0.8215   -3.9649    1.6246 C   0  0  0  0  0  0  0  0  0  0  0  0
    2.1558   -5.2742    3.2465 C   0  0  0  0  0  0  0  0  0  0  0  0
    4.5823   -5.0163    3.0242 C   0  0  0  0  0  0  0  0  0  0  0  0
    3.3826   -5.7056    3.5434 C   0  0  0  0  0  0  0  0  0  0  0  0
    4.3152    2.0417    0.6702 H   0  0  0  0  0  0  0  0  0  0  0  0
    3.6636    3.0229   -0.6681 H   0  0  0  0  0  0  0  0  0  0  0  0
    2.6149    2.5215    0.6413 H   0  0  0  0  0  0  0  0  0  0  0  0
    5.2021    0.3136   -1.0312 H   0  0  0  0  0  0  0  0  0  0  0  0
    4.0845   -0.3409   -2.2572 H   0  0  0  0  0  0  0  0  0  0  0  0
    4.5662    1.3437   -2.3173 H   0  0  0  0  0  0  0  0  0  0  0  0
   -0.9301    1.0826   -2.4889 H   0  0  0  0  0  0  0  0  0  0  0  0
   -0.4640    2.8122   -2.5389 H   0  0  0  0  0  0  0  0  0  0  0  0
    0.4323    1.6149   -3.4935 H   0  0  0  0  0  0  0  0  0  0  0  0
    4.6912   -1.1212    0.5568 H   0  0  0  0  0  0  0  0  0  0  0  0
    3.8544   -0.4713    2.0024 H   0  0  0  0  0  0  0  0  0  0  0  0
   -0.1281   -2.9046   -0.0075 H   0  0  0  0  0  0  0  0  0  0  0  0
    1.9413    0.2277    0.9088 H   0  0  0  0  0  0  0  0  0  0  0  0
   -0.0621   -4.5512    1.8619 H   0  0  0  0  0  0  0  0  0  0  0  0
    1.2646   -5.7536    3.6339 H   0  0  0  0  0  0  0  0  0  0  0  0
    3.5464   -6.5847    4.1549 H   0  0  0  0  0  0  0  0  0  0  0  0
  1  2  1  0  0  0  0
  1  3  1  0  0  0  0
  1  4  1  0  0  0  0
  2  5  1  0  0  0  0
  3 22  1  0  0  0  0
  3 23  1  0  0  0  0
  3 24  1  0  0  0  0
  4 25  1  0  0  0  0
  4 26  1  0  0  0  0
  4 27  1  0  0  0  0
  5  6  1  0  0  0  0
  5  7  2  0  0  0  0
  6 28  1  0  0  0  0
  6 29  1  0  0  0  0
  6 30  1  0  0  0  0
  8 20  2  0  0  0  0
  9 10  2  0  0  0  0
  9 11  1  0  0  0  0
  9 12  1  0  0  0  0
 10 13  1  0  0  0  0
 10 14  1  0  0  0  0
 11 15  1  0  0  0  0
 11 16  2  0  0  0  0
 12 17  1  0  0  0  0
 12 31  1  0  0  0  0
 12 32  1  0  0  0  0
 13 18  2  0  0  0  0
 13 19  1  0  0  0  0
 14 20  1  0  0  0  0
 15 17  1  0  0  0  0
 16 18  1  0  0  0  0
 16 33  1  0  0  0  0
 17 34  1  1  0  0  0
 17  1  1  0  0  0  0
 18 35  1  0  0  0  0
 19 21  2  0  0  0  0
 19 36  1  0  0  0  0
 20 21  1  0  0  0  0
 21 37  1  0  0  0  0
M  END
>  <Mol_ID>
9658

>  <Formula>
C16H16O5

>  <MolWeight>
288.29524

>  <Cat>
E0577

>  <Name>
COLUMBIANETIN ACETATE

>  <Synonyms>
(S)-Columbianetin acetate

>  <Target>
Immunology & Inflammation related

>  <Form>
free base

>  <CAS>
23180-65-6

>  <URL>
https://www.selleckchem.com/products/columbianetin-acetate.html

$$$$
