Combretastatin A4.cdx
 OpenBabel08302519593D

 43 44  0  0  0  0  0  0  0  0999 V2000
    1.4152   -0.3178    0.3280 C   0  0  0  0  0  0  0  0  0  0  0  0
    0.5632   -1.4339    0.1986 C   0  0  0  0  0  0  0  0  0  0  0  0
   -0.8241   -1.2258    0.1301 C   0  0  0  0  0  0  0  0  0  0  0  0
   -1.3394    0.0791    0.2209 C   0  0  0  0  0  0  0  0  0  0  0  0
   -0.4978    1.1649    0.4367 C   0  0  0  0  0  0  0  0  0  0  0  0
    0.8768    0.9552    0.5430 C   0  0  0  0  0  0  0  0  0  0  0  0
   -1.0118    2.5398    0.4755 C   0  0  0  0  0  0  0  0  0  0  0  0
   -1.3328    3.2157    1.5859 C   0  0  0  0  0  0  0  0  0  0  0  0
   -1.2485    2.6357    2.9261 C   0  0  0  0  0  0  0  0  0  0  0  0
   -0.0790    2.7677    3.6801 C   0  0  0  0  0  0  0  0  0  0  0  0
    0.0531    2.0837    4.8932 C   0  0  0  0  0  0  0  0  0  0  0  0
   -0.9935    1.2907    5.3800 C   0  0  0  0  0  0  0  0  0  0  0  0
   -2.1745    1.2028    4.6331 C   0  0  0  0  0  0  0  0  0  0  0  0
   -2.3026    1.8621    3.4118 C   0  0  0  0  0  0  0  0  0  0  0  0
   -1.0321    0.5387    6.5222 O   0  0  0  0  0  0  0  0  0  0  0  0
    0.1577    0.4281    7.2873 C   0  0  0  0  0  0  0  0  0  0  0  0
    1.2371    2.2030    5.5687 O   0  0  0  0  0  0  0  0  0  0  0  0
   -1.7928   -2.1619   -0.1439 O   0  0  0  0  0  0  0  0  0  0  0  0
    1.0627   -2.6901   -0.0595 O   0  0  0  0  0  0  0  0  0  0  0  0
    1.9333   -3.2041    0.9501 C   0  0  0  0  0  0  0  0  0  0  0  0
    2.7669   -0.5070    0.1753 O   0  0  0  0  0  0  0  0  0  0  0  0
    3.4984    0.5872   -0.3751 C   0  0  0  0  0  0  0  0  0  0  0  0
   -1.6191   -3.4465    0.4355 C   0  0  0  0  0  0  0  0  0  0  0  0
   -2.4103    0.2319    0.1177 H   0  0  0  0  0  0  0  0  0  0  0  0
    1.5223    1.8042    0.7451 H   0  0  0  0  0  0  0  0  0  0  0  0
   -1.0971    3.0215   -0.4927 H   0  0  0  0  0  0  0  0  0  0  0  0
   -1.6786    4.2459    1.5287 H   0  0  0  0  0  0  0  0  0  0  0  0
    0.7295    3.3863    3.3011 H   0  0  0  0  0  0  0  0  0  0  0  0
   -2.9942    0.5857    4.9939 H   0  0  0  0  0  0  0  0  0  0  0  0
   -3.2133    1.7422    2.8300 H   0  0  0  0  0  0  0  0  0  0  0  0
    0.9864    0.0312    6.6916 H   0  0  0  0  0  0  0  0  0  0  0  0
    0.4090    1.3828    7.7592 H   0  0  0  0  0  0  0  0  0  0  0  0
   -0.0326   -0.2918    8.0892 H   0  0  0  0  0  0  0  0  0  0  0  0
    1.9057    2.5603    4.9620 H   0  0  0  0  0  0  0  0  0  0  0  0
    2.6378   -2.4799    1.3649 H   0  0  0  0  0  0  0  0  0  0  0  0
    1.3459   -3.6363    1.7663 H   0  0  0  0  0  0  0  0  0  0  0  0
    2.5226   -4.0083    0.4969 H   0  0  0  0  0  0  0  0  0  0  0  0
    2.8839    1.3203   -0.9109 H   0  0  0  0  0  0  0  0  0  0  0  0
    4.0557    1.0808    0.4264 H   0  0  0  0  0  0  0  0  0  0  0  0
    4.2122    0.1895   -1.1015 H   0  0  0  0  0  0  0  0  0  0  0  0
   -0.9553   -4.0663   -0.1728 H   0  0  0  0  0  0  0  0  0  0  0  0
   -1.2790   -3.3887    1.4746 H   0  0  0  0  0  0  0  0  0  0  0  0
   -2.5995   -3.9356    0.4374 H   0  0  0  0  0  0  0  0  0  0  0  0
  1  2  2  0  0  0  0
  1 21  1  0  0  0  0
  2  3  1  0  0  0  0
  2 19  1  0  0  0  0
  3  4  2  0  0  0  0
  3 18  1  0  0  0  0
  4  5  1  0  0  0  0
  4 24  1  0  0  0  0
  5  6  2  0  0  0  0
  5  7  1  0  0  0  0
  6  1  1  0  0  0  0
  6 25  1  0  0  0  0
  7  8  2  0  0  0  0
  7 26  1  0  0  0  0
  8  9  1  0  0  0  0
  8 27  1  0  0  0  0
  9 10  2  0  0  0  0
 10 11  1  0  0  0  0
 10 28  1  0  0  0  0
 11 12  2  0  0  0  0
 11 17  1  0  0  0  0
 12 13  1  0  0  0  0
 12 15  1  0  0  0  0
 13 14  2  0  0  0  0
 13 29  1  0  0  0  0
 14  9  1  0  0  0  0
 14 30  1  0  0  0  0
 15 16  1  0  0  0  0
 16 31  1  0  0  0  0
 16 32  1  0  0  0  0
 16 33  1  0  0  0  0
 17 34  1  0  0  0  0
 18 23  1  0  0  0  0
 19 20  1  0  0  0  0
 20 35  1  0  0  0  0
 20 36  1  0  0  0  0
 20 37  1  0  0  0  0
 21 22  1  0  0  0  0
 22 38  1  0  0  0  0
 22 39  1  0  0  0  0
 22 40  1  0  0  0  0
 23 41  1  0  0  0  0
 23 42  1  0  0  0  0
 23 43  1  0  0  0  0
M  END
>  <Mol_ID>
2569

>  <Formula>
C18H20O5

>  <MolWeight>
316.3484

>  <Cat>
S7783

>  <Name>
Combretastatin A4

>  <Synonyms>
N/A

>  <Target>
Microtubule Associated

>  <Form>
free base

>  <CAS>
117048-59-6

>  <URL>
http://selleckchem.com/products/combretastatin-a4.html

$$$$
