Compound 401
 OpenBabel08302520403D

 36 39  0  0  0  0  0  0  0  0999 V2000
    0.8180   -0.3993   -0.0473 C   0  0  0  0  0  0  0  0  0  0  0  0
    1.4845   -1.5184   -0.0427 N   0  0  0  0  0  0  0  0  0  0  0  0
    1.4197    0.8615   -0.0429 N   0  0  0  0  0  0  0  0  0  0  0  0
    2.8590   -1.4814    0.0228 C   0  0  0  0  0  0  0  0  0  0  0  0
    3.5148   -0.3114   -0.0037 C   0  0  0  0  0  0  0  0  0  0  0  0
    2.7970    0.9562   -0.0515 C   0  0  0  0  0  0  0  0  0  0  0  0
    0.6803    2.0326   -0.0394 C   0  0  0  0  0  0  0  0  0  0  0  0
   -0.6843   -0.4169   -0.0490 C   0  0  0  0  0  0  0  0  0  0  0  0
    3.6224   -2.6482    0.0980 N   0  0  0  0  0  0  0  0  0  0  0  0
   -0.6528    2.0586   -0.0333 C   0  0  0  0  0  0  0  0  0  0  0  0
   -1.3847    0.7998   -0.0347 C   0  0  0  0  0  0  0  0  0  0  0  0
    3.4452    2.0019   -0.0830 O   0  0  0  0  0  0  0  0  0  0  0  0
    5.5436   -4.7307   -0.2982 O   0  0  0  0  0  0  0  0  0  0  0  0
    3.1985   -3.9363   -0.4723 C   0  0  0  0  0  0  0  0  0  0  0  0
    4.7812   -2.8060    1.0005 C   0  0  0  0  0  0  0  0  0  0  0  0
   -1.3949   -1.6227   -0.0417 C   0  0  0  0  0  0  0  0  0  0  0  0
    5.9347   -3.4504    0.2252 C   0  0  0  0  0  0  0  0  0  0  0  0
    4.4087   -4.5907   -1.1755 C   0  0  0  0  0  0  0  0  0  0  0  0
   -2.7844    0.8043   -0.0155 C   0  0  0  0  0  0  0  0  0  0  0  0
   -2.7933   -1.6105   -0.0191 C   0  0  0  0  0  0  0  0  0  0  0  0
   -3.4867   -0.4003   -0.0065 C   0  0  0  0  0  0  0  0  0  0  0  0
    4.5922   -0.2378   -0.0062 H   0  0  0  0  0  0  0  0  0  0  0  0
    1.2452    2.9646   -0.0346 H   0  0  0  0  0  0  0  0  0  0  0  0
   -1.1959    2.9966   -0.0245 H   0  0  0  0  0  0  0  0  0  0  0  0
    2.8440   -4.5875    0.3355 H   0  0  0  0  0  0  0  0  0  0  0  0
    2.3870   -3.8144   -1.1983 H   0  0  0  0  0  0  0  0  0  0  0  0
    4.4840   -3.4559    1.8326 H   0  0  0  0  0  0  0  0  0  0  0  0
    5.1103   -1.8565    1.4358 H   0  0  0  0  0  0  0  0  0  0  0  0
   -0.8667   -2.5728   -0.0465 H   0  0  0  0  0  0  0  0  0  0  0  0
    6.2615   -2.8078   -0.6017 H   0  0  0  0  0  0  0  0  0  0  0  0
    6.7908   -3.6048    0.8891 H   0  0  0  0  0  0  0  0  0  0  0  0
    4.1437   -5.5928   -1.5264 H   0  0  0  0  0  0  0  0  0  0  0  0
    4.7169   -4.0017   -2.0480 H   0  0  0  0  0  0  0  0  0  0  0  0
   -3.3368    1.7413   -0.0025 H   0  0  0  0  0  0  0  0  0  0  0  0
   -3.3446   -2.5476   -0.0078 H   0  0  0  0  0  0  0  0  0  0  0  0
   -4.5738   -0.3924    0.0142 H   0  0  0  0  0  0  0  0  0  0  0  0
  2  1  2  0  0  0  0
  3  1  1  0  0  0  0
  4  2  1  0  0  0  0
  4  5  2  0  0  0  0
  5  6  1  0  0  0  0
  5 22  1  0  0  0  0
  6  3  1  0  0  0  0
  7  3  1  0  0  0  0
  7 23  1  0  0  0  0
  8  1  1  0  0  0  0
  9  4  1  0  0  0  0
 10  7  2  0  0  0  0
 10 11  1  0  0  0  0
 10 24  1  0  0  0  0
 11  8  2  0  0  0  0
 12  6  2  0  0  0  0
 13 17  1  0  0  0  0
 13 18  1  0  0  0  0
 14  9  1  0  0  0  0
 14 25  1  0  0  0  0
 14 26  1  0  0  0  0
 15  9  1  0  0  0  0
 15 27  1  0  0  0  0
 15 28  1  0  0  0  0
 16  8  1  0  0  0  0
 16 29  1  0  0  0  0
 17 15  1  0  0  0  0
 17 30  1  0  0  0  0
 17 31  1  0  0  0  0
 18 14  1  0  0  0  0
 18 32  1  0  0  0  0
 18 33  1  0  0  0  0
 19 11  1  0  0  0  0
 19 21  2  0  0  0  0
 19 34  1  0  0  0  0
 20 16  2  0  0  0  0
 20 35  1  0  0  0  0
 21 20  1  0  0  0  0
 21 36  1  0  0  0  0
M  END
>  <Mol_ID>
3807

>  <Formula>
C16H15N3O2

>  <MolWeight>
281.3092

>  <Cat>
S6506

>  <Name>
Compound 401

>  <Synonyms>
N/A

>  <Target>
DNA-PK,mTOR

>  <Form>
free base

>  <CAS>
168425-64-7

>  <URL>
http://www.selleck.cn/products/compound-401.html

$$$$
