Coniferin
 OpenBabel08302521493D

 46 47  0  0  0  0  0  0  0  0999 V2000
    3.0708    1.9357    1.2111 O   0  0  0  0  0  0  0  0  0  0  0  0
    3.8060   -0.7116   -0.1030 O   0  0  0  0  0  0  0  0  0  0  0  0
    2.4124   -0.5206   -0.2898 C   0  0  0  0  0  0  0  0  0  0  0  0
    8.4378    0.8706   -0.0839 C   0  0  0  0  0  0  0  0  0  0  0  0
    9.1972   -0.2204    0.0450 C   0  0  0  0  0  0  0  0  0  0  0  0
   10.7035   -0.1883    0.0244 C   0  0  0  0  0  0  0  0  0  0  0  0
   11.2105    1.1287   -0.1639 O   0  0  0  0  0  0  0  0  0  0  0  0
    3.2579    1.0650    4.1761 O   0  0  0  0  0  0  0  0  0  0  0  0
    4.7997    6.1406    2.2877 C   0  0  0  0  0  0  0  0  0  0  0  0
    3.8094    6.9718    1.6924 O   0  0  0  0  0  0  0  0  0  0  0  0
    5.8284    2.3005    5.1527 O   0  0  0  0  0  0  0  0  0  0  0  0
    5.7099    5.1611    4.9336 O   0  0  0  0  0  0  0  0  0  0  0  0
    4.2801    1.6435    0.6108 C   0  0  0  0  0  0  0  0  0  0  0  0
    4.6147    0.3665    0.1216 C   0  0  0  0  0  0  0  0  0  0  0  0
    5.2821    2.6179    0.6185 C   0  0  0  0  0  0  0  0  0  0  0  0
    5.9794    0.0838   -0.1449 C   0  0  0  0  0  0  0  0  0  0  0  0
    6.6125    2.3100    0.4613 C   0  0  0  0  0  0  0  0  0  0  0  0
    6.9890    1.0247    0.0949 C   0  0  0  0  0  0  0  0  0  0  0  0
    3.1809    2.7697    2.4397 C   0  0  2  0  0  0  0  0  0  0  0  0
    3.5005    4.1318    2.1089 O   0  0  0  0  0  0  0  0  0  0  0  0
    4.0725    2.0515    3.5010 C   0  0  1  0  0  0  0  0  0  0  0  0
    4.1437    4.9741    3.0706 C   0  0  1  0  0  0  0  0  0  0  0  0
    4.7297    2.9910    4.5118 C   0  0  2  0  0  0  0  0  0  0  0  0
    5.2368    4.2860    3.8900 C   0  0  2  0  0  0  0  0  0  0  0  0
    1.9056   -0.4034    0.6724 H   0  0  0  0  0  0  0  0  0  0  0  0
    2.1770    0.3027   -0.9749 H   0  0  0  0  0  0  0  0  0  0  0  0
    2.0200   -1.4374   -0.7487 H   0  0  0  0  0  0  0  0  0  0  0  0
    8.9473    1.8238   -0.2370 H   0  0  0  0  0  0  0  0  0  0  0  0
    8.7434   -1.1847    0.2654 H   0  0  0  0  0  0  0  0  0  0  0  0
   11.0950   -0.5522    0.9794 H   0  0  0  0  0  0  0  0  0  0  0  0
   11.0876   -0.8214   -0.7776 H   0  0  0  0  0  0  0  0  0  0  0  0
   10.9690    1.3973   -1.0663 H   0  0  0  0  0  0  0  0  0  0  0  0
    3.2949    1.2240    5.1329 H   0  0  0  0  0  0  0  0  0  0  0  0
    5.4205    6.7715    2.9324 H   0  0  0  0  0  0  0  0  0  0  0  0
    5.4405    5.7654    1.4796 H   0  0  0  0  0  0  0  0  0  0  0  0
    3.2942    6.3967    1.0932 H   0  0  0  0  0  0  0  0  0  0  0  0
    6.6742    2.6698    4.8228 H   0  0  0  0  0  0  0  0  0  0  0  0
    4.9893    5.2845    5.5847 H   0  0  0  0  0  0  0  0  0  0  0  0
    5.0721    3.6545    0.8239 H   0  0  0  0  0  0  0  0  0  0  0  0
    6.2417   -0.9083   -0.5187 H   0  0  0  0  0  0  0  0  0  0  0  0
    7.3534    3.0771    0.6683 H   0  0  0  0  0  0  0  0  0  0  0  0
    2.1577    2.7976    2.8303 H   0  0  0  0  0  0  0  0  0  0  0  0
    4.8640    1.4591    3.0316 H   0  0  0  0  0  0  0  0  0  0  0  0
    3.3697    5.3909    3.7244 H   0  0  0  0  0  0  0  0  0  0  0  0
    4.0394    3.2182    5.3278 H   0  0  0  0  0  0  0  0  0  0  0  0
    6.1071    4.0707    3.2550 H   0  0  0  0  0  0  0  0  0  0  0  0
  1 13  1  0  0  0  0
  2  3  1  0  0  0  0
  2 14  1  0  0  0  0
  3 25  1  0  0  0  0
  3 26  1  0  0  0  0
  3 27  1  0  0  0  0
  4  5  2  3  0  0  0
  4 18  1  0  0  0  0
  4 28  1  0  0  0  0
  5  6  1  0  0  0  0
  5 29  1  0  0  0  0
  6  7  1  0  0  0  0
  6 30  1  0  0  0  0
  6 31  1  0  0  0  0
  7 32  1  0  0  0  0
  8 33  1  0  0  0  0
  9 10  1  0  0  0  0
  9 34  1  0  0  0  0
  9 35  1  0  0  0  0
 10 36  1  0  0  0  0
 11 37  1  0  0  0  0
 12 38  1  0  0  0  0
 13 14  2  0  0  0  0
 13 15  1  0  0  0  0
 14 16  1  0  0  0  0
 15 17  2  0  0  0  0
 15 39  1  0  0  0  0
 16 18  2  0  0  0  0
 16 40  1  0  0  0  0
 17 18  1  0  0  0  0
 17 41  1  0  0  0  0
 19 20  1  0  0  0  0
 19 21  1  0  0  0  0
 19 42  1  1  0  0  0
 19  1  1  0  0  0  0
 20 22  1  0  0  0  0
 21  8  1  0  0  0  0
 21 23  1  0  0  0  0
 21 43  1  6  0  0  0
 22  9  1  0  0  0  0
 22 24  1  0  0  0  0
 22 44  1  1  0  0  0
 23 11  1  0  0  0  0
 23 24  1  0  0  0  0
 23 45  1  1  0  0  0
 24 12  1  0  0  0  0
 24 46  1  6  0  0  0
M  END
>  <Mol_ID>
9859

>  <Formula>
C16H22O8

>  <MolWeight>
342.34108

>  <Cat>
E2574

>  <Name>
Coniferin

>  <Synonyms>
NA

>  <Target>
antioxidant

>  <Form>
Free Base

>  <CAS>
531-29-3

>  <URL>
https://www.selleckchem.com/products/coniferin.html

$$$$
