Coniferyl ferulate
 OpenBabel08302521473D

 46 47  0  0  0  0  0  0  0  0999 V2000
   -1.9701    0.0274   -1.2111 C   0  0  0  0  0  0  0  0  0  0  0  0
   -2.1781   -0.1943    0.0975 C   0  0  0  0  0  0  0  0  0  0  0  0
   -1.2135   -0.8463    1.0177 C   0  0  0  0  0  0  0  0  0  0  0  0
   -1.8960   -1.2936    2.0991 O   0  0  0  0  0  0  0  0  0  0  0  0
   -0.0108   -0.9371    0.8365 O   0  0  0  0  0  0  0  0  0  0  0  0
   -1.1096   -1.9556    3.1044 C   0  0  0  0  0  0  0  0  0  0  0  0
   -1.3861   -1.2647    4.4033 C   0  0  0  0  0  0  0  0  0  0  0  0
   -1.9174   -1.8500    5.4901 C   0  0  0  0  0  0  0  0  0  0  0  0
    2.7039    0.5912   -2.7765 O   0  0  0  0  0  0  0  0  0  0  0  0
    2.7592    1.9026   -2.2280 C   0  0  0  0  0  0  0  0  0  0  0  0
    2.6282   -1.8732   -3.7858 O   0  0  0  0  0  0  0  0  0  0  0  0
   -3.5710    2.1742    7.8967 O   0  0  0  0  0  0  0  0  0  0  0  0
   -3.6051    2.8963    6.6696 C   0  0  0  0  0  0  0  0  0  0  0  0
   -3.5179    0.8033   10.1910 O   0  0  0  0  0  0  0  0  0  0  0  0
   -0.7869   -0.4104   -1.9561 C   0  0  0  0  0  0  0  0  0  0  0  0
    0.3572    0.4007   -2.0279 C   0  0  0  0  0  0  0  0  0  0  0  0
   -0.7862   -1.6805   -2.5468 C   0  0  0  0  0  0  0  0  0  0  0  0
    1.5113   -0.0758   -2.6521 C   0  0  0  0  0  0  0  0  0  0  0  0
    0.3623   -2.1597   -3.1732 C   0  0  0  0  0  0  0  0  0  0  0  0
    1.4984   -1.3620   -3.2062 C   0  0  0  0  0  0  0  0  0  0  0  0
   -2.2812   -1.1224    6.7185 C   0  0  0  0  0  0  0  0  0  0  0  0
   -2.7172    0.2141    6.6710 C   0  0  0  0  0  0  0  0  0  0  0  0
   -2.2893   -1.7953    7.9494 C   0  0  0  0  0  0  0  0  0  0  0  0
   -3.1278    0.8777    7.8272 C   0  0  0  0  0  0  0  0  0  0  0  0
   -2.7019   -1.1402    9.1124 C   0  0  0  0  0  0  0  0  0  0  0  0
   -3.1125    0.1844    9.0401 C   0  0  0  0  0  0  0  0  0  0  0  0
   -2.7360    0.5176   -1.8068 H   0  0  0  0  0  0  0  0  0  0  0  0
   -3.1174    0.1113    0.5489 H   0  0  0  0  0  0  0  0  0  0  0  0
   -1.4215   -3.0048    3.1306 H   0  0  0  0  0  0  0  0  0  0  0  0
   -0.0329   -1.9264    2.9043 H   0  0  0  0  0  0  0  0  0  0  0  0
   -1.1284   -0.2091    4.4131 H   0  0  0  0  0  0  0  0  0  0  0  0
   -2.1375   -2.9154    5.4859 H   0  0  0  0  0  0  0  0  0  0  0  0
    2.0394    2.5664   -2.7184 H   0  0  0  0  0  0  0  0  0  0  0  0
    2.6081    1.8839   -1.1439 H   0  0  0  0  0  0  0  0  0  0  0  0
    3.7606    2.3009   -2.4181 H   0  0  0  0  0  0  0  0  0  0  0  0
    3.3117   -1.1906   -3.6386 H   0  0  0  0  0  0  0  0  0  0  0  0
   -2.6023    2.9906    6.2388 H   0  0  0  0  0  0  0  0  0  0  0  0
   -4.2988    2.4340    5.9589 H   0  0  0  0  0  0  0  0  0  0  0  0
   -3.9715    3.9045    6.8832 H   0  0  0  0  0  0  0  0  0  0  0  0
   -3.7634    1.7084    9.9166 H   0  0  0  0  0  0  0  0  0  0  0  0
    0.3311    1.3785   -1.5597 H   0  0  0  0  0  0  0  0  0  0  0  0
   -1.6686   -2.3135   -2.5010 H   0  0  0  0  0  0  0  0  0  0  0  0
    0.3810   -3.1530   -3.6102 H   0  0  0  0  0  0  0  0  0  0  0  0
   -2.7498    0.7162    5.7110 H   0  0  0  0  0  0  0  0  0  0  0  0
   -1.9775   -2.8351    8.0157 H   0  0  0  0  0  0  0  0  0  0  0  0
   -2.7121   -1.6601   10.0658 H   0  0  0  0  0  0  0  0  0  0  0  0
  1  2  2  3  0  0  0
  1 15  1  0  0  0  0
  1 27  1  0  0  0  0
  2  3  1  0  0  0  0
  2 28  1  0  0  0  0
  3  4  1  0  0  0  0
  3  5  2  0  0  0  0
  4  6  1  0  0  0  0
  6  7  1  0  0  0  0
  6 29  1  0  0  0  0
  6 30  1  0  0  0  0
  7  8  2  3  0  0  0
  7 31  1  0  0  0  0
  8 21  1  0  0  0  0
  8 32  1  0  0  0  0
  9 10  1  0  0  0  0
  9 18  1  0  0  0  0
 10 33  1  0  0  0  0
 10 34  1  0  0  0  0
 10 35  1  0  0  0  0
 11 20  1  0  0  0  0
 11 36  1  0  0  0  0
 12 13  1  0  0  0  0
 12 24  1  0  0  0  0
 13 37  1  0  0  0  0
 13 38  1  0  0  0  0
 13 39  1  0  0  0  0
 14 26  1  0  0  0  0
 14 40  1  0  0  0  0
 15 16  2  0  0  0  0
 15 17  1  0  0  0  0
 16 18  1  0  0  0  0
 16 41  1  0  0  0  0
 17 19  2  0  0  0  0
 17 42  1  0  0  0  0
 18 20  2  0  0  0  0
 19 20  1  0  0  0  0
 19 43  1  0  0  0  0
 21 22  2  0  0  0  0
 21 23  1  0  0  0  0
 22 24  1  0  0  0  0
 22 44  1  0  0  0  0
 23 25  2  0  0  0  0
 23 45  1  0  0  0  0
 24 26  2  0  0  0  0
 25 26  1  0  0  0  0
 25 46  1  0  0  0  0
M  END
>  <Mol_ID>
9753

>  <Formula>
C20H20O6

>  <MolWeight>
356.3692

>  <Cat>
E2233

>  <Name>
Coniferyl ferulate

>  <Synonyms>
NA

>  <Target>
Glutathione S-transferase (GST)

>  <Form>
Free Base

>  <CAS>
63644-62-2

>  <URL>
https://www.selleckchem.com/products/coniferyl-ferulate.html

$$$$
