Coptisine Sulfate
 OpenBabel08302521503D

 44 48  0  0  0  0  0  0  0  0999 V2000
    1.4092   -0.0297    2.8598 S   0  0  0  0  0  0  0  0  0  0  0  0
    0.9742   -1.2566    2.2259 O   0  0  0  0  0  0  0  0  0  0  0  0
    0.6257    0.4448    3.9884 O   0  0  0  0  0  0  0  0  0  0  0  0
    1.7944    1.0131    1.9170 O   0  5  0  0  0  0  0  0  0  0  0  0
    2.8362   -0.4105    3.4738 O   0  0  0  0  0  0  0  0  0  0  0  0
    0.5953    0.3307   -0.8591 C   0  0  0  0  0  0  0  0  0  0  0  0
   -0.8718    0.2924   -0.6652 C   0  0  0  0  0  0  0  0  0  0  0  0
    1.2112    1.5356   -0.6863 N   0  3  0  0  0  0  0  0  0  0  0  0
    1.3777   -0.8063   -1.1122 C   0  0  0  0  0  0  0  0  0  0  0  0
   -1.6394    1.4871   -0.7350 C   0  0  0  0  0  0  0  0  0  0  0  0
   -1.5426   -0.9004   -0.3226 C   0  0  0  0  0  0  0  0  0  0  0  0
    2.5682    1.6211   -0.6371 C   0  0  0  0  0  0  0  0  0  0  0  0
    0.4299    2.7147   -0.2278 C   0  0  0  0  0  0  0  0  0  0  0  0
    2.7627   -0.7639   -0.9564 C   0  0  0  0  0  0  0  0  0  0  0  0
   -3.0354    1.4782   -0.5580 C   0  0  0  0  0  0  0  0  0  0  0  0
   -0.9112    2.7858   -0.9417 C   0  0  0  0  0  0  0  0  0  0  0  0
   -2.9064   -0.8725   -0.1132 C   0  0  0  0  0  0  0  0  0  0  0  0
    3.3715    0.4726   -0.6835 C   0  0  0  0  0  0  0  0  0  0  0  0
    3.5259   -1.9526   -0.9427 C   0  0  0  0  0  0  0  0  0  0  0  0
   -3.6348    0.2812   -0.2393 C   0  0  0  0  0  0  0  0  0  0  0  0
   -3.6733   -1.9343    0.2525 O   0  0  0  0  0  0  0  0  0  0  0  0
    4.7240    0.4522   -0.3377 C   0  0  0  0  0  0  0  0  0  0  0  0
    4.8732   -1.9393   -0.5789 C   0  0  0  0  0  0  0  0  0  0  0  0
   -4.9549    0.0936    0.0243 O   0  0  0  0  0  0  0  0  0  0  0  0
   -4.9584   -1.2992    0.4083 C   0  0  0  0  0  0  0  0  0  0  0  0
    5.4372   -0.7249   -0.2648 C   0  0  0  0  0  0  0  0  0  0  0  0
    5.4752    1.5168    0.0711 O   0  0  0  0  0  0  0  0  0  0  0  0
    6.7023   -0.5487    0.2002 O   0  0  0  0  0  0  0  0  0  0  0  0
    6.6724    0.8504    0.5372 C   0  0  0  0  0  0  0  0  0  0  0  0
    3.4413   -0.3673    2.7136 H   0  0  0  0  0  0  0  0  0  0  0  0
    0.8971   -1.7670   -1.2795 H   0  0  0  0  0  0  0  0  0  0  0  0
   -1.0144   -1.8339   -0.1478 H   0  0  0  0  0  0  0  0  0  0  0  0
    2.9899    2.5902   -0.3877 H   0  0  0  0  0  0  0  0  0  0  0  0
    1.0091    3.6225   -0.4247 H   0  0  0  0  0  0  0  0  0  0  0  0
    0.2937    2.6107    0.8539 H   0  0  0  0  0  0  0  0  0  0  0  0
   -3.6300    2.3843   -0.6128 H   0  0  0  0  0  0  0  0  0  0  0  0
   -0.7822    2.9663   -2.0141 H   0  0  0  0  0  0  0  0  0  0  0  0
   -1.4893    3.6174   -0.5204 H   0  0  0  0  0  0  0  0  0  0  0  0
    3.0479   -2.9135   -1.1291 H   0  0  0  0  0  0  0  0  0  0  0  0
    5.4382   -2.8613   -0.4881 H   0  0  0  0  0  0  0  0  0  0  0  0
   -5.2685   -1.3755    1.4578 H   0  0  0  0  0  0  0  0  0  0  0  0
   -5.6869   -1.8320   -0.2127 H   0  0  0  0  0  0  0  0  0  0  0  0
    6.7302    0.9508    1.6290 H   0  0  0  0  0  0  0  0  0  0  0  0
    7.5492    1.3356    0.0948 H   0  0  0  0  0  0  0  0  0  0  0  0
  1  2  2  0  0  0  0
  1  3  2  0  0  0  0
  1  4  1  0  0  0  0
  1  5  1  0  0  0  0
  5 30  1  0  0  0  0
  6  7  1  0  0  0  0
  6  8  1  0  0  0  0
  6  9  2  0  0  0  0
  7 10  2  0  0  0  0
  7 11  1  0  0  0  0
  8 12  2  0  0  0  0
  8 13  1  0  0  0  0
  9 14  1  0  0  0  0
  9 31  1  0  0  0  0
 10 15  1  0  0  0  0
 10 16  1  0  0  0  0
 11 17  2  0  0  0  0
 11 32  1  0  0  0  0
 12 18  1  0  0  0  0
 12 33  1  0  0  0  0
 13 16  1  0  0  0  0
 13 34  1  0  0  0  0
 13 35  1  0  0  0  0
 14 18  2  0  0  0  0
 14 19  1  0  0  0  0
 15 20  2  0  0  0  0
 15 36  1  0  0  0  0
 16 37  1  0  0  0  0
 16 38  1  0  0  0  0
 17 20  1  0  0  0  0
 17 21  1  0  0  0  0
 18 22  1  0  0  0  0
 19 23  2  0  0  0  0
 19 39  1  0  0  0  0
 20 24  1  0  0  0  0
 21 25  1  0  0  0  0
 22 26  2  0  0  0  0
 22 27  1  0  0  0  0
 23 26  1  0  0  0  0
 23 40  1  0  0  0  0
 24 25  1  0  0  0  0
 25 41  1  0  0  0  0
 25 42  1  0  0  0  0
 26 28  1  0  0  0  0
 27 29  1  0  0  0  0
 28 29  1  0  0  0  0
 29 43  1  0  0  0  0
 29 44  1  0  0  0  0
M  CHG  2   4  -1   8   1
M  END
>  <Mol_ID>
9874

>  <Formula>
C19H15NO8S

>  <MolWeight>
417.3893

>  <Cat>
E2627

>  <Name>
Coptisine Sulfate

>  <Synonyms>
NA

>  <Target>
IDO

>  <Form>
sulfate

>  <CAS>
1198398-71-8

>  <URL>
https://www.selleckchem.com/products/coptisine-sulfate.html

$$$$
