Corynoxeine
 OpenBabel08302521263D

 54 57  0  0  0  0  0  0  0  0999 V2000
    1.7139   -5.6400   -1.9069 C   0  0  0  0  0  0  0  0  0  0  0  0
    1.1440   -4.1901   -2.1354 C   0  0  0  0  0  0  0  0  0  0  0  0
    1.0497   -3.6772   -0.7703 N   0  0  3  0  0  0  0  0  0  0  0  0
    0.7412   -4.8045    0.0767 C   0  0  1  0  0  0  0  0  0  0  0  0
   -0.7851   -2.6193    0.5808 C   0  0  1  0  0  0  0  0  0  0  0  0
    0.4945   -2.4363   -0.3114 C   0  0  0  0  0  0  0  0  0  0  0  0
   -1.6551   -3.7574   -0.0465 C   0  0  2  0  0  0  0  0  0  0  0  0
   -0.7690   -5.0893   -0.1988 C   0  0  0  0  0  0  0  0  0  0  0  0
   -0.6244   -2.8904    2.0869 C   0  0  0  0  0  0  0  0  0  0  0  0
    0.4569   -2.7389    2.8618 C   0  0  0  0  0  0  0  0  0  0  0  0
   -2.5110   -3.2741   -1.2415 C   0  0  0  0  0  0  0  0  0  0  0  0
   -2.5421   -1.8310   -1.6799 C   0  0  0  0  0  0  0  0  0  0  0  0
   -1.5614   -1.1023   -1.7466 O   0  0  0  0  0  0  0  0  0  0  0  0
   -3.7956   -1.4043   -1.9703 O   0  0  0  0  0  0  0  0  0  0  0  0
   -3.8334   -0.0268   -2.3656 C   0  0  0  0  0  0  0  0  0  0  0  0
   -3.3676   -4.0528   -1.9233 C   0  0  0  0  0  0  0  0  0  0  0  0
   -3.5503   -5.3866   -1.6838 O   0  0  0  0  0  0  0  0  0  0  0  0
   -4.1901   -6.0185   -2.7914 C   0  0  0  0  0  0  0  0  0  0  0  0
    1.9272   -5.6837   -0.4028 C   0  0  1  0  0  0  0  0  0  0  0  0
    1.2452   -7.9263    0.3970 O   0  0  0  0  0  0  0  0  0  0  0  0
    2.8271   -6.6421    1.5581 N   0  0  0  0  0  0  0  0  0  0  0  0
    1.9411   -6.9315    0.4916 C   0  0  0  0  0  0  0  0  0  0  0  0
    4.4367   -4.8123    2.1570 C   0  0  0  0  0  0  0  0  0  0  0  0
    5.0104   -3.6178    1.6840 C   0  0  0  0  0  0  0  0  0  0  0  0
    4.7783   -3.1804    0.3750 C   0  0  0  0  0  0  0  0  0  0  0  0
    3.9076   -3.8855   -0.4518 C   0  0  0  0  0  0  0  0  0  0  0  0
    3.2405   -4.9938    0.0697 C   0  0  0  0  0  0  0  0  0  0  0  0
    3.5594   -5.4784    1.3225 C   0  0  0  0  0  0  0  0  0  0  0  0
    2.6352   -5.8127   -2.4736 H   0  0  0  0  0  0  0  0  0  0  0  0
    0.9836   -6.3976   -2.2172 H   0  0  0  0  0  0  0  0  0  0  0  0
    0.1826   -4.2396   -2.6564 H   0  0  0  0  0  0  0  0  0  0  0  0
    1.8329   -3.6019   -2.7478 H   0  0  0  0  0  0  0  0  0  0  0  0
    0.8831   -4.6136    1.1401 H   0  0  0  0  0  0  0  0  0  0  0  0
   -1.3371   -1.6732    0.5791 H   0  0  0  0  0  0  0  0  0  0  0  0
    1.2595   -1.9205    0.2790 H   0  0  0  0  0  0  0  0  0  0  0  0
    0.3490   -1.7851   -1.1692 H   0  0  0  0  0  0  0  0  0  0  0  0
   -2.4250   -4.0271    0.6943 H   0  0  0  0  0  0  0  0  0  0  0  0
   -1.1155   -5.8283    0.5377 H   0  0  0  0  0  0  0  0  0  0  0  0
   -0.9416   -5.5498   -1.1757 H   0  0  0  0  0  0  0  0  0  0  0  0
   -1.5204   -3.2699    2.5839 H   0  0  0  0  0  0  0  0  0  0  0  0
    0.4162   -3.0044    3.9162 H   0  0  0  0  0  0  0  0  0  0  0  0
    1.4064   -2.3766    2.4807 H   0  0  0  0  0  0  0  0  0  0  0  0
   -3.2498    0.1300   -3.2799 H   0  0  0  0  0  0  0  0  0  0  0  0
   -4.8722    0.2466   -2.5690 H   0  0  0  0  0  0  0  0  0  0  0  0
   -3.4592    0.6149   -1.5600 H   0  0  0  0  0  0  0  0  0  0  0  0
   -4.0065   -3.6633   -2.7102 H   0  0  0  0  0  0  0  0  0  0  0  0
   -3.7207   -5.7314   -3.7402 H   0  0  0  0  0  0  0  0  0  0  0  0
   -5.2568   -5.7663   -2.8065 H   0  0  0  0  0  0  0  0  0  0  0  0
   -4.0875   -7.1016   -2.6740 H   0  0  0  0  0  0  0  0  0  0  0  0
    2.9444   -7.2442    2.3582 H   0  0  0  0  0  0  0  0  0  0  0  0
    4.6262   -5.1401    3.1694 H   0  0  0  0  0  0  0  0  0  0  0  0
    5.6289   -3.0111    2.3385 H   0  0  0  0  0  0  0  0  0  0  0  0
    5.2141   -2.2485    0.0170 H   0  0  0  0  0  0  0  0  0  0  0  0
    3.6841   -3.4901   -1.4382 H   0  0  0  0  0  0  0  0  0  0  0  0
  1  2  1  0  0  0  0
  1 29  1  0  0  0  0
  1 30  1  0  0  0  0
  2  3  1  0  0  0  0
  2 31  1  0  0  0  0
  2 32  1  0  0  0  0
  3  4  1  0  0  0  0
  3  6  1  0  0  0  0
  4  8  1  0  0  0  0
  4 33  1  1  0  0  0
  5  6  1  0  0  0  0
  5 34  1  6  0  0  0
  5  9  1  0  0  0  0
  6 35  1  0  0  0  0
  6 36  1  0  0  0  0
  7  5  1  0  0  0  0
  7 11  1  0  0  0  0
  7 37  1  1  0  0  0
  8  7  1  0  0  0  0
  8 38  1  0  0  0  0
  8 39  1  0  0  0  0
  9 10  2  0  0  0  0
  9 40  1  0  0  0  0
 10 41  1  0  0  0  0
 10 42  1  0  0  0  0
 11 12  1  0  0  0  0
 11 16  2  0  0  0  0
 12 13  2  0  0  0  0
 12 14  1  0  0  0  0
 14 15  1  0  0  0  0
 15 43  1  0  0  0  0
 15 44  1  0  0  0  0
 15 45  1  0  0  0  0
 16 17  1  0  0  0  0
 16 46  1  0  0  0  0
 17 18  1  0  0  0  0
 18 47  1  0  0  0  0
 18 48  1  0  0  0  0
 18 49  1  0  0  0  0
 19  1  1  0  0  0  0
 19  4  1  0  0  0  0
 19 22  1  1  0  0  0
 19 27  1  0  0  0  0
 21 22  1  0  0  0  0
 21 50  1  0  0  0  0
 22 20  2  0  0  0  0
 23 24  1  0  0  0  0
 23 51  1  0  0  0  0
 24 25  2  0  0  0  0
 24 52  1  0  0  0  0
 25 26  1  0  0  0  0
 25 53  1  0  0  0  0
 26 54  1  0  0  0  0
 27 26  2  0  0  0  0
 28 27  1  0  0  0  0
 28 23  2  0  0  0  0
 28 21  1  0  0  0  0
M  END
>  <Mol_ID>
5317

>  <Formula>
C22H26N2O4

>  <MolWeight>
382.45284

>  <Cat>
S9306

>  <Name>
Corynoxeine

>  <Synonyms>
N/A

>  <Target>
ERK

>  <Form>
Free Base

>  <CAS>
630-94-4

>  <URL>
https://www.selleckchem.com/products/corynoxeine.html

$$$$
