Costunolide.cdx
 OpenBabel08302519513D

 37 38  0  0  0  0  0  0  0  0999 V2000
   -2.2814    0.9590   -0.2802 C   0  0  0  0  0  0  0  0  0  0  0  0
   -2.4018   -0.5943   -0.2955 C   0  0  0  0  0  0  0  0  0  0  0  0
   -1.1137   -1.2964    0.1237 C   0  0  0  0  0  0  0  0  0  0  0  0
   -0.1466   -1.4825   -0.8144 C   0  0  0  0  0  0  0  0  0  0  0  0
    0.0247    1.8492    0.3170 C   0  0  0  0  0  0  0  0  0  0  0  0
   -0.8702    1.4201   -0.5964 C   0  0  0  0  0  0  0  0  0  0  0  0
    1.2551   -1.8592   -0.5131 C   0  0  2  0  0  0  0  0  0  0  0  0
    2.2805   -0.7130   -0.4318 C   0  0  1  0  0  0  0  0  0  0  0  0
    2.1318    0.3976    0.6269 C   0  0  0  0  0  0  0  0  0  0  0  0
    1.5118    1.7153    0.0578 C   0  0  0  0  0  0  0  0  0  0  0  0
   -0.9571   -1.5583    1.6012 C   0  0  0  0  0  0  0  0  0  0  0  0
   -0.3614    2.4117    1.6578 C   0  0  0  0  0  0  0  0  0  0  0  0
    1.7911   -2.6764   -1.5729 O   0  0  0  0  0  0  0  0  0  0  0  0
    3.1602   -2.6365   -1.4462 C   0  0  0  0  0  0  0  0  0  0  0  0
    3.4133   -1.6889   -0.3196 C   0  0  2  0  0  0  0  0  0  0  0  0
    3.9839   -3.2102   -2.1222 O   0  0  0  0  0  0  0  0  0  0  0  0
    4.2435   -2.0104    0.6790 C   0  0  0  0  0  0  0  0  0  0  0  0
   -2.6084    1.3153    0.7010 H   0  0  0  0  0  0  0  0  0  0  0  0
   -2.9774    1.3836   -1.0110 H   0  0  0  0  0  0  0  0  0  0  0  0
   -3.2251   -0.9056    0.3598 H   0  0  0  0  0  0  0  0  0  0  0  0
   -2.6865   -0.9232   -1.3045 H   0  0  0  0  0  0  0  0  0  0  0  0
   -0.3542   -1.2396   -1.8474 H   0  0  0  0  0  0  0  0  0  0  0  0
   -0.5150    1.1216   -1.5813 H   0  0  0  0  0  0  0  0  0  0  0  0
    1.2590   -2.4989    0.3857 H   0  0  0  0  0  0  0  0  0  0  0  0
    2.3943   -0.2290   -1.4005 H   0  0  0  0  0  0  0  0  0  0  0  0
    3.1366    0.6711    0.9820 H   0  0  0  0  0  0  0  0  0  0  0  0
    1.5844    0.0523    1.5101 H   0  0  0  0  0  0  0  0  0  0  0  0
    2.0192    2.5726    0.5244 H   0  0  0  0  0  0  0  0  0  0  0  0
    1.7268    1.8116   -1.0135 H   0  0  0  0  0  0  0  0  0  0  0  0
   -1.4380   -0.7710    2.1843 H   0  0  0  0  0  0  0  0  0  0  0  0
   -1.4217   -2.5153    1.8566 H   0  0  0  0  0  0  0  0  0  0  0  0
    0.0836   -1.5886    1.9196 H   0  0  0  0  0  0  0  0  0  0  0  0
   -0.2776    1.6545    2.4411 H   0  0  0  0  0  0  0  0  0  0  0  0
    0.2893    3.2542    1.9132 H   0  0  0  0  0  0  0  0  0  0  0  0
   -1.3769    2.8152    1.6540 H   0  0  0  0  0  0  0  0  0  0  0  0
    4.2570   -1.4786    1.6129 H   0  0  0  0  0  0  0  0  0  0  0  0
    4.8768   -2.9082    0.6023 H   0  0  0  0  0  0  0  0  0  0  0  0
  1  2  1  0  0  0  0
  1 18  1  0  0  0  0
  1 19  1  0  0  0  0
  2  3  1  0  0  0  0
  2 20  1  0  0  0  0
  2 21  1  0  0  0  0
  3  4  2  0  0  0  0
  3 11  1  0  0  0  0
  4 22  1  0  0  0  0
  5  6  2  0  0  0  0
  5 12  1  0  0  0  0
  6  1  1  0  0  0  0
  6 23  1  0  0  0  0
  7  4  1  0  0  0  0
  7  8  1  0  0  0  0
  7 13  1  0  0  0  0
  7 24  1  1  0  0  0
  8  9  1  0  0  0  0
  8 15  1  0  0  0  0
  8 25  1  6  0  0  0
  9 10  1  0  0  0  0
  9 26  1  0  0  0  0
  9 27  1  0  0  0  0
 10  5  1  0  0  0  0
 10 28  1  0  0  0  0
 10 29  1  0  0  0  0
 11 30  1  0  0  0  0
 11 31  1  0  0  0  0
 11 32  1  0  0  0  0
 12 33  1  0  0  0  0
 12 34  1  0  0  0  0
 12 35  1  0  0  0  0
 13 14  1  0  0  0  0
 14 15  1  0  0  0  0
 14 16  2  0  0  0  0
 15 17  2  1  0  0  0
 17 36  1  0  0  0  0
 17 37  1  0  0  0  0
M  END
>  <Mol_ID>
203

>  <Formula>
C15H20O2

>  <MolWeight>
232.3181

>  <Cat>
S1319

>  <Name>
Costunolide

>  <Synonyms>
NSC 106404

>  <Target>
Telomerase

>  <Form>
free base

>  <CAS>
553-21-9

>  <URL>
http://selleckchem.com/products/Costunolide.html

$$$$
