COTI-2.cdx
 OpenBabel08302520432D

 48 51  0  0  0  0  0  0  0  0999 V2000
    0.0000    2.1000    0.0000 C   0  0  0  0  0  0  0  0  0  0  0  0
    0.0000    0.7000    0.0000 C   0  0  0  0  0  0  0  0  0  0  0  0
    1.2124    0.0000    0.0000 C   0  0  0  0  0  0  0  0  0  0  0  0
    2.4249    0.7000    0.0000 C   0  0  0  0  0  0  0  0  0  0  0  0
    2.4249    2.1000    0.0000 C   0  0  0  0  0  0  0  0  0  0  0  0
    1.2124    2.8000    0.0000 N   0  0  0  0  0  0  0  0  0  0  0  0
    3.6373    2.8000    0.0000 N   0  0  0  0  0  0  0  0  0  0  0  0
    4.8497    2.1000    0.0000 C   0  0  0  0  0  0  0  0  0  0  0  0
    6.0622    2.8000    0.0000 C   0  0  0  0  0  0  0  0  0  0  0  0
    6.0622    4.2000    0.0000 N   0  0  0  0  0  0  0  0  0  0  0  0
    4.8497    4.9000    0.0000 C   0  0  0  0  0  0  0  0  0  0  0  0
    3.6373    4.2000    0.0000 C   0  0  0  0  0  0  0  0  0  0  0  0
    7.2746    4.9000    0.0000 C   0  0  0  0  0  0  0  0  0  0  0  0
    8.4870    4.2000    0.0000 S   0  0  0  0  0  0  0  0  0  0  0  0
    7.2746    6.3000    0.0000 N   0  0  0  0  0  0  0  0  0  0  0  0
    6.0622    7.0000    0.0000 N   0  0  0  0  0  0  0  0  0  0  0  0
    6.0622    8.4000    0.0000 C   0  0  0  0  0  0  0  0  0  0  0  0
    7.2746    9.1000    0.0000 C   0  0  0  0  0  0  0  0  0  0  0  0
    7.2746   10.5000    0.0000 C   0  0  0  0  0  0  0  0  0  0  0  0
    6.0622   11.2000    0.0000 C   0  0  0  0  0  0  0  0  0  0  0  0
    4.8497   10.5000    0.0000 C   0  0  0  0  0  0  0  0  0  0  0  0
    4.8497    9.1000    0.0000 C   0  0  0  0  0  0  0  0  0  0  0  0
    8.4870    8.4000    0.0000 N   0  0  0  0  0  0  0  0  0  0  0  0
    9.6995    9.1000    0.0000 C   0  0  0  0  0  0  0  0  0  0  0  0
    9.6995   10.5000    0.0000 C   0  0  0  0  0  0  0  0  0  0  0  0
    8.4870   11.2000    0.0000 C   0  0  0  0  0  0  0  0  0  0  0  0
   -0.8937    2.6160    0.0000 H   0  0  0  0  0  0  0  0  0  0  0  0
   -0.8937    0.1840    0.0000 H   0  0  0  0  0  0  0  0  0  0  0  0
    1.2124   -1.0320    0.0000 H   0  0  0  0  0  0  0  0  0  0  0  0
    3.3186    0.1840    0.0000 H   0  0  0  0  0  0  0  0  0  0  0  0
    4.8497    1.0300    0.0000 H   0  0  0  0  0  0  0  0  0  0  0  0
    5.7763    1.5650    0.0000 H   0  0  0  0  0  0  0  0  0  0  0  0
    6.9888    2.2650    0.0000 H   0  0  0  0  0  0  0  0  0  0  0  0
    6.9889    3.3350    0.0000 H   0  0  0  0  0  0  0  0  0  0  0  0
    4.8497    5.9700    0.0000 H   0  0  0  0  0  0  0  0  0  0  0  0
    3.9230    5.4350    0.0000 H   0  0  0  0  0  0  0  0  0  0  0  0
    2.7106    4.7350    0.0000 H   0  0  0  0  0  0  0  0  0  0  0  0
    2.7107    3.6650    0.0000 H   0  0  0  0  0  0  0  0  0  0  0  0
    8.1272    6.7922    0.0000 H   0  0  0  0  0  0  0  0  0  0  0  0
    6.0622   12.2700    0.0000 H   0  0  0  0  0  0  0  0  0  0  0  0
    5.1356   11.7350    0.0000 H   0  0  0  0  0  0  0  0  0  0  0  0
    3.9231   11.0350    0.0000 H   0  0  0  0  0  0  0  0  0  0  0  0
    3.9230    9.9650    0.0000 H   0  0  0  0  0  0  0  0  0  0  0  0
    3.9231    8.5650    0.0000 H   0  0  0  0  0  0  0  0  0  0  0  0
    4.8497    8.0300    0.0000 H   0  0  0  0  0  0  0  0  0  0  0  0
   10.5932    8.5840    0.0000 H   0  0  0  0  0  0  0  0  0  0  0  0
   10.5932   11.0160    0.0000 H   0  0  0  0  0  0  0  0  0  0  0  0
    8.4870   12.2320    0.0000 H   0  0  0  0  0  0  0  0  0  0  0  0
  1  2  2  0  0  0  0
  1 27  1  0  0  0  0
  2  3  1  0  0  0  0
  2 28  1  0  0  0  0
  3  4  2  0  0  0  0
  3 29  1  0  0  0  0
  4  5  1  0  0  0  0
  4 30  1  0  0  0  0
  5  6  2  0  0  0  0
  5  7  1  0  0  0  0
  6  1  1  0  0  0  0
  7  8  1  0  0  0  0
  8  9  1  0  0  0  0
  8 31  1  0  0  0  0
  8 32  1  0  0  0  0
  9 10  1  0  0  0  0
  9 33  1  0  0  0  0
  9 34  1  0  0  0  0
 10 11  1  0  0  0  0
 10 13  1  0  0  0  0
 11 12  1  0  0  0  0
 11 35  1  0  0  0  0
 11 36  1  0  0  0  0
 12  7  1  0  0  0  0
 12 37  1  0  0  0  0
 12 38  1  0  0  0  0
 13 14  2  0  0  0  0
 13 15  1  0  0  0  0
 15 16  1  0  0  0  0
 15 39  1  0  0  0  0
 16 17  2  0  0  0  0
 17 18  1  0  0  0  0
 18 19  2  0  0  0  0
 18 23  1  0  0  0  0
 19 20  1  0  0  0  0
 20 21  1  0  0  0  0
 20 40  1  0  0  0  0
 20 41  1  0  0  0  0
 21 22  1  0  0  0  0
 21 42  1  0  0  0  0
 21 43  1  0  0  0  0
 22 17  1  0  0  0  0
 22 44  1  0  0  0  0
 22 45  1  0  0  0  0
 23 24  2  0  0  0  0
 24 25  1  0  0  0  0
 24 46  1  0  0  0  0
 25 26  2  0  0  0  0
 25 47  1  0  0  0  0
 26 19  1  0  0  0  0
 26 48  1  0  0  0  0
M  END
>  <Mol_ID>
4177

>  <Formula>
C19H22N6S

>  <MolWeight>
366.48318

>  <Cat>
S8580

>  <Name>
COTI-2

>  <Synonyms>
N/A

>  <Target>
p53

>  <Form>
free base

>  <CAS>
1039455-84-9

>  <URL>
http://selleckchem.com/products/coti-2.html

$$$$
