Coumalic acid
 OpenBabel08302521323D

 14 14  0  0  0  0  0  0  0  0999 V2000
    1.0282   -0.0372    0.0455 C   0  0  0  0  0  0  0  0  0  0  0  0
    0.3746   -1.1489   -0.3487 O   0  0  0  0  0  0  0  0  0  0  0  0
    0.4323    0.9773    0.3738 O   0  0  0  0  0  0  0  0  0  0  0  0
    6.5917   -0.1570    0.0384 O   0  0  0  0  0  0  0  0  0  0  0  0
    2.5165   -0.1086    0.0177 C   0  0  0  0  0  0  0  0  0  0  0  0
    3.2790    1.1232    0.0182 C   0  0  0  0  0  0  0  0  0  0  0  0
    3.2156   -1.2516    0.0365 C   0  0  0  0  0  0  0  0  0  0  0  0
    4.6163    1.1155    0.0257 C   0  0  0  0  0  0  0  0  0  0  0  0
    4.6251   -1.3052    0.0369 O   0  0  0  0  0  0  0  0  0  0  0  0
    5.3694   -0.1522    0.0356 C   0  0  0  0  0  0  0  0  0  0  0  0
    0.9116   -1.8949   -0.6628 H   0  0  0  0  0  0  0  0  0  0  0  0
    2.7335    2.0650    0.0177 H   0  0  0  0  0  0  0  0  0  0  0  0
    2.8359   -2.2641    0.0716 H   0  0  0  0  0  0  0  0  0  0  0  0
    5.2029    2.0262    0.0264 H   0  0  0  0  0  0  0  0  0  0  0  0
  1  2  1  0  0  0  0
  1  3  2  0  0  0  0
  1  5  1  0  0  0  0
  2 11  1  0  0  0  0
  4 10  2  0  0  0  0
  5  6  1  0  0  0  0
  5  7  2  0  0  0  0
  6  8  2  0  0  0  0
  6 12  1  0  0  0  0
  7  9  1  0  0  0  0
  7 13  1  0  0  0  0
  8 10  1  0  0  0  0
  8 14  1  0  0  0  0
  9 10  1  0  0  0  0
M  END
>  <Mol_ID>
6329

>  <Formula>
C6H4O4

>  <MolWeight>
140.09356

>  <Cat>
E0749

>  <Name>
Coumalic acid

>  <Target>
Anti-infection

>  <Form>
free base

>  <CAS>
500-05-0

>  <URL>
http://www.selleckchem.com/products/coumalic-acid.html

$$$$
