Coumarin.cdx
 OpenBabel08302522043D

 17 18  0  0  0  0  0  0  0  0999 V2000
   -0.9924    1.0357   -0.0790 O   0  0  0  0  0  0  0  0  0  0  0  0
   -2.0727    0.1644   -0.0385 C   0  0  0  0  0  0  0  0  0  0  0  0
   -3.2327    0.5585    0.0051 O   0  0  0  0  0  0  0  0  0  0  0  0
   -1.7699   -1.2772   -0.0613 C   0  0  0  0  0  0  0  0  0  0  0  0
   -0.5206   -1.7488   -0.0476 C   0  0  0  0  0  0  0  0  0  0  0  0
    0.5938   -0.8164   -0.0128 C   0  0  0  0  0  0  0  0  0  0  0  0
    1.9205   -1.2463    0.0527 C   0  0  0  0  0  0  0  0  0  0  0  0
    2.9594   -0.3098    0.0689 C   0  0  0  0  0  0  0  0  0  0  0  0
    2.6772    1.0577    0.0134 C   0  0  0  0  0  0  0  0  0  0  0  0
    1.3557    1.4943   -0.0466 C   0  0  0  0  0  0  0  0  0  0  0  0
    0.3302    0.5514   -0.0505 C   0  0  0  0  0  0  0  0  0  0  0  0
   -2.6300   -1.9374   -0.0871 H   0  0  0  0  0  0  0  0  0  0  0  0
   -0.3200   -2.8144   -0.0663 H   0  0  0  0  0  0  0  0  0  0  0  0
    2.1608   -2.3058    0.0930 H   0  0  0  0  0  0  0  0  0  0  0  0
    3.9919   -0.6470    0.1245 H   0  0  0  0  0  0  0  0  0  0  0  0
    3.4890    1.7810    0.0217 H   0  0  0  0  0  0  0  0  0  0  0  0
    1.1266    2.5562   -0.0847 H   0  0  0  0  0  0  0  0  0  0  0  0
  1  2  1  0  0  0  0
  1 11  1  0  0  0  0
  2  3  2  0  0  0  0
  2  4  1  0  0  0  0
  4  5  2  0  0  0  0
  4 12  1  0  0  0  0
  5  6  1  0  0  0  0
  5 13  1  0  0  0  0
  6  7  1  0  0  0  0
  6 11  2  0  0  0  0
  7  8  2  0  0  0  0
  7 14  1  0  0  0  0
  8  9  1  0  0  0  0
  8 15  1  0  0  0  0
  9 10  2  0  0  0  0
  9 16  1  0  0  0  0
 10 11  1  0  0  0  0
 10 17  1  0  0  0  0
M  END
>  <Mol_ID>
1279

>  <Formula>
C9H6O2

>  <MolWeight>
146.14274

>  <Cat>
S4170

>  <Name>
Coumarin

>  <Synonyms>
N/A

>  <Target>
Immunology & Inflammation related

>  <Form>
free base

>  <CAS>
91-64-5

>  <URL>
http://selleckchem.com/products/coumarin.html

$$$$
