Coumarin 7
 OpenBabel08302521373D

 44 47  0  0  0  0  0  0  0  0999 V2000
   -3.2511    0.5688   -0.1588 O   0  0  0  0  0  0  0  0  0  0  0  0
    3.6923    2.0170    0.0102 N   0  0  0  0  0  0  0  0  0  0  0  0
    3.5147    3.3011   -0.6873 C   0  0  0  0  0  0  0  0  0  0  0  0
    5.0708    1.6688    0.3796 C   0  0  0  0  0  0  0  0  0  0  0  0
    3.6947    3.1417   -2.1907 C   0  0  0  0  0  0  0  0  0  0  0  0
    5.1889    1.4677    1.8841 C   0  0  0  0  0  0  0  0  0  0  0  0
   -1.8260   -1.3383   -0.0769 C   0  0  0  0  0  0  0  0  0  0  0  0
   -0.5596   -1.7852   -0.0186 C   0  0  0  0  0  0  0  0  0  0  0  0
   -2.1052    0.1266   -0.0882 C   0  0  0  0  0  0  0  0  0  0  0  0
    0.5559   -0.8561    0.0145 C   0  0  0  0  0  0  0  0  0  0  0  0
   -1.0200    0.9879   -0.0120 O   0  0  0  0  0  0  0  0  0  0  0  0
    0.2981    0.5030    0.0099 C   0  0  0  0  0  0  0  0  0  0  0  0
    1.8818   -1.2692    0.0401 C   0  0  0  0  0  0  0  0  0  0  0  0
    1.3224    1.4522    0.0169 C   0  0  0  0  0  0  0  0  0  0  0  0
    2.9170   -0.3166    0.0429 C   0  0  0  0  0  0  0  0  0  0  0  0
    2.6712    1.0709    0.0143 C   0  0  0  0  0  0  0  0  0  0  0  0
   -2.8808   -2.2967   -0.1352 C   0  0  0  0  0  0  0  0  0  0  0  0
   -4.1898   -1.8730   -0.2423 N   0  0  0  0  0  0  0  0  0  0  0  0
   -2.8375   -3.6190   -0.1116 N   0  0  0  0  0  0  0  0  0  0  0  0
   -5.0099   -2.9676   -0.2895 C   0  0  0  0  0  0  0  0  0  0  0  0
   -4.1405   -4.0460   -0.2028 C   0  0  0  0  0  0  0  0  0  0  0  0
   -6.3951   -3.1004   -0.3971 C   0  0  0  0  0  0  0  0  0  0  0  0
   -4.6616   -5.3471   -0.2183 C   0  0  0  0  0  0  0  0  0  0  0  0
   -6.8982   -4.4061   -0.4110 C   0  0  0  0  0  0  0  0  0  0  0  0
   -6.0492   -5.5126   -0.3218 C   0  0  0  0  0  0  0  0  0  0  0  0
    2.5470    3.7645   -0.4751 H   0  0  0  0  0  0  0  0  0  0  0  0
    4.2522    4.0241   -0.3172 H   0  0  0  0  0  0  0  0  0  0  0  0
    5.4324    0.7938   -0.1709 H   0  0  0  0  0  0  0  0  0  0  0  0
    5.7531    2.4822    0.1015 H   0  0  0  0  0  0  0  0  0  0  0  0
    2.9131    2.5075   -2.6212 H   0  0  0  0  0  0  0  0  0  0  0  0
    3.6444    4.1189   -2.6818 H   0  0  0  0  0  0  0  0  0  0  0  0
    4.6635    2.6912   -2.4299 H   0  0  0  0  0  0  0  0  0  0  0  0
    4.6027    0.6098    2.2269 H   0  0  0  0  0  0  0  0  0  0  0  0
    6.2328    1.2943    2.1628 H   0  0  0  0  0  0  0  0  0  0  0  0
    4.8327    2.3515    2.4245 H   0  0  0  0  0  0  0  0  0  0  0  0
   -0.3369   -2.8499   -0.0080 H   0  0  0  0  0  0  0  0  0  0  0  0
    2.1367   -2.3266    0.0488 H   0  0  0  0  0  0  0  0  0  0  0  0
    1.0331    2.4963    0.0527 H   0  0  0  0  0  0  0  0  0  0  0  0
    3.9325   -0.7016    0.0458 H   0  0  0  0  0  0  0  0  0  0  0  0
   -4.4840   -0.9030   -0.2776 H   0  0  0  0  0  0  0  0  0  0  0  0
   -7.0520   -2.2403   -0.4663 H   0  0  0  0  0  0  0  0  0  0  0  0
   -3.9973   -6.2011   -0.1500 H   0  0  0  0  0  0  0  0  0  0  0  0
   -7.9723   -4.5616   -0.4920 H   0  0  0  0  0  0  0  0  0  0  0  0
   -6.4679   -6.5161   -0.3328 H   0  0  0  0  0  0  0  0  0  0  0  0
  1  9  2  0  0  0  0
  2  3  1  0  0  0  0
  2  4  1  0  0  0  0
  2 16  1  0  0  0  0
  3  5  1  0  0  0  0
  3 26  1  0  0  0  0
  3 27  1  0  0  0  0
  4  6  1  0  0  0  0
  4 28  1  0  0  0  0
  4 29  1  0  0  0  0
  5 30  1  0  0  0  0
  5 31  1  0  0  0  0
  5 32  1  0  0  0  0
  6 33  1  0  0  0  0
  6 34  1  0  0  0  0
  6 35  1  0  0  0  0
  7  8  2  0  0  0  0
  7  9  1  0  0  0  0
  7 17  1  0  0  0  0
  8 10  1  0  0  0  0
  8 36  1  0  0  0  0
  9 11  1  0  0  0  0
 10 12  2  0  0  0  0
 10 13  1  0  0  0  0
 11 12  1  0  0  0  0
 12 14  1  0  0  0  0
 13 15  2  0  0  0  0
 13 37  1  0  0  0  0
 14 16  2  0  0  0  0
 14 38  1  0  0  0  0
 15 16  1  0  0  0  0
 15 39  1  0  0  0  0
 17 18  1  0  0  0  0
 17 19  2  0  0  0  0
 18 20  1  0  0  0  0
 18 40  1  0  0  0  0
 19 21  1  0  0  0  0
 20 21  2  0  0  0  0
 20 22  1  0  0  0  0
 21 23  1  0  0  0  0
 22 24  2  0  0  0  0
 22 41  1  0  0  0  0
 23 25  2  0  0  0  0
 23 42  1  0  0  0  0
 24 25  1  0  0  0  0
 24 43  1  0  0  0  0
 25 44  1  0  0  0  0
M  END
>  <Mol_ID>
7452

>  <Formula>
C20H19N3O2

>  <MolWeight>
333.38376

>  <Cat>
E4556

>  <Name>
Coumarin 7

>  <Synonyms>
Coumarin 7

>  <Target>
Others

>  <Form>
Free base

>  <CAS>
27425-55-4

>  <URL>
https://www.selleckchem.com/products/coumarin-7.html

$$$$
