CP-671305
 OpenBabel08302521243D

 52 55  0  0  0  0  0  0  0  0999 V2000
   -6.2457    2.6869   -1.0594 F   0  0  0  0  0  0  0  0  0  0  0  0
   -2.3477    1.7202   -3.6556 O   0  0  0  0  0  0  0  0  0  0  0  0
    1.1754    0.1941    2.8836 O   0  0  0  0  0  0  0  0  0  0  0  0
    3.0803    1.6722    2.9515 O   0  0  0  0  0  0  0  0  0  0  0  0
   -1.9602    3.8084    3.3924 O   0  0  0  0  0  0  0  0  0  0  0  0
   -5.0080    6.5359    2.4612 O   0  0  0  0  0  0  0  0  0  0  0  0
   -3.7208    1.3605   -5.8173 O   0  0  0  0  0  0  0  0  0  0  0  0
   -4.2121   -0.8083   -5.4131 O   0  0  0  0  0  0  0  0  0  0  0  0
   -4.0073    4.5988    1.8103 N   0  0  0  0  0  0  0  0  0  0  0  0
   -1.4946    5.0499    5.3289 N   0  0  0  0  0  0  0  0  0  0  0  0
   -4.1960    3.7201   -0.4763 C   0  0  0  0  0  0  0  0  0  0  0  0
   -4.8792    4.4226    0.6656 C   0  0  0  0  0  0  0  0  0  0  0  0
   -4.9409    2.8747   -1.2999 C   0  0  0  0  0  0  0  0  0  0  0  0
   -2.8511    3.9400   -0.8023 C   0  0  0  0  0  0  0  0  0  0  0  0
    0.8131    1.4947    3.0614 C   0  0  0  0  0  0  0  0  0  0  0  0
   -3.0065    2.3682   -2.6403 C   0  0  0  0  0  0  0  0  0  0  0  0
    1.9023    2.3340    3.1008 C   0  0  0  0  0  0  0  0  0  0  0  0
   -0.6559    3.3486    3.3464 C   0  0  0  0  0  0  0  0  0  0  0  0
   -4.3658    2.2073   -2.3754 C   0  0  0  0  0  0  0  0  0  0  0  0
   -2.2591    3.2642   -1.8763 C   0  0  0  0  0  0  0  0  0  0  0  0
   -3.2920    5.7615    3.8663 C   0  0  0  0  0  0  0  0  0  0  0  0
   -0.4794    1.9686    3.1815 C   0  0  0  0  0  0  0  0  0  0  0  0
   -4.1657    5.6651    2.6638 C   0  0  0  0  0  0  0  0  0  0  0  0
   -2.7501    0.3512   -3.8491 C   0  0  2  0  0  0  0  0  0  0  0  0
    1.7631    3.6938    3.2609 C   0  0  0  0  0  0  0  0  0  0  0  0
   -2.2480    4.9000    4.2040 C   0  0  0  0  0  0  0  0  0  0  0  0
    0.4658    4.2056    3.3647 C   0  0  0  0  0  0  0  0  0  0  0  0
    2.6106    0.3203    2.7784 C   0  0  0  0  0  0  0  0  0  0  0  0
   -3.5169    6.8530    4.7231 C   0  0  0  0  0  0  0  0  0  0  0  0
   -1.4994   -0.4966   -4.0437 C   0  0  0  0  0  0  0  0  0  0  0  0
   -2.7237    7.0458    5.8504 C   0  0  0  0  0  0  0  0  0  0  0  0
   -3.6362    0.2201   -5.0897 C   0  0  0  0  0  0  0  0  0  0  0  0
   -1.7333    6.1217    6.1107 C   0  0  0  0  0  0  0  0  0  0  0  0
   -3.1881    2.0748   -5.4037 H   0  0  0  0  0  0  0  0  0  0  0  0
   -3.4233    3.8193    2.0846 H   0  0  0  0  0  0  0  0  0  0  0  0
   -5.2641    5.3880    0.3185 H   0  0  0  0  0  0  0  0  0  0  0  0
   -5.7293    3.8306    1.0255 H   0  0  0  0  0  0  0  0  0  0  0  0
   -2.2511    4.6394   -0.2210 H   0  0  0  0  0  0  0  0  0  0  0  0
   -5.0072    1.5788   -2.9840 H   0  0  0  0  0  0  0  0  0  0  0  0
   -1.2087    3.4322   -2.1021 H   0  0  0  0  0  0  0  0  0  0  0  0
   -1.3222    1.2883    3.1507 H   0  0  0  0  0  0  0  0  0  0  0  0
   -3.2970   -0.0364   -2.9841 H   0  0  0  0  0  0  0  0  0  0  0  0
    2.6283    4.3453    3.2987 H   0  0  0  0  0  0  0  0  0  0  0  0
    0.3407    5.2794    3.4763 H   0  0  0  0  0  0  0  0  0  0  0  0
    3.0806   -0.3144    3.5382 H   0  0  0  0  0  0  0  0  0  0  0  0
    2.9209   -0.0321    1.7873 H   0  0  0  0  0  0  0  0  0  0  0  0
   -4.3095    7.5684    4.5076 H   0  0  0  0  0  0  0  0  0  0  0  0
   -1.7448   -1.5607   -3.9573 H   0  0  0  0  0  0  0  0  0  0  0  0
   -1.0549   -0.3382   -5.0322 H   0  0  0  0  0  0  0  0  0  0  0  0
   -0.7381   -0.2510   -3.2965 H   0  0  0  0  0  0  0  0  0  0  0  0
   -2.8785    7.8971    6.5044 H   0  0  0  0  0  0  0  0  0  0  0  0
   -1.0797    6.2230    6.9724 H   0  0  0  0  0  0  0  0  0  0  0  0
  1 13  1  0  0  0  0
  2 16  1  0  0  0  0
  3 15  1  0  0  0  0
  3 28  1  0  0  0  0
  4 17  1  0  0  0  0
  4 28  1  0  0  0  0
  5 18  1  0  0  0  0
  5 26  1  0  0  0  0
  6 23  2  0  0  0  0
  7 32  1  0  0  0  0
  7 34  1  0  0  0  0
  8 32  2  0  0  0  0
  9 12  1  0  0  0  0
  9 23  1  0  0  0  0
  9 35  1  0  0  0  0
 10 26  2  0  0  0  0
 10 33  1  0  0  0  0
 11 12  1  0  0  0  0
 11 13  2  0  0  0  0
 11 14  1  0  0  0  0
 12 36  1  0  0  0  0
 12 37  1  0  0  0  0
 13 19  1  0  0  0  0
 14 20  2  0  0  0  0
 14 38  1  0  0  0  0
 15 17  2  0  0  0  0
 15 22  1  0  0  0  0
 16 19  2  0  0  0  0
 16 20  1  0  0  0  0
 17 25  1  0  0  0  0
 18 22  2  0  0  0  0
 18 27  1  0  0  0  0
 19 39  1  0  0  0  0
 20 40  1  0  0  0  0
 21 23  1  0  0  0  0
 21 26  1  0  0  0  0
 21 29  2  0  0  0  0
 22 41  1  0  0  0  0
 24 32  1  0  0  0  0
 24 42  1  1  0  0  0
 24 30  1  0  0  0  0
 24  2  1  0  0  0  0
 25 27  2  0  0  0  0
 25 43  1  0  0  0  0
 27 44  1  0  0  0  0
 28 45  1  0  0  0  0
 28 46  1  0  0  0  0
 29 31  1  0  0  0  0
 29 47  1  0  0  0  0
 30 48  1  0  0  0  0
 30 49  1  0  0  0  0
 30 50  1  0  0  0  0
 31 33  2  0  0  0  0
 31 51  1  0  0  0  0
 33 52  1  0  0  0  0
M  END
>  <Mol_ID>
5043

>  <Formula>
C23H19FN2O7

>  <MolWeight>
454.4045632

>  <Cat>
S0127

>  <Name>
CP-671305

>  <Synonyms>
N/A

>  <Target>
PDE

>  <Form>
free base

>  <CAS>
445295-04-5

>  <URL>
http://www.selleckchem.com/products/cp671305.html

$$$$
