CP-724,714.cdx
 OpenBabel08302521403D

 62 65  0  0  0  0  0  0  0  0999 V2000
    2.4906    0.7660    0.0006 C   0  0  0  0  0  0  0  0  0  0  0  0
    2.4564   -0.6275   -0.0514 C   0  0  0  0  0  0  0  0  0  0  0  0
    1.2357   -1.3086   -0.0669 C   0  0  0  0  0  0  0  0  0  0  0  0
    0.0251   -0.6376   -0.0465 C   0  0  0  0  0  0  0  0  0  0  0  0
    0.0322    0.7631   -0.0133 C   0  0  0  0  0  0  0  0  0  0  0  0
    1.2757    1.4572    0.0054 C   0  0  0  0  0  0  0  0  0  0  0  0
   -1.0956   -1.3637   -0.0492 N   0  0  0  0  0  0  0  0  0  0  0  0
   -2.2457   -0.6884   -0.0030 C   0  0  0  0  0  0  0  0  0  0  0  0
   -2.3726    0.6381    0.0445 N   0  0  0  0  0  0  0  0  0  0  0  0
   -1.2358    1.3596    0.0466 C   0  0  0  0  0  0  0  0  0  0  0  0
   -1.3477    2.7776    0.1225 N   0  0  0  0  0  0  0  0  0  0  0  0
   -2.4094    3.4749    0.7408 C   0  0  0  0  0  0  0  0  0  0  0  0
    3.7565    1.5174   -0.0111 C   0  0  0  0  0  0  0  0  0  0  0  0
    4.9063    1.0627    0.5205 C   0  0  0  0  0  0  0  0  0  0  0  0
    6.2113    1.7836    0.4553 C   0  0  0  0  0  0  0  0  0  0  0  0
    6.6775    1.9815    1.8023 N   0  0  0  0  0  0  0  0  0  0  0  0
    8.0208    2.1020    2.0860 C   0  0  0  0  0  0  0  0  0  0  0  0
    8.3254    2.2826    3.5754 C   0  0  0  0  0  0  0  0  0  0  0  0
    8.9035    2.0579    1.2336 O   0  0  0  0  0  0  0  0  0  0  0  0
    7.7332    1.2962    4.4137 O   0  0  0  0  0  0  0  0  0  0  0  0
    8.3007    0.0064    4.1991 C   0  0  0  0  0  0  0  0  0  0  0  0
   -2.7835    4.7470    0.3141 C   0  0  0  0  0  0  0  0  0  0  0  0
   -3.7925    5.4481    0.9870 C   0  0  0  0  0  0  0  0  0  0  0  0
   -4.4394    4.9048    2.1100 C   0  0  0  0  0  0  0  0  0  0  0  0
   -4.1041    3.6107    2.5319 C   0  0  0  0  0  0  0  0  0  0  0  0
   -3.0522    2.9484    1.8701 C   0  0  0  0  0  0  0  0  0  0  0  0
   -4.7493    2.8466    3.6537 C   0  0  0  0  0  0  0  0  0  0  0  0
   -5.4345    5.7170    2.6100 O   0  0  0  0  0  0  0  0  0  0  0  0
   -5.6936    5.7870    3.9514 C   0  0  0  0  0  0  0  0  0  0  0  0
   -4.7627    5.6208    4.9690 C   0  0  0  0  0  0  0  0  0  0  0  0
   -5.2007    5.5760    6.2930 C   0  0  0  0  0  0  0  0  0  0  0  0
   -6.5519    5.7737    6.5661 C   0  0  0  0  0  0  0  0  0  0  0  0
   -7.4547    6.0524    5.5972 N   0  0  0  0  0  0  0  0  0  0  0  0
   -7.0058    6.0531    4.3191 C   0  0  0  0  0  0  0  0  0  0  0  0
   -7.0748    5.6902    7.9678 C   0  0  0  0  0  0  0  0  0  0  0  0
    3.3722   -1.2129   -0.0850 H   0  0  0  0  0  0  0  0  0  0  0  0
    1.2352   -2.3965   -0.0900 H   0  0  0  0  0  0  0  0  0  0  0  0
    1.2765    2.5443    0.0551 H   0  0  0  0  0  0  0  0  0  0  0  0
   -3.1610   -1.2691    0.0014 H   0  0  0  0  0  0  0  0  0  0  0  0
   -1.0510    3.1897   -0.7552 H   0  0  0  0  0  0  0  0  0  0  0  0
    3.7294    2.4916   -0.4926 H   0  0  0  0  0  0  0  0  0  0  0  0
    4.9400    0.0916    1.0143 H   0  0  0  0  0  0  0  0  0  0  0  0
    6.9384    1.1822   -0.1015 H   0  0  0  0  0  0  0  0  0  0  0  0
    6.1323    2.7627   -0.0264 H   0  0  0  0  0  0  0  0  0  0  0  0
    6.0110    2.1541    2.5463 H   0  0  0  0  0  0  0  0  0  0  0  0
    9.4108    2.3052    3.7269 H   0  0  0  0  0  0  0  0  0  0  0  0
    7.9323    3.2591    3.8791 H   0  0  0  0  0  0  0  0  0  0  0  0
    8.0389   -0.3691    3.2053 H   0  0  0  0  0  0  0  0  0  0  0  0
    9.3886    0.0326    4.3169 H   0  0  0  0  0  0  0  0  0  0  0  0
    7.8864   -0.6792    4.9432 H   0  0  0  0  0  0  0  0  0  0  0  0
   -2.3127    5.2052   -0.5507 H   0  0  0  0  0  0  0  0  0  0  0  0
   -4.0861    6.4316    0.6247 H   0  0  0  0  0  0  0  0  0  0  0  0
   -2.7429    1.9725    2.2418 H   0  0  0  0  0  0  0  0  0  0  0  0
   -4.7987    1.7791    3.4099 H   0  0  0  0  0  0  0  0  0  0  0  0
   -4.1535    2.9477    4.5673 H   0  0  0  0  0  0  0  0  0  0  0  0
   -5.7783    3.1589    3.8389 H   0  0  0  0  0  0  0  0  0  0  0  0
   -3.7125    5.4593    4.7467 H   0  0  0  0  0  0  0  0  0  0  0  0
   -4.4969    5.3581    7.0895 H   0  0  0  0  0  0  0  0  0  0  0  0
   -7.7631    6.2579    3.5677 H   0  0  0  0  0  0  0  0  0  0  0  0
   -7.3616    6.6859    8.3184 H   0  0  0  0  0  0  0  0  0  0  0  0
   -7.9520    5.0356    7.9990 H   0  0  0  0  0  0  0  0  0  0  0  0
   -6.3274    5.2798    8.6540 H   0  0  0  0  0  0  0  0  0  0  0  0
  1  2  2  0  0  0  0
  1 13  1  0  0  0  0
  2  3  1  0  0  0  0
  2 36  1  0  0  0  0
  3  4  2  0  0  0  0
  3 37  1  0  0  0  0
  4  5  1  0  0  0  0
  4  7  1  0  0  0  0
  5  6  2  0  0  0  0
  6  1  1  0  0  0  0
  6 38  1  0  0  0  0
  7  8  2  0  0  0  0
  8  9  1  0  0  0  0
  8 39  1  0  0  0  0
  9 10  2  0  0  0  0
 10  5  1  0  0  0  0
 10 11  1  0  0  0  0
 11 12  1  0  0  0  0
 11 40  1  0  0  0  0
 12 22  2  0  0  0  0
 13 14  2  0  0  0  0
 13 41  1  0  0  0  0
 14 15  1  0  0  0  0
 14 42  1  0  0  0  0
 15 16  1  0  0  0  0
 15 43  1  0  0  0  0
 15 44  1  0  0  0  0
 16 17  1  0  0  0  0
 16 45  1  0  0  0  0
 17 18  1  0  0  0  0
 17 19  2  0  0  0  0
 18 20  1  0  0  0  0
 18 46  1  0  0  0  0
 18 47  1  0  0  0  0
 20 21  1  0  0  0  0
 21 48  1  0  0  0  0
 21 49  1  0  0  0  0
 21 50  1  0  0  0  0
 22 23  1  0  0  0  0
 22 51  1  0  0  0  0
 23 24  2  0  0  0  0
 23 52  1  0  0  0  0
 24 25  1  0  0  0  0
 24 28  1  0  0  0  0
 25 26  2  0  0  0  0
 25 27  1  0  0  0  0
 26 12  1  0  0  0  0
 26 53  1  0  0  0  0
 27 54  1  0  0  0  0
 27 55  1  0  0  0  0
 27 56  1  0  0  0  0
 28 29  1  0  0  0  0
 29 30  2  0  0  0  0
 30 31  1  0  0  0  0
 30 57  1  0  0  0  0
 31 32  2  0  0  0  0
 31 58  1  0  0  0  0
 32 33  1  0  0  0  0
 32 35  1  0  0  0  0
 33 34  2  0  0  0  0
 34 29  1  0  0  0  0
 34 59  1  0  0  0  0
 35 60  1  0  0  0  0
 35 61  1  0  0  0  0
 35 62  1  0  0  0  0
M  END
>  <Mol_ID>
94

>  <Formula>
C27H27N5O3

>  <MolWeight>
469.53498

>  <Cat>
S1167

>  <Name>
CP-724714

>  <Synonyms>
N/A

>  <Target>
EGFR,HER2

>  <Form>
free base

>  <CAS>
537705-08-1

>  <URL>
http://selleckchem.com/products/CP-724714.html

$$$$
