CP21R7 (CP21).cdx
 OpenBabel08302520003D

 39 42  0  0  0  0  0  0  0  0999 V2000
   -0.6776   -1.4028    0.0042 C   0  0  0  0  0  0  0  0  0  0  0  0
    0.6656   -1.3732   -0.0168 C   0  0  0  0  0  0  0  0  0  0  0  0
    1.0813    0.0426    0.0075 C   0  0  0  0  0  0  0  0  0  0  0  0
   -0.0455    0.7885   -0.0066 N   0  0  0  0  0  0  0  0  0  0  0  0
   -1.1460    0.0039   -0.0102 C   0  0  0  0  0  0  0  0  0  0  0  0
   -2.2986    0.3924   -0.0236 O   0  0  0  0  0  0  0  0  0  0  0  0
    2.2220    0.4594    0.0467 O   0  0  0  0  0  0  0  0  0  0  0  0
   -1.5522   -2.5176    0.0301 C   0  0  0  0  0  0  0  0  0  0  0  0
    1.5705   -2.5157   -0.0488 C   0  0  0  0  0  0  0  0  0  0  0  0
   -2.0811   -3.2384   -1.0810 C   0  0  0  0  0  0  0  0  0  0  0  0
   -2.9301   -4.2230   -0.5628 C   0  0  0  0  0  0  0  0  0  0  0  0
   -2.9026   -4.0968    0.8114 N   0  0  0  0  0  0  0  0  0  0  0  0
   -2.0544   -3.0851    1.1812 C   0  0  0  0  0  0  0  0  0  0  0  0
   -1.9356   -3.1429   -2.4811 C   0  0  0  0  0  0  0  0  0  0  0  0
   -2.6441   -4.0168   -3.3133 C   0  0  0  0  0  0  0  0  0  0  0  0
   -3.4839   -4.9856   -2.7731 C   0  0  0  0  0  0  0  0  0  0  0  0
   -3.6401   -5.1087   -1.3902 C   0  0  0  0  0  0  0  0  0  0  0  0
    1.9895   -3.0407   -1.2755 C   0  0  0  0  0  0  0  0  0  0  0  0
    2.7740   -4.1930   -1.3102 C   0  0  0  0  0  0  0  0  0  0  0  0
    3.1423   -4.8219   -0.1196 C   0  0  0  0  0  0  0  0  0  0  0  0
    2.7779   -4.2825    1.1165 C   0  0  0  0  0  0  0  0  0  0  0  0
    1.9620   -3.1463    1.1402 C   0  0  0  0  0  0  0  0  0  0  0  0
   -3.6910   -4.8926    1.7262 C   0  0  0  0  0  0  0  0  0  0  0  0
    3.0078   -5.0078    2.2931 N   0  0  0  0  0  0  0  0  0  0  0  0
   -0.0646    1.7936    0.0043 H   0  0  0  0  0  0  0  0  0  0  0  0
   -1.8988   -2.8408    2.2244 H   0  0  0  0  0  0  0  0  0  0  0  0
   -1.2858   -2.3914   -2.9182 H   0  0  0  0  0  0  0  0  0  0  0  0
   -2.5410   -3.9325   -4.3923 H   0  0  0  0  0  0  0  0  0  0  0  0
   -4.0293   -5.6546   -3.4346 H   0  0  0  0  0  0  0  0  0  0  0  0
   -4.2994   -5.8656   -0.9775 H   0  0  0  0  0  0  0  0  0  0  0  0
    1.6852   -2.5809   -2.2122 H   0  0  0  0  0  0  0  0  0  0  0  0
    3.0727   -4.6195   -2.2643 H   0  0  0  0  0  0  0  0  0  0  0  0
    3.7122   -5.7463   -0.1671 H   0  0  0  0  0  0  0  0  0  0  0  0
    1.6157   -2.7582    2.0952 H   0  0  0  0  0  0  0  0  0  0  0  0
   -4.7483   -4.7299    1.4989 H   0  0  0  0  0  0  0  0  0  0  0  0
   -3.4251   -5.9439    1.5912 H   0  0  0  0  0  0  0  0  0  0  0  0
   -3.4844   -4.5860    2.7544 H   0  0  0  0  0  0  0  0  0  0  0  0
    3.0022   -4.4412    3.1350 H   0  0  0  0  0  0  0  0  0  0  0  0
    3.8138   -5.6227    2.2453 H   0  0  0  0  0  0  0  0  0  0  0  0
  1  2  2  0  0  0  0
  1  8  1  0  0  0  0
  2  3  1  0  0  0  0
  2  9  1  0  0  0  0
  3  4  1  0  0  0  0
  3  7  2  0  0  0  0
  4  5  1  0  0  0  0
  4 25  1  0  0  0  0
  5  1  1  0  0  0  0
  5  6  2  0  0  0  0
  8 10  1  0  0  0  0
  9 18  2  0  0  0  0
 10 11  2  0  0  0  0
 10 14  1  0  0  0  0
 11 12  1  0  0  0  0
 12 13  1  0  0  0  0
 12 23  1  0  0  0  0
 13  8  2  0  0  0  0
 13 26  1  0  0  0  0
 14 15  2  0  0  0  0
 14 27  1  0  0  0  0
 15 16  1  0  0  0  0
 15 28  1  0  0  0  0
 16 17  2  0  0  0  0
 16 29  1  0  0  0  0
 17 11  1  0  0  0  0
 17 30  1  0  0  0  0
 18 19  1  0  0  0  0
 18 31  1  0  0  0  0
 19 20  2  0  0  0  0
 19 32  1  0  0  0  0
 20 21  1  0  0  0  0
 20 33  1  0  0  0  0
 21 22  2  0  0  0  0
 21 24  1  0  0  0  0
 22  9  1  0  0  0  0
 22 34  1  0  0  0  0
 23 35  1  0  0  0  0
 23 36  1  0  0  0  0
 23 37  1  0  0  0  0
 24 38  1  0  0  0  0
 24 39  1  0  0  0  0
M  END
>  <Mol_ID>
2731

>  <Formula>
C19H15N3O2

>  <MolWeight>
317.3413

>  <Cat>
S7954

>  <Name>
CP21R7 (CP21)

>  <Synonyms>
N/A

>  <Target>
GSK-3,Wnt/beta-catenin

>  <Form>
free base

>  <CAS>
125314-13-8

>  <URL>
http://selleckchem.com/products/cp21r7-cp21.html

$$$$
