CP868569.cdx
 OpenBabel08302521443D

 62 67  0  0  0  0  0  0  0  0999 V2000
    2.4242   -0.6113   -0.1108 C   0  0  0  0  0  0  0  0  0  0  0  0
    2.3449    0.7757   -0.0762 C   0  0  0  0  0  0  0  0  0  0  0  0
    1.1045    1.4480   -0.0248 C   0  0  0  0  0  0  0  0  0  0  0  0
   -0.0973    0.6934   -0.0704 C   0  0  0  0  0  0  0  0  0  0  0  0
    0.0054   -0.7165   -0.0333 C   0  0  0  0  0  0  0  0  0  0  0  0
    1.2548   -1.3555   -0.0673 C   0  0  0  0  0  0  0  0  0  0  0  0
   -1.3213    1.2701   -0.1098 N   0  0  0  0  0  0  0  0  0  0  0  0
   -2.4472    0.5146   -0.0251 C   0  0  0  0  0  0  0  0  0  0  0  0
   -2.4172   -0.8592    0.1096 C   0  0  0  0  0  0  0  0  0  0  0  0
   -1.1707   -1.4791    0.0644 C   0  0  0  0  0  0  0  0  0  0  0  0
    1.1956    2.8594    0.1635 N   0  0  0  0  0  0  0  0  0  0  0  0
    0.1048    3.7025   -0.3505 C   0  0  0  0  0  0  0  0  0  0  0  0
    0.5409    5.1719   -0.2963 C   0  0  0  0  0  0  0  0  0  0  0  0
    0.9656    5.5620    1.1252 C   0  0  0  0  0  0  0  0  0  0  0  0
    2.0219    4.5938    1.6637 C   0  0  0  0  0  0  0  0  0  0  0  0
    1.5146    3.1579    1.5737 C   0  0  0  0  0  0  0  0  0  0  0  0
   -3.6880    1.2025   -0.0830 N   0  0  0  0  0  0  0  0  0  0  0  0
   -4.8526    0.8787    0.5730 C   0  0  0  0  0  0  0  0  0  0  0  0
   -5.7863    1.7952    0.4198 N   0  0  0  0  0  0  0  0  0  0  0  0
   -5.2313    2.7381   -0.4146 C   0  0  0  0  0  0  0  0  0  0  0  0
   -3.9434    2.3692   -0.7847 C   0  0  0  0  0  0  0  0  0  0  0  0
   -5.7746    3.9364   -0.9157 C   0  0  0  0  0  0  0  0  0  0  0  0
   -5.0130    4.7181   -1.7975 C   0  0  0  0  0  0  0  0  0  0  0  0
   -3.7638    4.2650   -2.2297 C   0  0  0  0  0  0  0  0  0  0  0  0
   -3.2042    3.0878   -1.7294 C   0  0  0  0  0  0  0  0  0  0  0  0
   -5.5861    5.9037   -2.2002 O   0  0  0  0  0  0  0  0  0  0  0  0
   -4.6521    6.8903   -2.6644 C   0  0  0  0  0  0  0  0  0  0  0  0
   -5.3576    8.2232   -2.8785 C   0  0  0  0  0  0  0  0  0  0  0  0
   -6.3858    8.2802   -4.0251 C   0  0  0  0  0  0  0  0  0  0  0  0
   -5.7451    9.4711   -4.5646 O   0  0  0  0  0  0  0  0  0  0  0  0
   -4.5533    9.1745   -3.7899 C   0  0  0  0  0  0  0  0  0  0  0  0
   -5.8204    8.8872   -1.5857 C   0  0  0  0  0  0  0  0  0  0  0  0
    1.4729    6.9384    1.1469 N   0  0  0  0  0  0  0  0  0  0  0  0
    3.3932   -1.1015   -0.1415 H   0  0  0  0  0  0  0  0  0  0  0  0
    3.2647    1.3583   -0.0757 H   0  0  0  0  0  0  0  0  0  0  0  0
    1.3250   -2.4408   -0.0575 H   0  0  0  0  0  0  0  0  0  0  0  0
   -3.3127   -1.4637    0.1717 H   0  0  0  0  0  0  0  0  0  0  0  0
   -1.1181   -2.5650    0.1201 H   0  0  0  0  0  0  0  0  0  0  0  0
   -0.1149    3.4468   -1.3927 H   0  0  0  0  0  0  0  0  0  0  0  0
   -0.8056    3.5956    0.2503 H   0  0  0  0  0  0  0  0  0  0  0  0
    1.3725    5.3279   -0.9958 H   0  0  0  0  0  0  0  0  0  0  0  0
   -0.2864    5.8102   -0.6308 H   0  0  0  0  0  0  0  0  0  0  0  0
    0.0845    5.5232    1.7781 H   0  0  0  0  0  0  0  0  0  0  0  0
    2.9495    4.6847    1.0824 H   0  0  0  0  0  0  0  0  0  0  0  0
    2.2675    4.8312    2.7054 H   0  0  0  0  0  0  0  0  0  0  0  0
    0.6244    3.0248    2.2038 H   0  0  0  0  0  0  0  0  0  0  0  0
    2.2955    2.4970    1.9685 H   0  0  0  0  0  0  0  0  0  0  0  0
   -4.9447    0.0057    1.2042 H   0  0  0  0  0  0  0  0  0  0  0  0
   -6.7670    4.2484   -0.6087 H   0  0  0  0  0  0  0  0  0  0  0  0
   -3.1845    4.8052   -2.9715 H   0  0  0  0  0  0  0  0  0  0  0  0
   -2.2357    2.7422   -2.0761 H   0  0  0  0  0  0  0  0  0  0  0  0
   -3.8496    7.0192   -1.9256 H   0  0  0  0  0  0  0  0  0  0  0  0
   -4.2180    6.5530   -3.6128 H   0  0  0  0  0  0  0  0  0  0  0  0
   -6.3538    7.4637   -4.7540 H   0  0  0  0  0  0  0  0  0  0  0  0
   -7.4224    8.4727   -3.7351 H   0  0  0  0  0  0  0  0  0  0  0  0
   -4.1327   10.0646   -3.3136 H   0  0  0  0  0  0  0  0  0  0  0  0
   -3.7894    8.7158   -4.4284 H   0  0  0  0  0  0  0  0  0  0  0  0
   -6.5360    8.2554   -1.0506 H   0  0  0  0  0  0  0  0  0  0  0  0
   -4.9713    9.0801   -0.9210 H   0  0  0  0  0  0  0  0  0  0  0  0
   -6.3090    9.8491   -1.7809 H   0  0  0  0  0  0  0  0  0  0  0  0
    1.7757    7.1742    2.0919 H   0  0  0  0  0  0  0  0  0  0  0  0
    2.3103    6.9990    0.5666 H   0  0  0  0  0  0  0  0  0  0  0  0
  1  2  2  0  0  0  0
  1 34  1  0  0  0  0
  2  3  1  0  0  0  0
  2 35  1  0  0  0  0
  3  4  2  0  0  0  0
  3 11  1  0  0  0  0
  4  5  1  0  0  0  0
  4  7  1  0  0  0  0
  5  6  2  0  0  0  0
  6  1  1  0  0  0  0
  6 36  1  0  0  0  0
  7  8  2  0  0  0  0
  8  9  1  0  0  0  0
  8 17  1  0  0  0  0
  9 10  2  0  0  0  0
  9 37  1  0  0  0  0
 10  5  1  0  0  0  0
 10 38  1  0  0  0  0
 11 12  1  0  0  0  0
 12 13  1  0  0  0  0
 12 39  1  0  0  0  0
 12 40  1  0  0  0  0
 13 14  1  0  0  0  0
 13 41  1  0  0  0  0
 13 42  1  0  0  0  0
 14 15  1  0  0  0  0
 14 33  1  0  0  0  0
 14 43  1  0  0  0  0
 15 16  1  0  0  0  0
 15 44  1  0  0  0  0
 15 45  1  0  0  0  0
 16 11  1  0  0  0  0
 16 46  1  0  0  0  0
 16 47  1  0  0  0  0
 17 18  1  0  0  0  0
 18 19  2  0  0  0  0
 18 48  1  0  0  0  0
 19 20  1  0  0  0  0
 20 21  2  0  0  0  0
 20 22  1  0  0  0  0
 21 17  1  0  0  0  0
 22 23  2  0  0  0  0
 22 49  1  0  0  0  0
 23 24  1  0  0  0  0
 23 26  1  0  0  0  0
 24 25  2  0  0  0  0
 24 50  1  0  0  0  0
 25 21  1  0  0  0  0
 25 51  1  0  0  0  0
 26 27  1  0  0  0  0
 27 28  1  0  0  0  0
 27 52  1  0  0  0  0
 27 53  1  0  0  0  0
 28 29  1  0  0  0  0
 28 32  1  0  0  0  0
 29 30  1  0  0  0  0
 29 54  1  0  0  0  0
 29 55  1  0  0  0  0
 30 31  1  0  0  0  0
 31 28  1  0  0  0  0
 31 56  1  0  0  0  0
 31 57  1  0  0  0  0
 32 58  1  0  0  0  0
 32 59  1  0  0  0  0
 32 60  1  0  0  0  0
 33 61  1  0  0  0  0
 33 62  1  0  0  0  0
M  END
>  <Mol_ID>
896

>  <Formula>
C26H29N5O2

>  <MolWeight>
443.54076

>  <Cat>
S2730

>  <Name>
Crenolanib (CP-868596)

>  <Synonyms>
ARO 002

>  <Target>
FLT3,Mitophagy,PDGFR

>  <Form>
free base

>  <CAS>
670220-88-9

>  <URL>
http://selleckchem.com/products/crenolanib-cp-868596.html

$$$$
