CP 43
 OpenBabel08302521313D

 53 56  0  0  0  0  0  0  0  0999 V2000
    1.5581   -0.9397    0.5840 O   0  0  0  0  0  0  0  0  0  0  0  0
    3.8728   -0.9526   -3.7236 O   0  0  0  0  0  0  0  0  0  0  0  0
    2.5250    1.1249    0.8580 N   0  0  0  0  0  0  0  0  0  0  0  0
    2.6177   -1.3569   -1.8598 N   0  0  0  0  0  0  0  0  0  0  0  0
    1.9344    1.3973    2.1632 C   0  0  3  0  0  0  0  0  0  0  0  0
    0.5882    2.1227    2.0108 C   0  0  0  0  0  0  0  0  0  0  0  0
    0.7946    3.5905    1.6448 C   0  0  0  0  0  0  0  0  0  0  0  0
    1.5417    4.3154    2.7611 C   0  0  0  0  0  0  0  0  0  0  0  0
    2.9239    2.1878    2.9999 C   0  0  0  0  0  0  0  0  0  0  0  0
    2.7584    3.5654    3.2438 C   0  0  0  0  0  0  0  0  0  0  0  0
    4.0589    1.5341    3.5113 C   0  0  0  0  0  0  0  0  0  0  0  0
    3.7149    4.2506    4.0096 C   0  0  0  0  0  0  0  0  0  0  0  0
    5.0083    2.2301    4.2585 C   0  0  0  0  0  0  0  0  0  0  0  0
    4.8358    3.5878    4.5081 C   0  0  0  0  0  0  0  0  0  0  0  0
    2.2725   -0.0331    0.1582 C   0  0  0  0  0  0  0  0  0  0  0  0
    2.9653   -0.1104   -1.2047 C   0  0  0  0  0  0  0  0  0  0  0  0
    3.1362   -1.6930   -3.0867 C   0  0  0  0  0  0  0  0  0  0  0  0
    2.7525   -3.0280   -3.6277 C   0  0  0  0  0  0  0  0  0  0  0  0
    2.2640   -5.5968   -4.7549 C   0  0  0  0  0  0  0  0  0  0  0  0
    2.4843   -4.1233   -2.8017 C   0  0  0  0  0  0  0  0  0  0  0  0
    2.7352   -3.2022   -5.0116 C   0  0  0  0  0  0  0  0  0  0  0  0
    2.2515   -5.3910   -3.3623 C   0  0  0  0  0  0  0  0  0  0  0  0
    2.4739   -4.4614   -5.5615 C   0  0  0  0  0  0  0  0  0  0  0  0
    2.1119   -6.9474   -5.3584 C   0  0  0  0  0  0  0  0  0  0  0  0
    1.3516   -7.9631   -4.7518 C   0  0  0  0  0  0  0  0  0  0  0  0
    2.7479   -7.2717   -6.5745 C   0  0  0  0  0  0  0  0  0  0  0  0
    1.2255   -9.2310   -5.3360 C   0  0  0  0  0  0  0  0  0  0  0  0
    2.6112   -8.5298   -7.1689 C   0  0  0  0  0  0  0  0  0  0  0  0
    1.8485   -9.5108   -6.5483 C   0  0  0  0  0  0  0  0  0  0  0  0
    3.0560    1.8686    0.4217 H   0  0  0  0  0  0  0  0  0  0  0  0
    1.8979   -1.9177   -1.4181 H   0  0  0  0  0  0  0  0  0  0  0  0
    1.7371    0.4398    2.6623 H   0  0  0  0  0  0  0  0  0  0  0  0
    0.0347    2.0701    2.9581 H   0  0  0  0  0  0  0  0  0  0  0  0
   -0.0327    1.6333    1.2514 H   0  0  0  0  0  0  0  0  0  0  0  0
    1.3586    3.6668    0.7071 H   0  0  0  0  0  0  0  0  0  0  0  0
   -0.1721    4.0775    1.4749 H   0  0  0  0  0  0  0  0  0  0  0  0
    1.8341    5.3095    2.4022 H   0  0  0  0  0  0  0  0  0  0  0  0
    0.8684    4.4577    3.6159 H   0  0  0  0  0  0  0  0  0  0  0  0
    4.2053    0.4718    3.3240 H   0  0  0  0  0  0  0  0  0  0  0  0
    3.5887    5.3100    4.2234 H   0  0  0  0  0  0  0  0  0  0  0  0
    5.8813    1.7119    4.6464 H   0  0  0  0  0  0  0  0  0  0  0  0
    5.5724    4.1311    5.0945 H   0  0  0  0  0  0  0  0  0  0  0  0
    2.6436    0.7242   -1.8353 H   0  0  0  0  0  0  0  0  0  0  0  0
    4.0518   -0.0742   -1.0723 H   0  0  0  0  0  0  0  0  0  0  0  0
    2.5061   -4.0293   -1.7192 H   0  0  0  0  0  0  0  0  0  0  0  0
    2.9406   -2.3618   -5.6722 H   0  0  0  0  0  0  0  0  0  0  0  0
    2.1018   -6.2264   -2.6815 H   0  0  0  0  0  0  0  0  0  0  0  0
    2.4542   -4.5433   -6.6469 H   0  0  0  0  0  0  0  0  0  0  0  0
    0.8322   -7.7834   -3.8139 H   0  0  0  0  0  0  0  0  0  0  0  0
    3.3807   -6.5449   -7.0794 H   0  0  0  0  0  0  0  0  0  0  0  0
    0.6342   -9.9985   -4.8426 H   0  0  0  0  0  0  0  0  0  0  0  0
    3.1066   -8.7374   -8.1135 H   0  0  0  0  0  0  0  0  0  0  0  0
    1.7431  -10.4899   -7.0064 H   0  0  0  0  0  0  0  0  0  0  0  0
  1 15  2  0  0  0  0
  2 17  2  0  0  0  0
  3  5  1  0  0  0  0
  3 15  1  0  0  0  0
  3 30  1  0  0  0  0
  4 16  1  0  0  0  0
  4 17  1  0  0  0  0
  4 31  1  0  0  0  0
  5  6  1  0  0  0  0
  5  9  1  0  0  0  0
  5 32  1  0  0  0  0
  6  7  1  0  0  0  0
  6 33  1  0  0  0  0
  6 34  1  0  0  0  0
  7  8  1  0  0  0  0
  7 35  1  0  0  0  0
  7 36  1  0  0  0  0
  8 10  1  0  0  0  0
  8 37  1  0  0  0  0
  8 38  1  0  0  0  0
  9 10  2  0  0  0  0
  9 11  1  0  0  0  0
 10 12  1  0  0  0  0
 11 13  2  0  0  0  0
 11 39  1  0  0  0  0
 12 14  2  0  0  0  0
 12 40  1  0  0  0  0
 13 14  1  0  0  0  0
 13 41  1  0  0  0  0
 14 42  1  0  0  0  0
 15 16  1  0  0  0  0
 16 43  1  0  0  0  0
 16 44  1  0  0  0  0
 17 18  1  0  0  0  0
 18 20  2  0  0  0  0
 18 21  1  0  0  0  0
 19 22  2  0  0  0  0
 19 23  1  0  0  0  0
 19 24  1  0  0  0  0
 20 22  1  0  0  0  0
 20 45  1  0  0  0  0
 21 23  2  0  0  0  0
 21 46  1  0  0  0  0
 22 47  1  0  0  0  0
 23 48  1  0  0  0  0
 24 25  2  0  0  0  0
 24 26  1  0  0  0  0
 25 27  1  0  0  0  0
 25 49  1  0  0  0  0
 26 28  2  0  0  0  0
 26 50  1  0  0  0  0
 27 29  2  0  0  0  0
 27 51  1  0  0  0  0
 28 29  1  0  0  0  0
 28 52  1  0  0  0  0
 29 53  1  0  0  0  0
M  END
>  <Mol_ID>
6012

>  <Formula>
C25H24N2O2

>  <MolWeight>
384.47026

>  <Cat>
S6177

>  <Name>
CP 43

>  <Synonyms>
Compound 43, TAO Kinase inhibitor 1, TAOK inhibitor 43,

>  <Target>
ERK

>  <Form>
Free Base

>  <CAS>
850467-66-2

>  <URL>
http://www.selleckchem.com/products/cp-43.html

$$$$
