CP 640186
 OpenBabel08302521233D

 71 76  0  0  0  0  0  0  0  0999 V2000
    1.1374   -0.2120    0.1065 C   0  0  0  0  0  0  0  0  0  0  0  0
    1.3388    0.5559   -0.8345 O   0  0  0  0  0  0  0  0  0  0  0  0
   -3.6055   -3.1872   -0.2159 N   0  0  3  0  0  0  0  0  0  0  0  0
   -4.3821   -2.0215    0.2444 C   0  0  0  0  0  0  0  0  0  0  0  0
   -5.8483   -2.3456    0.5008 C   0  0  1  0  0  0  0  0  0  0  0  0
   -6.4545   -2.9436   -0.7620 C   0  0  0  0  0  0  0  0  0  0  0  0
   -5.6410   -4.0666   -1.3864 C   0  0  0  0  0  0  0  0  0  0  0  0
   -4.1452   -3.7650   -1.4504 C   0  0  0  0  0  0  0  0  0  0  0  0
    0.2327   -1.2780   -0.0405 N   0  0  0  0  0  0  0  0  0  0  0  0
   -0.2931   -1.5566   -1.3718 C   0  0  0  0  0  0  0  0  0  0  0  0
   -1.7930   -1.7986   -1.3327 C   0  0  0  0  0  0  0  0  0  0  0  0
   -2.1581   -2.9201   -0.3412 C   0  0  0  0  0  0  0  0  0  0  0  0
   -1.5711   -2.6325    1.0420 C   0  0  0  0  0  0  0  0  0  0  0  0
   -0.1063   -2.3037    0.9648 C   0  0  0  0  0  0  0  0  0  0  0  0
   -5.9950   -3.1628    1.7943 C   0  0  0  0  0  0  0  0  0  0  0  0
   -6.1205   -4.3883    1.7646 O   0  0  0  0  0  0  0  0  0  0  0  0
   -5.9218   -2.4718    3.0034 N   0  0  0  0  0  0  0  0  0  0  0  0
   -5.8985   -1.0169    3.1979 C   0  0  0  0  0  0  0  0  0  0  0  0
   -4.7020   -0.6241    4.0688 C   0  0  0  0  0  0  0  0  0  0  0  0
   -4.7440   -1.3084    5.3296 O   0  0  0  0  0  0  0  0  0  0  0  0
   -4.7256   -2.7355    5.1399 C   0  0  0  0  0  0  0  0  0  0  0  0
   -5.9060   -3.2055    4.2754 C   0  0  0  0  0  0  0  0  0  0  0  0
    2.6427   -2.3578    1.6683 C   0  0  0  0  0  0  0  0  0  0  0  0
    2.8544   -3.4275    2.5395 C   0  0  0  0  0  0  0  0  0  0  0  0
    3.0640   -3.1825    3.8862 C   0  0  0  0  0  0  0  0  0  0  0  0
    3.1271   -1.8670    4.3315 C   0  0  0  0  0  0  0  0  0  0  0  0
    2.8404   -0.7947    3.4747 C   0  0  0  0  0  0  0  0  0  0  0  0
    2.9208    0.5185    3.9444 C   0  0  0  0  0  0  0  0  0  0  0  0
    2.5595    1.6121    3.1561 C   0  0  0  0  0  0  0  0  0  0  0  0
    2.7750    2.9063    3.6602 C   0  0  0  0  0  0  0  0  0  0  0  0
    2.4128    4.0350    2.9398 C   0  0  0  0  0  0  0  0  0  0  0  0
    1.7865    3.8852    1.7150 C   0  0  0  0  0  0  0  0  0  0  0  0
    1.5551    2.5970    1.2073 C   0  0  0  0  0  0  0  0  0  0  0  0
    1.9707    1.4093    1.8797 C   0  0  0  0  0  0  0  0  0  0  0  0
    1.8753    0.0541    1.3997 C   0  0  0  0  0  0  0  0  0  0  0  0
    2.4557   -1.0310    2.1374 C   0  0  0  0  0  0  0  0  0  0  0  0
   -4.3248   -1.2137   -0.4890 H   0  0  0  0  0  0  0  0  0  0  0  0
   -3.9655   -1.6300    1.1756 H   0  0  0  0  0  0  0  0  0  0  0  0
   -6.3979   -1.4118    0.6483 H   0  0  0  0  0  0  0  0  0  0  0  0
   -7.4829   -3.2910   -0.5704 H   0  0  0  0  0  0  0  0  0  0  0  0
   -6.5357   -2.1385   -1.5012 H   0  0  0  0  0  0  0  0  0  0  0  0
   -5.8091   -5.0009   -0.8409 H   0  0  0  0  0  0  0  0  0  0  0  0
   -6.0010   -4.2311   -2.4102 H   0  0  0  0  0  0  0  0  0  0  0  0
   -3.6254   -4.7033   -1.6733 H   0  0  0  0  0  0  0  0  0  0  0  0
   -3.9744   -3.0957   -2.3025 H   0  0  0  0  0  0  0  0  0  0  0  0
    0.2326   -2.4374   -1.7600 H   0  0  0  0  0  0  0  0  0  0  0  0
   -0.0899   -0.7335   -2.0637 H   0  0  0  0  0  0  0  0  0  0  0  0
   -2.1269   -2.0464   -2.3447 H   0  0  0  0  0  0  0  0  0  0  0  0
   -2.2793   -0.8610   -1.0451 H   0  0  0  0  0  0  0  0  0  0  0  0
   -1.6767   -3.8453   -0.6911 H   0  0  0  0  0  0  0  0  0  0  0  0
   -2.0523   -1.7788    1.5305 H   0  0  0  0  0  0  0  0  0  0  0  0
   -1.7141   -3.4983    1.7017 H   0  0  0  0  0  0  0  0  0  0  0  0
    0.1788   -1.9835    1.9600 H   0  0  0  0  0  0  0  0  0  0  0  0
    0.4277   -3.2237    0.6869 H   0  0  0  0  0  0  0  0  0  0  0  0
   -6.8321   -0.7597    3.7138 H   0  0  0  0  0  0  0  0  0  0  0  0
   -5.8709   -0.4582    2.2647 H   0  0  0  0  0  0  0  0  0  0  0  0
   -3.7556   -0.8561    3.5660 H   0  0  0  0  0  0  0  0  0  0  0  0
   -4.7229    0.4518    4.2679 H   0  0  0  0  0  0  0  0  0  0  0  0
   -4.7758   -3.1967    6.1310 H   0  0  0  0  0  0  0  0  0  0  0  0
   -3.7689   -3.0161    4.6842 H   0  0  0  0  0  0  0  0  0  0  0  0
   -6.8492   -2.9728    4.7850 H   0  0  0  0  0  0  0  0  0  0  0  0
   -5.8579   -4.2874    4.1247 H   0  0  0  0  0  0  0  0  0  0  0  0
    2.5126   -2.5783    0.6094 H   0  0  0  0  0  0  0  0  0  0  0  0
    2.8172   -4.4480    2.1666 H   0  0  0  0  0  0  0  0  0  0  0  0
    3.2018   -4.0065    4.5813 H   0  0  0  0  0  0  0  0  0  0  0  0
    3.3626   -1.6842    5.3787 H   0  0  0  0  0  0  0  0  0  0  0  0
    3.2866    0.6881    4.9512 H   0  0  0  0  0  0  0  0  0  0  0  0
    3.2546    3.0445    4.6309 H   0  0  0  0  0  0  0  0  0  0  0  0
    2.6195    5.0263    3.3334 H   0  0  0  0  0  0  0  0  0  0  0  0
    1.4922    4.7577    1.1407 H   0  0  0  0  0  0  0  0  0  0  0  0
    1.0682    2.5432    0.2363 H   0  0  0  0  0  0  0  0  0  0  0  0
  1  2  2  0  0  0  0
  1  9  1  0  0  0  0
  1 35  1  0  0  0  0
  3  4  1  0  0  0  0
  3  8  1  0  0  0  0
  3 12  1  0  0  0  0
  4  5  1  0  0  0  0
  4 37  1  0  0  0  0
  4 38  1  0  0  0  0
  5  6  1  0  0  0  0
  5 39  1  1  0  0  0
  5 15  1  0  0  0  0
  6  7  1  0  0  0  0
  6 40  1  0  0  0  0
  6 41  1  0  0  0  0
  7  8  1  0  0  0  0
  7 42  1  0  0  0  0
  7 43  1  0  0  0  0
  8 44  1  0  0  0  0
  8 45  1  0  0  0  0
  9 10  1  0  0  0  0
  9 14  1  0  0  0  0
 10 11  1  0  0  0  0
 10 46  1  0  0  0  0
 10 47  1  0  0  0  0
 11 12  1  0  0  0  0
 11 48  1  0  0  0  0
 11 49  1  0  0  0  0
 12 13  1  0  0  0  0
 12 50  1  0  0  0  0
 13 14  1  0  0  0  0
 13 51  1  0  0  0  0
 13 52  1  0  0  0  0
 14 53  1  0  0  0  0
 14 54  1  0  0  0  0
 15 16  2  0  0  0  0
 15 17  1  0  0  0  0
 17 18  1  0  0  0  0
 17 22  1  0  0  0  0
 18 19  1  0  0  0  0
 18 55  1  0  0  0  0
 18 56  1  0  0  0  0
 19 20  1  0  0  0  0
 19 57  1  0  0  0  0
 19 58  1  0  0  0  0
 20 21  1  0  0  0  0
 21 22  1  0  0  0  0
 21 59  1  0  0  0  0
 21 60  1  0  0  0  0
 22 61  1  0  0  0  0
 22 62  1  0  0  0  0
 23 24  2  0  0  0  0
 23 36  1  0  0  0  0
 23 63  1  0  0  0  0
 24 25  1  0  0  0  0
 24 64  1  0  0  0  0
 25 26  2  0  0  0  0
 25 65  1  0  0  0  0
 26 27  1  0  0  0  0
 26 66  1  0  0  0  0
 27 28  1  0  0  0  0
 27 36  2  0  0  0  0
 28 29  2  0  0  0  0
 28 67  1  0  0  0  0
 29 30  1  0  0  0  0
 29 34  1  0  0  0  0
 30 31  2  0  0  0  0
 30 68  1  0  0  0  0
 31 32  1  0  0  0  0
 31 69  1  0  0  0  0
 32 33  2  0  0  0  0
 32 70  1  0  0  0  0
 33 34  1  0  0  0  0
 33 71  1  0  0  0  0
 34 35  2  0  0  0  0
 35 36  1  0  0  0  0
M  END
>  <Mol_ID>
4796

>  <Formula>
C30H35N3O3

>  <MolWeight>
485.6172

>  <Cat>
S6753

>  <Name>
CP 640186

>  <Synonyms>
N/A

>  <Target>
Acetyl-CoA carboxylase

>  <Form>
Free Base

>  <CAS>
591778-68-6

>  <URL>
http://www.selleck.cn/products/cp-640186.html

$$$$
