CPI-444.cdx
 OpenBabel08302520433D

 35 38  0  0  0  0  0  0  0  0999 V2000
   -0.2945    0.7280   -0.0280 C   0  0  0  0  0  0  0  0  0  0  0  0
   -0.2338   -0.6535   -0.0105 C   0  0  0  0  0  0  0  0  0  0  0  0
    0.8815   -1.3988    0.0492 N   0  0  0  0  0  0  0  0  0  0  0  0
    1.9989   -0.6585    0.1175 C   0  0  0  0  0  0  0  0  0  0  0  0
    2.0750    0.6824    0.1127 N   0  0  0  0  0  0  0  0  0  0  0  0
    0.9218    1.3925    0.0559 C   0  0  0  0  0  0  0  0  0  0  0  0
   -1.6689    1.0252   -0.1082 C   0  0  0  0  0  0  0  0  0  0  0  0
   -2.4363   -0.0675   -0.1451 N   0  0  0  0  0  0  0  0  0  0  0  0
   -1.5377   -1.0818   -0.0342 N   0  0  0  0  0  0  0  0  0  0  0  0
   -2.0157   -2.4548    0.0232 C   0  0  0  0  0  0  0  0  0  0  0  0
   -2.3170   -2.8979    1.4325 C   0  0  0  0  0  0  0  0  0  0  0  0
    3.1971   -1.3405    0.1861 N   0  0  0  0  0  0  0  0  0  0  0  0
    1.0016    2.8351    0.1862 C   0  0  0  0  0  0  0  0  0  0  0  0
   -0.1758    3.5272    0.1061 O   0  0  0  0  0  0  0  0  0  0  0  0
    0.0960    4.8341    0.3366 C   0  0  0  0  0  0  0  0  0  0  0  0
    1.4427    5.0080    0.5503 C   0  0  0  0  0  0  0  0  0  0  0  0
    2.0312    3.7231    0.4343 C   0  0  0  0  0  0  0  0  0  0  0  0
   -3.2540   -2.2278    2.2366 C   0  0  0  0  0  0  0  0  0  0  0  0
   -3.5250   -2.6727    3.5348 C   0  0  0  0  0  0  0  0  0  0  0  0
   -2.8760   -3.7973    4.0397 C   0  0  0  0  0  0  0  0  0  0  0  0
   -1.9583   -4.4803    3.2459 C   0  0  0  0  0  0  0  0  0  0  0  0
   -1.6881   -4.0280    1.9556 C   0  0  0  0  0  0  0  0  0  0  0  0
   -0.8142   -4.7145    1.2058 F   0  0  0  0  0  0  0  0  0  0  0  0
   -2.1474    1.9953   -0.1472 H   0  0  0  0  0  0  0  0  0  0  0  0
   -2.9247   -2.5157   -0.5865 H   0  0  0  0  0  0  0  0  0  0  0  0
   -1.2591   -3.0838   -0.4583 H   0  0  0  0  0  0  0  0  0  0  0  0
    3.0981   -2.2737   -0.1882 H   0  0  0  0  0  0  0  0  0  0  0  0
    3.9508   -0.7688   -0.1671 H   0  0  0  0  0  0  0  0  0  0  0  0
   -0.7561    5.4972    0.3302 H   0  0  0  0  0  0  0  0  0  0  0  0
    1.9358    5.9438    0.7739 H   0  0  0  0  0  0  0  0  0  0  0  0
    3.0730    3.4598    0.5544 H   0  0  0  0  0  0  0  0  0  0  0  0
   -3.7779   -1.3507    1.8612 H   0  0  0  0  0  0  0  0  0  0  0  0
   -4.2449   -2.1377    4.1491 H   0  0  0  0  0  0  0  0  0  0  0  0
   -3.0893   -4.1435    5.0477 H   0  0  0  0  0  0  0  0  0  0  0  0
   -1.4507   -5.3644    3.6198 H   0  0  0  0  0  0  0  0  0  0  0  0
  1  2  1  0  0  0  0
  1  7  1  0  0  0  0
  2  3  2  0  0  0  0
  3  4  1  0  0  0  0
  4  5  2  0  0  0  0
  4 12  1  0  0  0  0
  5  6  1  0  0  0  0
  6  1  2  0  0  0  0
  6 13  1  0  0  0  0
  7  8  2  0  0  0  0
  7 24  1  0  0  0  0
  8  9  1  0  0  0  0
  9  2  1  0  0  0  0
  9 10  1  0  0  0  0
 10 11  1  0  0  0  0
 10 25  1  0  0  0  0
 10 26  1  0  0  0  0
 11 18  2  0  0  0  0
 12 27  1  0  0  0  0
 12 28  1  0  0  0  0
 13 14  1  0  0  0  0
 14 15  1  0  0  0  0
 15 16  2  0  0  0  0
 15 29  1  0  0  0  0
 16 17  1  0  0  0  0
 16 30  1  0  0  0  0
 17 13  2  0  0  0  0
 17 31  1  0  0  0  0
 18 19  1  0  0  0  0
 18 32  1  0  0  0  0
 19 20  2  0  0  0  0
 19 33  1  0  0  0  0
 20 21  1  0  0  0  0
 20 34  1  0  0  0  0
 21 22  2  0  0  0  0
 21 35  1  0  0  0  0
 22 11  1  0  0  0  0
 22 23  1  0  0  0  0
M  END
>  <Mol_ID>
4165

>  <Formula>
C16H12FN5O

>  <MolWeight>
309.2977832

>  <Cat>
S8575

>  <Name>
A2AR antagonist 1

>  <Synonyms>
N/A

>  <Target>
Adenosine Receptor

>  <Form>
free base

>  <CAS>
443103-97-7

>  <URL>
http://selleckchem.com/products/a2ar-antagonist-1.html

$$$$
