CPTH2
 OpenBabel08302521283D

 33 35  0  0  0  0  0  0  0  0999 V2000
   -1.0742    0.0123    0.4079 S   0  0  0  0  0  0  0  0  0  0  0  0
    0.7352   -3.4526   -0.1029 N   0  0  0  0  0  0  0  0  0  0  0  0
   -0.1338   -2.4061   -0.1340 N   0  0  0  0  0  0  0  0  0  0  0  0
    1.4021   -0.5649    0.0275 N   0  0  0  0  0  0  0  0  0  0  0  0
   -1.0545   -6.4007   -1.2074 C   0  0  0  0  0  0  0  0  0  0  0  0
    0.0596   -6.9621   -0.3333 C   0  0  0  0  0  0  0  0  0  0  0  0
   -1.1658   -4.9397   -0.7907 C   0  0  0  0  0  0  0  0  0  0  0  0
    1.1100   -5.8562   -0.2981 C   0  0  0  0  0  0  0  0  0  0  0  0
    0.2508   -4.6242   -0.3777 C   0  0  0  0  0  0  0  0  0  0  0  0
    0.2037   -1.1063    0.0709 C   0  0  0  0  0  0  0  0  0  0  0  0
    1.3236    0.8119    0.1805 C   0  0  0  0  0  0  0  0  0  0  0  0
    2.4980    1.6698    0.0671 C   0  0  0  0  0  0  0  0  0  0  0  0
    0.0552    1.2914    0.4490 C   0  0  0  0  0  0  0  0  0  0  0  0
    2.3965    2.9923   -0.3932 C   0  0  0  0  0  0  0  0  0  0  0  0
    3.7651    1.1711    0.4007 C   0  0  0  0  0  0  0  0  0  0  0  0
    3.5263    3.8050   -0.4930 C   0  0  0  0  0  0  0  0  0  0  0  0
    4.8963    1.9844    0.3075 C   0  0  0  0  0  0  0  0  0  0  0  0
    4.7779    3.3021   -0.1377 C   0  0  0  0  0  0  0  0  0  0  0  0
   -1.1323   -2.5889   -0.1221 H   0  0  0  0  0  0  0  0  0  0  0  0
   -1.9982   -6.9369   -1.0759 H   0  0  0  0  0  0  0  0  0  0  0  0
   -0.7706   -6.4686   -2.2645 H   0  0  0  0  0  0  0  0  0  0  0  0
   -0.3216   -7.1519    0.6779 H   0  0  0  0  0  0  0  0  0  0  0  0
    0.4600   -7.9018   -0.7253 H   0  0  0  0  0  0  0  0  0  0  0  0
   -1.8268   -4.8205    0.0735 H   0  0  0  0  0  0  0  0  0  0  0  0
   -1.5021   -4.3074   -1.6156 H   0  0  0  0  0  0  0  0  0  0  0  0
    1.7640   -5.8958   -1.1747 H   0  0  0  0  0  0  0  0  0  0  0  0
    1.7055   -5.8795    0.6171 H   0  0  0  0  0  0  0  0  0  0  0  0
   -0.2617    2.3040    0.6441 H   0  0  0  0  0  0  0  0  0  0  0  0
    1.4369    3.4038   -0.6999 H   0  0  0  0  0  0  0  0  0  0  0  0
    3.8711    0.1420    0.7400 H   0  0  0  0  0  0  0  0  0  0  0  0
    3.4340    4.8245   -0.8530 H   0  0  0  0  0  0  0  0  0  0  0  0
    5.8720    1.5876    0.5717 H   0  0  0  0  0  0  0  0  0  0  0  0
    5.6584    3.9338   -0.2134 H   0  0  0  0  0  0  0  0  0  0  0  0
  1 10  1  0  0  0  0
  1 13  1  0  0  0  0
  2  3  1  0  0  0  0
  2  9  2  0  0  0  0
  3 10  1  0  0  0  0
  3 19  1  0  0  0  0
  4 10  2  0  0  0  0
  4 11  1  0  0  0  0
  5  6  1  0  0  0  0
  5  7  1  0  0  0  0
  5 20  1  0  0  0  0
  5 21  1  0  0  0  0
  6  8  1  0  0  0  0
  6 22  1  0  0  0  0
  6 23  1  0  0  0  0
  7  9  1  0  0  0  0
  7 24  1  0  0  0  0
  7 25  1  0  0  0  0
  8  9  1  0  0  0  0
  8 26  1  0  0  0  0
  8 27  1  0  0  0  0
 11 12  1  0  0  0  0
 11 13  2  0  0  0  0
 12 14  2  0  0  0  0
 12 15  1  0  0  0  0
 13 28  1  0  0  0  0
 14 16  1  0  0  0  0
 14 29  1  0  0  0  0
 15 17  2  0  0  0  0
 15 30  1  0  0  0  0
 16 18  2  0  0  0  0
 16 31  1  0  0  0  0
 17 18  1  0  0  0  0
 17 32  1  0  0  0  0
 18 33  1  0  0  0  0
M  END
>  <Mol_ID>
5415

>  <Formula>
C14H14ClN3S

>  <MolWeight>
291.79906

>  <Cat>
S1242

>  <Name>
CPTH2

>  <Synonyms>
N/A

>  <Target>
Apoptosis related,Histone Acetyltransferase

>  <Form>
Free Base

>  <CAS>
357649-93-5

>  <URL>
https://www.selleckchem.com/products/cpth2.html

$$$$
