CQ31
 OpenBabel08302521333D

 43 43  0  0  0  0  0  0  0  0999 V2000
    1.9595    4.3904    1.1152 C   0  0  0  0  0  0  0  0  0  0  0  0
    1.0570    3.5553    2.0271 C   0  0  0  0  0  0  0  0  0  0  0  0
    1.3969    2.0515    1.8885 C   0  0  0  0  0  0  0  0  0  0  0  0
    1.1753    4.0545    3.4683 C   0  0  0  0  0  0  0  0  0  0  0  0
    0.5575    1.1034    2.7777 C   0  0  2  0  0  0  0  0  0  0  0  0
    0.9529   -0.3877    2.6024 C   0  0  1  0  0  0  0  0  0  0  0  0
   -0.8817    1.2638    2.4801 N   0  0  0  0  0  0  0  0  0  0  0  0
    2.3552   -0.7481    3.1311 C   0  0  0  0  0  0  0  0  0  0  0  0
    2.8313   -2.0004    2.7530 N   0  0  0  0  0  0  0  0  0  0  0  0
    4.0454   -2.5734    3.3219 C   0  0  1  0  0  0  0  0  0  0  0  0
    4.2883   -3.7424    2.3638 C   0  0  0  0  0  0  0  0  0  0  0  0
    2.8884   -4.2867    2.1087 C   0  0  0  0  0  0  0  0  0  0  0  0
    1.9768   -3.0747    2.2621 C   0  0  0  0  0  0  0  0  0  0  0  0
    3.0185    0.0157    3.8337 O   0  0  0  0  0  0  0  0  0  0  0  0
    0.0271   -1.2168    3.3338 O   0  0  0  0  0  0  0  0  0  0  0  0
    5.3131   -1.7206    3.4232 C   0  0  0  0  0  0  0  0  0  0  0  0
    5.8326   -1.0881    2.5140 O   0  0  0  0  0  0  0  0  0  0  0  0
    5.8086   -1.8401    4.6943 O   0  0  0  0  0  0  0  0  0  0  0  0
    6.9702   -1.0652    4.9840 C   0  0  0  0  0  0  0  0  0  0  0  0
    3.0124    4.2980    1.4016 H   0  0  0  0  0  0  0  0  0  0  0  0
    1.6870    5.4509    1.1663 H   0  0  0  0  0  0  0  0  0  0  0  0
    1.8591    4.0719    0.0725 H   0  0  0  0  0  0  0  0  0  0  0  0
    0.0261    3.7217    1.6925 H   0  0  0  0  0  0  0  0  0  0  0  0
    1.2715    1.7627    0.8348 H   0  0  0  0  0  0  0  0  0  0  0  0
    2.4616    1.9140    2.1134 H   0  0  0  0  0  0  0  0  0  0  0  0
    0.9378    5.1219    3.5280 H   0  0  0  0  0  0  0  0  0  0  0  0
    0.4775    3.5377    4.1335 H   0  0  0  0  0  0  0  0  0  0  0  0
    2.1892    3.9087    3.8547 H   0  0  0  0  0  0  0  0  0  0  0  0
    0.6952    1.3655    3.8311 H   0  0  0  0  0  0  0  0  0  0  0  0
    0.8854   -0.6584    1.5423 H   0  0  0  0  0  0  0  0  0  0  0  0
   -1.1713    2.2218    2.6446 H   0  0  0  0  0  0  0  0  0  0  0  0
   -1.0539    1.0755    1.4919 H   0  0  0  0  0  0  0  0  0  0  0  0
    3.7788   -2.9454    4.3200 H   0  0  0  0  0  0  0  0  0  0  0  0
    4.7068   -3.3795    1.4139 H   0  0  0  0  0  0  0  0  0  0  0  0
    4.9732   -4.4957    2.7609 H   0  0  0  0  0  0  0  0  0  0  0  0
    2.7892   -4.7481    1.1214 H   0  0  0  0  0  0  0  0  0  0  0  0
    2.6346   -5.0454    2.8580 H   0  0  0  0  0  0  0  0  0  0  0  0
    1.4889   -2.7882    1.3278 H   0  0  0  0  0  0  0  0  0  0  0  0
    1.2122   -3.2943    3.0167 H   0  0  0  0  0  0  0  0  0  0  0  0
   -0.0657   -0.8002    4.2099 H   0  0  0  0  0  0  0  0  0  0  0  0
    7.8612   -1.6154    4.6709 H   0  0  0  0  0  0  0  0  0  0  0  0
    6.9356   -0.0792    4.5140 H   0  0  0  0  0  0  0  0  0  0  0  0
    7.0149   -0.9240    6.0687 H   0  0  0  0  0  0  0  0  0  0  0  0
  1  2  1  0  0  0  0
  1 20  1  0  0  0  0
  1 21  1  0  0  0  0
  1 22  1  0  0  0  0
  2  3  1  0  0  0  0
  2  4  1  0  0  0  0
  2 23  1  0  0  0  0
  3 24  1  0  0  0  0
  3 25  1  0  0  0  0
  4 26  1  0  0  0  0
  4 27  1  0  0  0  0
  4 28  1  0  0  0  0
  5  7  1  0  0  0  0
  5 29  1  1  0  0  0
  5  6  1  0  0  0  0
  5  3  1  0  0  0  0
  6  8  1  0  0  0  0
  6 15  1  0  0  0  0
  6 30  1  6  0  0  0
  7 31  1  0  0  0  0
  7 32  1  0  0  0  0
  8  9  1  0  0  0  0
  8 14  2  0  0  0  0
  9 10  1  0  0  0  0
 10 11  1  0  0  0  0
 10 33  1  1  0  0  0
 10 16  1  0  0  0  0
 11 12  1  0  0  0  0
 11 34  1  0  0  0  0
 11 35  1  0  0  0  0
 12 13  1  0  0  0  0
 12 36  1  0  0  0  0
 12 37  1  0  0  0  0
 13  9  1  0  0  0  0
 13 38  1  0  0  0  0
 13 39  1  0  0  0  0
 15 40  1  0  0  0  0
 16 17  2  0  0  0  0
 16 18  1  0  0  0  0
 18 19  1  0  0  0  0
 19 41  1  0  0  0  0
 19 42  1  0  0  0  0
 19 43  1  0  0  0  0
M  END
>  <Mol_ID>
6405

>  <Formula>
C13H24N2O4

>  <MolWeight>
272.34066

>  <Cat>
E1138

>  <Name>
CQ31

>  <Target>
HIV

>  <Form>
free base

>  <URL>
http://www.selleckchem.com/products/cq31.html

$$$$
