Creatinine.cdx
 OpenBabel08302521383D

 15 15  0  0  0  0  0  0  0  0999 V2000
   -0.4715   -1.0823    0.0166 N   0  0  0  0  0  0  0  0  0  0  0  0
    0.8132   -0.6752    0.0027 C   0  0  0  0  0  0  0  0  0  0  0  0
    1.7804   -1.5080   -0.0044 N   0  0  0  0  0  0  0  0  0  0  0  0
    0.8676    0.6790   -0.0017 N   0  0  0  0  0  0  0  0  0  0  0  0
    2.0492    1.4930   -0.0027 C   0  0  0  0  0  0  0  0  0  0  0  0
   -0.4648    1.2581    0.0174 C   0  0  0  0  0  0  0  0  0  0  0  0
   -1.3242   -0.0076    0.0242 C   0  0  0  0  0  0  0  0  0  0  0  0
   -2.5436   -0.0638    0.0356 O   0  0  0  0  0  0  0  0  0  0  0  0
   -0.7987   -2.0318    0.0208 H   0  0  0  0  0  0  0  0  0  0  0  0
    1.4258   -2.4653    0.0019 H   0  0  0  0  0  0  0  0  0  0  0  0
    2.0691    2.1346   -0.8893 H   0  0  0  0  0  0  0  0  0  0  0  0
    2.0730    2.1319    0.8859 H   0  0  0  0  0  0  0  0  0  0  0  0
    2.9628    0.8897   -0.0057 H   0  0  0  0  0  0  0  0  0  0  0  0
   -0.6660    1.8425   -0.8840 H   0  0  0  0  0  0  0  0  0  0  0  0
   -0.6429    1.8345    0.9287 H   0  0  0  0  0  0  0  0  0  0  0  0
  1  2  1  0  0  0  0
  1  7  1  0  0  0  0
  1  9  1  0  0  0  0
  2  3  2  0  0  0  0
  2  4  1  0  0  0  0
  3 10  1  0  0  0  0
  4  5  1  0  0  0  0
  4  6  1  0  0  0  0
  5 11  1  0  0  0  0
  5 12  1  0  0  0  0
  5 13  1  0  0  0  0
  6  7  1  0  0  0  0
  6 14  1  0  0  0  0
  6 15  1  0  0  0  0
  7  8  2  0  0  0  0
M  END
>  <Mol_ID>
7757

>  <Formula>
C4H7N3O

>  <MolWeight>
113.11788

>  <Cat>
S3102

>  <Name>
Creatinine

>  <Synonyms>
NSC13123

>  <Target>
Others

>  <Form>
free base

>  <CAS>
60-27-5

>  <URL>
http://selleckchem.com/products/creatinine.html

$$$$
