Cridanimod
 OpenBabel08302521343D

 30 32  0  0  0  0  0  0  0  0999 V2000
   -2.4639   -1.3925    0.0147 C   0  0  0  0  0  0  0  0  0  0  0  0
   -3.6798   -0.7219    0.0093 C   0  0  0  0  0  0  0  0  0  0  0  0
   -3.6879    0.6663    0.0030 C   0  0  0  0  0  0  0  0  0  0  0  0
   -2.4826    1.3840   -0.0007 C   0  0  0  0  0  0  0  0  0  0  0  0
   -1.2316    0.7402    0.0102 C   0  0  0  0  0  0  0  0  0  0  0  0
    0.0124    1.4198    0.0150 N   0  0  0  0  0  0  0  0  0  0  0  0
    1.2547    0.7364   -0.0218 C   0  0  0  0  0  0  0  0  0  0  0  0
    2.5058    1.3774   -0.0837 C   0  0  0  0  0  0  0  0  0  0  0  0
    3.7102    0.6564   -0.0776 C   0  0  0  0  0  0  0  0  0  0  0  0
    3.7001   -0.7307   -0.0248 C   0  0  0  0  0  0  0  0  0  0  0  0
    2.4833   -1.3986    0.0100 C   0  0  0  0  0  0  0  0  0  0  0  0
    1.2809   -0.6714    0.0077 C   0  0  0  0  0  0  0  0  0  0  0  0
    0.0095   -1.4205    0.0328 C   0  0  0  0  0  0  0  0  0  0  0  0
   -1.2602   -0.6678    0.0168 C   0  0  0  0  0  0  0  0  0  0  0  0
    0.0439    3.5218   -1.3149 C   0  0  0  0  0  0  0  0  0  0  0  0
    0.0189    2.8978    0.0719 C   0  0  0  0  0  0  0  0  0  0  0  0
    1.0380    3.7671   -1.9813 O   0  0  0  0  0  0  0  0  0  0  0  0
   -1.1827    3.8123   -1.7991 O   0  0  0  0  0  0  0  0  0  0  0  0
    0.0076   -2.6480    0.0615 O   0  0  0  0  0  0  0  0  0  0  0  0
   -2.4482   -2.4806    0.0182 H   0  0  0  0  0  0  0  0  0  0  0  0
   -4.6124   -1.2795    0.0084 H   0  0  0  0  0  0  0  0  0  0  0  0
   -4.6345    1.2020   -0.0025 H   0  0  0  0  0  0  0  0  0  0  0  0
   -2.5757    2.4647   -0.0214 H   0  0  0  0  0  0  0  0  0  0  0  0
    2.5984    2.4568   -0.1517 H   0  0  0  0  0  0  0  0  0  0  0  0
    4.6570    1.1902   -0.1184 H   0  0  0  0  0  0  0  0  0  0  0  0
    4.6318   -1.2895   -0.0196 H   0  0  0  0  0  0  0  0  0  0  0  0
    2.4656   -2.4862    0.0386 H   0  0  0  0  0  0  0  0  0  0  0  0
   -0.8263    3.3065    0.6366 H   0  0  0  0  0  0  0  0  0  0  0  0
    0.8720    3.2910    0.6369 H   0  0  0  0  0  0  0  0  0  0  0  0
   -1.0067    4.1490   -2.7035 H   0  0  0  0  0  0  0  0  0  0  0  0
  1  2  2  0  0  0  0
  1 14  1  0  0  0  0
  1 20  1  0  0  0  0
  2  3  1  0  0  0  0
  2 21  1  0  0  0  0
  3  4  2  0  0  0  0
  3 22  1  0  0  0  0
  4  5  1  0  0  0  0
  4 23  1  0  0  0  0
  5  6  1  0  0  0  0
  5 14  2  0  0  0  0
  6  7  1  0  0  0  0
  6 16  1  0  0  0  0
  7  8  1  0  0  0  0
  7 12  2  0  0  0  0
  8  9  2  0  0  0  0
  8 24  1  0  0  0  0
  9 10  1  0  0  0  0
  9 25  1  0  0  0  0
 10 11  2  0  0  0  0
 10 26  1  0  0  0  0
 11 12  1  0  0  0  0
 11 27  1  0  0  0  0
 12 13  1  0  0  0  0
 13 14  1  0  0  0  0
 13 19  2  0  0  0  0
 15 16  1  0  0  0  0
 15 17  2  0  0  0  0
 15 18  1  0  0  0  0
 16 28  1  0  0  0  0
 16 29  1  0  0  0  0
 18 30  1  0  0  0  0
M  END
>  <Mol_ID>
6490

>  <Formula>
C15H11NO3

>  <MolWeight>
253.25274

>  <Cat>
E2664

>  <Name>
Cridanimod

>  <Target>
STING

>  <Form>
free base

>  <CAS>
38609-97-1

>  <URL>
http://www.selleckchem.com/products/cridanimod.html

$$$$
