Crocetin
 OpenBabel08302521523D

 48 47  0  0  0  0  0  0  0  0999 V2000
    0.9483    0.0086   -0.0497 C   0  0  0  0  0  0  0  0  0  0  0  0
    0.3073   -0.8987   -0.8213 C   0  0  0  0  0  0  0  0  0  0  0  0
    0.2700    0.9845    0.7857 C   0  0  0  0  0  0  0  0  0  0  0  0
    1.1747   -1.8471   -1.5704 C   0  0  0  0  0  0  0  0  0  0  0  0
   -1.1923   -1.0159   -0.8733 C   0  0  0  0  0  0  0  0  0  0  0  0
    0.8442    1.9032    1.5829 C   0  0  0  0  0  0  0  0  0  0  0  0
    0.5918   -2.4222   -2.6455 O   0  0  0  0  0  0  0  0  0  0  0  0
    2.3270   -2.1020   -1.2557 O   0  0  0  0  0  0  0  0  0  0  0  0
    0.0858    2.8641    2.4076 C   0  0  0  0  0  0  0  0  0  0  0  0
    0.7316    3.7668    3.1788 C   0  0  0  0  0  0  0  0  0  0  0  0
   -1.4212    2.7689    2.3298 C   0  0  0  0  0  0  0  0  0  0  0  0
    0.1079    4.7671    4.0340 C   0  0  0  0  0  0  0  0  0  0  0  0
    0.7972    5.6426    4.7822 C   0  0  0  0  0  0  0  0  0  0  0  0
    0.1671    6.6411    5.6380 C   0  0  0  0  0  0  0  0  0  0  0  0
    0.8360    7.5341    6.4038 C   0  0  0  0  0  0  0  0  0  0  0  0
    0.0909    8.4963    7.2322 C   0  0  0  0  0  0  0  0  0  0  0  0
    2.3491    7.5418    6.4049 C   0  0  0  0  0  0  0  0  0  0  0  0
    0.6486    9.4163    8.0362 C   0  0  0  0  0  0  0  0  0  0  0  0
   -0.0431   10.3890    8.8630 C   0  0  0  0  0  0  0  0  0  0  0  0
    0.5963   11.2998    9.6337 C   0  0  0  0  0  0  0  0  0  0  0  0
   -0.2710   12.2492   10.3851 C   0  0  0  0  0  0  0  0  0  0  0  0
    2.0942   11.4204    9.6858 C   0  0  0  0  0  0  0  0  0  0  0  0
    0.3127   12.8271   11.4538 O   0  0  0  0  0  0  0  0  0  0  0  0
   -1.4249   12.4994   10.0728 O   0  0  0  0  0  0  0  0  0  0  0  0
    2.0394    0.0298   -0.0256 H   0  0  0  0  0  0  0  0  0  0  0  0
   -0.8129    0.9403    0.7425 H   0  0  0  0  0  0  0  0  0  0  0  0
   -1.5970   -1.1729    0.1329 H   0  0  0  0  0  0  0  0  0  0  0  0
   -1.6312   -0.1018   -1.2903 H   0  0  0  0  0  0  0  0  0  0  0  0
   -1.5542   -1.8542   -1.4711 H   0  0  0  0  0  0  0  0  0  0  0  0
    1.9319    1.9596    1.6357 H   0  0  0  0  0  0  0  0  0  0  0  0
   -0.2774   -2.0756   -2.9083 H   0  0  0  0  0  0  0  0  0  0  0  0
    1.8222    3.7712    3.1805 H   0  0  0  0  0  0  0  0  0  0  0  0
   -1.7605    2.9396    1.3018 H   0  0  0  0  0  0  0  0  0  0  0  0
   -1.7580    1.7789    2.6580 H   0  0  0  0  0  0  0  0  0  0  0  0
   -1.9581    3.4883    2.9474 H   0  0  0  0  0  0  0  0  0  0  0  0
   -0.9746    4.8126    4.0731 H   0  0  0  0  0  0  0  0  0  0  0  0
    1.8826    5.6092    4.7534 H   0  0  0  0  0  0  0  0  0  0  0  0
   -0.9218    6.6426    5.6393 H   0  0  0  0  0  0  0  0  0  0  0  0
   -0.9970    8.4447    7.1737 H   0  0  0  0  0  0  0  0  0  0  0  0
    2.7285    6.5754    6.7545 H   0  0  0  0  0  0  0  0  0  0  0  0
    2.7242    7.7333    5.3935 H   0  0  0  0  0  0  0  0  0  0  0  0
    2.8146    8.2931    7.0405 H   0  0  0  0  0  0  0  0  0  0  0  0
    1.7256    9.4736    8.0985 H   0  0  0  0  0  0  0  0  0  0  0  0
   -1.1337   10.3660    8.8346 H   0  0  0  0  0  0  0  0  0  0  0  0
    2.5329   10.5066   10.1031 H   0  0  0  0  0  0  0  0  0  0  0  0
    2.4991   11.5768    8.6794 H   0  0  0  0  0  0  0  0  0  0  0  0
    2.4570   12.2589   10.2828 H   0  0  0  0  0  0  0  0  0  0  0  0
    1.1810   12.4799   11.7179 H   0  0  0  0  0  0  0  0  0  0  0  0
  1  2  2  0  0  0  0
  1  3  1  0  0  0  0
  1 25  1  0  0  0  0
  2  4  1  0  0  0  0
  2  5  1  0  0  0  0
  3  6  2  0  0  0  0
  3 26  1  0  0  0  0
  4  7  1  0  0  0  0
  4  8  2  0  0  0  0
  5 27  1  0  0  0  0
  5 28  1  0  0  0  0
  5 29  1  0  0  0  0
  6  9  1  0  0  0  0
  6 30  1  0  0  0  0
  7 31  1  0  0  0  0
  9 10  2  0  0  0  0
  9 11  1  0  0  0  0
 10 12  1  0  0  0  0
 10 32  1  0  0  0  0
 11 33  1  0  0  0  0
 11 34  1  0  0  0  0
 11 35  1  0  0  0  0
 12 13  2  0  0  0  0
 12 36  1  0  0  0  0
 13 14  1  0  0  0  0
 13 37  1  0  0  0  0
 14 15  2  0  0  0  0
 14 38  1  0  0  0  0
 15 16  1  0  0  0  0
 15 17  1  0  0  0  0
 16 18  2  0  0  0  0
 16 39  1  0  0  0  0
 17 40  1  0  0  0  0
 17 41  1  0  0  0  0
 17 42  1  0  0  0  0
 18 19  1  0  0  0  0
 18 43  1  0  0  0  0
 19 20  2  0  0  0  0
 19 44  1  0  0  0  0
 20 21  1  0  0  0  0
 20 22  1  0  0  0  0
 21 23  1  0  0  0  0
 21 24  2  0  0  0  0
 22 45  1  0  0  0  0
 22 46  1  0  0  0  0
 22 47  1  0  0  0  0
 23 48  1  0  0  0  0
M  END
>  <Mol_ID>
9954

>  <Formula>
C20H24O4

>  <MolWeight>
328.40216

>  <Cat>
E5197

>  <Name>
Crocetin

>  <Synonyms>
Transcrocetin;  trans-Crocetin

>  <Target>
NMDAR, Antioxidant

>  <Form>
free base

>  <CAS>
27876-94-4

>  <URL>
https://www.selleckchem.com/products/crocetin.html

$$$$
