CRT0066101.cdx
 OpenBabel08302520433D

 47 49  0  0  0  0  0  0  0  0999 V2000
   -0.1448   -1.4157    0.0321 C   0  0  0  0  0  0  0  0  0  0  0  0
    1.0662   -0.7750   -0.0991 C   0  0  0  0  0  0  0  0  0  0  0  0
    1.1953    0.5602   -0.1813 N   0  0  0  0  0  0  0  0  0  0  0  0
    0.0468    1.2608   -0.0771 C   0  0  0  0  0  0  0  0  0  0  0  0
   -1.1815    0.7164    0.0116 N   0  0  0  0  0  0  0  0  0  0  0  0
   -1.2741   -0.6227    0.0392 C   0  0  0  0  0  0  0  0  0  0  0  0
   -2.5240   -1.2306    0.2077 N   0  0  0  0  0  0  0  0  0  0  0  0
   -3.6670   -0.4073   -0.2037 C   0  0  0  0  0  0  0  0  0  0  0  0
   -4.9732   -1.2319   -0.0379 C   0  0  1  0  0  0  0  0  0  0  0  0
   -6.2160   -0.5014   -0.5757 C   0  0  0  0  0  0  0  0  0  0  0  0
   -6.4938    0.8270    0.1140 C   0  0  0  0  0  0  0  0  0  0  0  0
   -4.8503   -2.5438   -0.7207 N   0  0  0  0  0  0  0  0  0  0  0  0
    0.1548    2.7278   -0.0250 C   0  0  0  0  0  0  0  0  0  0  0  0
    1.2084    3.4390   -0.6246 C   0  0  0  0  0  0  0  0  0  0  0  0
    1.2752    4.8310   -0.5690 C   0  0  0  0  0  0  0  0  0  0  0  0
    0.3018    5.5507    0.1246 C   0  0  0  0  0  0  0  0  0  0  0  0
   -0.7476    4.8832    0.7643 C   0  0  0  0  0  0  0  0  0  0  0  0
   -0.8146    3.4833    0.6700 C   0  0  0  0  0  0  0  0  0  0  0  0
    2.2325    2.8194   -1.2949 O   0  0  0  0  0  0  0  0  0  0  0  0
   -1.7524    5.6052    1.5263 C   0  0  0  0  0  0  0  0  0  0  0  0
   -3.1060    5.2944    1.7976 C   0  0  0  0  0  0  0  0  0  0  0  0
   -3.6944    6.1919    2.5906 N   0  0  0  0  0  0  0  0  0  0  0  0
   -2.7157    7.0770    2.8434 N   0  0  0  0  0  0  0  0  0  0  0  0
   -1.5376    6.7778    2.2230 C   0  0  0  0  0  0  0  0  0  0  0  0
   -2.9728    8.1858    3.7295 C   0  0  0  0  0  0  0  0  0  0  0  0
   -0.2022   -2.4927    0.1147 H   0  0  0  0  0  0  0  0  0  0  0  0
    1.9944   -1.3386   -0.1302 H   0  0  0  0  0  0  0  0  0  0  0  0
   -2.5913   -2.1391   -0.2492 H   0  0  0  0  0  0  0  0  0  0  0  0
   -3.7222    0.5014    0.4048 H   0  0  0  0  0  0  0  0  0  0  0  0
   -3.5548   -0.1204   -1.2584 H   0  0  0  0  0  0  0  0  0  0  0  0
   -5.1126   -1.4381    1.0308 H   0  0  0  0  0  0  0  0  0  0  0  0
   -6.1159   -0.3259   -1.6541 H   0  0  0  0  0  0  0  0  0  0  0  0
   -7.0975   -1.1421   -0.4422 H   0  0  0  0  0  0  0  0  0  0  0  0
   -5.7054    1.5581   -0.0870 H   0  0  0  0  0  0  0  0  0  0  0  0
   -7.4346    1.2499   -0.2539 H   0  0  0  0  0  0  0  0  0  0  0  0
   -6.5821    0.6974    1.1971 H   0  0  0  0  0  0  0  0  0  0  0  0
   -5.7059   -3.0760   -0.5539 H   0  0  0  0  0  0  0  0  0  0  0  0
   -4.8131   -2.3947   -1.7287 H   0  0  0  0  0  0  0  0  0  0  0  0
    2.0933    5.3528   -1.0583 H   0  0  0  0  0  0  0  0  0  0  0  0
    0.3753    6.6346    0.1559 H   0  0  0  0  0  0  0  0  0  0  0  0
   -1.6190    2.9504    1.1773 H   0  0  0  0  0  0  0  0  0  0  0  0
    2.1774    1.8623   -1.0870 H   0  0  0  0  0  0  0  0  0  0  0  0
   -3.6847    4.4481    1.4506 H   0  0  0  0  0  0  0  0  0  0  0  0
   -0.6596    7.3951    2.3500 H   0  0  0  0  0  0  0  0  0  0  0  0
   -3.8631    8.7135    3.3779 H   0  0  0  0  0  0  0  0  0  0  0  0
   -3.1331    7.7890    4.7354 H   0  0  0  0  0  0  0  0  0  0  0  0
   -2.1139    8.8616    3.7253 H   0  0  0  0  0  0  0  0  0  0  0  0
  1  2  2  0  0  0  0
  1 26  1  0  0  0  0
  2  3  1  0  0  0  0
  2 27  1  0  0  0  0
  3  4  2  0  0  0  0
  4  5  1  0  0  0  0
  4 13  1  0  0  0  0
  5  6  2  0  0  0  0
  6  1  1  0  0  0  0
  6  7  1  0  0  0  0
  7  8  1  0  0  0  0
  7 28  1  0  0  0  0
  8  9  1  0  0  0  0
  8 29  1  0  0  0  0
  8 30  1  0  0  0  0
  9 10  1  0  0  0  0
  9 12  1  0  0  0  0
  9 31  1  1  0  0  0
 10 11  1  0  0  0  0
 10 32  1  0  0  0  0
 10 33  1  0  0  0  0
 11 34  1  0  0  0  0
 11 35  1  0  0  0  0
 11 36  1  0  0  0  0
 12 37  1  0  0  0  0
 12 38  1  0  0  0  0
 13 14  2  0  0  0  0
 14 15  1  0  0  0  0
 14 19  1  0  0  0  0
 15 16  2  0  0  0  0
 15 39  1  0  0  0  0
 16 17  1  0  0  0  0
 16 40  1  0  0  0  0
 17 18  2  0  0  0  0
 17 20  1  0  0  0  0
 18 13  1  0  0  0  0
 18 41  1  0  0  0  0
 19 42  1  0  0  0  0
 20 21  1  0  0  0  0
 21 22  2  0  0  0  0
 21 43  1  0  0  0  0
 22 23  1  0  0  0  0
 23 24  1  0  0  0  0
 23 25  1  0  0  0  0
 24 20  2  0  0  0  0
 24 44  1  0  0  0  0
 25 45  1  0  0  0  0
 25 46  1  0  0  0  0
 25 47  1  0  0  0  0
M  END
>  <Mol_ID>
4134

>  <Formula>
C18H24Cl2N6O

>  <MolWeight>
411.32876

>  <Cat>
S8366

>  <Name>
CRT0066101 dihydrochloride

>  <Synonyms>
CRT0066101 2HCl

>  <Target>
PKD

>  <Form>
dihydrochloride

>  <CAS>
1883545-60-5

>  <URL>
https://www.selleckchem.com/products/crt0066101-dihydrochloride.html

$$$$
