CS-2660 (JNJ-38158471)
 OpenBabel08302521243D

 42 43  0  0  0  0  0  0  0  0999 V2000
    0.9759   -0.2211   -0.0844 N   0  0  0  0  0  0  0  0  0  0  0  0
    2.2555    0.2596   -0.2808 C   0  0  0  0  0  0  0  0  0  0  0  0
    3.0801    0.5114    0.5894 O   0  0  0  0  0  0  0  0  0  0  0  0
    2.5424    0.4400   -1.6155 N   0  0  0  0  0  0  0  0  0  0  0  0
    3.8534    0.8878   -2.0426 C   0  0  0  0  0  0  0  0  0  0  0  0
    4.7945   -0.2855   -2.2483 C   0  0  0  0  0  0  0  0  0  0  0  0
    0.3341   -0.3885    1.1643 C   0  0  0  0  0  0  0  0  0  0  0  0
    0.8423    0.1448    2.3487 C   0  0  0  0  0  0  0  0  0  0  0  0
    0.1732   -0.0326    3.5603 C   0  0  0  0  0  0  0  0  0  0  0  0
   -1.0551   -0.6942    3.6011 C   0  0  0  0  0  0  0  0  0  0  0  0
   -1.5646   -1.2535    2.4294 C   0  0  0  0  0  0  0  0  0  0  0  0
   -0.8760   -1.0966    1.2129 C   0  0  0  0  0  0  0  0  0  0  0  0
   -1.7738   -0.8355    4.7715 O   0  0  0  0  0  0  0  0  0  0  0  0
   -1.8806    2.5765    5.7662 C   0  0  0  0  0  0  0  0  0  0  0  0
   -1.7780    1.5090    4.9742 N   0  0  0  0  0  0  0  0  0  0  0  0
   -1.9124    0.3011    5.5697 C   0  0  0  0  0  0  0  0  0  0  0  0
   -2.2167    0.1571    6.9100 C   0  0  0  0  0  0  0  0  0  0  0  0
   -2.3354    1.3420    7.6285 C   0  0  0  0  0  0  0  0  0  0  0  0
   -2.1552    2.5525    7.0728 N   0  0  0  0  0  0  0  0  0  0  0  0
   -2.4101   -1.1627    7.5332 C   0  0  0  0  0  0  0  0  0  0  0  0
   -3.1080   -1.2952    8.6192 N   0  0  0  0  0  0  0  0  0  0  0  0
   -3.1117   -2.6361    9.0231 O   0  0  0  0  0  0  0  0  0  0  0  0
   -3.8348   -2.7225   10.2482 C   0  0  0  0  0  0  0  0  0  0  0  0
   -2.5321    1.3781    9.0072 N   0  0  0  0  0  0  0  0  0  0  0  0
    0.5099   -0.6030   -0.8920 H   0  0  0  0  0  0  0  0  0  0  0  0
    1.8397    0.2564   -2.3129 H   0  0  0  0  0  0  0  0  0  0  0  0
    3.7258    1.4426   -2.9769 H   0  0  0  0  0  0  0  0  0  0  0  0
    4.2712    1.5734   -1.2968 H   0  0  0  0  0  0  0  0  0  0  0  0
    4.4038   -0.9662   -3.0119 H   0  0  0  0  0  0  0  0  0  0  0  0
    5.7800    0.0637   -2.5691 H   0  0  0  0  0  0  0  0  0  0  0  0
    4.9185   -0.8600   -1.3236 H   0  0  0  0  0  0  0  0  0  0  0  0
    1.7528    0.7351    2.3669 H   0  0  0  0  0  0  0  0  0  0  0  0
    0.6064    0.3984    4.4578 H   0  0  0  0  0  0  0  0  0  0  0  0
   -2.5047   -1.8023    2.4492 H   0  0  0  0  0  0  0  0  0  0  0  0
   -1.3001   -1.5317    0.3117 H   0  0  0  0  0  0  0  0  0  0  0  0
   -1.7120    3.5466    5.3125 H   0  0  0  0  0  0  0  0  0  0  0  0
   -1.9486   -2.0386    7.0431 H   0  0  0  0  0  0  0  0  0  0  0  0
   -3.3466   -2.1222   11.0236 H   0  0  0  0  0  0  0  0  0  0  0  0
   -4.8633   -2.3770   10.1031 H   0  0  0  0  0  0  0  0  0  0  0  0
   -3.8566   -3.7660   10.5719 H   0  0  0  0  0  0  0  0  0  0  0  0
   -2.7121    2.3316    9.3010 H   0  0  0  0  0  0  0  0  0  0  0  0
   -3.2328    0.6999    9.3060 H   0  0  0  0  0  0  0  0  0  0  0  0
  1  2  1  0  0  0  0
  1  7  1  0  0  0  0
  1 25  1  0  0  0  0
  2  3  2  0  0  0  0
  2  4  1  0  0  0  0
  4  5  1  0  0  0  0
  4 26  1  0  0  0  0
  5  6  1  0  0  0  0
  5 27  1  0  0  0  0
  5 28  1  0  0  0  0
  6 29  1  0  0  0  0
  6 30  1  0  0  0  0
  6 31  1  0  0  0  0
  7  8  2  0  0  0  0
  7 12  1  0  0  0  0
  8  9  1  0  0  0  0
  8 32  1  0  0  0  0
  9 10  2  0  0  0  0
  9 33  1  0  0  0  0
 10 11  1  0  0  0  0
 10 13  1  0  0  0  0
 11 12  2  0  0  0  0
 11 34  1  0  0  0  0
 12 35  1  0  0  0  0
 13 16  1  0  0  0  0
 14 15  2  0  0  0  0
 14 19  1  0  0  0  0
 14 36  1  0  0  0  0
 15 16  1  0  0  0  0
 16 17  2  0  0  0  0
 17 18  1  0  0  0  0
 17 20  1  0  0  0  0
 18 19  2  0  0  0  0
 18 24  1  0  0  0  0
 20 21  2  0  0  0  0
 20 37  1  0  0  0  0
 21 22  1  0  0  0  0
 22 23  1  0  0  0  0
 23 38  1  0  0  0  0
 23 39  1  0  0  0  0
 23 40  1  0  0  0  0
 24 41  1  0  0  0  0
 24 42  1  0  0  0  0
M  END
>  <Mol_ID>
5066

>  <Formula>
C15H17ClN6O3

>  <MolWeight>
364.78688

>  <Cat>
S0377

>  <Name>
CS-2660 (JNJ-38158471)

>  <Synonyms>
N/A

>  <Target>
c-Kit,c-RET,VEGFR

>  <Form>
free base

>  <CAS>
951151-97-6

>  <URL>
http://www.selleckchem.com/products/jnj-38158471.html

$$$$
