CTEP.cdx
 OpenBabel08302521223D

 40 42  0  0  0  0  0  0  0  0999 V2000
   -1.8001   -0.2503   -0.1341 C   0  0  0  0  0  0  0  0  0  0  0  0
   -1.2234    1.0177   -0.0738 C   0  0  0  0  0  0  0  0  0  0  0  0
    0.1558    1.1050    0.0411 C   0  0  0  0  0  0  0  0  0  0  0  0
    0.9756    0.0318    0.0989 N   0  0  0  0  0  0  0  0  0  0  0  0
    0.3871   -1.1823    0.0451 C   0  0  0  0  0  0  0  0  0  0  0  0
   -0.9792   -1.3757   -0.0696 C   0  0  0  0  0  0  0  0  0  0  0  0
   -3.2198   -0.4015   -0.2687 C   0  0  0  0  0  0  0  0  0  0  0  0
   -4.4160   -0.4867   -0.4013 C   0  0  0  0  0  0  0  0  0  0  0  0
   -5.8337   -0.4689   -0.5714 C   0  0  0  0  0  0  0  0  0  0  0  0
   -6.4446    0.7310   -0.7300 N   0  0  0  0  0  0  0  0  0  0  0  0
   -7.7287    0.4696   -0.8608 C   0  0  0  0  0  0  0  0  0  0  0  0
   -7.9833   -0.9093   -0.8421 N   0  0  0  0  0  0  0  0  0  0  0  0
   -6.7367   -1.5162   -0.6282 C   0  0  0  0  0  0  0  0  0  0  0  0
   -6.4727   -2.9754   -0.5947 C   0  0  0  0  0  0  0  0  0  0  0  0
   -8.7599    1.5449   -0.8689 C   0  0  0  0  0  0  0  0  0  0  0  0
   -9.2774   -1.5235   -0.9612 C   0  0  0  0  0  0  0  0  0  0  0  0
  -10.2521   -0.9490   -1.7873 C   0  0  0  0  0  0  0  0  0  0  0  0
  -11.5675   -1.4232   -1.7863 C   0  0  0  0  0  0  0  0  0  0  0  0
  -11.9334   -2.5171   -1.0052 C   0  0  0  0  0  0  0  0  0  0  0  0
  -10.9625   -3.1274   -0.2150 C   0  0  0  0  0  0  0  0  0  0  0  0
   -9.6381   -2.6423   -0.2008 C   0  0  0  0  0  0  0  0  0  0  0  0
  -13.2595   -2.8125   -1.0439 O   0  0  0  0  0  0  0  0  0  0  0  0
  -13.7056   -4.1499   -0.8847 C   0  0  0  0  0  0  0  0  0  0  0  0
  -12.7139   -5.0571   -0.7818 F   0  0  0  0  0  0  0  0  0  0  0  0
  -14.4857   -4.2303    0.2150 F   0  0  0  0  0  0  0  0  0  0  0  0
  -14.4607   -4.4770   -1.9580 F   0  0  0  0  0  0  0  0  0  0  0  0
   -1.8227    1.9179   -0.1159 H   0  0  0  0  0  0  0  0  0  0  0  0
    0.6574    2.0682    0.0854 H   0  0  0  0  0  0  0  0  0  0  0  0
    1.0691   -2.0270    0.0933 H   0  0  0  0  0  0  0  0  0  0  0  0
   -1.3888   -2.3771   -0.1086 H   0  0  0  0  0  0  0  0  0  0  0  0
   -6.8751   -3.4377    0.3088 H   0  0  0  0  0  0  0  0  0  0  0  0
   -6.8909   -3.4722   -1.4770 H   0  0  0  0  0  0  0  0  0  0  0  0
   -5.3950   -3.1804   -0.5893 H   0  0  0  0  0  0  0  0  0  0  0  0
   -9.1917    1.6799   -1.8630 H   0  0  0  0  0  0  0  0  0  0  0  0
   -9.5513    1.3437   -0.1409 H   0  0  0  0  0  0  0  0  0  0  0  0
   -8.3023    2.5019   -0.5975 H   0  0  0  0  0  0  0  0  0  0  0  0
  -10.0206   -0.1346   -2.4660 H   0  0  0  0  0  0  0  0  0  0  0  0
  -12.3145   -0.9232   -2.4005 H   0  0  0  0  0  0  0  0  0  0  0  0
  -11.2078   -3.9553    0.4457 H   0  0  0  0  0  0  0  0  0  0  0  0
   -8.9450   -3.1164    0.4856 H   0  0  0  0  0  0  0  0  0  0  0  0
  1  2  2  0  0  0  0
  1  7  1  0  0  0  0
  2  3  1  0  0  0  0
  2 27  1  0  0  0  0
  3  4  2  0  0  0  0
  3 28  1  0  0  0  0
  4  5  1  0  0  0  0
  5  6  2  0  0  0  0
  5 29  1  0  0  0  0
  6  1  1  0  0  0  0
  6 30  1  0  0  0  0
  7  8  3  0  0  0  0
  8  9  1  0  0  0  0
  9 10  1  0  0  0  0
 10 11  2  0  0  0  0
 11 12  1  0  0  0  0
 11 15  1  0  0  0  0
 12 13  1  0  0  0  0
 12 16  1  0  0  0  0
 13  9  2  0  0  0  0
 13 14  1  0  0  0  0
 14 31  1  0  0  0  0
 14 32  1  0  0  0  0
 14 33  1  0  0  0  0
 15 34  1  0  0  0  0
 15 35  1  0  0  0  0
 15 36  1  0  0  0  0
 16 17  2  0  0  0  0
 17 18  1  0  0  0  0
 17 37  1  0  0  0  0
 18 19  2  0  0  0  0
 18 38  1  0  0  0  0
 19 20  1  0  0  0  0
 19 22  1  0  0  0  0
 20 21  2  0  0  0  0
 20 39  1  0  0  0  0
 21 16  1  0  0  0  0
 21 40  1  0  0  0  0
 22 23  1  0  0  0  0
 23 24  1  0  0  0  0
 23 25  1  0  0  0  0
 23 26  1  0  0  0  0
M  END
>  <Mol_ID>
451

>  <Formula>
C19H13ClF3N3O

>  <MolWeight>
391.7742296

>  <Cat>
S2861

>  <Name>
CTEP (RO4956371)

>  <Synonyms>
N/A

>  <Target>
GluR

>  <Form>
free base

>  <CAS>
871362-31-1

>  <URL>
http://selleckchem.com/products/ctep.html

$$$$
