CU-CPT-8m
 OpenBabel08302521313D

 31 33  0  0  0  0  0  0  0  0999 V2000
    2.6372   -0.0634   -1.2164 O   0  0  0  0  0  0  0  0  0  0  0  0
    3.7592    1.8546    2.7735 N   0  0  0  0  0  0  0  0  0  0  0  0
    4.6648    2.1720    1.8099 N   0  0  0  0  0  0  0  0  0  0  0  0
    1.6851    0.6084    3.0269 N   0  0  0  0  0  0  0  0  0  0  0  0
    1.1010   -0.4487    0.3907 N   0  0  0  0  0  0  0  0  0  0  0  0
    3.7543    2.2205    4.1317 C   0  0  0  0  0  0  0  0  0  0  0  0
    4.8208    3.0436    4.7216 C   0  0  0  0  0  0  0  0  0  0  0  0
    2.7266    1.0549    2.2538 C   0  0  0  0  0  0  0  0  0  0  0  0
    3.0196    0.8554    0.9170 C   0  0  0  0  0  0  0  0  0  0  0  0
    2.7519    1.8032    4.9263 C   0  0  0  0  0  0  0  0  0  0  0  0
    4.7017    4.4394    4.7574 C   0  0  0  0  0  0  0  0  0  0  0  0
    5.9481    2.4360    5.2877 C   0  0  0  0  0  0  0  0  0  0  0  0
    5.7018    5.2282    5.3455 C   0  0  0  0  0  0  0  0  0  0  0  0
    4.2148    1.5667    0.7105 C   0  0  0  0  0  0  0  0  0  0  0  0
    1.7166    0.9623    4.2762 C   0  0  0  0  0  0  0  0  0  0  0  0
    6.9471    3.2144    5.8737 C   0  0  0  0  0  0  0  0  0  0  0  0
    6.8248    4.6034    5.9020 C   0  0  0  0  0  0  0  0  0  0  0  0
    2.2709    0.0901   -0.0569 C   0  0  0  0  0  0  0  0  0  0  0  0
    5.5854    6.7238    5.3791 C   0  0  0  0  0  0  0  0  0  0  0  0
    0.7672   -0.2362    1.3264 H   0  0  0  0  0  0  0  0  0  0  0  0
    0.5072   -0.9399   -0.2586 H   0  0  0  0  0  0  0  0  0  0  0  0
    2.6563    2.0333    5.9788 H   0  0  0  0  0  0  0  0  0  0  0  0
    3.8295    4.9192    4.3178 H   0  0  0  0  0  0  0  0  0  0  0  0
    6.0613    1.3545    5.2696 H   0  0  0  0  0  0  0  0  0  0  0  0
    4.7756    1.6658   -0.2111 H   0  0  0  0  0  0  0  0  0  0  0  0
    0.9091    0.6158    4.9425 H   0  0  0  0  0  0  0  0  0  0  0  0
    7.8241    2.7387    6.3038 H   0  0  0  0  0  0  0  0  0  0  0  0
    7.6142    5.1990    6.3561 H   0  0  0  0  0  0  0  0  0  0  0  0
    5.5884    7.0781    6.4149 H   0  0  0  0  0  0  0  0  0  0  0  0
    6.4185    7.1806    4.8387 H   0  0  0  0  0  0  0  0  0  0  0  0
    4.6540    7.0636    4.9121 H   0  0  0  0  0  0  0  0  0  0  0  0
  1 18  2  0  0  0  0
  2  3  1  0  0  0  0
  2  6  1  0  0  0  0
  2  8  1  0  0  0  0
  3 14  2  0  0  0  0
  4  8  1  0  0  0  0
  4 15  2  0  0  0  0
  5 18  1  0  0  0  0
  5 20  1  0  0  0  0
  5 21  1  0  0  0  0
  6  7  1  0  0  0  0
  6 10  2  0  0  0  0
  7 11  2  0  0  0  0
  7 12  1  0  0  0  0
  8  9  2  0  0  0  0
  9 14  1  0  0  0  0
  9 18  1  0  0  0  0
 10 15  1  0  0  0  0
 10 22  1  0  0  0  0
 11 13  1  0  0  0  0
 11 23  1  0  0  0  0
 12 16  2  0  0  0  0
 12 24  1  0  0  0  0
 13 17  2  0  0  0  0
 13 19  1  0  0  0  0
 14 25  1  0  0  0  0
 15 26  1  0  0  0  0
 16 17  1  0  0  0  0
 16 27  1  0  0  0  0
 17 28  1  0  0  0  0
 19 29  1  0  0  0  0
 19 30  1  0  0  0  0
 19 31  1  0  0  0  0
M  END
>  <Mol_ID>
5878

>  <Formula>
C14H12N4O

>  <MolWeight>
252.27128

>  <Cat>
S4461

>  <Name>
CU-CPT-8m

>  <Synonyms>
CPD1578

>  <Target>
TLR

>  <Form>
Free Base

>  <CAS>
125079-83-6

>  <URL>
http://www.selleckchem.com/products/cu-cpt-8m.html

$$$$
