CU-CPT9a
 OpenBabel08302521303D

 35 37  0  0  0  0  0  0  0  0999 V2000
   -0.5415   -0.6484   -0.2079 C   0  0  0  0  0  0  0  0  0  0  0  0
    0.6976   -1.2826   -0.3146 C   0  0  0  0  0  0  0  0  0  0  0  0
    1.8879   -0.6569    0.0940 C   0  0  0  0  0  0  0  0  0  0  0  0
    1.7521    0.6005    0.7208 C   0  0  0  0  0  0  0  0  0  0  0  0
    0.4994    1.2147    0.9235 C   0  0  0  0  0  0  0  0  0  0  0  0
   -0.6368    0.5889    0.4115 C   0  0  0  0  0  0  0  0  0  0  0  0
    3.2248   -1.3116   -0.0621 C   0  0  0  0  0  0  0  0  0  0  0  0
   -1.8903    1.1201    0.5018 O   0  0  0  0  0  0  0  0  0  0  0  0
    0.4223    2.4921    1.7073 C   0  0  0  0  0  0  0  0  0  0  0  0
    3.6104   -2.1038   -1.1939 C   0  0  0  0  0  0  0  0  0  0  0  0
    4.8672   -2.7530   -1.1502 C   0  0  0  0  0  0  0  0  0  0  0  0
    5.7397   -2.6040   -0.1413 N   0  0  0  0  0  0  0  0  0  0  0  0
    5.3837   -1.8191    0.8862 C   0  0  0  0  0  0  0  0  0  0  0  0
    4.1600   -1.1856    0.9800 C   0  0  0  0  0  0  0  0  0  0  0  0
    2.8321   -2.2893   -2.3660 C   0  0  0  0  0  0  0  0  0  0  0  0
    3.2121   -3.1636   -3.3845 C   0  0  0  0  0  0  0  0  0  0  0  0
    4.4202   -3.8308   -3.2989 C   0  0  0  0  0  0  0  0  0  0  0  0
    5.2374   -3.5981   -2.1915 C   0  0  0  0  0  0  0  0  0  0  0  0
    4.9105   -4.7181   -4.2169 O   0  0  0  0  0  0  0  0  0  0  0  0
    4.0744   -5.0054   -5.3325 C   0  0  0  0  0  0  0  0  0  0  0  0
   -1.4337   -1.1332   -0.5940 H   0  0  0  0  0  0  0  0  0  0  0  0
    0.7105   -2.2880   -0.7305 H   0  0  0  0  0  0  0  0  0  0  0  0
    2.6413    1.1164    1.0793 H   0  0  0  0  0  0  0  0  0  0  0  0
   -1.8460    1.9768    0.9529 H   0  0  0  0  0  0  0  0  0  0  0  0
    0.0290    3.3024    1.0869 H   0  0  0  0  0  0  0  0  0  0  0  0
   -0.2262    2.3528    2.5792 H   0  0  0  0  0  0  0  0  0  0  0  0
    1.4046    2.7982    2.0819 H   0  0  0  0  0  0  0  0  0  0  0  0
    6.1294   -1.7169    1.6686 H   0  0  0  0  0  0  0  0  0  0  0  0
    3.9455   -0.6114    1.8744 H   0  0  0  0  0  0  0  0  0  0  0  0
    1.9048   -1.7431   -2.5111 H   0  0  0  0  0  0  0  0  0  0  0  0
    2.5361   -3.2907   -4.2232 H   0  0  0  0  0  0  0  0  0  0  0  0
    6.2019   -4.1009   -2.1350 H   0  0  0  0  0  0  0  0  0  0  0  0
    3.1449   -5.4896   -5.0133 H   0  0  0  0  0  0  0  0  0  0  0  0
    3.8671   -4.1020   -5.9156 H   0  0  0  0  0  0  0  0  0  0  0  0
    4.6082   -5.7039   -5.9842 H   0  0  0  0  0  0  0  0  0  0  0  0
  1  2  2  0  0  0  0
  1 21  1  0  0  0  0
  2  3  1  0  0  0  0
  2 22  1  0  0  0  0
  3  4  2  0  0  0  0
  3  7  1  0  0  0  0
  4  5  1  0  0  0  0
  4 23  1  0  0  0  0
  5  6  2  0  0  0  0
  5  9  1  0  0  0  0
  6  1  1  0  0  0  0
  6  8  1  0  0  0  0
  7 10  2  0  0  0  0
  8 24  1  0  0  0  0
  9 25  1  0  0  0  0
  9 26  1  0  0  0  0
  9 27  1  0  0  0  0
 10 11  1  0  0  0  0
 10 15  1  0  0  0  0
 11 12  2  0  0  0  0
 12 13  1  0  0  0  0
 13 14  2  0  0  0  0
 13 28  1  0  0  0  0
 14  7  1  0  0  0  0
 14 29  1  0  0  0  0
 15 16  2  0  0  0  0
 15 30  1  0  0  0  0
 16 17  1  0  0  0  0
 16 31  1  0  0  0  0
 17 18  2  0  0  0  0
 17 19  1  0  0  0  0
 18 11  1  0  0  0  0
 18 32  1  0  0  0  0
 19 20  1  0  0  0  0
 20 33  1  0  0  0  0
 20 34  1  0  0  0  0
 20 35  1  0  0  0  0
M  END
>  <Mol_ID>
5572

>  <Formula>
C17H15NO2

>  <MolWeight>
265.3065

>  <Cat>
S9730

>  <Name>
CU-CPT9a

>  <Synonyms>
N/A

>  <Target>
TLR

>  <Form>
Free Base

>  <CAS>
2165340-32-7

>  <URL>
https://www.selleckchem.com/products/cu-cpt9a.html

$$$$
