CU-T12-9
 OpenBabel08302521353D

 39 41  0  0  0  0  0  0  0  0999 V2000
    2.6345    1.1502    0.8349 F   0  0  0  0  0  0  0  0  0  0  0  0
    2.7281   -1.0123    0.6310 F   0  0  0  0  0  0  0  0  0  0  0  0
    0.8979    0.0484    0.1305 F   0  0  0  0  0  0  0  0  0  0  0  0
    0.0150   -0.2628  -10.2914 O   0  5  0  0  0  0  0  0  0  0  0  0
    0.6658   -0.6082  -12.3584 O   0  0  0  0  0  0  0  0  0  0  0  0
    4.1792    0.4409   -7.6313 N   0  0  0  0  0  0  0  0  0  0  0  0
    5.1417    1.3206   -5.8105 N   0  0  0  0  0  0  0  0  0  0  0  0
    6.3224   -0.1441   -9.5186 N   0  0  0  0  0  0  0  0  0  0  0  0
    0.8900   -0.3809  -11.1620 N   0  3  0  0  0  0  0  0  0  0  0  0
    3.9386    0.1083   -8.9926 C   0  0  0  0  0  0  0  0  0  0  0  0
    4.0230    0.6181   -5.4441 C   0  0  0  0  0  0  0  0  0  0  0  0
    4.9979   -0.0755   -9.9148 C   0  0  0  0  0  0  0  0  0  0  0  0
    3.3903    0.1036   -6.5538 C   0  0  0  0  0  0  0  0  0  0  0  0
    3.5773    0.4754   -4.0715 C   0  0  0  0  0  0  0  0  0  0  0  0
    2.5934   -0.0055   -9.4007 C   0  0  0  0  0  0  0  0  0  0  0  0
    5.2014    1.2090   -7.1187 C   0  0  0  0  0  0  0  0  0  0  0  0
    4.6482   -0.2705  -11.2637 C   0  0  0  0  0  0  0  0  0  0  0  0
    2.2912   -0.2496  -10.7422 C   0  0  0  0  0  0  0  0  0  0  0  0
    3.8999    1.4667   -3.1376 C   0  0  0  0  0  0  0  0  0  0  0  0
    2.8338   -0.6353   -3.6555 C   0  0  0  0  0  0  0  0  0  0  0  0
    3.3146   -0.3653  -11.6817 C   0  0  0  0  0  0  0  0  0  0  0  0
    2.7230    0.2519   -1.3936 C   0  0  0  0  0  0  0  0  0  0  0  0
    3.4723    1.3604   -1.8116 C   0  0  0  0  0  0  0  0  0  0  0  0
    2.4105   -0.7464   -2.3277 C   0  0  0  0  0  0  0  0  0  0  0  0
    2.2548    0.1164    0.0335 C   0  0  0  0  0  0  0  0  0  0  0  0
    7.4541    0.3289  -10.2881 C   0  0  0  0  0  0  0  0  0  0  0  0
    6.5233   -0.3471   -8.5441 H   0  0  0  0  0  0  0  0  0  0  0  0
    2.4973   -0.4951   -6.6527 H   0  0  0  0  0  0  0  0  0  0  0  0
    1.7818    0.1423   -8.6906 H   0  0  0  0  0  0  0  0  0  0  0  0
    5.9380    1.6948   -7.7446 H   0  0  0  0  0  0  0  0  0  0  0  0
    5.4188   -0.4310  -12.0144 H   0  0  0  0  0  0  0  0  0  0  0  0
    4.4836    2.3337   -3.4449 H   0  0  0  0  0  0  0  0  0  0  0  0
    2.5884   -1.4336   -4.3515 H   0  0  0  0  0  0  0  0  0  0  0  0
    3.1019   -0.5549  -12.7319 H   0  0  0  0  0  0  0  0  0  0  0  0
    3.7299    2.1508   -1.1085 H   0  0  0  0  0  0  0  0  0  0  0  0
    1.8381   -1.6216   -2.0241 H   0  0  0  0  0  0  0  0  0  0  0  0
    7.8015    1.2808   -9.8737 H   0  0  0  0  0  0  0  0  0  0  0  0
    8.2731   -0.3919  -10.2007 H   0  0  0  0  0  0  0  0  0  0  0  0
    7.2466    0.4786  -11.3497 H   0  0  0  0  0  0  0  0  0  0  0  0
  1 25  1  0  0  0  0
  2 25  1  0  0  0  0
  3 25  1  0  0  0  0
  4  9  1  0  0  0  0
  5  9  2  0  0  0  0
  6 10  1  0  0  0  0
  6 13  1  0  0  0  0
  6 16  1  0  0  0  0
  7 11  1  0  0  0  0
  7 16  2  0  0  0  0
  8 12  1  0  0  0  0
  8 26  1  0  0  0  0
  8 27  1  0  0  0  0
  9 18  1  0  0  0  0
 10 12  2  0  0  0  0
 10 15  1  0  0  0  0
 11 13  2  0  0  0  0
 11 14  1  0  0  0  0
 12 17  1  0  0  0  0
 13 28  1  0  0  0  0
 14 19  2  0  0  0  0
 14 20  1  0  0  0  0
 15 18  2  0  0  0  0
 15 29  1  0  0  0  0
 16 30  1  0  0  0  0
 17 21  2  0  0  0  0
 17 31  1  0  0  0  0
 18 21  1  0  0  0  0
 19 23  1  0  0  0  0
 19 32  1  0  0  0  0
 20 24  2  0  0  0  0
 20 33  1  0  0  0  0
 21 34  1  0  0  0  0
 22 23  2  0  0  0  0
 22 24  1  0  0  0  0
 22 25  1  0  0  0  0
 23 35  1  0  0  0  0
 24 36  1  0  0  0  0
 26 37  1  0  0  0  0
 26 38  1  0  0  0  0
 26 39  1  0  0  0  0
M  CHG  2   4  -1   9   1
M  END
>  <Mol_ID>
6664

>  <Formula>
C17H13F3N4O2

>  <MolWeight>
362.3059296

>  <Cat>
S2979

>  <Name>
CU-T12-9

>  <Synonyms>
N/A

>  <Target>
Interleukins,NF-¦ÊB,NOS,TLR,TNF-alpha

>  <Form>
Free base

>  <CAS>
1821387-73-8

>  <URL>
http://www.selleckchem.com/products/cu-t12-9.html

$$$$
