CUDA
 OpenBabel08302521323D

 60 60  0  0  0  0  0  0  0  0999 V2000
    1.2431   -4.2820   -2.5124 N   0  0  0  0  0  0  0  0  0  0  0  0
    0.5438   -3.4930   -1.6354 C   0  0  0  0  0  0  0  0  0  0  0  0
   -0.6430   -4.0846   -1.2761 N   0  0  0  0  0  0  0  0  0  0  0  0
    0.9184   -2.3998   -1.2374 O   0  0  0  0  0  0  0  0  0  0  0  0
   -1.6273   -3.4098   -0.4555 C   0  0  0  0  0  0  0  0  0  0  0  0
   -2.5635   -2.5277   -1.2858 C   0  0  0  0  0  0  0  0  0  0  0  0
   -3.5892   -1.8324   -0.3881 C   0  0  0  0  0  0  0  0  0  0  0  0
   -4.5172   -0.9011   -1.1742 C   0  0  0  0  0  0  0  0  0  0  0  0
   -5.5568   -0.1956   -0.2907 C   0  0  0  0  0  0  0  0  0  0  0  0
   -4.9294    0.7133    0.7704 C   0  0  0  0  0  0  0  0  0  0  0  0
   -5.9843    1.4139    1.6298 C   0  0  0  0  0  0  0  0  0  0  0  0
   -5.3206    2.2892    2.6974 C   0  0  0  0  0  0  0  0  0  0  0  0
   -6.3536    2.9881    3.5823 C   0  0  0  0  0  0  0  0  0  0  0  0
   -5.6743    3.8605    4.6372 C   0  0  0  0  0  0  0  0  0  0  0  0
   -6.6960    4.5696    5.5291 C   0  0  0  0  0  0  0  0  0  0  0  0
   -6.0269    5.4330    6.5753 C   0  0  0  0  0  0  0  0  0  0  0  0
   -6.9219    6.0591    7.3737 O   0  0  0  0  0  0  0  0  0  0  0  0
   -4.8196    5.5725    6.7140 O   0  0  0  0  0  0  0  0  0  0  0  0
    2.5669   -3.9334   -3.0143 C   0  0  0  0  0  0  0  0  0  0  0  0
    2.7394   -4.5373   -4.4133 C   0  0  0  0  0  0  0  0  0  0  0  0
    3.6665   -4.4236   -2.0602 C   0  0  0  0  0  0  0  0  0  0  0  0
    4.1387   -4.3143   -4.9753 C   0  0  0  0  0  0  0  0  0  0  0  0
    5.0671   -4.2155   -2.6364 C   0  0  0  0  0  0  0  0  0  0  0  0
    5.2095   -4.8348   -4.0236 C   0  0  0  0  0  0  0  0  0  0  0  0
    0.9689   -5.2504   -2.5665 H   0  0  0  0  0  0  0  0  0  0  0  0
   -0.9363   -4.9007   -1.7874 H   0  0  0  0  0  0  0  0  0  0  0  0
   -2.2002   -4.1905    0.0564 H   0  0  0  0  0  0  0  0  0  0  0  0
   -1.1110   -2.8118    0.3037 H   0  0  0  0  0  0  0  0  0  0  0  0
   -1.9792   -1.7772   -1.8315 H   0  0  0  0  0  0  0  0  0  0  0  0
   -3.0777   -3.1376   -2.0392 H   0  0  0  0  0  0  0  0  0  0  0  0
   -4.1896   -2.5842    0.1384 H   0  0  0  0  0  0  0  0  0  0  0  0
   -3.0438   -1.2627    0.3710 H   0  0  0  0  0  0  0  0  0  0  0  0
   -3.9237   -0.1488   -1.7077 H   0  0  0  0  0  0  0  0  0  0  0  0
   -5.0495   -1.4828   -1.9376 H   0  0  0  0  0  0  0  0  0  0  0  0
   -6.2105    0.4044   -0.9364 H   0  0  0  0  0  0  0  0  0  0  0  0
   -6.1939   -0.9461    0.1926 H   0  0  0  0  0  0  0  0  0  0  0  0
   -4.2855    0.1265    1.4335 H   0  0  0  0  0  0  0  0  0  0  0  0
   -4.2956    1.4620    0.2802 H   0  0  0  0  0  0  0  0  0  0  0  0
   -6.6327    2.0289    0.9950 H   0  0  0  0  0  0  0  0  0  0  0  0
   -6.6193    0.6627    2.1151 H   0  0  0  0  0  0  0  0  0  0  0  0
   -4.6648    1.6699    3.3223 H   0  0  0  0  0  0  0  0  0  0  0  0
   -4.6851    3.0396    2.2110 H   0  0  0  0  0  0  0  0  0  0  0  0
   -7.0126    3.6060    2.9602 H   0  0  0  0  0  0  0  0  0  0  0  0
   -6.9829    2.2373    4.0756 H   0  0  0  0  0  0  0  0  0  0  0  0
   -5.0128    3.2452    5.2582 H   0  0  0  0  0  0  0  0  0  0  0  0
   -5.0380    4.6086    4.1455 H   0  0  0  0  0  0  0  0  0  0  0  0
   -7.3391    5.2112    4.9166 H   0  0  0  0  0  0  0  0  0  0  0  0
   -7.3142    3.8262    6.0443 H   0  0  0  0  0  0  0  0  0  0  0  0
   -7.8481    5.8603    7.1557 H   0  0  0  0  0  0  0  0  0  0  0  0
    2.6312   -2.8400   -3.0868 H   0  0  0  0  0  0  0  0  0  0  0  0
    2.5361   -5.6162   -4.3779 H   0  0  0  0  0  0  0  0  0  0  0  0
    1.9970   -4.1069   -5.0966 H   0  0  0  0  0  0  0  0  0  0  0  0
    3.5892   -3.9049   -1.0970 H   0  0  0  0  0  0  0  0  0  0  0  0
    3.5229   -5.4914   -1.8470 H   0  0  0  0  0  0  0  0  0  0  0  0
    4.2291   -4.8198   -5.9435 H   0  0  0  0  0  0  0  0  0  0  0  0
    4.2956   -3.2442   -5.1564 H   0  0  0  0  0  0  0  0  0  0  0  0
    5.8127   -4.6541   -1.9628 H   0  0  0  0  0  0  0  0  0  0  0  0
    5.2834   -3.1415   -2.6943 H   0  0  0  0  0  0  0  0  0  0  0  0
    5.1326   -5.9265   -3.9472 H   0  0  0  0  0  0  0  0  0  0  0  0
    6.2029   -4.6131   -4.4297 H   0  0  0  0  0  0  0  0  0  0  0  0
  1  2  1  0  0  0  0
  1 19  1  0  0  0  0
  1 25  1  0  0  0  0
  2  3  1  0  0  0  0
  2  4  2  0  0  0  0
  3  5  1  0  0  0  0
  3 26  1  0  0  0  0
  5  6  1  0  0  0  0
  5 27  1  0  0  0  0
  5 28  1  0  0  0  0
  6  7  1  0  0  0  0
  6 29  1  0  0  0  0
  6 30  1  0  0  0  0
  7  8  1  0  0  0  0
  7 31  1  0  0  0  0
  7 32  1  0  0  0  0
  8  9  1  0  0  0  0
  8 33  1  0  0  0  0
  8 34  1  0  0  0  0
  9 10  1  0  0  0  0
  9 35  1  0  0  0  0
  9 36  1  0  0  0  0
 10 11  1  0  0  0  0
 10 37  1  0  0  0  0
 10 38  1  0  0  0  0
 11 12  1  0  0  0  0
 11 39  1  0  0  0  0
 11 40  1  0  0  0  0
 12 13  1  0  0  0  0
 12 41  1  0  0  0  0
 12 42  1  0  0  0  0
 13 14  1  0  0  0  0
 13 43  1  0  0  0  0
 13 44  1  0  0  0  0
 14 15  1  0  0  0  0
 14 45  1  0  0  0  0
 14 46  1  0  0  0  0
 15 16  1  0  0  0  0
 15 47  1  0  0  0  0
 15 48  1  0  0  0  0
 16 17  1  0  0  0  0
 16 18  2  0  0  0  0
 17 49  1  0  0  0  0
 19 20  1  0  0  0  0
 19 21  1  0  0  0  0
 19 50  1  0  0  0  0
 20 22  1  0  0  0  0
 20 51  1  0  0  0  0
 20 52  1  0  0  0  0
 21 23  1  0  0  0  0
 21 53  1  0  0  0  0
 21 54  1  0  0  0  0
 22 24  1  0  0  0  0
 22 55  1  0  0  0  0
 22 56  1  0  0  0  0
 23 24  1  0  0  0  0
 23 57  1  0  0  0  0
 23 58  1  0  0  0  0
 24 59  1  0  0  0  0
 24 60  1  0  0  0  0
M  END
>  <Mol_ID>
6284

>  <Formula>
C19H36N2O3

>  <MolWeight>
340.50074

>  <Cat>
E0473

>  <Name>
CUDA

>  <Synonyms>
N/A

>  <Target>
Epoxide Hydrolase,PPAR

>  <Form>
free base

>  <CAS>
479413-68-8

>  <URL>
http://www.selleckchem.com/products/cuda.html

$$$$
