Curcumin analog C1
 OpenBabel08302521233D

 40 41  0  0  0  0  0  0  0  0999 V2000
    1.3612   -0.2939   -0.3955 C   0  0  0  0  0  0  0  0  0  0  0  0
    0.6060   -1.3336    0.1501 C   0  0  0  0  0  0  0  0  0  0  0  0
   -0.6524   -1.0752    0.6797 C   0  0  0  0  0  0  0  0  0  0  0  0
   -1.1400    0.2321    0.7040 C   0  0  0  0  0  0  0  0  0  0  0  0
   -0.3782    1.3009    0.1981 C   0  0  0  0  0  0  0  0  0  0  0  0
    0.8703    1.0192   -0.4046 C   0  0  0  0  0  0  0  0  0  0  0  0
    1.5328    2.0710   -0.9869 O   0  0  0  0  0  0  0  0  0  0  0  0
   -0.9643    2.6532    0.3390 C   0  0  0  0  0  0  0  0  0  0  0  0
   -0.2392    3.7644    0.5399 C   0  0  0  0  0  0  0  0  0  0  0  0
   -0.8832    5.0863    0.7455 C   0  0  0  0  0  0  0  0  0  0  0  0
    0.0852    6.1941    0.9568 C   0  0  0  0  0  0  0  0  0  0  0  0
   -2.0971    5.2483    0.7568 O   0  0  0  0  0  0  0  0  0  0  0  0
   -0.3534    7.4369    1.2144 C   0  0  0  0  0  0  0  0  0  0  0  0
    0.5909    8.5301    1.4583 C   0  0  0  0  0  0  0  0  0  0  0  0
    0.9388    8.7520    2.8042 C   0  0  0  0  0  0  0  0  0  0  0  0
    1.9047    9.6959    3.1549 C   0  0  0  0  0  0  0  0  0  0  0  0
    2.5425   10.4301    2.1624 C   0  0  0  0  0  0  0  0  0  0  0  0
    2.2007   10.2274    0.8247 C   0  0  0  0  0  0  0  0  0  0  0  0
    1.2181    9.2946    0.4594 C   0  0  0  0  0  0  0  0  0  0  0  0
    1.0411    9.2050   -0.8969 O   0  0  0  0  0  0  0  0  0  0  0  0
   -0.2711    8.9180   -1.3639 C   0  0  0  0  0  0  0  0  0  0  0  0
    2.7678    1.8095   -1.6384 C   0  0  0  0  0  0  0  0  0  0  0  0
    2.3326   -0.5438   -0.8090 H   0  0  0  0  0  0  0  0  0  0  0  0
    0.9993   -2.3472    0.1513 H   0  0  0  0  0  0  0  0  0  0  0  0
   -1.2511   -1.8870    1.0848 H   0  0  0  0  0  0  0  0  0  0  0  0
   -2.1208    0.4126    1.1405 H   0  0  0  0  0  0  0  0  0  0  0  0
   -2.0514    2.7106    0.3407 H   0  0  0  0  0  0  0  0  0  0  0  0
    0.8418    3.7360    0.5775 H   0  0  0  0  0  0  0  0  0  0  0  0
    1.1450    5.9736    0.9032 H   0  0  0  0  0  0  0  0  0  0  0  0
   -1.4111    7.6729    1.2823 H   0  0  0  0  0  0  0  0  0  0  0  0
    0.4677    8.1682    3.5936 H   0  0  0  0  0  0  0  0  0  0  0  0
    2.1669    9.8446    4.1995 H   0  0  0  0  0  0  0  0  0  0  0  0
    3.3079   11.1555    2.4247 H   0  0  0  0  0  0  0  0  0  0  0  0
    2.7058   10.8040    0.0527 H   0  0  0  0  0  0  0  0  0  0  0  0
   -0.4141    7.8375   -1.4478 H   0  0  0  0  0  0  0  0  0  0  0  0
   -1.0506    9.3811   -0.7496 H   0  0  0  0  0  0  0  0  0  0  0  0
   -0.3612    9.3314   -2.3737 H   0  0  0  0  0  0  0  0  0  0  0  0
    3.5337    1.5185   -0.9125 H   0  0  0  0  0  0  0  0  0  0  0  0
    2.6578    1.0577   -2.4264 H   0  0  0  0  0  0  0  0  0  0  0  0
    3.0948    2.7392   -2.1143 H   0  0  0  0  0  0  0  0  0  0  0  0
  1  2  2  0  0  0  0
  1 23  1  0  0  0  0
  2  3  1  0  0  0  0
  2 24  1  0  0  0  0
  3  4  2  0  0  0  0
  3 25  1  0  0  0  0
  4  5  1  0  0  0  0
  4 26  1  0  0  0  0
  5  6  2  0  0  0  0
  5  8  1  0  0  0  0
  6  1  1  0  0  0  0
  6  7  1  0  0  0  0
  7 22  1  0  0  0  0
  8  9  2  0  0  0  0
  8 27  1  0  0  0  0
  9 10  1  0  0  0  0
  9 28  1  0  0  0  0
 10 11  1  0  0  0  0
 10 12  2  0  0  0  0
 11 13  2  0  0  0  0
 11 29  1  0  0  0  0
 13 14  1  0  0  0  0
 13 30  1  0  0  0  0
 14 15  2  0  0  0  0
 15 16  1  0  0  0  0
 15 31  1  0  0  0  0
 16 17  2  0  0  0  0
 16 32  1  0  0  0  0
 17 18  1  0  0  0  0
 17 33  1  0  0  0  0
 18 19  2  0  0  0  0
 18 34  1  0  0  0  0
 19 14  1  0  0  0  0
 19 20  1  0  0  0  0
 20 21  1  0  0  0  0
 21 35  1  0  0  0  0
 21 36  1  0  0  0  0
 21 37  1  0  0  0  0
 22 38  1  0  0  0  0
 22 39  1  0  0  0  0
 22 40  1  0  0  0  0
M  END
>  <Mol_ID>
4852

>  <Formula>
C19H18O3

>  <MolWeight>
294.34442

>  <Cat>
S6769

>  <Name>
Curcumin analog C1

>  <Synonyms>
Curcumin analog Compound C1, TFEB activator 1

>  <Target>
Others

>  <Form>
Free Base

>  <CAS>
39777-61-2

>  <URL>
http://www.selleck.cn/products/curcumin-analog-compound-c1.html

$$$$
