Curcumol.cdx
 OpenBabel08302521373D

 41 43  0  0  0  0  0  0  0  0999 V2000
    3.1208   -1.6262    0.4029 C   0  0  0  0  0  0  0  0  0  0  0  0
    3.4655   -2.8327   -0.4821 C   0  0  1  0  0  0  0  0  0  0  0  0
    3.6988   -2.4682   -2.0082 C   0  0  2  0  0  0  0  0  0  0  0  0
    2.4125   -2.7852   -2.7592 C   0  0  0  0  0  0  0  0  0  0  0  0
    1.4610   -1.6758   -2.1966 C   0  0  2  0  0  0  0  0  0  0  0  0
    2.5158   -0.5668   -1.7831 C   0  0  2  0  0  0  0  0  0  0  0  0
    2.9247   -0.3042   -0.3258 C   0  0  0  0  0  0  0  0  0  0  0  0
    4.4754   -3.9055   -0.1327 C   0  0  0  0  0  0  0  0  0  0  0  0
    5.0333   -4.3882   -1.4800 C   0  0  0  0  0  0  0  0  0  0  0  0
    5.0092   -3.1668   -2.3858 C   0  0  2  0  0  0  0  0  0  0  0  0
    2.6702   -1.6918    1.6529 C   0  0  0  0  0  0  0  0  0  0  0  0
    6.2393   -2.2796   -2.1169 C   0  0  0  0  0  0  0  0  0  0  0  0
    0.3878   -2.2428   -1.1878 C   0  0  0  0  0  0  0  0  0  0  0  0
   -0.5266   -1.2013   -0.5386 C   0  0  0  0  0  0  0  0  0  0  0  0
   -0.4775   -3.3420   -1.8475 C   0  0  0  0  0  0  0  0  0  0  0  0
    2.2562    0.6446   -2.4597 O   0  0  0  0  0  0  0  0  0  0  0  0
    3.7621   -1.0683   -2.3083 O   0  0  0  0  0  0  0  0  0  0  0  0
    2.5506   -3.4436   -0.4480 H   0  0  0  0  0  0  0  0  0  0  0  0
    2.0840   -3.8143   -2.6152 H   0  0  0  0  0  0  0  0  0  0  0  0
    2.5425   -2.6190   -3.8361 H   0  0  0  0  0  0  0  0  0  0  0  0
    0.8798   -1.2820   -3.0413 H   0  0  0  0  0  0  0  0  0  0  0  0
    2.2036    0.3504    0.1604 H   0  0  0  0  0  0  0  0  0  0  0  0
    3.8888    0.2418   -0.3142 H   0  0  0  0  0  0  0  0  0  0  0  0
    5.2630   -3.5472    0.5380 H   0  0  0  0  0  0  0  0  0  0  0  0
    3.9798   -4.7573    0.3555 H   0  0  0  0  0  0  0  0  0  0  0  0
    6.0342   -4.8226   -1.3606 H   0  0  0  0  0  0  0  0  0  0  0  0
    4.3918   -5.1673   -1.9016 H   0  0  0  0  0  0  0  0  0  0  0  0
    5.0215   -3.4543   -3.4472 H   0  0  0  0  0  0  0  0  0  0  0  0
    2.3861   -0.7666    2.1855 H   0  0  0  0  0  0  0  0  0  0  0  0
    2.4338   -2.6175    2.1475 H   0  0  0  0  0  0  0  0  0  0  0  0
    6.1841   -1.7920   -1.1380 H   0  0  0  0  0  0  0  0  0  0  0  0
    7.1605   -2.8686   -2.1456 H   0  0  0  0  0  0  0  0  0  0  0  0
    6.3237   -1.4946   -2.8736 H   0  0  0  0  0  0  0  0  0  0  0  0
    0.8473   -2.7504   -0.3472 H   0  0  0  0  0  0  0  0  0  0  0  0
   -0.4812   -0.2320   -1.0346 H   0  0  0  0  0  0  0  0  0  0  0  0
   -1.5725   -1.5355   -0.5242 H   0  0  0  0  0  0  0  0  0  0  0  0
   -0.2449   -1.0622    0.5131 H   0  0  0  0  0  0  0  0  0  0  0  0
    0.1182   -4.1798   -2.2109 H   0  0  0  0  0  0  0  0  0  0  0  0
   -1.1762   -3.7663   -1.1213 H   0  0  0  0  0  0  0  0  0  0  0  0
   -1.0493   -2.9400   -2.6865 H   0  0  0  0  0  0  0  0  0  0  0  0
    3.1334    0.8866   -2.8039 H   0  0  0  0  0  0  0  0  0  0  0  0
  1  2  1  0  0  0  0
  1 11  2  0  0  0  0
  2  3  1  0  0  0  0
  2  8  1  0  0  0  0
  2 18  1  6  0  0  0
  3  4  1  0  0  0  0
  3 17  1  6  0  0  0
  4  5  1  0  0  0  0
  4 19  1  0  0  0  0
  4 20  1  0  0  0  0
  5  6  1  0  0  0  0
  5 13  1  0  0  0  0
  5 21  1  6  0  0  0
  6  7  1  0  0  0  0
  6 16  1  6  0  0  0
  6 17  1  0  0  0  0
  7  1  1  0  0  0  0
  7 22  1  0  0  0  0
  7 23  1  0  0  0  0
  8  9  1  0  0  0  0
  8 24  1  0  0  0  0
  8 25  1  0  0  0  0
  9 10  1  0  0  0  0
  9 26  1  0  0  0  0
  9 27  1  0  0  0  0
 10  3  1  0  0  0  0
 10 28  1  6  0  0  0
 10 12  1  0  0  0  0
 11 29  1  0  0  0  0
 11 30  1  0  0  0  0
 12 31  1  0  0  0  0
 12 32  1  0  0  0  0
 12 33  1  0  0  0  0
 13 14  1  0  0  0  0
 13 15  1  0  0  0  0
 13 34  1  0  0  0  0
 14 35  1  0  0  0  0
 14 36  1  0  0  0  0
 14 37  1  0  0  0  0
 15 38  1  0  0  0  0
 15 39  1  0  0  0  0
 15 40  1  0  0  0  0
 16 41  1  0  0  0  0
M  END
>  <Mol_ID>
732

>  <Formula>
C15H24O2

>  <MolWeight>
236.34986

>  <Cat>
S2407

>  <Name>
Curcumol

>  <Synonyms>
N/A

>  <Target>
JAK

>  <Form>
free base

>  <CAS>
4871-97-0

>  <URL>
http://selleckchem.com/products/Curcumol.html

$$$$
