Cutamesine Dihydrochloride
 OpenBabel08302521323D

 59 61  0  0  0  0  0  0  0  0999 V2000
    9.4742   -2.8144   -1.7308 O   0  0  0  0  0  0  0  0  0  0  0  0
    8.9291   -3.6607   -2.7423 C   0  0  0  0  0  0  0  0  0  0  0  0
   11.0324   -2.0091    0.6472 O   0  0  0  0  0  0  0  0  0  0  0  0
   11.7367   -1.7709   -0.5573 C   0  0  0  0  0  0  0  0  0  0  0  0
    5.7858   -4.0355    1.3641 C   0  0  0  0  0  0  0  0  0  0  0  0
    4.9680   -2.7590    1.6696 C   0  0  0  0  0  0  0  0  0  0  0  0
    0.4587   -2.2611    3.7428 C   0  0  0  0  0  0  0  0  0  0  0  0
   -0.4405   -3.2471    4.5219 C   0  0  0  0  0  0  0  0  0  0  0  0
   -0.5794   -2.9160    6.0117 C   0  0  0  0  0  0  0  0  0  0  0  0
    9.0046   -2.9965   -0.4547 C   0  0  0  0  0  0  0  0  0  0  0  0
    9.8002   -2.6013    0.6374 C   0  0  0  0  0  0  0  0  0  0  0  0
    7.7182   -3.5140   -0.2040 C   0  0  0  0  0  0  0  0  0  0  0  0
    9.3187   -2.7933    1.9350 C   0  0  0  0  0  0  0  0  0  0  0  0
    7.2298   -3.6613    1.1041 C   0  0  0  0  0  0  0  0  0  0  0  0
    8.0588   -3.3319    2.1752 C   0  0  0  0  0  0  0  0  0  0  0  0
    3.5091   -2.9298    1.7212 N   0  0  0  0  0  0  0  0  0  0  0  0
    2.8248   -1.6230    1.8411 C   0  0  0  0  0  0  0  0  0  0  0  0
    3.0146   -3.8869    2.7290 C   0  0  0  0  0  0  0  0  0  0  0  0
    2.5566   -1.1211    3.2853 C   0  0  0  0  0  0  0  0  0  0  0  0
    2.6648   -3.3358    4.1347 C   0  0  0  0  0  0  0  0  0  0  0  0
    1.8647   -2.0981    4.1623 N   0  0  0  0  0  0  0  0  0  0  0  0
   -1.6074   -3.7042    6.8094 C   0  0  0  0  0  0  0  0  0  0  0  0
   -1.3197   -4.0329    8.1444 C   0  0  0  0  0  0  0  0  0  0  0  0
   -2.8963   -3.9823    6.3252 C   0  0  0  0  0  0  0  0  0  0  0  0
   -2.2874   -4.6079    8.9756 C   0  0  0  0  0  0  0  0  0  0  0  0
   -3.8690   -4.5476    7.1628 C   0  0  0  0  0  0  0  0  0  0  0  0
   -3.5690   -4.8460    8.4892 C   0  0  0  0  0  0  0  0  0  0  0  0
    8.8201   -4.6974   -2.4025 H   0  0  0  0  0  0  0  0  0  0  0  0
    7.9751   -3.2628   -3.1000 H   0  0  0  0  0  0  0  0  0  0  0  0
    9.6278   -3.6674   -3.5854 H   0  0  0  0  0  0  0  0  0  0  0  0
   11.7289   -2.6279   -1.2334 H   0  0  0  0  0  0  0  0  0  0  0  0
   11.3786   -0.8582   -1.0433 H   0  0  0  0  0  0  0  0  0  0  0  0
   12.7842   -1.6086   -0.2812 H   0  0  0  0  0  0  0  0  0  0  0  0
    5.3725   -4.5622    0.4947 H   0  0  0  0  0  0  0  0  0  0  0  0
    5.7544   -4.7401    2.2031 H   0  0  0  0  0  0  0  0  0  0  0  0
    5.3391   -2.2855    2.5867 H   0  0  0  0  0  0  0  0  0  0  0  0
    5.1826   -2.0567    0.8503 H   0  0  0  0  0  0  0  0  0  0  0  0
   -0.0201   -1.2738    3.8232 H   0  0  0  0  0  0  0  0  0  0  0  0
    0.3956   -2.5430    2.6871 H   0  0  0  0  0  0  0  0  0  0  0  0
   -1.4269   -3.2046    4.0439 H   0  0  0  0  0  0  0  0  0  0  0  0
   -0.0877   -4.2761    4.3906 H   0  0  0  0  0  0  0  0  0  0  0  0
    0.4036   -3.0470    6.4810 H   0  0  0  0  0  0  0  0  0  0  0  0
   -0.8466   -1.8573    6.1255 H   0  0  0  0  0  0  0  0  0  0  0  0
    7.0560   -3.7750   -1.0265 H   0  0  0  0  0  0  0  0  0  0  0  0
    9.9381   -2.4968    2.7791 H   0  0  0  0  0  0  0  0  0  0  0  0
    7.7159   -3.4470    3.2003 H   0  0  0  0  0  0  0  0  0  0  0  0
    3.3744   -0.8455    1.2945 H   0  0  0  0  0  0  0  0  0  0  0  0
    1.8683   -1.7090    1.3107 H   0  0  0  0  0  0  0  0  0  0  0  0
    2.1046   -4.3349    2.3137 H   0  0  0  0  0  0  0  0  0  0  0  0
    3.7062   -4.7264    2.8557 H   0  0  0  0  0  0  0  0  0  0  0  0
    3.5160   -0.8582    3.7523 H   0  0  0  0  0  0  0  0  0  0  0  0
    1.9880   -0.1835    3.2457 H   0  0  0  0  0  0  0  0  0  0  0  0
    3.6057   -3.1299    4.6642 H   0  0  0  0  0  0  0  0  0  0  0  0
    2.1777   -4.1200    4.7250 H   0  0  0  0  0  0  0  0  0  0  0  0
   -0.3341   -3.8255    8.5583 H   0  0  0  0  0  0  0  0  0  0  0  0
   -3.1793   -3.7410    5.3051 H   0  0  0  0  0  0  0  0  0  0  0  0
   -2.0479   -4.8360   10.0099 H   0  0  0  0  0  0  0  0  0  0  0  0
   -4.8706   -4.7355    6.7823 H   0  0  0  0  0  0  0  0  0  0  0  0
   -4.3345   -5.2532    9.1462 H   0  0  0  0  0  0  0  0  0  0  0  0
  1  2  1  0  0  0  0
  1 10  1  0  0  0  0
  2 28  1  0  0  0  0
  2 29  1  0  0  0  0
  2 30  1  0  0  0  0
  3  4  1  0  0  0  0
  3 11  1  0  0  0  0
  4 31  1  0  0  0  0
  4 32  1  0  0  0  0
  4 33  1  0  0  0  0
  5  6  1  0  0  0  0
  5 14  1  0  0  0  0
  5 34  1  0  0  0  0
  5 35  1  0  0  0  0
  6 16  1  0  0  0  0
  6 36  1  0  0  0  0
  6 37  1  0  0  0  0
  7  8  1  0  0  0  0
  7 21  1  0  0  0  0
  7 38  1  0  0  0  0
  7 39  1  0  0  0  0
  8  9  1  0  0  0  0
  8 40  1  0  0  0  0
  8 41  1  0  0  0  0
  9 22  1  0  0  0  0
  9 42  1  0  0  0  0
  9 43  1  0  0  0  0
 10 11  2  0  0  0  0
 10 12  1  0  0  0  0
 11 13  1  0  0  0  0
 12 14  2  0  0  0  0
 12 44  1  0  0  0  0
 13 15  2  0  0  0  0
 13 45  1  0  0  0  0
 14 15  1  0  0  0  0
 15 46  1  0  0  0  0
 16 17  1  0  0  0  0
 16 18  1  0  0  0  0
 17 19  1  0  0  0  0
 17 47  1  0  0  0  0
 17 48  1  0  0  0  0
 18 20  1  0  0  0  0
 18 49  1  0  0  0  0
 18 50  1  0  0  0  0
 19 21  1  0  0  0  0
 19 51  1  0  0  0  0
 19 52  1  0  0  0  0
 20 21  1  0  0  0  0
 20 53  1  0  0  0  0
 20 54  1  0  0  0  0
 22 23  2  0  0  0  0
 22 24  1  0  0  0  0
 23 25  1  0  0  0  0
 23 55  1  0  0  0  0
 24 26  2  0  0  0  0
 24 56  1  0  0  0  0
 25 27  2  0  0  0  0
 25 57  1  0  0  0  0
 26 27  1  0  0  0  0
 26 58  1  0  0  0  0
 27 59  1  0  0  0  0
M  END
>  <Mol_ID>
6207

>  <Formula>
C23H34Cl2N2O2

>  <MolWeight>
441.43426

>  <Cat>
S2917

>  <Name>
Cutamesine Dihydrochloride

>  <Synonyms>
SA4503 dihydrochloride, AGY94806 dihydrochloride

>  <Target>
Sigma Receptor

>  <Form>
Dihydrochloride

>  <CAS>
165377-44-6

>  <URL>
http://www.selleckchem.com/products/sa-4503.html

$$$$
