CVT-313
 OpenBabel08302520403D

 57 59  0  0  0  0  0  0  0  0999 V2000
    0.2106    0.7052   -0.0272 C   0  0  0  0  0  0  0  0  0  0  0  0
   -0.8886    1.4800    0.0178 N   0  0  0  0  0  0  0  0  0  0  0  0
    1.5284    1.0893   -0.0399 N   0  0  0  0  0  0  0  0  0  0  0  0
    0.2580   -0.6791   -0.0389 C   0  0  0  0  0  0  0  0  0  0  0  0
   -2.0288    0.7634    0.1218 C   0  0  0  0  0  0  0  0  0  0  0  0
   -2.0843   -0.5860    0.1491 N   0  0  0  0  0  0  0  0  0  0  0  0
    1.5606   -1.1351   -0.0691 N   0  0  0  0  0  0  0  0  0  0  0  0
   -0.9699   -1.3491    0.0260 C   0  0  0  0  0  0  0  0  0  0  0  0
    2.2940   -0.0487   -0.0523 C   0  0  0  0  0  0  0  0  0  0  0  0
   -1.1551   -2.7317   -0.0003 N   0  0  0  0  0  0  0  0  0  0  0  0
   -3.2205    1.4607    0.3202 N   0  0  0  0  0  0  0  0  0  0  0  0
    2.0476    2.4486    0.0117 C   0  0  0  0  0  0  0  0  0  0  0  0
   -0.0281   -3.5715   -0.3518 C   0  0  0  0  0  0  0  0  0  0  0  0
   -0.5401   -4.9369   -0.7553 C   0  0  0  0  0  0  0  0  0  0  0  0
   -1.4629   -7.4586   -1.6116 C   0  0  0  0  0  0  0  0  0  0  0  0
   -1.5363   -5.0484   -1.7388 C   0  0  0  0  0  0  0  0  0  0  0  0
   -0.0004   -6.1050   -0.2147 C   0  0  0  0  0  0  0  0  0  0  0  0
   -1.9977   -6.2964   -2.1620 C   0  0  0  0  0  0  0  0  0  0  0  0
   -0.4601   -7.3545   -0.6424 C   0  0  0  0  0  0  0  0  0  0  0  0
   -1.8251   -8.7367   -1.9372 O   0  0  0  0  0  0  0  0  0  0  0  0
   -4.2006    1.0709    2.9720 O   0  0  0  0  0  0  0  0  0  0  0  0
   -1.7553    4.1372    0.5768 O   0  0  0  0  0  0  0  0  0  0  0  0
   -3.4230    2.6798   -0.4786 C   0  0  0  0  0  0  0  0  0  0  0  0
   -4.4158    0.6386    0.5940 C   0  0  0  0  0  0  0  0  0  0  0  0
    2.8514    2.6871    1.2928 C   0  0  0  0  0  0  0  0  0  0  0  0
    2.8875    2.7634   -1.2266 C   0  0  0  0  0  0  0  0  0  0  0  0
   -3.1516    3.9315    0.3704 C   0  0  0  0  0  0  0  0  0  0  0  0
   -4.3593    0.0301    2.0050 C   0  0  0  0  0  0  0  0  0  0  0  0
   -2.8625   -8.8742   -2.9010 C   0  0  0  0  0  0  0  0  0  0  0  0
    3.3768   -0.0298   -0.0396 H   0  0  0  0  0  0  0  0  0  0  0  0
   -1.6713   -3.0234    0.8207 H   0  0  0  0  0  0  0  0  0  0  0  0
    1.1839    3.1226    0.0192 H   0  0  0  0  0  0  0  0  0  0  0  0
    0.5139   -3.1758   -1.2200 H   0  0  0  0  0  0  0  0  0  0  0  0
    0.6685   -3.6533    0.4912 H   0  0  0  0  0  0  0  0  0  0  0  0
   -1.9615   -4.1472   -2.1802 H   0  0  0  0  0  0  0  0  0  0  0  0
    0.7893   -6.0503    0.5336 H   0  0  0  0  0  0  0  0  0  0  0  0
   -2.7712   -6.3188   -2.9193 H   0  0  0  0  0  0  0  0  0  0  0  0
   -0.0301   -8.2617   -0.2192 H   0  0  0  0  0  0  0  0  0  0  0  0
   -3.4494    1.6024    2.6418 H   0  0  0  0  0  0  0  0  0  0  0  0
   -1.3295    3.2604    0.4696 H   0  0  0  0  0  0  0  0  0  0  0  0
   -2.7964    2.6849   -1.3793 H   0  0  0  0  0  0  0  0  0  0  0  0
   -4.4624    2.7290   -0.8269 H   0  0  0  0  0  0  0  0  0  0  0  0
   -5.3009    1.2873    0.5699 H   0  0  0  0  0  0  0  0  0  0  0  0
   -4.5678   -0.1304   -0.1733 H   0  0  0  0  0  0  0  0  0  0  0  0
    3.7376    2.0438    1.3423 H   0  0  0  0  0  0  0  0  0  0  0  0
    3.1918    3.7260    1.3497 H   0  0  0  0  0  0  0  0  0  0  0  0
    2.2433    2.4788    2.1797 H   0  0  0  0  0  0  0  0  0  0  0  0
    3.7846    2.1351   -1.2800 H   0  0  0  0  0  0  0  0  0  0  0  0
    2.3098    2.5931   -2.1414 H   0  0  0  0  0  0  0  0  0  0  0  0
    3.2124    3.8087   -1.2190 H   0  0  0  0  0  0  0  0  0  0  0  0
   -3.5379    4.8198   -0.1399 H   0  0  0  0  0  0  0  0  0  0  0  0
   -3.6440    3.8626    1.3469 H   0  0  0  0  0  0  0  0  0  0  0  0
   -5.2887   -0.5030    2.2249 H   0  0  0  0  0  0  0  0  0  0  0  0
   -3.5345   -0.6748    2.1359 H   0  0  0  0  0  0  0  0  0  0  0  0
   -3.7916   -8.4095   -2.5536 H   0  0  0  0  0  0  0  0  0  0  0  0
   -2.5560   -8.4678   -3.8708 H   0  0  0  0  0  0  0  0  0  0  0  0
   -3.0563   -9.9430   -3.0348 H   0  0  0  0  0  0  0  0  0  0  0  0
  2  1  2  0  0  0  0
  3  1  1  0  0  0  0
  4  1  1  0  0  0  0
  5  2  1  0  0  0  0
  6  5  2  0  0  0  0
  7  4  1  0  0  0  0
  8  4  2  0  0  0  0
  8  6  1  0  0  0  0
  9  3  1  0  0  0  0
  9  7  2  0  0  0  0
  9 30  1  0  0  0  0
 10  8  1  0  0  0  0
 10 31  1  0  0  0  0
 11  5  1  0  0  0  0
 12  3  1  0  0  0  0
 12 32  1  0  0  0  0
 13 10  1  0  0  0  0
 13 33  1  0  0  0  0
 13 34  1  0  0  0  0
 14 13  1  0  0  0  0
 15 18  2  0  0  0  0
 15 19  1  0  0  0  0
 16 14  2  0  0  0  0
 16 35  1  0  0  0  0
 17 14  1  0  0  0  0
 17 36  1  0  0  0  0
 18 16  1  0  0  0  0
 18 37  1  0  0  0  0
 19 17  2  0  0  0  0
 19 38  1  0  0  0  0
 20 15  1  0  0  0  0
 21 28  1  0  0  0  0
 21 39  1  0  0  0  0
 22 27  1  0  0  0  0
 22 40  1  0  0  0  0
 23 11  1  0  0  0  0
 23 41  1  0  0  0  0
 23 42  1  0  0  0  0
 24 11  1  0  0  0  0
 24 43  1  0  0  0  0
 24 44  1  0  0  0  0
 25 12  1  0  0  0  0
 25 45  1  0  0  0  0
 25 46  1  0  0  0  0
 25 47  1  0  0  0  0
 26 12  1  0  0  0  0
 26 48  1  0  0  0  0
 26 49  1  0  0  0  0
 26 50  1  0  0  0  0
 27 23  1  0  0  0  0
 27 51  1  0  0  0  0
 27 52  1  0  0  0  0
 28 24  1  0  0  0  0
 28 53  1  0  0  0  0
 28 54  1  0  0  0  0
 29 20  1  0  0  0  0
 29 55  1  0  0  0  0
 29 56  1  0  0  0  0
 29 57  1  0  0  0  0
M  END
>  <Mol_ID>
3825

>  <Formula>
C20H28N6O3

>  <MolWeight>
400.47472

>  <Cat>
S6537

>  <Name>
CVT-313

>  <Synonyms>
N/A

>  <Target>
CDK

>  <Form>
free base

>  <CAS>
199986-75-9

>  <URL>
http://www.selleck.cn/products/cvt-313.html

$$$$
