CVT-10216
 OpenBabel08302521353D

 52 55  0  0  0  0  0  0  0  0999 V2000
   -1.1267    1.0403    1.3962 S   0  0  0  0  0  0  0  0  0  0  0  0
    5.5402    2.0953    7.3836 O   0  0  0  0  0  0  0  0  0  0  0  0
    7.8849    5.2266    9.9606 O   0  0  0  0  0  0  0  0  0  0  0  0
    3.8697    4.9785    5.0432 O   0  0  0  0  0  0  0  0  0  0  0  0
   -1.6889    0.5318    2.6330 O   0  0  0  0  0  0  0  0  0  0  0  0
   -1.5705    0.5399    0.1135 O   0  0  0  0  0  0  0  0  0  0  0  0
    7.7534    7.6182   16.6619 O   0  0  0  0  0  0  0  0  0  0  0  0
    7.1912    9.0906   15.0486 O   0  0  0  0  0  0  0  0  0  0  0  0
    0.5235    0.8052    1.4055 N   0  0  0  0  0  0  0  0  0  0  0  0
    5.2662    4.4343    6.8321 C   0  0  0  0  0  0  0  0  0  0  0  0
    4.0439    2.6335    5.5360 C   0  0  0  0  0  0  0  0  0  0  0  0
    3.1240    2.1458    4.4777 C   0  0  0  0  0  0  0  0  0  0  0  0
    5.8220    3.4173    7.5959 C   0  0  0  0  0  0  0  0  0  0  0  0
    4.3474    4.0867    5.7360 C   0  0  0  0  0  0  0  0  0  0  0  0
    7.0135    5.0570    8.9199 C   0  0  0  0  0  0  0  0  0  0  0  0
    6.7047    3.7256    8.6297 C   0  0  0  0  0  0  0  0  0  0  0  0
    5.5817    5.7698    7.1028 C   0  0  0  0  0  0  0  0  0  0  0  0
    4.6669    1.7829    6.3678 C   0  0  0  0  0  0  0  0  0  0  0  0
    1.3496    1.2602    2.4595 C   0  0  0  0  0  0  0  0  0  0  0  0
    2.3492    0.9823    4.6452 C   0  0  0  0  0  0  0  0  0  0  0  0
    2.9859    2.8417    3.2655 C   0  0  0  0  0  0  0  0  0  0  0  0
    6.4566    6.0814    8.1493 C   0  0  0  0  0  0  0  0  0  0  0  0
    1.4739    0.5379    3.6457 C   0  0  0  0  0  0  0  0  0  0  0  0
    2.1042    2.4121    2.2727 C   0  0  0  0  0  0  0  0  0  0  0  0
    7.7943    6.4700   10.6580 C   0  0  0  0  0  0  0  0  0  0  0  0
    8.3322    6.3299   12.0683 C   0  0  0  0  0  0  0  0  0  0  0  0
    7.8012    7.1429   13.0819 C   0  0  0  0  0  0  0  0  0  0  0  0
    9.3920    5.4710   12.3904 C   0  0  0  0  0  0  0  0  0  0  0  0
    8.3017    7.0979   14.3923 C   0  0  0  0  0  0  0  0  0  0  0  0
   -1.3347    2.8164    1.3643 C   0  0  0  0  0  0  0  0  0  0  0  0
    9.9000    5.4244   13.6935 C   0  0  0  0  0  0  0  0  0  0  0  0
    9.3645    6.2405   14.6945 C   0  0  0  0  0  0  0  0  0  0  0  0
    7.7095    8.0367   15.3814 C   0  0  0  0  0  0  0  0  0  0  0  0
    8.0589    6.7048   16.8023 H   0  0  0  0  0  0  0  0  0  0  0  0
    0.9429    0.6951    0.4849 H   0  0  0  0  0  0  0  0  0  0  0  0
    7.1430    2.9290    9.2247 H   0  0  0  0  0  0  0  0  0  0  0  0
    5.1483    6.5660    6.4998 H   0  0  0  0  0  0  0  0  0  0  0  0
    4.5588    0.7049    6.3383 H   0  0  0  0  0  0  0  0  0  0  0  0
    2.4139    0.3949    5.5597 H   0  0  0  0  0  0  0  0  0  0  0  0
    3.5750    3.7364    3.0655 H   0  0  0  0  0  0  0  0  0  0  0  0
    6.6891    7.1268    8.3292 H   0  0  0  0  0  0  0  0  0  0  0  0
    0.9175   -0.3868    3.7883 H   0  0  0  0  0  0  0  0  0  0  0  0
    2.0302    2.9806    1.3494 H   0  0  0  0  0  0  0  0  0  0  0  0
    8.3810    7.2320   10.1304 H   0  0  0  0  0  0  0  0  0  0  0  0
    6.7472    6.7899   10.7235 H   0  0  0  0  0  0  0  0  0  0  0  0
    6.9925    7.8370   12.8493 H   0  0  0  0  0  0  0  0  0  0  0  0
    9.8381    4.8392   11.6242 H   0  0  0  0  0  0  0  0  0  0  0  0
   -2.3994    3.0161    1.1997 H   0  0  0  0  0  0  0  0  0  0  0  0
   -1.0333    3.2424    2.3208 H   0  0  0  0  0  0  0  0  0  0  0  0
   -0.7627    3.2395    0.5369 H   0  0  0  0  0  0  0  0  0  0  0  0
   10.7342    4.7629   13.9204 H   0  0  0  0  0  0  0  0  0  0  0  0
    9.8195    6.2212   15.6808 H   0  0  0  0  0  0  0  0  0  0  0  0
  1  5  2  0  0  0  0
  1  6  2  0  0  0  0
  1  9  1  0  0  0  0
  1 30  1  0  0  0  0
  2 13  1  0  0  0  0
  2 18  1  0  0  0  0
  3 15  1  0  0  0  0
  3 25  1  0  0  0  0
  4 14  2  0  0  0  0
  7 33  1  0  0  0  0
  7 34  1  0  0  0  0
  8 33  2  0  0  0  0
  9 19  1  0  0  0  0
  9 35  1  0  0  0  0
 10 13  2  0  0  0  0
 10 14  1  0  0  0  0
 10 17  1  0  0  0  0
 11 12  1  0  0  0  0
 11 14  1  0  0  0  0
 11 18  2  0  0  0  0
 12 20  2  0  0  0  0
 12 21  1  0  0  0  0
 13 16  1  0  0  0  0
 15 16  2  0  0  0  0
 15 22  1  0  0  0  0
 16 36  1  0  0  0  0
 17 22  2  0  0  0  0
 17 37  1  0  0  0  0
 18 38  1  0  0  0  0
 19 23  2  0  0  0  0
 19 24  1  0  0  0  0
 20 23  1  0  0  0  0
 20 39  1  0  0  0  0
 21 24  2  0  0  0  0
 21 40  1  0  0  0  0
 22 41  1  0  0  0  0
 23 42  1  0  0  0  0
 24 43  1  0  0  0  0
 25 26  1  0  0  0  0
 25 44  1  0  0  0  0
 25 45  1  0  0  0  0
 26 27  2  0  0  0  0
 26 28  1  0  0  0  0
 27 29  1  0  0  0  0
 27 46  1  0  0  0  0
 28 31  2  0  0  0  0
 28 47  1  0  0  0  0
 29 32  2  0  0  0  0
 29 33  1  0  0  0  0
 30 48  1  0  0  0  0
 30 49  1  0  0  0  0
 30 50  1  0  0  0  0
 31 32  1  0  0  0  0
 31 51  1  0  0  0  0
 32 52  1  0  0  0  0
M  END
>  <Mol_ID>
6802

>  <Formula>
C24H19NO7S

>  <MolWeight>
465.47516

>  <Cat>
E0355

>  <Name>
CVT-10216

>  <Target>
Dehydrogenase

>  <Form>
Free base

>  <CAS>
1005334-57-5

>  <URL>
http://www.selleckchem.com/products/cvt-10216.html

$$$$
