CX-4945.cdx
 OpenBabel08302521413D

 37 40  0  0  0  0  0  0  0  0999 V2000
    3.5110   -0.3343    0.0065 C   0  0  0  0  0  0  0  0  0  0  0  0
    2.8967   -1.5271   -0.0204 N   0  0  0  0  0  0  0  0  0  0  0  0
    1.5427   -1.5103   -0.0222 C   0  0  0  0  0  0  0  0  0  0  0  0
    0.7333   -0.3621   -0.0106 C   0  0  0  0  0  0  0  0  0  0  0  0
    1.4189    0.8711    0.0107 C   0  0  0  0  0  0  0  0  0  0  0  0
    2.8315    0.8696    0.0253 C   0  0  0  0  0  0  0  0  0  0  0  0
   -0.6983   -0.3873   -0.0041 C   0  0  0  0  0  0  0  0  0  0  0  0
   -1.3655    0.8504    0.0114 C   0  0  0  0  0  0  0  0  0  0  0  0
   -0.7108    2.0117    0.0383 N   0  0  0  0  0  0  0  0  0  0  0  0
    0.6421    2.0418    0.0619 C   0  0  0  0  0  0  0  0  0  0  0  0
   -1.4873   -1.5648   -0.0087 C   0  0  0  0  0  0  0  0  0  0  0  0
   -2.8812   -1.5099   -0.0102 C   0  0  0  0  0  0  0  0  0  0  0  0
   -3.5240   -0.2757   -0.0076 C   0  0  0  0  0  0  0  0  0  0  0  0
   -2.7552    0.8919    0.0043 C   0  0  0  0  0  0  0  0  0  0  0  0
    1.2732    3.3141    0.1366 N   0  0  0  0  0  0  0  0  0  0  0  0
    0.6690    4.4540    0.7196 C   0  0  0  0  0  0  0  0  0  0  0  0
   -0.1483    4.3285    1.8535 C   0  0  0  0  0  0  0  0  0  0  0  0
   -0.7889    5.4332    2.4102 C   0  0  0  0  0  0  0  0  0  0  0  0
   -0.5808    6.6949    1.8664 C   0  0  0  0  0  0  0  0  0  0  0  0
    0.2931    6.8518    0.7907 C   0  0  0  0  0  0  0  0  0  0  0  0
    0.9296    5.7384    0.2298 C   0  0  0  0  0  0  0  0  0  0  0  0
   -5.0073   -0.2633   -0.0130 C   0  0  0  0  0  0  0  0  0  0  0  0
   -5.7218   -1.2460   -0.0328 O   0  0  0  0  0  0  0  0  0  0  0  0
   -5.5199    0.9788    0.0079 O   0  0  0  0  0  0  0  0  0  0  0  0
    4.5965   -0.3712    0.0196 H   0  0  0  0  0  0  0  0  0  0  0  0
    1.1145   -2.5084   -0.0283 H   0  0  0  0  0  0  0  0  0  0  0  0
    3.3993    1.7937    0.0704 H   0  0  0  0  0  0  0  0  0  0  0  0
   -1.0296   -2.5502   -0.0092 H   0  0  0  0  0  0  0  0  0  0  0  0
   -3.4576   -2.4334   -0.0134 H   0  0  0  0  0  0  0  0  0  0  0  0
   -3.2410    1.8665    0.0130 H   0  0  0  0  0  0  0  0  0  0  0  0
    1.7029    3.5190   -0.7595 H   0  0  0  0  0  0  0  0  0  0  0  0
   -0.3171    3.3495    2.2959 H   0  0  0  0  0  0  0  0  0  0  0  0
   -1.4583    5.2959    3.2543 H   0  0  0  0  0  0  0  0  0  0  0  0
   -1.0982    7.5545    2.2828 H   0  0  0  0  0  0  0  0  0  0  0  0
    0.4666    7.8423    0.3783 H   0  0  0  0  0  0  0  0  0  0  0  0
    1.6006    5.8876   -0.6112 H   0  0  0  0  0  0  0  0  0  0  0  0
   -6.4904    0.8350    0.0005 H   0  0  0  0  0  0  0  0  0  0  0  0
  1  2  2  0  0  0  0
  1 25  1  0  0  0  0
  2  3  1  0  0  0  0
  3  4  2  0  0  0  0
  3 26  1  0  0  0  0
  4  5  1  0  0  0  0
  4  7  1  0  0  0  0
  5  6  2  0  0  0  0
  6  1  1  0  0  0  0
  6 27  1  0  0  0  0
  7  8  2  0  0  0  0
  7 11  1  0  0  0  0
  8  9  1  0  0  0  0
  9 10  2  0  0  0  0
 10  5  1  0  0  0  0
 10 15  1  0  0  0  0
 11 12  2  0  0  0  0
 11 28  1  0  0  0  0
 12 13  1  0  0  0  0
 12 29  1  0  0  0  0
 13 14  2  0  0  0  0
 13 22  1  0  0  0  0
 14  8  1  0  0  0  0
 14 30  1  0  0  0  0
 15 16  1  0  0  0  0
 15 31  1  0  0  0  0
 16 17  2  0  0  0  0
 17 18  1  0  0  0  0
 17 32  1  0  0  0  0
 18 19  2  0  0  0  0
 18 33  1  0  0  0  0
 19 20  1  0  0  0  0
 19 34  1  0  0  0  0
 20 21  2  0  0  0  0
 20 35  1  0  0  0  0
 21 16  1  0  0  0  0
 21 36  1  0  0  0  0
 22 23  2  0  0  0  0
 22 24  1  0  0  0  0
 24 37  1  0  0  0  0
M  END
>  <Mol_ID>
821

>  <Formula>
C19H12ClN3O2

>  <MolWeight>
349.77048

>  <Cat>
S2248

>  <Name>
Silmitasertib (CX-4945)

>  <Synonyms>
N/A

>  <Target>
Apoptosis related,Autophagy,Casein Kinase

>  <Form>
free base

>  <CAS>
1009820-21-6

>  <URL>
http://selleckchem.com/products/cx-4945-silmitasertib.html

$$$$
