CX546
 OpenBabel08302521243D

 35 37  0  0  0  0  0  0  0  0999 V2000
    0.9772   -0.1866   -0.1083 C   0  0  0  0  0  0  0  0  0  0  0  0
    0.2814   -1.4015   -0.1190 N   0  0  0  0  0  0  0  0  0  0  0  0
   -1.1195   -1.3823   -0.5375 C   0  0  0  0  0  0  0  0  0  0  0  0
   -2.0020   -2.2010    0.3999 C   0  0  0  0  0  0  0  0  0  0  0  0
   -1.4670   -3.6205    0.5536 C   0  0  0  0  0  0  0  0  0  0  0  0
   -0.0173   -3.5910    1.0208 C   0  0  0  0  0  0  0  0  0  0  0  0
    0.8546   -2.7311    0.1103 C   0  0  0  0  0  0  0  0  0  0  0  0
    0.4065    0.9031   -0.1795 O   0  0  0  0  0  0  0  0  0  0  0  0
    6.6095    0.1609    0.2692 O   0  0  0  0  0  0  0  0  0  0  0  0
    7.2946   -0.6330   -0.7089 C   0  0  0  0  0  0  0  0  0  0  0  0
    6.7089   -2.0337   -0.7551 C   0  0  0  0  0  0  0  0  0  0  0  0
    5.3577   -1.9838   -1.2284 O   0  0  0  0  0  0  0  0  0  0  0  0
    4.6492   -0.9957   -0.5924 C   0  0  0  0  0  0  0  0  0  0  0  0
    5.2493    0.0194    0.1583 C   0  0  0  0  0  0  0  0  0  0  0  0
    3.2646   -1.0464   -0.7257 C   0  0  0  0  0  0  0  0  0  0  0  0
    2.4610   -0.1526   -0.0107 C   0  0  0  0  0  0  0  0  0  0  0  0
    3.0665    0.8591    0.7507 C   0  0  0  0  0  0  0  0  0  0  0  0
    4.4583    0.9466    0.8313 C   0  0  0  0  0  0  0  0  0  0  0  0
   -1.1563   -1.7992   -1.5500 H   0  0  0  0  0  0  0  0  0  0  0  0
   -1.5057   -0.3599   -0.5989 H   0  0  0  0  0  0  0  0  0  0  0  0
   -3.0273   -2.2295    0.0158 H   0  0  0  0  0  0  0  0  0  0  0  0
   -2.0350   -1.7180    1.3841 H   0  0  0  0  0  0  0  0  0  0  0  0
   -2.0772   -4.1742    1.2758 H   0  0  0  0  0  0  0  0  0  0  0  0
   -1.5371   -4.1500   -0.4040 H   0  0  0  0  0  0  0  0  0  0  0  0
    0.0240   -3.1872    2.0401 H   0  0  0  0  0  0  0  0  0  0  0  0
    0.3846   -4.6095    1.0611 H   0  0  0  0  0  0  0  0  0  0  0  0
    1.8407   -2.6622    0.5723 H   0  0  0  0  0  0  0  0  0  0  0  0
    0.9619   -3.2111   -0.8702 H   0  0  0  0  0  0  0  0  0  0  0  0
    8.3514   -0.6698   -0.4290 H   0  0  0  0  0  0  0  0  0  0  0  0
    7.2130   -0.1349   -1.6834 H   0  0  0  0  0  0  0  0  0  0  0  0
    7.2767   -2.6664   -1.4440 H   0  0  0  0  0  0  0  0  0  0  0  0
    6.7192   -2.5098    0.2344 H   0  0  0  0  0  0  0  0  0  0  0  0
    2.8284   -1.7934   -1.3804 H   0  0  0  0  0  0  0  0  0  0  0  0
    2.4488    1.5918    1.2689 H   0  0  0  0  0  0  0  0  0  0  0  0
    4.9219    1.7449    1.4061 H   0  0  0  0  0  0  0  0  0  0  0  0
  1  2  1  0  0  0  0
  1  8  2  0  0  0  0
  1 16  1  0  0  0  0
  2  3  1  0  0  0  0
  2  7  1  0  0  0  0
  3  4  1  0  0  0  0
  3 19  1  0  0  0  0
  3 20  1  0  0  0  0
  4  5  1  0  0  0  0
  4 21  1  0  0  0  0
  4 22  1  0  0  0  0
  5  6  1  0  0  0  0
  5 23  1  0  0  0  0
  5 24  1  0  0  0  0
  6  7  1  0  0  0  0
  6 25  1  0  0  0  0
  6 26  1  0  0  0  0
  7 27  1  0  0  0  0
  7 28  1  0  0  0  0
  9 10  1  0  0  0  0
  9 14  1  0  0  0  0
 10 11  1  0  0  0  0
 10 29  1  0  0  0  0
 10 30  1  0  0  0  0
 11 12  1  0  0  0  0
 11 31  1  0  0  0  0
 11 32  1  0  0  0  0
 12 13  1  0  0  0  0
 13 14  2  0  0  0  0
 13 15  1  0  0  0  0
 14 18  1  0  0  0  0
 15 16  2  0  0  0  0
 15 33  1  0  0  0  0
 16 17  1  0  0  0  0
 17 18  2  0  0  0  0
 17 34  1  0  0  0  0
 18 35  1  0  0  0  0
M  END
>  <Mol_ID>
4943

>  <Formula>
C14H17NO3

>  <MolWeight>
247.28968

>  <Cat>
S6804

>  <Name>
CX546

>  <Synonyms>
N/A

>  <Target>
GluR

>  <Form>
Free Base

>  <CAS>
215923-54-9

>  <URL>
http://www.selleckchem.com/products/cx546.html

$$$$
