CXD101
 OpenBabel08302521333D

 59 62  0  0  0  0  0  0  0  0999 V2000
    0.2930    0.3807    0.0409 C   0  0  0  0  0  0  0  0  0  0  0  0
   -0.1111   -0.6819   -0.9163 C   0  0  0  0  0  0  0  0  0  0  0  0
    0.5161   -0.7060   -2.1652 C   0  0  0  0  0  0  0  0  0  0  0  0
    0.0538   -1.5473   -3.1803 C   0  0  0  0  0  0  0  0  0  0  0  0
   -1.0359   -2.4063   -2.9745 C   0  0  0  0  0  0  0  0  0  0  0  0
   -1.6372   -2.3866   -1.6998 C   0  0  0  0  0  0  0  0  0  0  0  0
   -1.1810   -1.5404   -0.6757 C   0  0  0  0  0  0  0  0  0  0  0  0
    0.8080    1.3930   -0.4372 O   0  0  0  0  0  0  0  0  0  0  0  0
    0.0694    0.1539    1.3844 N   0  0  0  0  0  0  0  0  0  0  0  0
   -0.2659   -5.8652   -4.2971 N   0  0  0  0  0  0  0  0  0  0  0  0
   -1.2929   -5.5834   -3.2773 C   0  0  0  0  0  0  0  0  0  0  0  0
   -2.3143   -4.5375   -3.7233 C   0  0  0  0  0  0  0  0  0  0  0  0
   -1.6373   -3.2165   -4.1318 C   0  0  0  0  0  0  0  0  0  0  0  0
   -0.6708   -3.5852   -5.2725 C   0  0  0  0  0  0  0  0  0  0  0  0
    0.3513   -4.6442   -4.8400 C   0  0  0  0  0  0  0  0  0  0  0  0
    0.7882   -6.7486   -3.7397 C   0  0  0  0  0  0  0  0  0  0  0  0
   -0.7145  -10.0826   -3.6580 N   0  0  0  0  0  0  0  0  0  0  0  0
   -0.3008  -10.0673   -2.3837 N   0  0  0  0  0  0  0  0  0  0  0  0
    0.2839   -8.8708   -2.2414 C   0  0  0  0  0  0  0  0  0  0  0  0
    0.2534   -8.1184   -3.4558 C   0  0  0  0  0  0  0  0  0  0  0  0
   -0.3864   -8.9598   -4.3477 C   0  0  0  0  0  0  0  0  0  0  0  0
    0.8467   -8.5250   -0.9117 C   0  0  0  0  0  0  0  0  0  0  0  0
   -1.4577  -11.2192   -4.1407 C   0  0  0  0  0  0  0  0  0  0  0  0
    0.3451    1.0675    2.4424 C   0  0  0  0  0  0  0  0  0  0  0  0
    0.4158    2.4740    2.3042 C   0  0  0  0  0  0  0  0  0  0  0  0
    0.7785    3.2513    3.4172 C   0  0  0  0  0  0  0  0  0  0  0  0
    1.0774    2.6638    4.6441 C   0  0  0  0  0  0  0  0  0  0  0  0
    0.9569    1.2880    4.7938 C   0  0  0  0  0  0  0  0  0  0  0  0
    0.5859    0.4963    3.7041 C   0  0  0  0  0  0  0  0  0  0  0  0
   -0.1397    3.1658    1.2017 N   0  0  0  0  0  0  0  0  0  0  0  0
    1.3416   -0.0259   -2.3763 H   0  0  0  0  0  0  0  0  0  0  0  0
    0.5466   -1.4690   -4.1470 H   0  0  0  0  0  0  0  0  0  0  0  0
   -2.5148   -2.9923   -1.4848 H   0  0  0  0  0  0  0  0  0  0  0  0
   -1.7242   -1.5179    0.2632 H   0  0  0  0  0  0  0  0  0  0  0  0
   -0.0851   -0.8067    1.6603 H   0  0  0  0  0  0  0  0  0  0  0  0
   -0.8294   -5.2634   -2.3393 H   0  0  0  0  0  0  0  0  0  0  0  0
   -1.8525   -6.4995   -3.0672 H   0  0  0  0  0  0  0  0  0  0  0  0
   -3.0623   -4.3923   -2.9382 H   0  0  0  0  0  0  0  0  0  0  0  0
   -2.8752   -4.9283   -4.5849 H   0  0  0  0  0  0  0  0  0  0  0  0
   -2.4118   -2.5662   -4.5566 H   0  0  0  0  0  0  0  0  0  0  0  0
   -1.2552   -3.9817   -6.1166 H   0  0  0  0  0  0  0  0  0  0  0  0
   -0.1559   -2.7075   -5.6762 H   0  0  0  0  0  0  0  0  0  0  0  0
    0.9379   -4.9137   -5.7269 H   0  0  0  0  0  0  0  0  0  0  0  0
    1.0480   -4.2024   -4.1196 H   0  0  0  0  0  0  0  0  0  0  0  0
    1.5989   -6.8606   -4.4705 H   0  0  0  0  0  0  0  0  0  0  0  0
    1.2324   -6.3027   -2.8406 H   0  0  0  0  0  0  0  0  0  0  0  0
   -0.6471   -8.8222   -5.3880 H   0  0  0  0  0  0  0  0  0  0  0  0
    0.1823   -8.8713   -0.1135 H   0  0  0  0  0  0  0  0  0  0  0  0
    1.8183   -9.0107   -0.7736 H   0  0  0  0  0  0  0  0  0  0  0  0
    0.9769   -7.4453   -0.7875 H   0  0  0  0  0  0  0  0  0  0  0  0
   -0.8814  -12.1251   -3.9343 H   0  0  0  0  0  0  0  0  0  0  0  0
   -2.4151  -11.2467   -3.6155 H   0  0  0  0  0  0  0  0  0  0  0  0
   -1.6217  -11.1179   -5.2164 H   0  0  0  0  0  0  0  0  0  0  0  0
    0.8095    4.3352    3.3302 H   0  0  0  0  0  0  0  0  0  0  0  0
    1.3689    3.2867    5.4855 H   0  0  0  0  0  0  0  0  0  0  0  0
    1.1528    0.8301    5.7603 H   0  0  0  0  0  0  0  0  0  0  0  0
    0.5140   -0.5783    3.8506 H   0  0  0  0  0  0  0  0  0  0  0  0
    0.3390    4.0417    1.0211 H   0  0  0  0  0  0  0  0  0  0  0  0
   -0.0869    2.5897    0.3587 H   0  0  0  0  0  0  0  0  0  0  0  0
  1  2  1  0  0  0  0
  1  8  2  0  0  0  0
  1  9  1  0  0  0  0
  2  3  2  0  0  0  0
  2  7  1  0  0  0  0
  3  4  1  0  0  0  0
  3 31  1  0  0  0  0
  4  5  2  0  0  0  0
  4 32  1  0  0  0  0
  5  6  1  0  0  0  0
  5 13  1  0  0  0  0
  6  7  2  0  0  0  0
  6 33  1  0  0  0  0
  7 34  1  0  0  0  0
  9 24  1  0  0  0  0
  9 35  1  0  0  0  0
 10 11  1  0  0  0  0
 10 15  1  0  0  0  0
 10 16  1  0  0  0  0
 11 12  1  0  0  0  0
 11 36  1  0  0  0  0
 11 37  1  0  0  0  0
 12 13  1  0  0  0  0
 12 38  1  0  0  0  0
 12 39  1  0  0  0  0
 13 14  1  0  0  0  0
 13 40  1  0  0  0  0
 14 15  1  0  0  0  0
 14 41  1  0  0  0  0
 14 42  1  0  0  0  0
 15 43  1  0  0  0  0
 15 44  1  0  0  0  0
 16 20  1  0  0  0  0
 16 45  1  0  0  0  0
 16 46  1  0  0  0  0
 17 18  1  0  0  0  0
 17 21  1  0  0  0  0
 17 23  1  0  0  0  0
 18 19  2  0  0  0  0
 19 20  1  0  0  0  0
 19 22  1  0  0  0  0
 20 21  2  0  0  0  0
 21 47  1  0  0  0  0
 22 48  1  0  0  0  0
 22 49  1  0  0  0  0
 22 50  1  0  0  0  0
 23 51  1  0  0  0  0
 23 52  1  0  0  0  0
 23 53  1  0  0  0  0
 24 25  2  0  0  0  0
 24 29  1  0  0  0  0
 25 26  1  0  0  0  0
 25 30  1  0  0  0  0
 26 27  2  0  0  0  0
 26 54  1  0  0  0  0
 27 28  1  0  0  0  0
 27 55  1  0  0  0  0
 28 29  2  0  0  0  0
 28 56  1  0  0  0  0
 29 57  1  0  0  0  0
 30 58  1  0  0  0  0
 30 59  1  0  0  0  0
M  END
>  <Mol_ID>
6357

>  <Formula>
C24H29N5O

>  <MolWeight>
403.51996

>  <Cat>
E0812

>  <Name>
CXD101

>  <Synonyms>
HDAC-IN-4

>  <Target>
HDAC

>  <Form>
free base

>  <CAS>
934828-12-3

>  <URL>
http://www.selleckchem.com/products/cxd101.html

$$$$
