Cyclic AMP sodium
 OpenBabel08302521383D

 34 37  0  0  0  0  0  0  0  0999 V2000
    3.0019   -0.5355    1.4486 O   0  0  0  0  0  0  0  0  0  0  0  0
   -2.2159    4.1647   -2.1432 N   0  0  0  0  0  0  0  0  0  0  0  0
    2.6024   -3.1510   -3.2458 O   0  0  0  0  0  0  0  0  0  0  0  0
    4.1753   -4.4815   -1.6765 O   0  0  0  0  0  0  0  0  0  0  0  0
    1.7030    1.9604   -0.9755 N   0  0  0  0  0  0  0  0  0  0  0  0
    0.4762    2.2965   -0.4703 C   0  0  0  0  0  0  0  0  0  0  0  0
    1.7821    2.4907   -2.2363 C   0  0  0  0  0  0  0  0  0  0  0  0
   -0.1553    2.9942   -1.4865 C   0  0  0  0  0  0  0  0  0  0  0  0
   -0.0150    2.0090    0.7452 N   0  0  0  0  0  0  0  0  0  0  0  0
    0.6737    3.1122   -2.5827 N   0  0  0  0  0  0  0  0  0  0  0  0
   -1.4586    3.4493   -1.2247 C   0  0  0  0  0  0  0  0  0  0  0  0
   -1.2658    2.4958    0.8843 C   0  0  0  0  0  0  0  0  0  0  0  0
   -1.9978    3.1946   -0.0106 N   0  0  0  0  0  0  0  0  0  0  0  0
    2.7380    1.2482   -0.2473 C   0  0  1  0  0  0  0  0  0  0  0  0
    2.3424   -0.1767    0.2238 C   0  0  1  0  0  0  0  0  0  0  0  0
    3.9065    1.0904   -1.1202 O   0  0  0  0  0  0  0  0  0  0  0  0
    2.8514   -0.9939   -0.9478 C   0  0  1  0  0  0  0  0  0  0  0  0
    4.1792   -0.3099   -1.2090 C   0  0  1  0  0  0  0  0  0  0  0  0
    3.0466   -2.3809   -0.7821 O   0  0  0  0  0  0  0  0  0  0  0  0
    4.7479   -0.7970   -2.5366 C   0  0  0  0  0  0  0  0  0  0  0  0
    3.5936   -3.0713   -2.1361 P   0  0  3  0  0  0  0  0  0  0  0  0
    4.9146   -2.2124   -2.4821 O   0  0  0  0  0  0  0  0  0  0  0  0
    3.8606   -0.0851    1.5176 H   0  0  0  0  0  0  0  0  0  0  0  0
   -1.6608    4.6136   -2.8630 H   0  0  0  0  0  0  0  0  0  0  0  0
   -2.9423    4.7105   -1.6986 H   0  0  0  0  0  0  0  0  0  0  0  0
    4.2719   -5.0820   -2.4379 H   0  0  0  0  0  0  0  0  0  0  0  0
    2.6654    2.4044   -2.8575 H   0  0  0  0  0  0  0  0  0  0  0  0
   -1.7485    2.3013    1.8383 H   0  0  0  0  0  0  0  0  0  0  0  0
    3.0395    1.8906    0.5871 H   0  0  0  0  0  0  0  0  0  0  0  0
    1.2730   -0.3258    0.3902 H   0  0  0  0  0  0  0  0  0  0  0  0
    2.1624   -0.8348   -1.7891 H   0  0  0  0  0  0  0  0  0  0  0  0
    4.9033   -0.5700   -0.4245 H   0  0  0  0  0  0  0  0  0  0  0  0
    5.7225   -0.3363   -2.7272 H   0  0  0  0  0  0  0  0  0  0  0  0
    4.0979   -0.5337   -3.3776 H   0  0  0  0  0  0  0  0  0  0  0  0
  1 23  1  0  0  0  0
  2 11  1  0  0  0  0
  2 24  1  0  0  0  0
  2 25  1  0  0  0  0
  3 21  2  0  0  0  0
  4 21  1  0  0  0  0
  4 26  1  0  0  0  0
  5  6  1  0  0  0  0
  5  7  1  0  0  0  0
  6  8  2  0  0  0  0
  6  9  1  0  0  0  0
  7 10  2  0  0  0  0
  7 27  1  0  0  0  0
  8 10  1  0  0  0  0
  8 11  1  0  0  0  0
  9 12  2  0  0  0  0
 11 13  2  0  0  0  0
 12 13  1  0  0  0  0
 12 28  1  0  0  0  0
 14 15  1  0  0  0  0
 14 16  1  0  0  0  0
 14 29  1  1  0  0  0
 14  5  1  0  0  0  0
 15 17  1  0  0  0  0
 15 30  1  1  0  0  0
 15  1  1  0  0  0  0
 16 18  1  0  0  0  0
 17 18  1  0  0  0  0
 17 19  1  0  0  0  0
 17 31  1  6  0  0  0
 18 20  1  0  0  0  0
 18 32  1  1  0  0  0
 19 21  1  0  0  0  0
 20 22  1  0  0  0  0
 20 33  1  0  0  0  0
 20 34  1  0  0  0  0
 21 22  1  0  0  0  0
M  END
>  <Mol_ID>
7658

>  <Formula>
C10H12N5NaO6P

>  <MolWeight>
352.195711

>  <Cat>
E4038

>  <Name>
Cyclic AMP sodium

>  <Synonyms>
Cyclic adenosine monophosphate sodium , Adenosine cyclic 3', 5'-monophosphate sodium

>  <Target>
Others

>  <Form>
monosodium

>  <CAS>
37839-81-9

>  <URL>
https://www.selleckchem.com/products/cyclic-amp-sodium.html

$$$$
