Cyclophosphamide
 OpenBabel08302521353D

 29 29  0  0  0  0  0  0  0  0999 V2000
    0.8752    1.1381    0.3160 P   0  0  3  0  0  0  0  0  0  0  0  0
    0.6069   -0.4000   -0.0853 O   0  0  0  0  0  0  0  0  0  0  0  0
   -0.4665   -0.6750   -0.9636 C   0  0  0  0  0  0  0  0  0  0  0  0
   -1.7376   -0.2353   -0.2663 C   0  0  0  0  0  0  0  0  0  0  0  0
   -1.7959    1.2838   -0.1321 C   0  0  0  0  0  0  0  0  0  0  0  0
   -0.5061    1.9360   -0.0402 N   0  0  0  0  0  0  0  0  0  0  0  0
    1.2656    1.2571    1.7569 O   0  0  0  0  0  0  0  0  0  0  0  0
    2.0013    1.6834   -0.7572 N   0  0  0  0  0  0  0  0  0  0  0  0
    2.0519    3.1188   -1.0590 C   0  0  0  0  0  0  0  0  0  0  0  0
    2.3247    4.0212    0.1399 C   0  0  0  0  0  0  0  0  0  0  0  0
    3.3618    1.1363   -0.6426 C   0  0  0  0  0  0  0  0  0  0  0  0
    3.4226   -0.3611   -0.9281 C   0  0  0  0  0  0  0  0  0  0  0  0
   -0.3140   -0.1697   -1.9240 H   0  0  0  0  0  0  0  0  0  0  0  0
   -0.4855   -1.7539   -1.1461 H   0  0  0  0  0  0  0  0  0  0  0  0
   -2.6195   -0.5957   -0.8055 H   0  0  0  0  0  0  0  0  0  0  0  0
   -1.7582   -0.6727    0.7401 H   0  0  0  0  0  0  0  0  0  0  0  0
   -2.3081    1.6955   -1.0095 H   0  0  0  0  0  0  0  0  0  0  0  0
   -2.4128    1.5413    0.7369 H   0  0  0  0  0  0  0  0  0  0  0  0
   -0.5882    2.7845    0.5063 H   0  0  0  0  0  0  0  0  0  0  0  0
    2.7981    3.3233   -1.8346 H   0  0  0  0  0  0  0  0  0  0  0  0
    1.1003    3.4204   -1.5119 H   0  0  0  0  0  0  0  0  0  0  0  0
    3.2888    3.7915    0.6077 H   0  0  0  0  0  0  0  0  0  0  0  0
    2.3496    5.0679   -0.1832 H   0  0  0  0  0  0  0  0  0  0  0  0
    1.5415    3.9341    0.8986 H   0  0  0  0  0  0  0  0  0  0  0  0
    4.0261    1.6132   -1.3735 H   0  0  0  0  0  0  0  0  0  0  0  0
    3.7802    1.3393    0.3495 H   0  0  0  0  0  0  0  0  0  0  0  0
    2.8450   -0.6219   -1.8210 H   0  0  0  0  0  0  0  0  0  0  0  0
    4.4582   -0.6685   -1.1040 H   0  0  0  0  0  0  0  0  0  0  0  0
    3.0501   -0.9458   -0.0823 H   0  0  0  0  0  0  0  0  0  0  0  0
  1  2  1  0  0  0  0
  1  7  2  0  0  0  0
  1  8  1  0  0  0  0
  2  3  1  0  0  0  0
  3  4  1  0  0  0  0
  3 13  1  0  0  0  0
  3 14  1  0  0  0  0
  4  5  1  0  0  0  0
  4 15  1  0  0  0  0
  4 16  1  0  0  0  0
  5  6  1  0  0  0  0
  5 17  1  0  0  0  0
  5 18  1  0  0  0  0
  6  1  1  0  0  0  0
  6 19  1  0  0  0  0
  8  9  1  0  0  0  0
  8 11  1  0  0  0  0
  9 10  1  0  0  0  0
  9 20  1  0  0  0  0
  9 21  1  0  0  0  0
 10 22  1  0  0  0  0
 10 23  1  0  0  0  0
 10 24  1  0  0  0  0
 11 12  1  0  0  0  0
 11 25  1  0  0  0  0
 11 26  1  0  0  0  0
 12 27  1  0  0  0  0
 12 28  1  0  0  0  0
 12 29  1  0  0  0  0
M  END
>  <Mol_ID>
6651

>  <Formula>
C7H15Cl2N2O2P

>  <MolWeight>
261.085961

>  <Cat>
S1217

>  <Name>
Cyclophosphamide

>  <Synonyms>
NSC 26271,Endoxan, Cytoxan, Neosar, Procytox, Revimmune, Cytophosphane

>  <Target>
DNA/RNA Synthesis

>  <Form>
Free base

>  <CAS>
50-18-0

>  <URL>
http://www.selleckchem.com/products/Clafen.html

$$$$
