Cyclohexanecarboxamide
 OpenBabel08302520143D

 40 40  0  0  0  0  0  0  0  0999 V2000
    1.1127    0.0156    0.3302 C   0  0  3  0  0  0  0  0  0  0  0  0
    0.3873    1.3108   -0.1532 C   0  0  3  0  0  0  0  0  0  0  0  0
    0.3673   -1.2702   -0.0880 C   0  0  0  0  0  0  0  0  0  0  0  0
    2.5261   -0.1381   -0.2437 C   0  0  0  0  0  0  0  0  0  0  0  0
   -1.1326    1.2389    0.1497 C   0  0  0  0  0  0  0  0  0  0  0  0
    0.9731    2.6287    0.4777 C   0  0  0  0  0  0  0  0  0  0  0  0
   -1.1099   -1.2930    0.3023 C   0  0  3  0  0  0  0  0  0  0  0  0
    3.3950   -0.8213    0.5852 N   0  0  0  0  0  0  0  0  0  0  0  0
    2.8405    0.2514   -1.3621 O   0  0  0  0  0  0  0  0  0  0  0  0
   -1.8021   -0.0620   -0.2732 C   0  0  0  0  0  0  0  0  0  0  0  0
    2.4575    2.8655    0.1826 C   0  0  0  0  0  0  0  0  0  0  0  0
    0.2095    3.8833    0.0207 C   0  0  0  0  0  0  0  0  0  0  0  0
   -1.3034   -1.4145    1.8150 C   0  0  0  0  0  0  0  0  0  0  0  0
    4.7852   -1.0310    0.2313 C   0  0  0  0  0  0  0  0  0  0  0  0
    5.6699    0.1026    0.7211 C   0  0  0  0  0  0  0  0  0  0  0  0
    1.1835    0.0497    1.4248 H   0  0  0  0  0  0  0  0  0  0  0  0
    0.4988    1.3813   -1.2439 H   0  0  0  0  0  0  0  0  0  0  0  0
    0.4342   -1.3796   -1.1805 H   0  0  0  0  0  0  0  0  0  0  0  0
    0.8701   -2.1533    0.3271 H   0  0  0  0  0  0  0  0  0  0  0  0
   -1.3019    1.4022    1.2212 H   0  0  0  0  0  0  0  0  0  0  0  0
   -1.6548    2.0477   -0.3737 H   0  0  0  0  0  0  0  0  0  0  0  0
    0.8654    2.5622    1.5687 H   0  0  0  0  0  0  0  0  0  0  0  0
   -1.5694   -2.1807   -0.1523 H   0  0  0  0  0  0  0  0  0  0  0  0
    3.0885   -1.0944    1.5090 H   0  0  0  0  0  0  0  0  0  0  0  0
   -2.8565   -0.0452    0.0288 H   0  0  0  0  0  0  0  0  0  0  0  0
   -1.7959   -0.1229   -1.3693 H   0  0  0  0  0  0  0  0  0  0  0  0
    2.6696    2.7762   -0.8875 H   0  0  0  0  0  0  0  0  0  0  0  0
    2.7683    3.8695    0.4926 H   0  0  0  0  0  0  0  0  0  0  0  0
    3.0894    2.1689    0.7382 H   0  0  0  0  0  0  0  0  0  0  0  0
   -0.8206    3.8891    0.3880 H   0  0  0  0  0  0  0  0  0  0  0  0
    0.6782    4.7927    0.4132 H   0  0  0  0  0  0  0  0  0  0  0  0
    0.1917    3.9570   -1.0718 H   0  0  0  0  0  0  0  0  0  0  0  0
   -2.3692   -1.4531    2.0645 H   0  0  0  0  0  0  0  0  0  0  0  0
   -0.8406   -2.3345    2.1874 H   0  0  0  0  0  0  0  0  0  0  0  0
   -0.8637   -0.5766    2.3634 H   0  0  0  0  0  0  0  0  0  0  0  0
    5.0980   -1.9747    0.6897 H   0  0  0  0  0  0  0  0  0  0  0  0
    4.8778   -1.1315   -0.8552 H   0  0  0  0  0  0  0  0  0  0  0  0
    5.5974    0.2160    1.8079 H   0  0  0  0  0  0  0  0  0  0  0  0
    6.7162   -0.0949    0.4677 H   0  0  0  0  0  0  0  0  0  0  0  0
    5.3832    1.0560    0.2658 H   0  0  0  0  0  0  0  0  0  0  0  0
  1  2  1  0  0  0  0
  1  3  1  0  0  0  0
  1  4  1  0  0  0  0
  1 16  1  0  0  0  0
  2  5  1  0  0  0  0
  2  6  1  0  0  0  0
  2 17  1  0  0  0  0
  3  7  1  0  0  0  0
  3 18  1  0  0  0  0
  3 19  1  0  0  0  0
  4  8  1  0  0  0  0
  4  9  2  0  0  0  0
  5 10  1  0  0  0  0
  5 20  1  0  0  0  0
  5 21  1  0  0  0  0
  6 11  1  0  0  0  0
  6 12  1  0  0  0  0
  6 22  1  0  0  0  0
  7 13  1  0  0  0  0
  7 10  1  0  0  0  0
  7 23  1  0  0  0  0
  8 14  1  0  0  0  0
  8 24  1  0  0  0  0
 10 25  1  0  0  0  0
 10 26  1  0  0  0  0
 11 27  1  0  0  0  0
 11 28  1  0  0  0  0
 11 29  1  0  0  0  0
 12 30  1  0  0  0  0
 12 31  1  0  0  0  0
 12 32  1  0  0  0  0
 13 33  1  0  0  0  0
 13 34  1  0  0  0  0
 13 35  1  0  0  0  0
 14 15  1  0  0  0  0
 14 36  1  0  0  0  0
 14 37  1  0  0  0  0
 15 38  1  0  0  0  0
 15 39  1  0  0  0  0
 15 40  1  0  0  0  0
M  END
>  <Mol_ID>
3197

>  <Formula>
C13H25NO

>  <MolWeight>
211.3437

>  <Cat>
S6122

>  <Name>
Cyclohexanecarboxamide

>  <Synonyms>
Ethyl menthane carboxamide, WS3, N-Ethyl-5-methyl-2-(1-methylethyl)-cyclohexanecarboxamide, Hexahydrobenzamide

>  <Target>
TRP Channel

>  <Form>
Free Base

>  <CAS>
39711-79-0

>  <URL>
https://www.selleckchem.com/products/cyclohexanecarboxamide.html

$$$$
