Cyclandelate.cdx
 OpenBabel08302522043D

 44 45  0  0  0  0  0  0  0  0999 V2000
    0.7090    1.1823   -0.2237 C   0  0  0  0  0  0  0  0  0  0  0  0
    1.5018   -0.0916    0.1021 C   0  0  3  0  0  0  0  0  0  0  0  0
    0.7110   -1.3739   -0.2087 C   0  0  0  0  0  0  0  0  0  0  0  0
   -0.7970   -1.4004    0.1710 C   0  0  0  0  0  0  0  0  0  0  0  0
   -1.4661   -0.0188   -0.0417 C   0  0  0  0  0  0  0  0  0  0  0  0
   -0.6513    1.1798    0.4703 C   0  0  3  0  0  0  0  0  0  0  0  0
   -1.4750   -2.4398   -0.7579 C   0  0  0  0  0  0  0  0  0  0  0  0
   -1.0410   -1.8967    1.6143 C   0  0  0  0  0  0  0  0  0  0  0  0
    2.8189   -0.0838   -0.6847 C   0  0  0  0  0  0  0  0  0  0  0  0
   -0.3689    1.1283    1.8817 O   0  0  0  0  0  0  0  0  0  0  0  0
   -1.3364    1.5162    2.7590 C   0  0  0  0  0  0  0  0  0  0  0  0
   -2.4604    1.8793    2.4572 O   0  0  0  0  0  0  0  0  0  0  0  0
   -0.7785    1.4424    4.2013 C   0  0  3  0  0  0  0  0  0  0  0  0
   -0.0605    2.7282    4.5692 C   0  0  0  0  0  0  0  0  0  0  0  0
   -1.7657    1.1565    5.1885 O   0  0  0  0  0  0  0  0  0  0  0  0
   -0.7491    3.9561    4.6205 C   0  0  0  0  0  0  0  0  0  0  0  0
   -0.0672    5.1380    4.9155 C   0  0  0  0  0  0  0  0  0  0  0  0
    1.3025    5.1126    5.1609 C   0  0  0  0  0  0  0  0  0  0  0  0
    1.9944    3.9050    5.1260 C   0  0  0  0  0  0  0  0  0  0  0  0
    1.3157    2.7200    4.8356 C   0  0  0  0  0  0  0  0  0  0  0  0
    1.2871    2.0518    0.1147 H   0  0  0  0  0  0  0  0  0  0  0  0
    0.5743    1.2858   -1.3080 H   0  0  0  0  0  0  0  0  0  0  0  0
    1.7532   -0.0898    1.1707 H   0  0  0  0  0  0  0  0  0  0  0  0
    0.7958   -1.5515   -1.2893 H   0  0  0  0  0  0  0  0  0  0  0  0
    1.2245   -2.2246    0.2602 H   0  0  0  0  0  0  0  0  0  0  0  0
   -1.6309    0.1321   -1.1187 H   0  0  0  0  0  0  0  0  0  0  0  0
   -2.4602   -0.0190    0.4219 H   0  0  0  0  0  0  0  0  0  0  0  0
   -1.1713    2.1159    0.2387 H   0  0  0  0  0  0  0  0  0  0  0  0
   -1.0725   -3.4446   -0.5758 H   0  0  0  0  0  0  0  0  0  0  0  0
   -2.5577   -2.4772   -0.5977 H   0  0  0  0  0  0  0  0  0  0  0  0
   -1.3085   -2.2042   -1.8152 H   0  0  0  0  0  0  0  0  0  0  0  0
   -1.0659   -1.0942    2.3502 H   0  0  0  0  0  0  0  0  0  0  0  0
   -2.0134   -2.3998    1.6933 H   0  0  0  0  0  0  0  0  0  0  0  0
   -0.2804   -2.6128    1.9373 H   0  0  0  0  0  0  0  0  0  0  0  0
    3.4013    0.8170   -0.4673 H   0  0  0  0  0  0  0  0  0  0  0  0
    3.4322   -0.9544   -0.4297 H   0  0  0  0  0  0  0  0  0  0  0  0
    2.6339   -0.1076   -1.7646 H   0  0  0  0  0  0  0  0  0  0  0  0
   -0.0812    0.5972    4.2347 H   0  0  0  0  0  0  0  0  0  0  0  0
   -2.3986    1.8905    5.1792 H   0  0  0  0  0  0  0  0  0  0  0  0
   -1.8158    4.0038    4.4187 H   0  0  0  0  0  0  0  0  0  0  0  0
   -0.6078    6.0814    4.9440 H   0  0  0  0  0  0  0  0  0  0  0  0
    1.8326    6.0363    5.3787 H   0  0  0  0  0  0  0  0  0  0  0  0
    3.0640    3.8845    5.3207 H   0  0  0  0  0  0  0  0  0  0  0  0
    1.8755    1.7846    4.8108 H   0  0  0  0  0  0  0  0  0  0  0  0
  1  2  1  0  0  0  0
  1 21  1  0  0  0  0
  1 22  1  0  0  0  0
  2  3  1  0  0  0  0
  2  9  1  0  0  0  0
  2 23  1  0  0  0  0
  3  4  1  0  0  0  0
  3 24  1  0  0  0  0
  3 25  1  0  0  0  0
  4  5  1  0  0  0  0
  4  7  1  0  0  0  0
  4  8  1  0  0  0  0
  5  6  1  0  0  0  0
  5 26  1  0  0  0  0
  5 27  1  0  0  0  0
  6  1  1  0  0  0  0
  6 10  1  0  0  0  0
  6 28  1  0  0  0  0
  7 29  1  0  0  0  0
  7 30  1  0  0  0  0
  7 31  1  0  0  0  0
  8 32  1  0  0  0  0
  8 33  1  0  0  0  0
  8 34  1  0  0  0  0
  9 35  1  0  0  0  0
  9 36  1  0  0  0  0
  9 37  1  0  0  0  0
 10 11  1  0  0  0  0
 11 12  2  0  0  0  0
 11 13  1  0  0  0  0
 13 14  1  0  0  0  0
 13 15  1  0  0  0  0
 13 38  1  0  0  0  0
 14 16  2  0  0  0  0
 15 39  1  0  0  0  0
 16 17  1  0  0  0  0
 16 40  1  0  0  0  0
 17 18  2  0  0  0  0
 17 41  1  0  0  0  0
 18 19  1  0  0  0  0
 18 42  1  0  0  0  0
 19 20  2  0  0  0  0
 19 43  1  0  0  0  0
 20 14  1  0  0  0  0
 20 44  1  0  0  0  0
M  END
>  <Mol_ID>
1280

>  <Formula>
C17H24O3

>  <MolWeight>
276.37066

>  <Cat>
S4189

>  <Name>
Cyclandelate

>  <Synonyms>
BS 572,3,5,5-Trimethylcyclohexyl mandelate

>  <Target>
Acyltransferase,Transferase

>  <Form>
free base

>  <CAS>
456-59-7

>  <URL>
http://selleckchem.com/products/cyclandelate.html

$$$$
