Cyclothiazide
 OpenBabel08302520403D

 40 43  0  0  0  0  0  0  0  0999 V2000
    1.2504    1.9699    0.0533 C   0  0  3  0  0  0  0  0  0  0  0  0
    1.8248    0.6758    0.3935 N   0  0  0  0  0  0  0  0  0  0  0  0
    1.2133   -0.6509   -0.3982 S   0  0  0  0  0  0  0  0  0  0  0  0
   -0.5005   -0.4700   -0.1577 C   0  0  0  0  0  0  0  0  0  0  0  0
   -0.9998    0.8262   -0.0924 C   0  0  0  0  0  0  0  0  0  0  0  0
   -0.1949    1.9438   -0.0877 N   0  0  0  0  0  0  0  0  0  0  0  0
   -1.3057   -1.6040   -0.0344 C   0  0  0  0  0  0  0  0  0  0  0  0
   -2.6802   -1.4344    0.1047 C   0  0  0  0  0  0  0  0  0  0  0  0
   -3.2372   -0.1560    0.0745 C   0  0  0  0  0  0  0  0  0  0  0  0
   -2.3948    0.9630   -0.0158 C   0  0  0  0  0  0  0  0  0  0  0  0
    1.6729   -1.8038    0.3459 O   0  0  0  0  0  0  0  0  0  0  0  0
    1.5134   -0.4943   -1.8033 O   0  0  0  0  0  0  0  0  0  0  0  0
   -3.7035   -2.8656    0.2773 S   0  0  0  0  0  0  0  0  0  0  0  0
   -3.7484   -3.0458    1.9452 N   0  0  0  0  0  0  0  0  0  0  0  0
   -5.0487   -2.5381   -0.1326 O   0  0  0  0  0  0  0  0  0  0  0  0
   -2.9955   -4.0175   -0.2277 O   0  0  0  0  0  0  0  0  0  0  0  0
    3.3554    3.6929    2.8012 C   0  0  0  0  0  0  0  0  0  0  0  0
    3.1552    3.1115    1.4166 C   0  0  3  0  0  0  0  0  0  0  0  0
    1.6187    2.9090    1.2303 C   0  0  3  0  0  0  0  0  0  0  0  0
    1.1254    4.3887    1.0875 C   0  0  0  0  0  0  0  0  0  0  0  0
    2.8864    4.9465    2.7652 C   0  0  0  0  0  0  0  0  0  0  0  0
    2.4033    5.2133    1.3571 C   0  0  3  0  0  0  0  0  0  0  0  0
    3.4287    4.3753    0.5947 C   0  0  0  0  0  0  0  0  0  0  0  0
    1.6970    2.3390   -0.8770 H   0  0  0  0  0  0  0  0  0  0  0  0
    2.8334    0.6560    0.2585 H   0  0  0  0  0  0  0  0  0  0  0  0
   -0.6626    2.8428   -0.0744 H   0  0  0  0  0  0  0  0  0  0  0  0
   -0.8606   -2.5967   -0.0463 H   0  0  0  0  0  0  0  0  0  0  0  0
   -4.3148   -0.0172    0.1366 H   0  0  0  0  0  0  0  0  0  0  0  0
   -2.8470    1.9531   -0.0145 H   0  0  0  0  0  0  0  0  0  0  0  0
   -4.7182   -3.1162    2.2560 H   0  0  0  0  0  0  0  0  0  0  0  0
   -3.1670   -3.8329    2.2340 H   0  0  0  0  0  0  0  0  0  0  0  0
    3.7548    3.1683    3.6536 H   0  0  0  0  0  0  0  0  0  0  0  0
    3.8131    2.2735    1.1937 H   0  0  0  0  0  0  0  0  0  0  0  0
    1.1838    2.4850    2.1491 H   0  0  0  0  0  0  0  0  0  0  0  0
    0.7571    4.5954    0.0761 H   0  0  0  0  0  0  0  0  0  0  0  0
    0.3264    4.6132    1.8019 H   0  0  0  0  0  0  0  0  0  0  0  0
    2.8418    5.6387    3.5953 H   0  0  0  0  0  0  0  0  0  0  0  0
    2.3597    6.2675    1.0807 H   0  0  0  0  0  0  0  0  0  0  0  0
    4.4564    4.7475    0.6985 H   0  0  0  0  0  0  0  0  0  0  0  0
    3.1955    4.2675   -0.4695 H   0  0  0  0  0  0  0  0  0  0  0  0
  1  2  1  0  0  0  0
  1 19  1  0  0  0  0
  1 24  1  0  0  0  0
  2  3  1  0  0  0  0
  2 25  1  0  0  0  0
  3  4  1  0  0  0  0
  3 11  2  0  0  0  0
  3 12  2  0  0  0  0
  4  5  2  0  0  0  0
  4  7  1  0  0  0  0
  5  6  1  0  0  0  0
  6  1  1  0  0  0  0
  6 26  1  0  0  0  0
  7  8  2  0  0  0  0
  7 27  1  0  0  0  0
  8  9  1  0  0  0  0
  8 13  1  0  0  0  0
  9 10  2  0  0  0  0
  9 28  1  0  0  0  0
 10  5  1  0  0  0  0
 10 29  1  0  0  0  0
 13 14  1  0  0  0  0
 13 15  2  0  0  0  0
 13 16  2  0  0  0  0
 14 30  1  0  0  0  0
 14 31  1  0  0  0  0
 17 18  1  0  0  0  0
 17 21  2  0  0  0  0
 17 32  1  0  0  0  0
 18 19  1  0  0  0  0
 18 23  1  0  0  0  0
 18 33  1  0  0  0  0
 19 20  1  0  0  0  0
 19 34  1  0  0  0  0
 20 22  1  0  0  0  0
 20 35  1  0  0  0  0
 20 36  1  0  0  0  0
 21 22  1  0  0  0  0
 21 37  1  0  0  0  0
 22 23  1  0  0  0  0
 22 38  1  0  0  0  0
 23 39  1  0  0  0  0
 23 40  1  0  0  0  0
M  END
>  <Mol_ID>
3857

>  <Formula>
C14H16ClN3O4S2

>  <MolWeight>
389.87754

>  <Cat>
S6611

>  <Name>
Cyclothiazide

>  <Synonyms>
N/A

>  <Target>
GABA Receptor

>  <Form>
free base

>  <CAS>
2259-96-3

>  <URL>
http://www.selleck.cn/products/cyclothiazide.html

$$$$
