Cyclopentolate Hydrochloride
 OpenBabel08302520403D

 46 47  0  0  0  0  0  0  0  0999 V2000
   -0.6337    0.3299   -0.3359 C   0  0  0  0  0  0  0  0  0  0  0  0
   -1.6667    0.5040   -1.4941 C   0  0  3  0  0  0  0  0  0  0  0  0
    0.4230    1.4219   -0.1309 C   0  0  0  0  0  0  0  0  0  0  0  0
   -1.2913    0.2846    1.0613 C   0  0  0  0  0  0  0  0  0  0  0  0
    0.0408   -0.9366   -0.4894 O   0  0  0  0  0  0  0  0  0  0  0  0
   -2.5816    1.7248   -1.4346 C   0  0  0  0  0  0  0  0  0  0  0  0
   -1.0376    0.3243   -2.8754 C   0  0  0  0  0  0  0  0  0  0  0  0
    0.9945    1.1255    1.2583 C   0  0  0  0  0  0  0  0  0  0  0  0
   -0.1687    0.5617    2.0669 C   0  0  0  0  0  0  0  0  0  0  0  0
   -2.2310    2.9685   -1.9851 C   0  0  0  0  0  0  0  0  0  0  0  0
   -3.8465    1.6057   -0.8349 C   0  0  0  0  0  0  0  0  0  0  0  0
   -0.0883    1.2685   -3.1205 O   0  0  0  0  0  0  0  0  0  0  0  0
   -1.3729   -0.5521   -3.6713 O   0  0  0  0  0  0  0  0  0  0  0  0
   -3.1222    4.0412   -1.9722 C   0  0  0  0  0  0  0  0  0  0  0  0
   -4.7296    2.6872   -0.7997 C   0  0  0  0  0  0  0  0  0  0  0  0
    0.6870    1.1410   -4.3239 C   0  0  0  0  0  0  0  0  0  0  0  0
   -4.3702    3.9028   -1.3765 C   0  0  0  0  0  0  0  0  0  0  0  0
    2.0625    0.5659   -3.9449 C   0  0  0  0  0  0  0  0  0  0  0  0
    1.9474   -0.7459   -3.2865 N   0  0  0  0  0  0  0  0  0  0  0  0
    1.5598   -1.8085   -4.2209 C   0  0  0  0  0  0  0  0  0  0  0  0
    3.1422   -1.1044   -2.5241 C   0  0  0  0  0  0  0  0  0  0  0  0
   -2.3226   -0.3781   -1.4179 H   0  0  0  0  0  0  0  0  0  0  0  0
    1.2269    1.3935   -0.8711 H   0  0  0  0  0  0  0  0  0  0  0  0
   -0.0250    2.4207   -0.1285 H   0  0  0  0  0  0  0  0  0  0  0  0
   -2.0453    1.0676    1.1840 H   0  0  0  0  0  0  0  0  0  0  0  0
   -1.7642   -0.6808    1.2722 H   0  0  0  0  0  0  0  0  0  0  0  0
    0.5834   -0.9064   -1.3041 H   0  0  0  0  0  0  0  0  0  0  0  0
    1.7907    0.3741    1.1896 H   0  0  0  0  0  0  0  0  0  0  0  0
    1.4269    2.0158    1.7260 H   0  0  0  0  0  0  0  0  0  0  0  0
    0.1312   -0.3509    2.5938 H   0  0  0  0  0  0  0  0  0  0  0  0
   -0.5053    1.2769    2.8268 H   0  0  0  0  0  0  0  0  0  0  0  0
   -1.2645    3.1331   -2.4537 H   0  0  0  0  0  0  0  0  0  0  0  0
   -4.1603    0.6627   -0.3909 H   0  0  0  0  0  0  0  0  0  0  0  0
   -2.8400    4.9828   -2.4376 H   0  0  0  0  0  0  0  0  0  0  0  0
   -5.7048    2.5777   -0.3295 H   0  0  0  0  0  0  0  0  0  0  0  0
    0.1713    0.5576   -5.0920 H   0  0  0  0  0  0  0  0  0  0  0  0
    0.8129    2.1514   -4.7278 H   0  0  0  0  0  0  0  0  0  0  0  0
   -5.0625    4.7393   -1.3648 H   0  0  0  0  0  0  0  0  0  0  0  0
    2.7249    0.5292   -4.8170 H   0  0  0  0  0  0  0  0  0  0  0  0
    2.4978    1.2773   -3.2296 H   0  0  0  0  0  0  0  0  0  0  0  0
    2.4166   -2.3712   -4.6082 H   0  0  0  0  0  0  0  0  0  0  0  0
    0.8823   -2.5060   -3.7193 H   0  0  0  0  0  0  0  0  0  0  0  0
    1.0284   -1.4302   -5.1010 H   0  0  0  0  0  0  0  0  0  0  0  0
    3.7401   -1.8933   -2.9924 H   0  0  0  0  0  0  0  0  0  0  0  0
    3.8116   -0.2514   -2.3648 H   0  0  0  0  0  0  0  0  0  0  0  0
    2.8385   -1.4567   -1.5333 H   0  0  0  0  0  0  0  0  0  0  0  0
  1  2  1  0  0  0  0
  1  3  1  0  0  0  0
  1  4  1  0  0  0  0
  1  5  1  0  0  0  0
  2  6  1  0  0  0  0
  2  7  1  0  0  0  0
  2 22  1  0  0  0  0
  3  8  1  0  0  0  0
  3 23  1  0  0  0  0
  3 24  1  0  0  0  0
  4  9  1  0  0  0  0
  4 25  1  0  0  0  0
  4 26  1  0  0  0  0
  5 27  1  0  0  0  0
  6 10  2  0  0  0  0
  6 11  1  0  0  0  0
  7 12  1  0  0  0  0
  7 13  2  0  0  0  0
  8  9  1  0  0  0  0
  8 28  1  0  0  0  0
  8 29  1  0  0  0  0
  9 30  1  0  0  0  0
  9 31  1  0  0  0  0
 10 14  1  0  0  0  0
 10 32  1  0  0  0  0
 11 15  2  0  0  0  0
 11 33  1  0  0  0  0
 12 16  1  0  0  0  0
 14 17  2  0  0  0  0
 14 34  1  0  0  0  0
 15 17  1  0  0  0  0
 15 35  1  0  0  0  0
 16 18  1  0  0  0  0
 16 36  1  0  0  0  0
 16 37  1  0  0  0  0
 17 38  1  0  0  0  0
 18 19  1  0  0  0  0
 18 39  1  0  0  0  0
 18 40  1  0  0  0  0
 19 20  1  0  0  0  0
 19 21  1  0  0  0  0
 20 41  1  0  0  0  0
 20 42  1  0  0  0  0
 20 43  1  0  0  0  0
 21 44  1  0  0  0  0
 21 45  1  0  0  0  0
 21 46  1  0  0  0  0
M  END
>  <Mol_ID>
3793

>  <Formula>
C17H26ClNO3

>  <MolWeight>
327.84624

>  <Cat>
S5921

>  <Name>
Cyclopentolate Hydrochloride

>  <Synonyms>
N/A

>  <Target>
AChR

>  <Form>
Hydrochloride

>  <CAS>
5870-29-1

>  <URL>
http://www.selleck.cn/products/cyclopentolate-hydrochloride.html

$$$$
