Cyclocytidine hydrochloride.cdx
 OpenBabel08302521593D

 27 29  0  0  0  0  0  0  0  0999 V2000
    1.5296    1.3709   -0.2760 C   0  0  0  0  0  0  0  0  0  0  0  0
    0.4673    0.5122   -0.2603 N   0  0  0  0  0  0  0  0  0  0  0  0
    0.6719   -0.8020    0.0550 C   0  0  0  0  0  0  0  0  0  0  0  0
    1.7867   -1.3528    0.3900 N   0  0  0  0  0  0  0  0  0  0  0  0
    2.8779   -0.5174    0.4006 C   0  0  0  0  0  0  0  0  0  0  0  0
    2.7499    0.9172    0.0273 C   0  0  0  0  0  0  0  0  0  0  0  0
   -0.9147    0.7571   -0.5408 C   0  0  1  0  0  0  0  0  0  0  0  0
   -1.3981   -0.6654   -0.7808 C   0  0  1  0  0  0  0  0  0  0  0  0
   -0.4923   -1.5097   -0.0439 O   0  0  0  0  0  0  0  0  0  0  0  0
   -1.5911    1.2601    0.6156 O   0  0  0  0  0  0  0  0  0  0  0  0
   -2.7528    0.4273    0.8606 C   0  0  1  0  0  0  0  0  0  0  0  0
   -2.7936   -0.6633   -0.2129 C   0  0  1  0  0  0  0  0  0  0  0  0
    4.0012   -1.0442    0.7313 N   0  0  0  0  0  0  0  0  0  0  0  0
   -2.6503   -0.1595    2.2708 C   0  0  0  0  0  0  0  0  0  0  0  0
   -2.6091    0.8865    3.2383 O   0  0  0  0  0  0  0  0  0  0  0  0
   -3.7046   -0.2737   -1.2483 O   0  0  0  0  0  0  0  0  0  0  0  0
    1.3264    2.4000   -0.5528 H   0  0  0  0  0  0  0  0  0  0  0  0
    3.6459    1.5235    0.0220 H   0  0  0  0  0  0  0  0  0  0  0  0
   -1.0943    1.4236   -1.3906 H   0  0  0  0  0  0  0  0  0  0  0  0
   -1.3498   -0.9552   -1.8368 H   0  0  0  0  0  0  0  0  0  0  0  0
   -3.6249    1.0884    0.8045 H   0  0  0  0  0  0  0  0  0  0  0  0
   -3.1185   -1.6308    0.1821 H   0  0  0  0  0  0  0  0  0  0  0  0
    3.7833   -2.0286    0.9274 H   0  0  0  0  0  0  0  0  0  0  0  0
   -3.5208   -0.7846    2.4917 H   0  0  0  0  0  0  0  0  0  0  0  0
   -1.7441   -0.7603    2.3959 H   0  0  0  0  0  0  0  0  0  0  0  0
   -1.8735    1.4715    2.9718 H   0  0  0  0  0  0  0  0  0  0  0  0
   -3.8954   -1.0634   -1.7883 H   0  0  0  0  0  0  0  0  0  0  0  0
  1  2  1  0  0  0  0
  1 17  1  0  0  0  0
  2  3  1  0  0  0  0
  3  4  2  0  0  0  0
  4  5  1  0  0  0  0
  5  6  1  0  0  0  0
  5 13  2  0  0  0  0
  6  1  2  0  0  0  0
  6 18  1  0  0  0  0
  7  8  1  0  0  0  0
  7 10  1  0  0  0  0
  7  2  1  0  0  0  0
  7 19  1  6  0  0  0
  8  9  1  0  0  0  0
  8 20  1  6  0  0  0
  9  3  1  0  0  0  0
 10 11  1  0  0  0  0
 11 12  1  0  0  0  0
 11 21  1  6  0  0  0
 11 14  1  0  0  0  0
 12  8  1  0  0  0  0
 12 22  1  1  0  0  0
 12 16  1  0  0  0  0
 13 23  1  0  0  0  0
 14 15  1  0  0  0  0
 14 24  1  0  0  0  0
 14 25  1  0  0  0  0
 15 26  1  0  0  0  0
 16 27  1  0  0  0  0
M  END
>  <Mol_ID>
1025

>  <Formula>
C9H12ClN3O4

>  <MolWeight>
261.66228

>  <Cat>
S1973

>  <Name>
Cyclocytidine HCl

>  <Synonyms>
NSC 145668 HCl

>  <Target>
DNA/RNA Synthesis

>  <Form>
Hydrochloride

>  <CAS>
10212-25-6

>  <URL>
http://selleckchem.com/products/cyclocytidine-hcl.html

$$$$
