Cyclohexanecarboxylic Acid
 OpenBabel08302520393D

 21 21  0  0  0  0  0  0  0  0999 V2000
   -1.3831    0.3158   -0.3066 C   0  0  0  0  0  0  0  0  0  0  0  0
   -0.9601   -1.0797    0.1647 C   0  0  0  0  0  0  0  0  0  0  0  0
    0.4891   -1.4109   -0.1832 C   0  0  0  0  0  0  0  0  0  0  0  0
    1.4550   -0.3388    0.3140 C   0  0  0  0  0  0  0  0  0  0  0  0
    1.0640    1.0524   -0.1700 C   0  0  0  0  0  0  0  0  0  0  0  0
   -0.3908    1.3895    0.1574 C   0  0  0  0  0  0  0  0  0  0  0  0
   -1.6074    0.3611   -1.8059 C   0  0  0  0  0  0  0  0  0  0  0  0
   -1.0311    1.0586   -2.6227 O   0  0  0  0  0  0  0  0  0  0  0  0
   -2.6074   -0.4527   -2.2038 O   0  0  0  0  0  0  0  0  0  0  0  0
   -2.3569    0.5596    0.1417 H   0  0  0  0  0  0  0  0  0  0  0  0
   -1.0807   -1.1340    1.2545 H   0  0  0  0  0  0  0  0  0  0  0  0
   -1.6133   -1.8517   -0.2572 H   0  0  0  0  0  0  0  0  0  0  0  0
    0.7599   -2.3747    0.2628 H   0  0  0  0  0  0  0  0  0  0  0  0
    0.5939   -1.5228   -1.2685 H   0  0  0  0  0  0  0  0  0  0  0  0
    1.4778   -0.3489    1.4111 H   0  0  0  0  0  0  0  0  0  0  0  0
    2.4706   -0.5729   -0.0265 H   0  0  0  0  0  0  0  0  0  0  0  0
    1.7216    1.7977    0.2921 H   0  0  0  0  0  0  0  0  0  0  0  0
    1.2283    1.1202   -1.2517 H   0  0  0  0  0  0  0  0  0  0  0  0
   -0.6438    2.3622   -0.2817 H   0  0  0  0  0  0  0  0  0  0  0  0
   -0.4841    1.5052    1.2454 H   0  0  0  0  0  0  0  0  0  0  0  0
   -2.6633   -0.3006   -3.1706 H   0  0  0  0  0  0  0  0  0  0  0  0
  1  2  1  0  0  0  0
  1  6  1  0  0  0  0
  1  7  1  0  0  0  0
  1 10  1  0  0  0  0
  2  3  1  0  0  0  0
  2 11  1  0  0  0  0
  2 12  1  0  0  0  0
  3  4  1  0  0  0  0
  3 13  1  0  0  0  0
  3 14  1  0  0  0  0
  4  5  1  0  0  0  0
  4 15  1  0  0  0  0
  4 16  1  0  0  0  0
  5  6  1  0  0  0  0
  5 17  1  0  0  0  0
  5 18  1  0  0  0  0
  6 19  1  0  0  0  0
  6 20  1  0  0  0  0
  7  8  2  0  0  0  0
  7  9  1  0  0  0  0
  9 21  1  0  0  0  0
M  END
>  <Mol_ID>
3630

>  <Formula>
C7H12O2

>  <MolWeight>
128.16898

>  <Cat>
S6279

>  <Name>
Cyclohexanecarboxylic Acid

>  <Synonyms>
N/A

>  <Target>
Others

>  <Form>
free base

>  <CAS>
98-89-5

>  <URL>
http://www.selleck.cn/products/cyclohexanecarboxylic-acid.html

$$$$
