Cyclocreatine
 OpenBabel08302521453D

 19 19  0  0  0  0  0  0  0  0999 V2000
    1.0081   -0.6383    0.0785 C   0  0  0  0  0  0  0  0  0  0  0  0
    1.0910    0.6604    0.0845 N   0  0  0  0  0  0  0  0  0  0  0  0
   -0.3247    1.1165    0.0690 C   0  0  0  0  0  0  0  0  0  0  0  0
   -1.2000   -0.1262   -0.1368 C   0  0  0  0  0  0  0  0  0  0  0  0
   -0.2230   -1.1912   -0.0472 N   0  0  0  0  0  0  0  0  0  0  0  0
   -0.0726   -3.5991   -0.5323 C   0  0  0  0  0  0  0  0  0  0  0  0
   -0.6420   -2.5174    0.3759 C   0  0  0  0  0  0  0  0  0  0  0  0
    1.1084   -3.8457   -0.7324 O   0  0  0  0  0  0  0  0  0  0  0  0
   -1.0200   -4.3140   -1.1749 O   0  0  0  0  0  0  0  0  0  0  0  0
    2.0801   -1.4377    0.1822 N   0  0  0  0  0  0  0  0  0  0  0  0
   -0.4838    1.8560   -0.7231 H   0  0  0  0  0  0  0  0  0  0  0  0
   -0.5492    1.5898    1.0332 H   0  0  0  0  0  0  0  0  0  0  0  0
   -1.9821   -0.1921    0.6256 H   0  0  0  0  0  0  0  0  0  0  0  0
   -1.6614   -0.1210   -1.1287 H   0  0  0  0  0  0  0  0  0  0  0  0
   -0.3343   -2.7241    1.4072 H   0  0  0  0  0  0  0  0  0  0  0  0
   -1.7355   -2.5954    0.3522 H   0  0  0  0  0  0  0  0  0  0  0  0
   -0.5020   -4.9177   -1.7485 H   0  0  0  0  0  0  0  0  0  0  0  0
    2.0415   -2.2962   -0.3601 H   0  0  0  0  0  0  0  0  0  0  0  0
    2.9387   -0.9282    0.0007 H   0  0  0  0  0  0  0  0  0  0  0  0
  1  2  2  0  0  0  0
  1  5  1  0  0  0  0
  1 10  1  0  0  0  0
  2  3  1  0  0  0  0
  3  4  1  0  0  0  0
  3 11  1  0  0  0  0
  3 12  1  0  0  0  0
  4  5  1  0  0  0  0
  4 13  1  0  0  0  0
  4 14  1  0  0  0  0
  5  7  1  0  0  0  0
  6  7  1  0  0  0  0
  6  8  2  0  0  0  0
  6  9  1  0  0  0  0
  7 15  1  0  0  0  0
  7 16  1  0  0  0  0
  9 17  1  0  0  0  0
 10 18  1  0  0  0  0
 10 19  1  0  0  0  0
M  END
>  <Mol_ID>
9430

>  <Formula>
C5H9N3O2

>  <MolWeight>
143.14386

>  <Cat>
E2830

>  <Name>
Cyclocreatine

>  <Target>
Others

>  <Form>
free base

>  <CAS>
35404-50-3

>  <URL>
http://www.selleckchem.com/products/cyclocreatine.html

$$$$
