Cycloguanil hydrochloride
 OpenBabel08302521323D

 31 32  0  0  0  0  0  0  0  0999 V2000
    0.3730   -1.3936   -0.0840 N   0  0  0  0  0  0  0  0  0  0  0  0
    0.6735   -2.7924   -0.0662 C   0  0  0  0  0  0  0  0  0  0  0  0
   -1.0404   -0.9133    0.0016 C   0  0  0  0  0  0  0  0  0  0  0  0
    1.3047   -0.3780    0.0095 C   0  0  0  0  0  0  0  0  0  0  0  0
   -0.1422   -3.7709   -0.6659 C   0  0  0  0  0  0  0  0  0  0  0  0
    1.8394   -3.3069    0.5368 C   0  0  0  0  0  0  0  0  0  0  0  0
   -1.2300    0.5321    0.1996 N   0  0  0  0  0  0  0  0  0  0  0  0
   -1.8353   -1.1552   -1.3008 C   0  0  0  0  0  0  0  0  0  0  0  0
   -1.7515   -1.5310    1.2189 C   0  0  0  0  0  0  0  0  0  0  0  0
    1.0675    0.8871    0.1533 N   0  0  0  0  0  0  0  0  0  0  0  0
    2.6316   -0.6701   -0.1065 N   0  0  0  0  0  0  0  0  0  0  0  0
    0.1778   -5.1392   -0.6875 C   0  0  0  0  0  0  0  0  0  0  0  0
    2.1992   -4.6646    0.4828 C   0  0  0  0  0  0  0  0  0  0  0  0
   -0.2116    1.2983    0.2507 C   0  0  0  0  0  0  0  0  0  0  0  0
    1.3641   -5.5840   -0.1301 C   0  0  0  0  0  0  0  0  0  0  0  0
   -0.4092    2.6331    0.3602 N   0  0  0  0  0  0  0  0  0  0  0  0
   -1.0626   -3.5251   -1.1685 H   0  0  0  0  0  0  0  0  0  0  0  0
    2.5085   -2.6572    1.0967 H   0  0  0  0  0  0  0  0  0  0  0  0
   -2.3088   -2.1354   -1.3510 H   0  0  0  0  0  0  0  0  0  0  0  0
   -2.6776   -0.4534   -1.3886 H   0  0  0  0  0  0  0  0  0  0  0  0
   -1.2076   -1.0115   -2.1871 H   0  0  0  0  0  0  0  0  0  0  0  0
   -1.2630   -1.2161    2.1501 H   0  0  0  0  0  0  0  0  0  0  0  0
   -2.7943   -1.1971    1.2731 H   0  0  0  0  0  0  0  0  0  0  0  0
   -1.7623   -2.6233    1.2061 H   0  0  0  0  0  0  0  0  0  0  0  0
    3.1823    0.1767   -0.1731 H   0  0  0  0  0  0  0  0  0  0  0  0
    2.8361   -1.3259   -0.8564 H   0  0  0  0  0  0  0  0  0  0  0  0
   -0.5031   -5.8425   -1.1538 H   0  0  0  0  0  0  0  0  0  0  0  0
    3.1340   -4.9950    0.9311 H   0  0  0  0  0  0  0  0  0  0  0  0
    1.6285   -6.6382   -0.1663 H   0  0  0  0  0  0  0  0  0  0  0  0
    0.3591    3.1661   -0.0256 H   0  0  0  0  0  0  0  0  0  0  0  0
   -1.3215    2.9085    0.0209 H   0  0  0  0  0  0  0  0  0  0  0  0
  1  2  1  0  0  0  0
  1  3  1  0  0  0  0
  1  4  1  0  0  0  0
  2  5  2  0  0  0  0
  2  6  1  0  0  0  0
  3  7  1  0  0  0  0
  3  8  1  0  0  0  0
  3  9  1  0  0  0  0
  4 10  2  0  0  0  0
  4 11  1  0  0  0  0
  5 12  1  0  0  0  0
  5 17  1  0  0  0  0
  6 13  2  0  0  0  0
  6 18  1  0  0  0  0
  7 14  2  0  0  0  0
  8 19  1  0  0  0  0
  8 20  1  0  0  0  0
  8 21  1  0  0  0  0
  9 22  1  0  0  0  0
  9 23  1  0  0  0  0
  9 24  1  0  0  0  0
 10 14  1  0  0  0  0
 11 25  1  0  0  0  0
 11 26  1  0  0  0  0
 12 15  2  0  0  0  0
 12 27  1  0  0  0  0
 13 15  1  0  0  0  0
 13 28  1  0  0  0  0
 14 16  1  0  0  0  0
 15 29  1  0  0  0  0
 16 30  1  0  0  0  0
 16 31  1  0  0  0  0
M  END
>  <Mol_ID>
6159

>  <Formula>
C11H15Cl2N5

>  <MolWeight>
288.1763

>  <Cat>
S0320

>  <Name>
Cycloguanil hydrochloride

>  <Target>
Anti-infection

>  <Form>
hydrochloride

>  <CAS>
152-53-4

>  <URL>
http://www.selleckchem.com/products/cycloguanil-hydrochloride.html

$$$$
