Cyclohexaneacetic acid
 OpenBabel08302520383D

 24 24  0  0  0  0  0  0  0  0999 V2000
   -1.4280    0.2680   -0.2803 C   0  0  0  0  0  0  0  0  0  0  0  0
   -0.9495   -1.0843    0.2746 C   0  0  0  0  0  0  0  0  0  0  0  0
   -0.4480    1.3673    0.1679 C   0  0  0  0  0  0  0  0  0  0  0  0
   -1.6044    0.2851   -1.8106 C   0  0  0  0  0  0  0  0  0  0  0  0
    0.4749   -1.4175   -0.1596 C   0  0  0  0  0  0  0  0  0  0  0  0
    1.0013    1.0664   -0.2187 C   0  0  0  0  0  0  0  0  0  0  0  0
   -2.5969   -0.7274   -2.3357 C   0  0  0  0  0  0  0  0  0  0  0  0
    1.4500   -0.3164    0.2497 C   0  0  0  0  0  0  0  0  0  0  0  0
   -3.8529   -0.5557   -1.8698 O   0  0  0  0  0  0  0  0  0  0  0  0
   -2.3132   -1.5979   -3.1405 O   0  0  0  0  0  0  0  0  0  0  0  0
   -2.4003    0.4853    0.1784 H   0  0  0  0  0  0  0  0  0  0  0  0
   -0.9774   -1.0395    1.3722 H   0  0  0  0  0  0  0  0  0  0  0  0
   -1.6312   -1.8909   -0.0142 H   0  0  0  0  0  0  0  0  0  0  0  0
   -0.7478    2.3364   -0.2485 H   0  0  0  0  0  0  0  0  0  0  0  0
   -0.5065    1.4679    1.2593 H   0  0  0  0  0  0  0  0  0  0  0  0
   -1.9374    1.2768   -2.1416 H   0  0  0  0  0  0  0  0  0  0  0  0
   -0.6556    0.1008   -2.3249 H   0  0  0  0  0  0  0  0  0  0  0  0
    0.7841   -2.3663    0.2936 H   0  0  0  0  0  0  0  0  0  0  0  0
    0.5125   -1.5630   -1.2450 H   0  0  0  0  0  0  0  0  0  0  0  0
    1.6590    1.8282    0.2155 H   0  0  0  0  0  0  0  0  0  0  0  0
    1.1188    1.1392   -1.3059 H   0  0  0  0  0  0  0  0  0  0  0  0
    1.5457   -0.3111    1.3427 H   0  0  0  0  0  0  0  0  0  0  0  0
    2.4446   -0.5372   -0.1537 H   0  0  0  0  0  0  0  0  0  0  0  0
   -3.9565    0.2020   -1.2659 H   0  0  0  0  0  0  0  0  0  0  0  0
  1  2  1  0  0  0  0
  1  3  1  0  0  0  0
  1  4  1  0  0  0  0
  1 11  1  0  0  0  0
  2  5  1  0  0  0  0
  2 12  1  0  0  0  0
  2 13  1  0  0  0  0
  3  6  1  0  0  0  0
  3 14  1  0  0  0  0
  3 15  1  0  0  0  0
  4  7  1  0  0  0  0
  4 16  1  0  0  0  0
  4 17  1  0  0  0  0
  5  8  1  0  0  0  0
  5 18  1  0  0  0  0
  5 19  1  0  0  0  0
  6  8  1  0  0  0  0
  6 20  1  0  0  0  0
  6 21  1  0  0  0  0
  7  9  1  0  0  0  0
  7 10  2  0  0  0  0
  8 22  1  0  0  0  0
  8 23  1  0  0  0  0
  9 24  1  0  0  0  0
M  END
>  <Mol_ID>
3514

>  <Formula>
C8H14O2

>  <MolWeight>
142.19556

>  <Cat>
S6022

>  <Name>
Cyclohexaneacetic acid

>  <Synonyms>
N/A

>  <Target>
Others

>  <Form>
free base

>  <CAS>
5292-21-7

>  <URL>
http://www.selleck.cn/products/cyclohexaneacetic-acid.html

$$$$
