Cyclizine 2HCl.cdx
 OpenBabel08302522043D

 42 44  0  0  0  0  0  0  0  0999 V2000
    0.6530    0.9430   -0.2960 C   0  0  0  0  0  0  0  0  0  0  0  0
   -0.8778    1.1349   -0.2761 C   0  0  0  0  0  0  0  0  0  0  0  0
   -1.6786    0.0666    0.3367 N   0  0  0  0  0  0  0  0  0  0  0  0
   -1.2023   -1.2427   -0.1320 C   0  0  0  0  0  0  0  0  0  0  0  0
    0.3267   -1.4656   -0.0898 C   0  0  0  0  0  0  0  0  0  0  0  0
    1.1201   -0.3922   -0.7090 N   0  0  0  0  0  0  0  0  0  0  0  0
    2.5322   -0.5447   -0.3408 C   0  0  0  0  0  0  0  0  0  0  0  0
   -1.9693    0.1617    1.7886 C   0  0  0  0  0  0  0  0  0  0  0  0
   -0.7330    0.2010    2.6989 C   0  0  0  0  0  0  0  0  0  0  0  0
   -3.0223    1.2367    2.1558 C   0  0  0  0  0  0  0  0  0  0  0  0
   -0.0777    1.4062    3.0075 C   0  0  0  0  0  0  0  0  0  0  0  0
    1.0857    1.4140    3.7805 C   0  0  0  0  0  0  0  0  0  0  0  0
    1.6092    0.2185    4.2653 C   0  0  0  0  0  0  0  0  0  0  0  0
    0.9523   -0.9817    4.0070 C   0  0  0  0  0  0  0  0  0  0  0  0
   -0.2197   -0.9884    3.2465 C   0  0  0  0  0  0  0  0  0  0  0  0
   -3.6743    2.0290    1.1974 C   0  0  0  0  0  0  0  0  0  0  0  0
   -4.5756    3.0292    1.5779 C   0  0  0  0  0  0  0  0  0  0  0  0
   -4.8748    3.2277    2.9219 C   0  0  0  0  0  0  0  0  0  0  0  0
   -4.2890    2.4149    3.8855 C   0  0  0  0  0  0  0  0  0  0  0  0
   -3.3819    1.4234    3.5069 C   0  0  0  0  0  0  0  0  0  0  0  0
    1.0592    1.2014    0.6842 H   0  0  0  0  0  0  0  0  0  0  0  0
    1.0694    1.6779   -0.9982 H   0  0  0  0  0  0  0  0  0  0  0  0
   -1.2093    1.2102   -1.3209 H   0  0  0  0  0  0  0  0  0  0  0  0
   -1.1040    2.1145    0.1593 H   0  0  0  0  0  0  0  0  0  0  0  0
   -1.5211   -1.3457   -1.1785 H   0  0  0  0  0  0  0  0  0  0  0  0
   -1.7087   -2.0595    0.3971 H   0  0  0  0  0  0  0  0  0  0  0  0
    0.5444   -2.4031   -0.6168 H   0  0  0  0  0  0  0  0  0  0  0  0
    0.6414   -1.6253    0.9431 H   0  0  0  0  0  0  0  0  0  0  0  0
    3.1407    0.2412   -0.8007 H   0  0  0  0  0  0  0  0  0  0  0  0
    2.6839   -0.4940    0.7459 H   0  0  0  0  0  0  0  0  0  0  0  0
    2.9239   -1.5039   -0.6928 H   0  0  0  0  0  0  0  0  0  0  0  0
   -2.5122   -0.7610    2.0443 H   0  0  0  0  0  0  0  0  0  0  0  0
   -0.4618    2.3505    2.6263 H   0  0  0  0  0  0  0  0  0  0  0  0
    1.5885    2.3541    3.9913 H   0  0  0  0  0  0  0  0  0  0  0  0
    2.5276    0.2231    4.8463 H   0  0  0  0  0  0  0  0  0  0  0  0
    1.3596   -1.9155    4.3859 H   0  0  0  0  0  0  0  0  0  0  0  0
   -0.7107   -1.9390    3.0478 H   0  0  0  0  0  0  0  0  0  0  0  0
   -3.4843    1.8906    0.1355 H   0  0  0  0  0  0  0  0  0  0  0  0
   -5.0393    3.6537    0.8194 H   0  0  0  0  0  0  0  0  0  0  0  0
   -5.5684    4.0105    3.2159 H   0  0  0  0  0  0  0  0  0  0  0  0
   -4.5336    2.5532    4.9381 H   0  0  0  0  0  0  0  0  0  0  0  0
   -2.9356    0.8055    4.2826 H   0  0  0  0  0  0  0  0  0  0  0  0
  1  2  1  0  0  0  0
  1 21  1  0  0  0  0
  1 22  1  0  0  0  0
  2  3  1  0  0  0  0
  2 23  1  0  0  0  0
  2 24  1  0  0  0  0
  3  4  1  0  0  0  0
  3  8  1  0  0  0  0
  4  5  1  0  0  0  0
  4 25  1  0  0  0  0
  4 26  1  0  0  0  0
  5  6  1  0  0  0  0
  5 27  1  0  0  0  0
  5 28  1  0  0  0  0
  6  1  1  0  0  0  0
  6  7  1  0  0  0  0
  7 29  1  0  0  0  0
  7 30  1  0  0  0  0
  7 31  1  0  0  0  0
  8  9  1  0  0  0  0
  8 10  1  0  0  0  0
  8 32  1  0  0  0  0
  9 11  2  0  0  0  0
 10 16  2  0  0  0  0
 11 12  1  0  0  0  0
 11 33  1  0  0  0  0
 12 13  2  0  0  0  0
 12 34  1  0  0  0  0
 13 14  1  0  0  0  0
 13 35  1  0  0  0  0
 14 15  2  0  0  0  0
 14 36  1  0  0  0  0
 15  9  1  0  0  0  0
 15 37  1  0  0  0  0
 16 17  1  0  0  0  0
 16 38  1  0  0  0  0
 17 18  2  0  0  0  0
 17 39  1  0  0  0  0
 18 19  1  0  0  0  0
 18 40  1  0  0  0  0
 19 20  2  0  0  0  0
 19 41  1  0  0  0  0
 20 10  1  0  0  0  0
 20 42  1  0  0  0  0
M  END
>  <Mol_ID>
1263

>  <Formula>
C18H24Cl2N2

>  <MolWeight>
339.30256

>  <Cat>
S4139

>  <Name>
Cyclizine 2HCl

>  <Synonyms>
N/A

>  <Target>
Histamine Receptor

>  <Form>
Hydrochloride

>  <CAS>
5897-18-7

>  <URL>
http://selleckchem.com/products/cyclizine-2hcl.html

$$$$
