Cyclizine
 OpenBabel08302521313D

 42 44  0  0  0  0  0  0  0  0999 V2000
    0.9437    0.0942   -0.1989 N   0  0  0  0  0  0  0  0  0  0  0  0
   -1.5686    0.8148   -1.6776 N   0  0  0  0  0  0  0  0  0  0  0  0
    0.1539    1.2978    0.1252 C   0  0  0  0  0  0  0  0  0  0  0  0
    0.7334   -0.2890   -1.6104 C   0  0  0  0  0  0  0  0  0  0  0  0
    2.3901    0.1740    0.1563 C   0  0  0  0  0  0  0  0  0  0  0  0
   -1.3376    1.1432   -0.2575 C   0  0  0  0  0  0  0  0  0  0  0  0
   -0.7605   -0.3733   -2.0157 C   0  0  0  0  0  0  0  0  0  0  0  0
    3.1161    1.3927   -0.4476 C   0  0  0  0  0  0  0  0  0  0  0  0
    2.7025   -0.0160    1.6570 C   0  0  0  0  0  0  0  0  0  0  0  0
   -1.2496    1.9488   -2.5463 C   0  0  0  0  0  0  0  0  0  0  0  0
    3.1268    2.6382    0.2082 C   0  0  0  0  0  0  0  0  0  0  0  0
    1.7150   -0.2392    2.6288 C   0  0  0  0  0  0  0  0  0  0  0  0
    3.7901    1.2810   -1.6748 C   0  0  0  0  0  0  0  0  0  0  0  0
    4.0443    0.0250    2.0916 C   0  0  0  0  0  0  0  0  0  0  0  0
    3.7773    3.7375   -0.3517 C   0  0  0  0  0  0  0  0  0  0  0  0
    2.0398   -0.3029    3.9872 C   0  0  0  0  0  0  0  0  0  0  0  0
    4.4364    2.3858   -2.2351 C   0  0  0  0  0  0  0  0  0  0  0  0
    4.3711   -0.0537    3.4474 C   0  0  0  0  0  0  0  0  0  0  0  0
    4.4303    3.6106   -1.5746 C   0  0  0  0  0  0  0  0  0  0  0  0
    3.3654   -0.1951    4.3973 C   0  0  0  0  0  0  0  0  0  0  0  0
    0.1945    1.5136    1.1973 H   0  0  0  0  0  0  0  0  0  0  0  0
    0.5437    2.1820   -0.3868 H   0  0  0  0  0  0  0  0  0  0  0  0
    1.2263    0.4179   -2.2864 H   0  0  0  0  0  0  0  0  0  0  0  0
    1.1814   -1.2741   -1.7905 H   0  0  0  0  0  0  0  0  0  0  0  0
    2.8569   -0.7209   -0.2833 H   0  0  0  0  0  0  0  0  0  0  0  0
   -1.7827    0.3483    0.3565 H   0  0  0  0  0  0  0  0  0  0  0  0
   -1.8810    2.0583    0.0082 H   0  0  0  0  0  0  0  0  0  0  0  0
   -1.2099   -1.2405   -1.5136 H   0  0  0  0  0  0  0  0  0  0  0  0
   -0.8369   -0.5848   -3.0897 H   0  0  0  0  0  0  0  0  0  0  0  0
   -0.2013    2.2601   -2.4985 H   0  0  0  0  0  0  0  0  0  0  0  0
   -1.4781    1.7047   -3.5896 H   0  0  0  0  0  0  0  0  0  0  0  0
   -1.8696    2.8139   -2.2852 H   0  0  0  0  0  0  0  0  0  0  0  0
    2.6243    2.7571    1.1669 H   0  0  0  0  0  0  0  0  0  0  0  0
    0.6725   -0.3526    2.3454 H   0  0  0  0  0  0  0  0  0  0  0  0
    3.8072    0.3332   -2.2089 H   0  0  0  0  0  0  0  0  0  0  0  0
    4.8503    0.1463    1.3694 H   0  0  0  0  0  0  0  0  0  0  0  0
    3.7748    4.6917    0.1688 H   0  0  0  0  0  0  0  0  0  0  0  0
    1.2518   -0.4314    4.7247 H   0  0  0  0  0  0  0  0  0  0  0  0
    4.9472    2.2878   -3.1907 H   0  0  0  0  0  0  0  0  0  0  0  0
    5.4101    0.0082    3.7586 H   0  0  0  0  0  0  0  0  0  0  0  0
    4.9338    4.4694   -2.0132 H   0  0  0  0  0  0  0  0  0  0  0  0
    3.6141   -0.2303    5.4542 H   0  0  0  0  0  0  0  0  0  0  0  0
  1  3  1  0  0  0  0
  1  4  1  0  0  0  0
  1  5  1  0  0  0  0
  2  6  1  0  0  0  0
  2  7  1  0  0  0  0
  2 10  1  0  0  0  0
  3  6  1  0  0  0  0
  3 21  1  0  0  0  0
  3 22  1  0  0  0  0
  4  7  1  0  0  0  0
  4 23  1  0  0  0  0
  4 24  1  0  0  0  0
  5  8  1  0  0  0  0
  5  9  1  0  0  0  0
  5 25  1  0  0  0  0
  6 26  1  0  0  0  0
  6 27  1  0  0  0  0
  7 28  1  0  0  0  0
  7 29  1  0  0  0  0
  8 11  2  0  0  0  0
  8 13  1  0  0  0  0
  9 12  2  0  0  0  0
  9 14  1  0  0  0  0
 10 30  1  0  0  0  0
 10 31  1  0  0  0  0
 10 32  1  0  0  0  0
 11 15  1  0  0  0  0
 11 33  1  0  0  0  0
 12 16  1  0  0  0  0
 12 34  1  0  0  0  0
 13 17  2  0  0  0  0
 13 35  1  0  0  0  0
 14 18  2  0  0  0  0
 14 36  1  0  0  0  0
 15 19  2  0  0  0  0
 15 37  1  0  0  0  0
 16 20  2  0  0  0  0
 16 38  1  0  0  0  0
 17 19  1  0  0  0  0
 17 39  1  0  0  0  0
 18 20  1  0  0  0  0
 18 40  1  0  0  0  0
 19 41  1  0  0  0  0
 20 42  1  0  0  0  0
M  END
>  <Mol_ID>
5997

>  <Formula>
C18H22N2

>  <MolWeight>
266.38068

>  <Cat>
S0897

>  <Name>
Cyclizine

>  <Synonyms>
N/A

>  <Target>
Histamine Receptor

>  <Form>
Free Base

>  <CAS>
82-92-8

>  <URL>
http://www.selleckchem.com/products/cyclizine.html

$$$$
