CYM5541
 OpenBabel08302521223D

 51 54  0  0  0  0  0  0  0  0999 V2000
    1.0060    0.0665    0.0286 O   0  0  0  0  0  0  0  0  0  0  0  0
    2.2383    0.0627    0.0153 C   0  0  0  0  0  0  0  0  0  0  0  0
    2.9243    0.9879    0.9432 C   0  0  0  0  0  0  0  0  0  0  0  0
    4.1561    1.4951    0.7808 N   0  0  0  0  0  0  0  0  0  0  0  0
    4.4042    2.2929    1.8787 O   0  0  0  0  0  0  0  0  0  0  0  0
    3.3172    2.3064    2.6945 C   0  0  0  0  0  0  0  0  0  0  0  0
    3.2163    3.0559    4.0037 C   0  0  0  0  0  0  0  0  0  0  0  0
    3.9656    4.3639    4.1402 C   0  0  0  0  0  0  0  0  0  0  0  0
    4.4608    3.1581    4.8611 C   0  0  0  0  0  0  0  0  0  0  0  0
    2.3447    1.5166    2.1361 C   0  0  0  0  0  0  0  0  0  0  0  0
    2.9528   -0.8454   -0.8203 N   0  0  0  0  0  0  0  0  0  0  0  0
    2.1541   -1.8436   -1.5837 C   0  0  0  0  0  0  0  0  0  0  0  0
    1.2951   -1.2050   -2.6921 C   0  0  0  0  0  0  0  0  0  0  0  0
    0.5663   -2.2648   -3.5224 C   0  0  0  0  0  0  0  0  0  0  0  0
   -0.2350   -3.2298   -2.6515 C   0  0  0  0  0  0  0  0  0  0  0  0
    0.6283   -3.8587   -1.5604 C   0  0  0  0  0  0  0  0  0  0  0  0
    1.3131   -2.7905   -0.7043 C   0  0  0  0  0  0  0  0  0  0  0  0
    4.4412   -0.9634   -0.8061 C   0  0  0  0  0  0  0  0  0  0  0  0
    5.0978   -1.5424   -2.0808 C   0  0  0  0  0  0  0  0  0  0  0  0
    6.6252   -1.5466   -1.9769 C   0  0  0  0  0  0  0  0  0  0  0  0
    7.0906   -2.3044   -0.7368 C   0  0  0  0  0  0  0  0  0  0  0  0
    6.4621   -1.7286    0.5267 C   0  0  0  0  0  0  0  0  0  0  0  0
    4.9352   -1.7234    0.4396 C   0  0  0  0  0  0  0  0  0  0  0  0
    2.2676    2.9671    4.5225 H   0  0  0  0  0  0  0  0  0  0  0  0
    4.5457    4.7270    3.2986 H   0  0  0  0  0  0  0  0  0  0  0  0
    3.5013    5.1516    4.7224 H   0  0  0  0  0  0  0  0  0  0  0  0
    4.3348    3.1189    5.9373 H   0  0  0  0  0  0  0  0  0  0  0  0
    5.3786    2.6972    4.5119 H   0  0  0  0  0  0  0  0  0  0  0  0
    1.3585    1.3112    2.5251 H   0  0  0  0  0  0  0  0  0  0  0  0
    2.8530   -2.5001   -2.1017 H   0  0  0  0  0  0  0  0  0  0  0  0
    0.5495   -0.5228   -2.2708 H   0  0  0  0  0  0  0  0  0  0  0  0
    1.9301   -0.6025   -3.3526 H   0  0  0  0  0  0  0  0  0  0  0  0
   -0.1038   -1.7745   -4.2378 H   0  0  0  0  0  0  0  0  0  0  0  0
    1.2977   -2.8322   -4.1110 H   0  0  0  0  0  0  0  0  0  0  0  0
   -1.0741   -2.6950   -2.1899 H   0  0  0  0  0  0  0  0  0  0  0  0
   -0.6673   -4.0181   -3.2790 H   0  0  0  0  0  0  0  0  0  0  0  0
    0.0089   -4.5023   -0.9257 H   0  0  0  0  0  0  0  0  0  0  0  0
    1.3879   -4.5022   -2.0218 H   0  0  0  0  0  0  0  0  0  0  0  0
    1.9500   -3.2736    0.0453 H   0  0  0  0  0  0  0  0  0  0  0  0
    0.5382   -2.2469   -0.1542 H   0  0  0  0  0  0  0  0  0  0  0  0
    4.8316    0.0535   -0.7675 H   0  0  0  0  0  0  0  0  0  0  0  0
    4.7910   -2.5783   -2.2558 H   0  0  0  0  0  0  0  0  0  0  0  0
    4.7914   -0.9565   -2.9553 H   0  0  0  0  0  0  0  0  0  0  0  0
    7.0527   -2.0119   -2.8724 H   0  0  0  0  0  0  0  0  0  0  0  0
    6.9987   -0.5161   -1.9413 H   0  0  0  0  0  0  0  0  0  0  0  0
    6.8175   -3.3632   -0.8291 H   0  0  0  0  0  0  0  0  0  0  0  0
    8.1829   -2.2618   -0.6629 H   0  0  0  0  0  0  0  0  0  0  0  0
    6.7821   -2.3106    1.3979 H   0  0  0  0  0  0  0  0  0  0  0  0
    6.8242   -0.7037    0.6786 H   0  0  0  0  0  0  0  0  0  0  0  0
    4.5355   -1.2786    1.3570 H   0  0  0  0  0  0  0  0  0  0  0  0
    4.5652   -2.7557    0.4142 H   0  0  0  0  0  0  0  0  0  0  0  0
  1  2  2  0  0  0  0
  2  3  1  0  0  0  0
  2 11  1  0  0  0  0
  3  4  2  0  0  0  0
  3 10  1  0  0  0  0
  4  5  1  0  0  0  0
  5  6  1  0  0  0  0
  6  7  1  0  0  0  0
  6 10  2  0  0  0  0
  7  8  1  0  0  0  0
  7  9  1  0  0  0  0
  7 24  1  0  0  0  0
  8  9  1  0  0  0  0
  8 25  1  0  0  0  0
  8 26  1  0  0  0  0
  9 27  1  0  0  0  0
  9 28  1  0  0  0  0
 10 29  1  0  0  0  0
 11 12  1  0  0  0  0
 11 18  1  0  0  0  0
 12 13  1  0  0  0  0
 12 17  1  0  0  0  0
 12 30  1  0  0  0  0
 13 14  1  0  0  0  0
 13 31  1  0  0  0  0
 13 32  1  0  0  0  0
 14 15  1  0  0  0  0
 14 33  1  0  0  0  0
 14 34  1  0  0  0  0
 15 16  1  0  0  0  0
 15 35  1  0  0  0  0
 15 36  1  0  0  0  0
 16 17  1  0  0  0  0
 16 37  1  0  0  0  0
 16 38  1  0  0  0  0
 17 39  1  0  0  0  0
 17 40  1  0  0  0  0
 18 19  1  0  0  0  0
 18 23  1  0  0  0  0
 18 41  1  0  0  0  0
 19 20  1  0  0  0  0
 19 42  1  0  0  0  0
 19 43  1  0  0  0  0
 20 21  1  0  0  0  0
 20 44  1  0  0  0  0
 20 45  1  0  0  0  0
 21 22  1  0  0  0  0
 21 46  1  0  0  0  0
 21 47  1  0  0  0  0
 22 23  1  0  0  0  0
 22 48  1  0  0  0  0
 22 49  1  0  0  0  0
 23 50  1  0  0  0  0
 23 51  1  0  0  0  0
M  END
>  <Mol_ID>
4722

>  <Formula>
C19H28N2O2

>  <MolWeight>
316.43782

>  <Cat>
S6552

>  <Name>
CYM5541

>  <Synonyms>
ML249

>  <Target>
S1P Receptor

>  <Form>
Free Base

>  <CAS>
945128-26-7

>  <URL>
http://www.selleck.cn/products/cym5541.html

$$$$
