Cyperotundone
 OpenBabel08302521253D

 38 40  0  0  0  0  0  0  0  0999 V2000
    1.5809   -1.3748    1.3406 C   0  0  0  0  0  0  0  0  0  0  0  0
    1.8219    0.0487    1.8457 C   0  0  0  0  0  0  0  0  0  0  0  0
    0.8234    1.0668    1.2762 C   0  0  2  0  0  0  0  0  0  0  0  0
   -0.6300    0.6299    1.6197 C   0  0  0  0  0  0  0  0  0  0  0  0
   -1.0422   -0.0718    0.3572 C   0  0  0  0  0  0  0  0  0  0  0  0
    0.1476   -0.2852   -0.5570 C   0  0  1  0  0  0  0  0  0  0  0  0
    1.0385   -1.4980   -0.1062 C   0  0  2  0  0  0  0  0  0  0  0  0
   -2.2421   -0.1466   -0.2238 C   0  0  0  0  0  0  0  0  0  0  0  0
   -1.9646   -0.5046   -1.6305 C   0  0  0  0  0  0  0  0  0  0  0  0
   -0.4885   -0.4812   -1.9400 C   0  0  0  0  0  0  0  0  0  0  0  0
    0.3754   -2.8805   -0.2393 C   0  0  0  0  0  0  0  0  0  0  0  0
    0.8611    1.0844   -0.2870 C   0  0  0  0  0  0  0  0  0  0  0  0
   -2.8434   -0.7325   -2.4491 O   0  0  0  0  0  0  0  0  0  0  0  0
   -3.5807    0.2721    0.2459 C   0  0  0  0  0  0  0  0  0  0  0  0
    0.0983    2.3440   -0.7988 C   0  0  0  0  0  0  0  0  0  0  0  0
    2.2707    1.1751   -0.8974 C   0  0  0  0  0  0  0  0  0  0  0  0
    0.8787   -1.8606    2.0312 H   0  0  0  0  0  0  0  0  0  0  0  0
    2.5139   -1.9471    1.4274 H   0  0  0  0  0  0  0  0  0  0  0  0
    2.8473    0.3590    1.6150 H   0  0  0  0  0  0  0  0  0  0  0  0
    1.7604    0.0470    2.9417 H   0  0  0  0  0  0  0  0  0  0  0  0
    1.0389    2.0534    1.7014 H   0  0  0  0  0  0  0  0  0  0  0  0
   -1.2610    1.5063    1.8066 H   0  0  0  0  0  0  0  0  0  0  0  0
   -0.6801   -0.0281    2.4888 H   0  0  0  0  0  0  0  0  0  0  0  0
    1.9062   -1.5247   -0.7779 H   0  0  0  0  0  0  0  0  0  0  0  0
   -0.2037   -1.4165   -2.4253 H   0  0  0  0  0  0  0  0  0  0  0  0
   -0.2743    0.3319   -2.6365 H   0  0  0  0  0  0  0  0  0  0  0  0
    1.0525   -3.6621    0.1254 H   0  0  0  0  0  0  0  0  0  0  0  0
   -0.5495   -2.9432    0.3427 H   0  0  0  0  0  0  0  0  0  0  0  0
    0.1457   -3.1317   -1.2775 H   0  0  0  0  0  0  0  0  0  0  0  0
   -3.5716    0.5320    1.3091 H   0  0  0  0  0  0  0  0  0  0  0  0
   -4.3168   -0.5229    0.0980 H   0  0  0  0  0  0  0  0  0  0  0  0
   -3.9110    1.1570   -0.3086 H   0  0  0  0  0  0  0  0  0  0  0  0
    0.6885    3.2494   -0.6140 H   0  0  0  0  0  0  0  0  0  0  0  0
   -0.8656    2.5042   -0.3056 H   0  0  0  0  0  0  0  0  0  0  0  0
   -0.0880    2.3008   -1.8755 H   0  0  0  0  0  0  0  0  0  0  0  0
    2.2182    1.1395   -1.9913 H   0  0  0  0  0  0  0  0  0  0  0  0
    2.7535    2.1179   -0.6157 H   0  0  0  0  0  0  0  0  0  0  0  0
    2.9442    0.3745   -0.5849 H   0  0  0  0  0  0  0  0  0  0  0  0
  1  2  1  0  0  0  0
  1 17  1  0  0  0  0
  1 18  1  0  0  0  0
  2 19  1  0  0  0  0
  2 20  1  0  0  0  0
  3  2  1  0  0  0  0
  3  4  1  0  0  0  0
  3 12  1  0  0  0  0
  3 21  1  1  0  0  0
  4  5  1  0  0  0  0
  4 22  1  0  0  0  0
  4 23  1  0  0  0  0
  5  8  2  0  0  0  0
  6  5  1  1  0  0  0
  6  7  1  0  0  0  0
  6 10  1  0  0  0  0
  6 12  1  0  0  0  0
  7  1  1  0  0  0  0
  7 11  1  0  0  0  0
  7 24  1  6  0  0  0
  8  9  1  0  0  0  0
  8 14  1  0  0  0  0
  9 10  1  0  0  0  0
  9 13  2  0  0  0  0
 10 25  1  0  0  0  0
 10 26  1  0  0  0  0
 11 27  1  0  0  0  0
 11 28  1  0  0  0  0
 11 29  1  0  0  0  0
 12 15  1  0  0  0  0
 12 16  1  0  0  0  0
 14 30  1  0  0  0  0
 14 31  1  0  0  0  0
 14 32  1  0  0  0  0
 15 33  1  0  0  0  0
 15 34  1  0  0  0  0
 15 35  1  0  0  0  0
 16 36  1  0  0  0  0
 16 37  1  0  0  0  0
 16 38  1  0  0  0  0
M  END
>  <Mol_ID>
5173

>  <Formula>
C15H22O

>  <MolWeight>
218.33458

>  <Cat>
S3303

>  <Name>
Cyperotundone

>  <Synonyms>
CYT

>  <Target>
Others

>  <Form>
free base

>  <CAS>
3466-15-7

>  <URL>
http://www.selleckchem.com/products/cyperotundone.html

$$$$
