CyPPA
 OpenBabel08302521353D

 44 46  0  0  0  0  0  0  0  0999 V2000
    0.9376    0.1769   -0.0368 N   0  0  0  0  0  0  0  0  0  0  0  0
   -0.7970    0.2629    1.5760 N   0  0  0  0  0  0  0  0  0  0  0  0
   -2.6432    0.4072    3.1095 N   0  0  0  0  0  0  0  0  0  0  0  0
   -1.1984    2.2854    2.7681 N   0  0  0  0  0  0  0  0  0  0  0  0
   -2.8926   -0.9371    3.0250 N   0  0  0  0  0  0  0  0  0  0  0  0
    0.1877   -0.7975   -0.8207 C   0  0  0  0  0  0  0  0  0  0  0  0
    0.3434   -2.2326   -0.3121 C   0  0  0  0  0  0  0  0  0  0  0  0
    0.6777   -0.6831   -2.2740 C   0  0  0  0  0  0  0  0  0  0  0  0
   -0.4066   -3.2081   -1.2257 C   0  0  0  0  0  0  0  0  0  0  0  0
   -0.0545   -1.6597   -3.1878 C   0  0  0  0  0  0  0  0  0  0  0  0
    0.0573   -3.0924   -2.6765 C   0  0  0  0  0  0  0  0  0  0  0  0
    0.2718    0.8287    0.9992 C   0  0  0  0  0  0  0  0  0  0  0  0
    0.6853    2.1052    1.3272 C   0  0  0  0  0  0  0  0  0  0  0  0
   -1.4994    1.0041    2.4580 C   0  0  0  0  0  0  0  0  0  0  0  0
   -0.1056    2.8197    2.1996 C   0  0  0  0  0  0  0  0  0  0  0  0
   -3.6070    1.0448    3.8959 C   0  0  0  0  0  0  0  0  0  0  0  0
    0.1695    4.2565    2.5162 C   0  0  0  0  0  0  0  0  0  0  0  0
   -4.4323    0.0496    4.3753 C   0  0  0  0  0  0  0  0  0  0  0  0
   -3.9477   -1.1468    3.8240 C   0  0  0  0  0  0  0  0  0  0  0  0
   -3.6802    2.5119    4.1010 C   0  0  0  0  0  0  0  0  0  0  0  0
   -4.4648   -2.5196    4.0246 C   0  0  0  0  0  0  0  0  0  0  0  0
    1.9129   -0.0228    0.1482 H   0  0  0  0  0  0  0  0  0  0  0  0
   -0.8794   -0.5370   -0.8267 H   0  0  0  0  0  0  0  0  0  0  0  0
    1.4036   -2.5138   -0.2698 H   0  0  0  0  0  0  0  0  0  0  0  0
   -0.0452   -2.3250    0.7091 H   0  0  0  0  0  0  0  0  0  0  0  0
    0.5219    0.3405   -2.6378 H   0  0  0  0  0  0  0  0  0  0  0  0
    1.7580   -0.8699   -2.3252 H   0  0  0  0  0  0  0  0  0  0  0  0
   -0.2655   -4.2364   -0.8745 H   0  0  0  0  0  0  0  0  0  0  0  0
   -1.4832   -2.9997   -1.1738 H   0  0  0  0  0  0  0  0  0  0  0  0
    0.3535   -1.5926   -4.2022 H   0  0  0  0  0  0  0  0  0  0  0  0
   -1.1123   -1.3754   -3.2489 H   0  0  0  0  0  0  0  0  0  0  0  0
    1.0990   -3.4272   -2.7536 H   0  0  0  0  0  0  0  0  0  0  0  0
   -0.5400   -3.7559   -3.3123 H   0  0  0  0  0  0  0  0  0  0  0  0
    1.5416    2.5543    0.8402 H   0  0  0  0  0  0  0  0  0  0  0  0
   -0.6634    4.8772    2.1663 H   0  0  0  0  0  0  0  0  0  0  0  0
    0.2713    4.3861    3.5978 H   0  0  0  0  0  0  0  0  0  0  0  0
    1.0855    4.6138    2.0373 H   0  0  0  0  0  0  0  0  0  0  0  0
   -5.2782    0.1797    5.0358 H   0  0  0  0  0  0  0  0  0  0  0  0
   -2.8399    2.8672    4.7021 H   0  0  0  0  0  0  0  0  0  0  0  0
   -3.6929    3.0429    3.1413 H   0  0  0  0  0  0  0  0  0  0  0  0
   -4.5982    2.7823    4.6287 H   0  0  0  0  0  0  0  0  0  0  0  0
   -4.6458   -3.0135    3.0659 H   0  0  0  0  0  0  0  0  0  0  0  0
   -3.7444   -3.1180    4.5936 H   0  0  0  0  0  0  0  0  0  0  0  0
   -5.4065   -2.5070    4.5824 H   0  0  0  0  0  0  0  0  0  0  0  0
  1  6  1  0  0  0  0
  1 12  1  0  0  0  0
  1 22  1  0  0  0  0
  2 12  2  0  0  0  0
  2 14  1  0  0  0  0
  3  5  1  0  0  0  0
  3 14  1  0  0  0  0
  3 16  1  0  0  0  0
  4 14  2  0  0  0  0
  4 15  1  0  0  0  0
  5 19  2  0  0  0  0
  6  7  1  0  0  0  0
  6  8  1  0  0  0  0
  6 23  1  0  0  0  0
  7  9  1  0  0  0  0
  7 24  1  0  0  0  0
  7 25  1  0  0  0  0
  8 10  1  0  0  0  0
  8 26  1  0  0  0  0
  8 27  1  0  0  0  0
  9 11  1  0  0  0  0
  9 28  1  0  0  0  0
  9 29  1  0  0  0  0
 10 11  1  0  0  0  0
 10 30  1  0  0  0  0
 10 31  1  0  0  0  0
 11 32  1  0  0  0  0
 11 33  1  0  0  0  0
 12 13  1  0  0  0  0
 13 15  2  0  0  0  0
 13 34  1  0  0  0  0
 15 17  1  0  0  0  0
 16 18  2  0  0  0  0
 16 20  1  0  0  0  0
 17 35  1  0  0  0  0
 17 36  1  0  0  0  0
 17 37  1  0  0  0  0
 18 19  1  0  0  0  0
 18 38  1  0  0  0  0
 19 21  1  0  0  0  0
 20 39  1  0  0  0  0
 20 40  1  0  0  0  0
 20 41  1  0  0  0  0
 21 42  1  0  0  0  0
 21 43  1  0  0  0  0
 21 44  1  0  0  0  0
M  END
>  <Mol_ID>
6785

>  <Formula>
C16H23N5

>  <MolWeight>
285.38732

>  <Cat>
E0034

>  <Name>
CyPPA

>  <Synonyms>
N/A

>  <Target>
Potassium Channel

>  <Form>
Free base

>  <CAS>
73029-73-9

>  <URL>
http://www.selleckchem.com/products/cyppa.html

$$$$
