Cyproterone acetate.cdx
 OpenBabel08302521552D

 57 61  0  0  0  0  0  0  0  0999 V2000
    1.2082    3.4951    0.0000 C   0  0  1  0  0  3  0  0  0  0  0  0
    1.2082    2.0951    0.0000 C   0  0  0  0  0  0  0  0  0  0  0  0
    2.4207    1.3951    0.0000 C   0  0  0  0  0  0  0  0  0  0  0  0
    3.6331    2.0951    0.0000 C   0  0  0  0  0  0  0  0  0  0  0  0
    3.6331    3.4951    0.0000 C   0  0  2  0  0  0  0  0  0  0  0  0
    2.4207    4.1951    0.0000 C   0  0  1  0  0  0  0  0  0  0  0  0
    4.8455    1.3951    0.0000 C   0  0  0  0  0  0  0  0  0  0  0  0
    6.0580    2.0951    0.0000 C   0  0  0  0  0  0  0  0  0  0  0  0
    6.0580    3.4951    0.0000 C   0  0  2  0  0  0  0  0  0  0  0  0
    4.8455    4.1951    0.0000 C   0  0  2  0  0  0  0  0  0  0  0  0
    7.2704    4.1951    0.0000 C   0  0  1  0  0  0  0  0  0  0  0  0
    7.2704    5.5951    0.0000 C   0  0  2  0  0  0  0  0  0  0  0  0
    6.0580    6.2951    0.0000 C   0  0  0  0  0  0  0  0  0  0  0  0
    4.8455    5.5951    0.0000 C   0  0  0  0  0  0  0  0  0  0  0  0
    8.6019    3.7625    0.0000 C   0  0  0  0  0  0  0  0  0  0  0  0
    9.4248    4.8951    0.0000 C   0  0  0  0  0  0  0  0  0  0  0  0
    8.6019    6.0278    0.0000 C   0  0  2  0  0  0  0  0  0  0  0  0
    0.0000    1.3976    0.0000 O   0  0  0  0  0  0  0  0  0  0  0  0
    1.2082    4.8951    0.0000 C   0  0  0  0  0  0  0  0  0  0  0  0
    3.6331    4.8951    0.0000 C   0  0  0  0  0  0  0  0  0  0  0  0
    7.4162    6.9826    0.0000 C   0  0  0  0  0  0  0  0  0  0  0  0
    9.0330    7.3546    0.0000 C   0  0  0  0  0  0  0  0  0  0  0  0
    8.0995    8.3914    0.0000 O   0  0  0  0  0  0  0  0  0  0  0  0
   10.3977    7.6447    0.0000 C   0  0  0  0  0  0  0  0  0  0  0  0
   10.0019    6.0278    0.0000 O   0  0  0  0  0  0  0  0  0  0  0  0
   11.2143    5.3278    0.0000 C   0  0  0  0  0  0  0  0  0  0  0  0
   12.4225    6.0253    0.0000 C   0  0  0  0  0  0  0  0  0  0  0  0
   11.2143    3.9326    0.0000 O   0  0  0  0  0  0  0  0  0  0  0  0
    2.4207    0.3631    0.0000 H   0  0  0  0  0  0  0  0  0  0  0  0
    1.8857    3.2685    0.0000 H   0  0  0  0  0  0  0  0  0  0  0  0
    4.8455    0.3631    0.0000 H   0  0  0  0  0  0  0  0  0  0  0  0
    6.9517    1.5791    0.0000 H   0  0  0  0  0  0  0  0  0  0  0  0
    5.1314    2.9601    0.0000 H   0  0  0  0  0  0  0  0  0  0  0  0
    5.7721    4.7301    0.0000 H   0  0  0  0  0  0  0  0  0  0  0  0
    7.3823    3.1310    0.0000 H   0  0  0  0  0  0  0  0  0  0  0  0
    6.0580    7.3651    0.0000 H   0  0  0  0  0  0  0  0  0  0  0  0
    5.1314    6.8301    0.0000 H   0  0  0  0  0  0  0  0  0  0  0  0
    3.9189    6.1301    0.0000 H   0  0  0  0  0  0  0  0  0  0  0  0
    4.8455    6.6651    0.0000 H   0  0  0  0  0  0  0  0  0  0  0  0
    8.9326    2.7449    0.0000 H   0  0  0  0  0  0  0  0  0  0  0  0
    9.6587    3.5951    0.0000 H   0  0  0  0  0  0  0  0  0  0  0  0
   10.4948    4.8951    0.0000 H   0  0  0  0  0  0  0  0  0  0  0  0
    9.9106    5.8485    0.0000 H   0  0  0  0  0  0  0  0  0  0  0  0
    0.6732    5.8217    0.0000 H   0  0  0  0  0  0  0  0  0  0  0  0
    1.9648    5.6517    0.0000 H   0  0  0  0  0  0  0  0  0  0  0  0
    4.5597    5.4301    0.0000 H   0  0  0  0  0  0  0  0  0  0  0  0
    2.7065    5.4301    0.0000 H   0  0  0  0  0  0  0  0  0  0  0  0
    3.6331    5.9651    0.0000 H   0  0  0  0  0  0  0  0  0  0  0  0
    8.3937    7.4178    0.0000 H   0  0  0  0  0  0  0  0  0  0  0  0
    6.5505    7.6115    0.0000 H   0  0  0  0  0  0  0  0  0  0  0  0
    7.5280    8.0467    0.0000 H   0  0  0  0  0  0  0  0  0  0  0  0
   11.1137    6.8495    0.0000 H   0  0  0  0  0  0  0  0  0  0  0  0
   10.7283    8.6623    0.0000 H   0  0  0  0  0  0  0  0  0  0  0  0
   11.4443    7.8672    0.0000 H   0  0  0  0  0  0  0  0  0  0  0  0
   13.3491    5.4903    0.0000 H   0  0  0  0  0  0  0  0  0  0  0  0
   12.4225    7.0953    0.0000 H   0  0  0  0  0  0  0  0  0  0  0  0
   13.3492    6.5603    0.0000 H   0  0  0  0  0  0  0  0  0  0  0  0
  1  2  1  6  0  0  0
  1 19  1  0  0  0  0
  2  3  1  0  0  0  0
  2 18  2  0  0  0  0
  3  4  2  0  0  0  0
  3 29  1  0  0  0  0
  4  5  1  0  0  0  0
  4  7  1  0  0  0  0
  5  6  1  0  0  0  0
  5 20  1  1  0  0  0
  6  1  1  0  0  0  0
  6 19  1  0  0  0  0
  6 30  1  1  0  0  0
  7  8  2  0  0  0  0
  7 31  1  0  0  0  0
  8 32  1  0  0  0  0
  9  8  1  0  0  0  0
  9 10  1  0  0  0  0
  9 11  1  0  0  0  0
  9 33  1  1  0  0  0
 10  5  1  0  0  0  0
 10 14  1  0  0  0  0
 10 34  1  6  0  0  0
 11 12  1  0  0  0  0
 11 15  1  0  0  0  0
 11 35  1  6  0  0  0
 12 13  1  0  0  0  0
 12 21  1  1  0  0  0
 13 14  1  0  0  0  0
 13 36  1  0  0  0  0
 13 37  1  0  0  0  0
 14 38  1  0  0  0  0
 14 39  1  0  0  0  0
 15 16  1  0  0  0  0
 15 40  1  0  0  0  0
 15 41  1  0  0  0  0
 16 17  1  0  0  0  0
 16 42  1  0  0  0  0
 16 43  1  0  0  0  0
 17 12  1  0  0  0  0
 17 22  1  1  0  0  0
 17 25  1  0  0  0  0
 19 44  1  0  0  0  0
 19 45  1  0  0  0  0
 20 46  1  0  0  0  0
 20 47  1  0  0  0  0
 20 48  1  0  0  0  0
 21 49  1  0  0  0  0
 21 50  1  0  0  0  0
 21 51  1  0  0  0  0
 22 23  2  0  0  0  0
 22 24  1  0  0  0  0
 24 52  1  0  0  0  0
 24 53  1  0  0  0  0
 24 54  1  0  0  0  0
 25 26  1  0  0  0  0
 26 27  1  0  0  0  0
 26 28  2  0  0  0  0
 27 55  1  0  0  0  0
 27 56  1  0  0  0  0
 27 57  1  0  0  0  0
M  END
>  <Mol_ID>
958

>  <Formula>
C24H29ClO4

>  <MolWeight>
416.93766

>  <Cat>
S2042

>  <Name>
Cyproterone Acetate

>  <Synonyms>
N/A

>  <Target>
Androgen Receptor

>  <Form>
free base

>  <CAS>
427-51-0

>  <URL>
http://selleckchem.com/products/cyproterone-acetate.html

$$$$
