Cys-Gly
 OpenBabel08302521373D

 21 20  0  0  1  0  0  0  0  0999 V2000
    0.8910   -1.7851    1.5029 C   0  0  0  0  0  0  0  0  0  0  0  0
    1.1980   -1.9221    2.8366 N   0  0  0  0  0  0  0  0  0  0  0  0
    0.4026   -0.3980    1.0391 C   0  0  2  0  0  0  0  0  0  0  0  0
    1.1342   -2.6904    0.7088 O   0  0  0  0  0  0  0  0  0  0  0  0
    1.6776   -3.1739    3.4141 C   0  0  0  0  0  0  0  0  0  0  0  0
    1.5823    0.4178    0.4872 C   0  0  0  0  0  0  0  0  0  0  0  0
   -0.3685    0.3192    2.0793 N   0  0  0  0  0  0  0  0  0  0  0  0
    3.1994   -3.3437    3.3962 C   0  0  0  0  0  0  0  0  0  0  0  0
    2.8684    0.8086    1.7250 S   0  0  0  0  0  0  0  0  0  0  0  0
    3.8161   -2.7693    2.3420 O   0  0  0  0  0  0  0  0  0  0  0  0
    3.8066   -4.0172    4.2155 O   0  0  0  0  0  0  0  0  0  0  0  0
    1.2387   -1.1018    3.4208 H   0  0  0  0  0  0  0  0  0  0  0  0
   -0.2981   -0.5827    0.2149 H   0  0  0  0  0  0  0  0  0  0  0  0
    1.3456   -3.1862    4.4548 H   0  0  0  0  0  0  0  0  0  0  0  0
    1.2400   -4.0209    2.8763 H   0  0  0  0  0  0  0  0  0  0  0  0
    2.0690   -0.1354   -0.3238 H   0  0  0  0  0  0  0  0  0  0  0  0
    1.2201    1.3618    0.0660 H   0  0  0  0  0  0  0  0  0  0  0  0
   -1.1985   -0.2225    2.3225 H   0  0  0  0  0  0  0  0  0  0  0  0
    0.1643    0.4590    2.9298 H   0  0  0  0  0  0  0  0  0  0  0  0
    2.0551    1.3857    2.6188 H   0  0  0  0  0  0  0  0  0  0  0  0
    3.1800   -2.4199    1.6863 H   0  0  0  0  0  0  0  0  0  0  0  0
  1  2  1  0  0  0  0
  1  4  2  0  0  0  0
  2  5  1  0  0  0  0
  2 12  1  0  0  0  0
  3  7  1  0  0  0  0
  3 13  1  6  0  0  0
  3  6  1  0  0  0  0
  3  1  1  0  0  0  0
  5  8  1  0  0  0  0
  5 14  1  0  0  0  0
  5 15  1  0  0  0  0
  6  9  1  0  0  0  0
  6 16  1  0  0  0  0
  6 17  1  0  0  0  0
  7 18  1  0  0  0  0
  7 19  1  0  0  0  0
  8 10  1  0  0  0  0
  8 11  2  0  0  0  0
  9 20  1  0  0  0  0
 10 21  1  0  0  0  0
M  END
>  <Mol_ID>
7399

>  <Formula>
C5H10N2O3S

>  <MolWeight>
178.2095

>  <Cat>
E4490

>  <Name>
Cys-Gly

>  <Synonyms>
Cys-Gly

>  <Target>
Others

>  <Form>
free base

>  <CAS>
19246-18-5

>  <URL>
https://www.selleckchem.com/products/cys-gly.html

$$$$
