CYT997.cdx
 OpenBabel08302521353D

 62 64  0  0  0  0  0  0  0  0999 V2000
   -1.2913    2.7437   -4.8757 N   0  0  0  0  0  0  0  0  0  0  0  0
   -1.2063    4.0806   -4.8050 C   0  0  0  0  0  0  0  0  0  0  0  0
   -0.8697    4.7775   -3.6584 C   0  0  0  0  0  0  0  0  0  0  0  0
   -0.5877    4.0111   -2.5353 C   0  0  0  0  0  0  0  0  0  0  0  0
   -0.6342    2.6698   -2.5830 N   0  0  0  0  0  0  0  0  0  0  0  0
   -1.0095    2.0822   -3.7419 C   0  0  0  0  0  0  0  0  0  0  0  0
   -0.8116    6.2722   -3.6761 C   0  0  0  0  0  0  0  0  0  0  0  0
   -0.3997    4.6304   -1.2919 N   0  0  0  0  0  0  0  0  0  0  0  0
    0.5244    4.0055   -0.3373 C   0  0  2  0  0  0  0  0  0  0  0  0
   -0.0026    4.2422    1.0671 C   0  0  0  0  0  0  0  0  0  0  0  0
   -1.1764    0.6149   -3.7342 C   0  0  0  0  0  0  0  0  0  0  0  0
   -0.8066   -0.1379   -2.6072 C   0  0  0  0  0  0  0  0  0  0  0  0
   -0.9612   -1.5300   -2.5488 C   0  0  0  0  0  0  0  0  0  0  0  0
   -1.4018   -2.2375   -3.6774 C   0  0  0  0  0  0  0  0  0  0  0  0
   -1.8569   -1.4913   -4.7773 C   0  0  0  0  0  0  0  0  0  0  0  0
   -1.7370   -0.0927   -4.8082 C   0  0  0  0  0  0  0  0  0  0  0  0
   -0.7019   -2.2200   -1.3923 O   0  0  0  0  0  0  0  0  0  0  0  0
   -0.9774   -1.5313   -0.1740 C   0  0  0  0  0  0  0  0  0  0  0  0
   -1.4515   -3.6450   -3.8295 N   0  0  0  0  0  0  0  0  0  0  0  0
   -0.7608   -4.6817   -3.2689 C   0  0  0  0  0  0  0  0  0  0  0  0
   -0.9790   -5.8227   -3.6760 O   0  0  0  0  0  0  0  0  0  0  0  0
    0.2122   -4.4007   -2.3729 N   0  0  0  0  0  0  0  0  0  0  0  0
    1.0552   -5.3848   -1.7357 C   0  0  0  0  0  0  0  0  0  0  0  0
    0.4311   -5.9693   -0.4803 C   0  0  0  0  0  0  0  0  0  0  0  0
   -0.2712    5.5217    1.5745 C   0  0  0  0  0  0  0  0  0  0  0  0
   -0.6790    5.6767    2.8967 C   0  0  0  0  0  0  0  0  0  0  0  0
   -0.8103    4.5437    3.6793 C   0  0  0  0  0  0  0  0  0  0  0  0
   -0.5768    3.2924    3.2301 N   0  0  0  0  0  0  0  0  0  0  0  0
   -0.1884    3.1711    1.9385 C   0  0  0  0  0  0  0  0  0  0  0  0
    1.9235    4.6559   -0.5242 C   0  0  0  0  0  0  0  0  0  0  0  0
    3.0189    4.1950    0.4432 C   0  0  0  0  0  0  0  0  0  0  0  0
    3.3807    2.7278    0.2969 C   0  0  0  0  0  0  0  0  0  0  0  0
   -1.4428    4.5965   -5.7326 H   0  0  0  0  0  0  0  0  0  0  0  0
   -1.5670    6.6924   -3.0052 H   0  0  0  0  0  0  0  0  0  0  0  0
    0.1823    6.6153   -3.3682 H   0  0  0  0  0  0  0  0  0  0  0  0
   -0.9932    6.6731   -4.6796 H   0  0  0  0  0  0  0  0  0  0  0  0
   -0.2177    5.6201   -1.3748 H   0  0  0  0  0  0  0  0  0  0  0  0
    0.6043    2.9251   -0.5039 H   0  0  0  0  0  0  0  0  0  0  0  0
   -0.3844    0.3910   -1.7568 H   0  0  0  0  0  0  0  0  0  0  0  0
   -2.2791   -1.9889   -5.6483 H   0  0  0  0  0  0  0  0  0  0  0  0
   -2.0768    0.4418   -5.6947 H   0  0  0  0  0  0  0  0  0  0  0  0
   -0.1347   -0.8868    0.0941 H   0  0  0  0  0  0  0  0  0  0  0  0
   -1.9112   -0.9605   -0.2234 H   0  0  0  0  0  0  0  0  0  0  0  0
   -1.0863   -2.2839    0.6121 H   0  0  0  0  0  0  0  0  0  0  0  0
   -1.9805   -3.9897   -4.6203 H   0  0  0  0  0  0  0  0  0  0  0  0
    0.1386   -3.5037   -1.9174 H   0  0  0  0  0  0  0  0  0  0  0  0
    1.2882   -6.1805   -2.4489 H   0  0  0  0  0  0  0  0  0  0  0  0
    1.9852   -4.8702   -1.4735 H   0  0  0  0  0  0  0  0  0  0  0  0
   -0.4680   -6.5472   -0.7149 H   0  0  0  0  0  0  0  0  0  0  0  0
    1.1443   -6.6344    0.0179 H   0  0  0  0  0  0  0  0  0  0  0  0
    0.1501   -5.1825    0.2280 H   0  0  0  0  0  0  0  0  0  0  0  0
   -0.1566    6.4014    0.9491 H   0  0  0  0  0  0  0  0  0  0  0  0
   -0.8809    6.6592    3.3081 H   0  0  0  0  0  0  0  0  0  0  0  0
   -1.1127    4.6143    4.7203 H   0  0  0  0  0  0  0  0  0  0  0  0
   -0.0033    2.1471    1.6236 H   0  0  0  0  0  0  0  0  0  0  0  0
    2.2633    4.4839   -1.5536 H   0  0  0  0  0  0  0  0  0  0  0  0
    1.8359    5.7470   -0.4233 H   0  0  0  0  0  0  0  0  0  0  0  0
    3.9178    4.7942    0.2512 H   0  0  0  0  0  0  0  0  0  0  0  0
    2.7318    4.4023    1.4798 H   0  0  0  0  0  0  0  0  0  0  0  0
    3.7328    2.5132   -0.7168 H   0  0  0  0  0  0  0  0  0  0  0  0
    4.1835    2.4709    0.9954 H   0  0  0  0  0  0  0  0  0  0  0  0
    2.5300    2.0767    0.5142 H   0  0  0  0  0  0  0  0  0  0  0  0
  1  2  2  0  0  0  0
  2  3  1  0  0  0  0
  2 33  1  0  0  0  0
  3  4  2  0  0  0  0
  3  7  1  0  0  0  0
  4  5  1  0  0  0  0
  4  8  1  0  0  0  0
  5  6  2  0  0  0  0
  6  1  1  0  0  0  0
  6 11  1  0  0  0  0
  7 34  1  0  0  0  0
  7 35  1  0  0  0  0
  7 36  1  0  0  0  0
  8 37  1  0  0  0  0
  9 30  1  0  0  0  0
  9 38  1  6  0  0  0
  9 10  1  0  0  0  0
  9  8  1  0  0  0  0
 10 25  2  0  0  0  0
 11 12  2  0  0  0  0
 12 13  1  0  0  0  0
 12 39  1  0  0  0  0
 13 14  2  0  0  0  0
 13 17  1  0  0  0  0
 14 15  1  0  0  0  0
 14 19  1  0  0  0  0
 15 16  2  0  0  0  0
 15 40  1  0  0  0  0
 16 11  1  0  0  0  0
 16 41  1  0  0  0  0
 17 18  1  0  0  0  0
 18 42  1  0  0  0  0
 18 43  1  0  0  0  0
 18 44  1  0  0  0  0
 19 20  1  0  0  0  0
 19 45  1  0  0  0  0
 20 21  2  0  0  0  0
 20 22  1  0  0  0  0
 22 23  1  0  0  0  0
 22 46  1  0  0  0  0
 23 24  1  0  0  0  0
 23 47  1  0  0  0  0
 23 48  1  0  0  0  0
 24 49  1  0  0  0  0
 24 50  1  0  0  0  0
 24 51  1  0  0  0  0
 25 26  1  0  0  0  0
 25 52  1  0  0  0  0
 26 27  2  0  0  0  0
 26 53  1  0  0  0  0
 27 28  1  0  0  0  0
 27 54  1  0  0  0  0
 28 29  2  0  0  0  0
 29 10  1  0  0  0  0
 29 55  1  0  0  0  0
 30 31  1  0  0  0  0
 30 56  1  0  0  0  0
 30 57  1  0  0  0  0
 31 32  1  0  0  0  0
 31 58  1  0  0  0  0
 31 59  1  0  0  0  0
 32 60  1  0  0  0  0
 32 61  1  0  0  0  0
 32 62  1  0  0  0  0
M  END
>  <Mol_ID>
641

>  <Formula>
C24H30N6O2

>  <MolWeight>
434.534

>  <Cat>
S2195

>  <Name>
Lexibulin (CYT997)

>  <Synonyms>
SRI-32007

>  <Target>
Microtubule Associated

>  <Form>
free base

>  <CAS>
917111-44-5

>  <URL>
http://selleckchem.com/products/CYT997.html

$$$$
