Cytisine.cdx
 OpenBabel08302521363D

 28 30  0  0  0  0  0  0  0  0999 V2000
    0.5668   -0.5360   -0.4210 C   0  0  0  0  0  0  0  0  0  0  0  0
    0.7346    0.8119   -0.0938 N   0  0  0  0  0  0  0  0  0  0  0  0
    1.9701    1.3470    0.2911 C   0  0  0  0  0  0  0  0  0  0  0  0
    3.0922    0.3828    0.4092 C   0  0  0  0  0  0  0  0  0  0  0  0
    2.9060   -0.9054    0.1035 C   0  0  0  0  0  0  0  0  0  0  0  0
    1.6153   -1.3726   -0.3387 C   0  0  0  0  0  0  0  0  0  0  0  0
   -0.8117   -1.0420   -0.8374 C   0  0  1  0  0  0  0  0  0  0  0  0
   -1.5670   -1.6540    0.3596 C   0  0  0  0  0  0  0  0  0  0  0  0
   -1.8386   -0.6965    1.4319 N   0  0  0  0  0  0  0  0  0  0  0  0
   -2.3047    0.6183    0.9896 C   0  0  0  0  0  0  0  0  0  0  0  0
   -1.7570    1.1616   -0.3545 C   0  0  1  0  0  0  0  0  0  0  0  0
   -0.3589    1.7680   -0.2234 C   0  0  0  0  0  0  0  0  0  0  0  0
    2.1798    2.5347    0.5242 O   0  0  0  0  0  0  0  0  0  0  0  0
   -1.6925    0.0686   -1.4056 C   0  0  0  0  0  0  0  0  0  0  0  0
    4.0394    0.7785    0.7511 H   0  0  0  0  0  0  0  0  0  0  0  0
    3.7128   -1.6229    0.1970 H   0  0  0  0  0  0  0  0  0  0  0  0
    1.5174   -2.4279   -0.5683 H   0  0  0  0  0  0  0  0  0  0  0  0
   -0.6937   -1.8154   -1.6078 H   0  0  0  0  0  0  0  0  0  0  0  0
   -0.9905   -2.4879    0.7782 H   0  0  0  0  0  0  0  0  0  0  0  0
   -2.5136   -2.0843    0.0064 H   0  0  0  0  0  0  0  0  0  0  0  0
   -2.5068   -1.0971    2.0898 H   0  0  0  0  0  0  0  0  0  0  0  0
   -2.0633    1.3308    1.7904 H   0  0  0  0  0  0  0  0  0  0  0  0
   -3.3993    0.5930    0.9284 H   0  0  0  0  0  0  0  0  0  0  0  0
   -2.4392    1.9593   -0.6907 H   0  0  0  0  0  0  0  0  0  0  0  0
   -0.3263    2.4858    0.6049 H   0  0  0  0  0  0  0  0  0  0  0  0
   -0.1436    2.3461   -1.1349 H   0  0  0  0  0  0  0  0  0  0  0  0
   -2.6990   -0.3088   -1.6288 H   0  0  0  0  0  0  0  0  0  0  0  0
   -1.2811    0.4532   -2.3468 H   0  0  0  0  0  0  0  0  0  0  0  0
  1  2  1  0  0  0  0
  1  7  1  0  0  0  0
  2  3  1  0  0  0  0
  3  4  1  0  0  0  0
  3 13  2  0  0  0  0
  4  5  2  0  0  0  0
  4 15  1  0  0  0  0
  5  6  1  0  0  0  0
  5 16  1  0  0  0  0
  6  1  2  0  0  0  0
  6 17  1  0  0  0  0
  7  8  1  0  0  0  0
  7 14  1  0  0  0  0
  7 18  1  6  0  0  0
  8  9  1  0  0  0  0
  8 19  1  0  0  0  0
  8 20  1  0  0  0  0
  9 10  1  0  0  0  0
  9 21  1  0  0  0  0
 10 22  1  0  0  0  0
 10 23  1  0  0  0  0
 11 10  1  0  0  0  0
 11 12  1  0  0  0  0
 11 14  1  0  0  0  0
 11 24  1  6  0  0  0
 12  2  1  0  0  0  0
 12 25  1  0  0  0  0
 12 26  1  0  0  0  0
 14 27  1  0  0  0  0
 14 28  1  0  0  0  0
M  END
>  <Mol_ID>
677

>  <Formula>
C11H14N2O

>  <MolWeight>
190.24166

>  <Cat>
S2287

>  <Name>
Cytisine

>  <Synonyms>
Baphitoxine,Sophorine

>  <Target>
AChR

>  <Form>
free base

>  <CAS>
485-35-8

>  <URL>
http://selleckchem.com/products/Cytisine(Baphitoxine,-Sophorine).html

$$$$
