CZ415.cdx
 OpenBabel08302520433D

 61 64  0  0  0  0  0  0  0  0999 V2000
   -0.2980    0.7198    0.1420 C   0  0  0  0  0  0  0  0  0  0  0  0
   -0.2462   -0.6603    0.1445 C   0  0  0  0  0  0  0  0  0  0  0  0
    0.9132   -1.3407    0.1416 N   0  0  0  0  0  0  0  0  0  0  0  0
    2.0435   -0.5980    0.1327 C   0  0  0  0  0  0  0  0  0  0  0  0
    2.0696    0.7542    0.1325 N   0  0  0  0  0  0  0  0  0  0  0  0
    0.8971    1.4132    0.1019 C   0  0  0  0  0  0  0  0  0  0  0  0
   -1.6504    1.3377    0.1043 C   0  0  0  0  0  0  0  0  0  0  0  0
   -2.6902   -0.0196   -0.3457 S   0  0  0  0  0  0  0  0  0  0  0  0
   -1.5829   -1.3741    0.1436 C   0  0  0  0  0  0  0  0  0  0  0  0
    0.8527    2.7732   -0.1517 N   0  0  0  0  0  0  0  0  0  0  0  0
    3.3313   -1.3173   -0.0013 C   0  0  0  0  0  0  0  0  0  0  0  0
   -3.8590    0.0106    0.5141 O   0  0  0  0  0  0  0  0  0  0  0  0
   -2.8410    0.0057   -1.7895 O   0  0  0  0  0  0  0  0  0  0  0  0
   -1.9134   -1.8546    1.5585 C   0  0  0  0  0  0  0  0  0  0  0  0
   -1.6802   -2.5141   -0.8670 C   0  0  0  0  0  0  0  0  0  0  0  0
    1.8608    3.4459   -1.0058 C   0  0  2  0  0  0  0  0  0  0  0  0
    1.1640    4.6997   -1.6128 C   0  0  0  0  0  0  0  0  0  0  0  0
    0.6133    5.5689   -0.6058 O   0  0  0  0  0  0  0  0  0  0  0  0
   -0.3427    4.8638    0.2010 C   0  0  0  0  0  0  0  0  0  0  0  0
    0.3224    3.6653    0.8971 C   0  0  0  0  0  0  0  0  0  0  0  0
    3.4064   -2.5204   -0.7186 C   0  0  0  0  0  0  0  0  0  0  0  0
    4.6159   -3.2118   -0.8852 C   0  0  0  0  0  0  0  0  0  0  0  0
    5.8061   -2.7389   -0.3322 C   0  0  0  0  0  0  0  0  0  0  0  0
    5.7538   -1.5407    0.3892 C   0  0  0  0  0  0  0  0  0  0  0  0
    4.5366   -0.8394    0.5451 C   0  0  0  0  0  0  0  0  0  0  0  0
    7.0513   -3.4057   -0.4768 N   0  0  0  0  0  0  0  0  0  0  0  0
    7.2717   -4.5856   -1.1617 C   0  0  0  0  0  0  0  0  0  0  0  0
    8.5991   -4.9623   -1.1727 N   0  0  0  0  0  0  0  0  0  0  0  0
    6.4255   -5.2524   -1.7437 O   0  0  0  0  0  0  0  0  0  0  0  0
    9.0057   -6.1730   -1.8711 C   0  0  0  0  0  0  0  0  0  0  0  0
    8.8427   -7.4204   -1.0175 C   0  0  0  0  0  0  0  0  0  0  0  0
    2.3730    2.5911   -2.1666 C   0  0  0  0  0  0  0  0  0  0  0  0
   -1.9558    1.6820    1.0955 H   0  0  0  0  0  0  0  0  0  0  0  0
   -1.7570    2.1198   -0.6494 H   0  0  0  0  0  0  0  0  0  0  0  0
   -2.9295   -2.2605    1.6118 H   0  0  0  0  0  0  0  0  0  0  0  0
   -1.2200   -2.6378    1.8834 H   0  0  0  0  0  0  0  0  0  0  0  0
   -1.8494   -1.0376    2.2880 H   0  0  0  0  0  0  0  0  0  0  0  0
   -1.4052   -2.1882   -1.8767 H   0  0  0  0  0  0  0  0  0  0  0  0
   -1.0195   -3.3453   -0.6009 H   0  0  0  0  0  0  0  0  0  0  0  0
   -2.7060   -2.8988   -0.9157 H   0  0  0  0  0  0  0  0  0  0  0  0
    2.7022    3.7692   -0.3800 H   0  0  0  0  0  0  0  0  0  0  0  0
    1.8799    5.2889   -2.1944 H   0  0  0  0  0  0  0  0  0  0  0  0
    0.3534    4.4010   -2.2917 H   0  0  0  0  0  0  0  0  0  0  0  0
   -0.7429    5.5632    0.9408 H   0  0  0  0  0  0  0  0  0  0  0  0
   -1.1771    4.5400   -0.4351 H   0  0  0  0  0  0  0  0  0  0  0  0
    1.1464    4.0139    1.5310 H   0  0  0  0  0  0  0  0  0  0  0  0
   -0.4051    3.1767    1.5514 H   0  0  0  0  0  0  0  0  0  0  0  0
    2.5127   -2.9352   -1.1834 H   0  0  0  0  0  0  0  0  0  0  0  0
    4.5799   -4.1228   -1.4730 H   0  0  0  0  0  0  0  0  0  0  0  0
    6.6512   -1.1256    0.8416 H   0  0  0  0  0  0  0  0  0  0  0  0
    4.5355    0.0919    1.1098 H   0  0  0  0  0  0  0  0  0  0  0  0
    7.8590   -2.9558   -0.0761 H   0  0  0  0  0  0  0  0  0  0  0  0
    9.2272   -4.5799   -0.4834 H   0  0  0  0  0  0  0  0  0  0  0  0
    8.4116   -6.2800   -2.7866 H   0  0  0  0  0  0  0  0  0  0  0  0
   10.0526   -6.0517   -2.1658 H   0  0  0  0  0  0  0  0  0  0  0  0
    7.7974   -7.5745   -0.7301 H   0  0  0  0  0  0  0  0  0  0  0  0
    9.1745   -8.3060   -1.5698 H   0  0  0  0  0  0  0  0  0  0  0  0
    9.4354   -7.3477   -0.1002 H   0  0  0  0  0  0  0  0  0  0  0  0
    2.9441    3.2004   -2.8750 H   0  0  0  0  0  0  0  0  0  0  0  0
    3.0517    1.8047   -1.8254 H   0  0  0  0  0  0  0  0  0  0  0  0
    1.5489    2.1172   -2.7109 H   0  0  0  0  0  0  0  0  0  0  0  0
  1  2  1  0  0  0  0
  1  7  1  0  0  0  0
  2  3  2  0  0  0  0
  3  4  1  0  0  0  0
  4  5  2  0  0  0  0
  4 11  1  0  0  0  0
  5  6  1  0  0  0  0
  6  1  2  0  0  0  0
  6 10  1  0  0  0  0
  7  8  1  0  0  0  0
  7 33  1  0  0  0  0
  7 34  1  0  0  0  0
  8  9  1  0  0  0  0
  8 12  2  0  0  0  0
  8 13  2  0  0  0  0
  9  2  1  0  0  0  0
  9 14  1  0  0  0  0
  9 15  1  0  0  0  0
 10 16  1  0  0  0  0
 11 21  2  0  0  0  0
 14 35  1  0  0  0  0
 14 36  1  0  0  0  0
 14 37  1  0  0  0  0
 15 38  1  0  0  0  0
 15 39  1  0  0  0  0
 15 40  1  0  0  0  0
 16 17  1  0  0  0  0
 16 32  1  0  0  0  0
 16 41  1  1  0  0  0
 17 18  1  0  0  0  0
 17 42  1  0  0  0  0
 17 43  1  0  0  0  0
 18 19  1  0  0  0  0
 19 20  1  0  0  0  0
 19 44  1  0  0  0  0
 19 45  1  0  0  0  0
 20 10  1  0  0  0  0
 20 46  1  0  0  0  0
 20 47  1  0  0  0  0
 21 22  1  0  0  0  0
 21 48  1  0  0  0  0
 22 23  2  0  0  0  0
 22 49  1  0  0  0  0
 23 24  1  0  0  0  0
 23 26  1  0  0  0  0
 24 25  2  0  0  0  0
 24 50  1  0  0  0  0
 25 11  1  0  0  0  0
 25 51  1  0  0  0  0
 26 27  1  0  0  0  0
 26 52  1  0  0  0  0
 27 28  1  0  0  0  0
 27 29  2  0  0  0  0
 28 30  1  0  0  0  0
 28 53  1  0  0  0  0
 30 31  1  0  0  0  0
 30 54  1  0  0  0  0
 30 55  1  0  0  0  0
 31 56  1  0  0  0  0
 31 57  1  0  0  0  0
 31 58  1  0  0  0  0
 32 59  1  0  0  0  0
 32 60  1  0  0  0  0
 32 61  1  0  0  0  0
M  END
>  <Mol_ID>
4086

>  <Formula>
C22H29N5O4S

>  <MolWeight>
459.56176

>  <Cat>
S8298

>  <Name>
CZ415

>  <Synonyms>
N/A

>  <Target>
mTOR

>  <Form>
free base

>  <CAS>
1429639-50-8

>  <URL>
http://selleckchem.com/products/cz415.html

$$$$
