CZC-8004
 OpenBabel08302521273D

 39 41  0  0  0  0  0  0  0  0999 V2000
   -2.4962   -1.5704    3.6188 C   0  0  0  0  0  0  0  0  0  0  0  0
   -2.5104   -2.2624    2.4000 C   0  0  0  0  0  0  0  0  0  0  0  0
   -2.6001   -1.5673    1.1849 C   0  0  0  0  0  0  0  0  0  0  0  0
   -2.6975   -0.1715    1.1645 C   0  0  0  0  0  0  0  0  0  0  0  0
   -2.6422    0.5105    2.3884 C   0  0  0  0  0  0  0  0  0  0  0  0
   -2.5469   -0.1735    3.5973 C   0  0  0  0  0  0  0  0  0  0  0  0
   -2.4726   -2.2948    4.9395 C   0  0  0  0  0  0  0  0  0  0  0  0
   -1.2860   -1.9570    5.7161 N   0  0  0  0  0  0  0  0  0  0  0  0
   -2.8985    0.5049   -0.0548 N   0  0  0  0  0  0  0  0  0  0  0  0
   -3.4138    1.7926   -0.2158 C   0  0  0  0  0  0  0  0  0  0  0  0
   -2.9429    2.5281   -1.2340 N   0  0  0  0  0  0  0  0  0  0  0  0
   -3.3610    3.8140   -1.3347 C   0  0  0  0  0  0  0  0  0  0  0  0
   -4.2803    4.3456   -0.4502 C   0  0  0  0  0  0  0  0  0  0  0  0
   -4.7548    3.5115    0.5195 C   0  0  0  0  0  0  0  0  0  0  0  0
   -4.3379    2.2419    0.6539 N   0  0  0  0  0  0  0  0  0  0  0  0
   -2.9004    4.6465   -2.3840 N   0  0  0  0  0  0  0  0  0  0  0  0
   -2.2388    4.2636   -3.5594 C   0  0  0  0  0  0  0  0  0  0  0  0
   -2.6198    3.1135   -4.2619 C   0  0  0  0  0  0  0  0  0  0  0  0
   -1.9703    2.7411   -5.4375 C   0  0  0  0  0  0  0  0  0  0  0  0
   -0.9052    3.5017   -5.9126 C   0  0  0  0  0  0  0  0  0  0  0  0
   -0.4920    4.6309   -5.2102 C   0  0  0  0  0  0  0  0  0  0  0  0
   -1.1577    5.0112   -4.0401 C   0  0  0  0  0  0  0  0  0  0  0  0
   -4.6922    5.6179   -0.5298 F   0  0  0  0  0  0  0  0  0  0  0  0
   -2.4745   -3.3494    2.3849 H   0  0  0  0  0  0  0  0  0  0  0  0
   -2.6438   -2.1295    0.2555 H   0  0  0  0  0  0  0  0  0  0  0  0
   -2.6789    1.5950    2.4208 H   0  0  0  0  0  0  0  0  0  0  0  0
   -2.5172    0.3891    4.5266 H   0  0  0  0  0  0  0  0  0  0  0  0
   -3.3706   -2.0211    5.5063 H   0  0  0  0  0  0  0  0  0  0  0  0
   -2.5097   -3.3787    4.7855 H   0  0  0  0  0  0  0  0  0  0  0  0
   -1.2709   -2.5174    6.5648 H   0  0  0  0  0  0  0  0  0  0  0  0
   -0.4596   -2.2144    5.1791 H   0  0  0  0  0  0  0  0  0  0  0  0
   -2.2115    0.3089   -0.7710 H   0  0  0  0  0  0  0  0  0  0  0  0
   -5.4912    3.8414    1.2412 H   0  0  0  0  0  0  0  0  0  0  0  0
   -2.7425    5.6023   -2.0872 H   0  0  0  0  0  0  0  0  0  0  0  0
   -3.4532    2.5137   -3.9050 H   0  0  0  0  0  0  0  0  0  0  0  0
   -2.3007    1.8581   -5.9773 H   0  0  0  0  0  0  0  0  0  0  0  0
   -0.3974    3.2095   -6.8274 H   0  0  0  0  0  0  0  0  0  0  0  0
    0.3518    5.2144   -5.5697 H   0  0  0  0  0  0  0  0  0  0  0  0
   -0.8080    5.8872   -3.4997 H   0  0  0  0  0  0  0  0  0  0  0  0
  1  2  2  0  0  0  0
  1  7  1  0  0  0  0
  2  3  1  0  0  0  0
  2 24  1  0  0  0  0
  3  4  2  0  0  0  0
  3 25  1  0  0  0  0
  4  5  1  0  0  0  0
  4  9  1  0  0  0  0
  5  6  2  0  0  0  0
  5 26  1  0  0  0  0
  6  1  1  0  0  0  0
  6 27  1  0  0  0  0
  7  8  1  0  0  0  0
  7 28  1  0  0  0  0
  7 29  1  0  0  0  0
  8 30  1  0  0  0  0
  8 31  1  0  0  0  0
  9 10  1  0  0  0  0
  9 32  1  0  0  0  0
 10 11  2  0  0  0  0
 11 12  1  0  0  0  0
 12 13  2  0  0  0  0
 12 16  1  0  0  0  0
 13 14  1  0  0  0  0
 13 23  1  0  0  0  0
 14 15  2  0  0  0  0
 14 33  1  0  0  0  0
 15 10  1  0  0  0  0
 16 17  1  0  0  0  0
 16 34  1  0  0  0  0
 17 18  2  0  0  0  0
 18 19  1  0  0  0  0
 18 35  1  0  0  0  0
 19 20  2  0  0  0  0
 19 36  1  0  0  0  0
 20 21  1  0  0  0  0
 20 37  1  0  0  0  0
 21 22  2  0  0  0  0
 21 38  1  0  0  0  0
 22 17  1  0  0  0  0
 22 39  1  0  0  0  0
M  END
>  <Mol_ID>
5374

>  <Formula>
C17H16FN5

>  <MolWeight>
309.3408432

>  <Cat>
S0373

>  <Name>
CZC-8004

>  <Synonyms>
CZC-00008004

>  <Target>
Bcr-Abl

>  <Form>
Free Base

>  <CAS>
916603-07-1

>  <URL>
https://www.selleckchem.com/products/czc-8004.html

$$$$
