D(+)-LACTIDE
 OpenBabel08302521373D

 18 18  0  0  1  0  0  0  0  0999 V2000
    0.9699    0.0229    0.0242 C   0  0  0  0  0  0  0  0  0  0  0  0
    3.2056    2.0754   -0.8561 O   0  0  0  0  0  0  0  0  0  0  0  0
    2.3176   -3.0373   -1.9947 O   0  0  0  0  0  0  0  0  0  0  0  0
    2.5922   -1.1647   -4.0991 C   0  0  0  0  0  0  0  0  0  0  0  0
    2.4765   -0.1231   -0.1585 C   0  0  2  0  0  0  0  0  0  0  0  0
    2.9539    0.9175   -1.1653 C   0  0  0  0  0  0  0  0  0  0  0  0
    2.7519   -1.4932   -0.4201 O   0  0  0  0  0  0  0  0  0  0  0  0
    2.9630    0.5092   -2.4537 O   0  0  0  0  0  0  0  0  0  0  0  0
    2.6653   -1.8983   -1.7074 C   0  0  0  0  0  0  0  0  0  0  0  0
    3.1749   -0.8743   -2.7193 C   0  0  1  0  0  0  0  0  0  0  0  0
    0.6003   -0.6983    0.7610 H   0  0  0  0  0  0  0  0  0  0  0  0
    0.6975    1.0322    0.3444 H   0  0  0  0  0  0  0  0  0  0  0  0
    0.4437   -0.1875   -0.9148 H   0  0  0  0  0  0  0  0  0  0  0  0
    2.9538   -0.4394   -4.8357 H   0  0  0  0  0  0  0  0  0  0  0  0
    2.8622   -2.1695   -4.4418 H   0  0  0  0  0  0  0  0  0  0  0  0
    1.4986   -1.0937   -4.0867 H   0  0  0  0  0  0  0  0  0  0  0  0
    2.9823    0.1069    0.7872 H   0  0  0  0  0  0  0  0  0  0  0  0
    4.2604   -1.0169   -2.7749 H   0  0  0  0  0  0  0  0  0  0  0  0
  1 11  1  0  0  0  0
  1 12  1  0  0  0  0
  1 13  1  0  0  0  0
  2  6  2  0  0  0  0
  3  9  2  0  0  0  0
  4 14  1  0  0  0  0
  4 15  1  0  0  0  0
  4 16  1  0  0  0  0
  5  1  1  0  0  0  0
  5  6  1  0  0  0  0
  5  7  1  0  0  0  0
  5 17  1  1  0  0  0
  6  8  1  0  0  0  0
  7  9  1  0  0  0  0
  8 10  1  0  0  0  0
  9 10  1  0  0  0  0
 10  4  1  0  0  0  0
 10 18  1  6  0  0  0
M  END
>  <Mol_ID>
7358

>  <Formula>
C6H8O4

>  <MolWeight>
144.12532

>  <Cat>
E4405

>  <Name>
D(+)-LACTIDE

>  <Synonyms>
D(+)-LACTIDE

>  <Target>
Others

>  <Form>
free base

>  <CAS>
13076-17-0

>  <URL>
https://www.selleckchem.com/products/d-lactide.html

$$$$
