D-(+)-ALLOSE
 OpenBabel08302521373D

 24 23  0  0  1  0  0  0  0  0999 V2000
    0.9646   -0.0922   -0.0594 C   0  0  1  0  0  0  0  0  0  0  0  0
    0.5724    0.8759    1.0836 C   0  0  2  0  0  0  0  0  0  0  0  0
    0.2216   -1.4472   -0.0527 C   0  0  1  0  0  0  0  0  0  0  0  0
    0.6929    0.5604   -1.3133 O   0  0  0  0  0  0  0  0  0  0  0  0
    0.9558    0.3896    2.4852 C   0  0  2  0  0  0  0  0  0  0  0  0
   -0.8330    1.1769    0.9833 O   0  0  0  0  0  0  0  0  0  0  0  0
    0.6825   -2.3761   -1.1829 C   0  0  0  0  0  0  0  0  0  0  0  0
    0.4106   -2.1344    1.1842 O   0  0  0  0  0  0  0  0  0  0  0  0
    0.5994    1.4595    3.5064 C   0  0  0  0  0  0  0  0  0  0  0  0
    2.3428    0.0715    2.5228 O   0  0  0  0  0  0  0  0  0  0  0  0
    2.0660   -2.6911   -1.0166 O   0  0  0  0  0  0  0  0  0  0  0  0
    1.4393    2.0678    4.1651 O   0  0  0  0  0  0  0  0  0  0  0  0
    2.0463   -0.2569   -0.0118 H   0  0  0  0  0  0  0  0  0  0  0  0
    1.0828    1.8268    0.8899 H   0  0  0  0  0  0  0  0  0  0  0  0
   -0.8538   -1.2785   -0.1748 H   0  0  0  0  0  0  0  0  0  0  0  0
   -0.1276    1.0782   -1.1835 H   0  0  0  0  0  0  0  0  0  0  0  0
    0.3835   -0.4892    2.7924 H   0  0  0  0  0  0  0  0  0  0  0  0
   -1.3351    0.3793    1.2265 H   0  0  0  0  0  0  0  0  0  0  0  0
    0.1371   -3.3236   -1.1221 H   0  0  0  0  0  0  0  0  0  0  0  0
    0.5203   -1.9447   -2.1748 H   0  0  0  0  0  0  0  0  0  0  0  0
    1.2947   -2.5570    1.1238 H   0  0  0  0  0  0  0  0  0  0  0  0
   -0.4798    1.6529    3.6334 H   0  0  0  0  0  0  0  0  0  0  0  0
    2.8204    0.9107    2.6748 H   0  0  0  0  0  0  0  0  0  0  0  0
    2.5715   -1.9665   -1.4294 H   0  0  0  0  0  0  0  0  0  0  0  0
  1  4  1  0  0  0  0
  1 13  1  1  0  0  0
  1  3  1  0  0  0  0
  1  2  1  0  0  0  0
  2 14  1  6  0  0  0
  2  6  1  0  0  0  0
  2  5  1  0  0  0  0
  3  7  1  0  0  0  0
  3  8  1  0  0  0  0
  3 15  1  6  0  0  0
  4 16  1  0  0  0  0
  5 17  1  1  0  0  0
  5 10  1  0  0  0  0
  5  9  1  0  0  0  0
  6 18  1  0  0  0  0
  7 11  1  0  0  0  0
  7 19  1  0  0  0  0
  7 20  1  0  0  0  0
  8 21  1  0  0  0  0
  9 12  2  0  0  0  0
  9 22  1  0  0  0  0
 10 23  1  0  0  0  0
 11 24  1  0  0  0  0
M  END
>  <Mol_ID>
7444

>  <Formula>
C6H12O6

>  <MolWeight>
180.15588

>  <Cat>
E4546

>  <Name>
D-(+)-ALLOSE

>  <Synonyms>
D-(+)-ALLOSE

>  <Target>
Others

>  <Form>
Free base

>  <CAS>
2595-97-3

>  <URL>
https://www.selleckchem.com/products/d-allose.html

$$$$
