D-(-)-Tartaric acid
 OpenBabel08302521293D

 16 15  0  0  0  0  0  0  0  0999 V2000
    2.5457    2.2386    1.4122 O   0  0  0  0  0  0  0  0  0  0  0  0
    2.2955    0.0411   -0.2567 O   0  0  0  0  0  0  0  0  0  0  0  0
    0.1687    1.5832   -0.3150 O   0  0  0  0  0  0  0  0  0  0  0  0
    4.8892    1.2733    0.7113 O   0  0  0  0  0  0  0  0  0  0  0  0
    0.4983    3.7964   -0.6198 O   0  0  0  0  0  0  0  0  0  0  0  0
    5.2275    0.8166   -1.4729 O   0  0  0  0  0  0  0  0  0  0  0  0
    2.4097    2.4461   -0.0060 C   0  0  1  0  0  0  0  0  0  0  0  0
    2.9558    1.2215   -0.7469 C   0  0  1  0  0  0  0  0  0  0  0  0
    0.9500    2.6846   -0.3834 C   0  0  0  0  0  0  0  0  0  0  0  0
    4.4689    1.1171   -0.5615 C   0  0  0  0  0  0  0  0  0  0  0  0
    1.9620    2.8949    1.8473 H   0  0  0  0  0  0  0  0  0  0  0  0
    2.8080   -0.7232   -0.5919 H   0  0  0  0  0  0  0  0  0  0  0  0
    0.6831    0.7693   -0.0855 H   0  0  0  0  0  0  0  0  0  0  0  0
    4.1490    1.4753    1.3354 H   0  0  0  0  0  0  0  0  0  0  0  0
    2.9858    3.3395   -0.2736 H   0  0  0  0  0  0  0  0  0  0  0  0
    2.7461    1.3046   -1.8196 H   0  0  0  0  0  0  0  0  0  0  0  0
  1 11  1  0  0  0  0
  2 12  1  0  0  0  0
  3  9  1  0  0  0  0
  3 13  1  0  0  0  0
  4 10  1  0  0  0  0
  4 14  1  0  0  0  0
  5  9  2  0  0  0  0
  6 10  2  0  0  0  0
  7  1  1  0  0  0  0
  7  9  1  0  0  0  0
  7 15  1  6  0  0  0
  8 10  1  0  0  0  0
  8 16  1  6  0  0  0
  8  2  1  0  0  0  0
  8  7  1  0  0  0  0
M  END
>  <Mol_ID>
5463

>  <Formula>
C4H6O6

>  <MolWeight>
150.08684

>  <Cat>
S3134

>  <Name>
D-(-)-Tartaric acid

>  <Synonyms>
D-Tartaric acid

>  <Target>
Others

>  <Form>
Free Base

>  <CAS>
147-71-7

>  <URL>
https://www.selleckchem.com/products/d-tartaric-acid.html

$$$$
