D-(-)-Lyxose
 OpenBabel08302521303D

 20 19  0  0  0  0  0  0  0  0999 V2000
    5.3795    0.7308    1.2701 O   0  0  0  0  0  0  0  0  0  0  0  0
    4.1715    0.7389    1.5186 C   0  0  0  0  0  0  0  0  0  0  0  0
    3.1377    1.0707    0.4513 C   0  0  2  0  0  0  0  0  0  0  0  0
    2.1928   -0.0827    0.0919 C   0  0  2  0  0  0  0  0  0  0  0  0
    1.2504   -0.5344    1.2179 C   0  0  1  0  0  0  0  0  0  0  0  0
    0.3505   -1.6878    0.7416 C   0  0  0  0  0  0  0  0  0  0  0  0
   -0.6202   -1.9916    1.7417 O   0  0  0  0  0  0  0  0  0  0  0  0
    2.9520   -1.2000   -0.4014 O   0  0  0  0  0  0  0  0  0  0  0  0
    1.9994   -0.9378    2.3714 O   0  0  0  0  0  0  0  0  0  0  0  0
    3.8351    1.4330   -0.7577 O   0  0  0  0  0  0  0  0  0  0  0  0
    3.8009    0.5703    2.5411 H   0  0  0  0  0  0  0  0  0  0  0  0
    2.5753    1.9481    0.7853 H   0  0  0  0  0  0  0  0  0  0  0  0
    1.5735    0.2413   -0.7540 H   0  0  0  0  0  0  0  0  0  0  0  0
    0.6267    0.3084    1.5367 H   0  0  0  0  0  0  0  0  0  0  0  0
   -0.1856   -1.4123   -0.1714 H   0  0  0  0  0  0  0  0  0  0  0  0
    0.9346   -2.5949    0.5445 H   0  0  0  0  0  0  0  0  0  0  0  0
   -0.4864   -2.9166    2.0093 H   0  0  0  0  0  0  0  0  0  0  0  0
    3.4840   -0.8483   -1.1454 H   0  0  0  0  0  0  0  0  0  0  0  0
    2.1959   -1.8879    2.2743 H   0  0  0  0  0  0  0  0  0  0  0  0
    4.7846    1.2496   -0.5852 H   0  0  0  0  0  0  0  0  0  0  0  0
  1  2  2  0  0  0  0
  2 11  1  0  0  0  0
  3 10  1  0  0  0  0
  3 12  1  1  0  0  0
  3  4  1  0  0  0  0
  3  2  1  0  0  0  0
  4 13  1  6  0  0  0
  4  8  1  0  0  0  0
  4  5  1  0  0  0  0
  5  6  1  0  0  0  0
  5  9  1  0  0  0  0
  5 14  1  1  0  0  0
  6  7  1  0  0  0  0
  6 15  1  0  0  0  0
  6 16  1  0  0  0  0
  7 17  1  0  0  0  0
  8 18  1  0  0  0  0
  9 19  1  0  0  0  0
 10 20  1  0  0  0  0
M  END
>  <Mol_ID>
5499

>  <Formula>
C5H10O5

>  <MolWeight>
150.1299

>  <Cat>
S3338

>  <Name>
D-(-)-Lyxose

>  <Synonyms>
D-Lyxose

>  <Target>
Others

>  <Form>
Free Base

>  <CAS>
1114-34-7

>  <URL>
https://www.selleckchem.com/products/d-lyxose.html

$$$$
