D(-)-2-Aminobutyric acid
 OpenBabel08302521383D

 16 15  0  0  0  0  0  0  0  0999 V2000
    0.9718   -0.1320    0.0071 C   0  0  1  0  0  0  0  0  0  0  0  0
    0.3598   -1.5393   -0.1559 C   0  0  0  0  0  0  0  0  0  0  0  0
    0.5168    0.8389   -1.0887 C   0  0  0  0  0  0  0  0  0  0  0  0
    0.6897    0.3651    1.3792 N   0  0  0  0  0  0  0  0  0  0  0  0
    0.2737   -2.1936    1.0257 O   0  0  0  0  0  0  0  0  0  0  0  0
    0.0125   -2.0371   -1.2187 O   0  0  0  0  0  0  0  0  0  0  0  0
   -0.9662    1.1669   -1.0854 C   0  0  0  0  0  0  0  0  0  0  0  0
    2.0552   -0.2635   -0.0747 H   0  0  0  0  0  0  0  0  0  0  0  0
    1.0854    1.7753   -1.0000 H   0  0  0  0  0  0  0  0  0  0  0  0
    0.7739    0.4159   -2.0682 H   0  0  0  0  0  0  0  0  0  0  0  0
    0.8952    1.3701    1.3889 H   0  0  0  0  0  0  0  0  0  0  0  0
   -0.3226    0.3299    1.5420 H   0  0  0  0  0  0  0  0  0  0  0  0
    0.6281   -1.6003    1.7300 H   0  0  0  0  0  0  0  0  0  0  0  0
   -1.2707    1.6700   -0.1593 H   0  0  0  0  0  0  0  0  0  0  0  0
   -1.2031    1.8433   -1.9149 H   0  0  0  0  0  0  0  0  0  0  0  0
   -1.5786    0.2682   -1.2041 H   0  0  0  0  0  0  0  0  0  0  0  0
  1  4  1  0  0  0  0
  1  8  1  6  0  0  0
  1  3  1  0  0  0  0
  1  2  1  0  0  0  0
  2  5  1  0  0  0  0
  2  6  2  0  0  0  0
  3  7  1  0  0  0  0
  3  9  1  0  0  0  0
  3 10  1  0  0  0  0
  4 11  1  0  0  0  0
  4 12  1  0  0  0  0
  5 13  1  0  0  0  0
  7 14  1  0  0  0  0
  7 15  1  0  0  0  0
  7 16  1  0  0  0  0
M  END
>  <Mol_ID>
7927

>  <Formula>
C4H9NO2

>  <MolWeight>
103.11976

>  <Cat>
S6330

>  <Name>
D(-)-2-Aminobutyric acid

>  <Synonyms>
N/A

>  <Target>
Others

>  <Form>
free base

>  <CAS>
2623-91-8

>  <URL>
http://www.selleck.cn/products/d-2-aminobutyric-acid.html

$$$$
