D-3-Phenyllactic acid
 OpenBabel08302520393D

 22 22  0  0  0  0  0  0  0  0999 V2000
    3.3364    2.3446    0.3002 C   0  0  0  0  0  0  0  0  0  0  0  0
    3.2768    1.5503   -0.9895 C   0  0  0  0  0  0  0  0  0  0  0  0
    3.3337    3.7497    0.2107 C   0  0  0  0  0  0  0  0  0  0  0  0
    3.2516    1.7696    1.5740 C   0  0  0  0  0  0  0  0  0  0  0  0
    3.9500    0.1774   -1.0966 C   0  0  2  0  0  0  0  0  0  0  0  0
    3.2442    4.5511    1.3512 C   0  0  0  0  0  0  0  0  0  0  0  0
    3.1659    2.5742    2.7174 C   0  0  0  0  0  0  0  0  0  0  0  0
    3.2502   -0.9542   -0.3466 C   0  0  0  0  0  0  0  0  0  0  0  0
    5.3428    0.2049   -0.7595 O   0  0  0  0  0  0  0  0  0  0  0  0
    3.1523    3.9620    2.6064 C   0  0  0  0  0  0  0  0  0  0  0  0
    4.1139   -1.9723   -0.0860 O   0  0  0  0  0  0  0  0  0  0  0  0
    2.0694   -0.9907   -0.0346 O   0  0  0  0  0  0  0  0  0  0  0  0
    2.2176    1.4539   -1.2610 H   0  0  0  0  0  0  0  0  0  0  0  0
    3.7470    2.1711   -1.7648 H   0  0  0  0  0  0  0  0  0  0  0  0
    3.3735    4.2376   -0.7615 H   0  0  0  0  0  0  0  0  0  0  0  0
    3.2047    0.6943    1.7171 H   0  0  0  0  0  0  0  0  0  0  0  0
    3.9048   -0.1281   -2.1498 H   0  0  0  0  0  0  0  0  0  0  0  0
    3.2184    5.6338    1.2547 H   0  0  0  0  0  0  0  0  0  0  0  0
    3.0771    2.1114    3.6975 H   0  0  0  0  0  0  0  0  0  0  0  0
    5.4346    0.7585    0.0406 H   0  0  0  0  0  0  0  0  0  0  0  0
    3.0503    4.5810    3.4946 H   0  0  0  0  0  0  0  0  0  0  0  0
    5.0065   -1.7225   -0.4210 H   0  0  0  0  0  0  0  0  0  0  0  0
  1  2  1  0  0  0  0
  1  3  2  0  0  0  0
  1  4  1  0  0  0  0
  2 13  1  0  0  0  0
  2 14  1  0  0  0  0
  3  6  1  0  0  0  0
  3 15  1  0  0  0  0
  4  7  2  0  0  0  0
  4 16  1  0  0  0  0
  5  9  1  0  0  0  0
  5 17  1  6  0  0  0
  5  8  1  0  0  0  0
  5  2  1  0  0  0  0
  6 10  2  0  0  0  0
  6 18  1  0  0  0  0
  7 10  1  0  0  0  0
  7 19  1  0  0  0  0
  8 11  1  0  0  0  0
  8 12  2  0  0  0  0
  9 20  1  0  0  0  0
 10 21  1  0  0  0  0
 11 22  1  0  0  0  0
M  END
>  <Mol_ID>
3663

>  <Formula>
C9H10O3

>  <MolWeight>
166.1739

>  <Cat>
S6326

>  <Name>
D-3-Phenyllactic acid

>  <Synonyms>
N/A

>  <Target>
Others

>  <Form>
free base

>  <CAS>
7326-19-4

>  <URL>
http://www.selleck.cn/products/d-3-phenyllactic-acid.html

$$$$
