D-Allose
 OpenBabel08302521373D

 24 24  0  0  1  0  0  0  0  0999 V2000
    1.0345    0.0252    0.2851 C   0  0  0  0  0  0  0  0  0  0  0  0
    0.5941   -1.0085    1.1600 O   0  0  0  0  0  0  0  0  0  0  0  0
    4.4934    0.9459   -0.9381 O   0  0  0  0  0  0  0  0  0  0  0  0
    3.2885    1.5386   -3.3139 O   0  0  0  0  0  0  0  0  0  0  0  0
    1.0602   -2.0481   -1.8318 O   0  0  0  0  0  0  0  0  0  0  0  0
    4.3970   -0.9158   -2.9895 O   0  0  0  0  0  0  0  0  0  0  0  0
    2.5325   -0.1362   -0.0161 C   0  0  2  0  0  0  0  0  0  0  0  0
    3.0544    0.9279   -0.9894 C   0  0  2  0  0  0  0  0  0  0  0  0
    2.8485   -1.4704   -0.4568 O   0  0  0  0  0  0  0  0  0  0  0  0
    2.6261    0.6208   -2.4289 C   0  0  2  0  0  0  0  0  0  0  0  0
    2.4583   -1.8291   -1.7796 C   0  0  2  0  0  0  0  0  0  0  0  0
    2.9723   -0.8219   -2.8299 C   0  0  2  0  0  0  0  0  0  0  0  0
    0.8434    0.9872    0.7726 H   0  0  0  0  0  0  0  0  0  0  0  0
    0.4154   -0.0146   -0.6135 H   0  0  0  0  0  0  0  0  0  0  0  0
    0.9263   -1.8435    0.7719 H   0  0  0  0  0  0  0  0  0  0  0  0
    4.7647    1.6754   -1.5321 H   0  0  0  0  0  0  0  0  0  0  0  0
    4.0649    1.0535   -3.6659 H   0  0  0  0  0  0  0  0  0  0  0  0
    0.6566   -1.4577   -2.4890 H   0  0  0  0  0  0  0  0  0  0  0  0
    4.7841   -0.8414   -2.0884 H   0  0  0  0  0  0  0  0  0  0  0  0
    3.0710   -0.0362    0.9357 H   0  0  0  0  0  0  0  0  0  0  0  0
    2.7223    1.9286   -0.6903 H   0  0  0  0  0  0  0  0  0  0  0  0
    1.5481    0.7871   -2.5334 H   0  0  0  0  0  0  0  0  0  0  0  0
    2.9294   -2.7952   -1.9762 H   0  0  0  0  0  0  0  0  0  0  0  0
    2.5366   -1.0337   -3.8120 H   0  0  0  0  0  0  0  0  0  0  0  0
  1  2  1  0  0  0  0
  1 13  1  0  0  0  0
  1 14  1  0  0  0  0
  2 15  1  0  0  0  0
  3 16  1  0  0  0  0
  4 17  1  0  0  0  0
  5 18  1  0  0  0  0
  6 19  1  0  0  0  0
  7  1  1  0  0  0  0
  7  8  1  0  0  0  0
  7  9  1  0  0  0  0
  7 20  1  1  0  0  0
  8 10  1  0  0  0  0
  8 21  1  1  0  0  0
  8  3  1  0  0  0  0
  9 11  1  0  0  0  0
 10 12  1  0  0  0  0
 10 22  1  6  0  0  0
 10  4  1  0  0  0  0
 11  5  1  0  0  0  0
 11 12  1  0  0  0  0
 11 23  1  6  0  0  0
 12 24  1  6  0  0  0
 12  6  1  0  0  0  0
M  END
>  <Mol_ID>
7449

>  <Formula>
C6H12O6

>  <MolWeight>
180.15588

>  <Cat>
E4553

>  <Name>
D-Allose

>  <Target>
Others

>  <Form>
free base

>  <CAS>
7283-09-2

>  <URL>
https://www.selleckchem.com/products/d-allose.html

$$$$
