D-Allothreonine
 OpenBabel08302521453D

 17 16  0  0  1  0  0  0  0  0999 V2000
    0.8297   -0.0721    0.0702 C   0  0  2  0  0  0  0  0  0  0  0  0
    0.3442    0.2612   -1.3620 C   0  0  1  0  0  0  0  0  0  0  0  0
    0.4368   -1.5087    0.4827 C   0  0  0  0  0  0  0  0  0  0  0  0
    0.2669    0.8683    1.1023 N   0  0  0  0  0  0  0  0  0  0  0  0
    0.7315    1.6758   -1.7914 C   0  0  0  0  0  0  0  0  0  0  0  0
    0.8775   -0.6158   -2.3511 O   0  0  0  0  0  0  0  0  0  0  0  0
   -0.2386   -1.5122    1.6651 O   0  0  0  0  0  0  0  0  0  0  0  0
    0.7307   -2.5306   -0.1115 O   0  0  0  0  0  0  0  0  0  0  0  0
    1.9236   -0.0306    0.1355 H   0  0  0  0  0  0  0  0  0  0  0  0
   -0.7463    0.1607   -1.4087 H   0  0  0  0  0  0  0  0  0  0  0  0
    0.8275    1.7258    1.0832 H   0  0  0  0  0  0  0  0  0  0  0  0
   -0.6625    1.1717    0.7881 H   0  0  0  0  0  0  0  0  0  0  0  0
    1.8221    1.7767   -1.8494 H   0  0  0  0  0  0  0  0  0  0  0  0
    0.3473    1.8818   -2.7961 H   0  0  0  0  0  0  0  0  0  0  0  0
    0.3433    2.4404   -1.1156 H   0  0  0  0  0  0  0  0  0  0  0  0
    1.8446   -0.6593   -2.2637 H   0  0  0  0  0  0  0  0  0  0  0  0
   -0.2504   -0.5703    1.9697 H   0  0  0  0  0  0  0  0  0  0  0  0
  1  2  1  0  0  0  0
  1  3  1  0  0  0  0
  1  4  1  0  0  0  0
  1  9  1  1  0  0  0
  2  5  1  0  0  0  0
  2  6  1  0  0  0  0
  2 10  1  6  0  0  0
  3  7  1  0  0  0  0
  3  8  2  0  0  0  0
  4 11  1  0  0  0  0
  4 12  1  0  0  0  0
  5 13  1  0  0  0  0
  5 14  1  0  0  0  0
  5 15  1  0  0  0  0
  6 16  1  0  0  0  0
  7 17  1  0  0  0  0
M  END
>  <Mol_ID>
9493

>  <Formula>
C4H9NO3

>  <MolWeight>
119.11916

>  <Cat>
E4122

>  <Name>
D-Allothreonine

>  <Synonyms>
D-Allothreonine

>  <Target>
Others

>  <Form>
free base

>  <CAS>
24830-94-2

>  <URL>
https://www.selleckchem.com/products/d-allothreonine.html

$$$$
