D-AP5
 OpenBabel08302521453D

 24 23  0  0  1  0  0  0  0  0999 V2000
   -0.4814   -1.2245   -1.1780 C   0  0  0  0  0  0  0  0  0  0  0  0
    0.5454   -1.3107   -2.3108 C   0  0  0  0  0  0  0  0  0  0  0  0
    0.1840   -1.0961    0.1880 C   0  0  0  0  0  0  0  0  0  0  0  0
   -0.1103   -1.3962   -3.6934 C   0  0  2  0  0  0  0  0  0  0  0  0
   -1.0490   -0.9868    1.5358 P   0  0  0  0  0  0  0  0  0  0  0  0
    0.9706   -1.5437   -4.7881 C   0  0  0  0  0  0  0  0  0  0  0  0
   -0.9290   -0.1839   -3.9941 N   0  0  0  0  0  0  0  0  0  0  0  0
    0.0619   -0.8553    2.5781 O   0  0  0  0  0  0  0  0  0  0  0  0
   -1.3857    0.5614    1.1260 O   0  0  0  0  0  0  0  0  0  0  0  0
   -2.2146   -0.8835    2.8100 O   0  0  0  0  0  0  0  0  0  0  0  0
    0.7741   -0.6170   -5.7764 O   0  0  0  0  0  0  0  0  0  0  0  0
    1.8766   -2.3581   -4.8030 O   0  0  0  0  0  0  0  0  0  0  0  0
   -1.1226   -2.1135   -1.1876 H   0  0  0  0  0  0  0  0  0  0  0  0
   -1.1426   -0.3635   -1.3274 H   0  0  0  0  0  0  0  0  0  0  0  0
    1.2177   -0.4419   -2.2674 H   0  0  0  0  0  0  0  0  0  0  0  0
    1.1810   -2.1921   -2.1504 H   0  0  0  0  0  0  0  0  0  0  0  0
    0.7989   -1.9853    0.3730 H   0  0  0  0  0  0  0  0  0  0  0  0
    0.8493   -0.2243    0.2077 H   0  0  0  0  0  0  0  0  0  0  0  0
   -0.7564   -2.2763   -3.7731 H   0  0  0  0  0  0  0  0  0  0  0  0
   -1.8520   -0.3186   -3.5674 H   0  0  0  0  0  0  0  0  0  0  0  0
   -0.5355    0.6128   -3.4796 H   0  0  0  0  0  0  0  0  0  0  0  0
   -0.8317    1.1729    1.6505 H   0  0  0  0  0  0  0  0  0  0  0  0
   -1.7193   -0.5439    3.5828 H   0  0  0  0  0  0  0  0  0  0  0  0
   -0.0353   -0.1111   -5.5086 H   0  0  0  0  0  0  0  0  0  0  0  0
  1  2  1  0  0  0  0
  1  3  1  0  0  0  0
  1 13  1  0  0  0  0
  1 14  1  0  0  0  0
  2 15  1  0  0  0  0
  2 16  1  0  0  0  0
  3  5  1  0  0  0  0
  3 17  1  0  0  0  0
  3 18  1  0  0  0  0
  4  7  1  0  0  0  0
  4 19  1  6  0  0  0
  4  6  1  0  0  0  0
  4  2  1  0  0  0  0
  5  8  2  0  0  0  0
  5  9  1  0  0  0  0
  5 10  1  0  0  0  0
  6 11  1  0  0  0  0
  6 12  2  0  0  0  0
  7 20  1  0  0  0  0
  7 21  1  0  0  0  0
  9 22  1  0  0  0  0
 10 23  1  0  0  0  0
 11 24  1  0  0  0  0
M  END
>  <Mol_ID>
9541

>  <Formula>
C5H12NO5P

>  <MolWeight>
197.126241

>  <Cat>
E1246

>  <Name>
D-AP5

>  <Target>
NMDAR

>  <Form>
Free base

>  <CAS>
79055-68-8

>  <URL>
https://www.selleckchem.com/products/d-ap5.html

$$$$
