D-Arabitol
 OpenBabel08302520393D

 22 21  0  0  0  0  0  0  0  0999 V2000
    1.0101    0.0928    0.0269 C   0  0  3  0  0  0  0  0  0  0  0  0
    0.5248   -0.1323    1.4793 C   0  0  1  0  0  0  0  0  0  0  0  0
    0.5311    1.4205   -0.5987 C   0  0  1  0  0  0  0  0  0  0  0  0
    0.6211   -1.0161   -0.8145 O   0  0  0  0  0  0  0  0  0  0  0  0
   -0.9931   -0.2750    1.6512 C   0  0  0  0  0  0  0  0  0  0  0  0
    1.1331   -1.3461    1.9585 O   0  0  0  0  0  0  0  0  0  0  0  0
    1.1039    1.6271   -2.0098 C   0  0  0  0  0  0  0  0  0  0  0  0
   -0.8978    1.4384   -0.7097 O   0  0  0  0  0  0  0  0  0  0  0  0
   -1.5128   -1.2065    0.6913 O   0  0  0  0  0  0  0  0  0  0  0  0
    0.5851    0.6368   -2.9021 O   0  0  0  0  0  0  0  0  0  0  0  0
    2.1066    0.0805    0.0301 H   0  0  0  0  0  0  0  0  0  0  0  0
    0.8877    0.6748    2.1241 H   0  0  0  0  0  0  0  0  0  0  0  0
    0.8291    2.2561    0.0441 H   0  0  0  0  0  0  0  0  0  0  0  0
   -0.2857   -1.2657   -0.5184 H   0  0  0  0  0  0  0  0  0  0  0  0
   -1.2329   -0.6634    2.6458 H   0  0  0  0  0  0  0  0  0  0  0  0
   -1.5010    0.6855    1.5254 H   0  0  0  0  0  0  0  0  0  0  0  0
    0.8250   -2.0515    1.3558 H   0  0  0  0  0  0  0  0  0  0  0  0
    0.7854    2.5979   -2.4030 H   0  0  0  0  0  0  0  0  0  0  0  0
    2.1968    1.5829   -2.0196 H   0  0  0  0  0  0  0  0  0  0  0  0
   -1.0945    1.0041   -1.5639 H   0  0  0  0  0  0  0  0  0  0  0  0
   -2.4740   -1.0324    0.6449 H   0  0  0  0  0  0  0  0  0  0  0  0
    0.7763   -0.2350   -2.4881 H   0  0  0  0  0  0  0  0  0  0  0  0
  1  2  1  0  0  0  0
  1  3  1  0  0  0  0
  1  4  1  0  0  0  0
  1 11  1  0  0  0  0
  2  5  1  0  0  0  0
  2  6  1  0  0  0  0
  2 12  1  1  0  0  0
  3  7  1  0  0  0  0
  3  8  1  0  0  0  0
  3 13  1  1  0  0  0
  4 14  1  0  0  0  0
  5  9  1  0  0  0  0
  5 15  1  0  0  0  0
  5 16  1  0  0  0  0
  6 17  1  0  0  0  0
  7 10  1  0  0  0  0
  7 18  1  0  0  0  0
  7 19  1  0  0  0  0
  8 20  1  0  0  0  0
  9 21  1  0  0  0  0
 10 22  1  0  0  0  0
M  END
>  <Mol_ID>
3573

>  <Formula>
C5H12O5

>  <MolWeight>
152.14578

>  <Cat>
S6114

>  <Name>
D-Arabitol

>  <Synonyms>
N/A

>  <Target>
Others

>  <Form>
free base

>  <CAS>
488-82-4

>  <URL>
http://www.selleck.cn/products/d-arabitol.html

$$$$
