D-arabinose
 OpenBabel08302521363D

 20 19  0  0  1  0  0  0  0  0999 V2000
    0.9018   -0.0903    0.1558 C   0  0  2  0  0  0  0  0  0  0  0  0
    0.4489    0.0568   -1.3195 C   0  0  1  0  0  0  0  0  0  0  0  0
    0.3872   -1.3677    0.8296 C   0  0  1  0  0  0  0  0  0  0  0  0
    0.5015    1.0666    0.9150 O   0  0  0  0  0  0  0  0  0  0  0  0
   -1.0646    0.2116   -1.5358 C   0  0  0  0  0  0  0  0  0  0  0  0
    1.0862    1.2319   -1.8528 O   0  0  0  0  0  0  0  0  0  0  0  0
    0.9622   -1.4790    2.2357 C   0  0  0  0  0  0  0  0  0  0  0  0
   -1.0371   -1.4067    0.8847 O   0  0  0  0  0  0  0  0  0  0  0  0
   -1.5906    1.2010   -0.6426 O   0  0  0  0  0  0  0  0  0  0  0  0
    0.2545   -1.6066    3.2339 O   0  0  0  0  0  0  0  0  0  0  0  0
    1.9971   -0.0848    0.1814 H   0  0  0  0  0  0  0  0  0  0  0  0
    0.8127   -0.7923   -1.9079 H   0  0  0  0  0  0  0  0  0  0  0  0
    0.7234   -2.2474    0.2691 H   0  0  0  0  0  0  0  0  0  0  0  0
   -0.4091    1.2918    0.6182 H   0  0  0  0  0  0  0  0  0  0  0  0
   -1.2750    0.5481   -2.5561 H   0  0  0  0  0  0  0  0  0  0  0  0
   -1.5903   -0.7324   -1.3697 H   0  0  0  0  0  0  0  0  0  0  0  0
    0.7561    1.9763   -1.3108 H   0  0  0  0  0  0  0  0  0  0  0  0
    2.0620   -1.4717    2.3114 H   0  0  0  0  0  0  0  0  0  0  0  0
   -1.2775   -1.0888    1.7797 H   0  0  0  0  0  0  0  0  0  0  0  0
   -2.5508    1.0358   -0.5926 H   0  0  0  0  0  0  0  0  0  0  0  0
  1  2  1  0  0  0  0
  1  3  1  0  0  0  0
  1  4  1  0  0  0  0
  1 11  1  1  0  0  0
  2  5  1  0  0  0  0
  2  6  1  0  0  0  0
  2 12  1  6  0  0  0
  3  7  1  0  0  0  0
  3  8  1  0  0  0  0
  3 13  1  6  0  0  0
  4 14  1  0  0  0  0
  5  9  1  0  0  0  0
  5 15  1  0  0  0  0
  5 16  1  0  0  0  0
  6 17  1  0  0  0  0
  7 10  2  0  0  0  0
  7 18  1  0  0  0  0
  8 19  1  0  0  0  0
  9 20  1  0  0  0  0
M  END
>  <Mol_ID>
7070

>  <Formula>
C5H10O5

>  <MolWeight>
150.1299

>  <Cat>
E4083

>  <Name>
D-arabinose

>  <Synonyms>
D-Arabinose

>  <Target>
Others

>  <Form>
free base

>  <CAS>
10323-20-3

>  <URL>
https://www.selleckchem.com/products/d-arabinose.html

$$$$
