D-Arginine
 OpenBabel08302521453D

 26 25  0  0  0  0  0  0  0  0999 V2000
    0.2390   -1.4065    3.2311 O   0  0  0  0  0  0  0  0  0  0  0  0
   -1.6223   -0.6616    4.2095 O   0  0  0  0  0  0  0  0  0  0  0  0
   -0.8724    1.9649    3.2234 N   0  0  0  0  0  0  0  0  0  0  0  0
   -1.9184    2.2269   -2.1274 N   0  0  0  0  0  0  0  0  0  0  0  0
   -3.4252    1.2052   -3.6699 N   0  0  0  0  0  0  0  0  0  0  0  0
   -2.4208    3.1072   -4.1658 N   0  0  0  0  0  0  0  0  0  0  0  0
   -1.4538    0.5096    1.2420 C   0  0  0  0  0  0  0  0  0  0  0  0
   -1.3077    1.5678    0.1397 C   0  0  0  0  0  0  0  0  0  0  0  0
   -0.5586    0.7342    2.4739 C   0  0  2  0  0  0  0  0  0  0  0  0
   -2.0778    1.1691   -1.1297 C   0  0  0  0  0  0  0  0  0  0  0  0
   -0.7199   -0.4736    3.4074 C   0  0  0  0  0  0  0  0  0  0  0  0
   -2.5642    2.1480   -3.2278 C   0  0  0  0  0  0  0  0  0  0  0  0
    0.0177   -2.0922    3.8955 H   0  0  0  0  0  0  0  0  0  0  0  0
   -0.8219    2.7759    2.6119 H   0  0  0  0  0  0  0  0  0  0  0  0
   -1.8303    1.9090    3.5732 H   0  0  0  0  0  0  0  0  0  0  0  0
   -4.1993    1.6078   -4.1877 H   0  0  0  0  0  0  0  0  0  0  0  0
   -3.7579    0.5723   -2.9566 H   0  0  0  0  0  0  0  0  0  0  0  0
   -1.6353    3.7080   -3.9344 H   0  0  0  0  0  0  0  0  0  0  0  0
   -2.3204    2.7295   -5.1017 H   0  0  0  0  0  0  0  0  0  0  0  0
   -1.2126   -0.4740    0.8178 H   0  0  0  0  0  0  0  0  0  0  0  0
   -2.5059    0.4525    1.5522 H   0  0  0  0  0  0  0  0  0  0  0  0
   -1.6807    2.5347    0.4977 H   0  0  0  0  0  0  0  0  0  0  0  0
   -0.2479    1.7051   -0.1058 H   0  0  0  0  0  0  0  0  0  0  0  0
    0.4936    0.7933    2.1734 H   0  0  0  0  0  0  0  0  0  0  0  0
   -1.6781    0.2261   -1.5168 H   0  0  0  0  0  0  0  0  0  0  0  0
   -3.1343    1.0253   -0.8806 H   0  0  0  0  0  0  0  0  0  0  0  0
  1 11  1  0  0  0  0
  1 13  1  0  0  0  0
  2 11  2  0  0  0  0
  3 14  1  0  0  0  0
  3 15  1  0  0  0  0
  4 10  1  0  0  0  0
  4 12  2  0  0  0  0
  5 12  1  0  0  0  0
  5 16  1  0  0  0  0
  5 17  1  0  0  0  0
  6 12  1  0  0  0  0
  6 18  1  0  0  0  0
  6 19  1  0  0  0  0
  7  8  1  0  0  0  0
  7  9  1  0  0  0  0
  7 20  1  0  0  0  0
  7 21  1  0  0  0  0
  8 10  1  0  0  0  0
  8 22  1  0  0  0  0
  8 23  1  0  0  0  0
  9  3  1  0  0  0  0
  9 11  1  0  0  0  0
  9 24  1  6  0  0  0
 10 25  1  0  0  0  0
 10 26  1  0  0  0  0
M  END
>  <Mol_ID>
9419

>  <Formula>
C6H14N4O2

>  <MolWeight>
174.20096

>  <Cat>
E0654

>  <Name>
D-Arginine

>  <Target>
Decarboxylase

>  <Form>
free base

>  <CAS>
157-06-2

>  <URL>
http://www.selleckchem.com/products/d-arginine.html

$$$$
