D-Cysteine
 OpenBabel08302521453D

 14 13  0  0  1  0  0  0  0  0999 V2000
    0.9303    0.0169    0.0856 C   0  0  1  0  0  0  0  0  0  0  0  0
    0.6251    1.4717   -0.2987 C   0  0  0  0  0  0  0  0  0  0  0  0
    0.5616   -0.2932    1.5412 C   0  0  0  0  0  0  0  0  0  0  0  0
    0.2872   -0.8856   -0.9188 N   0  0  0  0  0  0  0  0  0  0  0  0
    0.3468    1.5730   -1.6260 O   0  0  0  0  0  0  0  0  0  0  0  0
    0.6662    2.4307    0.4548 O   0  0  0  0  0  0  0  0  0  0  0  0
   -1.2325   -0.3047    1.8674 S   0  0  0  0  0  0  0  0  0  0  0  0
    2.0165   -0.0976   -0.0320 H   0  0  0  0  0  0  0  0  0  0  0  0
    0.9387   -1.2881    1.8013 H   0  0  0  0  0  0  0  0  0  0  0  0
    1.0323    0.4210    2.2248 H   0  0  0  0  0  0  0  0  0  0  0  0
    0.6052   -1.8407   -0.7287 H   0  0  0  0  0  0  0  0  0  0  0  0
   -0.7160   -0.9224   -0.6836 H   0  0  0  0  0  0  0  0  0  0  0  0
    0.3465    0.6465   -1.9807 H   0  0  0  0  0  0  0  0  0  0  0  0
   -1.3242    0.9884    2.2266 H   0  0  0  0  0  0  0  0  0  0  0  0
  1  4  1  0  0  0  0
  1  8  1  6  0  0  0
  1  3  1  0  0  0  0
  1  2  1  0  0  0  0
  2  5  1  0  0  0  0
  2  6  2  0  0  0  0
  3  7  1  0  0  0  0
  3  9  1  0  0  0  0
  3 10  1  0  0  0  0
  4 11  1  0  0  0  0
  4 12  1  0  0  0  0
  5 13  1  0  0  0  0
  7 14  1  0  0  0  0
M  END
>  <Mol_ID>
9506

>  <Formula>
C3H7NO2S

>  <MolWeight>
121.15818

>  <Cat>
E4227

>  <Name>
D-Cysteine

>  <Synonyms>
D-Cysteine

>  <Target>
Antibacterial; Endogenous Metabolite

>  <Form>
free base

>  <CAS>
921-01-7

>  <URL>
https://www.selleckchem.com/products/d-cysteine.html

$$$$
