D-Desthiobiotin
 OpenBabel08302521383D

 33 33  0  0  1  0  0  0  0  0999 V2000
    0.9579    0.0188    0.0340 C   0  0  0  0  0  0  0  0  0  0  0  0
    0.5109    1.4829   -0.0879 C   0  0  0  0  0  0  0  0  0  0  0  0
   -1.0170    1.6166   -0.0258 C   0  0  0  0  0  0  0  0  0  0  0  0
   -1.4539    3.0800   -0.1480 C   0  0  0  0  0  0  0  0  0  0  0  0
   -2.9763    3.2471   -0.0935 C   0  0  0  0  0  0  0  0  0  0  0  0
   -3.3771    4.7000   -0.2188 C   0  0  0  0  0  0  0  0  0  0  0  0
   -4.7195    4.8738   -0.1607 O   0  0  0  0  0  0  0  0  0  0  0  0
   -2.6076    5.6331   -0.3620 O   0  0  0  0  0  0  0  0  0  0  0  0
    2.1202   -2.6850   -0.5118 C   0  0  0  0  0  0  0  0  0  0  0  0
    3.7996   -0.3264    3.2358 O   0  0  0  0  0  0  0  0  0  0  0  0
    2.4898   -0.1411   -0.0134 C   0  0  2  0  0  0  0  0  0  0  0  0
    2.9873   -1.6022    0.1000 C   0  0  1  0  0  0  0  0  0  0  0  0
    3.0946    0.4445    1.1647 N   0  0  0  0  0  0  0  0  0  0  0  0
    3.1674   -1.7614    1.5266 N   0  0  0  0  0  0  0  0  0  0  0  0
    3.3930   -0.5242    2.1067 C   0  0  0  0  0  0  0  0  0  0  0  0
    0.5042   -0.5473   -0.7873 H   0  0  0  0  0  0  0  0  0  0  0  0
    0.5666   -0.3967    0.9716 H   0  0  0  0  0  0  0  0  0  0  0  0
    0.9557    2.0792    0.7171 H   0  0  0  0  0  0  0  0  0  0  0  0
    0.8775    1.8949   -1.0360 H   0  0  0  0  0  0  0  0  0  0  0  0
   -1.4702    1.0287   -0.8326 H   0  0  0  0  0  0  0  0  0  0  0  0
   -1.3820    1.2036    0.9223 H   0  0  0  0  0  0  0  0  0  0  0  0
   -0.9959    3.6662    0.6583 H   0  0  0  0  0  0  0  0  0  0  0  0
   -1.0763    3.4950   -1.0909 H   0  0  0  0  0  0  0  0  0  0  0  0
   -3.4393    2.6906   -0.9176 H   0  0  0  0  0  0  0  0  0  0  0  0
   -3.3579    2.8624    0.8585 H   0  0  0  0  0  0  0  0  0  0  0  0
   -5.2247    4.0480   -0.0445 H   0  0  0  0  0  0  0  0  0  0  0  0
    1.9690   -2.5001   -1.5802 H   0  0  0  0  0  0  0  0  0  0  0  0
    2.5982   -3.6650   -0.4040 H   0  0  0  0  0  0  0  0  0  0  0  0
    1.1425   -2.7524   -0.0247 H   0  0  0  0  0  0  0  0  0  0  0  0
    2.8996    0.3407   -0.9073 H   0  0  0  0  0  0  0  0  0  0  0  0
    3.9954   -1.6675   -0.3343 H   0  0  0  0  0  0  0  0  0  0  0  0
    3.1214    1.4256    1.4105 H   0  0  0  0  0  0  0  0  0  0  0  0
    3.5684   -2.5703    1.9808 H   0  0  0  0  0  0  0  0  0  0  0  0
  1  2  1  0  0  0  0
  1 16  1  0  0  0  0
  1 17  1  0  0  0  0
  2  3  1  0  0  0  0
  2 18  1  0  0  0  0
  2 19  1  0  0  0  0
  3  4  1  0  0  0  0
  3 20  1  0  0  0  0
  3 21  1  0  0  0  0
  4  5  1  0  0  0  0
  4 22  1  0  0  0  0
  4 23  1  0  0  0  0
  5  6  1  0  0  0  0
  5 24  1  0  0  0  0
  5 25  1  0  0  0  0
  6  7  1  0  0  0  0
  6  8  2  0  0  0  0
  7 26  1  0  0  0  0
  9 27  1  0  0  0  0
  9 28  1  0  0  0  0
  9 29  1  0  0  0  0
 10 15  2  0  0  0  0
 11  1  1  0  0  0  0
 11 12  1  0  0  0  0
 11 13  1  0  0  0  0
 11 30  1  6  0  0  0
 12  9  1  0  0  0  0
 12 14  1  0  0  0  0
 12 31  1  6  0  0  0
 13 15  1  0  0  0  0
 13 32  1  0  0  0  0
 14 15  1  0  0  0  0
 14 33  1  0  0  0  0
M  END
>  <Mol_ID>
7619

>  <Formula>
C10H18N2O3

>  <MolWeight>
214.26152

>  <Cat>
E2951

>  <Name>
D-Desthiobiotin

>  <Synonyms>
Dethiobiotin

>  <Target>
Others

>  <Form>
free base

>  <CAS>
533-48-2

>  <URL>
https://www.selleckchem.com/products/d-desthiobiotin.html

$$$$
