D-Glutamic acid
 OpenBabel08302521453D

 19 18  0  0  1  0  0  0  0  0999 V2000
    0.9963    0.1406   -0.0824 C   0  0  2  0  0  0  0  0  0  0  0  0
    0.3960    0.1575    1.3283 C   0  0  0  0  0  0  0  0  0  0  0  0
    0.2403   -0.8572   -0.9780 C   0  0  0  0  0  0  0  0  0  0  0  0
    2.4402   -0.2348   -0.0726 N   0  0  0  0  0  0  0  0  0  0  0  0
    1.0493    1.1956    2.2336 C   0  0  0  0  0  0  0  0  0  0  0  0
    1.0984   -1.7032   -1.6087 O   0  0  0  0  0  0  0  0  0  0  0  0
   -0.9694   -0.8839   -1.1352 O   0  0  0  0  0  0  0  0  0  0  0  0
    0.4701    1.1323    3.6228 C   0  0  0  0  0  0  0  0  0  0  0  0
   -0.5702    1.9688    3.8159 O   0  0  0  0  0  0  0  0  0  0  0  0
    0.8860    0.3814    4.4903 O   0  0  0  0  0  0  0  0  0  0  0  0
    0.9024    1.1221   -0.5611 H   0  0  0  0  0  0  0  0  0  0  0  0
   -0.6815    0.3614    1.2663 H   0  0  0  0  0  0  0  0  0  0  0  0
    0.4765   -0.8397    1.7808 H   0  0  0  0  0  0  0  0  0  0  0  0
    2.9895    0.6028    0.1410 H   0  0  0  0  0  0  0  0  0  0  0  0
    2.6147   -0.8610    0.7224 H   0  0  0  0  0  0  0  0  0  0  0  0
    2.1273    1.0206    2.3311 H   0  0  0  0  0  0  0  0  0  0  0  0
    0.9389    2.2066    1.8281 H   0  0  0  0  0  0  0  0  0  0  0  0
    2.0037   -1.4268   -1.3179 H   0  0  0  0  0  0  0  0  0  0  0  0
   -0.8192    2.5042    3.0394 H   0  0  0  0  0  0  0  0  0  0  0  0
  1  2  1  0  0  0  0
  1  3  1  0  0  0  0
  1  4  1  0  0  0  0
  1 11  1  6  0  0  0
  2  5  1  0  0  0  0
  2 12  1  0  0  0  0
  2 13  1  0  0  0  0
  3  6  1  0  0  0  0
  3  7  2  0  0  0  0
  4 14  1  0  0  0  0
  4 15  1  0  0  0  0
  5  8  1  0  0  0  0
  5 16  1  0  0  0  0
  5 17  1  0  0  0  0
  6 18  1  0  0  0  0
  8  9  1  0  0  0  0
  8 10  2  0  0  0  0
  9 19  1  0  0  0  0
M  END
>  <Mol_ID>
9522

>  <Formula>
C5H9NO4

>  <MolWeight>
147.12926

>  <Cat>
E4350

>  <Name>
D-Glutamic acid

>  <Synonyms>
D-Glutamic acid

>  <Target>
Endogenous Metabolite

>  <Form>
free base

>  <CAS>
6893-26-1

>  <URL>
https://www.selleckchem.com/products/d-glutamic-acid.html

$$$$
