¦Á-D-Glucose anhydrous
 OpenBabel08302520383D

 24 24  0  0  0  0  0  0  0  0999 V2000
   -0.6643   -1.7442   -0.0586 C   0  0  2  0  0  0  0  0  0  0  0  0
   -1.4415   -0.4260   -0.1890 C   0  0  2  0  0  0  0  0  0  0  0  0
    0.6017   -1.6928   -0.7280 O   0  0  0  0  0  0  0  0  0  0  0  0
   -1.4782   -2.9021   -0.6651 C   0  0  0  0  0  0  0  0  0  0  0  0
   -0.5783    0.7675    0.2408 C   0  0  1  0  0  0  0  0  0  0  0  0
   -2.6205   -0.4993    0.6211 O   0  0  0  0  0  0  0  0  0  0  0  0
    1.4456   -0.6311   -0.2901 C   0  0  1  0  0  0  0  0  0  0  0  0
   -0.7704   -4.1257   -0.5177 O   0  0  0  0  0  0  0  0  0  0  0  0
    0.7778    0.7464   -0.4684 C   0  0  2  0  0  0  0  0  0  0  0  0
   -1.3129    1.9749   -0.0194 O   0  0  0  0  0  0  0  0  0  0  0  0
    1.9052   -0.8359    1.0357 O   0  0  0  0  0  0  0  0  0  0  0  0
    1.6084    1.8008    0.0288 O   0  0  0  0  0  0  0  0  0  0  0  0
   -0.4894   -1.9857    0.9986 H   0  0  0  0  0  0  0  0  0  0  0  0
   -1.7650   -0.2720   -1.2264 H   0  0  0  0  0  0  0  0  0  0  0  0
   -2.4460   -3.0106   -0.1674 H   0  0  0  0  0  0  0  0  0  0  0  0
   -1.6511   -2.7441   -1.7303 H   0  0  0  0  0  0  0  0  0  0  0  0
   -0.4373    0.7567    1.3278 H   0  0  0  0  0  0  0  0  0  0  0  0
   -2.7175    0.3575    1.0864 H   0  0  0  0  0  0  0  0  0  0  0  0
    2.3420   -0.6597   -0.9181 H   0  0  0  0  0  0  0  0  0  0  0  0
    0.1229   -3.9609   -0.8777 H   0  0  0  0  0  0  0  0  0  0  0  0
    0.6196    0.9398   -1.5371 H   0  0  0  0  0  0  0  0  0  0  0  0
   -1.0142    2.3438   -0.8688 H   0  0  0  0  0  0  0  0  0  0  0  0
    1.1763   -0.6981    1.6624 H   0  0  0  0  0  0  0  0  0  0  0  0
    2.1091    1.4534    0.7890 H   0  0  0  0  0  0  0  0  0  0  0  0
  1  2  1  0  0  0  0
  1  3  1  0  0  0  0
  1 13  1  1  0  0  0
  1  4  1  0  0  0  0
  2  5  1  0  0  0  0
  2  6  1  0  0  0  0
  2 14  1  6  0  0  0
  3  7  1  0  0  0  0
  4  8  1  0  0  0  0
  4 15  1  0  0  0  0
  4 16  1  0  0  0  0
  5  9  1  0  0  0  0
  5 10  1  0  0  0  0
  5 17  1  1  0  0  0
  6 18  1  0  0  0  0
  7 11  1  0  0  0  0
  7  9  1  0  0  0  0
  7 19  1  6  0  0  0
  8 20  1  0  0  0  0
  9 12  1  0  0  0  0
  9 21  1  6  0  0  0
 10 22  1  0  0  0  0
 11 23  1  0  0  0  0
 12 24  1  0  0  0  0
M  END
>  <Mol_ID>
3517

>  <Formula>
C6H12O6

>  <MolWeight>
180.15588

>  <Cat>
S6028

>  <Name>
¦Á-D-Glucose anhydrous

>  <Synonyms>
N/A

>  <Target>
Others

>  <Form>
free base

>  <CAS>
492-62-6

>  <URL>
http://www.selleck.cn/products/a-d-glucose-anhydrous.html

$$$$
