D-glutamine.cdx
 OpenBabel08302520413D

 20 19  0  0  0  0  0  0  0  0999 V2000
   -5.0968    3.1550    1.4851 N   0  0  0  0  0  0  0  0  0  0  0  0
   -3.9560    3.3050    2.2165 C   0  0  0  0  0  0  0  0  0  0  0  0
   -3.1195    2.0476    2.3380 C   0  0  0  0  0  0  0  0  0  0  0  0
   -1.8182    2.3140    3.1013 C   0  0  0  0  0  0  0  0  0  0  0  0
   -0.9334    1.0820    3.3254 C   0  0  2  0  0  0  0  0  0  0  0  0
   -0.4155    0.5333    1.9924 C   0  0  0  0  0  0  0  0  0  0  0  0
   -0.9346   -0.3416    1.3151 O   0  0  0  0  0  0  0  0  0  0  0  0
    0.6962    1.1624    1.5639 O   0  0  0  0  0  0  0  0  0  0  0  0
   -3.6786    4.3789    2.7350 O   0  0  0  0  0  0  0  0  0  0  0  0
   -1.6179    0.0177    4.0852 N   0  0  0  0  0  0  0  0  0  0  0  0
   -5.2730    2.3454    0.9069 H   0  0  0  0  0  0  0  0  0  0  0  0
   -5.6635    3.9813    1.3417 H   0  0  0  0  0  0  0  0  0  0  0  0
   -3.7266    1.2973    2.8569 H   0  0  0  0  0  0  0  0  0  0  0  0
   -2.9040    1.6816    1.3284 H   0  0  0  0  0  0  0  0  0  0  0  0
   -1.2419    3.0736    2.5560 H   0  0  0  0  0  0  0  0  0  0  0  0
   -2.0567    2.7580    4.0768 H   0  0  0  0  0  0  0  0  0  0  0  0
   -0.0592    1.3746    3.9190 H   0  0  0  0  0  0  0  0  0  0  0  0
    0.9238    0.7048    0.7278 H   0  0  0  0  0  0  0  0  0  0  0  0
   -2.1321    0.4237    4.8648 H   0  0  0  0  0  0  0  0  0  0  0  0
   -2.2977   -0.4463    3.4810 H   0  0  0  0  0  0  0  0  0  0  0  0
  1  2  1  0  0  0  0
  1 11  1  0  0  0  0
  1 12  1  0  0  0  0
  2  3  1  0  0  0  0
  2  9  2  0  0  0  0
  3  4  1  0  0  0  0
  3 13  1  0  0  0  0
  3 14  1  0  0  0  0
  4 15  1  0  0  0  0
  4 16  1  0  0  0  0
  5 10  1  0  0  0  0
  5 17  1  1  0  0  0
  5  6  1  0  0  0  0
  5  4  1  0  0  0  0
  6  7  2  0  0  0  0
  6  8  1  0  0  0  0
  8 18  1  0  0  0  0
 10 19  1  0  0  0  0
 10 20  1  0  0  0  0
M  END
>  <Mol_ID>
3998

>  <Formula>
C5H10N2O3

>  <MolWeight>
146.1445

>  <Cat>
S1893

>  <Name>
D-glutamine

>  <Synonyms>
N/A

>  <Target>
GluR

>  <Form>
free base

>  <CAS>
5959-95-5

>  <URL>
http://selleckchem.com/products/D-glutamine.html

$$$$
