D-Glucuronic acid
 OpenBabel08302520393D

 23 22  0  0  0  0  0  0  0  0999 V2000
    0.8734   -4.9783    2.8310 O   0  0  0  0  0  0  0  0  0  0  0  0
    1.9890   -4.8706    3.3316 C   0  0  0  0  0  0  0  0  0  0  0  0
    2.6253   -3.5243    3.6263 C   0  0  2  0  0  0  0  0  0  0  0  0
    1.6010   -2.5312    3.8050 O   0  0  0  0  0  0  0  0  0  0  0  0
    3.5117   -3.0542    2.4645 C   0  0  1  0  0  0  0  0  0  0  0  0
    4.0622   -1.7786    2.8367 O   0  0  0  0  0  0  0  0  0  0  0  0
    4.6455   -4.0425    2.1152 C   0  0  2  0  0  0  0  0  0  0  0  0
    5.4672   -4.2140    3.2818 O   0  0  0  0  0  0  0  0  0  0  0  0
    5.5387   -3.6226    0.9278 C   0  0  2  0  0  0  0  0  0  0  0  0
    6.3406   -2.4950    1.2731 O   0  0  0  0  0  0  0  0  0  0  0  0
    4.6821   -3.4436   -0.3249 C   0  0  0  0  0  0  0  0  0  0  0  0
    3.6485   -4.0392   -0.5883 O   0  0  0  0  0  0  0  0  0  0  0  0
    5.1984   -2.5536   -1.1941 O   0  0  0  0  0  0  0  0  0  0  0  0
    2.6057   -5.7561    3.5659 H   0  0  0  0  0  0  0  0  0  0  0  0
    3.1730   -3.5826    4.5696 H   0  0  0  0  0  0  0  0  0  0  0  0
    0.8830   -2.7655    3.1802 H   0  0  0  0  0  0  0  0  0  0  0  0
    2.8799   -2.8708    1.5885 H   0  0  0  0  0  0  0  0  0  0  0  0
    3.3296   -1.2833    3.2578 H   0  0  0  0  0  0  0  0  0  0  0  0
    4.2133   -5.0227    1.8819 H   0  0  0  0  0  0  0  0  0  0  0  0
    5.9076   -3.3407    3.3867 H   0  0  0  0  0  0  0  0  0  0  0  0
    6.2459   -4.4327    0.7159 H   0  0  0  0  0  0  0  0  0  0  0  0
    6.7689   -2.2004    0.4477 H   0  0  0  0  0  0  0  0  0  0  0  0
    4.5460   -2.5236   -1.9271 H   0  0  0  0  0  0  0  0  0  0  0  0
  1  2  2  0  0  0  0
  2 14  1  0  0  0  0
  3  5  1  0  0  0  0
  3 15  1  1  0  0  0
  3  4  1  0  0  0  0
  3  2  1  0  0  0  0
  4 16  1  0  0  0  0
  5  6  1  0  0  0  0
  5 17  1  6  0  0  0
  6 18  1  0  0  0  0
  7 19  1  6  0  0  0
  7  8  1  0  0  0  0
  7  5  1  0  0  0  0
  8 20  1  0  0  0  0
  9 11  1  0  0  0  0
  9 21  1  6  0  0  0
  9 10  1  0  0  0  0
  9  7  1  0  0  0  0
 10 22  1  0  0  0  0
 11 12  2  0  0  0  0
 11 13  1  0  0  0  0
 13 23  1  0  0  0  0
M  END
>  <Mol_ID>
3672

>  <Formula>
C6H10O7

>  <MolWeight>
194.1394

>  <Cat>
S6343

>  <Name>
D-Glucuronic acid

>  <Synonyms>
D-Glucopyranuronic Acid

>  <Target>
Others

>  <Form>
free base

>  <CAS>
6556-12-3

>  <URL>
http://www.selleck.cn/products/d-glucuronic-acid.html

$$$$
