D-Gulonic acid ¦Ã-lactone
 OpenBabel08302521303D

 22 22  0  0  0  0  0  0  0  0999 V2000
   -0.0212    0.7214    0.6600 C   0  0  1  0  0  0  0  0  0  0  0  0
   -1.0727   -0.1262   -0.0481 C   0  0  0  0  0  0  0  0  0  0  0  0
   -0.5892   -1.3930   -0.2339 O   0  0  0  0  0  0  0  0  0  0  0  0
    0.7227   -1.5010    0.3516 C   0  0  2  0  0  0  0  0  0  0  0  0
    1.2361   -0.0698    0.3331 C   0  0  1  0  0  0  0  0  0  0  0  0
    1.5752   -2.5033   -0.4436 C   0  0  1  0  0  0  0  0  0  0  0  0
    2.9953   -2.6477    0.1121 C   0  0  0  0  0  0  0  0  0  0  0  0
    2.9205   -3.1253    1.4585 O   0  0  0  0  0  0  0  0  0  0  0  0
   -2.1631    0.2475   -0.4357 O   0  0  0  0  0  0  0  0  0  0  0  0
    0.0958    2.0765    0.2840 O   0  0  0  0  0  0  0  0  0  0  0  0
    1.7448    0.3167   -0.9538 O   0  0  0  0  0  0  0  0  0  0  0  0
    0.9445   -3.7939   -0.3865 O   0  0  0  0  0  0  0  0  0  0  0  0
   -0.2420    0.6760    1.7330 H   0  0  0  0  0  0  0  0  0  0  0  0
    0.5706   -1.8587    1.3786 H   0  0  0  0  0  0  0  0  0  0  0  0
    2.0346    0.1075    1.0595 H   0  0  0  0  0  0  0  0  0  0  0  0
    1.6078   -2.2270   -1.5021 H   0  0  0  0  0  0  0  0  0  0  0  0
    3.5431   -3.4047   -0.4594 H   0  0  0  0  0  0  0  0  0  0  0  0
    3.5637   -1.7135    0.0834 H   0  0  0  0  0  0  0  0  0  0  0  0
    2.9927   -2.3623    2.0577 H   0  0  0  0  0  0  0  0  0  0  0  0
    0.4639    2.0944   -0.6207 H   0  0  0  0  0  0  0  0  0  0  0  0
    1.1195    0.0338   -1.6499 H   0  0  0  0  0  0  0  0  0  0  0  0
    1.2563   -4.2200    0.4361 H   0  0  0  0  0  0  0  0  0  0  0  0
  1  2  1  0  0  0  0
  1 10  1  0  0  0  0
  1 13  1  1  0  0  0
  2  3  1  0  0  0  0
  2  9  2  0  0  0  0
  4  3  1  0  0  0  0
  4  5  1  0  0  0  0
  4  6  1  0  0  0  0
  4 14  1  1  0  0  0
  5  1  1  0  0  0  0
  5 11  1  0  0  0  0
  5 15  1  1  0  0  0
  6  7  1  0  0  0  0
  6 12  1  0  0  0  0
  6 16  1  6  0  0  0
  7  8  1  0  0  0  0
  7 17  1  0  0  0  0
  7 18  1  0  0  0  0
  8 19  1  0  0  0  0
 10 20  1  0  0  0  0
 11 21  1  0  0  0  0
 12 22  1  0  0  0  0
M  END
>  <Mol_ID>
5514

>  <Formula>
C6H10O6

>  <MolWeight>
178.14

>  <Cat>
S3362

>  <Name>
D-Gulonic acid ¦Ã-lactone

>  <Synonyms>
Gulonolactone, D-Gulono-1,4-lactone, 1,4-D-Gulonolactone

>  <Target>
Others

>  <Form>
Free Base

>  <CAS>
6322-07-2

>  <URL>
https://www.selleckchem.com/products/d-gulonic-acid-r-lactone.html

$$$$
