D-I03
 OpenBabel08302521353D

 66 68  0  0  0  0  0  0  0  0999 V2000
    0.9300    1.0841   -1.4937 S   0  0  0  0  0  0  0  0  0  0  0  0
   13.6839   -0.6116   -1.9709 N   0  0  0  0  0  0  0  0  0  0  0  0
   11.0711   -0.5377   -0.6112 N   0  0  0  0  0  0  0  0  0  0  0  0
    8.9583    0.2039   -1.3187 N   0  0  0  0  0  0  0  0  0  0  0  0
    4.0701    5.5558   -1.9068 N   0  0  0  0  0  0  0  0  0  0  0  0
    3.4072    0.3514   -1.1666 N   0  0  0  0  0  0  0  0  0  0  0  0
    3.0965    2.6817   -1.2846 N   0  0  0  0  0  0  0  0  0  0  0  0
   12.7703    0.5515   -2.1063 C   0  0  0  0  0  0  0  0  0  0  0  0
   12.8369   -1.8120   -1.8340 C   0  0  0  0  0  0  0  0  0  0  0  0
   11.7260    0.7215   -0.9782 C   0  0  0  0  0  0  0  0  0  0  0  0
   11.8310   -1.7865   -0.6669 C   0  0  0  0  0  0  0  0  0  0  0  0
   14.6241   -0.4157   -0.8576 C   0  0  0  0  0  0  0  0  0  0  0  0
    9.6969   -0.6059   -0.5424 C   0  0  0  0  0  0  0  0  0  0  0  0
    9.0808   -1.5162    0.3076 C   0  0  0  0  0  0  0  0  0  0  0  0
   15.6130   -1.5644   -0.6788 C   0  0  0  0  0  0  0  0  0  0  0  0
    7.6899   -1.6552    0.3401 C   0  0  0  0  0  0  0  0  0  0  0  0
    6.9095   -0.7742   -0.4521 C   0  0  0  0  0  0  0  0  0  0  0  0
    7.6226    0.1182   -1.2769 C   0  0  0  0  0  0  0  0  0  0  0  0
    5.4855   -0.7040   -0.4634 C   0  0  0  0  0  0  0  0  0  0  0  0
    7.1371   -2.7437    1.2159 C   0  0  0  0  0  0  0  0  0  0  0  0
    6.9292    0.9696   -2.1218 C   0  0  0  0  0  0  0  0  0  0  0  0
    4.8087    0.2440   -1.2421 C   0  0  0  0  0  0  0  0  0  0  0  0
    3.2317    5.1433   -0.7583 C   0  0  0  0  0  0  0  0  0  0  0  0
    5.5409    1.0404   -2.1193 C   0  0  0  0  0  0  0  0  0  0  0  0
    2.3407    3.9023   -0.9848 C   0  0  0  0  0  0  0  0  0  0  0  0
    3.2803    5.8766   -3.1132 C   0  0  0  0  0  0  0  0  0  0  0  0
    4.9815    6.6654   -1.5681 C   0  0  0  0  0  0  0  0  0  0  0  0
    2.5679    1.4195   -1.3608 C   0  0  0  0  0  0  0  0  0  0  0  0
    2.3102    7.0577   -3.0192 C   0  0  0  0  0  0  0  0  0  0  0  0
    6.0572    6.2856   -0.5532 C   0  0  0  0  0  0  0  0  0  0  0  0
    2.9131   -0.4804   -0.8637 H   0  0  0  0  0  0  0  0  0  0  0  0
    4.0978    2.8042   -1.3208 H   0  0  0  0  0  0  0  0  0  0  0  0
   13.3560    1.4744   -2.2026 H   0  0  0  0  0  0  0  0  0  0  0  0
   12.2335    0.4477   -3.0587 H   0  0  0  0  0  0  0  0  0  0  0  0
   12.2721   -1.9285   -2.7696 H   0  0  0  0  0  0  0  0  0  0  0  0
   13.4479   -2.7187   -1.7676 H   0  0  0  0  0  0  0  0  0  0  0  0
   12.2248    1.1131   -0.0824 H   0  0  0  0  0  0  0  0  0  0  0  0
   11.0156    1.5006   -1.2833 H   0  0  0  0  0  0  0  0  0  0  0  0
   12.3459   -1.9328    0.2890 H   0  0  0  0  0  0  0  0  0  0  0  0
   11.1708   -2.6518   -0.8104 H   0  0  0  0  0  0  0  0  0  0  0  0
   15.2146    0.4853   -1.0658 H   0  0  0  0  0  0  0  0  0  0  0  0
   14.1116   -0.2445    0.0956 H   0  0  0  0  0  0  0  0  0  0  0  0
    9.7023   -2.1204    0.9656 H   0  0  0  0  0  0  0  0  0  0  0  0
   16.1169   -1.8084   -1.6195 H   0  0  0  0  0  0  0  0  0  0  0  0
   16.3805   -1.2831    0.0501 H   0  0  0  0  0  0  0  0  0  0  0  0
   15.1225   -2.4666   -0.3002 H   0  0  0  0  0  0  0  0  0  0  0  0
    4.9105   -1.3556    0.1933 H   0  0  0  0  0  0  0  0  0  0  0  0
    6.6603   -2.3316    2.1080 H   0  0  0  0  0  0  0  0  0  0  0  0
    6.4345   -3.3713    0.6605 H   0  0  0  0  0  0  0  0  0  0  0  0
    7.9405   -3.4146    1.5532 H   0  0  0  0  0  0  0  0  0  0  0  0
    7.4898    1.5959   -2.8099 H   0  0  0  0  0  0  0  0  0  0  0  0
    2.6043    5.9779   -0.4208 H   0  0  0  0  0  0  0  0  0  0  0  0
    3.8859    4.8956    0.0861 H   0  0  0  0  0  0  0  0  0  0  0  0
    5.0482    1.6889   -2.8401 H   0  0  0  0  0  0  0  0  0  0  0  0
    1.6043    4.0724   -1.7756 H   0  0  0  0  0  0  0  0  0  0  0  0
    1.7830    3.7149   -0.0589 H   0  0  0  0  0  0  0  0  0  0  0  0
    3.9709    6.0731   -3.9435 H   0  0  0  0  0  0  0  0  0  0  0  0
    2.7246    4.9892   -3.4300 H   0  0  0  0  0  0  0  0  0  0  0  0
    5.5112    6.9816   -2.4763 H   0  0  0  0  0  0  0  0  0  0  0  0
    4.4297    7.5392   -1.2001 H   0  0  0  0  0  0  0  0  0  0  0  0
    2.8437    8.0135   -3.0100 H   0  0  0  0  0  0  0  0  0  0  0  0
    1.6487    7.0596   -3.8927 H   0  0  0  0  0  0  0  0  0  0  0  0
    1.6705    7.0102   -2.1339 H   0  0  0  0  0  0  0  0  0  0  0  0
    6.6062    5.3941   -0.8736 H   0  0  0  0  0  0  0  0  0  0  0  0
    6.7782    7.1040   -0.4511 H   0  0  0  0  0  0  0  0  0  0  0  0
    5.6395    6.1006    0.4406 H   0  0  0  0  0  0  0  0  0  0  0  0
  1 28  2  0  0  0  0
  2  8  1  0  0  0  0
  2  9  1  0  0  0  0
  2 12  1  0  0  0  0
  3 10  1  0  0  0  0
  3 11  1  0  0  0  0
  3 13  1  0  0  0  0
  4 13  2  0  0  0  0
  4 18  1  0  0  0  0
  5 23  1  0  0  0  0
  5 26  1  0  0  0  0
  5 27  1  0  0  0  0
  6 22  1  0  0  0  0
  6 28  1  0  0  0  0
  6 31  1  0  0  0  0
  7 25  1  0  0  0  0
  7 28  1  0  0  0  0
  7 32  1  0  0  0  0
  8 10  1  0  0  0  0
  8 33  1  0  0  0  0
  8 34  1  0  0  0  0
  9 11  1  0  0  0  0
  9 35  1  0  0  0  0
  9 36  1  0  0  0  0
 10 37  1  0  0  0  0
 10 38  1  0  0  0  0
 11 39  1  0  0  0  0
 11 40  1  0  0  0  0
 12 15  1  0  0  0  0
 12 41  1  0  0  0  0
 12 42  1  0  0  0  0
 13 14  1  0  0  0  0
 14 16  2  0  0  0  0
 14 43  1  0  0  0  0
 15 44  1  0  0  0  0
 15 45  1  0  0  0  0
 15 46  1  0  0  0  0
 16 17  1  0  0  0  0
 16 20  1  0  0  0  0
 17 18  2  0  0  0  0
 17 19  1  0  0  0  0
 18 21  1  0  0  0  0
 19 22  2  0  0  0  0
 19 47  1  0  0  0  0
 20 48  1  0  0  0  0
 20 49  1  0  0  0  0
 20 50  1  0  0  0  0
 21 24  2  0  0  0  0
 21 51  1  0  0  0  0
 22 24  1  0  0  0  0
 23 25  1  0  0  0  0
 23 52  1  0  0  0  0
 23 53  1  0  0  0  0
 24 54  1  0  0  0  0
 25 55  1  0  0  0  0
 25 56  1  0  0  0  0
 26 29  1  0  0  0  0
 26 57  1  0  0  0  0
 26 58  1  0  0  0  0
 27 30  1  0  0  0  0
 27 59  1  0  0  0  0
 27 60  1  0  0  0  0
 29 61  1  0  0  0  0
 29 62  1  0  0  0  0
 29 63  1  0  0  0  0
 30 64  1  0  0  0  0
 30 65  1  0  0  0  0
 30 66  1  0  0  0  0
M  END
>  <Mol_ID>
6613

>  <Formula>
C23H36N6S

>  <MolWeight>
428.63714

>  <Cat>
S0054

>  <Name>
D-I03

>  <Synonyms>
N/A

>  <Target>
DNA/RNA Synthesis

>  <Form>
Free base

>  <CAS>
688342-78-1

>  <URL>
http://www.selleckchem.com/products/d-i03.html

$$$$
