D-Isoleucine
 OpenBabel08302521453D

 22 21  0  0  1  0  0  0  0  0999 V2000
    0.9771    0.1864    0.1132 C   0  0  2  0  0  0  0  0  0  0  0  0
    0.4592   -1.0199   -0.7127 C   0  0  1  0  0  0  0  0  0  0  0  0
    0.3882    1.5484   -0.3304 C   0  0  0  0  0  0  0  0  0  0  0  0
    2.4718    0.2882   -0.0083 N   0  0  0  0  0  0  0  0  0  0  0  0
    1.0346   -2.3867   -0.2583 C   0  0  0  0  0  0  0  0  0  0  0  0
   -1.0737   -1.1002   -0.7749 C   0  0  0  0  0  0  0  0  0  0  0  0
    1.3692    2.4210   -0.6860 O   0  0  0  0  0  0  0  0  0  0  0  0
   -0.7961    1.8483   -0.3428 O   0  0  0  0  0  0  0  0  0  0  0  0
    0.8028   -2.7634    1.1950 C   0  0  0  0  0  0  0  0  0  0  0  0
    0.7337    0.0789    1.1774 H   0  0  0  0  0  0  0  0  0  0  0  0
    0.7850   -0.8752   -1.7536 H   0  0  0  0  0  0  0  0  0  0  0  0
    2.8810   -0.4066    0.6261 H   0  0  0  0  0  0  0  0  0  0  0  0
    2.7418   -0.0432   -0.9417 H   0  0  0  0  0  0  0  0  0  0  0  0
    0.5968   -3.1703   -0.8910 H   0  0  0  0  0  0  0  0  0  0  0  0
    2.1119   -2.4196   -0.4604 H   0  0  0  0  0  0  0  0  0  0  0  0
   -1.4885   -0.2717   -1.3579 H   0  0  0  0  0  0  0  0  0  0  0  0
   -1.3935   -2.0174   -1.2836 H   0  0  0  0  0  0  0  0  0  0  0  0
   -1.5286   -1.0837    0.2200 H   0  0  0  0  0  0  0  0  0  0  0  0
    2.2190    1.9517   -0.4889 H   0  0  0  0  0  0  0  0  0  0  0  0
   -0.2131   -2.5388    1.5329 H   0  0  0  0  0  0  0  0  0  0  0  0
    0.9626   -3.8406    1.3291 H   0  0  0  0  0  0  0  0  0  0  0  0
    1.5087   -2.2486    1.8564 H   0  0  0  0  0  0  0  0  0  0  0  0
  1  2  1  0  0  0  0
  1  3  1  0  0  0  0
  1  4  1  0  0  0  0
  1 10  1  1  0  0  0
  2  5  1  0  0  0  0
  2  6  1  0  0  0  0
  2 11  1  6  0  0  0
  3  7  1  0  0  0  0
  3  8  2  0  0  0  0
  4 12  1  0  0  0  0
  4 13  1  0  0  0  0
  5  9  1  0  0  0  0
  5 14  1  0  0  0  0
  5 15  1  0  0  0  0
  6 16  1  0  0  0  0
  6 17  1  0  0  0  0
  6 18  1  0  0  0  0
  7 19  1  0  0  0  0
  9 20  1  0  0  0  0
  9 21  1  0  0  0  0
  9 22  1  0  0  0  0
M  END
>  <Mol_ID>
9539

>  <Formula>
C6H13NO2

>  <MolWeight>
131.17292

>  <Cat>
E4567

>  <Name>
D-Isoleucine

>  <Synonyms>
D-Isoleucine

>  <Target>
Others

>  <Form>
free base

>  <CAS>
319-78-8

>  <URL>
https://www.selleckchem.com/products/d-isoleucine.html

$$$$
