D-Leucine
 OpenBabel08302521453D

 22 21  0  0  1  0  0  0  0  0999 V2000
    1.0880   -0.0660    0.1320 C   0  0  2  0  0  0  0  0  0  0  0  0
    0.4841    0.4265   -1.1909 C   0  0  0  0  0  0  0  0  0  0  0  0
    0.4391    0.6710    1.3225 C   0  0  0  0  0  0  0  0  0  0  0  0
    2.5638    0.1746    0.1835 N   0  0  0  0  0  0  0  0  0  0  0  0
    1.0235   -0.2624   -2.4623 C   0  0  0  0  0  0  0  0  0  0  0  0
    1.3819    1.2108    2.1397 O   0  0  0  0  0  0  0  0  0  0  0  0
   -0.7618    0.7602    1.5331 O   0  0  0  0  0  0  0  0  0  0  0  0
    0.7716   -1.7711   -2.4622 C   0  0  0  0  0  0  0  0  0  0  0  0
    0.3857    0.3704   -3.7024 C   0  0  0  0  0  0  0  0  0  0  0  0
    0.9057   -1.1316    0.2937 H   0  0  0  0  0  0  0  0  0  0  0  0
   -0.6072    0.3045   -1.1521 H   0  0  0  0  0  0  0  0  0  0  0  0
    0.6520    1.5091   -1.2773 H   0  0  0  0  0  0  0  0  0  0  0  0
    3.0145   -0.5861   -0.3357 H   0  0  0  0  0  0  0  0  0  0  0  0
    2.7729    1.0097   -0.3741 H   0  0  0  0  0  0  0  0  0  0  0  0
    2.1051   -0.0965   -2.5362 H   0  0  0  0  0  0  0  0  0  0  0  0
    2.2517    0.9500    1.7406 H   0  0  0  0  0  0  0  0  0  0  0  0
   -0.2512   -2.0066   -2.1498 H   0  0  0  0  0  0  0  0  0  0  0  0
    0.9248   -2.1971   -3.4599 H   0  0  0  0  0  0  0  0  0  0  0  0
    1.4622   -2.2812   -1.7829 H   0  0  0  0  0  0  0  0  0  0  0  0
    0.6111    1.4411   -3.7505 H   0  0  0  0  0  0  0  0  0  0  0  0
    0.7715   -0.0901   -4.6177 H   0  0  0  0  0  0  0  0  0  0  0  0
   -0.7043    0.2506   -3.6952 H   0  0  0  0  0  0  0  0  0  0  0  0
  1  2  1  0  0  0  0
  1  3  1  0  0  0  0
  1  4  1  0  0  0  0
  1 10  1  1  0  0  0
  2  5  1  0  0  0  0
  2 11  1  0  0  0  0
  2 12  1  0  0  0  0
  3  6  1  0  0  0  0
  3  7  2  0  0  0  0
  4 13  1  0  0  0  0
  4 14  1  0  0  0  0
  5  8  1  0  0  0  0
  5  9  1  0  0  0  0
  5 15  1  0  0  0  0
  6 16  1  0  0  0  0
  8 17  1  0  0  0  0
  8 18  1  0  0  0  0
  8 19  1  0  0  0  0
  9 20  1  0  0  0  0
  9 21  1  0  0  0  0
  9 22  1  0  0  0  0
M  END
>  <Mol_ID>
9511

>  <Formula>
C6H13NO2

>  <MolWeight>
131.17292

>  <Cat>
E4264

>  <Name>
D-Leucine

>  <Synonyms>
D-Leucine

>  <Target>
Endogenous Metabolite

>  <Form>
free base

>  <CAS>
328-38-1

>  <URL>
https://www.selleckchem.com/products/d-leucine.html

$$$$
