D-Luciferin sodium salt
 OpenBabel08302521303D

 26 28  0  0  0  0  0  0  0  0999 V2000
   -2.0697    0.2430    0.0126 C   0  0  0  0  0  0  0  0  0  0  0  0
   -1.9839   -1.1433   -0.0065 C   0  0  0  0  0  0  0  0  0  0  0  0
   -0.7295   -1.7618   -0.0161 C   0  0  0  0  0  0  0  0  0  0  0  0
    0.4445   -0.9710   -0.0067 C   0  0  0  0  0  0  0  0  0  0  0  0
    0.3192    0.4195    0.0185 C   0  0  0  0  0  0  0  0  0  0  0  0
   -0.9345    1.0520    0.0293 C   0  0  0  0  0  0  0  0  0  0  0  0
    1.7370   -1.4509   -0.0324 N   0  0  0  0  0  0  0  0  0  0  0  0
    2.5932   -0.4490   -0.0348 C   0  0  0  0  0  0  0  0  0  0  0  0
    1.8931    1.1171    0.0302 S   0  0  0  0  0  0  0  0  0  0  0  0
   -3.2828    0.8700    0.0152 O   0  0  0  0  0  0  0  0  0  0  0  0
    4.0314   -0.6150   -0.1000 C   0  0  0  0  0  0  0  0  0  0  0  0
    4.6481   -2.2417   -0.2775 S   0  0  0  0  0  0  0  0  0  0  0  0
    6.3098   -1.6908    0.1220 C   0  0  0  0  0  0  0  0  0  0  0  0
    6.2772   -0.2069   -0.1938 C   0  0  1  0  0  0  0  0  0  0  0  0
    4.8971    0.3531   -0.0344 N   0  0  0  0  0  0  0  0  0  0  0  0
    7.2027    0.5555    0.7454 C   0  0  0  0  0  0  0  0  0  0  0  0
    6.7223    1.7892    1.0427 O   0  0  0  0  0  0  0  0  0  0  0  0
    8.2685    0.1362    1.1705 O   0  0  0  0  0  0  0  0  0  0  0  0
   -2.8744   -1.7642   -0.0163 H   0  0  0  0  0  0  0  0  0  0  0  0
   -0.6421   -2.8418   -0.0321 H   0  0  0  0  0  0  0  0  0  0  0  0
   -1.0222    2.1333    0.0453 H   0  0  0  0  0  0  0  0  0  0  0  0
   -3.9864    0.1999    0.0006 H   0  0  0  0  0  0  0  0  0  0  0  0
    7.0481   -2.2146   -0.4926 H   0  0  0  0  0  0  0  0  0  0  0  0
    6.5217   -1.9008    1.1750 H   0  0  0  0  0  0  0  0  0  0  0  0
    6.6146   -0.0049   -1.2182 H   0  0  0  0  0  0  0  0  0  0  0  0
    5.8301    1.8762    0.6325 H   0  0  0  0  0  0  0  0  0  0  0  0
  1  2  2  0  0  0  0
  1 10  1  0  0  0  0
  2  3  1  0  0  0  0
  2 19  1  0  0  0  0
  3  4  2  0  0  0  0
  3 20  1  0  0  0  0
  4  5  1  0  0  0  0
  4  7  1  0  0  0  0
  5  6  2  0  0  0  0
  6  1  1  0  0  0  0
  6 21  1  0  0  0  0
  7  8  2  0  0  0  0
  8  9  1  0  0  0  0
  8 11  1  0  0  0  0
  9  5  1  0  0  0  0
 10 22  1  0  0  0  0
 11 12  1  0  0  0  0
 12 13  1  0  0  0  0
 13 14  1  0  0  0  0
 13 23  1  0  0  0  0
 13 24  1  0  0  0  0
 14 15  1  0  0  0  0
 14 16  1  0  0  0  0
 14 25  1  6  0  0  0
 15 11  2  0  0  0  0
 16 17  1  0  0  0  0
 16 18  2  0  0  0  0
 17 26  1  0  0  0  0
M  END
>  <Mol_ID>
5532

>  <Formula>
C11H7N2NaO3S2

>  <MolWeight>
302.30465

>  <Cat>
S6924

>  <Name>
D-Luciferin sodium salt

>  <Synonyms>
D-(-)-Luciferin sodium salt, Firefly luciferin sodium salt

>  <Target>
Dyes

>  <Form>
Sodium salt

>  <CAS>
103404-75-7

>  <URL>
https://www.selleckchem.com/products/d-luciferin-sodium-salt.html

$$$$
