D-Mannosamine hydrochloride
 OpenBabel08302521293D

 25 24  0  0  0  0  0  0  0  0999 V2000
    1.4457    4.1885    1.2092 O   0  0  0  0  0  0  0  0  0  0  0  0
    0.9349    2.8749    1.0088 C   0  0  0  0  0  0  0  0  0  0  0  0
    1.0926    2.4718   -0.4615 C   0  0  2  0  0  0  0  0  0  0  0  0
    0.4929    1.0818   -0.7791 C   0  0  2  0  0  0  0  0  0  0  0  0
    1.1137   -0.0615    0.0667 C   0  0  1  0  0  0  0  0  0  0  0  0
    0.6400   -1.4854   -0.2958 C   0  0  1  0  0  0  0  0  0  0  0  0
   -0.8758   -1.5930   -0.1525 C   0  0  0  0  0  0  0  0  0  0  0  0
   -1.6259   -1.9801   -1.0508 O   0  0  0  0  0  0  0  0  0  0  0  0
    0.7077    0.8132   -2.1729 O   0  0  0  0  0  0  0  0  0  0  0  0
    2.5459   -0.0066   -0.0829 O   0  0  0  0  0  0  0  0  0  0  0  0
    2.4929    2.5065   -0.8037 O   0  0  0  0  0  0  0  0  0  0  0  0
    1.0873   -1.8917   -1.6497 N   0  0  0  0  0  0  0  0  0  0  0  0
    2.3091    4.2141    0.7503 H   0  0  0  0  0  0  0  0  0  0  0  0
    1.5026    2.2147    1.6698 H   0  0  0  0  0  0  0  0  0  0  0  0
   -0.1164    2.8618    1.3082 H   0  0  0  0  0  0  0  0  0  0  0  0
    0.6256    3.2258   -1.1057 H   0  0  0  0  0  0  0  0  0  0  0  0
   -0.5895    1.1105   -0.6179 H   0  0  0  0  0  0  0  0  0  0  0  0
    0.8960    0.1149    1.1256 H   0  0  0  0  0  0  0  0  0  0  0  0
    1.0810   -2.1980    0.4099 H   0  0  0  0  0  0  0  0  0  0  0  0
   -1.2709   -1.3393    0.8386 H   0  0  0  0  0  0  0  0  0  0  0  0
    1.6052    1.1457   -2.3818 H   0  0  0  0  0  0  0  0  0  0  0  0
    2.7229   -0.5017   -0.9160 H   0  0  0  0  0  0  0  0  0  0  0  0
    2.9123    1.7415   -0.3475 H   0  0  0  0  0  0  0  0  0  0  0  0
    0.5414   -2.7193   -1.9177 H   0  0  0  0  0  0  0  0  0  0  0  0
    0.7436   -1.1736   -2.3058 H   0  0  0  0  0  0  0  0  0  0  0  0
  1  2  1  0  0  0  0
  1 13  1  0  0  0  0
  2 14  1  0  0  0  0
  2 15  1  0  0  0  0
  3 11  1  0  0  0  0
  3 16  1  6  0  0  0
  3  4  1  0  0  0  0
  3  2  1  0  0  0  0
  4 17  1  1  0  0  0
  4  9  1  0  0  0  0
  4  5  1  0  0  0  0
  5  6  1  0  0  0  0
  5 10  1  0  0  0  0
  5 18  1  1  0  0  0
  6  7  1  0  0  0  0
  6 12  1  0  0  0  0
  6 19  1  1  0  0  0
  7  8  2  0  0  0  0
  7 20  1  0  0  0  0
  9 21  1  0  0  0  0
 10 22  1  0  0  0  0
 11 23  1  0  0  0  0
 12 24  1  0  0  0  0
 12 25  1  0  0  0  0
M  END
>  <Mol_ID>
5494

>  <Formula>
C6H14ClNO5

>  <MolWeight>
215.63206

>  <Cat>
S3332

>  <Name>
D-Mannosamine hydrochloride

>  <Synonyms>
(2S,3R,4S,5R)-2-Amino-3,4,5,6-tetrahydroxyhexanal hydrochloride

>  <Target>
Others

>  <Form>
Hydrochloride

>  <CAS>
5505-63-5

>  <URL>
https://www.selleckchem.com/products/d-mannosamine-hydrochloride.html

$$$$
