D-Menthol
 OpenBabel08302521373D

 31 31  0  0  1  0  0  0  0  0999 V2000
    0.8454    0.1015    0.1705 C   0  0  0  0  0  0  0  0  0  0  0  0
    0.3072   -0.9425    1.1585 C   0  0  0  0  0  0  0  0  0  0  0  0
    0.2901    1.4739    0.5735 C   0  0  0  0  0  0  0  0  0  0  0  0
    4.3690    1.2928   -0.6565 O   0  0  0  0  0  0  0  0  0  0  0  0
    4.6991   -0.7815   -2.9093 C   0  0  0  0  0  0  0  0  0  0  0  0
    2.4062    0.0943    0.0945 C   0  0  2  0  0  0  0  0  0  0  0  0
    2.9670    1.1413   -0.8973 C   0  0  2  0  0  0  0  0  0  0  0  0
    2.9848   -1.2928   -0.2716 C   0  0  0  0  0  0  0  0  0  0  0  0
    2.7223    0.7552   -2.3640 C   0  0  0  0  0  0  0  0  0  0  0  0
    2.6555   -1.6940   -1.7090 C   0  0  0  0  0  0  0  0  0  0  0  0
    3.1778   -0.6713   -2.7286 C   0  0  2  0  0  0  0  0  0  0  0  0
    0.4277   -0.1369   -0.8142 H   0  0  0  0  0  0  0  0  0  0  0  0
    0.7249   -0.7929    2.1598 H   0  0  0  0  0  0  0  0  0  0  0  0
   -0.7842   -0.8774    1.2350 H   0  0  0  0  0  0  0  0  0  0  0  0
    0.5349   -1.9622    0.8367 H   0  0  0  0  0  0  0  0  0  0  0  0
    0.4940    2.2330   -0.1856 H   0  0  0  0  0  0  0  0  0  0  0  0
   -0.7992    1.4334    0.6856 H   0  0  0  0  0  0  0  0  0  0  0  0
    0.7155    1.8101    1.5247 H   0  0  0  0  0  0  0  0  0  0  0  0
    4.6910    1.9913   -1.2534 H   0  0  0  0  0  0  0  0  0  0  0  0
    4.9285   -1.0309   -3.9524 H   0  0  0  0  0  0  0  0  0  0  0  0
    5.2238    0.1517   -2.6913 H   0  0  0  0  0  0  0  0  0  0  0  0
    5.1381   -1.5708   -2.2911 H   0  0  0  0  0  0  0  0  0  0  0  0
    2.7912    0.3376    1.0949 H   0  0  0  0  0  0  0  0  0  0  0  0
    2.5354    2.1264   -0.7073 H   0  0  0  0  0  0  0  0  0  0  0  0
    4.0741   -1.2746   -0.1409 H   0  0  0  0  0  0  0  0  0  0  0  0
    2.6306   -2.0653    0.4180 H   0  0  0  0  0  0  0  0  0  0  0  0
    1.6475    0.8357   -2.5702 H   0  0  0  0  0  0  0  0  0  0  0  0
    3.2197    1.4729   -3.0277 H   0  0  0  0  0  0  0  0  0  0  0  0
    1.5718   -1.7973   -1.8244 H   0  0  0  0  0  0  0  0  0  0  0  0
    3.0744   -2.6864   -1.9208 H   0  0  0  0  0  0  0  0  0  0  0  0
    2.7281   -0.9188   -3.6991 H   0  0  0  0  0  0  0  0  0  0  0  0
  1  2  1  0  0  0  0
  1  3  1  0  0  0  0
  1 12  1  0  0  0  0
  2 13  1  0  0  0  0
  2 14  1  0  0  0  0
  2 15  1  0  0  0  0
  3 16  1  0  0  0  0
  3 17  1  0  0  0  0
  3 18  1  0  0  0  0
  4 19  1  0  0  0  0
  5 20  1  0  0  0  0
  5 21  1  0  0  0  0
  5 22  1  0  0  0  0
  6  1  1  0  0  0  0
  6  7  1  0  0  0  0
  6  8  1  0  0  0  0
  6 23  1  1  0  0  0
  7  9  1  0  0  0  0
  7 24  1  1  0  0  0
  7  4  1  0  0  0  0
  8 10  1  0  0  0  0
  8 25  1  0  0  0  0
  8 26  1  0  0  0  0
  9 11  1  0  0  0  0
  9 27  1  0  0  0  0
  9 28  1  0  0  0  0
 10 11  1  0  0  0  0
 10 29  1  0  0  0  0
 10 30  1  0  0  0  0
 11 31  1  6  0  0  0
 11  5  1  0  0  0  0
M  END
>  <Mol_ID>
7457

>  <Formula>
C10H20O

>  <MolWeight>
156.2652

>  <Cat>
E4561

>  <Name>
D-Menthol

>  <Synonyms>
D-Menthol

>  <Target>
5-HT Receptor; AChR; Calcium Channel

>  <Form>
Free base

>  <CAS>
15356-60-2

>  <URL>
https://www.selleckchem.com/products/d-menthol.html

$$$$
