D-Ornithine (hydrochloride)
 OpenBabel08302521453D

 21 20  0  0  0  0  0  0  0  0999 V2000
    0.9671   -0.0760   -0.0035 C   0  0  1  0  0  0  0  0  0  0  0  0
    2.3518   -0.4591   -0.5669 C   0  0  0  0  0  0  0  0  0  0  0  0
    0.4173    1.1730   -0.6937 C   0  0  0  0  0  0  0  0  0  0  0  0
    0.0736   -1.2623   -0.1507 N   0  0  0  0  0  0  0  0  0  0  0  0
    2.5382   -1.8050   -0.5172 O   0  0  0  0  0  0  0  0  0  0  0  0
    3.1965    0.3206   -0.9746 O   0  0  0  0  0  0  0  0  0  0  0  0
   -0.9013    1.7211   -0.1282 C   0  0  0  0  0  0  0  0  0  0  0  0
   -0.8203    2.1124    1.3483 C   0  0  0  0  0  0  0  0  0  0  0  0
   -2.0867    2.6919    1.7792 N   0  0  0  0  0  0  0  0  0  0  0  0
    1.1220    0.0990    1.0663 H   0  0  0  0  0  0  0  0  0  0  0  0
    1.1692    1.9707   -0.6428 H   0  0  0  0  0  0  0  0  0  0  0  0
    0.2755    0.9696   -1.7635 H   0  0  0  0  0  0  0  0  0  0  0  0
   -0.8342   -1.0356    0.2657 H   0  0  0  0  0  0  0  0  0  0  0  0
   -0.1364   -1.3827   -1.1486 H   0  0  0  0  0  0  0  0  0  0  0  0
    1.6929   -2.1873   -0.1715 H   0  0  0  0  0  0  0  0  0  0  0  0
   -1.1733    2.6065   -0.7184 H   0  0  0  0  0  0  0  0  0  0  0  0
   -1.7065    0.9925   -0.2800 H   0  0  0  0  0  0  0  0  0  0  0  0
   -0.6173    1.2354    1.9697 H   0  0  0  0  0  0  0  0  0  0  0  0
   -0.0134    2.8351    1.5089 H   0  0  0  0  0  0  0  0  0  0  0  0
   -2.0086    2.9962    2.7500 H   0  0  0  0  0  0  0  0  0  0  0  0
   -2.2832    3.5349    1.2392 H   0  0  0  0  0  0  0  0  0  0  0  0
  1  4  1  0  0  0  0
  1 10  1  1  0  0  0
  1  3  1  0  0  0  0
  1  2  1  0  0  0  0
  2  5  1  0  0  0  0
  2  6  2  0  0  0  0
  3  7  1  0  0  0  0
  3 11  1  0  0  0  0
  3 12  1  0  0  0  0
  4 13  1  0  0  0  0
  4 14  1  0  0  0  0
  5 15  1  0  0  0  0
  7  8  1  0  0  0  0
  7 16  1  0  0  0  0
  7 17  1  0  0  0  0
  8  9  1  0  0  0  0
  8 18  1  0  0  0  0
  8 19  1  0  0  0  0
  9 20  1  0  0  0  0
  9 21  1  0  0  0  0
M  END
>  <Mol_ID>
9485

>  <Formula>
C5H13ClN2O2

>  <MolWeight>
168.62192

>  <Cat>
E4052

>  <Name>
D-Ornithine (hydrochloride)

>  <Synonyms>
D-Ornithine monohydrochloride

>  <Target>
Others

>  <Form>
hydrochloride

>  <CAS>
16682-12-5

>  <URL>
https://www.selleckchem.com/products/d-ornithine-hydrochloride.html

$$$$
