D-Phenylalanine.cdx
 OpenBabel08302521393D

 23 23  0  0  0  0  0  0  0  0999 V2000
    3.4648    2.4112    0.2347 C   0  0  0  0  0  0  0  0  0  0  0  0
    3.2583    1.6118   -1.0331 C   0  0  0  0  0  0  0  0  0  0  0  0
    4.6927    2.3891    0.9118 C   0  0  0  0  0  0  0  0  0  0  0  0
    2.4651    3.2863    0.6841 C   0  0  0  0  0  0  0  0  0  0  0  0
    3.5188    0.1012   -0.9206 C   0  0  2  0  0  0  0  0  0  0  0  0
    4.9186    3.2314    2.0032 C   0  0  0  0  0  0  0  0  0  0  0  0
    2.6951    4.1306    1.7730 C   0  0  0  0  0  0  0  0  0  0  0  0
    3.5565   -0.5178   -2.3295 C   0  0  0  0  0  0  0  0  0  0  0  0
    2.4686   -0.6091   -0.1200 N   0  0  0  0  0  0  0  0  0  0  0  0
    3.9242    4.1089    2.4276 C   0  0  0  0  0  0  0  0  0  0  0  0
    2.8594   -1.6835   -2.3758 O   0  0  0  0  0  0  0  0  0  0  0  0
    4.1497   -0.0561   -3.2909 O   0  0  0  0  0  0  0  0  0  0  0  0
    2.2377    1.7694   -1.4090 H   0  0  0  0  0  0  0  0  0  0  0  0
    3.9150    2.0509   -1.7945 H   0  0  0  0  0  0  0  0  0  0  0  0
    5.5029    1.7456    0.5772 H   0  0  0  0  0  0  0  0  0  0  0  0
    1.5077    3.3449    0.1709 H   0  0  0  0  0  0  0  0  0  0  0  0
    4.4902   -0.1201   -0.4654 H   0  0  0  0  0  0  0  0  0  0  0  0
    5.8831    3.2229    2.5053 H   0  0  0  0  0  0  0  0  0  0  0  0
    1.9231    4.8252    2.0943 H   0  0  0  0  0  0  0  0  0  0  0  0
    2.6137   -0.3395    0.8599 H   0  0  0  0  0  0  0  0  0  0  0  0
    1.5589   -0.1912   -0.3447 H   0  0  0  0  0  0  0  0  0  0  0  0
    4.1130    4.7880    3.2551 H   0  0  0  0  0  0  0  0  0  0  0  0
    2.5071   -1.8201   -1.4612 H   0  0  0  0  0  0  0  0  0  0  0  0
  1  2  1  0  0  0  0
  1  3  2  0  0  0  0
  1  4  1  0  0  0  0
  2 13  1  0  0  0  0
  2 14  1  0  0  0  0
  3  6  1  0  0  0  0
  3 15  1  0  0  0  0
  4  7  2  0  0  0  0
  4 16  1  0  0  0  0
  5  9  1  0  0  0  0
  5 17  1  1  0  0  0
  5  8  1  0  0  0  0
  5  2  1  0  0  0  0
  6 10  2  0  0  0  0
  6 18  1  0  0  0  0
  7 10  1  0  0  0  0
  7 19  1  0  0  0  0
  8 11  1  0  0  0  0
  8 12  2  0  0  0  0
  9 20  1  0  0  0  0
  9 21  1  0  0  0  0
 10 22  1  0  0  0  0
 11 23  1  0  0  0  0
M  END
>  <Mol_ID>
7994

>  <Formula>
C9H11NO2

>  <MolWeight>
165.18914

>  <Cat>
S4153

>  <Name>
D-Phenylalanine

>  <Synonyms>
N/A

>  <Target>
Others

>  <Form>
Free Base

>  <CAS>
673-06-3

>  <URL>
http://selleckchem.com/products/d-phenylalanine.html

$$$$
