D-Proline
 OpenBabel08302521383D

 17 17  0  0  0  0  0  0  0  0999 V2000
   -0.8214   -0.8983   -0.3217 C   0  0  1  0  0  0  0  0  0  0  0  0
   -0.9584   -1.1169   -1.8355 C   0  0  0  0  0  0  0  0  0  0  0  0
    0.5858   -1.1495    0.1784 C   0  0  0  0  0  0  0  0  0  0  0  0
   -1.0882    0.5384    0.0062 N   0  0  0  0  0  0  0  0  0  0  0  0
   -1.4749   -0.0228   -2.4545 O   0  0  0  0  0  0  0  0  0  0  0  0
   -0.6630   -2.1444   -2.4270 O   0  0  0  0  0  0  0  0  0  0  0  0
    1.3022    0.1590   -0.0916 C   0  0  0  0  0  0  0  0  0  0  0  0
    0.2209    1.2247   -0.0289 C   0  0  0  0  0  0  0  0  0  0  0  0
   -1.5639   -1.5378    0.1686 H   0  0  0  0  0  0  0  0  0  0  0  0
    0.5734   -1.3450    1.2574 H   0  0  0  0  0  0  0  0  0  0  0  0
    1.0852   -1.9889   -0.3158 H   0  0  0  0  0  0  0  0  0  0  0  0
   -1.4092    0.5605    0.9802 H   0  0  0  0  0  0  0  0  0  0  0  0
   -1.6162    0.6465   -1.7389 H   0  0  0  0  0  0  0  0  0  0  0  0
    2.1042    0.3386    0.6306 H   0  0  0  0  0  0  0  0  0  0  0  0
    1.7479    0.1396   -1.0932 H   0  0  0  0  0  0  0  0  0  0  0  0
    0.3342    1.8532    0.8605 H   0  0  0  0  0  0  0  0  0  0  0  0
    0.2731    1.8817   -0.9036 H   0  0  0  0  0  0  0  0  0  0  0  0
  1  2  1  0  0  0  0
  1  3  1  0  0  0  0
  1  4  1  0  0  0  0
  1  9  1  1  0  0  0
  2  5  1  0  0  0  0
  2  6  2  0  0  0  0
  3  7  1  0  0  0  0
  3 10  1  0  0  0  0
  3 11  1  0  0  0  0
  4  8  1  0  0  0  0
  4 12  1  0  0  0  0
  5 13  1  0  0  0  0
  7  8  1  0  0  0  0
  7 14  1  0  0  0  0
  7 15  1  0  0  0  0
  8 16  1  0  0  0  0
  8 17  1  0  0  0  0
M  END
>  <Mol_ID>
7888

>  <Formula>
C5H9NO2

>  <MolWeight>
115.13046

>  <Cat>
S6016

>  <Name>
D-Proline

>  <Synonyms>
N/A

>  <Target>
Others

>  <Form>
free base

>  <CAS>
344-25-2

>  <URL>
http://www.selleck.cn/products/d-proline.html

$$$$
