D-Saccharic acid potassium salt
 OpenBabel08302521383D

 23 22  0  0  0  0  0  0  0  0999 V2000
    6.6109   -0.6731   -0.5627 O   0  0  0  0  0  0  0  0  0  0  0  0
    4.3254    0.8604    0.3865 O   0  0  0  0  0  0  0  0  0  0  0  0
    8.6755    1.0749   -0.0100 O   0  0  0  0  0  0  0  0  0  0  0  0
    3.9016   -0.8386   -1.9821 O   0  0  0  0  0  0  0  0  0  0  0  0
    8.3046    3.4813   -0.6018 O   0  0  0  0  0  0  0  0  0  0  0  0
    4.4255    0.1261   -4.3286 O   0  5  0  0  0  0  0  0  0  0  0  0
    6.3519    3.6835    0.5421 O   0  0  0  0  0  0  0  0  0  0  0  0
    5.3910    2.0215   -3.4743 O   0  0  0  0  0  0  0  0  0  0  0  0
    6.4351    0.7187   -0.8818 C   0  0  1  0  0  0  0  0  0  0  0  0
    4.9409    1.1574   -0.8817 C   0  0  1  0  0  0  0  0  0  0  0  0
    7.2790    1.4674    0.1601 C   0  0  2  0  0  0  0  0  0  0  0  0
    4.0938    0.5940   -2.0325 C   0  0  1  0  0  0  0  0  0  0  0  0
    7.2283    2.9776    0.0457 C   0  0  0  0  0  0  0  0  0  0  0  0
    4.6907    0.9719   -3.4204 C   0  0  0  0  0  0  0  0  0  0  0  0
    7.1904   -1.0387   -1.2522 H   0  0  0  0  0  0  0  0  0  0  0  0
    4.5353    1.5940    0.9828 H   0  0  0  0  0  0  0  0  0  0  0  0
    8.7333    0.2138    0.4461 H   0  0  0  0  0  0  0  0  0  0  0  0
    3.8597   -1.0708   -2.9400 H   0  0  0  0  0  0  0  0  0  0  0  0
    8.8751    2.7124   -0.8499 H   0  0  0  0  0  0  0  0  0  0  0  0
    6.8812    0.8795   -1.8672 H   0  0  0  0  0  0  0  0  0  0  0  0
    4.8951    2.2493   -0.9863 H   0  0  0  0  0  0  0  0  0  0  0  0
    7.0131    1.1848    1.1843 H   0  0  0  0  0  0  0  0  0  0  0  0
    3.0864    1.0318   -1.9816 H   0  0  0  0  0  0  0  0  0  0  0  0
  1 15  1  0  0  0  0
  2 16  1  0  0  0  0
  3 17  1  0  0  0  0
  4 18  1  0  0  0  0
  5 13  1  0  0  0  0
  5 19  1  0  0  0  0
  6 14  1  0  0  0  0
  7 13  2  0  0  0  0
  8 14  2  0  0  0  0
  9  1  1  0  0  0  0
  9 11  1  0  0  0  0
  9 20  1  6  0  0  0
 10 21  1  6  0  0  0
 10  2  1  0  0  0  0
 10  9  1  0  0  0  0
 11  3  1  0  0  0  0
 11 13  1  0  0  0  0
 11 22  1  1  0  0  0
 12 14  1  0  0  0  0
 12 23  1  1  0  0  0
 12  4  1  0  0  0  0
 12 10  1  0  0  0  0
M  CHG  1   6  -1
M  END
>  <Mol_ID>
7954

>  <Formula>
C6H9KO8

>  <MolWeight>
248.22916

>  <Cat>
S2993

>  <Name>
D-Saccharic acid potassium salt

>  <Synonyms>
Potassium bisaccharate, D-Glucaric acid potassium

>  <Target>
Others

>  <Form>
Potassium salt

>  <CAS>
576-42-1

>  <URL>
https://www.selleckchem.com/products/d-saccharic-acid-potassium-salt.html

$$$$
