D-Tetrahydropalmatine
 OpenBabel08302521573D

 51 54  0  0  1  0  0  0  0  0999 V2000
    1.0797   -0.0819   -0.1278 O   0  0  0  0  0  0  0  0  0  0  0  0
    0.2222   -1.1633    0.1966 C   0  0  0  0  0  0  0  0  0  0  0  0
    2.4501   -2.5693    0.6021 O   0  0  0  0  0  0  0  0  0  0  0  0
    3.1907   -3.7163    1.0018 C   0  0  0  0  0  0  0  0  0  0  0  0
    8.8633    5.9897   -1.1242 O   0  0  0  0  0  0  0  0  0  0  0  0
    9.4179    5.0539   -2.0385 C   0  0  0  0  0  0  0  0  0  0  0  0
    7.6437    8.2702   -0.8303 O   0  0  0  0  0  0  0  0  0  0  0  0
    7.0175    9.5329   -0.6325 C   0  0  0  0  0  0  0  0  0  0  0  0
    5.2864    2.2806   -0.5772 C   0  0  2  0  0  0  0  0  0  0  0  0
    4.5372    0.9854   -0.2664 C   0  0  0  0  0  0  0  0  0  0  0  0
    6.7143    2.2003   -0.2028 N   0  0  3  0  0  0  0  0  0  0  0  0
    4.7024    3.4977    0.1725 C   0  0  0  0  0  0  0  0  0  0  0  0
    5.2377   -0.2019    0.0090 C   0  0  0  0  0  0  0  0  0  0  0  0
    3.1390    0.9170   -0.3212 C   0  0  0  0  0  0  0  0  0  0  0  0
    7.4660    3.3528   -0.6997 C   0  0  0  0  0  0  0  0  0  0  0  0
    7.3215    0.9700   -0.7209 C   0  0  0  0  0  0  0  0  0  0  0  0
    5.4713    4.7682   -0.1183 C   0  0  0  0  0  0  0  0  0  0  0  0
    4.5435   -1.3807    0.3104 C   0  0  0  0  0  0  0  0  0  0  0  0
    6.7440   -0.2178    0.0328 C   0  0  0  0  0  0  0  0  0  0  0  0
    2.4357   -0.2641   -0.0313 C   0  0  0  0  0  0  0  0  0  0  0  0
    6.8266    4.7031   -0.5350 C   0  0  0  0  0  0  0  0  0  0  0  0
    4.8576    6.0059    0.0886 C   0  0  0  0  0  0  0  0  0  0  0  0
    3.1459   -1.4287    0.3045 C   0  0  0  0  0  0  0  0  0  0  0  0
    7.5294    5.9021   -0.7849 C   0  0  0  0  0  0  0  0  0  0  0  0
    5.5626    7.1858   -0.1458 C   0  0  0  0  0  0  0  0  0  0  0  0
    6.8850    7.1504   -0.5814 C   0  0  0  0  0  0  0  0  0  0  0  0
    0.3498   -1.9932   -0.5052 H   0  0  0  0  0  0  0  0  0  0  0  0
    0.3516   -1.4758    1.2375 H   0  0  0  0  0  0  0  0  0  0  0  0
   -0.8079   -0.8087    0.0926 H   0  0  0  0  0  0  0  0  0  0  0  0
    3.8252   -4.0769    0.1845 H   0  0  0  0  0  0  0  0  0  0  0  0
    3.7807   -3.5148    1.9034 H   0  0  0  0  0  0  0  0  0  0  0  0
    2.4784   -4.5087    1.2428 H   0  0  0  0  0  0  0  0  0  0  0  0
    9.7386    4.1455   -1.5229 H   0  0  0  0  0  0  0  0  0  0  0  0
    8.7413    4.8275   -2.8690 H   0  0  0  0  0  0  0  0  0  0  0  0
   10.3314    5.4858   -2.4591 H   0  0  0  0  0  0  0  0  0  0  0  0
    6.1588    9.6592   -1.3019 H   0  0  0  0  0  0  0  0  0  0  0  0
    6.7244    9.6687    0.4147 H   0  0  0  0  0  0  0  0  0  0  0  0
    7.7440   10.3124   -0.8763 H   0  0  0  0  0  0  0  0  0  0  0  0
    5.1961    2.4422   -1.6623 H   0  0  0  0  0  0  0  0  0  0  0  0
    3.6554    3.6579   -0.1164 H   0  0  0  0  0  0  0  0  0  0  0  0
    4.7189    3.3253    1.2578 H   0  0  0  0  0  0  0  0  0  0  0  0
    2.5590    1.7980   -0.5955 H   0  0  0  0  0  0  0  0  0  0  0  0
    7.6538    3.2093   -1.7688 H   0  0  0  0  0  0  0  0  0  0  0  0
    8.4059    3.3595   -0.1383 H   0  0  0  0  0  0  0  0  0  0  0  0
    7.1477    0.8670   -1.8013 H   0  0  0  0  0  0  0  0  0  0  0  0
    8.4083    0.9787   -0.5699 H   0  0  0  0  0  0  0  0  0  0  0  0
    5.1407   -2.2562    0.5459 H   0  0  0  0  0  0  0  0  0  0  0  0
    7.1203   -1.1407   -0.4227 H   0  0  0  0  0  0  0  0  0  0  0  0
    7.0766   -0.1947    1.0778 H   0  0  0  0  0  0  0  0  0  0  0  0
    3.8288    6.0580    0.4371 H   0  0  0  0  0  0  0  0  0  0  0  0
    5.0411    8.1205    0.0344 H   0  0  0  0  0  0  0  0  0  0  0  0
  1  2  1  0  0  0  0
  1 20  1  0  0  0  0
  2 27  1  0  0  0  0
  2 28  1  0  0  0  0
  2 29  1  0  0  0  0
  3  4  1  0  0  0  0
  3 23  1  0  0  0  0
  4 30  1  0  0  0  0
  4 31  1  0  0  0  0
  4 32  1  0  0  0  0
  5  6  1  0  0  0  0
  5 24  1  0  0  0  0
  6 33  1  0  0  0  0
  6 34  1  0  0  0  0
  6 35  1  0  0  0  0
  7  8  1  0  0  0  0
  7 26  1  0  0  0  0
  8 36  1  0  0  0  0
  8 37  1  0  0  0  0
  8 38  1  0  0  0  0
  9 10  1  0  0  0  0
  9 11  1  0  0  0  0
  9 12  1  0  0  0  0
  9 39  1  6  0  0  0
 10 13  2  0  0  0  0
 10 14  1  0  0  0  0
 11 15  1  0  0  0  0
 11 16  1  0  0  0  0
 12 17  1  0  0  0  0
 12 40  1  0  0  0  0
 12 41  1  0  0  0  0
 13 18  1  0  0  0  0
 13 19  1  0  0  0  0
 14 20  2  0  0  0  0
 14 42  1  0  0  0  0
 15 21  1  0  0  0  0
 15 43  1  0  0  0  0
 15 44  1  0  0  0  0
 16 19  1  0  0  0  0
 16 45  1  0  0  0  0
 16 46  1  0  0  0  0
 17 21  2  0  0  0  0
 17 22  1  0  0  0  0
 18 23  2  0  0  0  0
 18 47  1  0  0  0  0
 19 48  1  0  0  0  0
 19 49  1  0  0  0  0
 20 23  1  0  0  0  0
 21 24  1  0  0  0  0
 22 25  2  0  0  0  0
 22 50  1  0  0  0  0
 24 26  2  0  0  0  0
 25 26  1  0  0  0  0
 25 51  1  0  0  0  0
M  END
>  <Mol_ID>
10091

>  <Formula>
C21H25NO4

>  <MolWeight>
355.4275

>  <Cat>
S0909

>  <Name>
D-Tetrahydropalmatine

>  <Synonyms>
NA

>  <Target>
dopamine receptor, OCT1

>  <Form>
Free Base

>  <CAS>
3520-14-7

>  <URL>
https://www.selleckchem.com/products/d-tetrahydropalmatine.html

$$$$
