D3-¦ÂArr
 OpenBabel08302521323D

 48 51  0  0  0  0  0  0  0  0999 V2000
   -1.1897   -1.3128    0.0429 N   0  0  0  0  0  0  0  0  0  0  0  0
   -2.3386   -0.6233    0.0766 C   0  0  0  0  0  0  0  0  0  0  0  0
   -2.3726    0.7162    0.0710 N   0  0  0  0  0  0  0  0  0  0  0  0
   -1.2110    1.3931    0.0519 C   0  0  0  0  0  0  0  0  0  0  0  0
    0.0275    0.7479   -0.0168 C   0  0  0  0  0  0  0  0  0  0  0  0
    1.2856    1.4049   -0.0256 C   0  0  0  0  0  0  0  0  0  0  0  0
    2.4667    0.6718   -0.0198 C   0  0  0  0  0  0  0  0  0  0  0  0
    2.4046   -0.7151   -0.0087 C   0  0  0  0  0  0  0  0  0  0  0  0
    1.1611   -1.3553   -0.0035 C   0  0  0  0  0  0  0  0  0  0  0  0
   -0.0339   -0.6422   -0.0034 C   0  0  0  0  0  0  0  0  0  0  0  0
   -1.2313    2.8018    0.1227 N   0  0  0  0  0  0  0  0  0  0  0  0
   -3.5207   -1.3238    0.1063 N   0  0  0  0  0  0  0  0  0  0  0  0
   -4.8092   -0.6384    0.0649 C   0  0  0  0  0  0  0  0  0  0  0  0
   -5.6256   -0.9199    1.3462 C   0  0  0  0  0  0  0  0  0  0  0  0
   -5.7595   -2.3600    1.6556 N   0  0  0  0  0  0  0  0  0  0  0  0
   -4.4026   -2.9397    1.7642 C   0  0  0  0  0  0  0  0  0  0  0  0
   -3.5328   -2.7326    0.5005 C   0  0  0  0  0  0  0  0  0  0  0  0
   -2.4010    3.4040    0.7624 C   0  0  3  0  0  0  0  0  0  0  0  0
   -2.4802    2.9877    2.2400 C   0  0  0  0  0  0  0  0  0  0  0  0
   -2.2694    4.9235    0.6761 C   0  0  0  0  0  0  0  0  0  0  0  0
   -3.2815    5.6912    0.0771 C   0  0  0  0  0  0  0  0  0  0  0  0
   -3.1955    7.0868    0.0563 C   0  0  0  0  0  0  0  0  0  0  0  0
   -2.1001    7.7308    0.6286 C   0  0  0  0  0  0  0  0  0  0  0  0
   -1.0804    6.9836    1.2110 C   0  0  0  0  0  0  0  0  0  0  0  0
   -1.1611    5.5902    1.2299 C   0  0  0  0  0  0  0  0  0  0  0  0
    1.3319    2.4909   -0.0137 H   0  0  0  0  0  0  0  0  0  0  0  0
    3.4266    1.1811   -0.0096 H   0  0  0  0  0  0  0  0  0  0  0  0
    3.3176   -1.3043    0.0097 H   0  0  0  0  0  0  0  0  0  0  0  0
    1.1220   -2.4417    0.0176 H   0  0  0  0  0  0  0  0  0  0  0  0
   -1.0635    3.1747   -0.8067 H   0  0  0  0  0  0  0  0  0  0  0  0
   -4.7294    0.4454   -0.0741 H   0  0  0  0  0  0  0  0  0  0  0  0
   -5.3672   -1.0164   -0.8014 H   0  0  0  0  0  0  0  0  0  0  0  0
   -5.1636   -0.4117    2.2015 H   0  0  0  0  0  0  0  0  0  0  0  0
   -6.6295   -0.4963    1.2320 H   0  0  0  0  0  0  0  0  0  0  0  0
   -6.2269   -2.8079    0.8680 H   0  0  0  0  0  0  0  0  0  0  0  0
   -3.9000   -2.5038    2.6367 H   0  0  0  0  0  0  0  0  0  0  0  0
   -4.4990   -4.0132    1.9616 H   0  0  0  0  0  0  0  0  0  0  0  0
   -3.9528   -3.3195   -0.3258 H   0  0  0  0  0  0  0  0  0  0  0  0
   -2.5371   -3.1435    0.7025 H   0  0  0  0  0  0  0  0  0  0  0  0
   -3.3200    3.0999    0.2444 H   0  0  0  0  0  0  0  0  0  0  0  0
   -1.5365    3.1779    2.7667 H   0  0  0  0  0  0  0  0  0  0  0  0
   -3.2736    3.5335    2.7606 H   0  0  0  0  0  0  0  0  0  0  0  0
   -2.6922    1.9192    2.3514 H   0  0  0  0  0  0  0  0  0  0  0  0
   -4.1500    5.2094   -0.3639 H   0  0  0  0  0  0  0  0  0  0  0  0
   -3.9899    7.6718   -0.4000 H   0  0  0  0  0  0  0  0  0  0  0  0
   -2.0427    8.8164    0.6226 H   0  0  0  0  0  0  0  0  0  0  0  0
   -0.2250    7.4832    1.6594 H   0  0  0  0  0  0  0  0  0  0  0  0
   -0.3585    5.0183    1.6916 H   0  0  0  0  0  0  0  0  0  0  0  0
  1  2  2  0  0  0  0
  1 10  1  0  0  0  0
  2  3  1  0  0  0  0
  2 12  1  0  0  0  0
  3  4  2  0  0  0  0
  4  5  1  0  0  0  0
  4 11  1  0  0  0  0
  5  6  1  0  0  0  0
  5 10  2  0  0  0  0
  6  7  2  0  0  0  0
  6 26  1  0  0  0  0
  7  8  1  0  0  0  0
  7 27  1  0  0  0  0
  8  9  2  0  0  0  0
  8 28  1  0  0  0  0
  9 10  1  0  0  0  0
  9 29  1  0  0  0  0
 11 18  1  0  0  0  0
 11 30  1  0  0  0  0
 12 13  1  0  0  0  0
 12 17  1  0  0  0  0
 13 14  1  0  0  0  0
 13 31  1  0  0  0  0
 13 32  1  0  0  0  0
 14 15  1  0  0  0  0
 14 33  1  0  0  0  0
 14 34  1  0  0  0  0
 15 16  1  0  0  0  0
 15 35  1  0  0  0  0
 16 17  1  0  0  0  0
 16 36  1  0  0  0  0
 16 37  1  0  0  0  0
 17 38  1  0  0  0  0
 17 39  1  0  0  0  0
 18 19  1  0  0  0  0
 18 20  1  0  0  0  0
 18 40  1  0  0  0  0
 19 41  1  0  0  0  0
 19 42  1  0  0  0  0
 19 43  1  0  0  0  0
 20 21  2  0  0  0  0
 20 25  1  0  0  0  0
 21 22  1  0  0  0  0
 21 44  1  0  0  0  0
 22 23  2  0  0  0  0
 22 45  1  0  0  0  0
 23 24  1  0  0  0  0
 23 46  1  0  0  0  0
 24 25  2  0  0  0  0
 24 47  1  0  0  0  0
 25 48  1  0  0  0  0
M  END
>  <Mol_ID>
6158

>  <Formula>
C20H23N5

>  <MolWeight>
333.43012

>  <Cat>
S0319

>  <Name>
D3-¦ÂArr

>  <Synonyms>
NCGC00379308

>  <Target>
TSH Receptor

>  <Form>
free base

>  <CAS>
662164-09-2

>  <URL>
http://www.selleckchem.com/products/d3-betaarr.html

$$$$
