Daidzein.cdx
 OpenBabel08302521233D

 29 31  0  0  0  0  0  0  0  0999 V2000
    1.8632    1.3599    0.0337 C   0  0  0  0  0  0  0  0  0  0  0  0
    2.3341    0.0491    0.0049 C   0  0  0  0  0  0  0  0  0  0  0  0
    1.4553   -1.0305   -0.0073 C   0  0  0  0  0  0  0  0  0  0  0  0
    0.0811   -0.7965    0.0036 C   0  0  0  0  0  0  0  0  0  0  0  0
   -0.4020    0.5111    0.0227 C   0  0  0  0  0  0  0  0  0  0  0  0
    0.4864    1.5930    0.0417 C   0  0  0  0  0  0  0  0  0  0  0  0
   -0.7431   -1.8937   -0.0053 O   0  0  0  0  0  0  0  0  0  0  0  0
   -2.0997   -1.6719   -0.0136 C   0  0  0  0  0  0  0  0  0  0  0  0
   -2.7119   -0.4791   -0.0073 C   0  0  0  0  0  0  0  0  0  0  0  0
   -1.8592    0.7370    0.0170 C   0  0  0  0  0  0  0  0  0  0  0  0
   -2.3222    1.8710    0.0288 O   0  0  0  0  0  0  0  0  0  0  0  0
    3.6700   -0.2225   -0.0134 O   0  0  0  0  0  0  0  0  0  0  0  0
   -4.1750   -0.3984   -0.0407 C   0  0  0  0  0  0  0  0  0  0  0  0
   -4.9147   -0.3784    1.1499 C   0  0  0  0  0  0  0  0  0  0  0  0
   -6.3099   -0.3133    1.1126 C   0  0  0  0  0  0  0  0  0  0  0  0
   -6.9607   -0.2722   -0.1171 C   0  0  0  0  0  0  0  0  0  0  0  0
   -6.2409   -0.2959   -1.3058 C   0  0  0  0  0  0  0  0  0  0  0  0
   -4.8472   -0.3588   -1.2694 C   0  0  0  0  0  0  0  0  0  0  0  0
   -8.3196   -0.2044   -0.2004 O   0  0  0  0  0  0  0  0  0  0  0  0
    2.5448    2.2051    0.0487 H   0  0  0  0  0  0  0  0  0  0  0  0
    1.8413   -2.0455   -0.0279 H   0  0  0  0  0  0  0  0  0  0  0  0
    0.1069    2.6127    0.0612 H   0  0  0  0  0  0  0  0  0  0  0  0
   -2.6256   -2.6193   -0.0323 H   0  0  0  0  0  0  0  0  0  0  0  0
    4.1625    0.6151   -0.0283 H   0  0  0  0  0  0  0  0  0  0  0  0
   -4.4085   -0.4037    2.1122 H   0  0  0  0  0  0  0  0  0  0  0  0
   -6.8661   -0.2933    2.0445 H   0  0  0  0  0  0  0  0  0  0  0  0
   -6.7623   -0.2577   -2.2581 H   0  0  0  0  0  0  0  0  0  0  0  0
   -4.2919   -0.3663   -2.2045 H   0  0  0  0  0  0  0  0  0  0  0  0
   -8.6818   -0.1301    0.6975 H   0  0  0  0  0  0  0  0  0  0  0  0
  1  2  2  0  0  0  0
  1 20  1  0  0  0  0
  2  3  1  0  0  0  0
  2 12  1  0  0  0  0
  3  4  2  0  0  0  0
  3 21  1  0  0  0  0
  4  5  1  0  0  0  0
  4  7  1  0  0  0  0
  5  6  2  0  0  0  0
  6  1  1  0  0  0  0
  6 22  1  0  0  0  0
  7  8  1  0  0  0  0
  8  9  2  0  0  0  0
  8 23  1  0  0  0  0
  9 10  1  0  0  0  0
  9 13  1  0  0  0  0
 10  5  1  0  0  0  0
 10 11  2  0  0  0  0
 12 24  1  0  0  0  0
 13 14  2  0  0  0  0
 14 15  1  0  0  0  0
 14 25  1  0  0  0  0
 15 16  2  0  0  0  0
 15 26  1  0  0  0  0
 16 17  1  0  0  0  0
 16 19  1  0  0  0  0
 17 18  2  0  0  0  0
 17 27  1  0  0  0  0
 18 13  1  0  0  0  0
 18 28  1  0  0  0  0
 19 29  1  0  0  0  0
M  END
>  <Mol_ID>
458

>  <Formula>
C15H10O4

>  <MolWeight>
254.2375

>  <Cat>
S1849

>  <Name>
Daidzein

>  <Synonyms>
N/A

>  <Target>
PPAR

>  <Form>
free base

>  <CAS>
486-66-8

>  <URL>
http://selleckchem.com/products/Daidzein.html

$$$$
