Daidzin.cdx
 OpenBabel08302522053D

 50 53  0  0  0  0  0  0  0  0999 V2000
    2.0862    0.9092    1.0910 C   0  0  0  0  0  0  0  0  0  0  0  0
    2.5977   -0.3235    0.6686 C   0  0  0  0  0  0  0  0  0  0  0  0
    1.7214   -1.3158    0.2124 C   0  0  0  0  0  0  0  0  0  0  0  0
    0.3491   -1.0362    0.1043 C   0  0  0  0  0  0  0  0  0  0  0  0
   -0.1293    0.2350    0.4219 C   0  0  0  0  0  0  0  0  0  0  0  0
    0.7313    1.2012    0.9407 C   0  0  0  0  0  0  0  0  0  0  0  0
   -0.4898   -2.0391   -0.3238 O   0  0  0  0  0  0  0  0  0  0  0  0
   -1.8486   -1.7883   -0.3109 C   0  0  0  0  0  0  0  0  0  0  0  0
   -2.4403   -0.6036   -0.0906 C   0  0  0  0  0  0  0  0  0  0  0  0
   -1.5500    0.5497    0.1941 C   0  0  0  0  0  0  0  0  0  0  0  0
    4.0737   -1.0756   -1.5949 O   0  0  0  0  0  0  0  0  0  0  0  0
    4.6225   -1.2164   -0.2784 C   0  0  3  0  0  0  0  0  0  0  0  0
    3.9681   -0.4039    0.7157 O   0  0  0  0  0  0  0  0  0  0  0  0
    4.1932    0.2613   -2.1204 C   0  0  1  0  0  0  0  0  0  0  0  0
    5.6579    0.6741   -2.2694 C   0  0  2  0  0  0  0  0  0  0  0  0
    6.3663    0.5232   -0.9105 C   0  0  1  0  0  0  0  0  0  0  0  0
    6.1406   -0.8855   -0.3283 C   0  0  1  0  0  0  0  0  0  0  0  0
   -3.9040   -0.4563   -0.0672 C   0  0  0  0  0  0  0  0  0  0  0  0
   -4.5744   -0.3850    1.1638 C   0  0  0  0  0  0  0  0  0  0  0  0
   -5.9614   -0.2125    1.2134 C   0  0  0  0  0  0  0  0  0  0  0  0
   -6.6800   -0.1108    0.0275 C   0  0  0  0  0  0  0  0  0  0  0  0
   -6.0343   -0.1799   -1.2018 C   0  0  0  0  0  0  0  0  0  0  0  0
   -4.6463   -0.3524   -1.2515 C   0  0  0  0  0  0  0  0  0  0  0  0
   -8.0317    0.0675    0.0297 O   0  0  0  0  0  0  0  0  0  0  0  0
   -1.9571    1.7037    0.2518 O   0  0  0  0  0  0  0  0  0  0  0  0
    6.7585   -1.0265    0.9558 O   0  0  0  0  0  0  0  0  0  0  0  0
    5.7529    2.0162   -2.7530 O   0  0  0  0  0  0  0  0  0  0  0  0
    7.7632    0.8202   -1.0512 O   0  0  0  0  0  0  0  0  0  0  0  0
    3.4261    0.2800   -3.4429 C   0  0  0  0  0  0  0  0  0  0  0  0
    2.0424    0.0239   -3.1783 O   0  0  0  0  0  0  0  0  0  0  0  0
    2.7538    1.6669    1.4932 H   0  0  0  0  0  0  0  0  0  0  0  0
    2.0853   -2.2980   -0.0776 H   0  0  0  0  0  0  0  0  0  0  0  0
    0.3501    2.1823    1.2179 H   0  0  0  0  0  0  0  0  0  0  0  0
   -2.3942   -2.7046   -0.5018 H   0  0  0  0  0  0  0  0  0  0  0  0
    4.5148   -2.2624    0.0319 H   0  0  0  0  0  0  0  0  0  0  0  0
    3.6859    0.9637   -1.4493 H   0  0  0  0  0  0  0  0  0  0  0  0
    6.1600    0.0385   -3.0092 H   0  0  0  0  0  0  0  0  0  0  0  0
    5.9955    1.2779   -0.2071 H   0  0  0  0  0  0  0  0  0  0  0  0
    6.6402   -1.6070   -0.9871 H   0  0  0  0  0  0  0  0  0  0  0  0
   -4.0168   -0.4458    2.0959 H   0  0  0  0  0  0  0  0  0  0  0  0
   -6.4544   -0.1502    2.1781 H   0  0  0  0  0  0  0  0  0  0  0  0
   -6.6084   -0.0828   -2.1197 H   0  0  0  0  0  0  0  0  0  0  0  0
   -4.1525   -0.3764   -2.2199 H   0  0  0  0  0  0  0  0  0  0  0  0
   -8.3324    0.1539    0.9493 H   0  0  0  0  0  0  0  0  0  0  0  0
    6.6042   -0.2048    1.4560 H   0  0  0  0  0  0  0  0  0  0  0  0
    6.0174    2.6000   -2.0181 H   0  0  0  0  0  0  0  0  0  0  0  0
    8.1222    0.3045   -1.7959 H   0  0  0  0  0  0  0  0  0  0  0  0
    3.5007    1.2472   -3.9453 H   0  0  0  0  0  0  0  0  0  0  0  0
    3.7762   -0.5090   -4.1159 H   0  0  0  0  0  0  0  0  0  0  0  0
    2.0243   -0.7034   -2.5281 H   0  0  0  0  0  0  0  0  0  0  0  0
  1  2  2  0  0  0  0
  1 31  1  0  0  0  0
  2  3  1  0  0  0  0
  3  4  2  0  0  0  0
  3 32  1  0  0  0  0
  4  5  1  0  0  0  0
  4  7  1  0  0  0  0
  5  6  2  0  0  0  0
  6  1  1  0  0  0  0
  6 33  1  0  0  0  0
  7  8  1  0  0  0  0
  8  9  2  0  0  0  0
  8 34  1  0  0  0  0
  9 10  1  0  0  0  0
  9 18  1  0  0  0  0
 10  5  1  0  0  0  0
 10 25  2  0  0  0  0
 11 12  1  0  0  0  0
 11 14  1  0  0  0  0
 12 13  1  0  0  0  0
 12 35  1  0  0  0  0
 13  2  1  0  0  0  0
 14 15  1  0  0  0  0
 14 29  1  0  0  0  0
 14 36  1  1  0  0  0
 15 16  1  0  0  0  0
 15 27  1  0  0  0  0
 15 37  1  6  0  0  0
 16 17  1  0  0  0  0
 16 28  1  0  0  0  0
 16 38  1  1  0  0  0
 17 12  1  0  0  0  0
 17 26  1  0  0  0  0
 17 39  1  6  0  0  0
 18 19  2  0  0  0  0
 19 20  1  0  0  0  0
 19 40  1  0  0  0  0
 20 21  2  0  0  0  0
 20 41  1  0  0  0  0
 21 22  1  0  0  0  0
 21 24  1  0  0  0  0
 22 23  2  0  0  0  0
 22 42  1  0  0  0  0
 23 18  1  0  0  0  0
 23 43  1  0  0  0  0
 24 44  1  0  0  0  0
 26 45  1  0  0  0  0
 27 46  1  0  0  0  0
 28 47  1  0  0  0  0
 29 30  1  0  0  0  0
 29 48  1  0  0  0  0
 29 49  1  0  0  0  0
 30 50  1  0  0  0  0
M  END
>  <Mol_ID>
1374

>  <Formula>
C21H20O9

>  <MolWeight>
416.3781

>  <Cat>
S2289

>  <Name>
Daidzin

>  <Synonyms>
Daidzoside, Daidzein 7-O-glucoside, Daidzein 7-glucoside

>  <Target>
Dehydrogenase

>  <Form>
Free Base

>  <CAS>
552-66-9

>  <URL>
http://selleckchem.com/products/Daidzin.html

$$$$
