Damascenone
 OpenBabel08302520403D

 32 32  0  0  0  0  0  0  0  0999 V2000
    1.4218   -0.3079   -0.0099 C   0  0  0  0  0  0  0  0  0  0  0  0
    0.3222   -1.4220    0.0284 C   0  0  0  0  0  0  0  0  0  0  0  0
    1.0907    1.0124   -0.0246 C   0  0  0  0  0  0  0  0  0  0  0  0
    2.8578   -0.8346    0.0334 C   0  0  0  0  0  0  0  0  0  0  0  0
   -1.1524   -0.8935   -0.0908 C   0  0  0  0  0  0  0  0  0  0  0  0
    0.3760   -2.2117    1.3623 C   0  0  0  0  0  0  0  0  0  0  0  0
    0.5162   -2.4002   -1.1555 C   0  0  0  0  0  0  0  0  0  0  0  0
   -0.3034    1.4316   -0.0222 C   0  0  0  0  0  0  0  0  0  0  0  0
    2.0253    2.1982    0.0298 C   0  0  0  0  0  0  0  0  0  0  0  0
    3.9850   -0.0204   -0.4961 C   0  0  0  0  0  0  0  0  0  0  0  0
    3.1112   -1.9580    0.4664 O   0  0  0  0  0  0  0  0  0  0  0  0
   -1.3280    0.5827   -0.0432 C   0  0  0  0  0  0  0  0  0  0  0  0
    5.2436   -0.2753   -0.0881 C   0  0  0  0  0  0  0  0  0  0  0  0
    6.4369    0.5164   -0.5119 C   0  0  0  0  0  0  0  0  0  0  0  0
   -1.6150   -1.2377   -1.0253 H   0  0  0  0  0  0  0  0  0  0  0  0
   -1.7767   -1.3167    0.7074 H   0  0  0  0  0  0  0  0  0  0  0  0
   -0.4283   -2.9550    1.4117 H   0  0  0  0  0  0  0  0  0  0  0  0
    1.3005   -2.7769    1.5041 H   0  0  0  0  0  0  0  0  0  0  0  0
    0.2633   -1.5381    2.2197 H   0  0  0  0  0  0  0  0  0  0  0  0
    0.4886   -1.8627   -2.1115 H   0  0  0  0  0  0  0  0  0  0  0  0
    1.4616   -2.9470   -1.1087 H   0  0  0  0  0  0  0  0  0  0  0  0
   -0.2825   -3.1522   -1.1775 H   0  0  0  0  0  0  0  0  0  0  0  0
   -0.5284    2.4969    0.0044 H   0  0  0  0  0  0  0  0  0  0  0  0
    2.7722    2.0830    0.8205 H   0  0  0  0  0  0  0  0  0  0  0  0
    2.5096    2.3577   -0.9381 H   0  0  0  0  0  0  0  0  0  0  0  0
    1.5036    3.1382    0.2469 H   0  0  0  0  0  0  0  0  0  0  0  0
    3.7826    0.7601   -1.2085 H   0  0  0  0  0  0  0  0  0  0  0  0
   -2.3461    0.9647   -0.0341 H   0  0  0  0  0  0  0  0  0  0  0  0
    5.4350   -1.0902    0.6047 H   0  0  0  0  0  0  0  0  0  0  0  0
    6.9643    0.8905    0.3702 H   0  0  0  0  0  0  0  0  0  0  0  0
    7.1262   -0.1147   -1.0815 H   0  0  0  0  0  0  0  0  0  0  0  0
    6.1636    1.3774   -1.1314 H   0  0  0  0  0  0  0  0  0  0  0  0
  1  2  1  0  0  0  0
  1  3  2  0  0  0  0
  1  4  1  0  0  0  0
  2  5  1  0  0  0  0
  2  6  1  0  0  0  0
  2  7  1  0  0  0  0
  3  8  1  0  0  0  0
  3  9  1  0  0  0  0
  4 10  1  0  0  0  0
  4 11  2  0  0  0  0
  5 12  1  0  0  0  0
  5 15  1  0  0  0  0
  5 16  1  0  0  0  0
  6 17  1  0  0  0  0
  6 18  1  0  0  0  0
  6 19  1  0  0  0  0
  7 20  1  0  0  0  0
  7 21  1  0  0  0  0
  7 22  1  0  0  0  0
  8 12  2  0  0  0  0
  8 23  1  0  0  0  0
  9 24  1  0  0  0  0
  9 25  1  0  0  0  0
  9 26  1  0  0  0  0
 10 13  2  0  0  0  0
 10 27  1  0  0  0  0
 12 28  1  0  0  0  0
 13 14  1  0  0  0  0
 13 29  1  0  0  0  0
 14 30  1  0  0  0  0
 14 31  1  0  0  0  0
 14 32  1  0  0  0  0
M  END
>  <Mol_ID>
3750

>  <Formula>
C13H18O

>  <MolWeight>
190.28142

>  <Cat>
S6431

>  <Name>
Damascenone

>  <Synonyms>
N/A

>  <Target>
Others

>  <Form>
Free Base

>  <CAS>
23696-85-7

>  <URL>
http://www.selleck.cn/products/damascenone.html

$$$$
