Damascone
 OpenBabel08302521373D

 34 34  0  0  0  0  0  0  0  0999 V2000
    0.9676    0.0391    0.1188 C   0  0  0  0  0  0  0  0  0  0  0  0
    0.2039    1.3184    0.1601 C   0  0  0  0  0  0  0  0  0  0  0  0
    0.3076   -0.9976    0.1597 O   0  0  0  0  0  0  0  0  0  0  0  0
   -1.1019    1.3699   -0.1476 C   0  0  0  0  0  0  0  0  0  0  0  0
   -1.8859    2.6422   -0.1615 C   0  0  0  0  0  0  0  0  0  0  0  0
    2.8919    2.3247   -1.1198 C   0  0  0  0  0  0  0  0  0  0  0  0
    3.2076    2.0988    1.4138 C   0  0  0  0  0  0  0  0  0  0  0  0
    2.6049   -2.5578   -0.0503 C   0  0  0  0  0  0  0  0  0  0  0  0
    2.5072    0.0421    0.0698 C   0  0  0  0  0  0  0  0  0  0  0  0
    3.3041    1.3832    0.0433 C   0  0  0  0  0  0  0  0  0  0  0  0
    3.1724   -1.1516    0.0583 C   0  0  0  0  0  0  0  0  0  0  0  0
    4.8293    1.1623   -0.2279 C   0  0  0  0  0  0  0  0  0  0  0  0
    4.6889   -1.2616    0.1469 C   0  0  0  0  0  0  0  0  0  0  0  0
    5.4007    0.0086    0.5617 C   0  0  0  0  0  0  0  0  0  0  0  0
    0.6907    2.2299    0.4511 H   0  0  0  0  0  0  0  0  0  0  0  0
   -1.6361    0.4605   -0.4218 H   0  0  0  0  0  0  0  0  0  0  0  0
   -2.3873    2.7572   -1.1274 H   0  0  0  0  0  0  0  0  0  0  0  0
   -2.6449    2.6302    0.6258 H   0  0  0  0  0  0  0  0  0  0  0  0
   -1.2483    3.5197   -0.0114 H   0  0  0  0  0  0  0  0  0  0  0  0
    1.8753    2.7083   -1.0758 H   0  0  0  0  0  0  0  0  0  0  0  0
    3.5382    3.2111   -1.1455 H   0  0  0  0  0  0  0  0  0  0  0  0
    2.9946    1.8155   -2.0861 H   0  0  0  0  0  0  0  0  0  0  0  0
    3.7874    3.0290    1.4122 H   0  0  0  0  0  0  0  0  0  0  0  0
    2.1938    2.3679    1.7087 H   0  0  0  0  0  0  0  0  0  0  0  0
    3.5963    1.4696    2.2219 H   0  0  0  0  0  0  0  0  0  0  0  0
    3.0897   -3.0757   -0.8875 H   0  0  0  0  0  0  0  0  0  0  0  0
    2.8245   -3.1209    0.8634 H   0  0  0  0  0  0  0  0  0  0  0  0
    1.5418   -2.6507   -0.2440 H   0  0  0  0  0  0  0  0  0  0  0  0
    5.0003    0.9642   -1.2960 H   0  0  0  0  0  0  0  0  0  0  0  0
    5.3953    2.0745    0.0021 H   0  0  0  0  0  0  0  0  0  0  0  0
    4.9643   -2.0445    0.8649 H   0  0  0  0  0  0  0  0  0  0  0  0
    5.0674   -1.5836   -0.8318 H   0  0  0  0  0  0  0  0  0  0  0  0
    6.4745   -0.0878    0.3631 H   0  0  0  0  0  0  0  0  0  0  0  0
    5.2967    0.1735    1.6392 H   0  0  0  0  0  0  0  0  0  0  0  0
  1  2  1  0  0  0  0
  1  3  2  0  0  0  0
  1  9  1  0  0  0  0
  2  4  2  0  0  0  0
  2 15  1  0  0  0  0
  4  5  1  0  0  0  0
  4 16  1  0  0  0  0
  5 17  1  0  0  0  0
  5 18  1  0  0  0  0
  5 19  1  0  0  0  0
  6 10  1  0  0  0  0
  6 20  1  0  0  0  0
  6 21  1  0  0  0  0
  6 22  1  0  0  0  0
  7 10  1  0  0  0  0
  7 23  1  0  0  0  0
  7 24  1  0  0  0  0
  7 25  1  0  0  0  0
  8 11  1  0  0  0  0
  8 26  1  0  0  0  0
  8 27  1  0  0  0  0
  8 28  1  0  0  0  0
  9 10  1  0  0  0  0
  9 11  2  0  0  0  0
 10 12  1  0  0  0  0
 11 13  1  0  0  0  0
 12 14  1  0  0  0  0
 12 29  1  0  0  0  0
 12 30  1  0  0  0  0
 13 14  1  0  0  0  0
 13 31  1  0  0  0  0
 13 32  1  0  0  0  0
 14 33  1  0  0  0  0
 14 34  1  0  0  0  0
M  END
>  <Mol_ID>
7400

>  <Formula>
C13H20O

>  <MolWeight>
192.2973

>  <Cat>
E4492

>  <Name>
Damascone

>  <Synonyms>
Damascone

>  <Target>
Others

>  <Form>
free base

>  <CAS>
23726-91-2

>  <URL>
https://www.selleckchem.com/products/damascone.html

$$$$
