Danicamtiv (MYK-491)
 OpenBabel08302521313D

 49 51  0  0  0  0  0  0  0  0999 V2000
    1.0122    2.9635   -1.2162 S   0  0  0  0  0  0  0  0  0  0  0  0
   -2.1544    2.3232   -4.6540 F   0  0  0  0  0  0  0  0  0  0  0  0
   -1.9462    2.1074   -2.5079 F   0  0  0  0  0  0  0  0  0  0  0  0
    2.3926    3.2545   -0.8723 O   0  0  0  0  0  0  0  0  0  0  0  0
    0.0384    4.0389   -1.3443 O   0  0  0  0  0  0  0  0  0  0  0  0
    0.4767   -3.9967   -1.8430 O   0  0  0  0  0  0  0  0  0  0  0  0
    1.5442   -7.6920   -0.3141 O   0  0  0  0  0  0  0  0  0  0  0  0
   -0.1088   -2.3254   -0.3998 N   0  0  0  0  0  0  0  0  0  0  0  0
    1.7681    1.2663   -4.5958 N   0  0  0  0  0  0  0  0  0  0  0  0
    0.1719   -4.5128    0.3723 N   0  0  0  0  0  0  0  0  0  0  0  0
    0.4735    1.5375   -4.8351 N   0  0  0  0  0  0  0  0  0  0  0  0
    1.2691   -6.3965   -0.6982 N   0  0  0  0  0  0  0  0  0  0  0  0
    1.2187    0.3220   -0.0660 C   0  0  0  0  0  0  0  0  0  0  0  0
    0.3591    1.6306   -0.0656 C   0  0  2  0  0  0  0  0  0  0  0  0
    1.1358   -0.5020   -1.3672 C   0  0  0  0  0  0  0  0  0  0  0  0
    0.9589   -0.6719    1.1100 C   0  0  0  0  0  0  0  0  0  0  0  0
   -0.0841   -1.3912   -1.5060 C   0  0  0  0  0  0  0  0  0  0  0  0
   -0.2011   -1.6614    0.9009 C   0  0  0  0  0  0  0  0  0  0  0  0
   -0.9350    1.2937   -0.3688 F   0  0  0  0  0  0  0  0  0  0  0  0
    1.1084    2.3424   -2.8124 C   0  0  0  0  0  0  0  0  0  0  0  0
    0.2017   -3.6501   -0.6917 C   0  0  0  0  0  0  0  0  0  0  0  0
    0.0515    2.2133   -3.7480 C   0  0  0  0  0  0  0  0  0  0  0  0
    2.2236    1.8098   -3.4314 C   0  0  0  0  0  0  0  0  0  0  0  0
   -1.3664    2.6778   -3.5999 C   0  0  0  0  0  0  0  0  0  0  0  0
    2.4829    0.3701   -5.4711 C   0  0  0  0  0  0  0  0  0  0  0  0
    0.6046   -5.8315    0.3147 C   0  0  0  0  0  0  0  0  0  0  0  0
    0.4370   -6.7593    1.3691 C   0  0  0  0  0  0  0  0  0  0  0  0
    1.0556   -7.9002    0.9302 C   0  0  0  0  0  0  0  0  0  0  0  0
    0.3237    2.3212    1.3113 C   0  0  0  0  0  0  0  0  0  0  0  0
   -0.3539   -4.2517    1.1897 H   0  0  0  0  0  0  0  0  0  0  0  0
    2.2584    0.6593    0.0426 H   0  0  0  0  0  0  0  0  0  0  0  0
    1.1149    0.1159   -2.2369 H   0  0  0  0  0  0  0  0  0  0  0  0
    2.0493   -1.1058   -1.4506 H   0  0  0  0  0  0  0  0  0  0  0  0
    1.8749   -1.2668    1.2273 H   0  0  0  0  0  0  0  0  0  0  0  0
    0.8292   -0.1532    2.0626 H   0  0  0  0  0  0  0  0  0  0  0  0
   -1.0163   -0.8178   -1.4954 H   0  0  0  0  0  0  0  0  0  0  0  0
   -0.0423   -1.8997   -2.4738 H   0  0  0  0  0  0  0  0  0  0  0  0
   -0.2027   -2.3842    1.7185 H   0  0  0  0  0  0  0  0  0  0  0  0
   -1.1604   -1.1300    0.9264 H   0  0  0  0  0  0  0  0  0  0  0  0
    3.2421    1.6684   -3.0864 H   0  0  0  0  0  0  0  0  0  0  0  0
   -1.4253    3.7688   -3.4979 H   0  0  0  0  0  0  0  0  0  0  0  0
    1.8950   -0.5443   -5.5972 H   0  0  0  0  0  0  0  0  0  0  0  0
    2.6226    0.8719   -6.4339 H   0  0  0  0  0  0  0  0  0  0  0  0
    3.4528    0.1212   -5.0302 H   0  0  0  0  0  0  0  0  0  0  0  0
   -0.0478   -6.6153    2.3226 H   0  0  0  0  0  0  0  0  0  0  0  0
    1.2306   -8.8820    1.3436 H   0  0  0  0  0  0  0  0  0  0  0  0
   -0.1570    1.7017    2.0786 H   0  0  0  0  0  0  0  0  0  0  0  0
    1.3351    2.5847    1.6527 H   0  0  0  0  0  0  0  0  0  0  0  0
   -0.2625    3.2423    1.2701 H   0  0  0  0  0  0  0  0  0  0  0  0
  1  4  2  0  0  0  0
  1  5  2  0  0  0  0
  1 20  1  0  0  0  0
  2 24  1  0  0  0  0
  3 24  1  0  0  0  0
  6 21  2  0  0  0  0
  7 12  1  0  0  0  0
  7 28  1  0  0  0  0
  8 17  1  0  0  0  0
  8 18  1  0  0  0  0
  8 21  1  0  0  0  0
  9 11  1  0  0  0  0
  9 23  1  0  0  0  0
  9 25  1  0  0  0  0
 10 21  1  0  0  0  0
 10 26  1  0  0  0  0
 10 30  1  0  0  0  0
 11 22  2  0  0  0  0
 12 26  2  0  0  0  0
 13 15  1  0  0  0  0
 13 16  1  0  0  0  0
 13 31  1  0  0  0  0
 14 19  1  6  0  0  0
 14 29  1  0  0  0  0
 14 13  1  0  0  0  0
 14  1  1  0  0  0  0
 15 17  1  0  0  0  0
 15 32  1  0  0  0  0
 15 33  1  0  0  0  0
 16 18  1  0  0  0  0
 16 34  1  0  0  0  0
 16 35  1  0  0  0  0
 17 36  1  0  0  0  0
 17 37  1  0  0  0  0
 18 38  1  0  0  0  0
 18 39  1  0  0  0  0
 20 22  1  0  0  0  0
 20 23  2  0  0  0  0
 22 24  1  0  0  0  0
 23 40  1  0  0  0  0
 24 41  1  0  0  0  0
 25 42  1  0  0  0  0
 25 43  1  0  0  0  0
 25 44  1  0  0  0  0
 26 27  1  0  0  0  0
 27 28  2  0  0  0  0
 27 45  1  0  0  0  0
 28 46  1  0  0  0  0
 29 47  1  0  0  0  0
 29 48  1  0  0  0  0
 29 49  1  0  0  0  0
M  END
>  <Mol_ID>
5947

>  <Formula>
C16H20F3N5O4S

>  <MolWeight>
435.4213096

>  <Cat>
S9948

>  <Name>
Danicamtiv (MYK-491)

>  <Synonyms>
SAR 440181

>  <Target>
Cardiac Myosin

>  <Form>
Free Base

>  <CAS>
1970972-74-7

>  <URL>
http://www.selleckchem.com/products/danicamtiv-myk-491.html

$$$$
