Danofloxacin mesylate.cdx
 OpenBabel08302521383D

 55 58  0  0  0  0  0  0  0  0999 V2000
   -0.4652    0.8105   -0.3717 C   0  0  0  0  0  0  0  0  0  0  0  0
    1.2979    1.6639   -0.2915 N   0  0  0  0  0  0  0  0  0  0  0  0
   -0.3970   -1.1109   -0.5587 C   0  0  0  0  0  0  0  0  0  0  0  0
   -1.5506    1.5857   -0.1243 C   0  0  0  0  0  0  0  0  0  0  0  0
    1.1568    3.1288   -0.4324 C   0  0  0  0  0  0  0  0  0  0  0  0
    2.9630    0.8049   -0.1141 C   0  0  0  0  0  0  0  0  0  0  0  0
    1.4450   -2.0353   -0.6239 C   0  0  0  0  0  0  0  0  0  0  0  0
   -1.5836   -1.7317   -0.3572 C   0  0  0  0  0  0  0  0  0  0  0  0
   -2.6697    0.7422    0.0251 C   0  0  0  0  0  0  0  0  0  0  0  0
    1.7013    4.5170   -0.3444 C   0  0  0  0  0  0  0  0  0  0  0  0
    1.4360    3.8272    0.9153 C   0  0  0  0  0  0  0  0  0  0  0  0
    3.1424   -0.9270   -0.2268 C   0  0  0  0  0  0  0  0  0  0  0  0
    1.5928   -3.2528   -0.7429 O   0  0  0  0  0  0  0  0  0  0  0  0
   -2.6461   -0.8045   -0.0650 C   0  0  0  0  0  0  0  0  0  0  0  0
   -3.8834    1.3486    0.2577 N   0  0  0  0  0  0  0  0  0  0  0  0
    4.3554   -1.6730    0.1387 C   0  0  0  0  0  0  0  0  0  0  0  0
   -3.8248   -1.4123    0.1779 F   0  0  0  0  0  0  0  0  0  0  0  0
   -4.2947    2.6950   -0.1941 C   0  0  1  0  0  0  0  0  0  0  0  0
   -4.8876    0.8720    1.2180 C   0  0  0  0  0  0  0  0  0  0  0  0
    4.2000   -3.0169    0.1127 O   0  0  0  0  0  0  0  0  0  0  0  0
    5.4150   -1.1336    0.4217 O   0  0  0  0  0  0  0  0  0  0  0  0
   -5.8134    2.5250   -0.1884 C   0  0  0  0  0  0  0  0  0  0  0  0
   -4.1298    3.7132    0.9518 C   0  0  0  0  0  0  0  0  0  0  0  0
   -5.8265    2.1179    1.2907 C   0  0  2  0  0  0  0  0  0  0  0  0
   -5.2016    3.3295    1.9139 N   0  0  0  0  0  0  0  0  0  0  0  0
   -4.6436    3.0827    3.2392 C   0  0  0  0  0  0  0  0  0  0  0  0
    0.8590   -0.1915    0.8148 S   0  0  0  0  0  0  0  0  0  0  0  0
    0.7353    0.0407   -1.6599 C   0  0  0  0  0  0  0  0  0  0  0  0
    0.9988   -1.6700    1.5147 O   0  0  0  0  0  0  0  0  0  0  0  0
    1.0038    0.7434    1.9049 O   0  0  0  0  0  0  0  0  0  0  0  0
    1.5623   -0.2970   -0.3339 O   0  0  0  0  0  0  0  0  0  0  0  0
   -1.5441    2.6484    0.0081 H   0  0  0  0  0  0  0  0  0  0  0  0
    0.3312    3.2555   -1.1243 H   0  0  0  0  0  0  0  0  0  0  0  0
    3.6723    1.5468    0.2418 H   0  0  0  0  0  0  0  0  0  0  0  0
   -1.7440   -2.7968   -0.3432 H   0  0  0  0  0  0  0  0  0  0  0  0
    2.7008    4.7786   -0.6456 H   0  0  0  0  0  0  0  0  0  0  0  0
    0.9798    5.3055   -0.5903 H   0  0  0  0  0  0  0  0  0  0  0  0
    0.5725    4.0223    1.5325 H   0  0  0  0  0  0  0  0  0  0  0  0
    2.3378    3.6033    1.4804 H   0  0  0  0  0  0  0  0  0  0  0  0
   -3.8696    2.9979   -1.1547 H   0  0  0  0  0  0  0  0  0  0  0  0
   -5.4411    0.0176    0.8177 H   0  0  0  0  0  0  0  0  0  0  0  0
   -4.4534    0.6002    2.1846 H   0  0  0  0  0  0  0  0  0  0  0  0
    3.2981   -3.3325   -0.1309 H   0  0  0  0  0  0  0  0  0  0  0  0
   -6.1462    1.7223   -0.8586 H   0  0  0  0  0  0  0  0  0  0  0  0
   -6.3614    3.4439   -0.4160 H   0  0  0  0  0  0  0  0  0  0  0  0
   -4.3421    4.7258    0.5889 H   0  0  0  0  0  0  0  0  0  0  0  0
   -3.1245    3.7060    1.3854 H   0  0  0  0  0  0  0  0  0  0  0  0
   -6.8167    1.8942    1.6932 H   0  0  0  0  0  0  0  0  0  0  0  0
   -3.8111    2.3701    3.2341 H   0  0  0  0  0  0  0  0  0  0  0  0
   -4.2605    4.0184    3.6607 H   0  0  0  0  0  0  0  0  0  0  0  0
   -5.4143    2.7105    3.9209 H   0  0  0  0  0  0  0  0  0  0  0  0
    1.1049   -0.8230   -2.2722 H   0  0  0  0  0  0  0  0  0  0  0  0
   -0.2889    0.1365   -2.1805 H   0  0  0  0  0  0  0  0  0  0  0  0
    1.2694    0.9005   -2.1250 H   0  0  0  0  0  0  0  0  0  0  0  0
    0.1385   -2.0745    1.7411 H   0  0  0  0  0  0  0  0  0  0  0  0
  1  2  1  0  0  0  0
  1  3  1  0  0  0  0
  1  4  2  0  0  0  0
  2  5  1  0  0  0  0
  2  6  1  0  0  0  0
  3  7  1  0  0  0  0
  3  8  2  0  0  0  0
  4  9  1  0  0  0  0
  4 32  1  0  0  0  0
  5 10  1  0  0  0  0
  5 11  1  0  0  0  0
  5 33  1  0  0  0  0
  6 12  2  0  0  0  0
  6 34  1  0  0  0  0
  7 13  2  0  0  0  0
  7 12  1  0  0  0  0
  8 14  1  0  0  0  0
  8 35  1  0  0  0  0
  9 15  1  0  0  0  0
  9 14  2  0  0  0  0
 10 11  1  0  0  0  0
 10 36  1  0  0  0  0
 10 37  1  0  0  0  0
 11 38  1  0  0  0  0
 11 39  1  0  0  0  0
 12 16  1  0  0  0  0
 14 17  1  0  0  0  0
 15 18  1  0  0  0  0
 15 19  1  0  0  0  0
 16 20  1  0  0  0  0
 16 21  2  0  0  0  0
 18 22  1  0  0  0  0
 18 23  1  0  0  0  0
 18 40  1  6  0  0  0
 19 41  1  0  0  0  0
 19 42  1  0  0  0  0
 20 43  1  0  0  0  0
 22 24  1  0  0  0  0
 22 44  1  0  0  0  0
 22 45  1  0  0  0  0
 23 25  1  0  0  0  0
 23 46  1  0  0  0  0
 23 47  1  0  0  0  0
 24 19  1  0  0  0  0
 24 25  1  0  0  0  0
 24 48  1  1  0  0  0
 25 26  1  0  0  0  0
 26 49  1  0  0  0  0
 26 50  1  0  0  0  0
 26 51  1  0  0  0  0
 27 28  1  0  0  0  0
 27 29  1  0  0  0  0
 27 30  2  0  0  0  0
 27 31  2  0  0  0  0
 28 52  1  0  0  0  0
 28 53  1  0  0  0  0
 28 54  1  0  0  0  0
 29 55  1  0  0  0  0
M  END
>  <Mol_ID>
7746

>  <Formula>
C20H24FN3O6S

>  <MolWeight>
453.4844632

>  <Cat>
S3058

>  <Name>
Danofloxacin Mesylate

>  <Synonyms>
CP-76136-27

>  <Target>
Bacterial

>  <Form>
Mesylate

>  <CAS>
119478-55-6

>  <URL>
http://selleckchem.com/products/danofloxacin-mesylate.html

$$$$
