Dansylcadaverine?(Monodansyl cadaverine)
 OpenBabel08302521323D

 48 49  0  0  0  0  0  0  0  0999 V2000
    1.1904   -1.4446   -0.2355 C   0  0  0  0  0  0  0  0  0  0  0  0
    2.4314   -0.8055   -0.3030 C   0  0  0  0  0  0  0  0  0  0  0  0
    2.5039    0.5661   -0.1597 C   0  0  0  0  0  0  0  0  0  0  0  0
    1.3309    1.3005    0.0175 C   0  0  0  0  0  0  0  0  0  0  0  0
    0.0336    0.7290   -0.0378 C   0  0  0  0  0  0  0  0  0  0  0  0
   -1.1791    1.5134    0.0401 C   0  0  0  0  0  0  0  0  0  0  0  0
   -2.3985    0.8049    0.0746 C   0  0  0  0  0  0  0  0  0  0  0  0
   -2.4589   -0.5814    0.0290 C   0  0  0  0  0  0  0  0  0  0  0  0
   -1.2904   -1.3181   -0.0672 C   0  0  0  0  0  0  0  0  0  0  0  0
   -0.0260   -0.7027   -0.1199 C   0  0  0  0  0  0  0  0  0  0  0  0
    1.2426   -3.2296   -0.2002 S   0  0  0  0  0  0  0  0  0  0  0  0
    2.5855   -3.6664   -0.5064 O   0  0  0  0  0  0  0  0  0  0  0  0
    0.5725   -3.6758    1.0065 O   0  0  0  0  0  0  0  0  0  0  0  0
    0.2757   -3.7192   -1.4844 N   0  0  0  0  0  0  0  0  0  0  0  0
   -1.2194    2.9134    0.0934 N   0  0  0  0  0  0  0  0  0  0  0  0
   -0.3521    3.7785   -0.6974 C   0  0  0  0  0  0  0  0  0  0  0  0
   -2.3154    3.5985    0.7807 C   0  0  0  0  0  0  0  0  0  0  0  0
    0.7811   -3.5656   -2.8485 C   0  0  0  0  0  0  0  0  0  0  0  0
   -0.2376   -4.1189   -3.8477 C   0  0  0  0  0  0  0  0  0  0  0  0
   -1.5949   -3.4052   -3.7869 C   0  0  0  0  0  0  0  0  0  0  0  0
   -2.5705   -3.9755   -4.8189 C   0  0  0  0  0  0  0  0  0  0  0  0
   -3.9261   -3.2731   -4.7510 C   0  0  0  0  0  0  0  0  0  0  0  0
   -4.8412   -3.8387   -5.7353 N   0  0  0  0  0  0  0  0  0  0  0  0
    3.3564   -1.3709   -0.4204 H   0  0  0  0  0  0  0  0  0  0  0  0
    3.4675    1.0693   -0.1538 H   0  0  0  0  0  0  0  0  0  0  0  0
    1.4548    2.3583    0.2259 H   0  0  0  0  0  0  0  0  0  0  0  0
   -3.3490    1.3259    0.1142 H   0  0  0  0  0  0  0  0  0  0  0  0
   -3.4193   -1.0892    0.0618 H   0  0  0  0  0  0  0  0  0  0  0  0
   -1.4036   -2.3978   -0.0909 H   0  0  0  0  0  0  0  0  0  0  0  0
   -0.2382   -4.5703   -1.2553 H   0  0  0  0  0  0  0  0  0  0  0  0
   -0.9502    4.4445   -1.3294 H   0  0  0  0  0  0  0  0  0  0  0  0
    0.2371    4.4089   -0.0200 H   0  0  0  0  0  0  0  0  0  0  0  0
    0.3252    3.2494   -1.3716 H   0  0  0  0  0  0  0  0  0  0  0  0
   -3.2856    3.4176    0.3005 H   0  0  0  0  0  0  0  0  0  0  0  0
   -2.3590    3.2961    1.8285 H   0  0  0  0  0  0  0  0  0  0  0  0
   -2.1691    4.6851    0.7618 H   0  0  0  0  0  0  0  0  0  0  0  0
    0.9783   -2.5091   -3.0597 H   0  0  0  0  0  0  0  0  0  0  0  0
    1.7152   -4.1252   -2.9648 H   0  0  0  0  0  0  0  0  0  0  0  0
    0.1752   -4.0222   -4.8560 H   0  0  0  0  0  0  0  0  0  0  0  0
   -0.3841   -5.1911   -3.6625 H   0  0  0  0  0  0  0  0  0  0  0  0
   -2.0307   -3.5139   -2.7864 H   0  0  0  0  0  0  0  0  0  0  0  0
   -1.4531   -2.3324   -3.9644 H   0  0  0  0  0  0  0  0  0  0  0  0
   -2.1417   -3.8643   -5.8229 H   0  0  0  0  0  0  0  0  0  0  0  0
   -2.7026   -5.0512   -4.6419 H   0  0  0  0  0  0  0  0  0  0  0  0
   -4.3620   -3.3901   -3.7529 H   0  0  0  0  0  0  0  0  0  0  0  0
   -3.8069   -2.2007   -4.9397 H   0  0  0  0  0  0  0  0  0  0  0  0
   -5.7132   -3.3100   -5.7290 H   0  0  0  0  0  0  0  0  0  0  0  0
   -4.4518   -3.7328   -6.6712 H   0  0  0  0  0  0  0  0  0  0  0  0
  1  2  2  0  0  0  0
  1 10  1  0  0  0  0
  1 11  1  0  0  0  0
  2  3  1  0  0  0  0
  2 24  1  0  0  0  0
  3  4  2  0  0  0  0
  3 25  1  0  0  0  0
  4  5  1  0  0  0  0
  4 26  1  0  0  0  0
  5  6  1  0  0  0  0
  5 10  2  0  0  0  0
  6  7  2  0  0  0  0
  6 15  1  0  0  0  0
  7  8  1  0  0  0  0
  7 27  1  0  0  0  0
  8  9  2  0  0  0  0
  8 28  1  0  0  0  0
  9 10  1  0  0  0  0
  9 29  1  0  0  0  0
 11 12  2  0  0  0  0
 11 13  2  0  0  0  0
 11 14  1  0  0  0  0
 14 18  1  0  0  0  0
 14 30  1  0  0  0  0
 15 16  1  0  0  0  0
 15 17  1  0  0  0  0
 16 31  1  0  0  0  0
 16 32  1  0  0  0  0
 16 33  1  0  0  0  0
 17 34  1  0  0  0  0
 17 35  1  0  0  0  0
 17 36  1  0  0  0  0
 18 19  1  0  0  0  0
 18 37  1  0  0  0  0
 18 38  1  0  0  0  0
 19 20  1  0  0  0  0
 19 39  1  0  0  0  0
 19 40  1  0  0  0  0
 20 21  1  0  0  0  0
 20 41  1  0  0  0  0
 20 42  1  0  0  0  0
 21 22  1  0  0  0  0
 21 43  1  0  0  0  0
 21 44  1  0  0  0  0
 22 23  1  0  0  0  0
 22 45  1  0  0  0  0
 22 46  1  0  0  0  0
 23 47  1  0  0  0  0
 23 48  1  0  0  0  0
M  END
>  <Mol_ID>
6275

>  <Formula>
C17H25N3O2S

>  <MolWeight>
335.4643

>  <Cat>
E0451

>  <Name>
Dansylcadaverine?(Monodansyl cadaverine)

>  <Synonyms>
MDC, Monodansyl cadaverine

>  <Target>
Others

>  <Form>
free base

>  <CAS>
10121-91-2

>  <URL>
http://www.selleckchem.com/products/dansylcadaverine-monodansyl-cadaverine.html

$$$$
