Daphnoretin
 OpenBabel08302521253D

 38 41  0  0  0  0  0  0  0  0999 V2000
   -3.5705    1.1011   -0.0859 O   0  0  0  0  0  0  0  0  0  0  0  0
   -6.4454   -0.9223    1.2070 O   0  0  0  0  0  0  0  0  0  0  0  0
    0.6798    1.7158    1.9321 O   0  0  0  0  0  0  0  0  0  0  0  0
   -9.9977   -0.0862   -2.9734 O   0  0  0  0  0  0  0  0  0  0  0  0
  -10.6142   -2.0188   -0.6153 O   0  0  0  0  0  0  0  0  0  0  0  0
   -4.5828   -0.2257    2.3046 O   0  0  0  0  0  0  0  0  0  0  0  0
    2.7523    2.0206    2.8624 O   0  0  0  0  0  0  0  0  0  0  0  0
   -7.0295    0.0827   -0.9234 C   0  0  0  0  0  0  0  0  0  0  0  0
   -7.3364   -0.7501    0.1400 C   0  0  0  0  0  0  0  0  0  0  0  0
   -5.7115    0.6941   -0.9651 C   0  0  0  0  0  0  0  0  0  0  0  0
   -4.8320    0.5108    0.0318 C   0  0  0  0  0  0  0  0  0  0  0  0
   -7.9864    0.2561   -1.9275 C   0  0  0  0  0  0  0  0  0  0  0  0
   -2.4599    0.4974    0.4602 C   0  0  0  0  0  0  0  0  0  0  0  0
   -0.1260   -0.5614    1.6014 C   0  0  0  0  0  0  0  0  0  0  0  0
   -0.3072    0.8141    1.4846 C   0  0  0  0  0  0  0  0  0  0  0  0
   -8.5465   -1.4299    0.2008 C   0  0  0  0  0  0  0  0  0  0  0  0
   -9.2331   -0.4055   -1.8877 C   0  0  0  0  0  0  0  0  0  0  0  0
   -9.4951   -1.2648   -0.8132 C   0  0  0  0  0  0  0  0  0  0  0  0
   -1.4614    1.3571    0.9202 C   0  0  0  0  0  0  0  0  0  0  0  0
   -5.2477   -0.2173    1.2743 C   0  0  0  0  0  0  0  0  0  0  0  0
   -2.2675   -0.8866    0.5163 C   0  0  0  0  0  0  0  0  0  0  0  0
   -1.1142   -1.4155    1.1109 C   0  0  0  0  0  0  0  0  0  0  0  0
    1.0881   -1.0632    2.2240 C   0  0  0  0  0  0  0  0  0  0  0  0
    2.0186   -0.1989    2.6387 C   0  0  0  0  0  0  0  0  0  0  0  0
    1.8641    1.2595    2.4946 C   0  0  0  0  0  0  0  0  0  0  0  0
  -11.2890   -0.6318   -3.1544 C   0  0  0  0  0  0  0  0  0  0  0  0
  -11.3490   -1.6930   -1.1461 H   0  0  0  0  0  0  0  0  0  0  0  0
   -5.4380    1.2714   -1.8426 H   0  0  0  0  0  0  0  0  0  0  0  0
   -7.7720    0.9107   -2.7712 H   0  0  0  0  0  0  0  0  0  0  0  0
   -8.7578   -2.0870    1.0413 H   0  0  0  0  0  0  0  0  0  0  0  0
   -1.5835    2.4326    0.8524 H   0  0  0  0  0  0  0  0  0  0  0  0
   -3.0124   -1.5746    0.1274 H   0  0  0  0  0  0  0  0  0  0  0  0
   -1.0052   -2.4945    1.1878 H   0  0  0  0  0  0  0  0  0  0  0  0
    1.2197   -2.1324    2.3445 H   0  0  0  0  0  0  0  0  0  0  0  0
    2.9392   -0.5304    3.1033 H   0  0  0  0  0  0  0  0  0  0  0  0
  -11.2543   -1.7229   -3.2248 H   0  0  0  0  0  0  0  0  0  0  0  0
  -11.9713   -0.2887   -2.3703 H   0  0  0  0  0  0  0  0  0  0  0  0
  -11.6827   -0.2557   -4.1036 H   0  0  0  0  0  0  0  0  0  0  0  0
  1 11  1  0  0  0  0
  1 13  1  0  0  0  0
  2  9  1  0  0  0  0
  2 20  1  0  0  0  0
  3 15  1  0  0  0  0
  3 25  1  0  0  0  0
  4 17  1  0  0  0  0
  4 26  1  0  0  0  0
  5 18  1  0  0  0  0
  5 27  1  0  0  0  0
  6 20  2  0  0  0  0
  7 25  2  0  0  0  0
  8  9  2  0  0  0  0
  8 10  1  0  0  0  0
  8 12  1  0  0  0  0
  9 16  1  0  0  0  0
 10 11  2  0  0  0  0
 10 28  1  0  0  0  0
 11 20  1  0  0  0  0
 12 17  2  0  0  0  0
 12 29  1  0  0  0  0
 13 19  2  0  0  0  0
 13 21  1  0  0  0  0
 14 15  2  0  0  0  0
 14 22  1  0  0  0  0
 14 23  1  0  0  0  0
 15 19  1  0  0  0  0
 16 18  2  0  0  0  0
 16 30  1  0  0  0  0
 17 18  1  0  0  0  0
 19 31  1  0  0  0  0
 21 22  2  0  0  0  0
 21 32  1  0  0  0  0
 22 33  1  0  0  0  0
 23 24  2  0  0  0  0
 23 34  1  0  0  0  0
 24 25  1  0  0  0  0
 24 35  1  0  0  0  0
 26 36  1  0  0  0  0
 26 37  1  0  0  0  0
 26 38  1  0  0  0  0
M  END
>  <Mol_ID>
5161

>  <Formula>
C19H12O7

>  <MolWeight>
352.29438

>  <Cat>
S3289

>  <Name>
Daphnoretin

>  <Synonyms>
Dephnoretin, Thymelol

>  <Target>
Akt,Apoptosis related,PKC

>  <Form>
free base

>  <CAS>
2034-69-7

>  <URL>
http://www.selleckchem.com/products/daphnoretin.html

$$$$
