DAPI Dihydrochloride
 OpenBabel08302521313D

 36 38  0  0  0  0  0  0  0  0999 V2000
    2.1679    0.7186   -0.0198 C   0  0  0  0  0  0  0  0  0  0  0  0
    2.2199   -0.6779    0.0147 C   0  0  0  0  0  0  0  0  0  0  0  0
    1.0430   -1.4358    0.0320 C   0  0  0  0  0  0  0  0  0  0  0  0
   -0.1998   -0.7797    0.0065 C   0  0  0  0  0  0  0  0  0  0  0  0
   -0.2299    0.6096   -0.0323 C   0  0  0  0  0  0  0  0  0  0  0  0
    0.9359    1.3908   -0.0465 C   0  0  0  0  0  0  0  0  0  0  0  0
   -1.5496   -1.2254   -0.0025 C   0  0  0  0  0  0  0  0  0  0  0  0
   -2.3852   -0.1213   -0.0544 C   0  0  0  0  0  0  0  0  0  0  0  0
   -1.5552    0.9819   -0.0572 N   0  0  0  0  0  0  0  0  0  0  0  0
    3.4366    1.5071   -0.0538 C   0  0  0  0  0  0  0  0  0  0  0  0
    4.5847    0.9862    0.4745 N   0  0  0  0  0  0  0  0  0  0  0  0
    3.4422    2.6874   -0.5783 N   0  0  0  0  0  0  0  0  0  0  0  0
   -3.8493   -0.0365   -0.0808 C   0  0  0  0  0  0  0  0  0  0  0  0
   -4.6258   -1.0625    0.4800 C   0  0  0  0  0  0  0  0  0  0  0  0
   -6.0238   -0.9923    0.4802 C   0  0  0  0  0  0  0  0  0  0  0  0
   -6.6670    0.1090   -0.0891 C   0  0  0  0  0  0  0  0  0  0  0  0
   -5.9074    1.1230   -0.6779 C   0  0  0  0  0  0  0  0  0  0  0  0
   -4.5091    1.0513   -0.6705 C   0  0  0  0  0  0  0  0  0  0  0  0
   -8.1545    0.2082   -0.0764 C   0  0  0  0  0  0  0  0  0  0  0  0
   -8.8778   -0.4101    0.9036 N   0  0  0  0  0  0  0  0  0  0  0  0
   -8.7547    0.9017   -0.9868 N   0  0  0  0  0  0  0  0  0  0  0  0
    3.1738   -1.1971   -0.0071 H   0  0  0  0  0  0  0  0  0  0  0  0
    1.0910   -2.5211    0.0455 H   0  0  0  0  0  0  0  0  0  0  0  0
    0.8930    2.4751   -0.0825 H   0  0  0  0  0  0  0  0  0  0  0  0
   -1.8723   -2.2583    0.0086 H   0  0  0  0  0  0  0  0  0  0  0  0
   -1.8713    1.9415   -0.0697 H   0  0  0  0  0  0  0  0  0  0  0  0
    5.3067    1.6586    0.7028 H   0  0  0  0  0  0  0  0  0  0  0  0
    4.4544    0.3106    1.2217 H   0  0  0  0  0  0  0  0  0  0  0  0
    4.3916    3.0637   -0.5660 H   0  0  0  0  0  0  0  0  0  0  0  0
   -4.1501   -1.9317    0.9283 H   0  0  0  0  0  0  0  0  0  0  0  0
   -6.5954   -1.8138    0.9018 H   0  0  0  0  0  0  0  0  0  0  0  0
   -6.4027    1.9722   -1.1439 H   0  0  0  0  0  0  0  0  0  0  0  0
   -3.9527    1.8497   -1.1539 H   0  0  0  0  0  0  0  0  0  0  0  0
   -9.8084   -0.0412    1.0557 H   0  0  0  0  0  0  0  0  0  0  0  0
   -8.3889   -0.5529    1.7817 H   0  0  0  0  0  0  0  0  0  0  0  0
   -9.7659    0.8368   -0.8603 H   0  0  0  0  0  0  0  0  0  0  0  0
  1  2  2  0  0  0  0
  1 10  1  0  0  0  0
  2  3  1  0  0  0  0
  2 22  1  0  0  0  0
  3  4  2  0  0  0  0
  3 23  1  0  0  0  0
  4  5  1  0  0  0  0
  4  7  1  0  0  0  0
  5  6  2  0  0  0  0
  6  1  1  0  0  0  0
  6 24  1  0  0  0  0
  7  8  2  0  0  0  0
  7 25  1  0  0  0  0
  8  9  1  0  0  0  0
  8 13  1  0  0  0  0
  9  5  1  0  0  0  0
  9 26  1  0  0  0  0
 10 11  1  0  0  0  0
 10 12  2  0  0  0  0
 11 27  1  0  0  0  0
 11 28  1  0  0  0  0
 12 29  1  0  0  0  0
 13 14  2  0  0  0  0
 14 15  1  0  0  0  0
 14 30  1  0  0  0  0
 15 16  2  0  0  0  0
 15 31  1  0  0  0  0
 16 17  1  0  0  0  0
 16 19  1  0  0  0  0
 17 18  2  0  0  0  0
 17 32  1  0  0  0  0
 18 13  1  0  0  0  0
 18 33  1  0  0  0  0
 19 20  1  0  0  0  0
 19 21  2  0  0  0  0
 20 34  1  0  0  0  0
 20 35  1  0  0  0  0
 21 36  1  0  0  0  0
M  END
>  <Mol_ID>
6049

>  <Formula>
C16H17Cl2N5

>  <MolWeight>
350.24568

>  <Cat>
S9980

>  <Name>
DAPI Dihydrochloride

>  <Synonyms>
DAPI 2HCl

>  <Target>
Dyes

>  <Form>
Dihydrochloride

>  <CAS>
28718-90-3

>  <URL>
http://www.selleckchem.com/products/dapi-dihydrochloride.html

$$$$
