Daporinad
 OpenBabel08302520393D

 58 60  0  0  0  0  0  0  0  0999 V2000
   -2.0156   -5.3103   -2.4323 C   0  0  0  0  0  0  0  0  0  0  0  0
   -2.0561   -3.9785   -2.0531 C   0  0  0  0  0  0  0  0  0  0  0  0
   -1.4358   -3.4954   -0.9567 N   0  0  0  0  0  0  0  0  0  0  0  0
   -0.7384   -4.3879   -0.2110 C   0  0  0  0  0  0  0  0  0  0  0  0
   -0.6069   -5.7423   -0.5122 C   0  0  0  0  0  0  0  0  0  0  0  0
   -1.2864   -6.2010   -1.6446 C   0  0  0  0  0  0  0  0  0  0  0  0
    0.1498   -6.6871    0.3215 C   0  0  0  0  0  0  0  0  0  0  0  0
    1.2876   -6.3857    0.9710 C   0  0  0  0  0  0  0  0  0  0  0  0
    1.9685   -7.4284    1.7788 C   0  0  0  0  0  0  0  0  0  0  0  0
    1.5071   -8.5611    1.8959 O   0  0  0  0  0  0  0  0  0  0  0  0
    3.1354   -7.1144    2.4082 N   0  0  0  0  0  0  0  0  0  0  0  0
    3.9305   -5.8931    2.4167 C   0  0  0  0  0  0  0  0  0  0  0  0
    4.9439   -5.8666    1.2718 C   0  0  0  0  0  0  0  0  0  0  0  0
    5.8658   -4.6265    1.2965 C   0  0  0  0  0  0  0  0  0  0  0  0
    6.8693   -4.7063    0.1401 C   0  0  0  0  0  0  0  0  0  0  0  0
    7.7681   -3.4884   -0.1810 C   0  0  0  0  0  0  0  0  0  0  0  0
    8.8180   -3.0906    0.8822 C   0  0  0  0  0  0  0  0  0  0  0  0
    8.5570   -1.8087    1.6876 C   0  0  0  0  0  0  0  0  0  0  0  0
    7.9187   -0.7606    0.8866 N   0  0  0  0  0  0  0  0  0  0  0  0
    6.6896   -1.2090    0.2493 C   0  0  0  0  0  0  0  0  0  0  0  0
    6.9865   -2.3039   -0.7598 C   0  0  0  0  0  0  0  0  0  0  0  0
    8.6323    0.4133    0.6012 C   0  0  0  0  0  0  0  0  0  0  0  0
    9.7919    0.5835    0.9787 O   0  0  0  0  0  0  0  0  0  0  0  0
    8.0086    1.5204   -0.1936 C   0  0  0  0  0  0  0  0  0  0  0  0
    6.6698    1.8905   -0.0372 C   0  0  0  0  0  0  0  0  0  0  0  0
    6.1002    2.8616   -0.8637 C   0  0  0  0  0  0  0  0  0  0  0  0
    6.8931    3.5481   -1.7797 C   0  0  0  0  0  0  0  0  0  0  0  0
    8.2566    3.2699   -1.8619 C   0  0  0  0  0  0  0  0  0  0  0  0
    8.8134    2.2545   -1.0764 C   0  0  0  0  0  0  0  0  0  0  0  0
   -2.5391   -5.6467   -3.3205 H   0  0  0  0  0  0  0  0  0  0  0  0
   -2.6078   -3.2462   -2.6355 H   0  0  0  0  0  0  0  0  0  0  0  0
   -0.2814   -3.9587    0.6760 H   0  0  0  0  0  0  0  0  0  0  0  0
   -1.2478   -7.2501   -1.9282 H   0  0  0  0  0  0  0  0  0  0  0  0
   -0.2591   -7.6966    0.3753 H   0  0  0  0  0  0  0  0  0  0  0  0
    1.7297   -5.4043    0.9134 H   0  0  0  0  0  0  0  0  0  0  0  0
    3.5081   -7.9118    2.9120 H   0  0  0  0  0  0  0  0  0  0  0  0
    3.2701   -5.0230    2.3799 H   0  0  0  0  0  0  0  0  0  0  0  0
    4.4544   -5.8763    3.3783 H   0  0  0  0  0  0  0  0  0  0  0  0
    5.5566   -6.7768    1.3136 H   0  0  0  0  0  0  0  0  0  0  0  0
    4.4058   -5.9030    0.3158 H   0  0  0  0  0  0  0  0  0  0  0  0
    5.2499   -3.7262    1.2150 H   0  0  0  0  0  0  0  0  0  0  0  0
    6.4031   -4.5812    2.2504 H   0  0  0  0  0  0  0  0  0  0  0  0
    7.5178   -5.5765    0.3047 H   0  0  0  0  0  0  0  0  0  0  0  0
    6.3050   -4.9331   -0.7759 H   0  0  0  0  0  0  0  0  0  0  0  0
    8.3663   -3.8636   -1.0261 H   0  0  0  0  0  0  0  0  0  0  0  0
    9.0166   -3.9237    1.5675 H   0  0  0  0  0  0  0  0  0  0  0  0
    9.7620   -2.9250    0.3433 H   0  0  0  0  0  0  0  0  0  0  0  0
    7.8773   -2.0287    2.5227 H   0  0  0  0  0  0  0  0  0  0  0  0
    9.4917   -1.4571    2.1281 H   0  0  0  0  0  0  0  0  0  0  0  0
    6.1745   -0.4217   -0.2894 H   0  0  0  0  0  0  0  0  0  0  0  0
    6.0163   -1.5575    1.0408 H   0  0  0  0  0  0  0  0  0  0  0  0
    7.5890   -1.8617   -1.5655 H   0  0  0  0  0  0  0  0  0  0  0  0
    6.0507   -2.6373   -1.2241 H   0  0  0  0  0  0  0  0  0  0  0  0
    6.0485    1.4158    0.7173 H   0  0  0  0  0  0  0  0  0  0  0  0
    5.0392    3.0852   -0.7859 H   0  0  0  0  0  0  0  0  0  0  0  0
    6.4520    4.3140   -2.4132 H   0  0  0  0  0  0  0  0  0  0  0  0
    8.8854    3.8414   -2.5409 H   0  0  0  0  0  0  0  0  0  0  0  0
    9.8783    2.0437   -1.1529 H   0  0  0  0  0  0  0  0  0  0  0  0
  1  2  2  0  0  0  0
  1 30  1  0  0  0  0
  2  3  1  0  0  0  0
  2 31  1  0  0  0  0
  3  4  2  0  0  0  0
  4  5  1  0  0  0  0
  4 32  1  0  0  0  0
  5  7  1  0  0  0  0
  5  6  2  0  0  0  0
  6  1  1  0  0  0  0
  6 33  1  0  0  0  0
  7  8  2  0  0  0  0
  7 34  1  0  0  0  0
  8  9  1  0  0  0  0
  8 35  1  0  0  0  0
  9 10  2  0  0  0  0
  9 11  1  0  0  0  0
 11 12  1  0  0  0  0
 11 36  1  0  0  0  0
 12 13  1  0  0  0  0
 12 37  1  0  0  0  0
 12 38  1  0  0  0  0
 13 14  1  0  0  0  0
 13 39  1  0  0  0  0
 13 40  1  0  0  0  0
 14 15  1  0  0  0  0
 14 41  1  0  0  0  0
 14 42  1  0  0  0  0
 15 16  1  0  0  0  0
 15 43  1  0  0  0  0
 15 44  1  0  0  0  0
 16 17  1  0  0  0  0
 16 21  1  0  0  0  0
 16 45  1  0  0  0  0
 17 18  1  0  0  0  0
 17 46  1  0  0  0  0
 17 47  1  0  0  0  0
 18 19  1  0  0  0  0
 18 48  1  0  0  0  0
 18 49  1  0  0  0  0
 19 20  1  0  0  0  0
 19 22  1  0  0  0  0
 20 21  1  0  0  0  0
 20 50  1  0  0  0  0
 20 51  1  0  0  0  0
 21 52  1  0  0  0  0
 21 53  1  0  0  0  0
 22 23  2  0  0  0  0
 22 24  1  0  0  0  0
 24 25  2  0  0  0  0
 25 26  1  0  0  0  0
 25 54  1  0  0  0  0
 26 27  2  0  0  0  0
 26 55  1  0  0  0  0
 27 28  1  0  0  0  0
 27 56  1  0  0  0  0
 28 29  2  0  0  0  0
 28 57  1  0  0  0  0
 29 24  1  0  0  0  0
 29 58  1  0  0  0  0
M  END
>  <Mol_ID>
3695

>  <Formula>
C24H29N3O2

>  <MolWeight>
391.50596

>  <Cat>
S2799

>  <Name>
Daporinad

>  <Synonyms>
FK866, APO866

>  <Target>
Autophagy,NAMPT,Transferase

>  <Form>
Free Base

>  <CAS>
658084-64-1

>  <URL>
http://www.selleck.cn/products/apo866-fk866.html

$$$$
