DAPT.cdx
 OpenBabel08302521353D

 57 58  0  0  0  0  0  0  0  0999 V2000
   -0.2707   -5.1482   -7.4012 C   0  0  0  0  0  0  0  0  0  0  0  0
    0.2673   -4.0008   -7.9628 C   0  0  0  0  0  0  0  0  0  0  0  0
    1.5106   -3.5744   -7.5279 C   0  0  0  0  0  0  0  0  0  0  0  0
    2.2153   -4.2717   -6.5458 C   0  0  0  0  0  0  0  0  0  0  0  0
    1.6748   -5.4340   -5.9765 C   0  0  0  0  0  0  0  0  0  0  0  0
    0.4143   -5.8638   -6.4173 C   0  0  0  0  0  0  0  0  0  0  0  0
   -1.4738   -5.5779   -7.8092 F   0  0  0  0  0  0  0  0  0  0  0  0
    2.0545   -2.4739   -8.0657 F   0  0  0  0  0  0  0  0  0  0  0  0
    2.4617   -6.2357   -4.9678 C   0  0  0  0  0  0  0  0  0  0  0  0
    1.7410   -6.4362   -3.6420 C   0  0  0  0  0  0  0  0  0  0  0  0
    0.7626   -7.1647   -3.5363 O   0  0  0  0  0  0  0  0  0  0  0  0
    2.2935   -5.7448   -2.5838 N   0  0  0  0  0  0  0  0  0  0  0  0
    1.7416   -5.7322   -1.2236 C   0  0  1  0  0  0  0  0  0  0  0  0
    1.4612   -7.1216   -0.6556 C   0  0  0  0  0  0  0  0  0  0  0  0
    2.7806   -5.0481   -0.3047 C   0  0  0  0  0  0  0  0  0  0  0  0
    2.2909   -4.0879    0.5539 N   0  0  0  0  0  0  0  0  0  0  0  0
    3.1937   -3.3364    1.4340 C   0  0  2  0  0  0  0  0  0  0  0  0
    3.4006   -3.8731    2.8681 C   0  0  0  0  0  0  0  0  0  0  0  0
    4.2684   -3.4336    3.6166 O   0  0  0  0  0  0  0  0  0  0  0  0
    2.5336   -4.8762    3.1911 O   0  0  0  0  0  0  0  0  0  0  0  0
    2.9107   -5.8066    4.2432 C   0  0  0  0  0  0  0  0  0  0  0  0
    3.1036   -5.1687    5.6282 C   0  0  0  0  0  0  0  0  0  0  0  0
    1.7496   -6.8079    4.3548 C   0  0  0  0  0  0  0  0  0  0  0  0
    3.9766   -5.3339   -0.3556 O   0  0  0  0  0  0  0  0  0  0  0  0
    4.1654   -6.5589    3.7820 C   0  0  0  0  0  0  0  0  0  0  0  0
    2.8070   -1.8693    1.4743 C   0  0  0  0  0  0  0  0  0  0  0  0
    3.7233   -0.8945    1.0470 C   0  0  0  0  0  0  0  0  0  0  0  0
    3.4089    0.4605    1.1330 C   0  0  0  0  0  0  0  0  0  0  0  0
    2.1750    0.8572    1.6426 C   0  0  0  0  0  0  0  0  0  0  0  0
    1.2547   -0.0995    2.0674 C   0  0  0  0  0  0  0  0  0  0  0  0
    1.5684   -1.4562    1.9879 C   0  0  0  0  0  0  0  0  0  0  0  0
   -0.2706   -3.4593   -8.7312 H   0  0  0  0  0  0  0  0  0  0  0  0
    3.1943   -3.9029   -6.2492 H   0  0  0  0  0  0  0  0  0  0  0  0
   -0.0471   -6.7614   -6.0106 H   0  0  0  0  0  0  0  0  0  0  0  0
    2.6756   -7.2271   -5.3897 H   0  0  0  0  0  0  0  0  0  0  0  0
    3.4400   -5.7722   -4.7940 H   0  0  0  0  0  0  0  0  0  0  0  0
    3.0208   -5.0659   -2.7779 H   0  0  0  0  0  0  0  0  0  0  0  0
    0.8187   -5.1424   -1.2534 H   0  0  0  0  0  0  0  0  0  0  0  0
    2.3458   -7.7645   -0.7284 H   0  0  0  0  0  0  0  0  0  0  0  0
    1.1752   -7.0632    0.3998 H   0  0  0  0  0  0  0  0  0  0  0  0
    0.6441   -7.6218   -1.1836 H   0  0  0  0  0  0  0  0  0  0  0  0
    1.3141   -3.8303    0.5318 H   0  0  0  0  0  0  0  0  0  0  0  0
    4.1940   -3.4162    0.9887 H   0  0  0  0  0  0  0  0  0  0  0  0
    2.1870   -4.6724    5.9656 H   0  0  0  0  0  0  0  0  0  0  0  0
    3.3721   -5.9296    6.3713 H   0  0  0  0  0  0  0  0  0  0  0  0
    3.8943   -4.4160    5.6535 H   0  0  0  0  0  0  0  0  0  0  0  0
    1.5053   -7.2417    3.3793 H   0  0  0  0  0  0  0  0  0  0  0  0
    1.9875   -7.6219    5.0491 H   0  0  0  0  0  0  0  0  0  0  0  0
    0.8394   -6.3122    4.7128 H   0  0  0  0  0  0  0  0  0  0  0  0
    4.0061   -6.9866    2.7847 H   0  0  0  0  0  0  0  0  0  0  0  0
    5.0268   -5.8887    3.6947 H   0  0  0  0  0  0  0  0  0  0  0  0
    4.4339   -7.3643    4.4712 H   0  0  0  0  0  0  0  0  0  0  0  0
    4.7032   -1.1835    0.6686 H   0  0  0  0  0  0  0  0  0  0  0  0
    4.1347    1.2079    0.8200 H   0  0  0  0  0  0  0  0  0  0  0  0
    1.9348    1.9146    1.7193 H   0  0  0  0  0  0  0  0  0  0  0  0
    0.2991    0.2146    2.4798 H   0  0  0  0  0  0  0  0  0  0  0  0
    0.8484   -2.1847    2.3554 H   0  0  0  0  0  0  0  0  0  0  0  0
  1  2  2  0  0  0  0
  1  7  1  0  0  0  0
  2  3  1  0  0  0  0
  2 32  1  0  0  0  0
  3  4  2  0  0  0  0
  3  8  1  0  0  0  0
  4  5  1  0  0  0  0
  4 33  1  0  0  0  0
  5  6  2  0  0  0  0
  5  9  1  0  0  0  0
  6  1  1  0  0  0  0
  6 34  1  0  0  0  0
  9 10  1  0  0  0  0
  9 35  1  0  0  0  0
  9 36  1  0  0  0  0
 10 11  2  0  0  0  0
 10 12  1  0  0  0  0
 12 13  1  0  0  0  0
 12 37  1  0  0  0  0
 13 14  1  0  0  0  0
 13 15  1  0  0  0  0
 13 38  1  1  0  0  0
 14 39  1  0  0  0  0
 14 40  1  0  0  0  0
 14 41  1  0  0  0  0
 15 16  1  0  0  0  0
 15 24  2  0  0  0  0
 16 42  1  0  0  0  0
 17 26  1  0  0  0  0
 17 43  1  6  0  0  0
 17 18  1  0  0  0  0
 17 16  1  0  0  0  0
 18 19  2  0  0  0  0
 18 20  1  0  0  0  0
 20 21  1  0  0  0  0
 21 22  1  0  0  0  0
 21 23  1  0  0  0  0
 21 25  1  0  0  0  0
 22 44  1  0  0  0  0
 22 45  1  0  0  0  0
 22 46  1  0  0  0  0
 23 47  1  0  0  0  0
 23 48  1  0  0  0  0
 23 49  1  0  0  0  0
 25 50  1  0  0  0  0
 25 51  1  0  0  0  0
 25 52  1  0  0  0  0
 26 27  2  0  0  0  0
 27 28  1  0  0  0  0
 27 53  1  0  0  0  0
 28 29  2  0  0  0  0
 28 54  1  0  0  0  0
 29 30  1  0  0  0  0
 29 55  1  0  0  0  0
 30 31  2  0  0  0  0
 30 56  1  0  0  0  0
 31 26  1  0  0  0  0
 31 57  1  0  0  0  0
M  END
>  <Mol_ID>
647

>  <Formula>
C23H26F2N2O4

>  <MolWeight>
432.4603464

>  <Cat>
S2215

>  <Name>
DAPT (GSI-IX)

>  <Synonyms>
LY-374973

>  <Target>
Apoptosis related,Autophagy,Beta Amyloid,Secretase

>  <Form>
free base

>  <CAS>
208255-80-5

>  <URL>
http://selleckchem.com/products/DAPT-GSI-IX.html

$$$$
