Darovasertib (LXS-196)
 OpenBabel08302521233D

 57 60  0  0  0  0  0  0  0  0999 V2000
   -0.0337   -3.7852    1.0397 C   0  0  0  0  0  0  0  0  0  0  0  0
    0.7470   -3.8530    2.2106 C   0  0  0  0  0  0  0  0  0  0  0  0
    0.1974   -4.5759   -0.0642 N   0  0  0  0  0  0  0  0  0  0  0  0
    1.8288   -4.6537    2.2723 N   0  0  0  0  0  0  0  0  0  0  0  0
    2.0904   -5.3848    1.1613 C   0  0  0  0  0  0  0  0  0  0  0  0
    1.2947   -5.3823    0.0111 C   0  0  0  0  0  0  0  0  0  0  0  0
   -1.0031   -2.6437    0.8779 C   0  0  0  0  0  0  0  0  0  0  0  0
   -0.8614   -1.6212    1.5589 O   0  0  0  0  0  0  0  0  0  0  0  0
   -1.9598   -2.7889   -0.1334 N   0  0  0  0  0  0  0  0  0  0  0  0
    1.6165   -6.2988   -1.1091 C   0  0  0  0  0  0  0  0  0  0  0  0
    1.3935   -6.0706   -2.4664 C   0  0  0  0  0  0  0  0  0  0  0  0
    1.7064   -7.1077   -3.3728 C   0  0  0  0  0  0  0  0  0  0  0  0
    2.2883   -8.2881   -2.9327 C   0  0  0  0  0  0  0  0  0  0  0  0
    2.5359   -8.4099   -1.5862 C   0  0  0  0  0  0  0  0  0  0  0  0
    2.2075   -7.4603   -0.6857 N   0  0  0  0  0  0  0  0  0  0  0  0
    0.8920   -4.7778   -3.0353 C   0  0  0  0  0  0  0  0  0  0  0  0
    1.0837   -3.6863   -2.2539 F   0  0  0  0  0  0  0  0  0  0  0  0
    1.5463   -4.4668   -4.1987 F   0  0  0  0  0  0  0  0  0  0  0  0
   -0.4254   -4.8220   -3.3658 F   0  0  0  0  0  0  0  0  0  0  0  0
   -2.9157   -1.7579   -0.2722 C   0  0  0  0  0  0  0  0  0  0  0  0
   -2.7568   -0.6946   -1.2004 C   0  0  0  0  0  0  0  0  0  0  0  0
   -3.7473    0.3070   -1.1223 C   0  0  0  0  0  0  0  0  0  0  0  0
   -4.8178    0.2164   -0.2426 C   0  0  0  0  0  0  0  0  0  0  0  0
   -4.9054   -0.9108    0.5482 C   0  0  0  0  0  0  0  0  0  0  0  0
   -3.9997   -1.9118    0.5329 N   0  0  0  0  0  0  0  0  0  0  0  0
   -1.7456   -0.5052   -2.1503 N   0  0  0  0  0  0  0  0  0  0  0  0
   -0.4986   -1.2611   -2.0910 C   0  0  0  0  0  0  0  0  0  0  0  0
    0.6114   -0.4437   -2.7445 C   0  0  0  0  0  0  0  0  0  0  0  0
    0.2763    0.0202   -4.1712 C   0  0  0  0  0  0  0  0  0  0  0  0
   -1.1356    0.6385   -4.2100 C   0  0  0  0  0  0  0  0  0  0  0  0
   -2.1741   -0.2692   -3.5453 C   0  0  0  0  0  0  0  0  0  0  0  0
    1.3242    1.0544   -4.6088 C   0  0  0  0  0  0  0  0  0  0  0  0
    0.3361   -1.1204   -5.1011 N   0  0  0  0  0  0  0  0  0  0  0  0
    0.4256   -3.2290    3.4140 N   0  0  0  0  0  0  0  0  0  0  0  0
    2.9812   -6.0050    1.2284 H   0  0  0  0  0  0  0  0  0  0  0  0
   -2.3897   -3.7005   -0.0723 H   0  0  0  0  0  0  0  0  0  0  0  0
    1.5167   -6.9764   -4.4382 H   0  0  0  0  0  0  0  0  0  0  0  0
    2.5571   -9.0789   -3.6241 H   0  0  0  0  0  0  0  0  0  0  0  0
    3.0176   -9.2935   -1.1767 H   0  0  0  0  0  0  0  0  0  0  0  0
   -3.6610    1.2013   -1.7347 H   0  0  0  0  0  0  0  0  0  0  0  0
   -5.5531    1.0102   -0.1807 H   0  0  0  0  0  0  0  0  0  0  0  0
   -5.7252   -1.0303    1.2486 H   0  0  0  0  0  0  0  0  0  0  0  0
   -0.1621   -1.4119   -1.0684 H   0  0  0  0  0  0  0  0  0  0  0  0
   -0.6277   -2.2308   -2.5820 H   0  0  0  0  0  0  0  0  0  0  0  0
    0.7871    0.4396   -2.1140 H   0  0  0  0  0  0  0  0  0  0  0  0
    1.5450   -1.0204   -2.7284 H   0  0  0  0  0  0  0  0  0  0  0  0
   -1.1275    1.6001   -3.6780 H   0  0  0  0  0  0  0  0  0  0  0  0
   -1.4378    0.8582   -5.2418 H   0  0  0  0  0  0  0  0  0  0  0  0
   -2.2603   -1.2249   -4.0813 H   0  0  0  0  0  0  0  0  0  0  0  0
   -3.1544    0.2118   -3.6265 H   0  0  0  0  0  0  0  0  0  0  0  0
    2.3332    0.6250   -4.5960 H   0  0  0  0  0  0  0  0  0  0  0  0
    1.1275    1.4281   -5.6193 H   0  0  0  0  0  0  0  0  0  0  0  0
    1.3294    1.9168   -3.9316 H   0  0  0  0  0  0  0  0  0  0  0  0
    0.2172   -0.7905   -6.0589 H   0  0  0  0  0  0  0  0  0  0  0  0
    1.2626   -1.5468   -5.0665 H   0  0  0  0  0  0  0  0  0  0  0  0
    1.1994   -3.3397    4.0614 H   0  0  0  0  0  0  0  0  0  0  0  0
    0.1247   -2.2643    3.2749 H   0  0  0  0  0  0  0  0  0  0  0  0
  1  2  2  0  0  0  0
  1  3  1  0  0  0  0
  1  7  1  0  0  0  0
  2  4  1  0  0  0  0
  2 34  1  0  0  0  0
  3  6  2  0  0  0  0
  4  5  2  0  0  0  0
  5  6  1  0  0  0  0
  5 35  1  0  0  0  0
  6 10  1  0  0  0  0
  7  8  2  0  0  0  0
  7  9  1  0  0  0  0
  9 20  1  0  0  0  0
  9 36  1  0  0  0  0
 10 11  2  0  0  0  0
 10 15  1  0  0  0  0
 11 12  1  0  0  0  0
 11 16  1  0  0  0  0
 12 13  2  0  0  0  0
 12 37  1  0  0  0  0
 13 14  1  0  0  0  0
 13 38  1  0  0  0  0
 14 15  2  0  0  0  0
 14 39  1  0  0  0  0
 16 17  1  0  0  0  0
 16 18  1  0  0  0  0
 16 19  1  0  0  0  0
 20 21  1  0  0  0  0
 20 25  2  0  0  0  0
 21 22  2  0  0  0  0
 21 26  1  0  0  0  0
 22 23  1  0  0  0  0
 22 40  1  0  0  0  0
 23 24  2  0  0  0  0
 23 41  1  0  0  0  0
 24 25  1  0  0  0  0
 24 42  1  0  0  0  0
 26 27  1  0  0  0  0
 26 31  1  0  0  0  0
 27 28  1  0  0  0  0
 27 43  1  0  0  0  0
 27 44  1  0  0  0  0
 28 29  1  0  0  0  0
 28 45  1  0  0  0  0
 28 46  1  0  0  0  0
 29 30  1  0  0  0  0
 29 32  1  0  0  0  0
 29 33  1  0  0  0  0
 30 31  1  0  0  0  0
 30 47  1  0  0  0  0
 30 48  1  0  0  0  0
 31 49  1  0  0  0  0
 31 50  1  0  0  0  0
 32 51  1  0  0  0  0
 32 52  1  0  0  0  0
 32 53  1  0  0  0  0
 33 54  1  0  0  0  0
 33 55  1  0  0  0  0
 34 56  1  0  0  0  0
 34 57  1  0  0  0  0
M  END
>  <Mol_ID>
4771

>  <Formula>
C22H23F3N8O

>  <MolWeight>
472.4662296

>  <Cat>
S6723

>  <Name>
Darovasertib (LXS-196)

>  <Synonyms>
IDE-196

>  <Target>
PKC

>  <Form>
Free Base

>  <CAS>
1874276-76-2

>  <URL>
http://www.selleck.cn/products/lxs-196.html

$$$$
