Darutigenol
 OpenBabel08302521223D

 57 59  0  0  0  0  0  0  0  0999 V2000
   -0.6098   -0.4683    1.7325 C   0  0  2  0  0  0  0  0  0  0  0  0
   -1.0763   -1.3394    2.9064 C   0  0  0  0  0  0  0  0  0  0  0  0
   -1.7176   -0.4112    0.8022 O   0  0  0  0  0  0  0  0  0  0  0  0
   -2.2892   -0.7907    3.4378 O   0  0  0  0  0  0  0  0  0  0  0  0
    0.4901   -2.3243    0.4634 C   0  0  0  0  0  0  0  0  0  0  0  0
    0.7004   -0.9284    0.9834 C   0  0  2  0  0  0  0  0  0  0  0  0
    1.9379   -0.9028    1.9048 C   0  0  0  0  0  0  0  0  0  0  0  0
    2.3145   -2.2065    2.6226 C   0  0  0  0  0  0  0  0  0  0  0  0
    2.3335   -3.5297    1.7921 C   0  0  1  0  0  0  0  0  0  0  0  0
    2.4467   -4.8918    2.7471 C   0  0  2  0  0  0  0  0  0  0  0  0
    3.3437   -6.1483    2.2029 C   0  0  0  0  0  0  0  0  0  0  0  0
    2.7374   -7.6638    2.3051 C   0  0  0  0  0  0  0  0  0  0  0  0
    1.3353   -7.9583    3.0084 C   0  0  2  0  0  0  0  0  0  0  0  0
    0.8684   -6.7405    3.8579 C   0  0  0  0  0  0  0  0  0  0  0  0
    1.0571   -5.5791    2.8168 C   0  0  1  0  0  0  0  0  0  0  0  0
   -0.1379   -5.1146    1.9486 C   0  0  0  0  0  0  0  0  0  0  0  0
    0.4047   -4.6997    0.5615 C   0  0  0  0  0  0  0  0  0  0  0  0
    1.1379   -3.4403    0.8426 C   0  0  0  0  0  0  0  0  0  0  0  0
    1.7052   -6.7613    5.1585 C   0  0  0  0  0  0  0  0  0  0  0  0
    0.9286    0.0262   -0.2216 C   0  0  0  0  0  0  0  0  0  0  0  0
    1.3388   -9.1855    3.7172 O   0  0  0  0  0  0  0  0  0  0  0  0
    3.1137   -4.4751    4.0924 C   0  0  0  0  0  0  0  0  0  0  0  0
   -0.5903   -6.7574    4.3489 C   0  0  0  0  0  0  0  0  0  0  0  0
   -0.4865    0.5598    2.0866 H   0  0  0  0  0  0  0  0  0  0  0  0
   -1.3384   -2.3452    2.5758 H   0  0  0  0  0  0  0  0  0  0  0  0
   -0.3436   -1.3945    3.7197 H   0  0  0  0  0  0  0  0  0  0  0  0
   -2.5273   -0.4865    1.3478 H   0  0  0  0  0  0  0  0  0  0  0  0
   -2.0531    0.0377    3.8927 H   0  0  0  0  0  0  0  0  0  0  0  0
   -0.3899   -2.4172   -0.1792 H   0  0  0  0  0  0  0  0  0  0  0  0
    1.8088   -0.1117    2.6603 H   0  0  0  0  0  0  0  0  0  0  0  0
    2.8247   -0.5995    1.3262 H   0  0  0  0  0  0  0  0  0  0  0  0
    1.6375   -2.3301    3.4804 H   0  0  0  0  0  0  0  0  0  0  0  0
    3.3096   -2.0053    3.0217 H   0  0  0  0  0  0  0  0  0  0  0  0
    3.2429   -3.5165    1.1754 H   0  0  0  0  0  0  0  0  0  0  0  0
    3.6284   -5.9696    1.1600 H   0  0  0  0  0  0  0  0  0  0  0  0
    4.2963   -6.1954    2.7458 H   0  0  0  0  0  0  0  0  0  0  0  0
    3.5036   -8.3366    2.7044 H   0  0  0  0  0  0  0  0  0  0  0  0
    2.6045   -7.9917    1.2605 H   0  0  0  0  0  0  0  0  0  0  0  0
    0.5892   -8.1164    2.2147 H   0  0  0  0  0  0  0  0  0  0  0  0
    1.2403   -6.2081    1.9405 H   0  0  0  0  0  0  0  0  0  0  0  0
   -0.8308   -5.9428    1.7623 H   0  0  0  0  0  0  0  0  0  0  0  0
   -0.6980   -4.3243    2.4429 H   0  0  0  0  0  0  0  0  0  0  0  0
    1.0876   -5.4401    0.1056 H   0  0  0  0  0  0  0  0  0  0  0  0
   -0.4178   -4.5883   -0.1475 H   0  0  0  0  0  0  0  0  0  0  0  0
    1.4934   -5.9175    5.8090 H   0  0  0  0  0  0  0  0  0  0  0  0
    1.4587   -7.6585    5.7644 H   0  0  0  0  0  0  0  0  0  0  0  0
    2.7727   -6.8469    4.9836 H   0  0  0  0  0  0  0  0  0  0  0  0
    1.0455   -0.5182   -1.1655 H   0  0  0  0  0  0  0  0  0  0  0  0
    0.0978    0.7278   -0.3623 H   0  0  0  0  0  0  0  0  0  0  0  0
    1.8208    0.6486   -0.0933 H   0  0  0  0  0  0  0  0  0  0  0  0
    2.1326   -9.2124    4.2771 H   0  0  0  0  0  0  0  0  0  0  0  0
    3.8901   -5.1698    4.4296 H   0  0  0  0  0  0  0  0  0  0  0  0
    3.6829   -3.5467    4.0440 H   0  0  0  0  0  0  0  0  0  0  0  0
    2.3870   -4.3316    4.8881 H   0  0  0  0  0  0  0  0  0  0  0  0
   -0.8319   -5.7851    4.8055 H   0  0  0  0  0  0  0  0  0  0  0  0
   -1.3134   -6.9356    3.5527 H   0  0  0  0  0  0  0  0  0  0  0  0
   -0.7600   -7.5192    5.1144 H   0  0  0  0  0  0  0  0  0  0  0  0
  1  2  1  0  0  0  0
  1  3  1  0  0  0  0
  1 24  1  1  0  0  0
  2  4  1  0  0  0  0
  2 25  1  0  0  0  0
  2 26  1  0  0  0  0
  3 27  1  0  0  0  0
  4 28  1  0  0  0  0
  5  6  1  0  0  0  0
  5 18  2  0  0  0  0
  5 29  1  0  0  0  0
  6  7  1  0  0  0  0
  6 20  1  6  0  0  0
  6  1  1  0  0  0  0
  7  8  1  0  0  0  0
  7 30  1  0  0  0  0
  7 31  1  0  0  0  0
  8 32  1  0  0  0  0
  8 33  1  0  0  0  0
  9  8  1  0  0  0  0
  9 10  1  0  0  0  0
  9 18  1  0  0  0  0
  9 34  1  6  0  0  0
 10 11  1  0  0  0  0
 10 15  1  0  0  0  0
 10 22  1  1  0  0  0
 11 12  1  0  0  0  0
 11 35  1  0  0  0  0
 11 36  1  0  0  0  0
 12 13  1  0  0  0  0
 12 37  1  0  0  0  0
 12 38  1  0  0  0  0
 13 14  1  0  0  0  0
 13 21  1  0  0  0  0
 13 39  1  6  0  0  0
 14 15  1  0  0  0  0
 14 19  1  0  0  0  0
 14 23  1  0  0  0  0
 15 16  1  0  0  0  0
 15 40  1  6  0  0  0
 16 17  1  0  0  0  0
 16 41  1  0  0  0  0
 16 42  1  0  0  0  0
 17 18  1  0  0  0  0
 17 43  1  0  0  0  0
 17 44  1  0  0  0  0
 19 45  1  0  0  0  0
 19 46  1  0  0  0  0
 19 47  1  0  0  0  0
 20 48  1  0  0  0  0
 20 49  1  0  0  0  0
 20 50  1  0  0  0  0
 21 51  1  0  0  0  0
 22 52  1  0  0  0  0
 22 53  1  0  0  0  0
 22 54  1  0  0  0  0
 23 55  1  0  0  0  0
 23 56  1  0  0  0  0
 23 57  1  0  0  0  0
M  END
>  <Mol_ID>
4642

>  <Formula>
C20H34O3

>  <MolWeight>
322.48216

>  <Cat>
S9494

>  <Name>
Darutigenol

>  <Synonyms>
N/A

>  <Target>
Others

>  <Form>
Free Base

>  <CAS>
5940-00-1

>  <URL>
http://www.selleckchem.com/products/darutigenol.html

$$$$
