DASA-58.cdx
 OpenBabel08302519593D

 53 56  0  0  0  0  0  0  0  0999 V2000
    1.4404    0.5953    0.1304 C   0  0  0  0  0  0  0  0  0  0  0  0
    1.0949   -0.6051   -0.6331 N   0  0  0  0  0  0  0  0  0  0  0  0
    0.1447   -1.4813    0.0951 C   0  0  0  0  0  0  0  0  0  0  0  0
   -1.3200   -1.1273   -0.1520 C   0  0  0  0  0  0  0  0  0  0  0  0
   -1.7542    0.2312    0.3636 N   0  0  0  0  0  0  0  0  0  0  0  0
   -1.0526    1.4025   -0.2647 C   0  0  0  0  0  0  0  0  0  0  0  0
    0.3810    1.6811    0.1631 C   0  0  0  0  0  0  0  0  0  0  0  0
    0.9987   -0.6025   -2.3248 S   0  0  0  0  0  0  0  0  0  0  0  0
    0.2875    0.5757   -2.7707 O   0  0  0  0  0  0  0  0  0  0  0  0
    2.6708   -0.4033   -2.8589 C   0  0  0  0  0  0  0  0  0  0  0  0
   -3.4808    0.4392    0.0462 S   0  0  0  0  0  0  0  0  0  0  0  0
   -3.7277    0.0101   -1.3135 O   0  0  0  0  0  0  0  0  0  0  0  0
   -4.2660   -0.6940    1.1455 C   0  0  0  0  0  0  0  0  0  0  0  0
    3.4309   -1.5469   -3.0860 C   0  0  0  0  0  0  0  0  0  0  0  0
    4.6946   -1.4178   -3.6437 C   0  0  0  0  0  0  0  0  0  0  0  0
    5.1860   -0.1547   -3.9977 C   0  0  0  0  0  0  0  0  0  0  0  0
    4.4235    0.9894   -3.7618 C   0  0  0  0  0  0  0  0  0  0  0  0
    3.1505    0.8679   -3.2039 C   0  0  0  0  0  0  0  0  0  0  0  0
   -4.0738   -0.5344    2.5216 C   0  0  0  0  0  0  0  0  0  0  0  0
   -4.7700   -1.3621    3.3923 C   0  0  0  0  0  0  0  0  0  0  0  0
   -5.6553   -2.3226    2.8905 C   0  0  0  0  0  0  0  0  0  0  0  0
   -5.8783   -2.4534    1.5150 C   0  0  0  0  0  0  0  0  0  0  0  0
   -5.1373   -1.6638    0.6391 C   0  0  0  0  0  0  0  0  0  0  0  0
    0.5670   -1.9229   -2.7338 O   0  0  0  0  0  0  0  0  0  0  0  0
   -3.8670    1.7613    0.4958 O   0  0  0  0  0  0  0  0  0  0  0  0
   -6.6608   -3.5045    1.0251 N   0  0  0  0  0  0  0  0  0  0  0  0
    5.3845   -2.5836   -3.8441 O   0  0  0  0  0  0  0  0  0  0  0  0
    6.7605   -2.3334   -4.1385 C   0  0  0  0  0  0  0  0  0  0  0  0
    6.8974   -1.2024   -5.1452 C   0  0  0  0  0  0  0  0  0  0  0  0
    6.4091    0.0268   -4.5932 O   0  0  0  0  0  0  0  0  0  0  0  0
    2.4001    0.9989   -0.2101 H   0  0  0  0  0  0  0  0  0  0  0  0
    1.6409    0.2920    1.1675 H   0  0  0  0  0  0  0  0  0  0  0  0
    0.3598   -1.4567    1.1701 H   0  0  0  0  0  0  0  0  0  0  0  0
    0.3375   -2.5174   -0.2098 H   0  0  0  0  0  0  0  0  0  0  0  0
   -1.9013   -1.8847    0.3890 H   0  0  0  0  0  0  0  0  0  0  0  0
   -1.5579   -1.2276   -1.2139 H   0  0  0  0  0  0  0  0  0  0  0  0
   -1.5852    2.3132    0.0398 H   0  0  0  0  0  0  0  0  0  0  0  0
   -1.1738    1.3674   -1.3453 H   0  0  0  0  0  0  0  0  0  0  0  0
    0.7431    2.5036   -0.4709 H   0  0  0  0  0  0  0  0  0  0  0  0
    0.3702    2.1084    1.1760 H   0  0  0  0  0  0  0  0  0  0  0  0
    3.0381   -2.5344   -2.8579 H   0  0  0  0  0  0  0  0  0  0  0  0
    4.8049    1.9660   -4.0483 H   0  0  0  0  0  0  0  0  0  0  0  0
    2.5323    1.7545   -3.0761 H   0  0  0  0  0  0  0  0  0  0  0  0
   -3.4027    0.2304    2.8976 H   0  0  0  0  0  0  0  0  0  0  0  0
   -4.6317   -1.2593    4.4652 H   0  0  0  0  0  0  0  0  0  0  0  0
   -6.1829   -2.9660    3.5897 H   0  0  0  0  0  0  0  0  0  0  0  0
   -5.2628   -1.7786   -0.4359 H   0  0  0  0  0  0  0  0  0  0  0  0
   -7.0099   -3.3583    0.0821 H   0  0  0  0  0  0  0  0  0  0  0  0
   -7.3936   -3.8045    1.6608 H   0  0  0  0  0  0  0  0  0  0  0  0
    7.1813   -3.2573   -4.5456 H   0  0  0  0  0  0  0  0  0  0  0  0
    7.2779   -2.1020   -3.1999 H   0  0  0  0  0  0  0  0  0  0  0  0
    7.9508   -1.0536   -5.4062 H   0  0  0  0  0  0  0  0  0  0  0  0
    6.3420   -1.4154   -6.0669 H   0  0  0  0  0  0  0  0  0  0  0  0
  1  2  1  0  0  0  0
  1 31  1  0  0  0  0
  1 32  1  0  0  0  0
  2  3  1  0  0  0  0
  2  8  1  0  0  0  0
  3  4  1  0  0  0  0
  3 33  1  0  0  0  0
  3 34  1  0  0  0  0
  4  5  1  0  0  0  0
  4 35  1  0  0  0  0
  4 36  1  0  0  0  0
  5  6  1  0  0  0  0
  5 11  1  0  0  0  0
  6  7  1  0  0  0  0
  6 37  1  0  0  0  0
  6 38  1  0  0  0  0
  7  1  1  0  0  0  0
  7 39  1  0  0  0  0
  7 40  1  0  0  0  0
  8  9  2  0  0  0  0
  8 10  1  0  0  0  0
  8 24  2  0  0  0  0
 10 14  2  0  0  0  0
 11 12  2  0  0  0  0
 11 13  1  0  0  0  0
 11 25  2  0  0  0  0
 13 19  2  0  0  0  0
 14 15  1  0  0  0  0
 14 41  1  0  0  0  0
 15 16  2  0  0  0  0
 15 27  1  0  0  0  0
 16 17  1  0  0  0  0
 17 18  2  0  0  0  0
 17 42  1  0  0  0  0
 18 10  1  0  0  0  0
 18 43  1  0  0  0  0
 19 20  1  0  0  0  0
 19 44  1  0  0  0  0
 20 21  2  0  0  0  0
 20 45  1  0  0  0  0
 21 22  1  0  0  0  0
 21 46  1  0  0  0  0
 22 23  2  0  0  0  0
 22 26  1  0  0  0  0
 23 13  1  0  0  0  0
 23 47  1  0  0  0  0
 26 48  1  0  0  0  0
 26 49  1  0  0  0  0
 27 28  1  0  0  0  0
 28 29  1  0  0  0  0
 28 50  1  0  0  0  0
 28 51  1  0  0  0  0
 29 30  1  0  0  0  0
 29 52  1  0  0  0  0
 29 53  1  0  0  0  0
 30 16  1  0  0  0  0
M  END
>  <Mol_ID>
2624

>  <Formula>
C19H23N3O6S2

>  <MolWeight>
453.53242

>  <Cat>
S7928

>  <Name>
DASA-58

>  <Synonyms>
N/A

>  <Target>
PKM

>  <Form>
free base

>  <CAS>
1203494-49-8

>  <URL>
http://selleckchem.com/products/dasa-58.html

$$$$
