Dasatinib.cdx
 OpenBabel08302521433D

 59 62  0  0  0  0  0  0  0  0999 V2000
   -0.1286    1.3388    0.1614 N   0  0  0  0  0  0  0  0  0  0  0  0
   -0.7254    0.1312    0.0288 C   0  0  0  0  0  0  0  0  0  0  0  0
   -0.0918   -1.0595   -0.0856 N   0  0  0  0  0  0  0  0  0  0  0  0
    1.2446   -1.0330   -0.0384 C   0  0  0  0  0  0  0  0  0  0  0  0
    1.9085    0.1532    0.1887 C   0  0  0  0  0  0  0  0  0  0  0  0
    1.2094    1.3431    0.2067 C   0  0  0  0  0  0  0  0  0  0  0  0
    2.0377   -2.1775   -0.2214 N   0  0  0  0  0  0  0  0  0  0  0  0
    1.3961   -3.4819   -0.0510 C   0  0  0  0  0  0  0  0  0  0  0  0
    2.5049   -4.5787   -0.0281 C   0  0  0  0  0  0  0  0  0  0  0  0
    3.4460   -4.5985   -1.1886 N   0  0  0  0  0  0  0  0  0  0  0  0
    3.9374   -3.2184   -1.4192 C   0  0  0  0  0  0  0  0  0  0  0  0
    2.8630   -2.1075   -1.4473 C   0  0  0  0  0  0  0  0  0  0  0  0
    2.8031   -5.2207   -2.3633 C   0  0  0  0  0  0  0  0  0  0  0  0
    3.7063   -5.3368   -3.6061 C   0  0  0  0  0  0  0  0  0  0  0  0
    4.9396   -5.9749   -3.2868 O   0  0  0  0  0  0  0  0  0  0  0  0
   -2.2239    0.1069    0.0051 C   0  0  0  0  0  0  0  0  0  0  0  0
    1.8808    2.5801    0.2712 N   0  0  0  0  0  0  0  0  0  0  0  0
    3.1649    2.7647   -0.1258 C   0  0  0  0  0  0  0  0  0  0  0  0
    3.8505    1.8849   -0.8246 N   0  0  0  0  0  0  0  0  0  0  0  0
    5.1661    2.2359   -0.9015 C   0  0  0  0  0  0  0  0  0  0  0  0
    5.4954    3.4438   -0.3277 C   0  0  0  0  0  0  0  0  0  0  0  0
    4.0780    4.1859    0.2785 S   0  0  0  0  0  0  0  0  0  0  0  0
    6.8451    3.9554   -0.2725 C   0  0  0  0  0  0  0  0  0  0  0  0
    7.0473    5.1797    0.3434 N   0  0  0  0  0  0  0  0  0  0  0  0
    7.7544    3.2636   -0.7292 O   0  0  0  0  0  0  0  0  0  0  0  0
    8.2964    5.8491    0.4431 C   0  0  0  0  0  0  0  0  0  0  0  0
    9.3864    5.4885   -0.3678 C   0  0  0  0  0  0  0  0  0  0  0  0
   10.6224    6.1218   -0.2592 C   0  0  0  0  0  0  0  0  0  0  0  0
   10.7889    7.1520    0.6511 C   0  0  0  0  0  0  0  0  0  0  0  0
    9.7145    7.5489    1.4471 C   0  0  0  0  0  0  0  0  0  0  0  0
    8.4634    6.9028    1.3628 C   0  0  0  0  0  0  0  0  0  0  0  0
    7.3683    7.3641    2.2869 C   0  0  0  0  0  0  0  0  0  0  0  0
    2.9806    0.1229    0.3275 H   0  0  0  0  0  0  0  0  0  0  0  0
    0.8561   -3.5195    0.9028 H   0  0  0  0  0  0  0  0  0  0  0  0
    0.6806   -3.6774   -0.8586 H   0  0  0  0  0  0  0  0  0  0  0  0
    3.1153   -4.4204    0.8718 H   0  0  0  0  0  0  0  0  0  0  0  0
    2.0431   -5.5647    0.0992 H   0  0  0  0  0  0  0  0  0  0  0  0
    4.6337   -2.9863   -0.6015 H   0  0  0  0  0  0  0  0  0  0  0  0
    4.5465   -3.1578   -2.3270 H   0  0  0  0  0  0  0  0  0  0  0  0
    2.2279   -2.2135   -2.3362 H   0  0  0  0  0  0  0  0  0  0  0  0
    3.3884   -1.1487   -1.5340 H   0  0  0  0  0  0  0  0  0  0  0  0
    2.5519   -6.2498   -2.0734 H   0  0  0  0  0  0  0  0  0  0  0  0
    1.8718   -4.7171   -2.6393 H   0  0  0  0  0  0  0  0  0  0  0  0
    3.2079   -5.9395   -4.3720 H   0  0  0  0  0  0  0  0  0  0  0  0
    3.9199   -4.3582   -4.0459 H   0  0  0  0  0  0  0  0  0  0  0  0
    5.1031   -5.7826   -2.3426 H   0  0  0  0  0  0  0  0  0  0  0  0
   -2.5763   -0.4186   -0.8861 H   0  0  0  0  0  0  0  0  0  0  0  0
   -2.6011   -0.4063    0.8946 H   0  0  0  0  0  0  0  0  0  0  0  0
   -2.6331    1.1232   -0.0088 H   0  0  0  0  0  0  0  0  0  0  0  0
    1.2452    3.3610    0.3489 H   0  0  0  0  0  0  0  0  0  0  0  0
    5.8723    1.5604   -1.3733 H   0  0  0  0  0  0  0  0  0  0  0  0
    6.2589    5.5780    0.8345 H   0  0  0  0  0  0  0  0  0  0  0  0
    9.3084    4.7170   -1.1274 H   0  0  0  0  0  0  0  0  0  0  0  0
   11.4478    5.8005   -0.8903 H   0  0  0  0  0  0  0  0  0  0  0  0
   11.7520    7.6459    0.7394 H   0  0  0  0  0  0  0  0  0  0  0  0
    9.8676    8.3639    2.1511 H   0  0  0  0  0  0  0  0  0  0  0  0
    6.5693    7.8473    1.7176 H   0  0  0  0  0  0  0  0  0  0  0  0
    6.9637    6.5184    2.8509 H   0  0  0  0  0  0  0  0  0  0  0  0
    7.7428    8.0870    3.0191 H   0  0  0  0  0  0  0  0  0  0  0  0
  1  2  2  0  0  0  0
  2  3  1  0  0  0  0
  2 16  1  0  0  0  0
  3  4  2  0  0  0  0
  4  5  1  0  0  0  0
  4  7  1  0  0  0  0
  5  6  2  0  0  0  0
  5 33  1  0  0  0  0
  6  1  1  0  0  0  0
  6 17  1  0  0  0  0
  7  8  1  0  0  0  0
  8  9  1  0  0  0  0
  8 34  1  0  0  0  0
  8 35  1  0  0  0  0
  9 10  1  0  0  0  0
  9 36  1  0  0  0  0
  9 37  1  0  0  0  0
 10 11  1  0  0  0  0
 10 13  1  0  0  0  0
 11 12  1  0  0  0  0
 11 38  1  0  0  0  0
 11 39  1  0  0  0  0
 12  7  1  0  0  0  0
 12 40  1  0  0  0  0
 12 41  1  0  0  0  0
 13 14  1  0  0  0  0
 13 42  1  0  0  0  0
 13 43  1  0  0  0  0
 14 15  1  0  0  0  0
 14 44  1  0  0  0  0
 14 45  1  0  0  0  0
 15 46  1  0  0  0  0
 16 47  1  0  0  0  0
 16 48  1  0  0  0  0
 16 49  1  0  0  0  0
 17 18  1  0  0  0  0
 17 50  1  0  0  0  0
 18 19  2  0  0  0  0
 19 20  1  0  0  0  0
 20 21  2  0  0  0  0
 20 51  1  0  0  0  0
 21 22  1  0  0  0  0
 21 23  1  0  0  0  0
 22 18  1  0  0  0  0
 23 24  1  0  0  0  0
 23 25  2  0  0  0  0
 24 26  1  0  0  0  0
 24 52  1  0  0  0  0
 26 27  2  0  0  0  0
 27 28  1  0  0  0  0
 27 53  1  0  0  0  0
 28 29  2  0  0  0  0
 28 54  1  0  0  0  0
 29 30  1  0  0  0  0
 29 55  1  0  0  0  0
 30 31  2  0  0  0  0
 30 56  1  0  0  0  0
 31 26  1  0  0  0  0
 31 32  1  0  0  0  0
 32 57  1  0  0  0  0
 32 58  1  0  0  0  0
 32 59  1  0  0  0  0
M  END
>  <Mol_ID>
11

>  <Formula>
C22H26ClN7O2S

>  <MolWeight>
488.00554

>  <Cat>
S1021

>  <Name>
Dasatinib (BMS-354825)

>  <Synonyms>
BMS-354825

>  <Target>
Apoptosis related,Autophagy,Bcr-Abl,c-Kit,Src

>  <Form>
free base

>  <CAS>
302962-49-8

>  <URL>
http://selleckchem.com/products/Dasatinib.html

$$$$
