Dazoxiben hydrochloride
 OpenBabel08302521263D

 29 30  0  0  0  0  0  0  0  0999 V2000
    1.0539    0.1508   -0.5319 O   0  0  0  0  0  0  0  0  0  0  0  0
    7.1776   -1.3849   -1.3489 O   0  0  0  0  0  0  0  0  0  0  0  0
    7.2937   -0.3049    0.6346 O   0  0  0  0  0  0  0  0  0  0  0  0
   -1.6289    2.6687   -0.3744 N   0  0  0  0  0  0  0  0  0  0  0  0
   -2.7539    4.2880    0.6252 N   0  0  0  0  0  0  0  0  0  0  0  0
   -0.9867    1.3908   -0.5776 C   0  0  0  0  0  0  0  0  0  0  0  0
    0.4861    1.4155   -0.1825 C   0  0  0  0  0  0  0  0  0  0  0  0
    2.4156    0.0439   -0.4724 C   0  0  0  0  0  0  0  0  0  0  0  0
   -1.6582    3.7061   -1.2635 C   0  0  0  0  0  0  0  0  0  0  0  0
   -2.3160    3.0544    0.7393 C   0  0  0  0  0  0  0  0  0  0  0  0
    3.2816    0.9501    0.1387 C   0  0  0  0  0  0  0  0  0  0  0  0
    2.9371   -1.1106   -1.0651 C   0  0  0  0  0  0  0  0  0  0  0  0
    5.1809   -0.4572   -0.4385 C   0  0  0  0  0  0  0  0  0  0  0  0
   -2.3524    4.7029   -0.6184 C   0  0  0  0  0  0  0  0  0  0  0  0
    4.6590    0.7001    0.1543 C   0  0  0  0  0  0  0  0  0  0  0  0
    4.3124   -1.3673   -1.0513 C   0  0  0  0  0  0  0  0  0  0  0  0
    6.6409   -0.7081   -0.3143 C   0  0  0  0  0  0  0  0  0  0  0  0
    6.5966   -1.4914   -2.1231 H   0  0  0  0  0  0  0  0  0  0  0  0
   -1.0982    1.1207   -1.6346 H   0  0  0  0  0  0  0  0  0  0  0  0
   -1.5320    0.6321   -0.0039 H   0  0  0  0  0  0  0  0  0  0  0  0
    0.5803    1.5844    0.8977 H   0  0  0  0  0  0  0  0  0  0  0  0
    0.9959    2.2225   -0.7230 H   0  0  0  0  0  0  0  0  0  0  0  0
   -1.1992    3.6588   -2.2410 H   0  0  0  0  0  0  0  0  0  0  0  0
   -2.4652    2.4120    1.5978 H   0  0  0  0  0  0  0  0  0  0  0  0
    2.9217    1.8465    0.6338 H   0  0  0  0  0  0  0  0  0  0  0  0
    2.2603   -1.8272   -1.5263 H   0  0  0  0  0  0  0  0  0  0  0  0
   -2.5861    5.6950   -0.9832 H   0  0  0  0  0  0  0  0  0  0  0  0
    5.3263    1.4034    0.6514 H   0  0  0  0  0  0  0  0  0  0  0  0
    4.6732   -2.2979   -1.4798 H   0  0  0  0  0  0  0  0  0  0  0  0
  1  7  1  0  0  0  0
  1  8  1  0  0  0  0
  2 17  1  0  0  0  0
  2 18  1  0  0  0  0
  3 17  2  0  0  0  0
  4  6  1  0  0  0  0
  4  9  1  0  0  0  0
  4 10  1  0  0  0  0
  5 10  2  0  0  0  0
  5 14  1  0  0  0  0
  6  7  1  0  0  0  0
  6 19  1  0  0  0  0
  6 20  1  0  0  0  0
  7 21  1  0  0  0  0
  7 22  1  0  0  0  0
  8 11  2  0  0  0  0
  8 12  1  0  0  0  0
  9 14  2  0  0  0  0
  9 23  1  0  0  0  0
 10 24  1  0  0  0  0
 11 15  1  0  0  0  0
 11 25  1  0  0  0  0
 12 16  2  0  0  0  0
 12 26  1  0  0  0  0
 13 15  2  0  0  0  0
 13 16  1  0  0  0  0
 13 17  1  0  0  0  0
 14 27  1  0  0  0  0
 15 28  1  0  0  0  0
 16 29  1  0  0  0  0
M  END
>  <Mol_ID>
5270

>  <Formula>
C12H13ClN2O3

>  <MolWeight>
268.69622

>  <Cat>
S0541

>  <Name>
Dazoxiben hydrochloride

>  <Synonyms>
Dazoxiben HCl

>  <Target>
P450 (e.g. CYP17),PGES,Prostaglandin Receptor

>  <Form>
Hydrochloride

>  <CAS>
74226-22-5

>  <URL>
https://www.selleckchem.com/products/dazoxiben.html

$$$$
