DB07268
 OpenBabel08302521233D

 39 41  0  0  0  0  0  0  0  0999 V2000
   -0.0648   -1.1632    0.6337 C   0  0  0  0  0  0  0  0  0  0  0  0
    1.2315   -1.8875    0.5107 C   0  0  0  0  0  0  0  0  0  0  0  0
    2.2081   -1.7889    1.5296 C   0  0  0  0  0  0  0  0  0  0  0  0
    3.4223   -2.4837    1.3516 C   0  0  0  0  0  0  0  0  0  0  0  0
    3.6257   -3.3195    0.2544 C   0  0  0  0  0  0  0  0  0  0  0  0
    2.6405   -3.4428   -0.7156 C   0  0  0  0  0  0  0  0  0  0  0  0
    1.4511   -2.7261   -0.5967 C   0  0  0  0  0  0  0  0  0  0  0  0
   -0.5060   -0.8271    1.7267 O   0  0  0  0  0  0  0  0  0  0  0  0
   -0.7462   -0.8700   -0.5175 N   0  0  0  0  0  0  0  0  0  0  0  0
    2.0517   -0.9174    2.6380 N   0  0  0  0  0  0  0  0  0  0  0  0
    3.3036   -0.0078    5.8645 C   0  0  0  0  0  0  0  0  0  0  0  0
    2.8187    0.0724    4.6169 N   0  0  0  0  0  0  0  0  0  0  0  0
    2.5864   -1.0564    3.9332 C   0  0  0  0  0  0  0  0  0  0  0  0
    2.7766   -2.2908    4.5141 C   0  0  0  0  0  0  0  0  0  0  0  0
    3.2560   -2.2911    5.7988 C   0  0  0  0  0  0  0  0  0  0  0  0
    3.5219   -1.1726    6.4933 N   0  0  0  0  0  0  0  0  0  0  0  0
    3.6628    1.1386    6.5805 N   0  0  0  0  0  0  0  0  0  0  0  0
    4.0713    2.3941    6.0970 C   0  0  0  0  0  0  0  0  0  0  0  0
    3.6644    2.9009    4.8571 C   0  0  0  0  0  0  0  0  0  0  0  0
    4.1419    4.1228    4.3909 C   0  0  0  0  0  0  0  0  0  0  0  0
    5.0232    4.8782    5.1528 C   0  0  0  0  0  0  0  0  0  0  0  0
    5.4143    4.4081    6.4035 C   0  0  0  0  0  0  0  0  0  0  0  0
    4.9342    3.1811    6.8762 C   0  0  0  0  0  0  0  0  0  0  0  0
    3.7672    4.6020    3.1688 O   0  0  0  0  0  0  0  0  0  0  0  0
    4.2260   -2.3731    2.0728 H   0  0  0  0  0  0  0  0  0  0  0  0
    4.5596   -3.8689    0.1612 H   0  0  0  0  0  0  0  0  0  0  0  0
    2.7988   -4.0970   -1.5701 H   0  0  0  0  0  0  0  0  0  0  0  0
    0.6931   -2.8551   -1.3628 H   0  0  0  0  0  0  0  0  0  0  0  0
   -0.3363   -0.9399   -1.4382 H   0  0  0  0  0  0  0  0  0  0  0  0
   -1.5972   -0.3299   -0.4242 H   0  0  0  0  0  0  0  0  0  0  0  0
    1.0720   -0.6218    2.7373 H   0  0  0  0  0  0  0  0  0  0  0  0
    2.5571   -3.2143    3.9975 H   0  0  0  0  0  0  0  0  0  0  0  0
    3.4497   -3.2229    6.3217 H   0  0  0  0  0  0  0  0  0  0  0  0
    4.0556    0.8493    7.4643 H   0  0  0  0  0  0  0  0  0  0  0  0
    2.9669    2.3447    4.2423 H   0  0  0  0  0  0  0  0  0  0  0  0
    5.3974    5.8224    4.7725 H   0  0  0  0  0  0  0  0  0  0  0  0
    6.1035    4.9919    7.0079 H   0  0  0  0  0  0  0  0  0  0  0  0
    5.2654    2.8333    7.8514 H   0  0  0  0  0  0  0  0  0  0  0  0
    3.1857    3.9372    2.7549 H   0  0  0  0  0  0  0  0  0  0  0  0
  1  2  1  0  0  0  0
  1  8  2  0  0  0  0
  1  9  1  0  0  0  0
  2  3  2  0  0  0  0
  2  7  1  0  0  0  0
  3  4  1  0  0  0  0
  3 10  1  0  0  0  0
  4  5  2  0  0  0  0
  4 25  1  0  0  0  0
  5  6  1  0  0  0  0
  5 26  1  0  0  0  0
  6  7  2  0  0  0  0
  6 27  1  0  0  0  0
  7 28  1  0  0  0  0
  9 29  1  0  0  0  0
  9 30  1  0  0  0  0
 10 13  1  0  0  0  0
 10 31  1  0  0  0  0
 11 12  2  0  0  0  0
 11 16  1  0  0  0  0
 11 17  1  0  0  0  0
 12 13  1  0  0  0  0
 13 14  2  0  0  0  0
 14 15  1  0  0  0  0
 14 32  1  0  0  0  0
 15 16  2  0  0  0  0
 15 33  1  0  0  0  0
 17 18  1  0  0  0  0
 17 34  1  0  0  0  0
 18 19  2  0  0  0  0
 18 23  1  0  0  0  0
 19 20  1  0  0  0  0
 19 35  1  0  0  0  0
 20 21  2  0  0  0  0
 20 24  1  0  0  0  0
 21 22  1  0  0  0  0
 21 36  1  0  0  0  0
 22 23  2  0  0  0  0
 22 37  1  0  0  0  0
 23 38  1  0  0  0  0
 24 39  1  0  0  0  0
M  END
>  <Mol_ID>
4785

>  <Formula>
C17H15N5O2

>  <MolWeight>
321.3333

>  <Cat>
S6740

>  <Name>
DB07268

>  <Synonyms>
N/A

>  <Target>
Chk,JNK

>  <Form>
Free Base

>  <CAS>
929007-72-7

>  <URL>
http://www.selleck.cn/products/db07268.html

$$$$
