DBeQ.cdx
 OpenBabel08302519553D

 46 49  0  0  0  0  0  0  0  0999 V2000
    2.4544   -0.8856   -0.0128 C   0  0  0  0  0  0  0  0  0  0  0  0
    2.5968    0.4829   -0.0945 C   0  0  0  0  0  0  0  0  0  0  0  0
    1.4566    1.2769   -0.1446 C   0  0  0  0  0  0  0  0  0  0  0  0
    0.1333    0.7335   -0.0805 C   0  0  0  0  0  0  0  0  0  0  0  0
    0.0188   -0.6605   -0.0404 C   0  0  0  0  0  0  0  0  0  0  0  0
    1.1713   -1.4394   -0.0036 C   0  0  0  0  0  0  0  0  0  0  0  0
   -1.1036    1.4196   -0.0631 C   0  0  0  0  0  0  0  0  0  0  0  0
   -2.2764    0.7531   -0.0468 N   0  0  0  0  0  0  0  0  0  0  0  0
   -2.2635   -0.5794   -0.0619 C   0  0  0  0  0  0  0  0  0  0  0  0
   -1.1502   -1.3057   -0.0517 N   0  0  0  0  0  0  0  0  0  0  0  0
   -3.4944   -1.1910   -0.1379 N   0  0  0  0  0  0  0  0  0  0  0  0
   -3.5492   -2.6083   -0.4097 C   0  0  0  0  0  0  0  0  0  0  0  0
   -4.9603   -2.9922   -0.8148 C   0  0  0  0  0  0  0  0  0  0  0  0
   -5.6439   -2.2480   -1.7970 C   0  0  0  0  0  0  0  0  0  0  0  0
   -6.9197   -2.6229   -2.2200 C   0  0  0  0  0  0  0  0  0  0  0  0
   -7.5293   -3.7493   -1.6750 C   0  0  0  0  0  0  0  0  0  0  0  0
   -6.8647   -4.4990   -0.7064 C   0  0  0  0  0  0  0  0  0  0  0  0
   -5.5854   -4.1240   -0.2794 C   0  0  0  0  0  0  0  0  0  0  0  0
   -1.2914    2.7963   -0.1276 N   0  0  0  0  0  0  0  0  0  0  0  0
   -0.2478    3.7228    0.2337 C   0  0  0  0  0  0  0  0  0  0  0  0
   -0.7672    5.1013    0.5552 C   0  0  0  0  0  0  0  0  0  0  0  0
   -1.6866    5.2956    1.5921 C   0  0  0  0  0  0  0  0  0  0  0  0
   -2.0388    6.5902    1.9818 C   0  0  0  0  0  0  0  0  0  0  0  0
   -1.4798    7.6942    1.3315 C   0  0  0  0  0  0  0  0  0  0  0  0
   -0.5724    7.5060    0.2915 C   0  0  0  0  0  0  0  0  0  0  0  0
   -0.2181    6.2229   -0.0922 C   0  0  0  0  0  0  0  0  0  0  0  0
    3.3309   -1.5236    0.0318 H   0  0  0  0  0  0  0  0  0  0  0  0
    3.5801    0.9453   -0.1187 H   0  0  0  0  0  0  0  0  0  0  0  0
    1.6483    2.3337   -0.2326 H   0  0  0  0  0  0  0  0  0  0  0  0
    1.0693   -2.5223    0.0392 H   0  0  0  0  0  0  0  0  0  0  0  0
   -4.1168   -0.8307    0.5751 H   0  0  0  0  0  0  0  0  0  0  0  0
   -2.8976   -2.8687   -1.2538 H   0  0  0  0  0  0  0  0  0  0  0  0
   -3.2279   -3.1888    0.4612 H   0  0  0  0  0  0  0  0  0  0  0  0
   -5.1717   -1.3714   -2.2369 H   0  0  0  0  0  0  0  0  0  0  0  0
   -7.4325   -2.0355   -2.9773 H   0  0  0  0  0  0  0  0  0  0  0  0
   -8.5205   -4.0451   -2.0099 H   0  0  0  0  0  0  0  0  0  0  0  0
   -7.3402   -5.3807   -0.2865 H   0  0  0  0  0  0  0  0  0  0  0  0
   -5.0835   -4.7285    0.4707 H   0  0  0  0  0  0  0  0  0  0  0  0
   -1.7328    3.0150   -1.0164 H   0  0  0  0  0  0  0  0  0  0  0  0
    0.2831    3.3855    1.1307 H   0  0  0  0  0  0  0  0  0  0  0  0
    0.4418    3.8248   -0.6049 H   0  0  0  0  0  0  0  0  0  0  0  0
   -2.1077    4.4426    2.1181 H   0  0  0  0  0  0  0  0  0  0  0  0
   -2.7382    6.7371    2.8008 H   0  0  0  0  0  0  0  0  0  0  0  0
   -1.7477    8.6977    1.6472 H   0  0  0  0  0  0  0  0  0  0  0  0
   -0.1285    8.3646   -0.2023 H   0  0  0  0  0  0  0  0  0  0  0  0
    0.5182    6.0907   -0.8874 H   0  0  0  0  0  0  0  0  0  0  0  0
  1  2  2  0  0  0  0
  1 27  1  0  0  0  0
  2  3  1  0  0  0  0
  2 28  1  0  0  0  0
  3  4  2  0  0  0  0
  3 29  1  0  0  0  0
  4  5  1  0  0  0  0
  4  7  1  0  0  0  0
  5  6  2  0  0  0  0
  6  1  1  0  0  0  0
  6 30  1  0  0  0  0
  7  8  2  0  0  0  0
  7 19  1  0  0  0  0
  8  9  1  0  0  0  0
  9 10  2  0  0  0  0
  9 11  1  0  0  0  0
 10  5  1  0  0  0  0
 11 12  1  0  0  0  0
 11 31  1  0  0  0  0
 12 13  1  0  0  0  0
 12 32  1  0  0  0  0
 12 33  1  0  0  0  0
 13 14  2  0  0  0  0
 14 15  1  0  0  0  0
 14 34  1  0  0  0  0
 15 16  2  0  0  0  0
 15 35  1  0  0  0  0
 16 17  1  0  0  0  0
 16 36  1  0  0  0  0
 17 18  2  0  0  0  0
 17 37  1  0  0  0  0
 18 13  1  0  0  0  0
 18 38  1  0  0  0  0
 19 20  1  0  0  0  0
 19 39  1  0  0  0  0
 20 21  1  0  0  0  0
 20 40  1  0  0  0  0
 20 41  1  0  0  0  0
 21 22  2  0  0  0  0
 22 23  1  0  0  0  0
 22 42  1  0  0  0  0
 23 24  2  0  0  0  0
 23 43  1  0  0  0  0
 24 25  1  0  0  0  0
 24 44  1  0  0  0  0
 25 26  2  0  0  0  0
 25 45  1  0  0  0  0
 26 21  1  0  0  0  0
 26 46  1  0  0  0  0
M  END
>  <Mol_ID>
2159

>  <Formula>
C22H20N4

>  <MolWeight>
340.421

>  <Cat>
S7199

>  <Name>
DBeQ

>  <Synonyms>
JRF 12

>  <Target>
p97

>  <Form>
free base

>  <CAS>
177355-84-9

>  <URL>
http://selleckchem.com/products/dbeq.html

$$$$
