DC-05
 OpenBabel08302521323D

 54 58  0  0  0  0  0  0  0  0999 V2000
    0.5805    0.0200   -0.0404 C   0  0  0  0  0  0  0  0  0  0  0  0
    0.4161    1.5159    0.2999 C   0  0  3  0  0  0  0  0  0  0  0  0
    0.0836   -0.9415    0.9502 N   0  0  0  0  0  0  0  0  0  0  0  0
    1.1768    2.4002   -0.7397 C   0  0  0  0  0  0  0  0  0  0  0  0
   -0.9718    1.8881    0.2501 O   0  0  0  0  0  0  0  0  0  0  0  0
   -0.8517   -1.9364    0.6794 C   0  0  0  0  0  0  0  0  0  0  0  0
    0.6947   -1.1891    2.1738 C   0  0  0  0  0  0  0  0  0  0  0  0
    1.1240    3.8228   -0.3573 N   0  0  0  0  0  0  0  0  0  0  0  0
   -0.7999   -2.8513    1.7353 C   0  0  0  0  0  0  0  0  0  0  0  0
   -1.6910   -2.1593   -0.4278 C   0  0  0  0  0  0  0  0  0  0  0  0
    0.1130   -2.3448    2.7045 C   0  0  0  0  0  0  0  0  0  0  0  0
    1.7403   -0.5369    2.8436 C   0  0  0  0  0  0  0  0  0  0  0  0
    1.7136    4.7330   -1.3613 C   0  0  0  0  0  0  0  0  0  0  0  0
   -1.5426   -4.0500    1.6537 C   0  0  0  0  0  0  0  0  0  0  0  0
   -2.3911   -3.3712   -0.5007 C   0  0  0  0  0  0  0  0  0  0  0  0
    0.5475   -2.8286    3.9588 C   0  0  0  0  0  0  0  0  0  0  0  0
    2.1789   -1.0508    4.0719 C   0  0  0  0  0  0  0  0  0  0  0  0
    1.5305    6.1938   -0.9063 C   0  0  0  0  0  0  0  0  0  0  0  0
   -2.3033   -4.3156    0.5152 C   0  0  0  0  0  0  0  0  0  0  0  0
    1.5814   -2.1738    4.6309 C   0  0  0  0  0  0  0  0  0  0  0  0
    2.0267    7.2545   -1.8566 C   0  0  0  0  0  0  0  0  0  0  0  0
    3.2950    7.9329   -1.8383 C   0  0  0  0  0  0  0  0  0  0  0  0
    1.2798    7.8590   -2.8507 C   0  0  0  0  0  0  0  0  0  0  0  0
    3.2358    8.9723   -2.7681 C   0  0  0  0  0  0  0  0  0  0  0  0
    4.4761    7.7923   -1.0773 C   0  0  0  0  0  0  0  0  0  0  0  0
    2.0123    8.8846   -3.3860 N   0  0  0  0  0  0  0  0  0  0  0  0
    4.2726    9.8947   -2.9508 C   0  0  0  0  0  0  0  0  0  0  0  0
    5.5358    8.6895   -1.2687 C   0  0  0  0  0  0  0  0  0  0  0  0
    5.4287    9.7337   -2.1837 C   0  0  0  0  0  0  0  0  0  0  0  0
    1.6384   -0.2299   -0.1814 H   0  0  0  0  0  0  0  0  0  0  0  0
    0.0648   -0.1867   -0.9833 H   0  0  0  0  0  0  0  0  0  0  0  0
    0.7888    1.7377    1.3055 H   0  0  0  0  0  0  0  0  0  0  0  0
    2.2213    2.0783   -0.8137 H   0  0  0  0  0  0  0  0  0  0  0  0
    0.6993    2.2759   -1.7197 H   0  0  0  0  0  0  0  0  0  0  0  0
   -1.4705    1.2411    0.7815 H   0  0  0  0  0  0  0  0  0  0  0  0
    0.1375    4.0601   -0.2153 H   0  0  0  0  0  0  0  0  0  0  0  0
   -1.7740   -1.4427   -1.2380 H   0  0  0  0  0  0  0  0  0  0  0  0
    2.2288    0.3369    2.4258 H   0  0  0  0  0  0  0  0  0  0  0  0
    2.7826    4.5177   -1.4770 H   0  0  0  0  0  0  0  0  0  0  0  0
    1.2346    4.5872   -2.3371 H   0  0  0  0  0  0  0  0  0  0  0  0
   -1.4743   -4.7904    2.4463 H   0  0  0  0  0  0  0  0  0  0  0  0
   -2.9956   -3.5890   -1.3784 H   0  0  0  0  0  0  0  0  0  0  0  0
    0.1040   -3.7252    4.3842 H   0  0  0  0  0  0  0  0  0  0  0  0
    3.0034   -0.5680    4.5923 H   0  0  0  0  0  0  0  0  0  0  0  0
    0.4600    6.3780   -0.7367 H   0  0  0  0  0  0  0  0  0  0  0  0
    2.0171    6.3370    0.0668 H   0  0  0  0  0  0  0  0  0  0  0  0
   -2.8173   -5.2693    0.4225 H   0  0  0  0  0  0  0  0  0  0  0  0
    1.9349   -2.5622    5.5829 H   0  0  0  0  0  0  0  0  0  0  0  0
    0.2687    7.6813   -3.1898 H   0  0  0  0  0  0  0  0  0  0  0  0
    4.5678    6.9945   -0.3462 H   0  0  0  0  0  0  0  0  0  0  0  0
    1.6923    9.5197   -4.1035 H   0  0  0  0  0  0  0  0  0  0  0  0
    4.1844   10.7168   -3.6536 H   0  0  0  0  0  0  0  0  0  0  0  0
    6.4479    8.5767   -0.6876 H   0  0  0  0  0  0  0  0  0  0  0  0
    6.2518   10.4349   -2.3007 H   0  0  0  0  0  0  0  0  0  0  0  0
  1  2  1  0  0  0  0
  1  3  1  0  0  0  0
  1 30  1  0  0  0  0
  1 31  1  0  0  0  0
  2  4  1  0  0  0  0
  2  5  1  0  0  0  0
  2 32  1  0  0  0  0
  3  6  1  0  0  0  0
  3  7  1  0  0  0  0
  4  8  1  0  0  0  0
  4 33  1  0  0  0  0
  4 34  1  0  0  0  0
  5 35  1  0  0  0  0
  6  9  1  0  0  0  0
  6 10  2  0  0  0  0
  7 11  2  0  0  0  0
  7 12  1  0  0  0  0
  8 13  1  0  0  0  0
  8 36  1  0  0  0  0
  9 11  1  0  0  0  0
  9 14  2  0  0  0  0
 10 15  1  0  0  0  0
 10 37  1  0  0  0  0
 11 16  1  0  0  0  0
 12 17  2  0  0  0  0
 12 38  1  0  0  0  0
 13 18  1  0  0  0  0
 13 39  1  0  0  0  0
 13 40  1  0  0  0  0
 14 19  1  0  0  0  0
 14 41  1  0  0  0  0
 15 19  2  0  0  0  0
 15 42  1  0  0  0  0
 16 20  2  0  0  0  0
 16 43  1  0  0  0  0
 17 20  1  0  0  0  0
 17 44  1  0  0  0  0
 18 21  1  0  0  0  0
 18 45  1  0  0  0  0
 18 46  1  0  0  0  0
 19 47  1  0  0  0  0
 20 48  1  0  0  0  0
 21 22  1  0  0  0  0
 21 23  2  0  0  0  0
 22 24  2  0  0  0  0
 22 25  1  0  0  0  0
 23 26  1  0  0  0  0
 23 49  1  0  0  0  0
 24 26  1  0  0  0  0
 24 27  1  0  0  0  0
 25 28  2  0  0  0  0
 25 50  1  0  0  0  0
 26 51  1  0  0  0  0
 27 29  2  0  0  0  0
 27 52  1  0  0  0  0
 28 29  1  0  0  0  0
 28 53  1  0  0  0  0
 29 54  1  0  0  0  0
M  END
>  <Mol_ID>
6222

>  <Formula>
C25H25N3O

>  <MolWeight>
383.4855

>  <Cat>
S3543

>  <Name>
DC-05

>  <Target>
DNA Methyltransferase

>  <Form>
free base

>  <CAS>
890643-16-0

>  <URL>
http://www.selleckchem.com/products/dc-05.html

$$$$
