DC260126
 OpenBabel08302521323D

 39 40  0  0  0  0  0  0  0  0999 V2000
   -2.7368    0.6514    1.9463 C   0  0  0  0  0  0  0  0  0  0  0  0
   -3.2550    0.8955    3.2244 C   0  0  0  0  0  0  0  0  0  0  0  0
   -2.3910    1.3020    4.2458 C   0  0  0  0  0  0  0  0  0  0  0  0
   -1.0290    1.4392    3.9850 C   0  0  0  0  0  0  0  0  0  0  0  0
   -0.5057    1.1587    2.7278 C   0  0  0  0  0  0  0  0  0  0  0  0
   -1.3603    0.7534    1.7031 C   0  0  0  0  0  0  0  0  0  0  0  0
   -3.8087    0.1416    0.6142 S   0  0  0  0  0  0  0  0  0  0  0  0
   -2.9977   -0.5439   -0.3677 O   0  0  0  0  0  0  0  0  0  0  0  0
   -4.9619   -0.5002    1.2135 O   0  0  0  0  0  0  0  0  0  0  0  0
   -4.3909    1.5773   -0.0633 N   0  0  0  0  0  0  0  0  0  0  0  0
   -0.2081    1.8434    4.9633 F   0  0  0  0  0  0  0  0  0  0  0  0
   -3.5311    2.7028   -0.1790 C   0  0  0  0  0  0  0  0  0  0  0  0
   -2.5796    2.7948   -1.1909 C   0  0  0  0  0  0  0  0  0  0  0  0
   -1.7123    3.8952   -1.2324 C   0  0  0  0  0  0  0  0  0  0  0  0
   -1.7762    4.8945   -0.2466 C   0  0  0  0  0  0  0  0  0  0  0  0
   -2.7373    4.7812    0.7648 C   0  0  0  0  0  0  0  0  0  0  0  0
   -3.6123    3.6978    0.7973 C   0  0  0  0  0  0  0  0  0  0  0  0
   -0.8058    6.0529   -0.2276 C   0  0  0  0  0  0  0  0  0  0  0  0
   -0.8377    6.9662   -1.4572 C   0  0  0  0  0  0  0  0  0  0  0  0
   -2.1762    7.6831   -1.6474 C   0  0  0  0  0  0  0  0  0  0  0  0
   -2.1364    8.6125   -2.8517 C   0  0  0  0  0  0  0  0  0  0  0  0
   -4.3154    0.7736    3.4332 H   0  0  0  0  0  0  0  0  0  0  0  0
   -2.7647    1.5097    5.2439 H   0  0  0  0  0  0  0  0  0  0  0  0
    0.5615    1.2556    2.5524 H   0  0  0  0  0  0  0  0  0  0  0  0
   -0.9530    0.5281    0.7200 H   0  0  0  0  0  0  0  0  0  0  0  0
   -5.3433    1.7611    0.2469 H   0  0  0  0  0  0  0  0  0  0  0  0
   -2.5117    2.0249   -1.9568 H   0  0  0  0  0  0  0  0  0  0  0  0
   -0.9794    3.9628   -2.0337 H   0  0  0  0  0  0  0  0  0  0  0  0
   -2.8031    5.5327    1.5494 H   0  0  0  0  0  0  0  0  0  0  0  0
   -4.3365    3.6248    1.6012 H   0  0  0  0  0  0  0  0  0  0  0  0
   -0.9764    6.6649    0.6679 H   0  0  0  0  0  0  0  0  0  0  0  0
    0.2051    5.6403   -0.1153 H   0  0  0  0  0  0  0  0  0  0  0  0
   -0.0494    7.7209   -1.3351 H   0  0  0  0  0  0  0  0  0  0  0  0
   -0.5885    6.3980   -2.3606 H   0  0  0  0  0  0  0  0  0  0  0  0
   -2.9826    6.9556   -1.7907 H   0  0  0  0  0  0  0  0  0  0  0  0
   -2.4178    8.2660   -0.7510 H   0  0  0  0  0  0  0  0  0  0  0  0
   -1.9771    8.0468   -3.7754 H   0  0  0  0  0  0  0  0  0  0  0  0
   -3.0826    9.1547   -2.9449 H   0  0  0  0  0  0  0  0  0  0  0  0
   -1.3312    9.3481   -2.7568 H   0  0  0  0  0  0  0  0  0  0  0  0
  1  2  2  0  0  0  0
  1  6  1  0  0  0  0
  1  7  1  0  0  0  0
  2  3  1  0  0  0  0
  2 22  1  0  0  0  0
  3  4  2  0  0  0  0
  3 23  1  0  0  0  0
  4  5  1  0  0  0  0
  4 11  1  0  0  0  0
  5  6  2  0  0  0  0
  5 24  1  0  0  0  0
  6 25  1  0  0  0  0
  7  8  2  0  0  0  0
  7  9  2  0  0  0  0
  7 10  1  0  0  0  0
 10 12  1  0  0  0  0
 10 26  1  0  0  0  0
 12 13  2  0  0  0  0
 12 17  1  0  0  0  0
 13 14  1  0  0  0  0
 13 27  1  0  0  0  0
 14 15  2  0  0  0  0
 14 28  1  0  0  0  0
 15 16  1  0  0  0  0
 15 18  1  0  0  0  0
 16 17  2  0  0  0  0
 16 29  1  0  0  0  0
 17 30  1  0  0  0  0
 18 19  1  0  0  0  0
 18 31  1  0  0  0  0
 18 32  1  0  0  0  0
 19 20  1  0  0  0  0
 19 33  1  0  0  0  0
 19 34  1  0  0  0  0
 20 21  1  0  0  0  0
 20 35  1  0  0  0  0
 20 36  1  0  0  0  0
 21 37  1  0  0  0  0
 21 38  1  0  0  0  0
 21 39  1  0  0  0  0
M  END
>  <Mol_ID>
6178

>  <Formula>
C16H18FNO2S

>  <MolWeight>
307.3830232

>  <Cat>
S0742

>  <Name>
DC260126

>  <Synonyms>
N/A

>  <Target>
GPR

>  <Form>
free base

>  <CAS>
346692-04-4

>  <URL>
http://www.selleckchem.com/products/dc260126.html

$$$$
