DCC-2618.cdx
 OpenBabel08302520433D

 57 61  0  0  0  0  0  0  0  0999 V2000
    1.5455   -1.7481   -3.4003 N   0  0  0  0  0  0  0  0  0  0  0  0
    1.5395   -0.3960   -3.3235 C   0  0  0  0  0  0  0  0  0  0  0  0
    1.9205    0.2837   -2.1751 C   0  0  0  0  0  0  0  0  0  0  0  0
    2.3783   -0.4434   -1.0763 C   0  0  0  0  0  0  0  0  0  0  0  0
    2.3617   -1.8302   -1.1254 C   0  0  0  0  0  0  0  0  0  0  0  0
    1.9400   -2.4304   -2.3003 C   0  0  0  0  0  0  0  0  0  0  0  0
    1.1390    0.3447   -4.5096 C   0  0  0  0  0  0  0  0  0  0  0  0
    2.8348    0.1403    0.0918 O   0  0  0  0  0  0  0  0  0  0  0  0
    3.4604    1.3678    0.0073 C   0  0  0  0  0  0  0  0  0  0  0  0
    4.3397    1.6911   -1.0292 C   0  0  0  0  0  0  0  0  0  0  0  0
    4.8584    2.9764   -1.1098 C   0  0  0  0  0  0  0  0  0  0  0  0
    4.5195    3.9535   -0.1711 C   0  0  0  0  0  0  0  0  0  0  0  0
    3.7145    3.6110    0.9151 C   0  0  0  0  0  0  0  0  0  0  0  0
    3.2129    2.3106    1.0109 C   0  0  0  0  0  0  0  0  0  0  0  0
    2.4880    1.9747    2.0880 F   0  0  0  0  0  0  0  0  0  0  0  0
    5.6335    3.2966   -2.1568 F   0  0  0  0  0  0  0  0  0  0  0  0
    5.0589    5.2427   -0.3211 N   0  0  0  0  0  0  0  0  0  0  0  0
    4.2952    6.3979   -0.3114 C   0  0  0  0  0  0  0  0  0  0  0  0
    5.0740    7.6513   -0.5614 C   0  0  0  0  0  0  0  0  0  0  0  0
    3.0845    6.4635   -0.1359 O   0  0  0  0  0  0  0  0  0  0  0  0
    5.4680    8.4073    0.6813 C   0  0  0  0  0  0  0  0  0  0  0  0
    4.4059    9.0262    1.3162 N   0  0  0  0  0  0  0  0  0  0  0  0
    6.6514    8.4151    1.0001 O   0  0  0  0  0  0  0  0  0  0  0  0
    4.4680    9.8593    2.4522 C   0  0  0  0  0  0  0  0  0  0  0  0
    5.6579   10.2202    3.0883 C   0  0  0  0  0  0  0  0  0  0  0  0
    5.6527   11.1091    4.1703 C   0  0  0  0  0  0  0  0  0  0  0  0
    4.4525   11.6395    4.6328 C   0  0  0  0  0  0  0  0  0  0  0  0
    3.2549   11.2687    4.0270 C   0  0  0  0  0  0  0  0  0  0  0  0
    3.2629   10.3813    2.9435 C   0  0  0  0  0  0  0  0  0  0  0  0
    4.8040    8.5166   -1.7907 C   0  0  0  0  0  0  0  0  0  0  0  0
    6.0239    7.6563   -1.7682 C   0  0  0  0  0  0  0  0  0  0  0  0
    0.5835   -0.2116   -5.6481 C   0  0  0  0  0  0  0  0  0  0  0  0
    0.3648    0.8186   -6.5079 N   0  0  0  0  0  0  0  0  0  0  0  0
    0.7307    2.0206   -6.0233 N   0  0  0  0  0  0  0  0  0  0  0  0
    1.2053    1.7211   -4.8081 C   0  0  0  0  0  0  0  0  0  0  0  0
   -0.1901    0.7408   -7.8420 C   0  0  0  0  0  0  0  0  0  0  0  0
    1.8806    1.3653   -2.1463 H   0  0  0  0  0  0  0  0  0  0  0  0
    2.6749   -2.4286   -0.2777 H   0  0  0  0  0  0  0  0  0  0  0  0
    1.9123   -3.5122   -2.3954 H   0  0  0  0  0  0  0  0  0  0  0  0
    4.5944    0.9732   -1.8021 H   0  0  0  0  0  0  0  0  0  0  0  0
    3.5069    4.3230    1.7081 H   0  0  0  0  0  0  0  0  0  0  0  0
    5.9449    5.3016   -0.8130 H   0  0  0  0  0  0  0  0  0  0  0  0
    3.4878    8.8508    0.9286 H   0  0  0  0  0  0  0  0  0  0  0  0
    6.6188    9.8351    2.7630 H   0  0  0  0  0  0  0  0  0  0  0  0
    6.5904   11.3870    4.6419 H   0  0  0  0  0  0  0  0  0  0  0  0
    4.4532   12.3411    5.4655 H   0  0  0  0  0  0  0  0  0  0  0  0
    2.3156   11.6759    4.3937 H   0  0  0  0  0  0  0  0  0  0  0  0
    2.3116   10.1133    2.4912 H   0  0  0  0  0  0  0  0  0  0  0  0
    3.9894    8.2420   -2.4507 H   0  0  0  0  0  0  0  0  0  0  0  0
    4.9716    9.5873   -1.7236 H   0  0  0  0  0  0  0  0  0  0  0  0
    6.9956    8.1207   -1.6390 H   0  0  0  0  0  0  0  0  0  0  0  0
    6.0324    6.8173   -2.4562 H   0  0  0  0  0  0  0  0  0  0  0  0
    0.3389   -1.2317   -5.8985 H   0  0  0  0  0  0  0  0  0  0  0  0
    1.5822    2.5354   -4.1970 H   0  0  0  0  0  0  0  0  0  0  0  0
   -1.0527    1.4048   -7.8966 H   0  0  0  0  0  0  0  0  0  0  0  0
    0.5815    1.0464   -8.5483 H   0  0  0  0  0  0  0  0  0  0  0  0
   -0.4975   -0.2880   -8.0442 H   0  0  0  0  0  0  0  0  0  0  0  0
  1  2  2  0  0  0  0
  2  3  1  0  0  0  0
  2  7  1  0  0  0  0
  3  4  2  0  0  0  0
  3 37  1  0  0  0  0
  4  5  1  0  0  0  0
  4  8  1  0  0  0  0
  5  6  2  0  0  0  0
  5 38  1  0  0  0  0
  6  1  1  0  0  0  0
  6 39  1  0  0  0  0
  7 32  2  0  0  0  0
  8  9  1  0  0  0  0
  9 10  2  0  0  0  0
 10 11  1  0  0  0  0
 10 40  1  0  0  0  0
 11 12  2  0  0  0  0
 11 16  1  0  0  0  0
 12 13  1  0  0  0  0
 12 17  1  0  0  0  0
 13 14  2  0  0  0  0
 13 41  1  0  0  0  0
 14  9  1  0  0  0  0
 14 15  1  0  0  0  0
 17 18  1  0  0  0  0
 17 42  1  0  0  0  0
 18 19  1  0  0  0  0
 18 20  2  0  0  0  0
 19 21  1  0  0  0  0
 19 30  1  0  0  0  0
 21 22  1  0  0  0  0
 21 23  2  0  0  0  0
 22 24  1  0  0  0  0
 22 43  1  0  0  0  0
 24 25  2  0  0  0  0
 25 26  1  0  0  0  0
 25 44  1  0  0  0  0
 26 27  2  0  0  0  0
 26 45  1  0  0  0  0
 27 28  1  0  0  0  0
 27 46  1  0  0  0  0
 28 29  2  0  0  0  0
 28 47  1  0  0  0  0
 29 24  1  0  0  0  0
 29 48  1  0  0  0  0
 30 31  1  0  0  0  0
 30 49  1  0  0  0  0
 30 50  1  0  0  0  0
 31 19  1  0  0  0  0
 31 51  1  0  0  0  0
 31 52  1  0  0  0  0
 32 33  1  0  0  0  0
 32 53  1  0  0  0  0
 33 34  1  0  0  0  0
 33 36  1  0  0  0  0
 34 35  2  0  0  0  0
 35  7  1  0  0  0  0
 35 54  1  0  0  0  0
 36 55  1  0  0  0  0
 36 56  1  0  0  0  0
 36 57  1  0  0  0  0
M  END
>  <Mol_ID>
4216

>  <Formula>
C26H21F2N5O3

>  <MolWeight>
489.4734464

>  <Cat>
S8721

>  <Name>
PDGFR inhibitor 1

>  <Synonyms>
N/A

>  <Target>
c-Kit,CSF-1R,PDGFR,VEGFR

>  <Form>
free base/salt

>  <CAS>
1225278-16-9

>  <URL>
https://www.selleckchem.com/products/pdgfr-inhibitor-1.html

$$$$
