DDD107498
 OpenBabel08302521313D

 65 69  0  0  0  0  0  0  0  0999 V2000
    0.8545    0.1746   -0.1578 F   0  0  0  0  0  0  0  0  0  0  0  0
   13.5199   -0.6545   -4.7526 O   0  0  0  0  0  0  0  0  0  0  0  0
    3.5332   -3.7142   -0.5892 O   0  0  0  0  0  0  0  0  0  0  0  0
    7.5521   -4.5579    3.6183 N   0  0  0  0  0  0  0  0  0  0  0  0
   12.5772   -1.8032   -2.2051 N   0  0  0  0  0  0  0  0  0  0  0  0
    4.9957   -4.6310    0.7913 N   0  0  0  0  0  0  0  0  0  0  0  0
    6.3150    0.3515    0.2204 N   0  0  0  0  0  0  0  0  0  0  0  0
    7.6194   -5.9659    4.0496 C   0  0  0  0  0  0  0  0  0  0  0  0
    7.7251   -3.7243    4.8272 C   0  0  0  0  0  0  0  0  0  0  0  0
    7.3503   -5.9562    5.5390 C   0  0  0  0  0  0  0  0  0  0  0  0
    8.0291   -4.6786    5.9721 C   0  0  0  0  0  0  0  0  0  0  0  0
    6.2954   -4.2282    2.9208 C   0  0  0  0  0  0  0  0  0  0  0  0
    6.1998   -4.9241    1.5517 C   0  0  0  0  0  0  0  0  0  0  0  0
   13.9202   -2.0517   -2.7740 C   0  0  0  0  0  0  0  0  0  0  0  0
   11.6819   -1.4200   -3.3229 C   0  0  0  0  0  0  0  0  0  0  0  0
   12.6337   -0.8392   -1.0862 C   0  0  0  0  0  0  0  0  0  0  0  0
   14.4340   -0.9211   -3.6821 C   0  0  0  0  0  0  0  0  0  0  0  0
   12.2287   -0.3106   -4.2356 C   0  0  0  0  0  0  0  0  0  0  0  0
   11.2816   -0.6176   -0.4391 C   0  0  0  0  0  0  0  0  0  0  0  0
    4.5216   -3.5319    0.1227 C   0  0  0  0  0  0  0  0  0  0  0  0
    5.1245   -2.1735    0.2216 C   0  0  0  0  0  0  0  0  0  0  0  0
    8.5385   -0.5815    0.2295 C   0  0  0  0  0  0  0  0  0  0  0  0
   10.7710   -1.5332    0.4865 C   0  0  0  0  0  0  0  0  0  0  0  0
   10.4601    0.4311   -0.8735 C   0  0  0  0  0  0  0  0  0  0  0  0
    7.0758   -0.7614    0.2846 C   0  0  0  0  0  0  0  0  0  0  0  0
    4.3100   -1.0100    0.1472 C   0  0  0  0  0  0  0  0  0  0  0  0
    6.5086   -2.0309    0.2500 C   0  0  0  0  0  0  0  0  0  0  0  0
    9.4177   -1.5008    0.8326 C   0  0  0  0  0  0  0  0  0  0  0  0
    9.1016    0.4398   -0.5514 C   0  0  0  0  0  0  0  0  0  0  0  0
    4.9847    0.2333    0.1335 C   0  0  0  0  0  0  0  0  0  0  0  0
    2.8907   -0.9953    0.0675 C   0  0  0  0  0  0  0  0  0  0  0  0
    4.2500    1.4067    0.0040 C   0  0  0  0  0  0  0  0  0  0  0  0
    2.1898    0.1960   -0.0631 C   0  0  0  0  0  0  0  0  0  0  0  0
    2.8596    1.4027   -0.1023 C   0  0  0  0  0  0  0  0  0  0  0  0
    4.4145   -5.4372    0.5860 H   0  0  0  0  0  0  0  0  0  0  0  0
    8.6374   -6.3279    3.8589 H   0  0  0  0  0  0  0  0  0  0  0  0
    6.9382   -6.6466    3.5325 H   0  0  0  0  0  0  0  0  0  0  0  0
    6.8199   -3.1526    5.0669 H   0  0  0  0  0  0  0  0  0  0  0  0
    8.5416   -3.0085    4.6852 H   0  0  0  0  0  0  0  0  0  0  0  0
    6.2717   -5.9011    5.7313 H   0  0  0  0  0  0  0  0  0  0  0  0
    7.7502   -6.8399    6.0432 H   0  0  0  0  0  0  0  0  0  0  0  0
    7.6559   -4.3158    6.9337 H   0  0  0  0  0  0  0  0  0  0  0  0
    9.1105   -4.8397    6.0573 H   0  0  0  0  0  0  0  0  0  0  0  0
    6.2562   -3.1449    2.7645 H   0  0  0  0  0  0  0  0  0  0  0  0
    5.4228   -4.4867    3.5329 H   0  0  0  0  0  0  0  0  0  0  0  0
    6.1814   -6.0111    1.6864 H   0  0  0  0  0  0  0  0  0  0  0  0
    7.0775   -4.7226    0.9335 H   0  0  0  0  0  0  0  0  0  0  0  0
   13.8527   -2.9690   -3.3742 H   0  0  0  0  0  0  0  0  0  0  0  0
   14.6454   -2.2596   -1.9795 H   0  0  0  0  0  0  0  0  0  0  0  0
   11.5386   -2.3186   -3.9361 H   0  0  0  0  0  0  0  0  0  0  0  0
   10.6760   -1.1598   -2.9772 H   0  0  0  0  0  0  0  0  0  0  0  0
   13.0626    0.1235   -1.3851 H   0  0  0  0  0  0  0  0  0  0  0  0
   13.3012   -1.2428   -0.3122 H   0  0  0  0  0  0  0  0  0  0  0  0
   14.6088    0.0043   -3.1237 H   0  0  0  0  0  0  0  0  0  0  0  0
   15.3870   -1.2166   -4.1343 H   0  0  0  0  0  0  0  0  0  0  0  0
   11.5597   -0.1781   -5.0931 H   0  0  0  0  0  0  0  0  0  0  0  0
   12.2940    0.6524   -3.7173 H   0  0  0  0  0  0  0  0  0  0  0  0
   11.4016   -2.3255    0.8834 H   0  0  0  0  0  0  0  0  0  0  0  0
   10.8461    1.1845   -1.5559 H   0  0  0  0  0  0  0  0  0  0  0  0
    7.1609   -2.8863    0.1692 H   0  0  0  0  0  0  0  0  0  0  0  0
    9.0433   -2.2560    1.5219 H   0  0  0  0  0  0  0  0  0  0  0  0
    8.4622    1.2003   -0.9968 H   0  0  0  0  0  0  0  0  0  0  0  0
    2.3061   -1.9110    0.0866 H   0  0  0  0  0  0  0  0  0  0  0  0
    4.7811    2.3560   -0.0265 H   0  0  0  0  0  0  0  0  0  0  0  0
    2.3058    2.3286   -0.2130 H   0  0  0  0  0  0  0  0  0  0  0  0
  1 33  1  0  0  0  0
  2 17  1  0  0  0  0
  2 18  1  0  0  0  0
  3 20  2  0  0  0  0
  4  8  1  0  0  0  0
  4  9  1  0  0  0  0
  4 12  1  0  0  0  0
  5 14  1  0  0  0  0
  5 15  1  0  0  0  0
  5 16  1  0  0  0  0
  6 13  1  0  0  0  0
  6 20  1  0  0  0  0
  6 35  1  0  0  0  0
  7 25  2  0  0  0  0
  7 30  1  0  0  0  0
  8 10  1  0  0  0  0
  8 36  1  0  0  0  0
  8 37  1  0  0  0  0
  9 11  1  0  0  0  0
  9 38  1  0  0  0  0
  9 39  1  0  0  0  0
 10 11  1  0  0  0  0
 10 40  1  0  0  0  0
 10 41  1  0  0  0  0
 11 42  1  0  0  0  0
 11 43  1  0  0  0  0
 12 13  1  0  0  0  0
 12 44  1  0  0  0  0
 12 45  1  0  0  0  0
 13 46  1  0  0  0  0
 13 47  1  0  0  0  0
 14 17  1  0  0  0  0
 14 48  1  0  0  0  0
 14 49  1  0  0  0  0
 15 18  1  0  0  0  0
 15 50  1  0  0  0  0
 15 51  1  0  0  0  0
 16 19  1  0  0  0  0
 16 52  1  0  0  0  0
 16 53  1  0  0  0  0
 17 54  1  0  0  0  0
 17 55  1  0  0  0  0
 18 56  1  0  0  0  0
 18 57  1  0  0  0  0
 19 23  2  0  0  0  0
 19 24  1  0  0  0  0
 20 21  1  0  0  0  0
 21 26  1  0  0  0  0
 21 27  2  0  0  0  0
 22 25  1  0  0  0  0
 22 28  2  0  0  0  0
 22 29  1  0  0  0  0
 23 28  1  0  0  0  0
 23 58  1  0  0  0  0
 24 29  2  0  0  0  0
 24 59  1  0  0  0  0
 25 27  1  0  0  0  0
 26 30  2  0  0  0  0
 26 31  1  0  0  0  0
 27 60  1  0  0  0  0
 28 61  1  0  0  0  0
 29 62  1  0  0  0  0
 30 32  1  0  0  0  0
 31 33  2  0  0  0  0
 31 63  1  0  0  0  0
 32 34  2  0  0  0  0
 32 64  1  0  0  0  0
 33 34  1  0  0  0  0
 34 65  1  0  0  0  0
M  END
>  <Mol_ID>
5837

>  <Formula>
C27H31FN4O2

>  <MolWeight>
462.5590432

>  <Cat>
S0081

>  <Name>
DDD107498

>  <Synonyms>
M-5717, DDD-498

>  <Target>
Parasite

>  <Form>
Free Base

>  <CAS>
1469439-69-7

>  <URL>
http://www.selleckchem.com/products/ddd107498.html

$$$$
