¦Ä-Decalactone
 OpenBabel08302521363D

 30 30  0  0  0  0  0  0  0  0999 V2000
    0.9340    0.1503    0.0150 C   0  0  0  0  0  0  0  0  0  0  0  0
    0.4546   -0.7111   -1.1628 C   0  0  0  0  0  0  0  0  0  0  0  0
   -1.0605   -0.8793   -1.3355 C   0  0  0  0  0  0  0  0  0  0  0  0
   -1.8910    0.4040   -1.4281 C   0  0  0  0  0  0  0  0  0  0  0  0
   -1.5775    1.2795   -2.6329 C   0  0  0  0  0  0  0  0  0  0  0  0
    2.8165   -3.1394    2.1793 O   0  0  0  0  0  0  0  0  0  0  0  0
    0.6341   -0.4217    1.4110 C   0  0  3  0  0  0  0  0  0  0  0  0
    1.1367   -1.7659    1.5628 O   0  0  0  0  0  0  0  0  0  0  0  0
    1.1431    0.4527    2.5560 C   0  0  0  0  0  0  0  0  0  0  0  0
    2.4056   -1.9988    1.9727 C   0  0  0  0  0  0  0  0  0  0  0  0
    2.6577    0.3957    2.7318 C   0  0  0  0  0  0  0  0  0  0  0  0
    3.3119   -0.7995    2.0580 C   0  0  0  0  0  0  0  0  0  0  0  0
    0.5188    1.1605   -0.0650 H   0  0  0  0  0  0  0  0  0  0  0  0
    2.0154    0.2610   -0.1103 H   0  0  0  0  0  0  0  0  0  0  0  0
    0.8681   -0.2827   -2.0836 H   0  0  0  0  0  0  0  0  0  0  0  0
    0.9001   -1.7106   -1.0793 H   0  0  0  0  0  0  0  0  0  0  0  0
   -1.2322   -1.4720   -2.2437 H   0  0  0  0  0  0  0  0  0  0  0  0
   -1.4481   -1.4804   -0.5046 H   0  0  0  0  0  0  0  0  0  0  0  0
   -2.9507    0.1230   -1.4854 H   0  0  0  0  0  0  0  0  0  0  0  0
   -1.7791    0.9890   -0.5098 H   0  0  0  0  0  0  0  0  0  0  0  0
   -1.9662    0.8305   -3.5531 H   0  0  0  0  0  0  0  0  0  0  0  0
   -2.0584    2.2571   -2.5160 H   0  0  0  0  0  0  0  0  0  0  0  0
   -0.5054    1.4498   -2.7575 H   0  0  0  0  0  0  0  0  0  0  0  0
   -0.4544   -0.4950    1.5212 H   0  0  0  0  0  0  0  0  0  0  0  0
    0.6945    0.0857    3.4893 H   0  0  0  0  0  0  0  0  0  0  0  0
    0.8115    1.4912    2.4437 H   0  0  0  0  0  0  0  0  0  0  0  0
    2.8868    0.3855    3.8057 H   0  0  0  0  0  0  0  0  0  0  0  0
    3.1131    1.3140    2.3419 H   0  0  0  0  0  0  0  0  0  0  0  0
    4.2128   -1.0752    2.6162 H   0  0  0  0  0  0  0  0  0  0  0  0
    3.6391   -0.5534    1.0443 H   0  0  0  0  0  0  0  0  0  0  0  0
  1  2  1  0  0  0  0
  1  7  1  0  0  0  0
  1 13  1  0  0  0  0
  1 14  1  0  0  0  0
  2  3  1  0  0  0  0
  2 15  1  0  0  0  0
  2 16  1  0  0  0  0
  3  4  1  0  0  0  0
  3 17  1  0  0  0  0
  3 18  1  0  0  0  0
  4  5  1  0  0  0  0
  4 19  1  0  0  0  0
  4 20  1  0  0  0  0
  5 21  1  0  0  0  0
  5 22  1  0  0  0  0
  5 23  1  0  0  0  0
  6 10  2  0  0  0  0
  7  8  1  0  0  0  0
  7  9  1  0  0  0  0
  7 24  1  0  0  0  0
  8 10  1  0  0  0  0
  9 11  1  0  0  0  0
  9 25  1  0  0  0  0
  9 26  1  0  0  0  0
 10 12  1  0  0  0  0
 11 12  1  0  0  0  0
 11 27  1  0  0  0  0
 11 28  1  0  0  0  0
 12 29  1  0  0  0  0
 12 30  1  0  0  0  0
M  END
>  <Mol_ID>
7205

>  <Formula>
C10H18O2

>  <MolWeight>
170.24872

>  <Cat>
E4208

>  <Name>
¦Ä-Decalactone

>  <Target>
Others

>  <Form>
Free base

>  <CAS>
705-86-2

>  <URL>
https://www.selleckchem.com/products/delta-decalactone.html

$$$$
