decitabine (2¡ä-deoxy-5-azacytidine).cdx
 OpenBabel08302521573D

 28 29  0  0  0  0  0  0  0  0999 V2000
    1.2200   -0.8284   -0.3333 C   0  0  2  0  0  0  0  0  0  0  0  0
    1.3213    0.6094   -0.2676 O   0  0  0  0  0  0  0  0  0  0  0  0
    0.1464    1.1419    0.3921 C   0  0  1  0  0  0  0  0  0  0  0  0
   -0.8615    0.0007    0.4600 C   0  0  2  0  0  0  0  0  0  0  0  0
    0.0104   -1.2351    0.5027 C   0  0  0  0  0  0  0  0  0  0  0  0
    0.5514    1.6459    1.7821 C   0  0  0  0  0  0  0  0  0  0  0  0
    1.5753    2.6325    1.6766 O   0  0  0  0  0  0  0  0  0  0  0  0
   -1.6823   -0.0365   -0.7070 O   0  0  0  0  0  0  0  0  0  0  0  0
    2.4692   -1.4204    0.0993 N   0  0  0  0  0  0  0  0  0  0  0  0
    3.1993   -0.9094    1.1154 C   0  0  0  0  0  0  0  0  0  0  0  0
    4.2579   -1.4556    1.5882 N   0  0  0  0  0  0  0  0  0  0  0  0
    4.6505   -2.6154    1.0181 C   0  0  0  0  0  0  0  0  0  0  0  0
    4.0055   -3.1980    0.0659 N   0  0  0  0  0  0  0  0  0  0  0  0
    2.8386   -2.6482   -0.3884 C   0  0  0  0  0  0  0  0  0  0  0  0
    2.1365   -3.2423   -1.2038 O   0  0  0  0  0  0  0  0  0  0  0  0
    5.8013   -3.1471    1.4871 N   0  0  0  0  0  0  0  0  0  0  0  0
    1.0406   -1.0796   -1.3860 H   0  0  0  0  0  0  0  0  0  0  0  0
   -0.2045    1.9801   -0.2191 H   0  0  0  0  0  0  0  0  0  0  0  0
   -1.5332    0.0716    1.3207 H   0  0  0  0  0  0  0  0  0  0  0  0
    0.3051   -1.4524    1.5356 H   0  0  0  0  0  0  0  0  0  0  0  0
   -0.4770   -2.1269    0.0945 H   0  0  0  0  0  0  0  0  0  0  0  0
   -0.3024    2.0972    2.2953 H   0  0  0  0  0  0  0  0  0  0  0  0
    0.9393    0.8391    2.4107 H   0  0  0  0  0  0  0  0  0  0  0  0
    2.2492    2.2840    1.0632 H   0  0  0  0  0  0  0  0  0  0  0  0
   -1.1479    0.1779   -1.4923 H   0  0  0  0  0  0  0  0  0  0  0  0
    2.8483    0.0404    1.5370 H   0  0  0  0  0  0  0  0  0  0  0  0
    6.2500   -3.7738    0.8310 H   0  0  0  0  0  0  0  0  0  0  0  0
    6.4149   -2.4601    1.9054 H   0  0  0  0  0  0  0  0  0  0  0  0
  1  2  1  0  0  0  0
  1  5  1  0  0  0  0
  1 17  1  6  0  0  0
  1  9  1  0  0  0  0
  2  3  1  0  0  0  0
  3  4  1  0  0  0  0
  3 18  1  6  0  0  0
  3  6  1  0  0  0  0
  4  5  1  0  0  0  0
  4  8  1  0  0  0  0
  4 19  1  1  0  0  0
  5 20  1  0  0  0  0
  5 21  1  0  0  0  0
  6  7  1  0  0  0  0
  6 22  1  0  0  0  0
  6 23  1  0  0  0  0
  7 24  1  0  0  0  0
  8 25  1  0  0  0  0
  9 10  1  0  0  0  0
 10 11  2  0  0  0  0
 10 26  1  0  0  0  0
 11 12  1  0  0  0  0
 12 13  2  0  0  0  0
 12 16  1  0  0  0  0
 13 14  1  0  0  0  0
 14  9  1  0  0  0  0
 14 15  2  0  0  0  0
 16 27  1  0  0  0  0
 16 28  1  0  0  0  0
M  END
>  <Mol_ID>
116

>  <Formula>
C8H12N4O4

>  <MolWeight>
228.20528

>  <Cat>
S1200

>  <Name>
Decitabine (NSC 127716)

>  <Synonyms>
Deoxycytidine, Dacogen, 5-aza-2'-deoxycytidine, 5-AZA-dC, 5-aza-CdR,NSC 127716

>  <Target>
Apoptosis related,DNA Methyltransferase,Nucleoside Analog/Antimetabolite

>  <Form>
free base

>  <CAS>
2353-33-5

>  <URL>
http://selleckchem.com/products/Decitabine.html

$$$$
