Decursin
 OpenBabel08302521263D

 44 46  0  0  0  0  0  0  0  0999 V2000
   -1.1705   -0.8189    0.0588 C   0  0  0  0  0  0  0  0  0  0  0  0
   -1.2367    0.5822    0.0146 C   0  0  0  0  0  0  0  0  0  0  0  0
    0.0819   -1.4528    0.0827 C   0  0  0  0  0  0  0  0  0  0  0  0
   -2.4136   -1.6648    0.0224 C   0  0  0  0  0  0  0  0  0  0  0  0
   -0.0663    1.3424    0.0466 C   0  0  0  0  0  0  0  0  0  0  0  0
   -2.4146    1.2841   -0.0589 O   0  0  0  0  0  0  0  0  0  0  0  0
    1.2551   -0.6986    0.0697 C   0  0  0  0  0  0  0  0  0  0  0  0
   -3.6447   -0.8061    0.2894 C   0  0  1  0  0  0  0  0  0  0  0  0
    1.1662    0.6908    0.0635 C   0  0  0  0  0  0  0  0  0  0  0  0
   -3.5812    0.5315   -0.4843 C   0  0  0  0  0  0  0  0  0  0  0  0
    2.5629   -1.3297    0.0325 C   0  0  0  0  0  0  0  0  0  0  0  0
   -4.9034   -1.5088    0.2191 O   0  0  0  0  0  0  0  0  0  0  0  0
    2.3325    1.4841    0.0539 O   0  0  0  0  0  0  0  0  0  0  0  0
   -3.5318    0.4163   -2.0158 C   0  0  0  0  0  0  0  0  0  0  0  0
   -4.8082    1.3841   -0.1186 C   0  0  0  0  0  0  0  0  0  0  0  0
    3.6587   -0.5661   -0.0013 C   0  0  0  0  0  0  0  0  0  0  0  0
   -5.2816   -2.2612   -0.8316 C   0  0  0  0  0  0  0  0  0  0  0  0
    3.5960    0.9063    0.0198 C   0  0  0  0  0  0  0  0  0  0  0  0
   -6.6276   -2.8616   -0.6148 C   0  0  0  0  0  0  0  0  0  0  0  0
   -4.6455   -2.4546   -1.8523 O   0  0  0  0  0  0  0  0  0  0  0  0
    4.6259    1.5719    0.0046 O   0  0  0  0  0  0  0  0  0  0  0  0
   -7.4091   -2.8381    0.4865 C   0  0  0  0  0  0  0  0  0  0  0  0
   -8.7417   -3.5403    0.5093 C   0  0  0  0  0  0  0  0  0  0  0  0
   -7.0516   -2.1507    1.7766 C   0  0  0  0  0  0  0  0  0  0  0  0
    0.1311   -2.5396    0.0930 H   0  0  0  0  0  0  0  0  0  0  0  0
   -2.3588   -2.4566    0.7798 H   0  0  0  0  0  0  0  0  0  0  0  0
   -2.4609   -2.1624   -0.9501 H   0  0  0  0  0  0  0  0  0  0  0  0
   -0.1136    2.4275    0.0295 H   0  0  0  0  0  0  0  0  0  0  0  0
   -3.5791   -0.5371    1.3550 H   0  0  0  0  0  0  0  0  0  0  0  0
    2.6301   -2.4109    0.0090 H   0  0  0  0  0  0  0  0  0  0  0  0
   -4.4310   -0.0464   -2.4270 H   0  0  0  0  0  0  0  0  0  0  0  0
   -3.4360    1.4121   -2.4671 H   0  0  0  0  0  0  0  0  0  0  0  0
   -2.6585   -0.1481   -2.3592 H   0  0  0  0  0  0  0  0  0  0  0  0
   -4.8536    1.5623    0.9617 H   0  0  0  0  0  0  0  0  0  0  0  0
   -4.7585    2.3703   -0.5934 H   0  0  0  0  0  0  0  0  0  0  0  0
   -5.7429    0.9035   -0.4288 H   0  0  0  0  0  0  0  0  0  0  0  0
    4.6514   -0.9976   -0.0504 H   0  0  0  0  0  0  0  0  0  0  0  0
   -6.9719   -3.3930   -1.4994 H   0  0  0  0  0  0  0  0  0  0  0  0
   -8.7470   -4.3121    1.2872 H   0  0  0  0  0  0  0  0  0  0  0  0
   -9.5442   -2.8270    0.7279 H   0  0  0  0  0  0  0  0  0  0  0  0
   -8.9786   -4.0269   -0.4421 H   0  0  0  0  0  0  0  0  0  0  0  0
   -6.1248   -2.5593    2.1903 H   0  0  0  0  0  0  0  0  0  0  0  0
   -6.9522   -1.0716    1.6268 H   0  0  0  0  0  0  0  0  0  0  0  0
   -7.8294   -2.2957    2.5353 H   0  0  0  0  0  0  0  0  0  0  0  0
  1  2  1  0  0  0  0
  1  3  2  0  0  0  0
  1  4  1  0  0  0  0
  2  5  2  0  0  0  0
  2  6  1  0  0  0  0
  3  7  1  0  0  0  0
  3 25  1  0  0  0  0
  4  8  1  0  0  0  0
  4 26  1  0  0  0  0
  4 27  1  0  0  0  0
  5  9  1  0  0  0  0
  5 28  1  0  0  0  0
  6 10  1  0  0  0  0
  7 11  1  0  0  0  0
  7  9  2  0  0  0  0
  8 10  1  0  0  0  0
  8 29  1  1  0  0  0
  8 12  1  0  0  0  0
  9 13  1  0  0  0  0
 10 14  1  0  0  0  0
 10 15  1  0  0  0  0
 11 16  2  0  0  0  0
 11 30  1  0  0  0  0
 12 17  1  0  0  0  0
 13 18  1  0  0  0  0
 14 31  1  0  0  0  0
 14 32  1  0  0  0  0
 14 33  1  0  0  0  0
 15 34  1  0  0  0  0
 15 35  1  0  0  0  0
 15 36  1  0  0  0  0
 16 18  1  0  0  0  0
 16 37  1  0  0  0  0
 17 19  1  0  0  0  0
 17 20  2  0  0  0  0
 18 21  2  0  0  0  0
 19 22  2  0  0  0  0
 19 38  1  0  0  0  0
 22 23  1  0  0  0  0
 22 24  1  0  0  0  0
 23 39  1  0  0  0  0
 23 40  1  0  0  0  0
 23 41  1  0  0  0  0
 24 42  1  0  0  0  0
 24 43  1  0  0  0  0
 24 44  1  0  0  0  0
M  END
>  <Mol_ID>
5307

>  <Formula>
C19H20O5

>  <MolWeight>
328.3591

>  <Cat>
S9264

>  <Name>
Decursin

>  <Synonyms>
N/A

>  <Target>
Immunology & Inflammation related

>  <Form>
Free Base

>  <CAS>
5928-25-6

>  <URL>
https://www.selleckchem.com/products/decursin.html

$$$$
