(¡À)-Decursinol
 OpenBabel08302521583D

 51 54  0  0  1  0  0  0  0  0999 V2000
    1.1111   -0.0261   -0.1348 O   0  0  0  0  0  0  0  0  0  0  0  0
    0.2536   -1.1042    0.2012 C   0  0  0  0  0  0  0  0  0  0  0  0
    2.4814   -2.5144    0.5929 O   0  0  0  0  0  0  0  0  0  0  0  0
    3.2261   -3.6566    0.9946 C   0  0  0  0  0  0  0  0  0  0  0  0
    8.8996    6.0442   -1.1178 O   0  0  0  0  0  0  0  0  0  0  0  0
    9.4611    5.0951   -2.0158 C   0  0  0  0  0  0  0  0  0  0  0  0
    7.6798    8.3313   -0.8362 O   0  0  0  0  0  0  0  0  0  0  0  0
    7.0587    9.5902   -0.6297 C   0  0  0  0  0  0  0  0  0  0  0  0
    5.3163    2.3436   -0.5692 C   0  0  2  0  0  0  0  0  0  0  0  0
    4.5693    1.0456   -0.2637 C   0  0  0  0  0  0  0  0  0  0  0  0
    6.7439    2.2590   -0.1927 N   0  0  3  0  0  0  0  0  0  0  0  0
    4.7341    3.5625    0.1813 C   0  0  0  0  0  0  0  0  0  0  0  0
    5.2715   -0.1352    0.0129 C   0  0  0  0  0  0  0  0  0  0  0  0
    3.1693    0.9804   -0.3232 C   0  0  0  0  0  0  0  0  0  0  0  0
    7.4977    3.4129   -0.6838 C   0  0  0  0  0  0  0  0  0  0  0  0
    7.3520    1.0315   -0.7144 C   0  0  0  0  0  0  0  0  0  0  0  0
    5.5073    4.8307   -0.1135 C   0  0  0  0  0  0  0  0  0  0  0  0
    4.5767   -1.3179    0.3094 C   0  0  0  0  0  0  0  0  0  0  0  0
    6.7770   -0.1583    0.0366 C   0  0  0  0  0  0  0  0  0  0  0  0
    2.4664   -0.2071   -0.0346 C   0  0  0  0  0  0  0  0  0  0  0  0
    6.8561    4.7656   -0.5259 C   0  0  0  0  0  0  0  0  0  0  0  0
    4.8926    6.0707    0.0859 C   0  0  0  0  0  0  0  0  0  0  0  0
    3.1778   -1.3676    0.3014 C   0  0  0  0  0  0  0  0  0  0  0  0
    7.5650    5.9618   -0.7819 C   0  0  0  0  0  0  0  0  0  0  0  0
    5.5947    7.2499   -0.1513 C   0  0  0  0  0  0  0  0  0  0  0  0
    6.9253    7.2084   -0.5794 C   0  0  0  0  0  0  0  0  0  0  0  0
    0.3769   -1.9390   -0.4976 H   0  0  0  0  0  0  0  0  0  0  0  0
    0.3863   -1.4117    1.2418 H   0  0  0  0  0  0  0  0  0  0  0  0
   -0.7786   -0.7487    0.0992 H   0  0  0  0  0  0  0  0  0  0  0  0
    3.8630   -4.0153    0.1788 H   0  0  0  0  0  0  0  0  0  0  0  0
    3.8125   -3.4568    1.8985 H   0  0  0  0  0  0  0  0  0  0  0  0
    2.5128   -4.4506    1.2318 H   0  0  0  0  0  0  0  0  0  0  0  0
    9.7663    4.1870   -1.4885 H   0  0  0  0  0  0  0  0  0  0  0  0
    8.7958    4.8680   -2.8550 H   0  0  0  0  0  0  0  0  0  0  0  0
   10.3856    5.5130   -2.4243 H   0  0  0  0  0  0  0  0  0  0  0  0
    6.1995    9.7236   -1.2951 H   0  0  0  0  0  0  0  0  0  0  0  0
    6.7698    9.7238    0.4195 H   0  0  0  0  0  0  0  0  0  0  0  0
    7.7865   10.3720   -0.8714 H   0  0  0  0  0  0  0  0  0  0  0  0
    5.2283    2.5071   -1.6544 H   0  0  0  0  0  0  0  0  0  0  0  0
    3.6863    3.7204   -0.1005 H   0  0  0  0  0  0  0  0  0  0  0  0
    4.7561    3.3900    1.2667 H   0  0  0  0  0  0  0  0  0  0  0  0
    2.5895    1.8598   -0.5955 H   0  0  0  0  0  0  0  0  0  0  0  0
    7.6957    3.2663   -1.7506 H   0  0  0  0  0  0  0  0  0  0  0  0
    8.4314    3.4196   -0.1118 H   0  0  0  0  0  0  0  0  0  0  0  0
    7.1756    0.9321   -1.7957 H   0  0  0  0  0  0  0  0  0  0  0  0
    8.4391    1.0409   -0.5667 H   0  0  0  0  0  0  0  0  0  0  0  0
    5.1682   -2.1976    0.5445 H   0  0  0  0  0  0  0  0  0  0  0  0
    7.1508   -1.0800   -0.4241 H   0  0  0  0  0  0  0  0  0  0  0  0
    7.1102   -0.1422    1.0808 H   0  0  0  0  0  0  0  0  0  0  0  0
    3.8633    6.1269    0.4315 H   0  0  0  0  0  0  0  0  0  0  0  0
    5.0746    8.1861    0.0209 H   0  0  0  0  0  0  0  0  0  0  0  0
  1  2  1  0  0  0  0
  1 20  1  0  0  0  0
  2 27  1  0  0  0  0
  2 28  1  0  0  0  0
  2 29  1  0  0  0  0
  3  4  1  0  0  0  0
  3 23  1  0  0  0  0
  4 30  1  0  0  0  0
  4 31  1  0  0  0  0
  4 32  1  0  0  0  0
  5  6  1  0  0  0  0
  5 24  1  0  0  0  0
  6 33  1  0  0  0  0
  6 34  1  0  0  0  0
  6 35  1  0  0  0  0
  7  8  1  0  0  0  0
  7 26  1  0  0  0  0
  8 36  1  0  0  0  0
  8 37  1  0  0  0  0
  8 38  1  0  0  0  0
  9 10  1  0  0  0  0
  9 11  1  0  0  0  0
  9 12  1  0  0  0  0
  9 39  1  6  0  0  0
 10 13  2  0  0  0  0
 10 14  1  0  0  0  0
 11 15  1  0  0  0  0
 11 16  1  0  0  0  0
 12 17  1  0  0  0  0
 12 40  1  0  0  0  0
 12 41  1  0  0  0  0
 13 18  1  0  0  0  0
 13 19  1  0  0  0  0
 14 20  2  0  0  0  0
 14 42  1  0  0  0  0
 15 21  1  0  0  0  0
 15 43  1  0  0  0  0
 15 44  1  0  0  0  0
 16 19  1  0  0  0  0
 16 45  1  0  0  0  0
 16 46  1  0  0  0  0
 17 21  2  0  0  0  0
 17 22  1  0  0  0  0
 18 23  2  0  0  0  0
 18 47  1  0  0  0  0
 19 48  1  0  0  0  0
 19 49  1  0  0  0  0
 20 23  1  0  0  0  0
 21 24  1  0  0  0  0
 22 25  2  0  0  0  0
 22 50  1  0  0  0  0
 24 26  2  0  0  0  0
 25 26  1  0  0  0  0
 25 51  1  0  0  0  0
M  END
>  <Mol_ID>
10094

>  <Formula>
C21H25NO4

>  <MolWeight>
355.4275

>  <Cat>
S0914

>  <Name>
(¡À)-Decursinol

>  <Synonyms>
NA

>  <Target>
FtsZ

>  <Form>
free base

>  <CAS>
5993-18-0

>  <URL>
https://www.selleckchem.com/products/-prantschimgin.html

$$$$
