Decursinol
 OpenBabel08302521493D

 32 34  0  0  1  0  0  0  0  0999 V2000
    0.8480   -0.0152    0.0400 O   0  0  0  0  0  0  0  0  0  0  0  0
    2.5614    0.8910   -2.3582 C   0  0  0  0  0  0  0  0  0  0  0  0
    2.4046    2.4328   -0.4180 C   0  0  0  0  0  0  0  0  0  0  0  0
   10.3345   -2.5280   -1.6292 O   0  0  0  0  0  0  0  0  0  0  0  0
    4.2582   -1.3918   -0.6050 C   0  0  0  0  0  0  0  0  0  0  0  0
    4.9490   -0.1803   -0.7532 C   0  0  0  0  0  0  0  0  0  0  0  0
    4.9507   -2.6069   -0.7284 C   0  0  0  0  0  0  0  0  0  0  0  0
    2.7796   -1.4166   -0.3548 C   0  0  0  0  0  0  0  0  0  0  0  0
    6.3291   -0.1800   -0.9546 C   0  0  0  0  0  0  0  0  0  0  0  0
    4.3423    1.0501   -0.7144 O   0  0  0  0  0  0  0  0  0  0  0  0
    6.3250   -2.6125   -0.9641 C   0  0  0  0  0  0  0  0  0  0  0  0
    2.2747   -0.0342    0.0457 C   0  0  1  0  0  0  0  0  0  0  0  0
    6.9983   -1.3975   -1.0615 C   0  0  0  0  0  0  0  0  0  0  0  0
    2.9043    1.0485   -0.8633 C   0  0  0  0  0  0  0  0  0  0  0  0
    7.0676   -3.8514   -1.1186 C   0  0  0  0  0  0  0  0  0  0  0  0
    8.3889   -1.3619   -1.2884 O   0  0  0  0  0  0  0  0  0  0  0  0
    8.3841   -3.8032   -1.3404 C   0  0  0  0  0  0  0  0  0  0  0  0
    9.1239   -2.5310   -1.4312 C   0  0  0  0  0  0  0  0  0  0  0  0
    0.5399   -0.2606   -0.8496 H   0  0  0  0  0  0  0  0  0  0  0  0
    1.4815    0.8738   -2.5311 H   0  0  0  0  0  0  0  0  0  0  0  0
    2.9879    1.7187   -2.9374 H   0  0  0  0  0  0  0  0  0  0  0  0
    2.9914   -0.0194   -2.7884 H   0  0  0  0  0  0  0  0  0  0  0  0
    2.6522    2.6203    0.6325 H   0  0  0  0  0  0  0  0  0  0  0  0
    2.8849    3.2293   -0.9977 H   0  0  0  0  0  0  0  0  0  0  0  0
    1.3200    2.5294   -0.5402 H   0  0  0  0  0  0  0  0  0  0  0  0
    4.4067   -3.5450   -0.6430 H   0  0  0  0  0  0  0  0  0  0  0  0
    2.5352   -2.1318    0.4396 H   0  0  0  0  0  0  0  0  0  0  0  0
    2.2645   -1.7674   -1.2578 H   0  0  0  0  0  0  0  0  0  0  0  0
    6.8720    0.7560   -1.0463 H   0  0  0  0  0  0  0  0  0  0  0  0
    2.5902    0.1550    1.0807 H   0  0  0  0  0  0  0  0  0  0  0  0
    6.5405   -4.7972   -1.0590 H   0  0  0  0  0  0  0  0  0  0  0  0
    8.9740   -4.7029   -1.4661 H   0  0  0  0  0  0  0  0  0  0  0  0
  1 19  1  0  0  0  0
  2 14  1  0  0  0  0
  2 20  1  0  0  0  0
  2 21  1  0  0  0  0
  2 22  1  0  0  0  0
  3 14  1  0  0  0  0
  3 23  1  0  0  0  0
  3 24  1  0  0  0  0
  3 25  1  0  0  0  0
  4 18  2  0  0  0  0
  5  6  1  0  0  0  0
  5  7  2  0  0  0  0
  5  8  1  0  0  0  0
  6  9  2  0  0  0  0
  6 10  1  0  0  0  0
  7 11  1  0  0  0  0
  7 26  1  0  0  0  0
  8 12  1  0  0  0  0
  8 27  1  0  0  0  0
  8 28  1  0  0  0  0
  9 13  1  0  0  0  0
  9 29  1  0  0  0  0
 10 14  1  0  0  0  0
 11 13  2  0  0  0  0
 11 15  1  0  0  0  0
 12  1  1  0  0  0  0
 12 14  1  0  0  0  0
 12 30  1  1  0  0  0
 13 16  1  0  0  0  0
 15 17  2  0  0  0  0
 15 31  1  0  0  0  0
 16 18  1  0  0  0  0
 17 18  1  0  0  0  0
 17 32  1  0  0  0  0
M  END
>  <Mol_ID>
9840

>  <Formula>
C14H14O4

>  <MolWeight>
246.25856

>  <Cat>
E2468

>  <Name>
Decursinol

>  <Synonyms>
N/A

>  <Target>
others

>  <Form>
free base

>  <CAS>
23458-02-8

>  <URL>
https://www.selleckchem.com/products/decursinol.html

$$$$
