Deferitrin
 OpenBabel08302521323D

 28 29  0  0  0  0  0  0  0  0999 V2000
   -0.5366    1.4396    0.3724 S   0  0  0  0  0  0  0  0  0  0  0  0
    0.9906    0.6692    0.0062 C   0  0  0  0  0  0  0  0  0  0  0  0
    0.9755   -0.6139   -0.1893 N   0  0  0  0  0  0  0  0  0  0  0  0
   -0.3914   -1.1595    0.0912 C   0  0  2  0  0  0  0  0  0  0  0  0
   -1.4257   -0.0549   -0.1144 C   0  0  0  0  0  0  0  0  0  0  0  0
   -0.5109   -1.7070    1.5213 C   0  0  0  0  0  0  0  0  0  0  0  0
   -1.5015   -2.2523    1.9866 O   0  0  0  0  0  0  0  0  0  0  0  0
    0.5807   -1.5420    2.2942 O   0  0  0  0  0  0  0  0  0  0  0  0
   -0.6170   -2.3202   -0.8786 C   0  0  0  0  0  0  0  0  0  0  0  0
    2.2203    1.4799   -0.1622 C   0  0  0  0  0  0  0  0  0  0  0  0
    3.2812    0.9895   -0.9424 C   0  0  0  0  0  0  0  0  0  0  0  0
    4.4292    1.7540   -1.1467 C   0  0  0  0  0  0  0  0  0  0  0  0
    4.5372    3.0018   -0.5448 C   0  0  0  0  0  0  0  0  0  0  0  0
    3.5132    3.4988    0.2546 C   0  0  0  0  0  0  0  0  0  0  0  0
    2.3540    2.7394    0.4436 C   0  0  0  0  0  0  0  0  0  0  0  0
    5.6779    3.7172   -0.7574 O   0  0  0  0  0  0  0  0  0  0  0  0
    3.2587   -0.2407   -1.5469 O   0  0  0  0  0  0  0  0  0  0  0  0
   -2.3326   -0.1756    0.4849 H   0  0  0  0  0  0  0  0  0  0  0  0
   -1.7094    0.0447   -1.1673 H   0  0  0  0  0  0  0  0  0  0  0  0
    0.3395   -1.9543    3.1494 H   0  0  0  0  0  0  0  0  0  0  0  0
   -0.4892   -1.9968   -1.9178 H   0  0  0  0  0  0  0  0  0  0  0  0
    0.1021   -3.1278   -0.6967 H   0  0  0  0  0  0  0  0  0  0  0  0
   -1.6226   -2.7417   -0.7732 H   0  0  0  0  0  0  0  0  0  0  0  0
    5.2362    1.3741   -1.7665 H   0  0  0  0  0  0  0  0  0  0  0  0
    3.5949    4.4692    0.7349 H   0  0  0  0  0  0  0  0  0  0  0  0
    1.5716    3.1452    1.0795 H   0  0  0  0  0  0  0  0  0  0  0  0
    5.6250    4.5518   -0.2637 H   0  0  0  0  0  0  0  0  0  0  0  0
    2.4897   -0.7352   -1.1858 H   0  0  0  0  0  0  0  0  0  0  0  0
  1  2  1  0  0  0  0
  1  5  1  0  0  0  0
  2  3  2  0  0  0  0
  2 10  1  0  0  0  0
  3  4  1  0  0  0  0
  4  5  1  0  0  0  0
  4  6  1  1  0  0  0
  4  9  1  0  0  0  0
  5 18  1  0  0  0  0
  5 19  1  0  0  0  0
  6  7  2  0  0  0  0
  6  8  1  0  0  0  0
  8 20  1  0  0  0  0
  9 21  1  0  0  0  0
  9 22  1  0  0  0  0
  9 23  1  0  0  0  0
 10 11  2  0  0  0  0
 10 15  1  0  0  0  0
 11 12  1  0  0  0  0
 11 17  1  0  0  0  0
 12 13  2  0  0  0  0
 12 24  1  0  0  0  0
 13 14  1  0  0  0  0
 13 16  1  0  0  0  0
 14 15  2  0  0  0  0
 14 25  1  0  0  0  0
 15 26  1  0  0  0  0
 16 27  1  0  0  0  0
 17 28  1  0  0  0  0
M  END
>  <Mol_ID>
6126

>  <Formula>
C11H11NO4S

>  <MolWeight>
253.27434

>  <Cat>
E0117

>  <Name>
Deferitrin

>  <Synonyms>
GT-56-252

>  <Target>
Others

>  <Form>
free base

>  <CAS>
239101-33-8

>  <URL>
http://www.selleckchem.com/products/deferitrin.html

$$$$
