Defensamide (MHP)
 OpenBabel08302520403D

 44 44  0  0  0  0  0  0  0  0999 V2000
   -1.1855   -1.2413   -0.7116 C   0  0  0  0  0  0  0  0  0  0  0  0
    0.0823   -0.4691   -1.1188 C   0  0  2  0  0  0  0  0  0  0  0  0
    0.9984   -0.1905    0.0923 C   0  0  0  0  0  0  0  0  0  0  0  0
   -2.3283   -0.8154   -0.8413 O   0  0  0  0  0  0  0  0  0  0  0  0
   -0.8792   -2.4721   -0.2012 O   0  0  0  0  0  0  0  0  0  0  0  0
    2.2153    0.6424   -0.2650 C   0  0  0  0  0  0  0  0  0  0  0  0
    2.4151    1.9080    0.3151 C   0  0  0  0  0  0  0  0  0  0  0  0
    3.4542    2.7350   -0.1156 C   0  0  0  0  0  0  0  0  0  0  0  0
    4.3132    2.2933   -1.1193 C   0  0  0  0  0  0  0  0  0  0  0  0
    4.1804    1.0181   -1.6509 C   0  0  0  0  0  0  0  0  0  0  0  0
    3.1358    0.1927   -1.2233 C   0  0  0  0  0  0  0  0  0  0  0  0
    5.2958    3.0944   -1.6215 O   0  0  0  0  0  0  0  0  0  0  0  0
   -0.3432    0.7914   -1.7433 N   0  0  0  0  0  0  0  0  0  0  0  0
   -0.7046    0.8170   -3.0724 C   0  0  0  0  0  0  0  0  0  0  0  0
   -1.2882    2.1377   -3.5270 C   0  0  0  0  0  0  0  0  0  0  0  0
   -0.2101    3.1398   -3.9362 C   0  0  0  0  0  0  0  0  0  0  0  0
    0.6775    2.6923   -5.1044 C   0  0  0  0  0  0  0  0  0  0  0  0
   -0.0963    2.4027   -6.3916 C   0  0  0  0  0  0  0  0  0  0  0  0
    0.8374    1.9807   -7.5158 C   0  0  0  0  0  0  0  0  0  0  0  0
   -0.5386   -0.1304   -3.8339 O   0  0  0  0  0  0  0  0  0  0  0  0
   -2.0164   -3.2781    0.1283 C   0  0  0  0  0  0  0  0  0  0  0  0
    0.6058   -1.0719   -1.8735 H   0  0  0  0  0  0  0  0  0  0  0  0
    0.4165    0.3257    0.8693 H   0  0  0  0  0  0  0  0  0  0  0  0
    1.3373   -1.1308    0.5454 H   0  0  0  0  0  0  0  0  0  0  0  0
    1.7450    2.2709    1.0911 H   0  0  0  0  0  0  0  0  0  0  0  0
    3.5770    3.7191    0.3272 H   0  0  0  0  0  0  0  0  0  0  0  0
    4.8682    0.6760   -2.4186 H   0  0  0  0  0  0  0  0  0  0  0  0
    3.0341   -0.7911   -1.6735 H   0  0  0  0  0  0  0  0  0  0  0  0
    5.1355    4.0028   -1.3199 H   0  0  0  0  0  0  0  0  0  0  0  0
   -0.7755    1.4769   -1.1406 H   0  0  0  0  0  0  0  0  0  0  0  0
   -1.9959    1.9457   -4.3406 H   0  0  0  0  0  0  0  0  0  0  0  0
   -1.8826    2.5634   -2.7092 H   0  0  0  0  0  0  0  0  0  0  0  0
   -0.6965    4.0867   -4.2007 H   0  0  0  0  0  0  0  0  0  0  0  0
    0.4369    3.3500   -3.0751 H   0  0  0  0  0  0  0  0  0  0  0  0
    1.4105    3.4851   -5.2990 H   0  0  0  0  0  0  0  0  0  0  0  0
    1.2533    1.8068   -4.8115 H   0  0  0  0  0  0  0  0  0  0  0  0
   -0.8236    1.6002   -6.2311 H   0  0  0  0  0  0  0  0  0  0  0  0
   -0.6559    3.2934   -6.7000 H   0  0  0  0  0  0  0  0  0  0  0  0
    1.4144    1.0936   -7.2324 H   0  0  0  0  0  0  0  0  0  0  0  0
    0.2616    1.7354   -8.4144 H   0  0  0  0  0  0  0  0  0  0  0  0
    1.5378    2.7817   -7.7677 H   0  0  0  0  0  0  0  0  0  0  0  0
   -2.8338   -2.6912    0.5583 H   0  0  0  0  0  0  0  0  0  0  0  0
   -2.3581   -3.8065   -0.7656 H   0  0  0  0  0  0  0  0  0  0  0  0
   -1.7060   -4.0159    0.8733 H   0  0  0  0  0  0  0  0  0  0  0  0
  1  4  2  0  0  0  0
  1  5  1  0  0  0  0
  2 13  1  0  0  0  0
  2 22  1  6  0  0  0
  2  3  1  0  0  0  0
  2  1  1  0  0  0  0
  3  6  1  0  0  0  0
  3 23  1  0  0  0  0
  3 24  1  0  0  0  0
  5 21  1  0  0  0  0
  6  7  2  0  0  0  0
  6 11  1  0  0  0  0
  7  8  1  0  0  0  0
  7 25  1  0  0  0  0
  8  9  2  0  0  0  0
  8 26  1  0  0  0  0
  9 10  1  0  0  0  0
  9 12  1  0  0  0  0
 10 11  2  0  0  0  0
 10 27  1  0  0  0  0
 11 28  1  0  0  0  0
 12 29  1  0  0  0  0
 13 14  1  0  0  0  0
 13 30  1  0  0  0  0
 14 15  1  0  0  0  0
 14 20  2  0  0  0  0
 15 16  1  0  0  0  0
 15 31  1  0  0  0  0
 15 32  1  0  0  0  0
 16 17  1  0  0  0  0
 16 33  1  0  0  0  0
 16 34  1  0  0  0  0
 17 18  1  0  0  0  0
 17 35  1  0  0  0  0
 17 36  1  0  0  0  0
 18 19  1  0  0  0  0
 18 37  1  0  0  0  0
 18 38  1  0  0  0  0
 19 39  1  0  0  0  0
 19 40  1  0  0  0  0
 19 41  1  0  0  0  0
 21 42  1  0  0  0  0
 21 43  1  0  0  0  0
 21 44  1  0  0  0  0
M  END
>  <Mol_ID>
3812

>  <Formula>
C16H23NO4

>  <MolWeight>
293.35812

>  <Cat>
S6512

>  <Name>
Defensamide (MHP)

>  <Synonyms>
N/A

>  <Target>
SPHK

>  <Form>
free base

>  <CAS>
1104874-94-3

>  <URL>
http://www.selleck.cn/products/defensamide.html

$$$$
