Deflazacort.cdx
 OpenBabel08302519503D

 63 67  0  0  0  0  0  0  0  0999 V2000
    2.6451    0.4573    1.6520 C   0  0  0  0  0  0  0  0  0  0  0  0
    2.6596   -0.6916    0.7296 C   0  0  0  0  0  0  0  0  0  0  0  0
    2.2369   -0.4155   -0.6637 C   0  0  0  0  0  0  0  0  0  0  0  0
    2.1394    0.8402   -1.1624 C   0  0  0  0  0  0  0  0  0  0  0  0
    2.6220    2.0442   -0.3610 C   0  0  2  0  0  0  0  0  0  0  0  0
    2.6204    1.6792    1.1439 C   0  0  0  0  0  0  0  0  0  0  0  0
    1.3109    1.0465   -2.4154 C   0  0  0  0  0  0  0  0  0  0  0  0
    0.8319    2.4582   -2.8740 C   0  0  0  0  0  0  0  0  0  0  0  0
    1.1783    3.6817   -1.9932 C   0  0  2  0  0  0  0  0  0  0  0  0
    1.5929    3.1453   -0.5878 C   0  0  3  0  0  0  0  0  0  0  0  0
   -0.0539    4.8146   -1.8399 C   0  0  3  0  0  0  0  0  0  0  0  0
   -0.8950    4.4907   -0.5561 C   0  0  3  0  0  0  0  0  0  0  0  0
    0.2919    4.5738    0.6080 C   0  0  0  0  0  0  0  0  0  0  0  0
    1.7377    4.4171    0.1818 C   0  0  3  0  0  0  0  0  0  0  0  0
    0.1525    6.3567   -1.5702 C   0  0  0  0  0  0  0  0  0  0  0  0
   -1.2030    6.7169   -0.9181 C   0  0  3  0  0  0  0  0  0  0  0  0
   -1.7621    5.6231   -0.0150 C   0  0  3  0  0  0  0  0  0  0  0  0
    2.9180   -1.8173    1.1283 O   0  0  0  0  0  0  0  0  0  0  0  0
   -1.6248    7.8482   -0.2446 O   0  0  0  0  0  0  0  0  0  0  0  0
   -2.8939    7.3680    0.0558 C   0  0  0  0  0  0  0  0  0  0  0  0
   -3.1637    6.0782   -0.1501 N   0  0  0  0  0  0  0  0  0  0  0  0
   -3.8307    8.4149    0.5292 C   0  0  0  0  0  0  0  0  0  0  0  0
    4.0505    2.4586   -0.7302 C   0  0  0  0  0  0  0  0  0  0  0  0
    2.5892    4.4958    1.3014 O   0  0  0  0  0  0  0  0  0  0  0  0
   -1.8302    3.3477   -0.9896 C   0  0  0  0  0  0  0  0  0  0  0  0
   -1.8701    5.3200    1.6247 C   0  0  0  0  0  0  0  0  0  0  0  0
   -2.4762    3.9130    2.0193 C   0  0  0  0  0  0  0  0  0  0  0  0
   -2.2749    3.3585    3.3262 O   0  0  0  0  0  0  0  0  0  0  0  0
   -1.4105    2.2955    3.3829 C   0  0  0  0  0  0  0  0  0  0  0  0
   -1.4813    1.5815    4.6987 C   0  0  0  0  0  0  0  0  0  0  0  0
   -0.6732    1.9255    2.4759 O   0  0  0  0  0  0  0  0  0  0  0  0
   -1.5134    6.1362    2.4794 O   0  0  0  0  0  0  0  0  0  0  0  0
    2.6081    0.2686    2.7240 H   0  0  0  0  0  0  0  0  0  0  0  0
    1.8754   -1.2835   -1.1947 H   0  0  0  0  0  0  0  0  0  0  0  0
    2.5677    2.4741    1.8798 H   0  0  0  0  0  0  0  0  0  0  0  0
    1.8081    0.5477   -3.2573 H   0  0  0  0  0  0  0  0  0  0  0  0
    0.3858    0.4743   -2.2450 H   0  0  0  0  0  0  0  0  0  0  0  0
   -0.2523    2.4008   -3.0322 H   0  0  0  0  0  0  0  0  0  0  0  0
    1.2334    2.6282   -3.8796 H   0  0  0  0  0  0  0  0  0  0  0  0
    2.0202    4.1947   -2.4784 H   0  0  0  0  0  0  0  0  0  0  0  0
    0.6896    2.6180   -0.2420 H   0  0  0  0  0  0  0  0  0  0  0  0
   -0.6478    4.7496   -2.7631 H   0  0  0  0  0  0  0  0  0  0  0  0
    0.0915    3.8785    1.4262 H   0  0  0  0  0  0  0  0  0  0  0  0
    0.3293    5.5756    1.0580 H   0  0  0  0  0  0  0  0  0  0  0  0
    2.1285    5.2033   -0.4677 H   0  0  0  0  0  0  0  0  0  0  0  0
    0.9923    6.6742   -0.9585 H   0  0  0  0  0  0  0  0  0  0  0  0
    0.2644    6.8837   -2.5283 H   0  0  0  0  0  0  0  0  0  0  0  0
   -1.8046    6.7378   -1.8533 H   0  0  0  0  0  0  0  0  0  0  0  0
   -4.4005    8.0321    1.3813 H   0  0  0  0  0  0  0  0  0  0  0  0
   -3.2786    9.2973    0.8604 H   0  0  0  0  0  0  0  0  0  0  0  0
   -4.5022    8.6892   -0.2848 H   0  0  0  0  0  0  0  0  0  0  0  0
    4.4226    3.2636   -0.0802 H   0  0  0  0  0  0  0  0  0  0  0  0
    4.7466    1.6236   -0.6199 H   0  0  0  0  0  0  0  0  0  0  0  0
    4.1146    2.8159   -1.7669 H   0  0  0  0  0  0  0  0  0  0  0  0
    2.5854    5.4197    1.6127 H   0  0  0  0  0  0  0  0  0  0  0  0
   -1.3501    2.3727   -1.0614 H   0  0  0  0  0  0  0  0  0  0  0  0
   -2.2431    3.5867   -1.9827 H   0  0  0  0  0  0  0  0  0  0  0  0
   -2.7506    3.2478   -0.4130 H   0  0  0  0  0  0  0  0  0  0  0  0
   -3.5563    3.9708    1.8489 H   0  0  0  0  0  0  0  0  0  0  0  0
   -2.1055    3.1714    1.3283 H   0  0  0  0  0  0  0  0  0  0  0  0
   -0.7498    1.9983    5.3928 H   0  0  0  0  0  0  0  0  0  0  0  0
   -1.2640    0.5199    4.5349 H   0  0  0  0  0  0  0  0  0  0  0  0
   -2.4894    1.6426    5.1168 H   0  0  0  0  0  0  0  0  0  0  0  0
  1  2  1  0  0  0  0
  1 33  1  0  0  0  0
  2  3  1  0  0  0  0
  2 18  2  0  0  0  0
  3  4  2  0  0  0  0
  3 34  1  0  0  0  0
  4  5  1  0  0  0  0
  4  7  1  0  0  0  0
  5  6  1  0  0  0  0
  5 23  1  6  0  0  0
  6  1  2  0  0  0  0
  6 35  1  0  0  0  0
  7  8  1  0  0  0  0
  7 36  1  0  0  0  0
  7 37  1  0  0  0  0
  8 38  1  0  0  0  0
  8 39  1  0  0  0  0
  9  8  1  0  0  0  0
  9 10  1  0  0  0  0
  9 11  1  0  0  0  0
  9 40  1  6  0  0  0
 10  5  1  0  0  0  0
 10 14  1  0  0  0  0
 10 41  1  0  0  0  0
 11 12  1  0  0  0  0
 11 15  1  0  0  0  0
 11 42  1  0  0  0  0
 12 13  1  0  0  0  0
 12 25  1  0  0  0  0
 13 14  1  0  0  0  0
 13 43  1  0  0  0  0
 13 44  1  0  0  0  0
 14 24  1  0  0  0  0
 14 45  1  0  0  0  0
 15 46  1  0  0  0  0
 15 47  1  0  0  0  0
 16 15  1  0  0  0  0
 16 17  1  0  0  0  0
 16 19  1  0  0  0  0
 16 48  1  0  0  0  0
 17 12  1  0  0  0  0
 17 26  1  0  0  0  0
 19 20  1  0  0  0  0
 20 21  2  0  0  0  0
 20 22  1  0  0  0  0
 21 17  1  0  0  0  0
 22 49  1  0  0  0  0
 22 50  1  0  0  0  0
 22 51  1  0  0  0  0
 23 52  1  0  0  0  0
 23 53  1  0  0  0  0
 23 54  1  0  0  0  0
 24 55  1  0  0  0  0
 25 56  1  0  0  0  0
 25 57  1  0  0  0  0
 25 58  1  0  0  0  0
 26 27  1  0  0  0  0
 26 32  2  0  0  0  0
 27 28  1  0  0  0  0
 27 59  1  0  0  0  0
 27 60  1  0  0  0  0
 28 29  1  0  0  0  0
 29 30  1  0  0  0  0
 29 31  2  0  0  0  0
 30 61  1  0  0  0  0
 30 62  1  0  0  0  0
 30 63  1  0  0  0  0
M  END
>  <Mol_ID>
169

>  <Formula>
C25H31NO6

>  <MolWeight>
441.51674

>  <Cat>
S1888

>  <Name>
Deflazacort

>  <Synonyms>
MDL 458

>  <Target>
Glucocorticoid Receptor

>  <Form>
free base

>  <CAS>
14484-47-0

>  <URL>
http://selleckchem.com/products/Deflazacor.html

$$$$
