DEG-35
 OpenBabel08302521373D

 54 58  0  0  0  0  0  0  0  0999 V2000
    9.7909    3.2751    8.0215 C   0  0  0  0  0  0  0  0  0  0  0  0
    8.8142    3.7950    8.9158 O   0  0  0  0  0  0  0  0  0  0  0  0
    7.5100    3.5295    8.5992 C   0  0  0  0  0  0  0  0  0  0  0  0
    6.5820    4.4299    9.1271 C   0  0  0  0  0  0  0  0  0  0  0  0
    5.2031    4.2667    8.9111 C   0  0  0  0  0  0  0  0  0  0  0  0
    4.7580    3.1873    8.1234 C   0  0  0  0  0  0  0  0  0  0  0  0
    5.6975    2.2775    7.6115 C   0  0  0  0  0  0  0  0  0  0  0  0
    7.0618    2.4390    7.8616 C   0  0  0  0  0  0  0  0  0  0  0  0
    3.3778    3.0498    7.8804 C   0  0  0  0  0  0  0  0  0  0  0  0
    2.4377    3.9380    8.4361 C   0  0  0  0  0  0  0  0  0  0  0  0
    0.9938    3.7017    8.1034 C   0  0  0  0  0  0  0  0  0  0  0  0
    0.7363    2.7465    7.3771 O   0  0  0  0  0  0  0  0  0  0  0  0
    0.0560    4.6099    8.5868 N   0  0  0  0  0  0  0  0  0  0  0  0
   -1.3283    4.5820    8.2851 C   0  0  0  0  0  0  0  0  0  0  0  0
   -1.9685    3.4375    7.7676 C   0  0  0  0  0  0  0  0  0  0  0  0
   -3.2840    3.4857    7.3033 C   0  0  0  0  0  0  0  0  0  0  0  0
   -3.9368    4.6930    7.3953 C   0  0  0  0  0  0  0  0  0  0  0  0
   -5.2589    5.0573    6.8792 C   0  0  0  0  0  0  0  0  0  0  0  0
   -6.0067    4.3141    6.2765 O   0  0  0  0  0  0  0  0  0  0  0  0
   -5.4466    6.3945    7.1831 N   0  0  0  0  0  0  0  0  0  0  0  0
   -6.6894    7.1019    6.8761 C   0  0  3  0  0  0  0  0  0  0  0  0
   -6.8697    7.3594    5.3768 C   0  0  0  0  0  0  0  0  0  0  0  0
   -5.9198    8.4385    4.8847 C   0  0  0  0  0  0  0  0  0  0  0  0
   -6.0204    9.6948    5.7140 C   0  0  0  0  0  0  0  0  0  0  0  0
   -5.6033   10.7783    5.3144 O   0  0  0  0  0  0  0  0  0  0  0  0
   -6.5289    9.5670    6.9807 N   0  0  0  0  0  0  0  0  0  0  0  0
   -6.8360    8.4106    7.6569 C   0  0  0  0  0  0  0  0  0  0  0  0
   -7.0538    8.4456    8.8671 O   0  0  0  0  0  0  0  0  0  0  0  0
   -4.3358    6.9534    7.9494 C   0  0  0  0  0  0  0  0  0  0  0  0
   -3.3651    5.8174    7.9860 C   0  0  0  0  0  0  0  0  0  0  0  0
   -2.0613    5.7707    8.4608 C   0  0  0  0  0  0  0  0  0  0  0  0
    2.8920    4.9753    9.2500 C   0  0  0  0  0  0  0  0  0  0  0  0
    4.2663    5.1479    9.4688 C   0  0  0  0  0  0  0  0  0  0  0  0
   10.7665    3.6551    8.3398 H   0  0  0  0  0  0  0  0  0  0  0  0
    9.6118    3.6244    6.9991 H   0  0  0  0  0  0  0  0  0  0  0  0
    9.8350    2.1825    8.0642 H   0  0  0  0  0  0  0  0  0  0  0  0
    6.9476    5.2728    9.7087 H   0  0  0  0  0  0  0  0  0  0  0  0
    5.3644    1.4196    7.0299 H   0  0  0  0  0  0  0  0  0  0  0  0
    7.7447    1.6842    7.4847 H   0  0  0  0  0  0  0  0  0  0  0  0
    3.0334    2.2321    7.2485 H   0  0  0  0  0  0  0  0  0  0  0  0
    0.3898    5.4573    9.0169 H   0  0  0  0  0  0  0  0  0  0  0  0
   -1.4491    2.4860    7.6954 H   0  0  0  0  0  0  0  0  0  0  0  0
   -3.7568    2.6179    6.8591 H   0  0  0  0  0  0  0  0  0  0  0  0
   -7.5114    6.4459    7.1913 H   0  0  0  0  0  0  0  0  0  0  0  0
   -7.9021    7.6857    5.1934 H   0  0  0  0  0  0  0  0  0  0  0  0
   -6.7172    6.4452    4.7928 H   0  0  0  0  0  0  0  0  0  0  0  0
   -6.1717    8.6938    3.8495 H   0  0  0  0  0  0  0  0  0  0  0  0
   -4.8810    8.0916    4.9082 H   0  0  0  0  0  0  0  0  0  0  0  0
   -6.5475   10.4149    7.5319 H   0  0  0  0  0  0  0  0  0  0  0  0
   -3.9284    7.8181    7.4186 H   0  0  0  0  0  0  0  0  0  0  0  0
   -4.6728    7.2133    8.9560 H   0  0  0  0  0  0  0  0  0  0  0  0
   -1.6081    6.6573    8.8925 H   0  0  0  0  0  0  0  0  0  0  0  0
    2.2225    5.6713    9.7407 H   0  0  0  0  0  0  0  0  0  0  0  0
    4.6011    5.9720   10.0950 H   0  0  0  0  0  0  0  0  0  0  0  0
  1  2  1  0  0  0  0
  1 34  1  0  0  0  0
  1 35  1  0  0  0  0
  1 36  1  0  0  0  0
  2  3  1  0  0  0  0
  3  4  2  0  0  0  0
  4  5  1  0  0  0  0
  4 37  1  0  0  0  0
  5  6  2  0  0  0  0
  6  7  1  0  0  0  0
  6  9  1  0  0  0  0
  7  8  2  0  0  0  0
  7 38  1  0  0  0  0
  8  3  1  0  0  0  0
  8 39  1  0  0  0  0
  9 10  2  0  0  0  0
  9 40  1  0  0  0  0
 10 11  1  0  0  0  0
 10 32  1  0  0  0  0
 11 12  2  0  0  0  0
 11 13  1  0  0  0  0
 13 14  1  0  0  0  0
 13 41  1  0  0  0  0
 14 15  2  0  0  0  0
 15 16  1  0  0  0  0
 15 42  1  0  0  0  0
 16 17  2  0  0  0  0
 16 43  1  0  0  0  0
 17 18  1  0  0  0  0
 18 19  2  0  0  0  0
 18 20  1  0  0  0  0
 20 21  1  0  0  0  0
 20 29  1  0  0  0  0
 21 22  1  0  0  0  0
 21 44  1  0  0  0  0
 22 23  1  0  0  0  0
 22 45  1  0  0  0  0
 22 46  1  0  0  0  0
 23 24  1  0  0  0  0
 23 47  1  0  0  0  0
 23 48  1  0  0  0  0
 24 25  2  0  0  0  0
 24 26  1  0  0  0  0
 26 27  1  0  0  0  0
 26 49  1  0  0  0  0
 27 28  2  0  0  0  0
 27 21  1  0  0  0  0
 29 30  1  0  0  0  0
 29 50  1  0  0  0  0
 29 51  1  0  0  0  0
 30 31  2  0  0  0  0
 30 17  1  0  0  0  0
 31 14  1  0  0  0  0
 31 52  1  0  0  0  0
 32 33  2  0  0  0  0
 32 53  1  0  0  0  0
 33  5  1  0  0  0  0
 33 54  1  0  0  0  0
M  END
>  <Mol_ID>
7539

>  <Formula>
C25H21N3O5

>  <MolWeight>
443.45134

>  <Cat>
E1412

>  <Name>
DEG-35

>  <Target>
Casein Kinase

>  <Form>
free base

>  <URL>
https://www.selleckchem.com/products/deg-35.html

$$$$
