DEG-77
 OpenBabel08302521373D

 54 58  0  0  0  0  0  0  0  0999 V2000
    8.0361    2.3937    0.9167 C   0  0  0  0  0  0  0  0  0  0  0  0
    9.3988    2.1487    0.5947 O   0  0  0  0  0  0  0  0  0  0  0  0
    9.6733    1.0120   -0.1190 C   0  0  0  0  0  0  0  0  0  0  0  0
   10.9475    0.4888    0.1321 C   0  0  0  0  0  0  0  0  0  0  0  0
   11.4022   -0.6480   -0.5369 C   0  0  0  0  0  0  0  0  0  0  0  0
   10.6062   -1.2451   -1.5104 C   0  0  0  0  0  0  0  0  0  0  0  0
    9.3407   -0.7233   -1.7909 C   0  0  0  0  0  0  0  0  0  0  0  0
    8.8565    0.3809   -1.0661 C   0  0  0  0  0  0  0  0  0  0  0  0
    7.6123    0.8847   -1.3420 O   0  0  0  0  0  0  0  0  0  0  0  0
    6.6564   -0.0840   -1.8100 C   0  0  0  0  0  0  0  0  0  0  0  0
    7.2148   -1.0431   -2.8310 C   0  0  0  0  0  0  0  0  0  0  0  0
    6.2135   -1.6067   -3.7831 C   0  0  0  0  0  0  0  0  0  0  0  0
    5.0921   -1.1068   -3.8019 O   0  0  0  0  0  0  0  0  0  0  0  0
    6.6023   -2.7385   -4.4847 N   0  0  0  0  0  0  0  0  0  0  0  0
    5.7394   -3.4846   -5.3252 C   0  0  0  0  0  0  0  0  0  0  0  0
    4.5505   -2.9286   -5.8389 C   0  0  0  0  0  0  0  0  0  0  0  0
    3.5717   -3.7294   -6.4150 C   0  0  0  0  0  0  0  0  0  0  0  0
    3.8412   -5.0745   -6.5067 C   0  0  0  0  0  0  0  0  0  0  0  0
    2.9546   -6.1384   -6.9651 C   0  0  0  0  0  0  0  0  0  0  0  0
    1.7987   -5.9661   -7.3000 O   0  0  0  0  0  0  0  0  0  0  0  0
    3.6889   -7.3208   -6.9609 N   0  0  0  0  0  0  0  0  0  0  0  0
    3.2784   -8.4205   -7.8403 C   0  0  3  0  0  0  0  0  0  0  0  0
    1.9261   -9.0463   -7.4758 C   0  0  0  0  0  0  0  0  0  0  0  0
    2.0242   -9.8964   -6.2204 C   0  0  0  0  0  0  0  0  0  0  0  0
    3.1405  -10.8994   -6.3079 C   0  0  0  0  0  0  0  0  0  0  0  0
    3.1890  -11.8990   -5.5835 O   0  0  0  0  0  0  0  0  0  0  0  0
    4.1386  -10.6593   -7.2076 N   0  0  0  0  0  0  0  0  0  0  0  0
    4.3301   -9.5237   -7.9670 C   0  0  0  0  0  0  0  0  0  0  0  0
    5.3752   -9.3842   -8.6042 O   0  0  0  0  0  0  0  0  0  0  0  0
    5.0815   -7.0721   -6.5652 C   0  0  0  0  0  0  0  0  0  0  0  0
    5.0732   -5.6274   -6.1751 C   0  0  0  0  0  0  0  0  0  0  0  0
    6.0478   -4.8345   -5.5814 C   0  0  0  0  0  0  0  0  0  0  0  0
    8.5283   -1.3071   -2.8578 C   0  0  0  0  0  0  0  0  0  0  0  0
    8.0105    3.2168    1.6377 H   0  0  0  0  0  0  0  0  0  0  0  0
    7.5784    1.5194    1.3913 H   0  0  0  0  0  0  0  0  0  0  0  0
    7.4665    2.7282    0.0460 H   0  0  0  0  0  0  0  0  0  0  0  0
   11.5882    0.9711    0.8671 H   0  0  0  0  0  0  0  0  0  0  0  0
   12.3832   -1.0559   -0.3080 H   0  0  0  0  0  0  0  0  0  0  0  0
   10.9792   -2.1167   -2.0414 H   0  0  0  0  0  0  0  0  0  0  0  0
    5.8352    0.5090   -2.2255 H   0  0  0  0  0  0  0  0  0  0  0  0
    6.2577   -0.6307   -0.9457 H   0  0  0  0  0  0  0  0  0  0  0  0
    7.4545   -3.1984   -4.1996 H   0  0  0  0  0  0  0  0  0  0  0  0
    4.3481   -1.8635   -5.7669 H   0  0  0  0  0  0  0  0  0  0  0  0
    2.6279   -3.3167   -6.7526 H   0  0  0  0  0  0  0  0  0  0  0  0
    3.1719   -7.9804   -8.8430 H   0  0  0  0  0  0  0  0  0  0  0  0
    1.5976   -9.6803   -8.3109 H   0  0  0  0  0  0  0  0  0  0  0  0
    1.1464   -8.2934   -7.3375 H   0  0  0  0  0  0  0  0  0  0  0  0
    1.0836  -10.4430   -6.0898 H   0  0  0  0  0  0  0  0  0  0  0  0
    2.1918   -9.2788   -5.3356 H   0  0  0  0  0  0  0  0  0  0  0  0
    4.8884  -11.3388   -7.2406 H   0  0  0  0  0  0  0  0  0  0  0  0
    5.3397   -7.7309   -5.7319 H   0  0  0  0  0  0  0  0  0  0  0  0
    5.7482   -7.2159   -7.4194 H   0  0  0  0  0  0  0  0  0  0  0  0
    6.9915   -5.2706   -5.2691 H   0  0  0  0  0  0  0  0  0  0  0  0
    9.0174   -1.9188   -3.6032 H   0  0  0  0  0  0  0  0  0  0  0  0
  1  2  1  0  0  0  0
  1 34  1  0  0  0  0
  1 35  1  0  0  0  0
  1 36  1  0  0  0  0
  2  3  1  0  0  0  0
  3  4  2  0  0  0  0
  4  5  1  0  0  0  0
  4 37  1  0  0  0  0
  5  6  2  0  0  0  0
  5 38  1  0  0  0  0
  6  7  1  0  0  0  0
  6 39  1  0  0  0  0
  7  8  2  0  0  0  0
  8  9  1  0  0  0  0
  8  3  1  0  0  0  0
  9 10  1  0  0  0  0
 10 11  1  0  0  0  0
 10 40  1  0  0  0  0
 10 41  1  0  0  0  0
 11 12  1  0  0  0  0
 11 33  2  0  0  0  0
 12 13  2  0  0  0  0
 12 14  1  0  0  0  0
 14 15  1  0  0  0  0
 14 42  1  0  0  0  0
 15 16  2  0  0  0  0
 16 17  1  0  0  0  0
 16 43  1  0  0  0  0
 17 18  2  0  0  0  0
 17 44  1  0  0  0  0
 18 19  1  0  0  0  0
 19 20  2  0  0  0  0
 19 21  1  0  0  0  0
 21 22  1  0  0  0  0
 21 30  1  0  0  0  0
 22 23  1  0  0  0  0
 22 45  1  0  0  0  0
 23 24  1  0  0  0  0
 23 46  1  0  0  0  0
 23 47  1  0  0  0  0
 24 25  1  0  0  0  0
 24 48  1  0  0  0  0
 24 49  1  0  0  0  0
 25 26  2  0  0  0  0
 25 27  1  0  0  0  0
 27 28  1  0  0  0  0
 27 50  1  0  0  0  0
 28 29  2  0  0  0  0
 28 22  1  0  0  0  0
 30 31  1  0  0  0  0
 30 51  1  0  0  0  0
 30 52  1  0  0  0  0
 31 32  2  0  0  0  0
 31 18  1  0  0  0  0
 32 15  1  0  0  0  0
 32 53  1  0  0  0  0
 33  7  1  0  0  0  0
 33 54  1  0  0  0  0
M  END
>  <Mol_ID>
7540

>  <Formula>
C24H21N3O6

>  <MolWeight>
447.44004

>  <Cat>
E1413

>  <Name>
DEG-77

>  <Target>
Casein Kinase

>  <Form>
free base

>  <URL>
https://www.selleckchem.com/products/deg-77.html

$$$$
