Deguelin.cdx
 OpenBabel08302520413D

 51 55  0  0  0  0  0  0  0  0999 V2000
   -4.5423   -0.9254    0.5002 C   0  0  0  0  0  0  0  0  0  0  0  0
   -3.8961   -2.1625    0.6273 C   0  0  0  0  0  0  0  0  0  0  0  0
   -2.6395   -2.3140    0.0697 C   0  0  0  0  0  0  0  0  0  0  0  0
   -1.9649   -1.1673   -0.3195 C   0  0  0  0  0  0  0  0  0  0  0  0
   -2.5820    0.0707   -0.3711 C   0  0  0  0  0  0  0  0  0  0  0  0
   -3.9775    0.0688   -0.2947 C   0  0  0  0  0  0  0  0  0  0  0  0
   -0.5253   -1.2082   -0.4422 C   0  0  0  0  0  0  0  0  0  0  0  0
    0.1333   -0.1567    0.4074 C   0  0  2  0  0  0  0  0  0  0  0  0
   -0.4798    1.2062    0.0600 C   0  0  2  0  0  0  0  0  0  0  0  0
   -1.8818    1.2444   -0.3449 O   0  0  0  0  0  0  0  0  0  0  0  0
    1.6340   -0.2050    0.2850 C   0  0  0  0  0  0  0  0  0  0  0  0
    2.3269    0.7957   -0.3797 C   0  0  0  0  0  0  0  0  0  0  0  0
    1.7397    1.9502   -0.8106 O   0  0  0  0  0  0  0  0  0  0  0  0
    0.3309    1.8864   -1.0404 C   0  0  0  0  0  0  0  0  0  0  0  0
    2.3315   -1.3269    0.7554 C   0  0  0  0  0  0  0  0  0  0  0  0
    3.6990   -1.4861    0.5227 C   0  0  0  0  0  0  0  0  0  0  0  0
    4.3963   -0.4849   -0.1731 C   0  0  0  0  0  0  0  0  0  0  0  0
    3.7044    0.6630   -0.5984 C   0  0  0  0  0  0  0  0  0  0  0  0
   -4.8042    0.2002   -1.5382 C   0  0  0  0  0  0  0  0  0  0  0  0
   -6.0322   -0.3680   -1.5611 C   0  0  0  0  0  0  0  0  0  0  0  0
   -6.7116   -0.9253   -0.3047 C   0  0  0  0  0  0  0  0  0  0  0  0
   -5.8593   -0.7946    0.8598 O   0  0  0  0  0  0  0  0  0  0  0  0
   -7.1046   -2.4137   -0.3286 C   0  0  0  0  0  0  0  0  0  0  0  0
   -7.9873   -0.1055   -0.0603 C   0  0  0  0  0  0  0  0  0  0  0  0
    0.0146   -2.1072   -1.0704 O   0  0  0  0  0  0  0  0  0  0  0  0
    5.7270   -0.7240   -0.4002 O   0  0  0  0  0  0  0  0  0  0  0  0
    4.4192   -2.5720    0.9633 O   0  0  0  0  0  0  0  0  0  0  0  0
    3.6915   -3.7808    1.1517 C   0  0  0  0  0  0  0  0  0  0  0  0
    6.4238    0.1945   -1.2293 C   0  0  0  0  0  0  0  0  0  0  0  0
   -4.4243   -3.0056    1.0451 H   0  0  0  0  0  0  0  0  0  0  0  0
   -2.1471   -3.2808    0.0466 H   0  0  0  0  0  0  0  0  0  0  0  0
   -0.1191   -0.4002    1.4502 H   0  0  0  0  0  0  0  0  0  0  0  0
   -0.3908    1.8293    0.9652 H   0  0  0  0  0  0  0  0  0  0  0  0
    0.1430    1.4147   -2.0131 H   0  0  0  0  0  0  0  0  0  0  0  0
   -0.0166    2.9232   -1.1320 H   0  0  0  0  0  0  0  0  0  0  0  0
    1.7763   -2.0953    1.2863 H   0  0  0  0  0  0  0  0  0  0  0  0
    4.2090    1.4596   -1.1329 H   0  0  0  0  0  0  0  0  0  0  0  0
   -4.3280    0.5555   -2.4474 H   0  0  0  0  0  0  0  0  0  0  0  0
   -6.5848   -0.4425   -2.4953 H   0  0  0  0  0  0  0  0  0  0  0  0
   -7.4191   -2.7234    0.6771 H   0  0  0  0  0  0  0  0  0  0  0  0
   -7.9256   -2.6286   -1.0188 H   0  0  0  0  0  0  0  0  0  0  0  0
   -6.2614   -3.0608   -0.5890 H   0  0  0  0  0  0  0  0  0  0  0  0
   -8.3081   -0.1622    0.9854 H   0  0  0  0  0  0  0  0  0  0  0  0
   -7.8370    0.9562   -0.2896 H   0  0  0  0  0  0  0  0  0  0  0  0
   -8.8101   -0.4570   -0.6946 H   0  0  0  0  0  0  0  0  0  0  0  0
    2.9776   -3.7055    1.9803 H   0  0  0  0  0  0  0  0  0  0  0  0
    3.1872   -4.0930    0.2294 H   0  0  0  0  0  0  0  0  0  0  0  0
    4.4050   -4.5685    1.4236 H   0  0  0  0  0  0  0  0  0  0  0  0
    5.9680    0.2658   -2.2229 H   0  0  0  0  0  0  0  0  0  0  0  0
    6.4871    1.1757   -0.7497 H   0  0  0  0  0  0  0  0  0  0  0  0
    7.4442   -0.1792   -1.3591 H   0  0  0  0  0  0  0  0  0  0  0  0
  1  2  2  0  0  0  0
  2  3  1  0  0  0  0
  2 30  1  0  0  0  0
  3  4  2  0  0  0  0
  3 31  1  0  0  0  0
  4  5  1  0  0  0  0
  4  7  1  0  0  0  0
  5  6  2  0  0  0  0
  6  1  1  0  0  0  0
  6 19  1  0  0  0  0
  7 25  2  0  0  0  0
  8  7  1  0  0  0  0
  8  9  1  0  0  0  0
  8 11  1  0  0  0  0
  8 32  1  1  0  0  0
  9 10  1  0  0  0  0
  9 14  1  0  0  0  0
  9 33  1  1  0  0  0
 10  5  1  0  0  0  0
 11 12  2  0  0  0  0
 11 15  1  0  0  0  0
 12 13  1  0  0  0  0
 13 14  1  0  0  0  0
 14 34  1  0  0  0  0
 14 35  1  0  0  0  0
 15 16  2  0  0  0  0
 15 36  1  0  0  0  0
 16 17  1  0  0  0  0
 16 27  1  0  0  0  0
 17 18  2  0  0  0  0
 17 26  1  0  0  0  0
 18 12  1  0  0  0  0
 18 37  1  0  0  0  0
 19 20  2  0  0  0  0
 19 38  1  0  0  0  0
 20 21  1  0  0  0  0
 20 39  1  0  0  0  0
 21 22  1  0  0  0  0
 21 23  1  0  0  0  0
 21 24  1  0  0  0  0
 22  1  1  0  0  0  0
 23 40  1  0  0  0  0
 23 41  1  0  0  0  0
 23 42  1  0  0  0  0
 24 43  1  0  0  0  0
 24 44  1  0  0  0  0
 24 45  1  0  0  0  0
 26 29  1  0  0  0  0
 27 28  1  0  0  0  0
 28 46  1  0  0  0  0
 28 47  1  0  0  0  0
 28 48  1  0  0  0  0
 29 49  1  0  0  0  0
 29 50  1  0  0  0  0
 29 51  1  0  0  0  0
M  END
>  <Mol_ID>
3962

>  <Formula>
C23H22O6

>  <MolWeight>
394.41718

>  <Cat>
S8132

>  <Name>
Deguelin

>  <Synonyms>
(-)-Deguelin, (-)-cis-Deguelin

>  <Target>
Akt,PI3K

>  <Form>
free base

>  <CAS>
522-17-8

>  <URL>
http://selleckchem.com/products/deguelin.html

$$$$
