Dehydroeffusol
 OpenBabel08302521453D

 33 35  0  0  0  0  0  0  0  0999 V2000
    1.0042    0.3639   -0.1351 C   0  0  0  0  0  0  0  0  0  0  0  0
    0.6497    0.6498   -1.3966 C   0  0  0  0  0  0  0  0  0  0  0  0
   -4.3716   -3.6778    1.7903 C   0  0  0  0  0  0  0  0  0  0  0  0
   -2.7593   -5.0907   -0.0432 O   0  0  0  0  0  0  0  0  0  0  0  0
    0.1418    3.9144    2.8893 O   0  0  0  0  0  0  0  0  0  0  0  0
   -1.3583   -1.3092    1.2011 C   0  0  0  0  0  0  0  0  0  0  0  0
   -0.9277    0.0495    1.5494 C   0  0  0  0  0  0  0  0  0  0  0  0
   -2.5875   -1.8367    1.6987 C   0  0  0  0  0  0  0  0  0  0  0  0
   -0.6013   -2.1894    0.3907 C   0  0  0  0  0  0  0  0  0  0  0  0
   -1.7031    0.7499    2.5173 C   0  0  0  0  0  0  0  0  0  0  0  0
    0.1874    0.7932    1.0087 C   0  0  0  0  0  0  0  0  0  0  0  0
   -3.3158   -1.0590    2.6102 C   0  0  0  0  0  0  0  0  0  0  0  0
   -3.0607   -3.1235    1.2844 C   0  0  0  0  0  0  0  0  0  0  0  0
   -1.0562   -3.4417   -0.0203 C   0  0  0  0  0  0  0  0  0  0  0  0
   -2.8687    0.1882    3.0316 C   0  0  0  0  0  0  0  0  0  0  0  0
   -1.3425    2.0298    2.9757 C   0  0  0  0  0  0  0  0  0  0  0  0
    0.5262    2.0738    1.4829 C   0  0  0  0  0  0  0  0  0  0  0  0
   -2.2929   -3.8864    0.4003 C   0  0  0  0  0  0  0  0  0  0  0  0
   -0.2287    2.6733    2.4680 C   0  0  0  0  0  0  0  0  0  0  0  0
    1.9190   -0.1769    0.0890 H   0  0  0  0  0  0  0  0  0  0  0  0
   -0.2574    1.2036   -1.6222 H   0  0  0  0  0  0  0  0  0  0  0  0
    1.2651    0.3327   -2.2315 H   0  0  0  0  0  0  0  0  0  0  0  0
   -4.3362   -3.7912    2.8787 H   0  0  0  0  0  0  0  0  0  0  0  0
   -5.1973   -3.0141    1.5131 H   0  0  0  0  0  0  0  0  0  0  0  0
   -4.6050   -4.6644    1.3784 H   0  0  0  0  0  0  0  0  0  0  0  0
   -2.1613   -5.4219   -0.7329 H   0  0  0  0  0  0  0  0  0  0  0  0
   -0.4759    4.2094    3.5789 H   0  0  0  0  0  0  0  0  0  0  0  0
    0.3971   -1.9294    0.0661 H   0  0  0  0  0  0  0  0  0  0  0  0
   -4.2519   -1.4174    3.0314 H   0  0  0  0  0  0  0  0  0  0  0  0
   -0.4211   -4.0460   -0.6605 H   0  0  0  0  0  0  0  0  0  0  0  0
   -3.4738    0.7280    3.7593 H   0  0  0  0  0  0  0  0  0  0  0  0
   -1.9504    2.5254    3.7282 H   0  0  0  0  0  0  0  0  0  0  0  0
    1.3700    2.6155    1.0612 H   0  0  0  0  0  0  0  0  0  0  0  0
  1  2  2  0  0  0  0
  1 11  1  0  0  0  0
  1 20  1  0  0  0  0
  2 21  1  0  0  0  0
  2 22  1  0  0  0  0
  3 13  1  0  0  0  0
  3 23  1  0  0  0  0
  3 24  1  0  0  0  0
  3 25  1  0  0  0  0
  4 18  1  0  0  0  0
  4 26  1  0  0  0  0
  5 19  1  0  0  0  0
  5 27  1  0  0  0  0
  6  7  1  0  0  0  0
  6  8  1  0  0  0  0
  6  9  2  0  0  0  0
  7 10  2  0  0  0  0
  7 11  1  0  0  0  0
  8 12  1  0  0  0  0
  8 13  2  0  0  0  0
  9 14  1  0  0  0  0
  9 28  1  0  0  0  0
 10 15  1  0  0  0  0
 10 16  1  0  0  0  0
 11 17  2  0  0  0  0
 12 15  2  0  0  0  0
 12 29  1  0  0  0  0
 13 18  1  0  0  0  0
 14 18  2  0  0  0  0
 14 30  1  0  0  0  0
 15 31  1  0  0  0  0
 16 19  2  0  0  0  0
 16 32  1  0  0  0  0
 17 19  1  0  0  0  0
 17 33  1  0  0  0  0
M  END
>  <Mol_ID>
9610

>  <Formula>
C17H14O2

>  <MolWeight>
250.29186

>  <Cat>
E2190

>  <Name>
Dehydroeffusol

>  <Synonyms>
NA

>  <Target>
Wnt/¦Â-catenin

>  <Form>
Free Base

>  <CAS>
137319-34-7

>  <URL>
https://www.selleckchem.com/products/dehydroeffusol.html

$$$$
