Dehydronuciferine
 OpenBabel08302521473D

 41 44  0  0  0  0  0  0  0  0999 V2000
    1.0229   -0.0581    0.8323 O   0  0  0  0  0  0  0  0  0  0  0  0
   -0.1068   -0.1866   -0.0230 C   0  0  0  0  0  0  0  0  0  0  0  0
    2.5177    2.4408    0.2539 O   0  0  0  0  0  0  0  0  0  0  0  0
    1.1444    2.7460    0.2003 C   0  0  0  0  0  0  0  0  0  0  0  0
    7.5552   -3.4183   -0.3101 C   0  0  0  0  0  0  0  0  0  0  0  0
    2.9892   -1.3864    0.1307 C   0  0  0  0  0  0  0  0  0  0  0  0
    4.4291   -1.2902    0.0778 C   0  0  0  0  0  0  0  0  0  0  0  0
    2.4355   -2.7705    0.0827 C   0  0  0  0  0  0  0  0  0  0  0  0
    2.2785   -0.0908    0.2440 C   0  0  0  0  0  0  0  0  0  0  0  0
    5.2645   -2.4460    0.0414 C   0  0  0  0  0  0  0  0  0  0  0  0
    5.0679   -0.0271    0.0568 C   0  0  0  0  0  0  0  0  0  0  0  0
    3.3094   -3.8867    0.0394 C   0  0  0  0  0  0  0  0  0  0  0  0
    1.0693   -3.1615    0.0296 C   0  0  0  0  0  0  0  0  0  0  0  0
    2.9598    1.1505    0.1531 C   0  0  0  0  0  0  0  0  0  0  0  0
    4.6820   -3.7092    0.0241 C   0  0  0  0  0  0  0  0  0  0  0  0
    6.6646   -2.3281    0.0350 N   0  0  0  0  0  0  0  0  0  0  0  0
    4.3417    1.1553    0.0316 C   0  0  0  0  0  0  0  0  0  0  0  0
    6.5866    0.0806    0.0383 C   0  0  0  0  0  0  0  0  0  0  0  0
    2.8579   -5.2204    0.0085 C   0  0  0  0  0  0  0  0  0  0  0  0
    0.6069   -4.4882   -0.0188 C   0  0  0  0  0  0  0  0  0  0  0  0
    7.1982   -1.1438    0.6891 C   0  0  0  0  0  0  0  0  0  0  0  0
    1.5101   -5.5244   -0.0159 C   0  0  0  0  0  0  0  0  0  0  0  0
    0.1363   -0.5430   -1.0284 H   0  0  0  0  0  0  0  0  0  0  0  0
   -0.7985   -0.8797    0.4716 H   0  0  0  0  0  0  0  0  0  0  0  0
   -0.6652    0.7486   -0.0869 H   0  0  0  0  0  0  0  0  0  0  0  0
    0.6769    2.3303   -0.6945 H   0  0  0  0  0  0  0  0  0  0  0  0
    0.6468    2.4445    1.1242 H   0  0  0  0  0  0  0  0  0  0  0  0
    1.0535    3.8358    0.1257 H   0  0  0  0  0  0  0  0  0  0  0  0
    7.4628   -4.2598    0.3833 H   0  0  0  0  0  0  0  0  0  0  0  0
    7.3428   -3.7623   -1.3288 H   0  0  0  0  0  0  0  0  0  0  0  0
    8.6019   -3.0990   -0.2956 H   0  0  0  0  0  0  0  0  0  0  0  0
    0.2873   -2.4357   -0.0074 H   0  0  0  0  0  0  0  0  0  0  0  0
    5.3167   -4.5837   -0.0005 H   0  0  0  0  0  0  0  0  0  0  0  0
    4.8699    2.1087   -0.0085 H   0  0  0  0  0  0  0  0  0  0  0  0
    6.9106    0.9741    0.5847 H   0  0  0  0  0  0  0  0  0  0  0  0
    6.9135    0.1715   -1.0002 H   0  0  0  0  0  0  0  0  0  0  0  0
    3.5694   -6.0454   -0.0078 H   0  0  0  0  0  0  0  0  0  0  0  0
   -0.4608   -4.6936   -0.0644 H   0  0  0  0  0  0  0  0  0  0  0  0
    6.9765   -1.1771    1.7650 H   0  0  0  0  0  0  0  0  0  0  0  0
    8.2890   -1.0913    0.5947 H   0  0  0  0  0  0  0  0  0  0  0  0
    1.1756   -6.5604   -0.0426 H   0  0  0  0  0  0  0  0  0  0  0  0
  1  2  1  0  0  0  0
  1  9  1  0  0  0  0
  2 23  1  0  0  0  0
  2 24  1  0  0  0  0
  2 25  1  0  0  0  0
  3  4  1  0  0  0  0
  3 14  1  0  0  0  0
  4 26  1  0  0  0  0
  4 27  1  0  0  0  0
  4 28  1  0  0  0  0
  5 16  1  0  0  0  0
  5 29  1  0  0  0  0
  5 30  1  0  0  0  0
  5 31  1  0  0  0  0
  6  7  1  0  0  0  0
  6  8  1  0  0  0  0
  6  9  2  0  0  0  0
  7 10  1  0  0  0  0
  7 11  2  0  0  0  0
  8 12  2  0  0  0  0
  8 13  1  0  0  0  0
  9 14  1  0  0  0  0
 10 15  2  0  0  0  0
 10 16  1  0  0  0  0
 11 17  1  0  0  0  0
 11 18  1  0  0  0  0
 12 15  1  0  0  0  0
 12 19  1  0  0  0  0
 13 20  2  0  0  0  0
 13 32  1  0  0  0  0
 14 17  2  0  0  0  0
 15 33  1  0  0  0  0
 16 21  1  0  0  0  0
 17 34  1  0  0  0  0
 18 21  1  0  0  0  0
 18 35  1  0  0  0  0
 18 36  1  0  0  0  0
 19 22  2  0  0  0  0
 19 37  1  0  0  0  0
 20 22  1  0  0  0  0
 20 38  1  0  0  0  0
 21 39  1  0  0  0  0
 21 40  1  0  0  0  0
 22 41  1  0  0  0  0
M  END
>  <Mol_ID>
9759

>  <Formula>
C19H19NO2

>  <MolWeight>
293.35966

>  <Cat>
E2241

>  <Name>
Dehydronuciferine

>  <Synonyms>
NA

>  <Target>
ACE

>  <Form>
Free Base

>  <CAS>
7630-74-2

>  <URL>
https://www.selleckchem.com/products/dehydronuciferine.html

$$$$
