Dehydrocorydaline nitrate
 OpenBabel08302521493D

 55 57  0  0  0  0  0  0  0  0999 V2000
    0.7517   -0.3962    0.7883 C   0  0  0  0  0  0  0  0  0  0  0  0
   -1.7093    2.8694   -1.6716 O   0  0  0  0  0  0  0  0  0  0  0  0
   -2.0231    4.2344   -1.5825 C   0  0  0  0  0  0  0  0  0  0  0  0
   -4.9476    2.3053   -1.2811 O   0  0  0  0  0  0  0  0  0  0  0  0
   -4.9542    3.7079   -1.3557 C   0  0  0  0  0  0  0  0  0  0  0  0
    1.1166   -6.4029   -0.8281 O   0  0  0  0  0  0  0  0  0  0  0  0
   -0.0287   -7.0348   -0.2579 C   0  0  0  0  0  0  0  0  0  0  0  0
    3.8018   -6.0283    0.3223 O   0  0  0  0  0  0  0  0  0  0  0  0
    3.5046   -7.3979    0.1415 C   0  0  0  0  0  0  0  0  0  0  0  0
   -0.9765   -1.7103   -0.5596 C   0  0  0  0  0  0  0  0  0  0  0  0
   -1.9350   -0.6000   -0.7937 C   0  0  0  0  0  0  0  0  0  0  0  0
   -1.4247   -2.9391   -0.9461 N   0  3  0  0  0  0  0  0  0  0  0  0
    0.2933   -1.6337    0.0509 C   0  0  0  0  0  0  0  0  0  0  0  0
   -3.3082   -0.8364   -0.7665 C   0  0  0  0  0  0  0  0  0  0  0  0
   -1.5565    0.7074   -1.1293 C   0  0  0  0  0  0  0  0  0  0  0  0
   -0.6276   -4.0338   -0.8948 C   0  0  0  0  0  0  0  0  0  0  0  0
   -2.8147   -3.1203   -1.4445 C   0  0  0  0  0  0  0  0  0  0  0  0
    1.1367   -2.7824    0.0842 C   0  0  0  0  0  0  0  0  0  0  0  0
   -4.2147    0.2238   -0.8986 C   0  0  0  0  0  0  0  0  0  0  0  0
   -3.7774   -2.2534   -0.6424 C   0  0  0  0  0  0  0  0  0  0  0  0
   -2.4567    1.8033   -1.2981 C   0  0  0  0  0  0  0  0  0  0  0  0
    0.6625   -4.0329   -0.3672 C   0  0  0  0  0  0  0  0  0  0  0  0
    2.4687   -2.7135    0.5307 C   0  0  0  0  0  0  0  0  0  0  0  0
   -3.8183    1.5592   -1.1516 C   0  0  0  0  0  0  0  0  0  0  0  0
    1.5052   -5.1988   -0.2827 C   0  0  0  0  0  0  0  0  0  0  0  0
    3.2910   -3.8315    0.5765 C   0  0  0  0  0  0  0  0  0  0  0  0
    2.8243   -5.0850    0.1920 C   0  0  0  0  0  0  0  0  0  0  0  0
    2.3321    2.1693   -0.6365 N   0  3  0  0  0  0  0  0  0  0  0  0
    1.4818    2.8899   -0.0906 O   0  5  0  0  0  0  0  0  0  0  0  0
    2.0551    1.5805   -1.6952 O   0  0  0  0  0  0  0  0  0  0  0  0
    3.4265    1.9717   -0.0862 O   0  5  0  0  0  0  0  0  0  0  0  0
    0.8408   -0.6291    1.8556 H   0  0  0  0  0  0  0  0  0  0  0  0
    0.0747    0.4517    0.7263 H   0  0  0  0  0  0  0  0  0  0  0  0
    1.7222   -0.0768    0.4139 H   0  0  0  0  0  0  0  0  0  0  0  0
   -2.5316    4.5504   -2.4954 H   0  0  0  0  0  0  0  0  0  0  0  0
   -2.5577    4.5030   -0.6727 H   0  0  0  0  0  0  0  0  0  0  0  0
   -1.0796    4.7914   -1.5557 H   0  0  0  0  0  0  0  0  0  0  0  0
   -4.5313    4.1588   -0.4577 H   0  0  0  0  0  0  0  0  0  0  0  0
   -4.4983    4.0479   -2.2861 H   0  0  0  0  0  0  0  0  0  0  0  0
   -5.9992    4.0315   -1.3980 H   0  0  0  0  0  0  0  0  0  0  0  0
   -0.3582   -6.5903    0.6863 H   0  0  0  0  0  0  0  0  0  0  0  0
   -0.8414   -7.0042   -0.9917 H   0  0  0  0  0  0  0  0  0  0  0  0
    0.1978   -8.0925   -0.0922 H   0  0  0  0  0  0  0  0  0  0  0  0
    2.6938   -7.7245    0.7999 H   0  0  0  0  0  0  0  0  0  0  0  0
    3.2999   -7.6170   -0.9081 H   0  0  0  0  0  0  0  0  0  0  0  0
    4.3994   -7.9626    0.4240 H   0  0  0  0  0  0  0  0  0  0  0  0
   -0.4874    0.9212   -1.2936 H   0  0  0  0  0  0  0  0  0  0  0  0
   -1.0680   -4.9314   -1.3062 H   0  0  0  0  0  0  0  0  0  0  0  0
   -3.0975   -4.1671   -1.3414 H   0  0  0  0  0  0  0  0  0  0  0  0
   -2.8000   -2.8724   -2.5150 H   0  0  0  0  0  0  0  0  0  0  0  0
   -5.2865    0.0122   -0.8484 H   0  0  0  0  0  0  0  0  0  0  0  0
   -3.7876   -2.5421    0.4132 H   0  0  0  0  0  0  0  0  0  0  0  0
   -4.7904   -2.3703   -1.0442 H   0  0  0  0  0  0  0  0  0  0  0  0
    2.9289   -1.7642    0.8127 H   0  0  0  0  0  0  0  0  0  0  0  0
    4.3246   -3.7122    0.9012 H   0  0  0  0  0  0  0  0  0  0  0  0
  1 13  1  0  0  0  0
  1 32  1  0  0  0  0
  1 33  1  0  0  0  0
  1 34  1  0  0  0  0
  2  3  1  0  0  0  0
  2 21  1  0  0  0  0
  3 35  1  0  0  0  0
  3 36  1  0  0  0  0
  3 37  1  0  0  0  0
  4  5  1  0  0  0  0
  4 24  1  0  0  0  0
  5 38  1  0  0  0  0
  5 39  1  0  0  0  0
  5 40  1  0  0  0  0
  6  7  1  0  0  0  0
  6 25  1  0  0  0  0
  7 41  1  0  0  0  0
  7 42  1  0  0  0  0
  7 43  1  0  0  0  0
  8  9  1  0  0  0  0
  8 27  1  0  0  0  0
  9 44  1  0  0  0  0
  9 45  1  0  0  0  0
  9 46  1  0  0  0  0
 10 11  1  0  0  0  0
 10 12  1  0  0  0  0
 10 13  2  0  0  0  0
 11 14  2  0  0  0  0
 11 15  1  0  0  0  0
 12 16  2  0  0  0  0
 12 17  1  0  0  0  0
 13 18  1  0  0  0  0
 14 19  1  0  0  0  0
 14 20  1  0  0  0  0
 15 21  2  0  0  0  0
 15 47  1  0  0  0  0
 16 22  1  0  0  0  0
 16 48  1  0  0  0  0
 17 20  1  0  0  0  0
 17 49  1  0  0  0  0
 17 50  1  0  0  0  0
 18 22  2  0  0  0  0
 18 23  1  0  0  0  0
 19 24  2  0  0  0  0
 19 51  1  0  0  0  0
 20 52  1  0  0  0  0
 20 53  1  0  0  0  0
 21 24  1  0  0  0  0
 22 25  1  0  0  0  0
 23 26  2  0  0  0  0
 23 54  1  0  0  0  0
 25 27  2  0  0  0  0
 26 27  1  0  0  0  0
 26 55  1  0  0  0  0
 28 29  1  0  0  0  0
 28 30  2  0  0  0  0
 28 31  1  0  0  0  0
M  CHG  4  12   1  28   1  29  -1  31  -1
M  END
>  <Mol_ID>
9789

>  <Formula>
C22H24N2O7

>  <MolWeight>
428.43516

>  <Cat>
E2322

>  <Name>
Dehydrocorydaline nitrate

>  <Synonyms>
13-Methylpalmatine nitrate

>  <Target>
Trypanosoma cruzi, Plasmodium falciparum

>  <Form>
nitrate

>  <CAS>
13005-09-9

>  <URL>
https://www.selleckchem.com/products/dehydrocorydaline-nitrate-13-methylpalmatine-nitrate.html

$$$$
