Delafloxacin (ABT-492)
 OpenBabel08302520403D

 42 45  0  0  0  0  0  0  0  0999 V2000
   -2.4832   -0.6421    0.1541 C   0  0  0  0  0  0  0  0  0  0  0  0
   -2.4976    0.7544    0.1655 C   0  0  0  0  0  0  0  0  0  0  0  0
   -1.2765    1.4200   -0.0443 C   0  0  0  0  0  0  0  0  0  0  0  0
   -0.0388    0.7550   -0.0883 C   0  0  0  0  0  0  0  0  0  0  0  0
   -0.0787   -0.6525   -0.0722 C   0  0  0  0  0  0  0  0  0  0  0  0
   -1.2928   -1.3475    0.0206 C   0  0  0  0  0  0  0  0  0  0  0  0
    1.2206    1.4521   -0.1404 N   0  0  0  0  0  0  0  0  0  0  0  0
    2.3678    0.6506   -0.0903 C   0  0  0  0  0  0  0  0  0  0  0  0
    2.4500   -0.6882   -0.0850 C   0  0  0  0  0  0  0  0  0  0  0  0
    1.1785   -1.4364   -0.1343 C   0  0  0  0  0  0  0  0  0  0  0  0
   -3.6181   -1.3435    0.2891 F   0  0  0  0  0  0  0  0  0  0  0  0
    1.3610    2.8883    0.0248 C   0  0  0  0  0  0  0  0  0  0  0  0
    1.1255   -2.6581   -0.1953 O   0  0  0  0  0  0  0  0  0  0  0  0
    3.7609   -1.3671    0.0104 C   0  0  0  0  0  0  0  0  0  0  0  0
    3.9728   -2.5657    0.0235 O   0  0  0  0  0  0  0  0  0  0  0  0
    4.8015   -0.5139    0.1088 O   0  0  0  0  0  0  0  0  0  0  0  0
   -3.6635    1.5233    0.3985 N   0  0  0  0  0  0  0  0  0  0  0  0
   -3.6964    2.8175    1.0239 C   0  0  0  0  0  0  0  0  0  0  0  0
   -4.9231    2.3750    1.8250 C   0  0  0  0  0  0  0  0  0  0  0  0
   -4.9039    1.0933    0.9804 C   0  0  0  0  0  0  0  0  0  0  0  0
   -4.7351    2.2224    3.2534 O   0  0  0  0  0  0  0  0  0  0  0  0
    0.4556    3.5780    0.7791 N   0  0  0  0  0  0  0  0  0  0  0  0
    0.6261    4.9012    0.9838 C   0  0  0  0  0  0  0  0  0  0  0  0
    1.7232    5.5939    0.4802 C   0  0  0  0  0  0  0  0  0  0  0  0
    2.6427    4.9310   -0.3077 C   0  0  0  0  0  0  0  0  0  0  0  0
    2.4495    3.5778   -0.5482 C   0  0  0  0  0  0  0  0  0  0  0  0
   -0.3047    5.5316    1.8058 N   0  0  0  0  0  0  0  0  0  0  0  0
    1.8814    6.9024    0.7252 F   0  0  0  0  0  0  0  0  0  0  0  0
    3.3275    2.9597   -1.3534 F   0  0  0  0  0  0  0  0  0  0  0  0
   -1.3167    2.4990   -0.1494 H   0  0  0  0  0  0  0  0  0  0  0  0
   -1.3183   -2.4350    0.0247 H   0  0  0  0  0  0  0  0  0  0  0  0
    3.2876    1.2212    0.0030 H   0  0  0  0  0  0  0  0  0  0  0  0
    5.5742   -1.1156    0.1723 H   0  0  0  0  0  0  0  0  0  0  0  0
   -3.8657    3.6187    0.2993 H   0  0  0  0  0  0  0  0  0  0  0  0
   -2.8190    3.0439    1.6379 H   0  0  0  0  0  0  0  0  0  0  0  0
   -5.8015    3.0030    1.6410 H   0  0  0  0  0  0  0  0  0  0  0  0
   -4.8505    0.1721    1.5652 H   0  0  0  0  0  0  0  0  0  0  0  0
   -5.6974    1.0226    0.2306 H   0  0  0  0  0  0  0  0  0  0  0  0
   -3.9430    1.6605    3.3410 H   0  0  0  0  0  0  0  0  0  0  0  0
    3.4945    5.4530   -0.7251 H   0  0  0  0  0  0  0  0  0  0  0  0
   -0.5687    6.4545    1.4782 H   0  0  0  0  0  0  0  0  0  0  0  0
   -1.0893    4.9137    1.9830 H   0  0  0  0  0  0  0  0  0  0  0  0
  1  2  2  0  0  0  0
  1 11  1  0  0  0  0
  2  3  1  0  0  0  0
  2 17  1  0  0  0  0
  3  4  2  0  0  0  0
  3 30  1  0  0  0  0
  4  5  1  0  0  0  0
  4  7  1  0  0  0  0
  5  6  2  0  0  0  0
  6  1  1  0  0  0  0
  6 31  1  0  0  0  0
  7  8  1  0  0  0  0
  7 12  1  0  0  0  0
  8  9  2  0  0  0  0
  8 32  1  0  0  0  0
  9 10  1  0  0  0  0
  9 14  1  0  0  0  0
 10  5  1  0  0  0  0
 10 13  2  0  0  0  0
 12 22  2  0  0  0  0
 14 15  2  0  0  0  0
 14 16  1  0  0  0  0
 16 33  1  0  0  0  0
 17 18  1  0  0  0  0
 18 19  1  0  0  0  0
 18 34  1  0  0  0  0
 18 35  1  0  0  0  0
 19 20  1  0  0  0  0
 19 21  1  0  0  0  0
 19 36  1  0  0  0  0
 20 17  1  0  0  0  0
 20 37  1  0  0  0  0
 20 38  1  0  0  0  0
 21 39  1  0  0  0  0
 22 23  1  0  0  0  0
 23 24  2  0  0  0  0
 23 27  1  0  0  0  0
 24 25  1  0  0  0  0
 24 28  1  0  0  0  0
 25 26  2  0  0  0  0
 25 40  1  0  0  0  0
 26 12  1  0  0  0  0
 26 29  1  0  0  0  0
 27 41  1  0  0  0  0
 27 42  1  0  0  0  0
M  END
>  <Mol_ID>
3788

>  <Formula>
C18H12ClF3N4O4

>  <MolWeight>
440.7604896

>  <Cat>
S1553

>  <Name>
Delafloxacin (ABT-492)

>  <Synonyms>
RX-3341J, WQ-3034

>  <Target>
Anti-infection

>  <Form>
free base

>  <CAS>
189279-58-1, 339591-82-1 (sodium salt)

>  <URL>
http://www.selleck.cn/products/ABT-492.html

$$$$
