Delsoline
 OpenBabel08302521573D

 74 79  0  0  1  0  0  0  0  0999 V2000
    1.4027    0.2786    0.7122 O   0  0  0  0  0  0  0  0  0  0  0  0
    4.3525    4.3584    2.1279 C   0  0  0  0  0  0  0  0  0  0  0  0
    4.7814    5.0798    0.9745 O   0  0  0  0  0  0  0  0  0  0  0  0
    6.1811    5.3565    1.0452 C   0  0  0  0  0  0  0  0  0  0  0  0
    2.3226    4.3881    5.3833 O   0  0  0  0  0  0  0  0  0  0  0  0
    3.6466    4.7141    5.6935 C   0  0  0  0  0  0  0  0  0  0  0  0
    2.0445    1.9241    5.6590 O   0  0  0  0  0  0  0  0  0  0  0  0
   -0.3456    2.9298    0.9541 C   0  0  0  0  0  0  0  0  0  0  0  0
   -0.4709    3.7197   -0.3399 C   0  0  0  0  0  0  0  0  0  0  0  0
   -1.3752    1.8225    4.6601 O   0  0  0  0  0  0  0  0  0  0  0  0
   -1.4917   -1.2453    3.3230 O   0  0  0  0  0  0  0  0  0  0  0  0
   -1.8416   -2.6309    3.1035 C   0  0  0  0  0  0  0  0  0  0  0  0
   -2.1603   -0.2677    6.1370 O   0  0  0  0  0  0  0  0  0  0  0  0
   -3.1800   -0.8246    5.3550 C   0  0  0  0  0  0  0  0  0  0  0  0
    2.1046    1.2619    2.8967 C   0  0  3  0  0  0  0  0  0  0  0  0
    2.9268    2.6268    3.2643 C   0  0  3  0  0  0  0  0  0  0  0  0
    0.8238    2.1392    2.9920 C   0  0  3  0  0  0  0  0  0  0  0  0
    2.0477   -0.0173    4.0497 C   0  0  3  0  0  0  0  0  0  0  0  0
    2.5161    0.5834    1.5388 C   0  0  3  0  0  0  0  0  0  0  0  0
    3.1091    3.4672    1.9076 C   0  0  3  0  0  0  0  0  0  0  0  0
    1.9051    3.5478    4.2978 C   0  0  3  0  0  0  0  0  0  0  0  0
    0.9504    2.5050    4.8033 C   0  0  3  0  0  0  0  0  0  0  0  0
    0.6361    3.2871    1.9847 N   0  0  0  0  0  0  0  0  0  0  0  0
    0.5098    0.1873    4.2235 C   0  0  3  0  0  0  0  0  0  0  0  0
    1.7154   -1.5285    4.9675 C   0  0  0  0  0  0  0  0  0  0  0  0
    3.6064    1.2503    0.7525 C   0  0  0  0  0  0  0  0  0  0  0  0
    1.7700    4.1973    1.6694 C   0  0  0  0  0  0  0  0  0  0  0  0
    3.2969    2.7037    0.5649 C   0  0  0  0  0  0  0  0  0  0  0  0
   -0.0846    1.3867    5.0446 C   0  0  3  0  0  0  0  0  0  0  0  0
   -0.1970   -1.1305    3.8471 C   0  0  3  0  0  0  0  0  0  0  0  0
    0.0351   -1.6967    5.2073 C   0  0  3  0  0  0  0  0  0  0  0  0
   -0.1864    0.7106    6.5521 C   0  0  0  0  0  0  0  0  0  0  0  0
   -0.8067   -0.7341    6.3145 C   0  0  3  0  0  0  0  0  0  0  0  0
    0.7681   -0.2498    1.2313 H   0  0  0  0  0  0  0  0  0  0  0  0
    4.1775    5.0897    2.9168 H   0  0  0  0  0  0  0  0  0  0  0  0
    5.1689    3.6929    2.4445 H   0  0  0  0  0  0  0  0  0  0  0  0
    6.4267    5.8699    1.9803 H   0  0  0  0  0  0  0  0  0  0  0  0
    6.7557    4.4255    0.9723 H   0  0  0  0  0  0  0  0  0  0  0  0
    6.4576    5.9967    0.2047 H   0  0  0  0  0  0  0  0  0  0  0  0
    3.9102    4.1453    6.5867 H   0  0  0  0  0  0  0  0  0  0  0  0
    4.3669    4.5298    4.9042 H   0  0  0  0  0  0  0  0  0  0  0  0
    3.6872    5.7773    5.9720 H   0  0  0  0  0  0  0  0  0  0  0  0
    2.1359    2.5674    6.3928 H   0  0  0  0  0  0  0  0  0  0  0  0
   -0.2008    1.8926    0.6469 H   0  0  0  0  0  0  0  0  0  0  0  0
   -1.3292    2.9448    1.4414 H   0  0  0  0  0  0  0  0  0  0  0  0
    0.0642    3.2055   -1.1467 H   0  0  0  0  0  0  0  0  0  0  0  0
   -1.5261    3.7688   -0.6322 H   0  0  0  0  0  0  0  0  0  0  0  0
   -0.1120    4.7464   -0.2734 H   0  0  0  0  0  0  0  0  0  0  0  0
   -2.0067    1.3752    5.2571 H   0  0  0  0  0  0  0  0  0  0  0  0
   -2.0645   -3.1339    4.0508 H   0  0  0  0  0  0  0  0  0  0  0  0
   -1.0375   -3.1849    2.6070 H   0  0  0  0  0  0  0  0  0  0  0  0
   -2.7362   -2.6722    2.4807 H   0  0  0  0  0  0  0  0  0  0  0  0
   -3.2072   -0.3763    4.3526 H   0  0  0  0  0  0  0  0  0  0  0  0
   -3.1612   -1.9063    5.3499 H   0  0  0  0  0  0  0  0  0  0  0  0
   -4.1272   -0.4990    5.7962 H   0  0  0  0  0  0  0  0  0  0  0  0
    3.8751    2.3812    3.7502 H   0  0  0  0  0  0  0  0  0  0  0  0
   -0.0868    1.5667    2.7934 H   0  0  0  0  0  0  0  0  0  0  0  0
    2.4227   -0.7294    3.3195 H   0  0  0  0  0  0  0  0  0  0  0  0
    2.9806   -0.3942    1.6948 H   0  0  0  0  0  0  0  0  0  0  0  0
    1.2433    4.2694    3.8389 H   0  0  0  0  0  0  0  0  0  0  0  0
    0.9371    0.0848    5.1954 H   0  0  0  0  0  0  0  0  0  0  0  0
    2.2451   -1.4826    5.9254 H   0  0  0  0  0  0  0  0  0  0  0  0
    2.0950   -2.3851    4.3888 H   0  0  0  0  0  0  0  0  0  0  0  0
    3.6945    0.7977   -0.2416 H   0  0  0  0  0  0  0  0  0  0  0  0
    4.5817    1.1603    1.2491 H   0  0  0  0  0  0  0  0  0  0  0  0
    1.7207    4.6179    0.6620 H   0  0  0  0  0  0  0  0  0  0  0  0
    1.7167    5.1126    2.2730 H   0  0  0  0  0  0  0  0  0  0  0  0
    2.3949    2.7407   -0.0617 H   0  0  0  0  0  0  0  0  0  0  0  0
    4.0583    3.1596   -0.0751 H   0  0  0  0  0  0  0  0  0  0  0  0
    0.4202   -1.6192    3.0740 H   0  0  0  0  0  0  0  0  0  0  0  0
   -0.2284   -2.7449    5.3270 H   0  0  0  0  0  0  0  0  0  0  0  0
   -0.8017    1.3263    7.2153 H   0  0  0  0  0  0  0  0  0  0  0  0
    0.7877    0.5693    7.0485 H   0  0  0  0  0  0  0  0  0  0  0  0
   -0.8037   -1.2934    7.2554 H   0  0  0  0  0  0  0  0  0  0  0  0
  1 34  1  0  0  0  0
  2  3  1  0  0  0  0
  2 35  1  0  0  0  0
  2 36  1  0  0  0  0
  3  4  1  0  0  0  0
  4 37  1  0  0  0  0
  4 38  1  0  0  0  0
  4 39  1  0  0  0  0
  5  6  1  0  0  0  0
  6 40  1  0  0  0  0
  6 41  1  0  0  0  0
  6 42  1  0  0  0  0
  7 43  1  0  0  0  0
  8  9  1  0  0  0  0
  8 23  1  0  0  0  0
  8 44  1  0  0  0  0
  8 45  1  0  0  0  0
  9 46  1  0  0  0  0
  9 47  1  0  0  0  0
  9 48  1  0  0  0  0
 10 49  1  0  0  0  0
 11 12  1  0  0  0  0
 12 50  1  0  0  0  0
 12 51  1  0  0  0  0
 12 52  1  0  0  0  0
 13 14  1  0  0  0  0
 14 53  1  0  0  0  0
 14 54  1  0  0  0  0
 14 55  1  0  0  0  0
 15 16  1  0  0  0  0
 15 17  1  0  0  0  0
 15 18  1  0  0  0  0
 15 19  1  0  0  0  0
 16 20  1  0  0  0  0
 16 21  1  0  0  0  0
 16 56  1  0  0  0  0
 17 22  1  0  0  0  0
 17 23  1  0  0  0  0
 17 57  1  0  0  0  0
 18 25  1  0  0  0  0
 18 58  1  0  0  0  0
 19  1  1  0  0  0  0
 19 26  1  0  0  0  0
 19 59  1  0  0  0  0
 20  2  1  0  0  0  0
 20 27  1  0  0  0  0
 20 28  1  0  0  0  0
 21  5  1  0  0  0  0
 21 22  1  0  0  0  0
 21 60  1  0  0  0  0
 22  7  1  0  0  0  0
 22 29  1  0  0  0  0
 23 27  1  0  0  0  0
 24 18  1  0  0  0  0
 24 29  1  0  0  0  0
 24 30  1  0  0  0  0
 24 61  1  0  0  0  0
 25 62  1  0  0  0  0
 25 63  1  0  0  0  0
 26 28  1  0  0  0  0
 26 64  1  0  0  0  0
 26 65  1  0  0  0  0
 27 66  1  0  0  0  0
 27 67  1  0  0  0  0
 28 68  1  0  0  0  0
 28 69  1  0  0  0  0
 29 10  1  0  0  0  0
 29 32  1  0  0  0  0
 30 11  1  0  0  0  0
 30 31  1  0  0  0  0
 30 70  1  0  0  0  0
 31 25  1  0  0  0  0
 31 33  1  0  0  0  0
 31 71  1  0  0  0  0
 32 33  1  0  0  0  0
 32 72  1  0  0  0  0
 32 73  1  0  0  0  0
 33 13  1  0  0  0  0
 33 74  1  0  0  0  0
M  END
>  <Mol_ID>
10086

>  <Formula>
C25H41NO7

>  <MolWeight>
467.59554

>  <Cat>
S0704

>  <Name>
Delsoline

>  <Synonyms>
NA

>  <Target>
nAChRs

>  <Form>
Free Base

>  <CAS>
509-18-2

>  <URL>
https://www.selleckchem.com/products/delsoline.html

$$$$
