DEMADEX (torsemide).cdx
 OpenBabel08302521403D

 44 45  0  0  0  0  0  0  0  0999 V2000
    0.6725    1.2985   -0.0052 C   0  0  0  0  0  0  0  0  0  0  0  0
    1.4138    0.1079    0.0142 C   0  0  0  0  0  0  0  0  0  0  0  0
    0.6834   -1.0920    0.0215 C   0  0  0  0  0  0  0  0  0  0  0  0
   -0.7008   -1.0644   -0.0076 C   0  0  0  0  0  0  0  0  0  0  0  0
   -1.4181    0.0713   -0.0473 N   0  0  0  0  0  0  0  0  0  0  0  0
   -0.7129    1.2261   -0.0381 C   0  0  0  0  0  0  0  0  0  0  0  0
    2.8255    0.0686   -0.0514 N   0  0  0  0  0  0  0  0  0  0  0  0
    3.6622   -0.9457   -0.5678 C   0  0  0  0  0  0  0  0  0  0  0  0
    3.2791   -1.7305   -1.6690 C   0  0  0  0  0  0  0  0  0  0  0  0
    4.0579   -2.8081   -2.1169 C   0  0  0  0  0  0  0  0  0  0  0  0
    5.2554   -3.0964   -1.4583 C   0  0  0  0  0  0  0  0  0  0  0  0
    5.6617   -2.3190   -0.3736 C   0  0  0  0  0  0  0  0  0  0  0  0
    4.8694   -1.2534    0.0689 C   0  0  0  0  0  0  0  0  0  0  0  0
    3.6100   -3.6505   -3.2747 C   0  0  0  0  0  0  0  0  0  0  0  0
    1.4499    2.8770   -0.0359 S   0  0  0  0  0  0  0  0  0  0  0  0
    0.2259    4.0146    0.0045 N   0  0  0  0  0  0  0  0  0  0  0  0
   -0.4916    4.3850    1.1298 C   0  0  0  0  0  0  0  0  0  0  0  0
   -1.4551    5.3220    0.8627 N   0  0  0  0  0  0  0  0  0  0  0  0
   -0.3208    3.8807    2.2258 O   0  0  0  0  0  0  0  0  0  0  0  0
   -2.3288    5.8338    1.9134 C   0  0  0  0  0  0  0  0  0  0  0  0
   -2.9016    7.1946    1.5238 C   0  0  0  0  0  0  0  0  0  0  0  0
   -3.4584    4.8560    2.2361 C   0  0  0  0  0  0  0  0  0  0  0  0
    2.2752    2.9926    1.1444 O   0  0  0  0  0  0  0  0  0  0  0  0
    2.0243    3.0340   -1.3592 O   0  0  0  0  0  0  0  0  0  0  0  0
    1.1851   -2.0533    0.0649 H   0  0  0  0  0  0  0  0  0  0  0  0
   -1.2776   -1.9844   -0.0017 H   0  0  0  0  0  0  0  0  0  0  0  0
   -1.3469    2.1039   -0.0747 H   0  0  0  0  0  0  0  0  0  0  0  0
    3.3052    0.7651    0.5170 H   0  0  0  0  0  0  0  0  0  0  0  0
    2.3583   -1.4915   -2.1965 H   0  0  0  0  0  0  0  0  0  0  0  0
    5.8746   -3.9291   -1.7840 H   0  0  0  0  0  0  0  0  0  0  0  0
    6.5928   -2.5513    0.1374 H   0  0  0  0  0  0  0  0  0  0  0  0
    5.1973   -0.6807    0.9330 H   0  0  0  0  0  0  0  0  0  0  0  0
    4.3544   -3.6223   -4.0766 H   0  0  0  0  0  0  0  0  0  0  0  0
    3.4654   -4.6871   -2.9528 H   0  0  0  0  0  0  0  0  0  0  0  0
    2.6596   -3.2945   -3.6866 H   0  0  0  0  0  0  0  0  0  0  0  0
    0.1654    4.5479   -0.8563 H   0  0  0  0  0  0  0  0  0  0  0  0
   -1.7016    5.4992   -0.0991 H   0  0  0  0  0  0  0  0  0  0  0  0
   -1.7163    5.9611    2.8134 H   0  0  0  0  0  0  0  0  0  0  0  0
   -3.5651    7.1172    0.6553 H   0  0  0  0  0  0  0  0  0  0  0  0
   -3.4764    7.6235    2.3516 H   0  0  0  0  0  0  0  0  0  0  0  0
   -2.1014    7.8974    1.2680 H   0  0  0  0  0  0  0  0  0  0  0  0
   -3.0690    3.8681    2.5018 H   0  0  0  0  0  0  0  0  0  0  0  0
   -4.0505    5.2206    3.0829 H   0  0  0  0  0  0  0  0  0  0  0  0
   -4.1324    4.7273    1.3821 H   0  0  0  0  0  0  0  0  0  0  0  0
  1  2  2  0  0  0  0
  1 15  1  0  0  0  0
  2  3  1  0  0  0  0
  2  7  1  0  0  0  0
  3  4  2  0  0  0  0
  3 25  1  0  0  0  0
  4  5  1  0  0  0  0
  4 26  1  0  0  0  0
  5  6  2  0  0  0  0
  6  1  1  0  0  0  0
  6 27  1  0  0  0  0
  7  8  1  0  0  0  0
  7 28  1  0  0  0  0
  8  9  2  0  0  0  0
  9 10  1  0  0  0  0
  9 29  1  0  0  0  0
 10 11  2  0  0  0  0
 10 14  1  0  0  0  0
 11 12  1  0  0  0  0
 11 30  1  0  0  0  0
 12 13  2  0  0  0  0
 12 31  1  0  0  0  0
 13  8  1  0  0  0  0
 13 32  1  0  0  0  0
 14 33  1  0  0  0  0
 14 34  1  0  0  0  0
 14 35  1  0  0  0  0
 15 16  1  0  0  0  0
 15 23  2  0  0  0  0
 15 24  2  0  0  0  0
 16 17  1  0  0  0  0
 16 36  1  0  0  0  0
 17 18  1  0  0  0  0
 17 19  2  0  0  0  0
 18 20  1  0  0  0  0
 18 37  1  0  0  0  0
 20 21  1  0  0  0  0
 20 22  1  0  0  0  0
 20 38  1  0  0  0  0
 21 39  1  0  0  0  0
 21 40  1  0  0  0  0
 21 41  1  0  0  0  0
 22 42  1  0  0  0  0
 22 43  1  0  0  0  0
 22 44  1  0  0  0  0
M  END
>  <Mol_ID>
8228

>  <Formula>
C16H20N4O3S

>  <MolWeight>
348.42

>  <Cat>
S1698

>  <Name>
Torsemide

>  <Synonyms>
AC-4464, JDL-464

>  <Target>
Chloride Channel

>  <Form>
free base

>  <CAS>
56211-40-6

>  <URL>
http://selleckchem.com/products/Torsemide(Demadex).html

$$$$
