Demethylsuberosin
 OpenBabel08302521533D

 31 32  0  0  0  0  0  0  0  0999 V2000
    1.0080   -0.0944   -0.0692 C   0  0  0  0  0  0  0  0  0  0  0  0
    2.3285    0.5820   -0.3155 C   0  0  0  0  0  0  0  0  0  0  0  0
    3.3068    0.2184   -1.1699 C   0  0  0  0  0  0  0  0  0  0  0  0
    4.5650    1.0422   -1.2848 C   0  0  0  0  0  0  0  0  0  0  0  0
    3.2577   -0.9770   -2.0811 C   0  0  0  0  0  0  0  0  0  0  0  0
    1.7057   -2.6761    1.2277 O   0  0  0  0  0  0  0  0  0  0  0  0
   -1.3627   -0.8692    7.2765 O   0  0  0  0  0  0  0  0  0  0  0  0
   -0.1440    0.2320    3.5550 C   0  0  0  0  0  0  0  0  0  0  0  0
    0.1270   -1.0430    4.0431 C   0  0  0  0  0  0  0  0  0  0  0  0
    0.1806    0.5316    2.2278 C   0  0  0  0  0  0  0  0  0  0  0  0
   -0.7707    1.2028    4.4404 C   0  0  0  0  0  0  0  0  0  0  0  0
    0.7551   -2.0019    3.2563 C   0  0  0  0  0  0  0  0  0  0  0  0
   -0.2475   -1.4172    5.3490 O   0  0  0  0  0  0  0  0  0  0  0  0
    0.7744   -0.4359    1.3879 C   0  0  0  0  0  0  0  0  0  0  0  0
   -1.1461    0.8278    5.6658 C   0  0  0  0  0  0  0  0  0  0  0  0
    1.0861   -1.6881    1.9391 C   0  0  0  0  0  0  0  0  0  0  0  0
   -0.9431   -0.5411    6.1725 C   0  0  0  0  0  0  0  0  0  0  0  0
    0.8787   -0.9954   -0.6766 H   0  0  0  0  0  0  0  0  0  0  0  0
    0.2103    0.5819   -0.4035 H   0  0  0  0  0  0  0  0  0  0  0  0
    2.4797    1.4857    0.2759 H   0  0  0  0  0  0  0  0  0  0  0  0
    5.4271    0.4675   -0.9327 H   0  0  0  0  0  0  0  0  0  0  0  0
    4.7394    1.3301   -2.3275 H   0  0  0  0  0  0  0  0  0  0  0  0
    4.5112    1.9662   -0.6993 H   0  0  0  0  0  0  0  0  0  0  0  0
    3.7185   -1.8418   -1.5941 H   0  0  0  0  0  0  0  0  0  0  0  0
    2.2375   -1.2364   -2.3755 H   0  0  0  0  0  0  0  0  0  0  0  0
    3.8061   -0.7802   -3.0094 H   0  0  0  0  0  0  0  0  0  0  0  0
    2.1110   -2.2905    0.4342 H   0  0  0  0  0  0  0  0  0  0  0  0
   -0.0463    1.5188    1.8293 H   0  0  0  0  0  0  0  0  0  0  0  0
   -0.9239    2.2180    4.0919 H   0  0  0  0  0  0  0  0  0  0  0  0
    0.9762   -2.9860    3.6591 H   0  0  0  0  0  0  0  0  0  0  0  0
   -1.6248    1.5160    6.3532 H   0  0  0  0  0  0  0  0  0  0  0  0
  1  2  1  0  0  0  0
  1 14  1  0  0  0  0
  1 18  1  0  0  0  0
  1 19  1  0  0  0  0
  2  3  2  0  0  0  0
  2 20  1  0  0  0  0
  3  4  1  0  0  0  0
  3  5  1  0  0  0  0
  4 21  1  0  0  0  0
  4 22  1  0  0  0  0
  4 23  1  0  0  0  0
  5 24  1  0  0  0  0
  5 25  1  0  0  0  0
  5 26  1  0  0  0  0
  6 16  1  0  0  0  0
  6 27  1  0  0  0  0
  7 17  2  0  0  0  0
  8  9  1  0  0  0  0
  8 10  2  0  0  0  0
  8 11  1  0  0  0  0
  9 12  2  0  0  0  0
  9 13  1  0  0  0  0
 10 14  1  0  0  0  0
 10 28  1  0  0  0  0
 11 15  2  0  0  0  0
 11 29  1  0  0  0  0
 12 16  1  0  0  0  0
 12 30  1  0  0  0  0
 13 17  1  0  0  0  0
 14 16  2  0  0  0  0
 15 17  1  0  0  0  0
 15 31  1  0  0  0  0
M  END
>  <Mol_ID>
9974

>  <Formula>
C14H14O3

>  <MolWeight>
230.25916

>  <Cat>
E5306

>  <Name>
Demethylsuberosin

>  <Synonyms>
7-demethylsuberosin

>  <Target>
C. gloeosporioides

>  <Form>
Free Base

>  <CAS>
21422-04-8

>  <URL>
https://www.selleckchem.com/products/demethylsuberosin.html

$$$$
