Dendrobine
 OpenBabel08302521223D

 44 47  0  0  0  0  0  0  0  0999 V2000
    1.2274   -2.7798    1.9354 C   0  0  0  0  0  0  0  0  0  0  0  0
    1.4832   -1.2802    1.9065 C   0  0  0  0  0  0  0  0  0  0  0  0
    2.3979   -1.1230    0.6943 C   0  0  2  0  0  0  0  0  0  0  0  0
    2.4049    0.2115   -0.0389 C   0  0  0  0  0  0  0  0  0  0  0  0
    1.1484    0.2404   -0.7865 N   0  0  0  0  0  0  0  0  0  0  0  0
    1.7903   -2.0795   -0.3468 C   0  0  2  0  0  0  0  0  0  0  0  0
    0.8340   -1.1507   -1.1884 C   0  0  1  0  0  0  0  0  0  0  0  0
   -0.6573   -1.6436   -1.2933 C   0  0  2  0  0  0  0  0  0  0  0  0
   -1.2442   -2.2708   -0.0259 C   0  0  2  0  0  0  0  0  0  0  0  0
   -0.3294   -3.4936    0.0190 C   0  0  2  0  0  0  0  0  0  0  0  0
    1.1037   -3.2041    0.4626 C   0  0  2  0  0  0  0  0  0  0  0  0
   -0.6419   -2.7735   -2.1925 O   0  0  0  0  0  0  0  0  0  0  0  0
   -0.3221   -3.8753   -1.4467 C   0  0  0  0  0  0  0  0  0  0  0  0
    2.9586   -2.6649   -1.1710 C   0  0  0  0  0  0  0  0  0  0  0  0
   -2.7444   -2.7483   -0.1118 C   0  0  0  0  0  0  0  0  0  0  0  0
   -3.2104   -3.3706    1.2187 C   0  0  0  0  0  0  0  0  0  0  0  0
   -3.7435   -1.6532   -0.4914 C   0  0  0  0  0  0  0  0  0  0  0  0
    0.1596    1.0796   -0.1379 C   0  0  0  0  0  0  0  0  0  0  0  0
   -0.0384   -4.9644   -1.9089 O   0  0  0  0  0  0  0  0  0  0  0  0
    2.1011   -3.2764    2.3760 H   0  0  0  0  0  0  0  0  0  0  0  0
    0.3562   -3.0477    2.5400 H   0  0  0  0  0  0  0  0  0  0  0  0
    1.9516   -0.9188    2.8256 H   0  0  0  0  0  0  0  0  0  0  0  0
    0.5326   -0.7592    1.8101 H   0  0  0  0  0  0  0  0  0  0  0  0
    3.4146   -1.4063    0.9824 H   0  0  0  0  0  0  0  0  0  0  0  0
    3.2301    0.2178   -0.7728 H   0  0  0  0  0  0  0  0  0  0  0  0
    2.5759    1.0716    0.6118 H   0  0  0  0  0  0  0  0  0  0  0  0
    1.2047   -1.2035   -2.2229 H   0  0  0  0  0  0  0  0  0  0  0  0
   -1.2947   -0.8745   -1.7401 H   0  0  0  0  0  0  0  0  0  0  0  0
   -1.1473   -1.6102    0.8370 H   0  0  0  0  0  0  0  0  0  0  0  0
   -0.7417   -4.3190    0.5970 H   0  0  0  0  0  0  0  0  0  0  0  0
    1.6585   -4.1470    0.3518 H   0  0  0  0  0  0  0  0  0  0  0  0
    3.5813   -3.3137   -0.5391 H   0  0  0  0  0  0  0  0  0  0  0  0
    3.6232   -1.8872   -1.5614 H   0  0  0  0  0  0  0  0  0  0  0  0
    2.6021   -3.2652   -2.0122 H   0  0  0  0  0  0  0  0  0  0  0  0
   -2.8353   -3.5296   -0.8780 H   0  0  0  0  0  0  0  0  0  0  0  0
   -4.2459   -3.7222    1.1412 H   0  0  0  0  0  0  0  0  0  0  0  0
   -2.6092   -4.2362    1.5089 H   0  0  0  0  0  0  0  0  0  0  0  0
   -3.1641   -2.6414    2.0344 H   0  0  0  0  0  0  0  0  0  0  0  0
   -4.7350   -2.0979   -0.6529 H   0  0  0  0  0  0  0  0  0  0  0  0
   -3.4704   -1.1483   -1.4202 H   0  0  0  0  0  0  0  0  0  0  0  0
   -3.8458   -0.9069    0.3022 H   0  0  0  0  0  0  0  0  0  0  0  0
   -0.8673    0.8600   -0.4313 H   0  0  0  0  0  0  0  0  0  0  0  0
    0.2141    1.0544    0.9542 H   0  0  0  0  0  0  0  0  0  0  0  0
    0.3495    2.1222   -0.4219 H   0  0  0  0  0  0  0  0  0  0  0  0
  1  2  1  0  0  0  0
  1 20  1  0  0  0  0
  1 21  1  0  0  0  0
  2 22  1  0  0  0  0
  2 23  1  0  0  0  0
  3  2  1  0  0  0  0
  3  4  1  0  0  0  0
  3 24  1  1  0  0  0
  4  5  1  0  0  0  0
  4 25  1  0  0  0  0
  4 26  1  0  0  0  0
  5 18  1  0  0  0  0
  6  7  1  0  0  0  0
  6  3  1  0  0  0  0
  6 14  1  6  0  0  0
  6 11  1  0  0  0  0
  7  5  1  0  0  0  0
  7  8  1  0  0  0  0
  7 27  1  6  0  0  0
  8 12  1  0  0  0  0
  8  9  1  0  0  0  0
  8 28  1  6  0  0  0
  9 15  1  0  0  0  0
  9 10  1  0  0  0  0
  9 29  1  1  0  0  0
 10 11  1  0  0  0  0
 10 13  1  0  0  0  0
 10 30  1  1  0  0  0
 11  1  1  0  0  0  0
 11 31  1  6  0  0  0
 12 13  1  0  0  0  0
 13 19  2  0  0  0  0
 14 32  1  0  0  0  0
 14 33  1  0  0  0  0
 14 34  1  0  0  0  0
 15 16  1  0  0  0  0
 15 17  1  0  0  0  0
 15 35  1  0  0  0  0
 16 36  1  0  0  0  0
 16 37  1  0  0  0  0
 16 38  1  0  0  0  0
 17 39  1  0  0  0  0
 17 40  1  0  0  0  0
 17 41  1  0  0  0  0
 18 42  1  0  0  0  0
 18 43  1  0  0  0  0
 18 44  1  0  0  0  0
M  END
>  <Mol_ID>
4632

>  <Formula>
C16H25NO2

>  <MolWeight>
263.3752

>  <Cat>
S9476

>  <Name>
Dendrobine

>  <Synonyms>
N/A

>  <Target>
Others

>  <Form>
Free Base

>  <CAS>
2115-91-5

>  <URL>
https://www.selleckchem.com/products/dendrobine.html

$$$$
