Deoxycorticosterone acetate.cdx
 OpenBabel08302522043D

 59 62  0  0  0  0  0  0  0  0999 V2000
   -3.7177   -1.3464   -0.0521 C   0  0  0  0  0  0  0  0  0  0  0  0
   -4.1549    0.0180    0.4042 C   0  0  0  0  0  0  0  0  0  0  0  0
   -3.2203    1.1465    0.2069 C   0  0  0  0  0  0  0  0  0  0  0  0
   -1.9675    0.9559   -0.2152 C   0  0  0  0  0  0  0  0  0  0  0  0
   -1.3400   -0.4367   -0.4147 C   0  0  2  0  0  0  0  0  0  0  0  0
   -2.2341   -1.5332    0.2300 C   0  0  0  0  0  0  0  0  0  0  0  0
   -1.0884    2.1486   -0.5432 C   0  0  0  0  0  0  0  0  0  0  0  0
    0.3036    2.0658    0.0789 C   0  0  0  0  0  0  0  0  0  0  0  0
    0.9670    0.7130   -0.2174 C   0  0  2  0  0  0  0  0  0  0  0  0
    0.0652   -0.4515    0.2953 C   0  0  2  0  0  0  0  0  0  0  0  0
    2.3595    0.5943    0.4025 C   0  0  1  0  0  0  0  0  0  0  0  0
    3.0411   -0.7569    0.0578 C   0  0  2  0  0  0  0  0  0  0  0  0
    2.2191   -1.8448    0.7710 C   0  0  0  0  0  0  0  0  0  0  0  0
    0.7519   -1.8495    0.2978 C   0  0  0  0  0  0  0  0  0  0  0  0
    3.4059    1.6309    0.0172 C   0  0  0  0  0  0  0  0  0  0  0  0
    4.7329    0.9935    0.4544 C   0  0  0  0  0  0  0  0  0  0  0  0
    4.4533   -0.5061    0.7012 C   0  0  2  0  0  0  0  0  0  0  0  0
   -5.2847    0.2331    0.8519 O   0  0  0  0  0  0  0  0  0  0  0  0
   -1.2363   -0.7158   -1.9343 C   0  0  0  0  0  0  0  0  0  0  0  0
    3.0187   -1.0391   -1.4701 C   0  0  0  0  0  0  0  0  0  0  0  0
    5.6576   -1.4101    0.3706 C   0  0  0  0  0  0  0  0  0  0  0  0
    6.9719   -1.1985    1.1651 C   0  0  0  0  0  0  0  0  0  0  0  0
    5.5915   -2.2938   -0.4872 O   0  0  0  0  0  0  0  0  0  0  0  0
    7.7017   -2.4143    1.4000 O   0  0  0  0  0  0  0  0  0  0  0  0
    7.2017   -3.1908    2.4016 C   0  0  0  0  0  0  0  0  0  0  0  0
    6.2370   -2.8933    3.0926 O   0  0  0  0  0  0  0  0  0  0  0  0
    8.0309   -4.4337    2.5995 C   0  0  0  0  0  0  0  0  0  0  0  0
   -4.2868   -2.1037    0.4969 H   0  0  0  0  0  0  0  0  0  0  0  0
   -3.9478   -1.4518   -1.1160 H   0  0  0  0  0  0  0  0  0  0  0  0
   -3.6427    2.1353    0.3722 H   0  0  0  0  0  0  0  0  0  0  0  0
   -2.0925   -1.5277    1.3201 H   0  0  0  0  0  0  0  0  0  0  0  0
   -1.9325   -2.5294   -0.1178 H   0  0  0  0  0  0  0  0  0  0  0  0
   -0.9923    2.2200   -1.6336 H   0  0  0  0  0  0  0  0  0  0  0  0
   -1.5603    3.0844   -0.2189 H   0  0  0  0  0  0  0  0  0  0  0  0
    0.9132    2.8798   -0.3320 H   0  0  0  0  0  0  0  0  0  0  0  0
    0.2407    2.2306    1.1612 H   0  0  0  0  0  0  0  0  0  0  0  0
    1.0655    0.6659   -1.3066 H   0  0  0  0  0  0  0  0  0  0  0  0
   -0.1167   -0.2357    1.3620 H   0  0  0  0  0  0  0  0  0  0  0  0
    2.2373    0.6644    1.4958 H   0  0  0  0  0  0  0  0  0  0  0  0
    2.2329   -1.6771    1.8531 H   0  0  0  0  0  0  0  0  0  0  0  0
    2.6643   -2.8313    0.6045 H   0  0  0  0  0  0  0  0  0  0  0  0
    0.1979   -2.5269    0.9598 H   0  0  0  0  0  0  0  0  0  0  0  0
    0.7011   -2.3106   -0.6921 H   0  0  0  0  0  0  0  0  0  0  0  0
    3.4049    1.8240   -1.0610 H   0  0  0  0  0  0  0  0  0  0  0  0
    3.2407    2.5874    0.5231 H   0  0  0  0  0  0  0  0  0  0  0  0
    5.5204    1.1852   -0.2818 H   0  0  0  0  0  0  0  0  0  0  0  0
    5.0589    1.4447    1.4003 H   0  0  0  0  0  0  0  0  0  0  0  0
    4.3245   -0.6368    1.7812 H   0  0  0  0  0  0  0  0  0  0  0  0
   -0.6108    0.0128   -2.4586 H   0  0  0  0  0  0  0  0  0  0  0  0
   -0.8190   -1.7069   -2.1379 H   0  0  0  0  0  0  0  0  0  0  0  0
   -2.2190   -0.6781   -2.4173 H   0  0  0  0  0  0  0  0  0  0  0  0
    3.5279   -0.2715   -2.0554 H   0  0  0  0  0  0  0  0  0  0  0  0
    3.4379   -2.0188   -1.7118 H   0  0  0  0  0  0  0  0  0  0  0  0
    1.9971   -1.0803   -1.8725 H   0  0  0  0  0  0  0  0  0  0  0  0
    7.6266   -0.5734    0.5475 H   0  0  0  0  0  0  0  0  0  0  0  0
    6.8171   -0.6618    2.1047 H   0  0  0  0  0  0  0  0  0  0  0  0
    8.2770   -4.8753    1.6322 H   0  0  0  0  0  0  0  0  0  0  0  0
    8.9415   -4.1897    3.1522 H   0  0  0  0  0  0  0  0  0  0  0  0
    7.4520   -5.1685    3.1683 H   0  0  0  0  0  0  0  0  0  0  0  0
  1  2  1  0  0  0  0
  1 28  1  0  0  0  0
  1 29  1  0  0  0  0
  2  3  1  0  0  0  0
  2 18  2  0  0  0  0
  3  4  2  0  0  0  0
  3 30  1  0  0  0  0
  4  5  1  0  0  0  0
  4  7  1  0  0  0  0
  5  6  1  0  0  0  0
  5 19  1  6  0  0  0
  6  1  1  0  0  0  0
  6 31  1  0  0  0  0
  6 32  1  0  0  0  0
  7  8  1  0  0  0  0
  7 33  1  0  0  0  0
  7 34  1  0  0  0  0
  8 35  1  0  0  0  0
  8 36  1  0  0  0  0
  9  8  1  0  0  0  0
  9 10  1  0  0  0  0
  9 11  1  0  0  0  0
  9 37  1  6  0  0  0
 10  5  1  0  0  0  0
 10 14  1  0  0  0  0
 10 38  1  1  0  0  0
 11 12  1  0  0  0  0
 11 15  1  0  0  0  0
 11 39  1  1  0  0  0
 12 13  1  0  0  0  0
 12 20  1  6  0  0  0
 13 14  1  0  0  0  0
 13 40  1  0  0  0  0
 13 41  1  0  0  0  0
 14 42  1  0  0  0  0
 14 43  1  0  0  0  0
 15 16  1  0  0  0  0
 15 44  1  0  0  0  0
 15 45  1  0  0  0  0
 16 17  1  0  0  0  0
 16 46  1  0  0  0  0
 16 47  1  0  0  0  0
 17 12  1  0  0  0  0
 17 48  1  1  0  0  0
 17 21  1  0  0  0  0
 19 49  1  0  0  0  0
 19 50  1  0  0  0  0
 19 51  1  0  0  0  0
 20 52  1  0  0  0  0
 20 53  1  0  0  0  0
 20 54  1  0  0  0  0
 21 22  1  0  0  0  0
 21 23  2  0  0  0  0
 22 24  1  0  0  0  0
 22 55  1  0  0  0  0
 22 56  1  0  0  0  0
 24 25  1  0  0  0  0
 25 26  2  0  0  0  0
 25 27  1  0  0  0  0
 27 57  1  0  0  0  0
 27 58  1  0  0  0  0
 27 59  1  0  0  0  0
M  END
>  <Mol_ID>
1306

>  <Formula>
C23H32O4

>  <MolWeight>
372.49778

>  <Cat>
S4243

>  <Name>
Deoxycorticosterone acetate

>  <Synonyms>
11-Deoxycorticosterone acetate, DOC acetate, Cortexone acetate

>  <Target>
Adrenergic Receptor

>  <Form>
free base

>  <CAS>
56-47-3

>  <URL>
http://selleckchem.com/products/deoxycorticosterone-acetate.html

$$$$
