Deoxycholic acid sodium salt
 OpenBabel08302521293D

 67 70  0  0  0  0  0  0  0  0999 V2000
    1.6487    2.3242   -0.8347 O   0  0  0  0  0  0  0  0  0  0  0  0
   -4.3613    0.7734   -2.0036 O   0  0  0  0  0  0  0  0  0  0  0  0
    9.7512    1.1890    0.6410 O   0  5  0  0  0  0  0  0  0  0  0  0
    8.0745   -0.3606    0.5484 O   0  0  0  0  0  0  0  0  0  0  0  0
    2.7475    0.3125    0.1140 C   0  0  1  0  0  0  0  0  0  0  0  0
    1.8639   -0.6395   -0.7451 C   0  0  2  0  0  0  0  0  0  0  0  0
    0.6163   -1.0944    0.0557 C   0  0  1  0  0  0  0  0  0  0  0  0
   -0.2699    0.1583    0.3582 C   0  0  1  0  0  0  0  0  0  0  0  0
   -1.5883   -0.1911    1.1483 C   0  0  2  0  0  0  0  0  0  0  0  0
    4.0013    0.5086   -0.8070 C   0  0  2  0  0  0  0  0  0  0  0  0
    1.9048    1.5899    0.3694 C   0  0  2  0  0  0  0  0  0  0  0  0
    0.5527    1.2865    1.0347 C   0  0  0  0  0  0  0  0  0  0  0  0
   -2.3468   -1.3417    0.4112 C   0  0  2  0  0  0  0  0  0  0  0  0
    2.8582   -1.6702   -1.2701 C   0  0  0  0  0  0  0  0  0  0  0  0
   -0.1759   -2.2111   -0.6304 C   0  0  0  0  0  0  0  0  0  0  0  0
    4.1905   -0.9035   -1.4256 C   0  0  0  0  0  0  0  0  0  0  0  0
   -1.4429   -2.5598    0.1533 C   0  0  0  0  0  0  0  0  0  0  0  0
   -2.5407    1.0382    1.2696 C   0  0  0  0  0  0  0  0  0  0  0  0
    3.1454   -0.3912    1.4501 C   0  0  0  0  0  0  0  0  0  0  0  0
    5.3171    1.0850   -0.1522 C   0  0  1  0  0  0  0  0  0  0  0  0
   -2.9886   -0.8753   -0.9110 C   0  0  0  0  0  0  0  0  0  0  0  0
   -1.2739   -0.6298    2.6043 C   0  0  0  0  0  0  0  0  0  0  0  0
   -3.1361    1.4914   -0.0577 C   0  0  0  0  0  0  0  0  0  0  0  0
   -3.8817    0.3473   -0.7321 C   0  0  1  0  0  0  0  0  0  0  0  0
    6.4459    1.3247   -1.1895 C   0  0  0  0  0  0  0  0  0  0  0  0
    5.0434    2.3648    0.6491 C   0  0  0  0  0  0  0  0  0  0  0  0
    7.8321    1.6984   -0.6280 C   0  0  0  0  0  0  0  0  0  0  0  0
    8.6240    0.7456    0.2791 C   0  0  0  0  0  0  0  0  0  0  0  0
    1.0907    1.7914   -1.4190 H   0  0  0  0  0  0  0  0  0  0  0  0
   -3.5890    0.9745   -2.5600 H   0  0  0  0  0  0  0  0  0  0  0  0
    1.5020   -0.1215   -1.6440 H   0  0  0  0  0  0  0  0  0  0  0  0
    0.9400   -1.5159    1.0123 H   0  0  0  0  0  0  0  0  0  0  0  0
   -0.5727    0.5526   -0.6204 H   0  0  0  0  0  0  0  0  0  0  0  0
    3.7253    1.1842   -1.6288 H   0  0  0  0  0  0  0  0  0  0  0  0
    2.4351    2.2801    1.0247 H   0  0  0  0  0  0  0  0  0  0  0  0
   -0.0374    2.2092    1.0278 H   0  0  0  0  0  0  0  0  0  0  0  0
    0.7359    1.0399    2.0831 H   0  0  0  0  0  0  0  0  0  0  0  0
   -3.1701   -1.6779    1.0585 H   0  0  0  0  0  0  0  0  0  0  0  0
    2.9794   -2.5100   -0.5770 H   0  0  0  0  0  0  0  0  0  0  0  0
    2.5293   -2.0938   -2.2273 H   0  0  0  0  0  0  0  0  0  0  0  0
    0.4435   -3.1139   -0.7007 H   0  0  0  0  0  0  0  0  0  0  0  0
   -0.4282   -1.9304   -1.6589 H   0  0  0  0  0  0  0  0  0  0  0  0
    4.9898   -1.4611   -0.9356 H   0  0  0  0  0  0  0  0  0  0  0  0
    4.4553   -0.8159   -2.4919 H   0  0  0  0  0  0  0  0  0  0  0  0
   -1.1586   -3.0126    1.1119 H   0  0  0  0  0  0  0  0  0  0  0  0
   -2.0043   -3.3330   -0.3841 H   0  0  0  0  0  0  0  0  0  0  0  0
   -2.0368    1.8842    1.7489 H   0  0  0  0  0  0  0  0  0  0  0  0
   -3.3734    0.7817    1.9397 H   0  0  0  0  0  0  0  0  0  0  0  0
    3.0545   -1.4819    1.3918 H   0  0  0  0  0  0  0  0  0  0  0  0
    4.1760   -0.2091    1.7511 H   0  0  0  0  0  0  0  0  0  0  0  0
    2.5299   -0.0702    2.2927 H   0  0  0  0  0  0  0  0  0  0  0  0
    5.7003    0.3373    0.5464 H   0  0  0  0  0  0  0  0  0  0  0  0
   -3.5816   -1.6910   -1.3444 H   0  0  0  0  0  0  0  0  0  0  0  0
   -2.2260   -0.6482   -1.6646 H   0  0  0  0  0  0  0  0  0  0  0  0
   -0.5480   -1.4447    2.6553 H   0  0  0  0  0  0  0  0  0  0  0  0
   -0.8800    0.2000    3.2009 H   0  0  0  0  0  0  0  0  0  0  0  0
   -2.1827   -0.9699    3.1148 H   0  0  0  0  0  0  0  0  0  0  0  0
   -2.3582    1.8891   -0.7207 H   0  0  0  0  0  0  0  0  0  0  0  0
   -3.8254    2.3283    0.1091 H   0  0  0  0  0  0  0  0  0  0  0  0
   -4.7566    0.0758   -0.1305 H   0  0  0  0  0  0  0  0  0  0  0  0
    6.5675    0.4285   -1.8080 H   0  0  0  0  0  0  0  0  0  0  0  0
    6.1351    2.1332   -1.8639 H   0  0  0  0  0  0  0  0  0  0  0  0
    4.4984    2.1352    1.5700 H   0  0  0  0  0  0  0  0  0  0  0  0
    5.9583    2.8650    0.9720 H   0  0  0  0  0  0  0  0  0  0  0  0
    4.4604    3.0842    0.0654 H   0  0  0  0  0  0  0  0  0  0  0  0
    8.4868    1.8676   -1.4944 H   0  0  0  0  0  0  0  0  0  0  0  0
    7.7820    2.6631   -0.1112 H   0  0  0  0  0  0  0  0  0  0  0  0
  1 29  1  0  0  0  0
  2 30  1  0  0  0  0
  3 28  1  0  0  0  0
  4 28  2  0  0  0  0
  5  6  1  0  0  0  0
  5 10  1  0  0  0  0
  5 11  1  0  0  0  0
  5 19  1  1  0  0  0
  6  7  1  0  0  0  0
  6 14  1  0  0  0  0
  6 31  1  6  0  0  0
  7  8  1  0  0  0  0
  7 15  1  0  0  0  0
  7 32  1  1  0  0  0
  8  9  1  0  0  0  0
  8 12  1  0  0  0  0
  8 33  1  6  0  0  0
  9 13  1  0  0  0  0
  9 18  1  0  0  0  0
  9 22  1  1  0  0  0
 10 16  1  0  0  0  0
 10 34  1  6  0  0  0
 10 20  1  0  0  0  0
 11  1  1  0  0  0  0
 11 12  1  0  0  0  0
 11 35  1  1  0  0  0
 12 36  1  0  0  0  0
 12 37  1  0  0  0  0
 13 17  1  0  0  0  0
 13 21  1  0  0  0  0
 13 38  1  1  0  0  0
 14 16  1  0  0  0  0
 14 39  1  0  0  0  0
 14 40  1  0  0  0  0
 15 17  1  0  0  0  0
 15 41  1  0  0  0  0
 15 42  1  0  0  0  0
 16 43  1  0  0  0  0
 16 44  1  0  0  0  0
 17 45  1  0  0  0  0
 17 46  1  0  0  0  0
 18 23  1  0  0  0  0
 18 47  1  0  0  0  0
 18 48  1  0  0  0  0
 19 49  1  0  0  0  0
 19 50  1  0  0  0  0
 19 51  1  0  0  0  0
 20 25  1  0  0  0  0
 20 26  1  0  0  0  0
 20 52  1  1  0  0  0
 21 24  1  0  0  0  0
 21 53  1  0  0  0  0
 21 54  1  0  0  0  0
 22 55  1  0  0  0  0
 22 56  1  0  0  0  0
 22 57  1  0  0  0  0
 23 24  1  0  0  0  0
 23 58  1  0  0  0  0
 23 59  1  0  0  0  0
 24  2  1  0  0  0  0
 24 60  1  1  0  0  0
 25 27  1  0  0  0  0
 25 61  1  0  0  0  0
 25 62  1  0  0  0  0
 26 63  1  0  0  0  0
 26 64  1  0  0  0  0
 26 65  1  0  0  0  0
 27 28  1  0  0  0  0
 27 66  1  0  0  0  0
 27 67  1  0  0  0  0
M  CHG  1   3  -1
M  END
>  <Mol_ID>
5439

>  <Formula>
C24H39NaO4

>  <MolWeight>
414.55383

>  <Cat>
S3069

>  <Name>
Deoxycholic acid sodium salt

>  <Synonyms>
Sodium Deoxycholate, Sodium Desoxycholate, Cholanoic Acid, ATX-101, Kythera, Belkyra, DCA

>  <Target>
GPCR19

>  <Form>
Sodium salt

>  <CAS>
302-95-4

>  <URL>
https://www.selleckchem.com/products/deoxycholic-acid-sodium-salt.html

$$$$
