Deoxyarbutin.cdx
 OpenBabel08302522043D

 28 29  0  0  0  0  0  0  0  0999 V2000
   -3.0882    0.7849   -4.2373 C   0  0  0  0  0  0  0  0  0  0  0  0
   -4.4453    0.9090   -4.5129 C   0  0  0  0  0  0  0  0  0  0  0  0
   -5.3917    0.5935   -3.5492 C   0  0  0  0  0  0  0  0  0  0  0  0
   -4.9784    0.1285   -2.2980 C   0  0  0  0  0  0  0  0  0  0  0  0
   -3.6179   -0.0256   -2.0071 C   0  0  0  0  0  0  0  0  0  0  0  0
   -2.6768    0.3249   -2.9805 C   0  0  0  0  0  0  0  0  0  0  0  0
   -4.9006    1.3313   -5.7246 O   0  0  0  0  0  0  0  0  0  0  0  0
   -3.1027   -0.5084   -0.8264 O   0  0  0  0  0  0  0  0  0  0  0  0
   -4.0486   -1.0837    0.0879 C   0  0  3  0  0  0  0  0  0  0  0  0
   -3.3939   -1.3842    1.4432 C   0  0  0  0  0  0  0  0  0  0  0  0
   -2.5455   -2.6530    1.4433 C   0  0  0  0  0  0  0  0  0  0  0  0
   -3.2652   -3.7997    0.7413 C   0  0  0  0  0  0  0  0  0  0  0  0
   -3.7779   -3.3406   -0.6099 C   0  0  0  0  0  0  0  0  0  0  0  0
   -4.6862   -2.2556   -0.4323 O   0  0  0  0  0  0  0  0  0  0  0  0
   -2.3403    1.0373   -4.9833 H   0  0  0  0  0  0  0  0  0  0  0  0
   -6.4494    0.6955   -3.7673 H   0  0  0  0  0  0  0  0  0  0  0  0
   -5.7536   -0.1202   -1.5846 H   0  0  0  0  0  0  0  0  0  0  0  0
   -1.6169    0.2249   -2.7675 H   0  0  0  0  0  0  0  0  0  0  0  0
   -4.1404    1.4472   -6.3163 H   0  0  0  0  0  0  0  0  0  0  0  0
   -4.8249   -0.3404    0.3021 H   0  0  0  0  0  0  0  0  0  0  0  0
   -4.1962   -1.5288    2.1786 H   0  0  0  0  0  0  0  0  0  0  0  0
   -2.7866   -0.5359    1.7775 H   0  0  0  0  0  0  0  0  0  0  0  0
   -1.5920   -2.4574    0.9396 H   0  0  0  0  0  0  0  0  0  0  0  0
   -2.3107   -2.9399    2.4752 H   0  0  0  0  0  0  0  0  0  0  0  0
   -2.5974   -4.6595    0.6351 H   0  0  0  0  0  0  0  0  0  0  0  0
   -4.1162   -4.1128    1.3615 H   0  0  0  0  0  0  0  0  0  0  0  0
   -2.9554   -3.0514   -1.2756 H   0  0  0  0  0  0  0  0  0  0  0  0
   -4.3221   -4.1546   -1.0986 H   0  0  0  0  0  0  0  0  0  0  0  0
  1  2  2  0  0  0  0
  1 15  1  0  0  0  0
  2  3  1  0  0  0  0
  2  7  1  0  0  0  0
  3  4  2  0  0  0  0
  3 16  1  0  0  0  0
  4  5  1  0  0  0  0
  4 17  1  0  0  0  0
  5  6  2  0  0  0  0
  5  8  1  0  0  0  0
  6  1  1  0  0  0  0
  6 18  1  0  0  0  0
  7 19  1  0  0  0  0
  8  9  1  0  0  0  0
  9 10  1  0  0  0  0
  9 20  1  0  0  0  0
 10 11  1  0  0  0  0
 10 21  1  0  0  0  0
 10 22  1  0  0  0  0
 11 12  1  0  0  0  0
 11 23  1  0  0  0  0
 11 24  1  0  0  0  0
 12 13  1  0  0  0  0
 12 25  1  0  0  0  0
 12 26  1  0  0  0  0
 13 14  1  0  0  0  0
 13 27  1  0  0  0  0
 13 28  1  0  0  0  0
 14  9  1  0  0  0  0
M  END
>  <Mol_ID>
1251

>  <Formula>
C11H14O3

>  <MolWeight>
194.22706

>  <Cat>
S4132

>  <Name>
Deoxyarbutin

>  <Synonyms>
D-arbutin,D-Arb

>  <Target>
Tyrosinase

>  <Form>
free base

>  <CAS>
53936-56-4

>  <URL>
http://selleckchem.com/products/deoxyarbutin.html

$$$$
