DEPOCYT (cytarabine).cdx
 OpenBabel08302520433D

 30 31  0  0  0  0  0  0  0  0999 V2000
   -2.1211   -4.5272    0.6822 C   0  0  0  0  0  0  0  0  0  0  0  0
   -1.5389   -3.4097    0.0824 N   0  0  0  0  0  0  0  0  0  0  0  0
   -2.2402   -2.6911   -0.8677 C   0  0  0  0  0  0  0  0  0  0  0  0
   -3.4848   -3.0101   -1.2150 C   0  0  0  0  0  0  0  0  0  0  0  0
   -4.0521   -4.1897   -0.5397 C   0  0  0  0  0  0  0  0  0  0  0  0
   -3.4005   -4.8811    0.3387 N   0  0  0  0  0  0  0  0  0  0  0  0
   -1.5297   -5.1839    1.5344 O   0  0  0  0  0  0  0  0  0  0  0  0
   -5.3185   -4.6053   -0.8286 N   0  0  0  0  0  0  0  0  0  0  0  0
   -0.1362   -3.0321    0.3187 C   0  0  2  0  0  0  0  0  0  0  0  0
    0.6619   -3.6317   -0.7207 O   0  0  0  0  0  0  0  0  0  0  0  0
    1.6454   -4.5014   -0.1075 C   0  0  1  0  0  0  0  0  0  0  0  0
    1.3040   -4.6492    1.3707 C   0  0  2  0  0  0  0  0  0  0  0  0
    0.5742   -3.3390    1.6503 C   0  0  2  0  0  0  0  0  0  0  0  0
    1.6342   -5.8322   -0.8566 C   0  0  0  0  0  0  0  0  0  0  0  0
   -0.2363   -3.3251    2.8143 O   0  0  0  0  0  0  0  0  0  0  0  0
    2.4762   -4.8399    2.1625 O   0  0  0  0  0  0  0  0  0  0  0  0
    2.0077   -5.6094   -2.2186 O   0  0  0  0  0  0  0  0  0  0  0  0
   -1.7328   -1.8487   -1.3365 H   0  0  0  0  0  0  0  0  0  0  0  0
   -4.0579   -2.4774   -1.9576 H   0  0  0  0  0  0  0  0  0  0  0  0
   -5.9991   -3.8926   -1.0648 H   0  0  0  0  0  0  0  0  0  0  0  0
   -5.6646   -5.2771   -0.1481 H   0  0  0  0  0  0  0  0  0  0  0  0
   -0.0817   -1.9445    0.1777 H   0  0  0  0  0  0  0  0  0  0  0  0
    2.6218   -4.0198   -0.2398 H   0  0  0  0  0  0  0  0  0  0  0  0
    0.6816   -5.5260    1.5546 H   0  0  0  0  0  0  0  0  0  0  0  0
    1.3320   -2.5615    1.8125 H   0  0  0  0  0  0  0  0  0  0  0  0
    2.3347   -6.5488   -0.4198 H   0  0  0  0  0  0  0  0  0  0  0  0
    0.6310   -6.2716   -0.8658 H   0  0  0  0  0  0  0  0  0  0  0  0
   -0.8153   -4.1175    2.7628 H   0  0  0  0  0  0  0  0  0  0  0  0
    2.7875   -3.9803    2.4929 H   0  0  0  0  0  0  0  0  0  0  0  0
    1.4408   -4.8782   -2.5301 H   0  0  0  0  0  0  0  0  0  0  0  0
  1  2  1  0  0  0  0
  1  7  2  0  0  0  0
  2  3  1  0  0  0  0
  3  4  2  0  0  0  0
  3 18  1  0  0  0  0
  4  5  1  0  0  0  0
  4 19  1  0  0  0  0
  5  6  2  0  0  0  0
  5  8  1  0  0  0  0
  6  1  1  0  0  0  0
  8 20  1  0  0  0  0
  8 21  1  0  0  0  0
  9 10  1  0  0  0  0
  9 22  1  6  0  0  0
  9  2  1  0  0  0  0
 10 11  1  0  0  0  0
 11 12  1  0  0  0  0
 11 14  1  0  0  0  0
 11 23  1  6  0  0  0
 12 13  1  0  0  0  0
 12 16  1  0  0  0  0
 12 24  1  1  0  0  0
 13  9  1  0  0  0  0
 13 15  1  0  0  0  0
 13 25  1  1  0  0  0
 14 17  1  0  0  0  0
 14 26  1  0  0  0  0
 14 27  1  0  0  0  0
 15 28  1  0  0  0  0
 16 29  1  0  0  0  0
 17 30  1  0  0  0  0
M  END
>  <Mol_ID>
4026

>  <Formula>
C9H13N3O5

>  <MolWeight>
243.21662

>  <Cat>
S1648

>  <Name>
Cytarabine (U-19920A)

>  <Synonyms>
Cytarabin,Ara-C,Arabinofuranosyl Cytidine,Cytosine ¦Â-D-arabinofuranoside,Cytosine arabinoside,NSC 63878,NSC 287459,U-19920A

>  <Target>
Apoptosis related,Autophagy,DNA/RNA Synthesis,Nucleoside Analog/Antimetabolite

>  <Form>
free base

>  <CAS>
147-94-4

>  <URL>
http://selleckchem.com/products/Cytarabine(Cytosar-U).html

$$$$
