Derenofylline (SLV320)
 OpenBabel08302521313D

 43 46  0  0  0  0  0  0  0  0999 V2000
    2.0313    1.6375    0.3225 O   0  0  0  0  0  0  0  0  0  0  0  0
   -3.3638    0.1468   -0.2786 N   0  0  0  0  0  0  0  0  0  0  0  0
   -4.5627    1.0318    1.5747 N   0  0  0  0  0  0  0  0  0  0  0  0
   -7.1795   -1.9987    1.4018 N   0  0  0  0  0  0  0  0  0  0  0  0
   -6.5263    0.0110    2.5199 N   0  0  0  0  0  0  0  0  0  0  0  0
   -2.1384    0.8040    0.1719 C   0  0  1  0  0  0  0  0  0  0  0  0
   -1.1986   -0.2377    0.8004 C   0  0  0  0  0  0  0  0  0  0  0  0
   -1.4804    1.4924   -1.0332 C   0  0  0  0  0  0  0  0  0  0  0  0
    0.8009    1.0357   -0.0596 C   0  0  1  0  0  0  0  0  0  0  0  0
    0.1584    0.3639    1.1509 C   0  0  0  0  0  0  0  0  0  0  0  0
   -0.1247    2.0895   -0.6662 C   0  0  0  0  0  0  0  0  0  0  0  0
   -4.4120    0.0667    0.6377 C   0  0  0  0  0  0  0  0  0  0  0  0
   -5.3675   -0.9634    0.6080 C   0  0  0  0  0  0  0  0  0  0  0  0
   -6.3576   -0.9201    1.5749 C   0  0  0  0  0  0  0  0  0  0  0  0
   -5.6340   -2.1130   -0.1898 C   0  0  0  0  0  0  0  0  0  0  0  0
   -5.6005    0.9869    2.4414 C   0  0  0  0  0  0  0  0  0  0  0  0
   -6.7582   -2.7301    0.3210 C   0  0  0  0  0  0  0  0  0  0  0  0
   -5.7837    2.1632    3.3207 C   0  0  0  0  0  0  0  0  0  0  0  0
   -4.9310    3.2824    3.2400 C   0  0  0  0  0  0  0  0  0  0  0  0
   -6.8509    2.2367    4.2368 C   0  0  0  0  0  0  0  0  0  0  0  0
   -5.1502    4.4272    4.0123 C   0  0  0  0  0  0  0  0  0  0  0  0
   -7.0741    3.3797    5.0103 C   0  0  0  0  0  0  0  0  0  0  0  0
   -6.2273    4.4772    4.8915 C   0  0  0  0  0  0  0  0  0  0  0  0
    1.8391    2.3476    0.9585 H   0  0  0  0  0  0  0  0  0  0  0  0
   -3.2328   -0.7126   -0.7994 H   0  0  0  0  0  0  0  0  0  0  0  0
   -7.9822   -2.1920    1.9838 H   0  0  0  0  0  0  0  0  0  0  0  0
   -2.3403    1.5883    0.9114 H   0  0  0  0  0  0  0  0  0  0  0  0
   -1.0512   -1.0765    0.1068 H   0  0  0  0  0  0  0  0  0  0  0  0
   -1.6548   -0.6601    1.7039 H   0  0  0  0  0  0  0  0  0  0  0  0
   -1.3521    0.7779   -1.8564 H   0  0  0  0  0  0  0  0  0  0  0  0
   -2.1367    2.2863   -1.4090 H   0  0  0  0  0  0  0  0  0  0  0  0
    1.0339    0.2775   -0.8164 H   0  0  0  0  0  0  0  0  0  0  0  0
    0.8261   -0.4152    1.5404 H   0  0  0  0  0  0  0  0  0  0  0  0
    0.0453    1.0914    1.9648 H   0  0  0  0  0  0  0  0  0  0  0  0
   -0.2612    2.9154    0.0448 H   0  0  0  0  0  0  0  0  0  0  0  0
    0.3465    2.5342   -1.5492 H   0  0  0  0  0  0  0  0  0  0  0  0
   -5.0742   -2.4485   -1.0525 H   0  0  0  0  0  0  0  0  0  0  0  0
   -7.2959   -3.6157    0.0087 H   0  0  0  0  0  0  0  0  0  0  0  0
   -4.0908    3.2762    2.5468 H   0  0  0  0  0  0  0  0  0  0  0  0
   -7.5372    1.3976    4.3398 H   0  0  0  0  0  0  0  0  0  0  0  0
   -4.4861    5.2817    3.9132 H   0  0  0  0  0  0  0  0  0  0  0  0
   -7.9181    3.4125    5.6940 H   0  0  0  0  0  0  0  0  0  0  0  0
   -6.4099    5.3725    5.4794 H   0  0  0  0  0  0  0  0  0  0  0  0
  1 24  1  0  0  0  0
  2 12  1  0  0  0  0
  2 25  1  0  0  0  0
  3 12  2  0  0  0  0
  3 16  1  0  0  0  0
  4 14  1  0  0  0  0
  4 17  1  0  0  0  0
  4 26  1  0  0  0  0
  5 14  1  0  0  0  0
  5 16  2  0  0  0  0
  6  2  1  0  0  0  0
  6  7  1  0  0  0  0
  6  8  1  0  0  0  0
  6 27  1  1  0  0  0
  7 10  1  0  0  0  0
  7 28  1  0  0  0  0
  7 29  1  0  0  0  0
  8 11  1  0  0  0  0
  8 30  1  0  0  0  0
  8 31  1  0  0  0  0
  9  1  1  0  0  0  0
  9 10  1  0  0  0  0
  9 11  1  0  0  0  0
  9 32  1  6  0  0  0
 10 33  1  0  0  0  0
 10 34  1  0  0  0  0
 11 35  1  0  0  0  0
 11 36  1  0  0  0  0
 12 13  1  0  0  0  0
 13 14  2  0  0  0  0
 13 15  1  0  0  0  0
 15 17  2  0  0  0  0
 15 37  1  0  0  0  0
 16 18  1  0  0  0  0
 17 38  1  0  0  0  0
 18 19  2  0  0  0  0
 18 20  1  0  0  0  0
 19 21  1  0  0  0  0
 19 39  1  0  0  0  0
 20 22  2  0  0  0  0
 20 40  1  0  0  0  0
 21 23  2  0  0  0  0
 21 41  1  0  0  0  0
 22 23  1  0  0  0  0
 22 42  1  0  0  0  0
 23 43  1  0  0  0  0
M  END
>  <Mol_ID>
5841

>  <Formula>
C18H20N4O

>  <MolWeight>
308.3776

>  <Cat>
S0272

>  <Name>
Derenofylline (SLV320)

>  <Synonyms>
N/A

>  <Target>
Adenosine Receptor

>  <Form>
Free Base

>  <CAS>
251945-92-3

>  <URL>
http://www.selleckchem.com/products/derenofylline.html

$$$$
