Desacetylcinobufagin
 OpenBabel08302521463D

 61 66  0  0  1  0  0  0  0  0999 V2000
    2.7953    2.5917    1.1191 C   0  0  0  0  0  0  0  0  0  0  0  0
    3.5097    2.5441   -2.4773 O   0  0  0  0  0  0  0  0  0  0  0  0
   -1.8096   -0.6324    2.4592 C   0  0  0  0  0  0  0  0  0  0  0  0
    3.0320    8.6532   -2.1394 O   0  0  0  0  0  0  0  0  0  0  0  0
   -4.8926   -2.3569    0.5772 O   0  0  0  0  0  0  0  0  0  0  0  0
    1.3718    1.1796   -0.3817 C   0  0  1  0  0  0  0  0  0  0  0  0
    1.6158    1.2188   -1.8616 C   0  0  2  0  0  0  0  0  0  0  0  0
    1.5595    2.5910    0.1974 C   0  0  2  0  0  0  0  0  0  0  0  0
    0.5483    0.1823    0.3975 C   0  0  1  0  0  0  0  0  0  0  0  0
    2.5346    0.5740   -0.9878 O   0  0  0  0  0  0  0  0  0  0  0  0
    2.1031    2.5797   -2.2828 C   0  0  1  0  0  0  0  0  0  0  0  0
    1.6466    3.4944   -1.1068 C   0  0  2  0  0  0  0  0  0  0  0  0
    0.3078    3.0832    0.9997 C   0  0  0  0  0  0  0  0  0  0  0  0
   -0.8035    0.8717    0.6747 C   0  0  2  0  0  0  0  0  0  0  0  0
    0.4242   -1.2119   -0.2161 C   0  0  0  0  0  0  0  0  0  0  0  0
   -0.4985    1.9904    1.6948 C   0  0  0  0  0  0  0  0  0  0  0  0
   -1.9916   -0.0651    1.0336 C   0  0  1  0  0  0  0  0  0  0  0  0
   -0.8863   -1.3830   -0.9472 C   0  0  0  0  0  0  0  0  0  0  0  0
   -2.0895   -1.2522    0.0016 C   0  0  2  0  0  0  0  0  0  0  0  0
   -3.2946    0.7960    1.0018 C   0  0  0  0  0  0  0  0  0  0  0  0
   -3.3564   -1.1915   -0.8695 C   0  0  0  0  0  0  0  0  0  0  0  0
   -4.5925   -0.0037    1.0138 C   0  0  0  0  0  0  0  0  0  0  0  0
   -4.6335   -1.1010   -0.0470 C   0  0  2  0  0  0  0  0  0  0  0  0
    2.2151    4.8896   -1.0074 C   0  0  0  0  0  0  0  0  0  0  0  0
    1.3103    5.9638   -0.6433 C   0  0  0  0  0  0  0  0  0  0  0  0
    3.4517    5.2620   -1.3699 C   0  0  0  0  0  0  0  0  0  0  0  0
    1.5962    7.2268   -0.9541 C   0  0  0  0  0  0  0  0  0  0  0  0
    3.8405    6.5929   -1.5825 O   0  0  0  0  0  0  0  0  0  0  0  0
    2.8632    7.5530   -1.6239 C   0  0  0  0  0  0  0  0  0  0  0  0
    3.3726    1.6629    1.0479 H   0  0  0  0  0  0  0  0  0  0  0  0
    3.4784    3.4169    0.9130 H   0  0  0  0  0  0  0  0  0  0  0  0
    2.5018    2.6687    2.1729 H   0  0  0  0  0  0  0  0  0  0  0  0
    3.7984    1.6273   -2.3182 H   0  0  0  0  0  0  0  0  0  0  0  0
   -1.8549    0.1592    3.2159 H   0  0  0  0  0  0  0  0  0  0  0  0
   -2.5955   -1.3534    2.7070 H   0  0  0  0  0  0  0  0  0  0  0  0
   -0.8466   -1.1400    2.5721 H   0  0  0  0  0  0  0  0  0  0  0  0
   -4.2132   -2.5056    1.2569 H   0  0  0  0  0  0  0  0  0  0  0  0
    1.0143    0.6721   -2.5654 H   0  0  0  0  0  0  0  0  0  0  0  0
    1.0855    0.0321    1.3448 H   0  0  0  0  0  0  0  0  0  0  0  0
    1.6365    2.9025   -3.2196 H   0  0  0  0  0  0  0  0  0  0  0  0
    0.5955    3.6596   -1.4072 H   0  0  0  0  0  0  0  0  0  0  0  0
    0.5906    3.8590    1.7216 H   0  0  0  0  0  0  0  0  0  0  0  0
   -0.4104    3.5712    0.3283 H   0  0  0  0  0  0  0  0  0  0  0  0
   -1.1070    1.3664   -0.2626 H   0  0  0  0  0  0  0  0  0  0  0  0
    0.4709   -1.9567    0.5895 H   0  0  0  0  0  0  0  0  0  0  0  0
    1.2576   -1.4545   -0.8828 H   0  0  0  0  0  0  0  0  0  0  0  0
   -1.4123    2.4429    2.0898 H   0  0  0  0  0  0  0  0  0  0  0  0
    0.0583    1.6050    2.5573 H   0  0  0  0  0  0  0  0  0  0  0  0
   -0.9056   -2.3770   -1.4171 H   0  0  0  0  0  0  0  0  0  0  0  0
   -0.9503   -0.6553   -1.7646 H   0  0  0  0  0  0  0  0  0  0  0  0
   -2.1326   -2.1940    0.5700 H   0  0  0  0  0  0  0  0  0  0  0  0
   -3.3225    1.4939    1.8469 H   0  0  0  0  0  0  0  0  0  0  0  0
   -3.2950    1.4257    0.1009 H   0  0  0  0  0  0  0  0  0  0  0  0
   -3.3957   -2.0888   -1.5002 H   0  0  0  0  0  0  0  0  0  0  0  0
   -3.2942   -0.3299   -1.5446 H   0  0  0  0  0  0  0  0  0  0  0  0
   -4.7722   -0.4122    2.0147 H   0  0  0  0  0  0  0  0  0  0  0  0
   -5.4160    0.6961    0.8226 H   0  0  0  0  0  0  0  0  0  0  0  0
   -5.4723   -0.9208   -0.7273 H   0  0  0  0  0  0  0  0  0  0  0  0
    0.3869    5.7328   -0.1187 H   0  0  0  0  0  0  0  0  0  0  0  0
    4.2620    4.6046   -1.6449 H   0  0  0  0  0  0  0  0  0  0  0  0
    0.9307    8.0521   -0.7390 H   0  0  0  0  0  0  0  0  0  0  0  0
  1 30  1  0  0  0  0
  1 31  1  0  0  0  0
  1 32  1  0  0  0  0
  2 33  1  0  0  0  0
  3 34  1  0  0  0  0
  3 35  1  0  0  0  0
  3 36  1  0  0  0  0
  4 29  2  0  0  0  0
  5 37  1  0  0  0  0
  6  7  1  0  0  0  0
  6  8  1  0  0  0  0
  6  9  1  0  0  0  0
  6 10  1  1  0  0  0
  7 10  1  0  0  0  0
  7 11  1  0  0  0  0
  7 38  1  6  0  0  0
  8  1  1  1  0  0  0
  8 12  1  0  0  0  0
  8 13  1  0  0  0  0
  9 14  1  0  0  0  0
  9 15  1  0  0  0  0
  9 39  1  1  0  0  0
 11  2  1  0  0  0  0
 11 12  1  0  0  0  0
 11 40  1  6  0  0  0
 12 24  1  0  0  0  0
 12 41  1  6  0  0  0
 13 16  1  0  0  0  0
 13 42  1  0  0  0  0
 13 43  1  0  0  0  0
 14 16  1  0  0  0  0
 14 17  1  0  0  0  0
 14 44  1  6  0  0  0
 15 18  1  0  0  0  0
 15 45  1  0  0  0  0
 15 46  1  0  0  0  0
 16 47  1  0  0  0  0
 16 48  1  0  0  0  0
 17  3  1  1  0  0  0
 17 19  1  0  0  0  0
 17 20  1  0  0  0  0
 18 49  1  0  0  0  0
 18 50  1  0  0  0  0
 19 18  1  0  0  0  0
 19 21  1  0  0  0  0
 19 51  1  1  0  0  0
 20 22  1  0  0  0  0
 20 52  1  0  0  0  0
 20 53  1  0  0  0  0
 21 23  1  0  0  0  0
 21 54  1  0  0  0  0
 21 55  1  0  0  0  0
 22 23  1  0  0  0  0
 22 56  1  0  0  0  0
 22 57  1  0  0  0  0
 23  5  1  0  0  0  0
 23 58  1  6  0  0  0
 24 25  1  0  0  0  0
 24 26  2  0  0  0  0
 25 27  2  0  0  0  0
 25 59  1  0  0  0  0
 26 28  1  0  0  0  0
 26 60  1  0  0  0  0
 27 29  1  0  0  0  0
 27 61  1  0  0  0  0
 28 29  1  0  0  0  0
M  END
>  <Mol_ID>
9630

>  <Formula>
C24H32O5

>  <MolWeight>
400.50788

>  <Cat>
E2072

>  <Name>
Desacetylcinobufagin

>  <Synonyms>
NA

>  <Target>
anti-tumor

>  <Form>
Free Base

>  <CAS>
4026-95-3

>  <URL>
https://www.selleckchem.com/products/desacetylcinobufagin.html

$$$$
