Deschloroclozapine
 OpenBabel08302521343D

 42 45  0  0  0  0  0  0  0  0999 V2000
    1.8871   -1.4317   -1.3003 C   0  0  0  0  0  0  0  0  0  0  0  0
   -3.1033    0.0424    0.7921 C   0  0  0  0  0  0  0  0  0  0  0  0
   -4.2597    0.6556    0.0452 C   0  0  0  0  0  0  0  0  0  0  0  0
   -3.2053   -0.5092    1.9736 N   0  0  0  0  0  0  0  0  0  0  0  0
   -5.4987    0.0059   -0.0569 C   0  0  0  0  0  0  0  0  0  0  0  0
   -4.0714    1.8964   -0.5849 C   0  0  0  0  0  0  0  0  0  0  0  0
   -4.4060   -0.6727    2.6868 C   0  0  0  0  0  0  0  0  0  0  0  0
   -5.8039   -1.1419    0.7068 N   0  0  0  0  0  0  0  0  0  0  0  0
   -6.5175    0.5976   -0.8209 C   0  0  0  0  0  0  0  0  0  0  0  0
   -5.0945    2.4756   -1.3370 C   0  0  0  0  0  0  0  0  0  0  0  0
   -5.6282   -1.0787    2.1134 C   0  0  0  0  0  0  0  0  0  0  0  0
   -4.3351   -0.5336    4.0797 C   0  0  0  0  0  0  0  0  0  0  0  0
   -6.3168    1.8229   -1.4591 C   0  0  0  0  0  0  0  0  0  0  0  0
   -6.7502   -1.2863    2.9359 C   0  0  0  0  0  0  0  0  0  0  0  0
   -5.4545   -0.7392    4.8895 C   0  0  0  0  0  0  0  0  0  0  0  0
   -6.6654   -1.1102    4.3157 C   0  0  0  0  0  0  0  0  0  0  0  0
   -1.8337    0.0786    0.2058 N   0  0  0  0  0  0  0  0  0  0  0  0
   -1.6024    0.0778   -1.2439 C   0  0  0  0  0  0  0  0  0  0  0  0
   -0.6212    0.2503    1.0225 C   0  0  0  0  0  0  0  0  0  0  0  0
   -0.4396   -0.8616   -1.6294 C   0  0  0  0  0  0  0  0  0  0  0  0
    0.5275   -0.6687    0.5536 C   0  0  0  0  0  0  0  0  0  0  0  0
    0.8021   -0.5409   -0.8962 N   0  0  0  0  0  0  0  0  0  0  0  0
    2.8133   -1.1672   -0.7781 H   0  0  0  0  0  0  0  0  0  0  0  0
    1.6632   -2.4855   -1.0966 H   0  0  0  0  0  0  0  0  0  0  0  0
    2.0907   -1.3249   -2.3708 H   0  0  0  0  0  0  0  0  0  0  0  0
   -3.1248    2.4207   -0.4802 H   0  0  0  0  0  0  0  0  0  0  0  0
   -6.6813   -1.5737    0.4453 H   0  0  0  0  0  0  0  0  0  0  0  0
   -7.4964    0.1292   -0.8847 H   0  0  0  0  0  0  0  0  0  0  0  0
   -4.9405    3.4389   -1.8161 H   0  0  0  0  0  0  0  0  0  0  0  0
   -3.3852   -0.2624    4.5329 H   0  0  0  0  0  0  0  0  0  0  0  0
   -7.1259    2.2788   -2.0238 H   0  0  0  0  0  0  0  0  0  0  0  0
   -7.7085   -1.5525    2.4989 H   0  0  0  0  0  0  0  0  0  0  0  0
   -5.3763   -0.6098    5.9651 H   0  0  0  0  0  0  0  0  0  0  0  0
   -7.5447   -1.2539    4.9376 H   0  0  0  0  0  0  0  0  0  0  0  0
   -1.3740    1.0970   -1.5768 H   0  0  0  0  0  0  0  0  0  0  0  0
   -2.4936   -0.2624   -1.7834 H   0  0  0  0  0  0  0  0  0  0  0  0
   -0.3030    1.2977    0.9507 H   0  0  0  0  0  0  0  0  0  0  0  0
   -0.8094    0.0511    2.0832 H   0  0  0  0  0  0  0  0  0  0  0  0
   -0.2672   -0.7643   -2.7082 H   0  0  0  0  0  0  0  0  0  0  0  0
   -0.7392   -1.9014   -1.4393 H   0  0  0  0  0  0  0  0  0  0  0  0
    0.2780   -1.7090    0.8031 H   0  0  0  0  0  0  0  0  0  0  0  0
    1.4291   -0.4046    1.1201 H   0  0  0  0  0  0  0  0  0  0  0  0
  1 22  1  0  0  0  0
  1 23  1  0  0  0  0
  1 24  1  0  0  0  0
  1 25  1  0  0  0  0
  2  3  1  0  0  0  0
  2  4  2  0  0  0  0
  2 17  1  0  0  0  0
  3  5  2  0  0  0  0
  3  6  1  0  0  0  0
  4  7  1  0  0  0  0
  5  8  1  0  0  0  0
  5  9  1  0  0  0  0
  6 10  2  0  0  0  0
  6 26  1  0  0  0  0
  7 11  2  0  0  0  0
  7 12  1  0  0  0  0
  8 11  1  0  0  0  0
  8 27  1  0  0  0  0
  9 13  2  0  0  0  0
  9 28  1  0  0  0  0
 10 13  1  0  0  0  0
 10 29  1  0  0  0  0
 11 14  1  0  0  0  0
 12 15  2  0  0  0  0
 12 30  1  0  0  0  0
 13 31  1  0  0  0  0
 14 16  2  0  0  0  0
 14 32  1  0  0  0  0
 15 16  1  0  0  0  0
 15 33  1  0  0  0  0
 16 34  1  0  0  0  0
 17 18  1  0  0  0  0
 17 19  1  0  0  0  0
 18 20  1  0  0  0  0
 18 35  1  0  0  0  0
 18 36  1  0  0  0  0
 19 21  1  0  0  0  0
 19 37  1  0  0  0  0
 19 38  1  0  0  0  0
 20 22  1  0  0  0  0
 20 39  1  0  0  0  0
 20 40  1  0  0  0  0
 21 22  1  0  0  0  0
 21 41  1  0  0  0  0
 21 42  1  0  0  0  0
M  END
>  <Mol_ID>
6425

>  <Formula>
C18H20N4

>  <MolWeight>
292.3782

>  <Cat>
E1265

>  <Name>
Deschloroclozapine

>  <Target>
AChR

>  <Form>
free base

>  <CAS>
1977-07-7

>  <URL>
http://www.selleckchem.com/products/deschloroclozapine.html

$$$$
