Desidustat
 OpenBabel08302521303D

 40 42  0  0  0  0  0  0  0  0999 V2000
    0.8521    0.0963    0.1169 O   0  0  0  0  0  0  0  0  0  0  0  0
    1.1342   -0.7438   -2.4682 O   0  0  0  0  0  0  0  0  0  0  0  0
   -1.6963    2.6603   -4.1309 O   0  0  0  0  0  0  0  0  0  0  0  0
    0.2250    1.7415   -5.6470 O   0  0  0  0  0  0  0  0  0  0  0  0
    0.0901   -1.6103   -6.7917 O   0  0  0  0  0  0  0  0  0  0  0  0
    1.7288   -1.5606   -8.3437 O   0  0  0  0  0  0  0  0  0  0  0  0
    0.3164    0.8416   -0.9731 N   0  0  0  0  0  0  0  0  0  0  0  0
    1.3900   -0.1003   -4.9956 N   0  0  0  0  0  0  0  0  0  0  0  0
    2.8170   -0.6461    1.2545 C   0  0  0  0  0  0  0  0  0  0  0  0
    2.5647   -0.2437    2.6837 C   0  0  0  0  0  0  0  0  0  0  0  0
    3.9487   -0.1285    2.1077 C   0  0  0  0  0  0  0  0  0  0  0  0
    2.2875    0.1701    0.1151 C   0  0  0  0  0  0  0  0  0  0  0  0
   -0.8809    1.5601   -0.6967 C   0  0  0  0  0  0  0  0  0  0  0  0
    0.5225    0.2998   -2.2297 C   0  0  0  0  0  0  0  0  0  0  0  0
   -1.6119    2.0587   -1.7892 C   0  0  0  0  0  0  0  0  0  0  0  0
   -0.0067    1.1090   -3.3758 C   0  0  0  0  0  0  0  0  0  0  0  0
   -1.0510    1.9222   -3.1461 C   0  0  0  0  0  0  0  0  0  0  0  0
   -1.4024    1.6712    0.6004 C   0  0  0  0  0  0  0  0  0  0  0  0
   -2.8761    2.6268   -1.5733 C   0  0  0  0  0  0  0  0  0  0  0  0
    0.5543    0.9594   -4.7548 C   0  0  0  0  0  0  0  0  0  0  0  0
   -2.6902    2.2002    0.7960 C   0  0  0  0  0  0  0  0  0  0  0  0
   -3.4225    2.6708   -0.2881 C   0  0  0  0  0  0  0  0  0  0  0  0
    2.0651   -0.3132   -6.2841 C   0  0  0  0  0  0  0  0  0  0  0  0
    1.2975   -1.2198   -7.2519 C   0  0  0  0  0  0  0  0  0  0  0  0
   -1.2475    2.4974   -4.9943 H   0  0  0  0  0  0  0  0  0  0  0  0
   -0.0757   -1.2103   -5.9139 H   0  0  0  0  0  0  0  0  0  0  0  0
    1.6696   -0.6973   -4.2104 H   0  0  0  0  0  0  0  0  0  0  0  0
    2.7996   -1.7067    1.0250 H   0  0  0  0  0  0  0  0  0  0  0  0
    2.0089    0.6668    2.8708 H   0  0  0  0  0  0  0  0  0  0  0  0
    2.3761   -1.0360    3.3999 H   0  0  0  0  0  0  0  0  0  0  0  0
    4.6986   -0.8359    2.4456 H   0  0  0  0  0  0  0  0  0  0  0  0
    4.3349    0.8677    1.9238 H   0  0  0  0  0  0  0  0  0  0  0  0
    2.6918   -0.2683   -0.8029 H   0  0  0  0  0  0  0  0  0  0  0  0
    2.6208    1.2131    0.1696 H   0  0  0  0  0  0  0  0  0  0  0  0
   -0.8584    1.2901    1.4601 H   0  0  0  0  0  0  0  0  0  0  0  0
   -3.4631    3.0055   -2.4076 H   0  0  0  0  0  0  0  0  0  0  0  0
   -3.1261    2.2109    1.7896 H   0  0  0  0  0  0  0  0  0  0  0  0
   -4.4293    3.0562   -0.1419 H   0  0  0  0  0  0  0  0  0  0  0  0
    2.2303    0.6522   -6.7749 H   0  0  0  0  0  0  0  0  0  0  0  0
    3.0270   -0.7921   -6.0706 H   0  0  0  0  0  0  0  0  0  0  0  0
  1  7  1  0  0  0  0
  1 12  1  0  0  0  0
  2 14  2  0  0  0  0
  3 17  1  0  0  0  0
  3 25  1  0  0  0  0
  4 20  2  0  0  0  0
  5 24  1  0  0  0  0
  5 26  1  0  0  0  0
  6 24  2  0  0  0  0
  7 13  1  0  0  0  0
  7 14  1  0  0  0  0
  8 20  1  0  0  0  0
  8 23  1  0  0  0  0
  8 27  1  0  0  0  0
  9 10  1  0  0  0  0
  9 11  1  0  0  0  0
  9 12  1  0  0  0  0
  9 28  1  0  0  0  0
 10 11  1  0  0  0  0
 10 29  1  0  0  0  0
 10 30  1  0  0  0  0
 11 31  1  0  0  0  0
 11 32  1  0  0  0  0
 12 33  1  0  0  0  0
 12 34  1  0  0  0  0
 13 15  2  0  0  0  0
 13 18  1  0  0  0  0
 14 16  1  0  0  0  0
 15 17  1  0  0  0  0
 15 19  1  0  0  0  0
 16 17  2  0  0  0  0
 16 20  1  0  0  0  0
 18 21  2  0  0  0  0
 18 35  1  0  0  0  0
 19 22  2  0  0  0  0
 19 36  1  0  0  0  0
 21 22  1  0  0  0  0
 21 37  1  0  0  0  0
 22 38  1  0  0  0  0
 23 24  1  0  0  0  0
 23 39  1  0  0  0  0
 23 40  1  0  0  0  0
M  END
>  <Mol_ID>
5564

>  <Formula>
C16H16N2O6

>  <MolWeight>
332.30804

>  <Cat>
S9699

>  <Name>
Desidustat

>  <Synonyms>
ZYAN1, ZYAN1-1001

>  <Target>
HIF

>  <Form>
Free Base

>  <CAS>
1616690-16-4

>  <URL>
https://www.selleckchem.com/products/desidustat.html

$$$$
