DESLORATADINE (desloratadine).cdx
 OpenBabel08302521353D

 41 44  0  0  0  0  0  0  0  0999 V2000
    0.7337    1.2220   -0.2658 C   0  0  0  0  0  0  0  0  0  0  0  0
    1.4621   -0.0655    0.1649 C   0  0  0  0  0  0  0  0  0  0  0  0
    0.6962   -1.3213   -0.2500 C   0  0  0  0  0  0  0  0  0  0  0  0
   -0.7527   -1.1994    0.2176 C   0  0  0  0  0  0  0  0  0  0  0  0
   -1.3964    0.1083   -0.2532 C   0  0  0  0  0  0  0  0  0  0  0  0
   -0.6553    1.2867    0.2048 N   0  0  0  0  0  0  0  0  0  0  0  0
    1.2196   -2.3782   -0.9407 C   0  0  0  0  0  0  0  0  0  0  0  0
    2.6590   -2.3765   -1.3320 C   0  0  0  0  0  0  0  0  0  0  0  0
    3.0147   -2.3785   -2.6912 C   0  0  0  0  0  0  0  0  0  0  0  0
    1.9407   -2.3480   -3.7450 C   0  0  0  0  0  0  0  0  0  0  0  0
    1.2036   -3.6845   -3.8039 C   0  0  0  0  0  0  0  0  0  0  0  0
    0.3341   -4.0875   -2.6340 C   0  0  0  0  0  0  0  0  0  0  0  0
    0.3555   -3.5408   -1.3415 C   0  0  0  0  0  0  0  0  0  0  0  0
    3.6678   -2.4725   -0.3623 C   0  0  0  0  0  0  0  0  0  0  0  0
    5.0115   -2.5613   -0.7399 C   0  0  0  0  0  0  0  0  0  0  0  0
    5.3587   -2.5715   -2.0877 C   0  0  0  0  0  0  0  0  0  0  0  0
    4.3660   -2.4835   -3.0618 C   0  0  0  0  0  0  0  0  0  0  0  0
   -0.5586   -5.1531   -2.8675 C   0  0  0  0  0  0  0  0  0  0  0  0
   -1.3924   -5.6169   -1.8620 C   0  0  0  0  0  0  0  0  0  0  0  0
   -1.2823   -5.0368   -0.6196 C   0  0  0  0  0  0  0  0  0  0  0  0
   -0.4154   -4.0412   -0.3385 N   0  0  0  0  0  0  0  0  0  0  0  0
    1.2709    2.0866    0.1387 H   0  0  0  0  0  0  0  0  0  0  0  0
    0.7553    1.3144   -1.3587 H   0  0  0  0  0  0  0  0  0  0  0  0
    2.4731   -0.0230   -0.2484 H   0  0  0  0  0  0  0  0  0  0  0  0
    1.5686   -0.0728    1.2577 H   0  0  0  0  0  0  0  0  0  0  0  0
   -1.4047   -1.9974   -0.1347 H   0  0  0  0  0  0  0  0  0  0  0  0
   -0.7658   -1.2463    1.3153 H   0  0  0  0  0  0  0  0  0  0  0  0
   -1.4739    0.1141   -1.3480 H   0  0  0  0  0  0  0  0  0  0  0  0
   -2.4186    0.1614    0.1383 H   0  0  0  0  0  0  0  0  0  0  0  0
   -1.1008    2.1247   -0.1652 H   0  0  0  0  0  0  0  0  0  0  0  0
    1.2495   -1.5157   -3.5627 H   0  0  0  0  0  0  0  0  0  0  0  0
    2.3945   -2.1498   -4.7248 H   0  0  0  0  0  0  0  0  0  0  0  0
    0.5662   -3.6539   -4.6982 H   0  0  0  0  0  0  0  0  0  0  0  0
    1.9328   -4.4906   -3.9645 H   0  0  0  0  0  0  0  0  0  0  0  0
    3.4084   -2.4933    0.6941 H   0  0  0  0  0  0  0  0  0  0  0  0
    5.7827   -2.6394    0.0240 H   0  0  0  0  0  0  0  0  0  0  0  0
    6.4007   -2.6701   -2.3797 H   0  0  0  0  0  0  0  0  0  0  0  0
    4.6493   -2.5186   -4.1094 H   0  0  0  0  0  0  0  0  0  0  0  0
   -0.6058   -5.6209   -3.8496 H   0  0  0  0  0  0  0  0  0  0  0  0
   -2.1027   -6.4174   -2.0424 H   0  0  0  0  0  0  0  0  0  0  0  0
   -1.9108   -5.3486    0.2079 H   0  0  0  0  0  0  0  0  0  0  0  0
  1  2  1  0  0  0  0
  1 22  1  0  0  0  0
  1 23  1  0  0  0  0
  2  3  1  0  0  0  0
  2 24  1  0  0  0  0
  2 25  1  0  0  0  0
  3  4  1  0  0  0  0
  3  7  2  0  0  0  0
  4  5  1  0  0  0  0
  4 26  1  0  0  0  0
  4 27  1  0  0  0  0
  5  6  1  0  0  0  0
  5 28  1  0  0  0  0
  5 29  1  0  0  0  0
  6  1  1  0  0  0  0
  6 30  1  0  0  0  0
  7  8  1  0  0  0  0
  8  9  2  0  0  0  0
  8 14  1  0  0  0  0
  9 10  1  0  0  0  0
 10 11  1  0  0  0  0
 10 31  1  0  0  0  0
 10 32  1  0  0  0  0
 11 12  1  0  0  0  0
 11 33  1  0  0  0  0
 11 34  1  0  0  0  0
 12 13  2  0  0  0  0
 12 18  1  0  0  0  0
 13  7  1  0  0  0  0
 14 15  2  0  0  0  0
 14 35  1  0  0  0  0
 15 16  1  0  0  0  0
 15 36  1  0  0  0  0
 16 17  2  0  0  0  0
 16 37  1  0  0  0  0
 17  9  1  0  0  0  0
 17 38  1  0  0  0  0
 18 19  2  0  0  0  0
 18 39  1  0  0  0  0
 19 20  1  0  0  0  0
 19 40  1  0  0  0  0
 20 21  2  0  0  0  0
 20 41  1  0  0  0  0
 21 13  1  0  0  0  0
M  END
>  <Mol_ID>
630

>  <Formula>
C19H19ClN2

>  <MolWeight>
310.82056

>  <Cat>
S4012

>  <Name>
Desloratadine

>  <Synonyms>
SCH-34117, NSC 675447

>  <Target>
Histamine Receptor

>  <Form>
free base

>  <CAS>
100643-71-8

>  <URL>
http://selleckchem.com/products/desloratadine.html

$$$$
