Desmethylanethol trithione
 OpenBabel08302520403D

 19 20  0  0  0  0  0  0  0  0999 V2000
    1.9060   -0.0683   -0.7575 S   0  0  0  0  0  0  0  0  0  0  0  0
    0.2504    1.0639   -0.3662 S   0  0  0  0  0  0  0  0  0  0  0  0
   -0.6702   -0.1719    0.4787 C   0  0  0  0  0  0  0  0  0  0  0  0
    0.0557   -1.4570    0.5544 C   0  0  0  0  0  0  0  0  0  0  0  0
    1.2702   -1.4820   -0.0040 C   0  0  0  0  0  0  0  0  0  0  0  0
   -2.1921    0.1017    1.1138 S   0  0  0  0  0  0  0  0  0  0  0  0
    2.1076   -2.6834    0.0018 C   0  0  0  0  0  0  0  0  0  0  0  0
    2.0250   -3.6135   -1.0453 C   0  0  0  0  0  0  0  0  0  0  0  0
    2.8125   -4.7687   -1.0317 C   0  0  0  0  0  0  0  0  0  0  0  0
    3.6793   -4.9931    0.0329 C   0  0  0  0  0  0  0  0  0  0  0  0
    3.7678   -4.0859    1.0822 C   0  0  0  0  0  0  0  0  0  0  0  0
    2.9816   -2.9318    1.0695 C   0  0  0  0  0  0  0  0  0  0  0  0
    4.4689   -6.1027    0.0867 O   0  0  0  0  0  0  0  0  0  0  0  0
   -0.4004   -2.3071    1.0448 H   0  0  0  0  0  0  0  0  0  0  0  0
    1.3507   -3.4419   -1.8821 H   0  0  0  0  0  0  0  0  0  0  0  0
    2.7364   -5.4744   -1.8532 H   0  0  0  0  0  0  0  0  0  0  0  0
    4.4498   -4.2755    1.9067 H   0  0  0  0  0  0  0  0  0  0  0  0
    3.0628   -2.2283    1.8951 H   0  0  0  0  0  0  0  0  0  0  0  0
    4.3326   -6.6252   -0.7208 H   0  0  0  0  0  0  0  0  0  0  0  0
  1  2  1  0  0  0  0
  1  5  1  0  0  0  0
  2  3  1  0  0  0  0
  3  4  1  0  0  0  0
  3  6  2  0  0  0  0
  4  5  2  0  0  0  0
  4 14  1  0  0  0  0
  5  7  1  0  0  0  0
  7  8  2  0  0  0  0
  7 12  1  0  0  0  0
  8  9  1  0  0  0  0
  8 15  1  0  0  0  0
  9 10  2  0  0  0  0
  9 16  1  0  0  0  0
 10 11  1  0  0  0  0
 10 13  1  0  0  0  0
 11 12  2  0  0  0  0
 11 17  1  0  0  0  0
 12 18  1  0  0  0  0
 13 19  1  0  0  0  0
M  END
>  <Mol_ID>
3815

>  <Formula>
C9H6OS3

>  <MolWeight>
226.33834

>  <Cat>
S6518

>  <Name>
Desmethylanethol trithione

>  <Synonyms>
ADT-OH

>  <Target>
AChR

>  <Form>
free base

>  <CAS>
18274-81-2

>  <URL>
http://www.selleck.cn/products/desmethylanethol-trithione.html

$$$$
