Desmethyl Celecoxib
 OpenBabel08302521313D

 37 39  0  0  0  0  0  0  0  0999 V2000
    1.1181   -0.1587    0.1712 S   0  0  0  0  0  0  0  0  0  0  0  0
    9.8872    1.7903    2.1136 F   0  0  0  0  0  0  0  0  0  0  0  0
   10.9259   -0.0701    1.6483 F   0  0  0  0  0  0  0  0  0  0  0  0
   11.1516    1.6547    0.3385 F   0  0  0  0  0  0  0  0  0  0  0  0
    0.7214   -1.5385    0.3148 O   0  0  0  0  0  0  0  0  0  0  0  0
    0.6566    0.8799    1.0611 O   0  0  0  0  0  0  0  0  0  0  0  0
    7.0751    0.0713   -0.3651 N   0  0  0  0  0  0  0  0  0  0  0  0
    7.8131    0.8546    0.4690 N   0  0  0  0  0  0  0  0  0  0  0  0
    0.6240    0.2989   -1.3699 N   0  0  0  0  0  0  0  0  0  0  0  0
    7.8830   -0.5938   -1.2935 C   0  0  0  0  0  0  0  0  0  0  0  0
    5.6622    0.0034   -0.1870 C   0  0  0  0  0  0  0  0  0  0  0  0
    7.4353   -1.3224   -2.4924 C   0  0  0  0  0  0  0  0  0  0  0  0
    9.1769   -0.3910   -0.8463 C   0  0  0  0  0  0  0  0  0  0  0  0
    9.0875    0.4844    0.2597 C   0  0  0  0  0  0  0  0  0  0  0  0
    4.9673    1.1153    0.3155 C   0  0  0  0  0  0  0  0  0  0  0  0
    4.9598   -1.1671   -0.5088 C   0  0  0  0  0  0  0  0  0  0  0  0
    2.8795   -0.0725    0.0310 C   0  0  0  0  0  0  0  0  0  0  0  0
    3.5708    1.0816    0.4134 C   0  0  0  0  0  0  0  0  0  0  0  0
    3.5706   -1.2032   -0.4085 C   0  0  0  0  0  0  0  0  0  0  0  0
    6.3510   -0.8738   -3.2640 C   0  0  0  0  0  0  0  0  0  0  0  0
    8.0919   -2.4945   -2.8931 C   0  0  0  0  0  0  0  0  0  0  0  0
   10.2469    0.9718    1.0915 C   0  0  0  0  0  0  0  0  0  0  0  0
    5.8742   -1.6255   -4.3404 C   0  0  0  0  0  0  0  0  0  0  0  0
    7.6387   -3.2276   -3.9943 C   0  0  0  0  0  0  0  0  0  0  0  0
    6.5173   -2.8044   -4.7035 C   0  0  0  0  0  0  0  0  0  0  0  0
    0.2109   -0.4997   -1.8533 H   0  0  0  0  0  0  0  0  0  0  0  0
   -0.0045    1.1005   -1.2980 H   0  0  0  0  0  0  0  0  0  0  0  0
   10.0825   -0.7905   -1.2848 H   0  0  0  0  0  0  0  0  0  0  0  0
    5.4981    2.0247    0.5941 H   0  0  0  0  0  0  0  0  0  0  0  0
    5.4732   -2.0720   -0.8235 H   0  0  0  0  0  0  0  0  0  0  0  0
    3.0350    1.9559    0.7770 H   0  0  0  0  0  0  0  0  0  0  0  0
    3.0387   -2.1146   -0.6747 H   0  0  0  0  0  0  0  0  0  0  0  0
    5.8367    0.0534   -3.0194 H   0  0  0  0  0  0  0  0  0  0  0  0
    8.9556   -2.8628   -2.3445 H   0  0  0  0  0  0  0  0  0  0  0  0
    4.9979   -1.2898   -4.8893 H   0  0  0  0  0  0  0  0  0  0  0  0
    8.1559   -4.1367   -4.2907 H   0  0  0  0  0  0  0  0  0  0  0  0
    6.1490   -3.3890   -5.5426 H   0  0  0  0  0  0  0  0  0  0  0  0
  1  5  2  0  0  0  0
  1  6  2  0  0  0  0
  1  9  1  0  0  0  0
  1 17  1  0  0  0  0
  2 22  1  0  0  0  0
  3 22  1  0  0  0  0
  4 22  1  0  0  0  0
  7  8  1  0  0  0  0
  7 10  1  0  0  0  0
  7 11  1  0  0  0  0
  8 14  2  0  0  0  0
  9 26  1  0  0  0  0
  9 27  1  0  0  0  0
 10 12  1  0  0  0  0
 10 13  2  0  0  0  0
 11 15  2  0  0  0  0
 11 16  1  0  0  0  0
 12 20  2  0  0  0  0
 12 21  1  0  0  0  0
 13 14  1  0  0  0  0
 13 28  1  0  0  0  0
 14 22  1  0  0  0  0
 15 18  1  0  0  0  0
 15 29  1  0  0  0  0
 16 19  2  0  0  0  0
 16 30  1  0  0  0  0
 17 18  2  0  0  0  0
 17 19  1  0  0  0  0
 18 31  1  0  0  0  0
 19 32  1  0  0  0  0
 20 23  1  0  0  0  0
 20 33  1  0  0  0  0
 21 24  2  0  0  0  0
 21 34  1  0  0  0  0
 23 25  2  0  0  0  0
 23 35  1  0  0  0  0
 24 25  1  0  0  0  0
 24 36  1  0  0  0  0
 25 37  1  0  0  0  0
M  END
>  <Mol_ID>
5739

>  <Formula>
C16H12F3N3O2S

>  <MolWeight>
367.3455896

>  <Cat>
S0761

>  <Name>
Desmethyl Celecoxib

>  <Synonyms>
N/A

>  <Target>
COX

>  <Form>
Free Base

>  <CAS>
170569-87-6

>  <URL>
http://www.selleckchem.com/products/desmethyl-celecoxib.html

$$$$
