Desoxyrhaponticin
 OpenBabel08302521253D

 53 55  0  0  0  0  0  0  0  0999 V2000
    1.2086    1.1067    0.0678 C   0  0  2  0  0  0  0  0  0  0  0  0
    0.5502    1.2480   -1.1960 O   0  0  0  0  0  0  0  0  0  0  0  0
   -0.4331    0.2326   -1.4345 C   0  0  1  0  0  0  0  0  0  0  0  0
   -1.5403    0.2759   -0.3731 C   0  0  2  0  0  0  0  0  0  0  0  0
   -0.9078    0.1782    1.0236 C   0  0  1  0  0  0  0  0  0  0  0  0
    0.1889    1.2362    1.2175 C   0  0  1  0  0  0  0  0  0  0  0  0
    2.1967    2.1361    0.2010 O   0  0  0  0  0  0  0  0  0  0  0  0
   -0.9960    0.4648   -2.8403 C   0  0  0  0  0  0  0  0  0  0  0  0
   -1.8877    0.2850    2.0628 O   0  0  0  0  0  0  0  0  0  0  0  0
    0.8262    1.0474    2.4907 O   0  0  0  0  0  0  0  0  0  0  0  0
   -2.4783   -0.7789   -0.5946 O   0  0  0  0  0  0  0  0  0  0  0  0
    0.0707    0.4047   -3.7896 O   0  0  0  0  0  0  0  0  0  0  0  0
    3.4679    1.7873   -0.1821 C   0  0  0  0  0  0  0  0  0  0  0  0
    3.7764    0.8351   -1.1550 C   0  0  0  0  0  0  0  0  0  0  0  0
    5.1072    0.5150   -1.3896 C   0  0  0  0  0  0  0  0  0  0  0  0
    6.1331    1.1841   -0.7357 C   0  0  0  0  0  0  0  0  0  0  0  0
    5.8388    2.1998    0.1835 C   0  0  0  0  0  0  0  0  0  0  0  0
    4.4933    2.4766    0.4728 C   0  0  0  0  0  0  0  0  0  0  0  0
    6.9525    2.8974    0.8324 C   0  0  0  0  0  0  0  0  0  0  0  0
    5.4559   -0.4746   -2.2646 O   0  0  0  0  0  0  0  0  0  0  0  0
    6.9224    4.1885    1.1993 C   0  0  0  0  0  0  0  0  0  0  0  0
    8.0743    4.9068    1.7707 C   0  0  0  0  0  0  0  0  0  0  0  0
    9.3880    4.6154    1.3905 C   0  0  0  0  0  0  0  0  0  0  0  0
   10.4663    5.3387    1.9090 C   0  0  0  0  0  0  0  0  0  0  0  0
   10.2404    6.3798    2.8050 C   0  0  0  0  0  0  0  0  0  0  0  0
    8.9327    6.6931    3.1727 C   0  0  0  0  0  0  0  0  0  0  0  0
    7.8529    5.9660    2.6557 C   0  0  0  0  0  0  0  0  0  0  0  0
   11.2039    7.1647    3.3796 O   0  0  0  0  0  0  0  0  0  0  0  0
   12.5541    6.8741    3.0338 C   0  0  0  0  0  0  0  0  0  0  0  0
    1.6738    0.1131    0.1503 H   0  0  0  0  0  0  0  0  0  0  0  0
    0.0729   -0.7422   -1.4299 H   0  0  0  0  0  0  0  0  0  0  0  0
   -2.0999    1.2163   -0.4443 H   0  0  0  0  0  0  0  0  0  0  0  0
   -0.4766   -0.8213    1.1568 H   0  0  0  0  0  0  0  0  0  0  0  0
   -0.2539    2.2403    1.2279 H   0  0  0  0  0  0  0  0  0  0  0  0
   -1.7356   -0.2941   -3.1102 H   0  0  0  0  0  0  0  0  0  0  0  0
   -1.4559    1.4553   -2.9250 H   0  0  0  0  0  0  0  0  0  0  0  0
   -2.2469    1.1914    2.0626 H   0  0  0  0  0  0  0  0  0  0  0  0
    0.3420    0.3558    2.9791 H   0  0  0  0  0  0  0  0  0  0  0  0
   -2.1578   -1.5898   -0.1608 H   0  0  0  0  0  0  0  0  0  0  0  0
    0.6994    1.1019   -3.5200 H   0  0  0  0  0  0  0  0  0  0  0  0
    2.9956    0.3505   -1.7298 H   0  0  0  0  0  0  0  0  0  0  0  0
    7.1645    0.9169   -0.9576 H   0  0  0  0  0  0  0  0  0  0  0  0
    4.2318    3.2193    1.2170 H   0  0  0  0  0  0  0  0  0  0  0  0
    7.8590    2.3056    0.9623 H   0  0  0  0  0  0  0  0  0  0  0  0
    4.6656   -0.9843   -2.4939 H   0  0  0  0  0  0  0  0  0  0  0  0
    6.0238    4.7850    1.0707 H   0  0  0  0  0  0  0  0  0  0  0  0
    9.5966    3.8261    0.6690 H   0  0  0  0  0  0  0  0  0  0  0  0
   11.4641    5.0650    1.5829 H   0  0  0  0  0  0  0  0  0  0  0  0
    8.7462    7.5123    3.8633 H   0  0  0  0  0  0  0  0  0  0  0  0
    6.8475    6.2351    2.9579 H   0  0  0  0  0  0  0  0  0  0  0  0
   12.8314    5.8603    3.3434 H   0  0  0  0  0  0  0  0  0  0  0  0
   12.7260    7.0214    1.9625 H   0  0  0  0  0  0  0  0  0  0  0  0
   13.1971    7.5746    3.5740 H   0  0  0  0  0  0  0  0  0  0  0  0
  1  2  1  0  0  0  0
  1  7  1  0  0  0  0
  1 30  1  1  0  0  0
  2  3  1  0  0  0  0
  3  4  1  0  0  0  0
  3  8  1  0  0  0  0
  3 31  1  1  0  0  0
  4  5  1  0  0  0  0
  4 11  1  0  0  0  0
  4 32  1  6  0  0  0
  5  6  1  0  0  0  0
  5  9  1  0  0  0  0
  5 33  1  1  0  0  0
  6  1  1  0  0  0  0
  6 10  1  0  0  0  0
  6 34  1  6  0  0  0
  7 13  1  0  0  0  0
  8 12  1  0  0  0  0
  8 35  1  0  0  0  0
  8 36  1  0  0  0  0
  9 37  1  0  0  0  0
 10 38  1  0  0  0  0
 11 39  1  0  0  0  0
 12 40  1  0  0  0  0
 13 14  2  0  0  0  0
 14 15  1  0  0  0  0
 14 41  1  0  0  0  0
 15 16  2  0  0  0  0
 15 20  1  0  0  0  0
 16 17  1  0  0  0  0
 16 42  1  0  0  0  0
 17 18  2  0  0  0  0
 17 19  1  0  0  0  0
 18 13  1  0  0  0  0
 18 43  1  0  0  0  0
 19 21  2  0  0  0  0
 19 44  1  0  0  0  0
 20 45  1  0  0  0  0
 21 22  1  0  0  0  0
 21 46  1  0  0  0  0
 22 23  2  0  0  0  0
 23 24  1  0  0  0  0
 23 47  1  0  0  0  0
 24 25  2  0  0  0  0
 24 48  1  0  0  0  0
 25 26  1  0  0  0  0
 25 28  1  0  0  0  0
 26 27  2  0  0  0  0
 26 49  1  0  0  0  0
 27 22  1  0  0  0  0
 27 50  1  0  0  0  0
 28 29  1  0  0  0  0
 29 51  1  0  0  0  0
 29 52  1  0  0  0  0
 29 53  1  0  0  0  0
M  END
>  <Mol_ID>
5170

>  <Formula>
C21H24O8

>  <MolWeight>
404.41046

>  <Cat>
S3300

>  <Name>
Desoxyrhaponticin

>  <Synonyms>
DC, DES

>  <Target>
Apoptosis related,Carbohydrate Metabolism,Fatty Acid Synthase

>  <Form>
free base

>  <CAS>
30197-14-9

>  <URL>
http://www.selleckchem.com/products/desoxyrhaponticin.html

$$$$
