Desvenlafaxine.cdx
 OpenBabel08302522033D

 44 45  0  0  0  0  0  0  0  0999 V2000
    0.4168   -1.4726    0.3390 C   0  0  0  0  0  0  0  0  0  0  0  0
    0.7896   -0.1049   -0.2631 C   0  0  0  0  0  0  0  0  0  0  0  0
    0.2004    0.9967    0.6495 C   0  0  0  0  0  0  0  0  0  0  0  0
   -1.2083    0.8159    1.2177 C   0  0  0  0  0  0  0  0  0  0  0  0
   -1.7493   -0.6042    1.3477 C   0  0  0  0  0  0  0  0  0  0  0  0
   -1.0682   -1.6834    0.5159 C   0  0  0  0  0  0  0  0  0  0  0  0
    0.6735    0.0095   -1.8781 C   0  0  3  0  0  0  0  0  0  0  0  0
    2.2183   -0.0313    0.0533 O   0  0  0  0  0  0  0  0  0  0  0  0
   -0.7245   -0.2276   -2.5781 C   0  0  0  0  0  0  0  0  0  0  0  0
    1.4717    1.1473   -2.5706 C   0  0  0  0  0  0  0  0  0  0  0  0
   -1.9058    0.5782   -2.2313 N   0  0  0  0  0  0  0  0  0  0  0  0
   -1.7592    1.9982   -2.5750 C   0  0  0  0  0  0  0  0  0  0  0  0
   -3.1011    0.0800   -2.9363 C   0  0  0  0  0  0  0  0  0  0  0  0
    2.2342    2.0937   -1.8802 C   0  0  0  0  0  0  0  0  0  0  0  0
    2.9463    3.1078   -2.5434 C   0  0  0  0  0  0  0  0  0  0  0  0
    2.8953    3.2035   -3.9146 C   0  0  0  0  0  0  0  0  0  0  0  0
    2.1842    2.2765   -4.6516 C   0  0  0  0  0  0  0  0  0  0  0  0
    1.5092    1.2424   -3.9955 C   0  0  0  0  0  0  0  0  0  0  0  0
    3.5473    4.1903   -4.5911 O   0  0  0  0  0  0  0  0  0  0  0  0
    0.8574   -2.2757   -0.2439 H   0  0  0  0  0  0  0  0  0  0  0  0
    0.8886   -1.5611    1.3361 H   0  0  0  0  0  0  0  0  0  0  0  0
    0.8511    1.0632    1.5390 H   0  0  0  0  0  0  0  0  0  0  0  0
    0.2900    1.9917    0.2013 H   0  0  0  0  0  0  0  0  0  0  0  0
   -1.9132    1.4317    0.6453 H   0  0  0  0  0  0  0  0  0  0  0  0
   -1.2209    1.2598    2.2204 H   0  0  0  0  0  0  0  0  0  0  0  0
   -2.8221   -0.5981    1.1076 H   0  0  0  0  0  0  0  0  0  0  0  0
   -1.6970   -0.8995    2.4004 H   0  0  0  0  0  0  0  0  0  0  0  0
   -1.5587   -1.7676   -0.4522 H   0  0  0  0  0  0  0  0  0  0  0  0
   -1.2265   -2.6515    1.0113 H   0  0  0  0  0  0  0  0  0  0  0  0
    1.2604   -0.8598   -2.2003 H   0  0  0  0  0  0  0  0  0  0  0  0
    2.6721   -0.7181   -0.4522 H   0  0  0  0  0  0  0  0  0  0  0  0
   -0.6015   -0.1693   -3.6807 H   0  0  0  0  0  0  0  0  0  0  0  0
   -0.9691   -1.2932   -2.4534 H   0  0  0  0  0  0  0  0  0  0  0  0
   -1.4342    2.1634   -3.6091 H   0  0  0  0  0  0  0  0  0  0  0  0
   -2.7175    2.5145   -2.4546 H   0  0  0  0  0  0  0  0  0  0  0  0
   -1.0634    2.4931   -1.8897 H   0  0  0  0  0  0  0  0  0  0  0  0
   -3.0172    0.1742   -4.0250 H   0  0  0  0  0  0  0  0  0  0  0  0
   -3.2948   -0.9708   -2.6880 H   0  0  0  0  0  0  0  0  0  0  0  0
   -3.9881    0.6385   -2.6182 H   0  0  0  0  0  0  0  0  0  0  0  0
    2.3282    2.0660   -0.7985 H   0  0  0  0  0  0  0  0  0  0  0  0
    3.5075    3.8021   -1.9341 H   0  0  0  0  0  0  0  0  0  0  0  0
    2.1544    2.3461   -5.7349 H   0  0  0  0  0  0  0  0  0  0  0  0
    1.0152    0.5134   -4.6296 H   0  0  0  0  0  0  0  0  0  0  0  0
    4.0246    4.7426   -3.9478 H   0  0  0  0  0  0  0  0  0  0  0  0
  1  2  1  0  0  0  0
  1 20  1  0  0  0  0
  1 21  1  0  0  0  0
  2  3  1  0  0  0  0
  2  7  1  0  0  0  0
  2  8  1  0  0  0  0
  3  4  1  0  0  0  0
  3 22  1  0  0  0  0
  3 23  1  0  0  0  0
  4  5  1  0  0  0  0
  4 24  1  0  0  0  0
  4 25  1  0  0  0  0
  5  6  1  0  0  0  0
  5 26  1  0  0  0  0
  5 27  1  0  0  0  0
  6  1  1  0  0  0  0
  6 28  1  0  0  0  0
  6 29  1  0  0  0  0
  7  9  1  0  0  0  0
  7 10  1  0  0  0  0
  7 30  1  0  0  0  0
  8 31  1  0  0  0  0
  9 11  1  0  0  0  0
  9 32  1  0  0  0  0
  9 33  1  0  0  0  0
 10 14  2  0  0  0  0
 11 12  1  0  0  0  0
 11 13  1  0  0  0  0
 12 34  1  0  0  0  0
 12 35  1  0  0  0  0
 12 36  1  0  0  0  0
 13 37  1  0  0  0  0
 13 38  1  0  0  0  0
 13 39  1  0  0  0  0
 14 15  1  0  0  0  0
 14 40  1  0  0  0  0
 15 16  2  0  0  0  0
 15 41  1  0  0  0  0
 16 17  1  0  0  0  0
 16 19  1  0  0  0  0
 17 18  2  0  0  0  0
 17 42  1  0  0  0  0
 18 10  1  0  0  0  0
 18 43  1  0  0  0  0
 19 44  1  0  0  0  0
M  END
>  <Mol_ID>
1225

>  <Formula>
C16H25NO2

>  <MolWeight>
263.3752

>  <Cat>
S4113

>  <Name>
Desvenlafaxine

>  <Synonyms>
WY 45233  Succinate

>  <Target>
Adrenergic Receptor,Serotonin Transporter

>  <Form>
Free Base

>  <CAS>
93413-62-8

>  <URL>
http://selleckchem.com/products/desvenlafaxine.html

$$$$
