Detomidine hydrochloride.cdx
 OpenBabel08302522003D

 28 29  0  0  0  0  0  0  0  0999 V2000
    0.5970   -0.6961   -0.0029 C   0  0  0  0  0  0  0  0  0  0  0  0
   -0.6335   -1.3829   -0.0310 C   0  0  0  0  0  0  0  0  0  0  0  0
   -1.8386   -0.6947   -0.0214 C   0  0  0  0  0  0  0  0  0  0  0  0
   -1.8335    0.6938    0.0112 C   0  0  0  0  0  0  0  0  0  0  0  0
   -0.6283    1.4230    0.0294 C   0  0  0  0  0  0  0  0  0  0  0  0
    0.6058    0.7278    0.0176 C   0  0  0  0  0  0  0  0  0  0  0  0
    1.9362    1.4412    0.0104 C   0  0  0  0  0  0  0  0  0  0  0  0
   -0.7764    2.9222    0.0596 C   0  0  0  0  0  0  0  0  0  0  0  0
    1.8681   -1.5304   -0.0009 C   0  0  0  0  0  0  0  0  0  0  0  0
    2.2134   -1.8240    1.4222 C   0  0  0  0  0  0  0  0  0  0  0  0
    3.4553   -1.4892    1.9264 N   0  0  0  0  0  0  0  0  0  0  0  0
    3.4589   -1.8970    3.1738 C   0  0  0  0  0  0  0  0  0  0  0  0
    2.2774   -2.4921    3.5059 N   0  0  0  0  0  0  0  0  0  0  0  0
    1.4812   -2.4762    2.3966 C   0  0  0  0  0  0  0  0  0  0  0  0
   -0.6511   -2.4706   -0.0543 H   0  0  0  0  0  0  0  0  0  0  0  0
   -2.7793   -1.2372   -0.0390 H   0  0  0  0  0  0  0  0  0  0  0  0
   -2.7864    1.2204    0.0183 H   0  0  0  0  0  0  0  0  0  0  0  0
    2.5161    1.1741    0.8991 H   0  0  0  0  0  0  0  0  0  0  0  0
    2.4980    1.1703   -0.8900 H   0  0  0  0  0  0  0  0  0  0  0  0
    1.8624    2.5278   -0.0002 H   0  0  0  0  0  0  0  0  0  0  0  0
   -1.3343    3.2544   -0.8230 H   0  0  0  0  0  0  0  0  0  0  0  0
   -1.3290    3.2196    0.9578 H   0  0  0  0  0  0  0  0  0  0  0  0
    0.1628    3.4725    0.0684 H   0  0  0  0  0  0  0  0  0  0  0  0
    1.7111   -2.4653   -0.5524 H   0  0  0  0  0  0  0  0  0  0  0  0
    2.6907   -1.0173   -0.5075 H   0  0  0  0  0  0  0  0  0  0  0  0
    4.2752   -1.7909    3.8753 H   0  0  0  0  0  0  0  0  0  0  0  0
    2.0423   -2.8799    4.4104 H   0  0  0  0  0  0  0  0  0  0  0  0
    0.4868   -2.8990    2.3968 H   0  0  0  0  0  0  0  0  0  0  0  0
  1  2  2  0  0  0  0
  1  9  1  0  0  0  0
  2  3  1  0  0  0  0
  2 15  1  0  0  0  0
  3  4  2  0  0  0  0
  3 16  1  0  0  0  0
  4  5  1  0  0  0  0
  4 17  1  0  0  0  0
  5  6  2  0  0  0  0
  5  8  1  0  0  0  0
  6  1  1  0  0  0  0
  6  7  1  0  0  0  0
  7 18  1  0  0  0  0
  7 19  1  0  0  0  0
  7 20  1  0  0  0  0
  8 21  1  0  0  0  0
  8 22  1  0  0  0  0
  8 23  1  0  0  0  0
  9 10  1  0  0  0  0
  9 24  1  0  0  0  0
  9 25  1  0  0  0  0
 10 11  1  0  0  0  0
 11 12  2  0  0  0  0
 12 13  1  0  0  0  0
 12 26  1  0  0  0  0
 13 14  1  0  0  0  0
 13 27  1  0  0  0  0
 14 10  2  0  0  0  0
 14 28  1  0  0  0  0
M  END
>  <Mol_ID>
1084

>  <Formula>
C12H15ClN2

>  <MolWeight>
222.7139

>  <Cat>
S2092

>  <Name>
Detomidine HCl

>  <Synonyms>
MPV 253AII

>  <Target>
Adrenergic Receptor

>  <Form>
HCl

>  <CAS>
90038-01-0

>  <URL>
http://selleckchem.com/products/detomidine-hcl.html

$$$$
