Deucravacitinib (BMS-986165)
 OpenBabel08302521343D

 53 56  0  0  0  0  0  0  0  0999 V2000
    2.4662   -0.2001   -0.0592 O   0  0  0  0  0  0  0  0  0  0  0  0
    2.6137   -1.5081    0.3344 C   0  0  0  0  0  0  0  0  0  0  0  0
    2.4864    2.4915    0.0047 N   0  0  0  0  0  0  0  0  0  0  0  0
    0.9975   -5.0472   -1.7172 C   0  0  0  0  0  0  0  0  0  0  0  0
    2.0819    4.2872    2.4441 C   0  0  0  0  0  0  0  0  0  0  0  0
    1.9608    5.1808    3.4720 N   0  0  0  0  0  0  0  0  0  0  0  0
    1.5249    3.2040    2.5273 O   0  0  0  0  0  0  0  0  0  0  0  0
    1.2247    4.9003    4.6896 C   0  0  0  0  0  0  0  0  0  0  0  0
    5.2136    6.0390   -2.0052 N   0  0  0  0  0  0  0  0  0  0  0  0
    5.8203    7.2621   -2.0239 C   0  0  0  0  0  0  0  0  0  0  0  0
    5.6853    8.0414   -1.0903 O   0  0  0  0  0  0  0  0  0  0  0  0
    1.8256   -0.2711   -2.4861 C   0  0  0  0  0  0  0  0  0  0  0  0
    2.1217    0.3946   -1.2415 C   0  0  0  0  0  0  0  0  0  0  0  0
    1.5751    0.5135   -3.6296 C   0  0  0  0  0  0  0  0  0  0  0  0
    2.1528    1.8122   -1.2154 C   0  0  0  0  0  0  0  0  0  0  0  0
    1.5656    1.8984   -3.5688 C   0  0  0  0  0  0  0  0  0  0  0  0
    1.8423    2.5420   -2.3775 C   0  0  0  0  0  0  0  0  0  0  0  0
    1.7497   -1.7376   -2.7062 C   0  0  0  0  0  0  0  0  0  0  0  0
    2.0243   -2.3350   -3.8896 N   0  0  0  0  0  0  0  0  0  0  0  0
    1.3365   -2.6316   -1.7958 N   0  0  0  0  0  0  0  0  0  0  0  0
    1.8022   -3.6407   -3.6415 C   0  0  0  0  0  0  0  0  0  0  0  0
    1.3754   -3.8100   -2.3800 N   0  0  0  0  0  0  0  0  0  0  0  0
    3.0469    3.8102    0.0824 C   0  0  0  0  0  0  0  0  0  0  0  0
    2.8819    4.6460    1.2250 C   0  0  0  0  0  0  0  0  0  0  0  0
    3.8405    4.2952   -0.9780 C   0  0  0  0  0  0  0  0  0  0  0  0
    3.4656    5.8766    1.2080 N   0  0  0  0  0  0  0  0  0  0  0  0
    4.4074    5.5637   -0.9206 C   0  0  0  0  0  0  0  0  0  0  0  0
    4.1911    6.3183    0.1836 N   0  0  0  0  0  0  0  0  0  0  0  0
    6.6952    7.6450   -3.2006 C   0  0  0  0  0  0  0  0  0  0  0  0
    7.4617    8.9623   -3.1541 C   0  0  0  0  0  0  0  0  0  0  0  0
    6.1269    8.8902   -3.8768 C   0  0  0  0  0  0  0  0  0  0  0  0
    1.9099    5.0001    5.5567 H   0  0  0  0  0  0  0  0  0  0  0  0
    0.3968    5.6301    4.7960 H   0  0  0  0  0  0  0  0  0  0  0  0
    0.7964    3.8763    4.7027 H   0  0  0  0  0  0  0  0  0  0  0  0
    1.6247   -1.9970    0.4360 H   0  0  0  0  0  0  0  0  0  0  0  0
    3.3176   -2.0416   -0.3394 H   0  0  0  0  0  0  0  0  0  0  0  0
    3.0527   -1.5215    1.3519 H   0  0  0  0  0  0  0  0  0  0  0  0
    2.4007    1.9581    0.8764 H   0  0  0  0  0  0  0  0  0  0  0  0
    1.6320   -5.1928   -0.8175 H   0  0  0  0  0  0  0  0  0  0  0  0
   -0.0652   -4.9802   -1.4004 H   0  0  0  0  0  0  0  0  0  0  0  0
    1.1205   -5.9122   -2.4003 H   0  0  0  0  0  0  0  0  0  0  0  0
    2.4045    6.1076    3.4030 H   0  0  0  0  0  0  0  0  0  0  0  0
    5.3618    5.4107   -2.8086 H   0  0  0  0  0  0  0  0  0  0  0  0
    1.3483    0.0530   -4.5835 H   0  0  0  0  0  0  0  0  0  0  0  0
    1.3392    2.4808   -4.4534 H   0  0  0  0  0  0  0  0  0  0  0  0
    1.8087    3.6228   -2.3710 H   0  0  0  0  0  0  0  0  0  0  0  0
    1.9416   -4.4355   -4.3617 H   0  0  0  0  0  0  0  0  0  0  0  0
    4.0460    3.6824   -1.8451 H   0  0  0  0  0  0  0  0  0  0  0  0
    6.8263    6.9175   -4.0311 H   0  0  0  0  0  0  0  0  0  0  0  0
    7.4949    9.3019   -2.0971 H   0  0  0  0  0  0  0  0  0  0  0  0
    8.4082    8.7403   -3.6898 H   0  0  0  0  0  0  0  0  0  0  0  0
    6.3920    9.1140   -4.9326 H   0  0  0  0  0  0  0  0  0  0  0  0
    5.4858    9.6098   -3.3225 H   0  0  0  0  0  0  0  0  0  0  0  0
  1  2  1  0  0  0  0
  1 13  1  0  0  0  0
  2 35  1  0  0  0  0
  2 36  1  0  0  0  0
  2 37  1  0  0  0  0
  3 15  1  0  0  0  0
  3 23  1  0  0  0  0
  3 38  1  0  0  0  0
  4 22  1  0  0  0  0
  4 39  1  0  0  0  0
  4 40  1  0  0  0  0
  4 41  1  0  0  0  0
  5  6  1  0  0  0  0
  5  7  2  0  0  0  0
  5 24  1  0  0  0  0
  6  8  1  0  0  0  0
  6 42  1  0  0  0  0
  8 32  1  0  0  0  0
  8 33  1  0  0  0  0
  8 34  1  0  0  0  0
  9 10  1  0  0  0  0
  9 27  1  0  0  0  0
  9 43  1  0  0  0  0
 10 11  2  0  0  0  0
 10 29  1  0  0  0  0
 12 13  2  0  0  0  0
 12 14  1  0  0  0  0
 12 18  1  0  0  0  0
 13 15  1  0  0  0  0
 14 16  2  0  0  0  0
 14 44  1  0  0  0  0
 15 17  2  0  0  0  0
 16 17  1  0  0  0  0
 16 45  1  0  0  0  0
 17 46  1  0  0  0  0
 18 19  1  0  0  0  0
 18 20  2  0  0  0  0
 19 21  2  0  0  0  0
 20 22  1  0  0  0  0
 21 22  1  0  0  0  0
 21 47  1  0  0  0  0
 23 24  2  0  0  0  0
 23 25  1  0  0  0  0
 24 26  1  0  0  0  0
 25 27  2  0  0  0  0
 25 48  1  0  0  0  0
 26 28  2  0  0  0  0
 27 28  1  0  0  0  0
 29 30  1  0  0  0  0
 29 31  1  0  0  0  0
 29 49  1  0  0  0  0
 30 31  1  0  0  0  0
 30 50  1  0  0  0  0
 30 51  1  0  0  0  0
 31 52  1  0  0  0  0
 31 53  1  0  0  0  0
M  ISO  3  32   2  33   2  34   2
M  END
>  <Mol_ID>
6577

>  <Formula>
C20H19D3N8O3

>  <MolWeight>
425.458965334

>  <Cat>
S8879

>  <Name>
Deucravacitinib (BMS-986165)

>  <Synonyms>
N/A

>  <Target>
IFN,Interleukins,JAK

>  <Form>
free base

>  <CAS>
1609392-27-9

>  <URL>
http://www.selleckchem.com/products/bms-986165.html

$$$$
