Dexamethasone.cdx
 OpenBabel08302520142D

 57 60  0  0  0  0  0  0  0  0999 V2000
    1.2082    2.1000    0.0000 C   0  0  0  0  0  0  0  0  0  0  0  0
    1.2082    0.7000    0.0000 C   0  0  0  0  0  0  0  0  0  0  0  0
    2.4207    0.0000    0.0000 C   0  0  0  0  0  0  0  0  0  0  0  0
    3.6331    0.7000    0.0000 C   0  0  0  0  0  0  0  0  0  0  0  0
    3.6331    2.1000    0.0000 C   0  0  2  0  0  0  0  0  0  0  0  0
    2.4207    2.8000    0.0000 C   0  0  0  0  0  0  0  0  0  0  0  0
    4.8455    0.0000    0.0000 C   0  0  0  0  0  0  0  0  0  0  0  0
    6.0580    0.7000    0.0000 C   0  0  0  0  0  0  0  0  0  0  0  0
    6.0580    2.1000    0.0000 C   0  0  2  0  0  0  0  0  0  0  0  0
    4.8455    2.8000    0.0000 C   0  0  2  0  0  0  0  0  0  0  0  0
    7.2704    2.8000    0.0000 C   0  0  1  0  0  0  0  0  0  0  0  0
    7.2704    4.2000    0.0000 C   0  0  2  0  0  0  0  0  0  0  0  0
    6.0580    4.9000    0.0000 C   0  0  0  0  0  0  0  0  0  0  0  0
    4.8455    4.2000    0.0000 C   0  0  2  0  0  0  0  0  0  0  0  0
    8.6019    2.3674    0.0000 C   0  0  0  0  0  0  0  0  0  0  0  0
    9.4248    3.5000    0.0000 C   0  0  2  0  0  0  0  0  0  0  0  0
    8.6019    4.6326    0.0000 C   0  0  2  0  0  0  0  0  0  0  0  0
    0.0000    0.0024    0.0000 O   0  0  0  0  0  0  0  0  0  0  0  0
    3.6331    3.4951    0.0000 C   0  0  0  0  0  0  0  0  0  0  0  0
    3.6373    4.8976    0.0000 O   0  0  0  0  0  0  0  0  0  0  0  0
    7.4162    5.5875    0.0000 C   0  0  0  0  0  0  0  0  0  0  0  0
    8.2395    5.9849    0.0000 C   0  0  0  0  0  0  0  0  0  0  0  0
    4.8455    1.4000    0.0000 F   0  0  0  0  0  0  0  0  0  0  0  0
   10.8248    3.5000    0.0000 C   0  0  0  0  0  0  0  0  0  0  0  0
    9.8143    5.3326    0.0000 O   0  0  0  0  0  0  0  0  0  0  0  0
    6.8919    6.3460    0.0000 O   0  0  0  0  0  0  0  0  0  0  0  0
    9.2261    6.9714    0.0000 C   0  0  0  0  0  0  0  0  0  0  0  0
    8.8650    8.3190    0.0000 O   0  0  0  0  0  0  0  0  0  0  0  0
    0.3145    2.6160    0.0000 H   0  0  0  0  0  0  0  0  0  0  0  0
    2.4207   -1.0320    0.0000 H   0  0  0  0  0  0  0  0  0  0  0  0
    2.4207    3.8320    0.0000 H   0  0  0  0  0  0  0  0  0  0  0  0
    4.8455   -1.0700    0.0000 H   0  0  0  0  0  0  0  0  0  0  0  0
    5.7721   -0.5350    0.0000 H   0  0  0  0  0  0  0  0  0  0  0  0
    6.9846    0.1650    0.0000 H   0  0  0  0  0  0  0  0  0  0  0  0
    6.9847    1.2350    0.0000 H   0  0  0  0  0  0  0  0  0  0  0  0
    5.1314    1.5650    0.0000 H   0  0  0  0  0  0  0  0  0  0  0  0
    7.3823    1.7359    0.0000 H   0  0  0  0  0  0  0  0  0  0  0  0
    6.0580    5.9700    0.0000 H   0  0  0  0  0  0  0  0  0  0  0  0
    5.1314    5.4350    0.0000 H   0  0  0  0  0  0  0  0  0  0  0  0
    4.8455    5.2700    0.0000 H   0  0  0  0  0  0  0  0  0  0  0  0
    8.9326    1.3498    0.0000 H   0  0  0  0  0  0  0  0  0  0  0  0
    9.6587    2.2000    0.0000 H   0  0  0  0  0  0  0  0  0  0  0  0
    9.9106    2.5466    0.0000 H   0  0  0  0  0  0  0  0  0  0  0  0
    4.5597    4.0301    0.0000 H   0  0  0  0  0  0  0  0  0  0  0  0
    2.7065    4.0301    0.0000 H   0  0  0  0  0  0  0  0  0  0  0  0
    3.6331    4.5651    0.0000 H   0  0  0  0  0  0  0  0  0  0  0  0
    3.6373    5.8676    0.0000 H   0  0  0  0  0  0  0  0  0  0  0  0
    8.3937    6.0227    0.0000 H   0  0  0  0  0  0  0  0  0  0  0  0
    6.5505    6.2164    0.0000 H   0  0  0  0  0  0  0  0  0  0  0  0
    7.5280    6.6516    0.0000 H   0  0  0  0  0  0  0  0  0  0  0  0
   11.3598    2.5734    0.0000 H   0  0  0  0  0  0  0  0  0  0  0  0
   11.3598    4.4266    0.0000 H   0  0  0  0  0  0  0  0  0  0  0  0
   11.8948    3.5000    0.0000 H   0  0  0  0  0  0  0  0  0  0  0  0
   10.6544    4.8476    0.0000 H   0  0  0  0  0  0  0  0  0  0  0  0
   10.2596    6.6944    0.0000 H   0  0  0  0  0  0  0  0  0  0  0  0
    9.9827    7.7280    0.0000 H   0  0  0  0  0  0  0  0  0  0  0  0
    9.5509    9.0049    0.0000 H   0  0  0  0  0  0  0  0  0  0  0  0
  1  2  1  0  0  0  0
  1 29  1  0  0  0  0
  2  3  1  0  0  0  0
  2 18  2  0  0  0  0
  3  4  2  0  0  0  0
  3 30  1  0  0  0  0
  4  5  1  0  0  0  0
  4  7  1  0  0  0  0
  5  6  1  0  0  0  0
  5 19  1  1  0  0  0
  6  1  2  0  0  0  0
  6 31  1  0  0  0  0
  7  8  1  0  0  0  0
  7 32  1  0  0  0  0
  7 33  1  0  0  0  0
  8 34  1  0  0  0  0
  8 35  1  0  0  0  0
  9  8  1  0  0  0  0
  9 10  1  0  0  0  0
  9 11  1  0  0  0  0
  9 36  1  1  0  0  0
 10  5  1  0  0  0  0
 10 23  1  6  0  0  0
 11 12  1  0  0  0  0
 11 15  1  0  0  0  0
 11 37  1  6  0  0  0
 12 13  1  0  0  0  0
 12 21  1  1  0  0  0
 13 14  1  0  0  0  0
 13 38  1  0  0  0  0
 13 39  1  0  0  0  0
 14 10  1  0  0  0  0
 14 20  1  0  0  0  0
 14 40  1  6  0  0  0
 15 16  1  0  0  0  0
 15 41  1  0  0  0  0
 15 42  1  0  0  0  0
 16 17  1  0  0  0  0
 16 24  1  0  0  0  0
 16 43  1  1  0  0  0
 17 12  1  0  0  0  0
 17 22  1  1  0  0  0
 17 25  1  0  0  0  0
 19 44  1  0  0  0  0
 19 45  1  0  0  0  0
 19 46  1  0  0  0  0
 20 47  1  0  0  0  0
 21 48  1  0  0  0  0
 21 49  1  0  0  0  0
 21 50  1  0  0  0  0
 22 26  2  0  0  0  0
 22 27  1  0  0  0  0
 24 51  1  0  0  0  0
 24 52  1  0  0  0  0
 24 53  1  0  0  0  0
 25 54  1  0  0  0  0
 27 28  1  0  0  0  0
 27 55  1  0  0  0  0
 27 56  1  0  0  0  0
 28 57  1  0  0  0  0
M  END
>  <Mol_ID>
204

>  <Formula>
C22H29FO5

>  <MolWeight>
392.4610632

>  <Cat>
S1322

>  <Name>
Dexamethasone (MK-125)

>  <Synonyms>
NSC 34521, Hexadecadrol, Prednisolone F,MK-125

>  <Target>
Autophagy,Complement System,COVID-19,Glucocorticoid Receptor,IL Receptor,Mitophagy

>  <Form>
free base

>  <CAS>
50-02-2

>  <URL>
http://selleckchem.com/products/Dexamethasone.html

$$$$
