Dexlansoprazole.cdx
 OpenBabel08302522043D

 39 41  0  0  0  0  0  0  0  0999 V2000
    0.3899    1.2432   -0.5308 C   0  0  0  0  0  0  0  0  0  0  0  0
   -0.9629    1.2555   -0.1883 C   0  0  0  0  0  0  0  0  0  0  0  0
   -1.5562    0.0784    0.2226 C   0  0  0  0  0  0  0  0  0  0  0  0
   -0.8921   -1.0859    0.3463 N   0  0  0  0  0  0  0  0  0  0  0  0
    0.3942   -1.1308   -0.0772 C   0  0  0  0  0  0  0  0  0  0  0  0
    1.0825    0.0193   -0.5581 C   0  0  0  0  0  0  0  0  0  0  0  0
    2.4710   -0.1443   -1.0968 C   0  0  0  0  0  0  0  0  0  0  0  0
    1.1193   -2.4464    0.1206 C   0  0  0  0  0  0  0  0  0  0  0  0
    0.8598    2.4832   -0.8844 O   0  0  0  0  0  0  0  0  0  0  0  0
    2.1966    2.8362   -0.5057 C   0  0  0  0  0  0  0  0  0  0  0  0
    2.3554    4.3056   -0.1150 C   0  0  0  0  0  0  0  0  0  0  0  0
    1.1937    4.9900   -0.1172 F   0  0  0  0  0  0  0  0  0  0  0  0
    2.8929    4.4148    1.1239 F   0  0  0  0  0  0  0  0  0  0  0  0
    3.2019    4.9355   -0.9666 F   0  0  0  0  0  0  0  0  0  0  0  0
    0.1252   -3.9633    0.0238 S   0  0  3  0  0  0  0  0  0  0  0  0
   -0.2555   -3.9438   -1.6688 C   0  0  0  0  0  0  0  0  0  0  0  0
    1.0452   -5.1439    0.2038 O   0  0  0  0  0  0  0  0  0  0  0  0
   -0.9582   -3.0151   -2.2752 N   0  0  0  0  0  0  0  0  0  0  0  0
   -1.0848   -3.4420   -3.5712 C   0  0  0  0  0  0  0  0  0  0  0  0
   -0.4138   -4.6439   -3.7708 C   0  0  0  0  0  0  0  0  0  0  0  0
    0.0945   -4.9495   -2.5332 N   0  0  0  0  0  0  0  0  0  0  0  0
   -1.7677   -2.8471   -4.6406 C   0  0  0  0  0  0  0  0  0  0  0  0
   -1.7298   -3.4737   -5.8909 C   0  0  0  0  0  0  0  0  0  0  0  0
   -1.0315   -4.6715   -6.0686 C   0  0  0  0  0  0  0  0  0  0  0  0
   -0.3619   -5.2931   -5.0059 C   0  0  0  0  0  0  0  0  0  0  0  0
   -1.5425    2.1685   -0.2297 H   0  0  0  0  0  0  0  0  0  0  0  0
   -2.6115    0.0400    0.4786 H   0  0  0  0  0  0  0  0  0  0  0  0
    3.1763   -0.3335   -0.2816 H   0  0  0  0  0  0  0  0  0  0  0  0
    2.5093   -0.9721   -1.8123 H   0  0  0  0  0  0  0  0  0  0  0  0
    2.8166    0.7111   -1.6723 H   0  0  0  0  0  0  0  0  0  0  0  0
    1.9466   -2.5825   -0.5789 H   0  0  0  0  0  0  0  0  0  0  0  0
    1.5476   -2.4280    1.1294 H   0  0  0  0  0  0  0  0  0  0  0  0
    2.5636    2.2131    0.3181 H   0  0  0  0  0  0  0  0  0  0  0  0
    2.8294    2.6814   -1.3839 H   0  0  0  0  0  0  0  0  0  0  0  0
    0.6209   -5.7722   -2.2717 H   0  0  0  0  0  0  0  0  0  0  0  0
   -2.3123   -1.9220   -4.4882 H   0  0  0  0  0  0  0  0  0  0  0  0
   -2.2510   -3.0211   -6.7309 H   0  0  0  0  0  0  0  0  0  0  0  0
   -1.0129   -5.1336   -7.0541 H   0  0  0  0  0  0  0  0  0  0  0  0
    0.1653   -6.2301   -5.1450 H   0  0  0  0  0  0  0  0  0  0  0  0
  1  2  2  0  0  0  0
  1  9  1  0  0  0  0
  2  3  1  0  0  0  0
  2 26  1  0  0  0  0
  3  4  2  0  0  0  0
  3 27  1  0  0  0  0
  4  5  1  0  0  0  0
  5  6  2  0  0  0  0
  5  8  1  0  0  0  0
  6  1  1  0  0  0  0
  6  7  1  0  0  0  0
  7 28  1  0  0  0  0
  7 29  1  0  0  0  0
  7 30  1  0  0  0  0
  8 31  1  0  0  0  0
  8 32  1  0  0  0  0
  9 10  1  0  0  0  0
 10 11  1  0  0  0  0
 10 33  1  0  0  0  0
 10 34  1  0  0  0  0
 11 12  1  0  0  0  0
 11 13  1  0  0  0  0
 11 14  1  0  0  0  0
 15  8  1  0  0  0  0
 15 16  1  0  0  0  0
 15 17  2  0  0  0  0
 16 18  2  0  0  0  0
 18 19  1  0  0  0  0
 19 20  2  0  0  0  0
 19 22  1  0  0  0  0
 20 21  1  0  0  0  0
 21 16  1  0  0  0  0
 21 35  1  0  0  0  0
 22 23  2  0  0  0  0
 22 36  1  0  0  0  0
 23 24  1  0  0  0  0
 23 37  1  0  0  0  0
 24 25  2  0  0  0  0
 24 38  1  0  0  0  0
 25 20  1  0  0  0  0
 25 39  1  0  0  0  0
M  END
>  <Mol_ID>
1282

>  <Formula>
C16H14F3N3O2S

>  <MolWeight>
369.3614696

>  <Cat>
S4099

>  <Name>
Dexlansoprazole

>  <Synonyms>
T 168390, TAK 390,(R)-Lansoprazole

>  <Target>
ATPase,Proton Pump

>  <Form>
free base

>  <CAS>
138530-94-6

>  <URL>
http://selleckchem.com/products/dexlansoprazole.html

$$$$
