Dexmedetomidine hydrochloride.cdx
 OpenBabel08302522023D

 31 32  0  0  0  0  0  0  0  0999 V2000
   -1.7395   -0.7622   -0.0138 C   0  0  0  0  0  0  0  0  0  0  0  0
   -0.4763   -1.3858   -0.0234 C   0  0  0  0  0  0  0  0  0  0  0  0
    0.6883   -0.5713    0.0495 C   0  0  0  0  0  0  0  0  0  0  0  0
    0.5502    0.8428    0.0476 C   0  0  0  0  0  0  0  0  0  0  0  0
   -0.7275    1.4187    0.0368 C   0  0  0  0  0  0  0  0  0  0  0  0
   -1.8635    0.6242    0.0142 C   0  0  0  0  0  0  0  0  0  0  0  0
    1.7422    1.7656    0.0395 C   0  0  0  0  0  0  0  0  0  0  0  0
    2.0714   -1.1817    0.0608 C   0  0  0  0  0  0  0  0  0  0  0  0
   -0.4086   -2.9262   -0.0795 C   0  0  1  0  0  0  0  0  0  0  0  0
   -0.5039   -3.5789    1.2782 C   0  0  0  0  0  0  0  0  0  0  0  0
   -0.5695   -2.8860    2.4650 N   0  0  0  0  0  0  0  0  0  0  0  0
   -0.6318   -3.7941    3.4826 C   0  0  0  0  0  0  0  0  0  0  0  0
   -0.5924   -5.0241    3.0288 N   0  0  0  0  0  0  0  0  0  0  0  0
   -0.5037   -4.9052    1.6662 C   0  0  0  0  0  0  0  0  0  0  0  0
   -1.4488   -3.5242   -1.0487 C   0  0  0  0  0  0  0  0  0  0  0  0
   -2.6546   -1.3477   -0.0349 H   0  0  0  0  0  0  0  0  0  0  0  0
   -0.8449    2.5006    0.0387 H   0  0  0  0  0  0  0  0  0  0  0  0
   -2.8494    1.0819    0.0031 H   0  0  0  0  0  0  0  0  0  0  0  0
    2.3246    1.6490    0.9581 H   0  0  0  0  0  0  0  0  0  0  0  0
    2.3737    1.5589   -0.8306 H   0  0  0  0  0  0  0  0  0  0  0  0
    1.4389    2.8168   -0.0233 H   0  0  0  0  0  0  0  0  0  0  0  0
    2.1141   -2.0669    0.7018 H   0  0  0  0  0  0  0  0  0  0  0  0
    2.3700   -1.4459   -0.9579 H   0  0  0  0  0  0  0  0  0  0  0  0
    2.8222   -0.4971    0.4668 H   0  0  0  0  0  0  0  0  0  0  0  0
    0.5632   -3.2083   -0.5039 H   0  0  0  0  0  0  0  0  0  0  0  0
   -0.5618   -1.8781    2.5690 H   0  0  0  0  0  0  0  0  0  0  0  0
   -0.6998   -3.4999    4.5201 H   0  0  0  0  0  0  0  0  0  0  0  0
   -0.4426   -5.7842    1.0380 H   0  0  0  0  0  0  0  0  0  0  0  0
   -1.3850   -3.0456   -2.0331 H   0  0  0  0  0  0  0  0  0  0  0  0
   -1.2839   -4.5977   -1.1931 H   0  0  0  0  0  0  0  0  0  0  0  0
   -2.4775   -3.4137   -0.6863 H   0  0  0  0  0  0  0  0  0  0  0  0
  1  2  2  0  0  0  0
  1 16  1  0  0  0  0
  2  3  1  0  0  0  0
  2  9  1  0  0  0  0
  3  4  2  0  0  0  0
  3  8  1  0  0  0  0
  4  5  1  0  0  0  0
  4  7  1  0  0  0  0
  5  6  2  0  0  0  0
  5 17  1  0  0  0  0
  6  1  1  0  0  0  0
  6 18  1  0  0  0  0
  7 19  1  0  0  0  0
  7 20  1  0  0  0  0
  7 21  1  0  0  0  0
  8 22  1  0  0  0  0
  8 23  1  0  0  0  0
  8 24  1  0  0  0  0
  9 10  1  0  0  0  0
  9 15  1  0  0  0  0
  9 25  1  6  0  0  0
 10 11  1  0  0  0  0
 11 12  1  0  0  0  0
 11 26  1  0  0  0  0
 12 13  2  0  0  0  0
 12 27  1  0  0  0  0
 13 14  1  0  0  0  0
 14 10  2  0  0  0  0
 14 28  1  0  0  0  0
 15 29  1  0  0  0  0
 15 30  1  0  0  0  0
 15 31  1  0  0  0  0
M  END
>  <Mol_ID>
1142

>  <Formula>
C13H17ClN2

>  <MolWeight>
236.74048

>  <Cat>
S2090

>  <Name>
Dexmedetomidine HCl

>  <Synonyms>
(+)-Medetomidine Hydrochloride

>  <Target>
Adrenergic Receptor

>  <Form>
HCl

>  <CAS>
145108-58-3

>  <URL>
http://selleckchem.com/products/dexmedetomidine-hcl-precedex.html

$$$$
