Dexrazoxane Hydrochloride.cdx
 OpenBabel08302522003D

 35 36  0  0  0  0  0  0  0  0999 V2000
    1.0823    4.3014    3.6007 N   0  0  0  0  0  0  0  0  0  0  0  0
    0.4306    3.5744    4.5668 C   0  0  0  0  0  0  0  0  0  0  0  0
   -0.8594    2.8919    4.1268 C   0  0  0  0  0  0  0  0  0  0  0  0
   -0.8506    2.5021    2.6958 N   0  0  0  0  0  0  0  0  0  0  0  0
   -0.6742    3.7820    1.9425 C   0  0  0  0  0  0  0  0  0  0  0  0
    0.6491    4.4726    2.3064 C   0  0  0  0  0  0  0  0  0  0  0  0
    1.2735    5.1705    1.5159 O   0  0  0  0  0  0  0  0  0  0  0  0
    0.8395    3.5433    5.7254 O   0  0  0  0  0  0  0  0  0  0  0  0
    0.1820    1.5074    2.2570 C   0  0  0  0  0  0  0  0  0  0  0  0
    0.1339   -0.0046    2.7268 C   0  0  1  0  0  0  0  0  0  0  0  0
    1.1204   -0.9013    2.0570 N   0  0  0  0  0  0  0  0  0  0  0  0
    2.5394   -0.5186    1.9649 C   0  0  0  0  0  0  0  0  0  0  0  0
    3.4044   -0.9977    3.1249 C   0  0  0  0  0  0  0  0  0  0  0  0
    2.9332   -2.0506    3.8615 N   0  0  0  0  0  0  0  0  0  0  0  0
    1.7872   -2.7586    3.6077 C   0  0  0  0  0  0  0  0  0  0  0  0
    0.9791   -2.3369    2.3785 C   0  0  0  0  0  0  0  0  0  0  0  0
    0.1352   -0.1477    4.2441 C   0  0  0  0  0  0  0  0  0  0  0  0
    1.4652   -3.7056    4.3212 O   0  0  0  0  0  0  0  0  0  0  0  0
    4.5229   -0.5329    3.3500 O   0  0  0  0  0  0  0  0  0  0  0  0
    1.9437    4.7504    3.8661 H   0  0  0  0  0  0  0  0  0  0  0  0
   -1.6732    3.6111    4.2996 H   0  0  0  0  0  0  0  0  0  0  0  0
   -1.0862    2.0713    4.7988 H   0  0  0  0  0  0  0  0  0  0  0  0
   -1.4881    4.4806    2.1843 H   0  0  0  0  0  0  0  0  0  0  0  0
   -0.7167    3.6056    0.8633 H   0  0  0  0  0  0  0  0  0  0  0  0
    0.0868    1.4608    1.1619 H   0  0  0  0  0  0  0  0  0  0  0  0
    1.1825    1.9048    2.4560 H   0  0  0  0  0  0  0  0  0  0  0  0
   -0.8466   -0.3611    2.3790 H   0  0  0  0  0  0  0  0  0  0  0  0
    2.9607   -0.9846    1.0637 H   0  0  0  0  0  0  0  0  0  0  0  0
    2.6813    0.5577    1.8462 H   0  0  0  0  0  0  0  0  0  0  0  0
    3.5104   -2.3738    4.6264 H   0  0  0  0  0  0  0  0  0  0  0  0
    1.3332   -2.9418    1.5381 H   0  0  0  0  0  0  0  0  0  0  0  0
   -0.0745   -2.5935    2.5433 H   0  0  0  0  0  0  0  0  0  0  0  0
   -0.7994    0.2263    4.6581 H   0  0  0  0  0  0  0  0  0  0  0  0
    0.1351   -1.1870    4.5721 H   0  0  0  0  0  0  0  0  0  0  0  0
    0.9856    0.3671    4.6987 H   0  0  0  0  0  0  0  0  0  0  0  0
  1  2  1  0  0  0  0
  1 20  1  0  0  0  0
  2  3  1  0  0  0  0
  2  8  2  0  0  0  0
  3  4  1  0  0  0  0
  3 21  1  0  0  0  0
  3 22  1  0  0  0  0
  4  5  1  0  0  0  0
  4  9  1  0  0  0  0
  5  6  1  0  0  0  0
  5 23  1  0  0  0  0
  5 24  1  0  0  0  0
  6  1  1  0  0  0  0
  6  7  2  0  0  0  0
  9 10  1  0  0  0  0
  9 25  1  0  0  0  0
  9 26  1  0  0  0  0
 10 11  1  0  0  0  0
 10 17  1  0  0  0  0
 10 27  1  6  0  0  0
 11 12  1  0  0  0  0
 12 13  1  0  0  0  0
 12 28  1  0  0  0  0
 12 29  1  0  0  0  0
 13 14  1  0  0  0  0
 13 19  2  0  0  0  0
 14 15  1  0  0  0  0
 14 30  1  0  0  0  0
 15 16  1  0  0  0  0
 15 18  2  0  0  0  0
 16 11  1  0  0  0  0
 16 31  1  0  0  0  0
 16 32  1  0  0  0  0
 17 33  1  0  0  0  0
 17 34  1  0  0  0  0
 17 35  1  0  0  0  0
M  END
>  <Mol_ID>
126

>  <Formula>
C11H17ClN4O4

>  <MolWeight>
304.73008

>  <Cat>
S1222

>  <Name>
Dexrazoxane HCl (ICRF-187)

>  <Synonyms>
ADR-529,Totect, ICRF-187, Zinecard, Cardioxane

>  <Target>
Topoisomerase

>  <Form>
Hydrochloride

>  <CAS>
149003-01-0

>  <URL>
http://selleckchem.com/products/Dexrazoxane-Hydrochloride.html

$$$$
