dextrose.cdx
 OpenBabel08302521323D

 24 23  0  0  0  0  0  0  0  0999 V2000
   -0.1359    2.9908   -1.2395 O   0  0  0  0  0  0  0  0  0  0  0  0
    0.6022    2.3423   -0.1998 C   0  0  0  0  0  0  0  0  0  0  0  0
    0.4327    3.1143    1.1195 C   0  0  2  0  0  0  0  0  0  0  0  0
   -1.0057    3.2034    1.6903 C   0  0  2  0  0  0  0  0  0  0  0  0
   -1.5870    1.8624    2.1754 C   0  0  1  0  0  0  0  0  0  0  0  0
   -3.0007    1.9754    2.7845 C   0  0  2  0  0  0  0  0  0  0  0  0
   -3.0797    2.8541    4.0146 C   0  0  0  0  0  0  0  0  0  0  0  0
    0.8588    4.4707    0.8733 O   0  0  0  0  0  0  0  0  0  0  0  0
   -1.8865    3.7720    0.7014 O   0  0  0  0  0  0  0  0  0  0  0  0
   -1.6692    0.9450    1.0685 O   0  0  0  0  0  0  0  0  0  0  0  0
   -3.4794    0.6856    3.1869 O   0  0  0  0  0  0  0  0  0  0  0  0
   -2.1123    3.3737    4.5626 O   0  0  0  0  0  0  0  0  0  0  0  0
   -1.0584    3.0620   -0.9199 H   0  0  0  0  0  0  0  0  0  0  0  0
    0.3097    1.2932   -0.1388 H   0  0  0  0  0  0  0  0  0  0  0  0
    1.6530    2.3699   -0.5077 H   0  0  0  0  0  0  0  0  0  0  0  0
    1.1017    2.6907    1.8791 H   0  0  0  0  0  0  0  0  0  0  0  0
   -0.9781    3.9200    2.5186 H   0  0  0  0  0  0  0  0  0  0  0  0
   -0.9034    1.4081    2.9025 H   0  0  0  0  0  0  0  0  0  0  0  0
   -3.7132    2.3560    2.0435 H   0  0  0  0  0  0  0  0  0  0  0  0
   -4.0987    3.0006    4.4118 H   0  0  0  0  0  0  0  0  0  0  0  0
    0.7189    4.6255   -0.0837 H   0  0  0  0  0  0  0  0  0  0  0  0
   -1.6204    4.7164    0.6519 H   0  0  0  0  0  0  0  0  0  0  0  0
   -2.3121    1.3237    0.4387 H   0  0  0  0  0  0  0  0  0  0  0  0
   -2.7250    0.1909    3.5547 H   0  0  0  0  0  0  0  0  0  0  0  0
  1  2  1  0  0  0  0
  1 13  1  0  0  0  0
  2 14  1  0  0  0  0
  2 15  1  0  0  0  0
  3  8  1  0  0  0  0
  3 16  1  1  0  0  0
  3  4  1  0  0  0  0
  3  2  1  0  0  0  0
  4 17  1  1  0  0  0
  4  9  1  0  0  0  0
  4  5  1  0  0  0  0
  5 10  1  0  0  0  0
  5 18  1  1  0  0  0
  6 11  1  0  0  0  0
  6 19  1  6  0  0  0
  6  7  1  0  0  0  0
  6  5  1  0  0  0  0
  7 12  2  0  0  0  0
  7 20  1  0  0  0  0
  8 21  1  0  0  0  0
  9 22  1  0  0  0  0
 10 23  1  0  0  0  0
 11 24  1  0  0  0  0
M  END
>  <Mol_ID>
601

>  <Formula>
C6H12O6

>  <MolWeight>
180.15588

>  <Cat>
S2123

>  <Name>
Dextrose

>  <Synonyms>
D-glucose

>  <Target>
Others

>  <Form>
free base

>  <CAS>
50-99-7

>  <URL>
http://selleckchem.com/products/Dextrose(D-glucose).html

$$$$
