DFHBI
 OpenBabel08302521313D

 28 29  0  0  0  0  0  0  0  0999 V2000
   -2.0383   -0.6704   -1.0567 F   0  0  0  0  0  0  0  0  0  0  0  0
    2.0373   -0.4824    1.3293 F   0  0  0  0  0  0  0  0  0  0  0  0
   -0.0074    6.6028   -0.3284 O   0  0  0  0  0  0  0  0  0  0  0  0
    0.0050   -1.9792    0.2210 O   0  0  0  0  0  0  0  0  0  0  0  0
    1.1346    6.0862   -2.3023 N   0  0  0  0  0  0  0  0  0  0  0  0
    1.1349    3.8419   -2.1851 N   0  0  0  0  0  0  0  0  0  0  0  0
    0.4878    4.3397   -1.0765 C   0  0  0  0  0  0  0  0  0  0  0  0
    1.4822    4.9028   -2.8511 C   0  0  0  0  0  0  0  0  0  0  0  0
    0.4753    5.8301   -1.1325 C   0  0  0  0  0  0  0  0  0  0  0  0
   -0.0612    3.6461   -0.0738 C   0  0  0  0  0  0  0  0  0  0  0  0
   -0.0424    2.1840   -0.0087 C   0  0  0  0  0  0  0  0  0  0  0  0
    1.3743    7.4252   -2.7911 C   0  0  0  0  0  0  0  0  0  0  0  0
    2.2203    4.8275   -4.1482 C   0  0  0  0  0  0  0  0  0  0  0  0
    1.0122    1.5217    0.6328 C   0  0  0  0  0  0  0  0  0  0  0  0
   -1.0744    1.4363   -0.5882 C   0  0  0  0  0  0  0  0  0  0  0  0
   -1.0458    0.0464   -0.5081 C   0  0  0  0  0  0  0  0  0  0  0  0
    1.0218    0.1291    0.7024 C   0  0  0  0  0  0  0  0  0  0  0  0
   -0.0065   -0.6146    0.1375 C   0  0  0  0  0  0  0  0  0  0  0  0
   -0.7967   -2.3043   -0.2288 H   0  0  0  0  0  0  0  0  0  0  0  0
   -0.5486    4.1581    0.7516 H   0  0  0  0  0  0  0  0  0  0  0  0
    0.4139    7.9365   -2.9059 H   0  0  0  0  0  0  0  0  0  0  0  0
    1.9667    7.9698   -2.0498 H   0  0  0  0  0  0  0  0  0  0  0  0
    1.9018    7.4153   -3.7468 H   0  0  0  0  0  0  0  0  0  0  0  0
    1.6276    5.2993   -4.9366 H   0  0  0  0  0  0  0  0  0  0  0  0
    3.1784    5.3467   -4.0586 H   0  0  0  0  0  0  0  0  0  0  0  0
    2.4049    3.7842   -4.4187 H   0  0  0  0  0  0  0  0  0  0  0  0
    1.8332    2.0749    1.0799 H   0  0  0  0  0  0  0  0  0  0  0  0
   -1.8985    1.9211   -1.1030 H   0  0  0  0  0  0  0  0  0  0  0  0
  1 16  1  0  0  0  0
  2 17  1  0  0  0  0
  3  9  2  0  0  0  0
  4 18  1  0  0  0  0
  4 19  1  0  0  0  0
  5  8  1  0  0  0  0
  5  9  1  0  0  0  0
  5 12  1  0  0  0  0
  6  7  1  0  0  0  0
  6  8  2  0  0  0  0
  7  9  1  0  0  0  0
  7 10  2  0  0  0  0
  8 13  1  0  0  0  0
 10 11  1  0  0  0  0
 10 20  1  0  0  0  0
 11 14  2  0  0  0  0
 11 15  1  0  0  0  0
 12 21  1  0  0  0  0
 12 22  1  0  0  0  0
 12 23  1  0  0  0  0
 13 24  1  0  0  0  0
 13 25  1  0  0  0  0
 13 26  1  0  0  0  0
 14 17  1  0  0  0  0
 14 27  1  0  0  0  0
 15 16  2  0  0  0  0
 15 28  1  0  0  0  0
 16 18  1  0  0  0  0
 17 18  2  0  0  0  0
M  END
>  <Mol_ID>
6062

>  <Formula>
C12H10F2N2O2

>  <MolWeight>
252.2168064

>  <Cat>
E0069

>  <Name>
DFHBI

>  <Synonyms>
N/A

>  <Target>
Dyes

>  <Form>
Free Base

>  <CAS>
1241390-29-3

>  <URL>
http://www.selleckchem.com/products/dfhbi.html

$$$$
