DFO
 OpenBabel08302521243D

 20 22  0  0  0  0  0  0  0  0999 V2000
   -0.7134   -0.4776    0.0005 C   0  0  0  0  0  0  0  0  0  0  0  0
    0.7216   -0.4781   -0.0002 C   0  0  0  0  0  0  0  0  0  0  0  0
   -1.1765    0.8397    0.0030 C   0  0  0  0  0  0  0  0  0  0  0  0
   -1.6385   -1.5013    0.0001 C   0  0  0  0  0  0  0  0  0  0  0  0
    1.1854    0.8388    0.0018 C   0  0  0  0  0  0  0  0  0  0  0  0
    1.6455   -1.5031   -0.0014 C   0  0  0  0  0  0  0  0  0  0  0  0
    0.0050    1.7496    0.0045 C   0  0  0  0  0  0  0  0  0  0  0  0
   -2.4623    1.2307    0.0052 N   0  0  0  0  0  0  0  0  0  0  0  0
   -2.9896   -1.1479    0.0026 C   0  0  0  0  0  0  0  0  0  0  0  0
    2.4714    1.2281    0.0027 N   0  0  0  0  0  0  0  0  0  0  0  0
    2.9968   -1.1512   -0.0004 C   0  0  0  0  0  0  0  0  0  0  0  0
    0.0055    2.9626    0.0077 O   0  0  0  0  0  0  0  0  0  0  0  0
   -3.3467    0.2060    0.0049 C   0  0  0  0  0  0  0  0  0  0  0  0
    3.3548    0.2025    0.0015 C   0  0  0  0  0  0  0  0  0  0  0  0
   -1.3377   -2.5436   -0.0015 H   0  0  0  0  0  0  0  0  0  0  0  0
    1.3433   -2.5449   -0.0025 H   0  0  0  0  0  0  0  0  0  0  0  0
   -3.7594   -1.9139    0.0030 H   0  0  0  0  0  0  0  0  0  0  0  0
    3.7659   -1.9181   -0.0009 H   0  0  0  0  0  0  0  0  0  0  0  0
   -4.3940    0.5000    0.0068 H   0  0  0  0  0  0  0  0  0  0  0  0
    4.4022    0.4955    0.0023 H   0  0  0  0  0  0  0  0  0  0  0  0
  1  2  1  0  0  0  0
  1  3  1  0  0  0  0
  1  4  2  0  0  0  0
  2  5  2  0  0  0  0
  2  6  1  0  0  0  0
  3  7  1  0  0  0  0
  3  8  2  0  0  0  0
  4  9  1  0  0  0  0
  4 15  1  0  0  0  0
  5 10  1  0  0  0  0
  5  7  1  0  0  0  0
  6 11  2  0  0  0  0
  6 16  1  0  0  0  0
  7 12  2  0  0  0  0
  8 13  1  0  0  0  0
  9 13  2  0  0  0  0
  9 17  1  0  0  0  0
 10 14  2  0  0  0  0
 11 14  1  0  0  0  0
 11 18  1  0  0  0  0
 13 19  1  0  0  0  0
 14 20  1  0  0  0  0
M  END
>  <Mol_ID>
5017

>  <Formula>
C11H6N2O

>  <MolWeight>
182.17814

>  <Cat>
S6849

>  <Name>
DFO

>  <Synonyms>
9H-1,8-Diazafluoren-9-one, 1,8-Diazafluoren-9-one

>  <Target>
Dyes

>  <Form>
Free Base

>  <CAS>
54078-29-4

>  <URL>
http://www.selleckchem.com/products/dfo.html

$$$$
