Diallyl disulfide
 OpenBabel08302521363D

 18 17  0  0  0  0  0  0  0  0999 V2000
    0.8922   -0.0452    0.0128 S   0  0  0  0  0  0  0  0  0  0  0  0
    0.4747   -0.6055   -1.9243 S   0  0  0  0  0  0  0  0  0  0  0  0
    2.7044    0.0971   -0.0325 C   0  0  0  0  0  0  0  0  0  0  0  0
    1.0058   -2.3439   -1.9220 C   0  0  0  0  0  0  0  0  0  0  0  0
    3.2031    0.5438    1.3063 C   0  0  0  0  0  0  0  0  0  0  0  0
    0.7481   -2.9454   -3.2706 C   0  0  0  0  0  0  0  0  0  0  0  0
    3.9664   -0.2053    2.1142 C   0  0  0  0  0  0  0  0  0  0  0  0
    1.7101   -3.3602   -4.1057 C   0  0  0  0  0  0  0  0  0  0  0  0
    3.1318   -0.8766   -0.2930 H   0  0  0  0  0  0  0  0  0  0  0  0
    3.0037    0.8228   -0.7943 H   0  0  0  0  0  0  0  0  0  0  0  0
    2.0726   -2.3914   -1.6821 H   0  0  0  0  0  0  0  0  0  0  0  0
    0.4528   -2.9038   -1.1616 H   0  0  0  0  0  0  0  0  0  0  0  0
    2.9367    1.5542    1.6178 H   0  0  0  0  0  0  0  0  0  0  0  0
   -0.2918   -3.0629   -3.5631 H   0  0  0  0  0  0  0  0  0  0  0  0
    4.3081    0.1812    3.0695 H   0  0  0  0  0  0  0  0  0  0  0  0
    4.2623   -1.2160    1.8487 H   0  0  0  0  0  0  0  0  0  0  0  0
    1.4582   -3.7978   -5.0665 H   0  0  0  0  0  0  0  0  0  0  0  0
    2.7637   -3.2666   -3.8593 H   0  0  0  0  0  0  0  0  0  0  0  0
  1  2  1  0  0  0  0
  1  3  1  0  0  0  0
  2  4  1  0  0  0  0
  3  5  1  0  0  0  0
  3  9  1  0  0  0  0
  3 10  1  0  0  0  0
  4  6  1  0  0  0  0
  4 11  1  0  0  0  0
  4 12  1  0  0  0  0
  5  7  2  0  0  0  0
  5 13  1  0  0  0  0
  6  8  2  0  0  0  0
  6 14  1  0  0  0  0
  7 15  1  0  0  0  0
  7 16  1  0  0  0  0
  8 17  1  0  0  0  0
  8 18  1  0  0  0  0
M  END
>  <Mol_ID>
7197

>  <Formula>
C6H10S2

>  <MolWeight>
146.2736

>  <Cat>
E4197

>  <Name>
Diallyl disulfide

>  <Synonyms>
Diallyl disulfide

>  <Target>
IL Receptor;NF-¦ÊB;NOS

>  <Form>
free base

>  <CAS>
2179-57-9

>  <URL>
https://www.selleckchem.com/products/diallyl-disulfide.html

$$$$
