Dibenzothiophene.cdx
 OpenBabel08302522053D

 21 23  0  0  0  0  0  0  0  0999 V2000
   -3.5150    0.1749    0.0480 C   0  0  0  0  0  0  0  0  0  0  0  0
   -3.0304    1.4739    0.0309 C   0  0  0  0  0  0  0  0  0  0  0  0
   -1.6528    1.7105    0.0005 C   0  0  0  0  0  0  0  0  0  0  0  0
   -0.7292    0.6318   -0.0048 C   0  0  0  0  0  0  0  0  0  0  0  0
   -1.2467   -0.6641    0.0108 C   0  0  0  0  0  0  0  0  0  0  0  0
   -2.6347   -0.9084    0.0330 C   0  0  0  0  0  0  0  0  0  0  0  0
    0.7227    0.6344   -0.0123 C   0  0  0  0  0  0  0  0  0  0  0  0
    1.2453   -0.6593    0.0064 C   0  0  0  0  0  0  0  0  0  0  0  0
    0.0018   -1.8401    0.0025 S   0  0  0  0  0  0  0  0  0  0  0  0
    1.6424    1.7167   -0.0221 C   0  0  0  0  0  0  0  0  0  0  0  0
    3.0208    1.4860    0.0004 C   0  0  0  0  0  0  0  0  0  0  0  0
    3.5111    0.1888    0.0290 C   0  0  0  0  0  0  0  0  0  0  0  0
    2.6349   -0.8979    0.0282 C   0  0  0  0  0  0  0  0  0  0  0  0
   -4.5872   -0.0043    0.0747 H   0  0  0  0  0  0  0  0  0  0  0  0
   -3.7219    2.3128    0.0443 H   0  0  0  0  0  0  0  0  0  0  0  0
   -1.2892    2.7348   -0.0105 H   0  0  0  0  0  0  0  0  0  0  0  0
   -3.0161   -1.9257    0.0456 H   0  0  0  0  0  0  0  0  0  0  0  0
    1.2747    2.7395   -0.0413 H   0  0  0  0  0  0  0  0  0  0  0  0
    3.7091    2.3274   -0.0010 H   0  0  0  0  0  0  0  0  0  0  0  0
    4.5838    0.0141    0.0533 H   0  0  0  0  0  0  0  0  0  0  0  0
    3.0200   -1.9134    0.0488 H   0  0  0  0  0  0  0  0  0  0  0  0
  1  2  2  0  0  0  0
  1 14  1  0  0  0  0
  2  3  1  0  0  0  0
  2 15  1  0  0  0  0
  3  4  2  0  0  0  0
  3 16  1  0  0  0  0
  4  5  1  0  0  0  0
  4  7  1  0  0  0  0
  5  6  2  0  0  0  0
  6  1  1  0  0  0  0
  6 17  1  0  0  0  0
  7  8  2  0  0  0  0
  7 10  1  0  0  0  0
  8  9  1  0  0  0  0
  9  5  1  0  0  0  0
 10 11  2  0  0  0  0
 10 18  1  0  0  0  0
 11 12  1  0  0  0  0
 11 19  1  0  0  0  0
 12 13  2  0  0  0  0
 12 20  1  0  0  0  0
 13  8  1  0  0  0  0
 13 21  1  0  0  0  0
M  END
>  <Mol_ID>
1348

>  <Formula>
C12H8S

>  <MolWeight>
184.25692

>  <Cat>
S4205

>  <Name>
Dibenzothiophene

>  <Synonyms>
DBT,Diphenylene sulfide

>  <Target>
Others

>  <Form>
free base

>  <CAS>
132-65-0

>  <URL>
http://selleckchem.com/products/dibenzothiophene.html

$$$$
