Dibenzyl disulfide
 OpenBabel08302521363D

 30 31  0  0  0  0  0  0  0  0999 V2000
    1.0348    0.1517   -0.0232 C   0  0  0  0  0  0  0  0  0  0  0  0
    0.2075    0.1736   -1.6400 S   0  0  0  0  0  0  0  0  0  0  0  0
    1.2627    1.6591   -2.6122 S   0  0  0  0  0  0  0  0  0  0  0  0
    2.8458    0.8246   -2.9265 C   0  0  0  0  0  0  0  0  0  0  0  0
    0.4248   -0.8334    0.9382 C   0  0  0  0  0  0  0  0  0  0  0  0
    0.7772   -2.1911    0.8931 C   0  0  0  0  0  0  0  0  0  0  0  0
   -0.4800   -0.3981    1.9155 C   0  0  0  0  0  0  0  0  0  0  0  0
    0.2594   -3.0864    1.8299 C   0  0  0  0  0  0  0  0  0  0  0  0
   -0.9944   -1.2951    2.8519 C   0  0  0  0  0  0  0  0  0  0  0  0
   -0.6188   -2.6363    2.8139 C   0  0  0  0  0  0  0  0  0  0  0  0
    3.8264    1.6869   -3.6778 C   0  0  0  0  0  0  0  0  0  0  0  0
    4.6366    2.6085   -2.9953 C   0  0  0  0  0  0  0  0  0  0  0  0
    3.9624    1.5578   -5.0655 C   0  0  0  0  0  0  0  0  0  0  0  0
    5.5848    3.3613   -3.6901 C   0  0  0  0  0  0  0  0  0  0  0  0
    4.9111    2.3113   -5.7562 C   0  0  0  0  0  0  0  0  0  0  0  0
    5.7270    3.2066   -5.0670 C   0  0  0  0  0  0  0  0  0  0  0  0
    1.0109    1.1574    0.4104 H   0  0  0  0  0  0  0  0  0  0  0  0
    2.0880   -0.1153   -0.1613 H   0  0  0  0  0  0  0  0  0  0  0  0
    3.3004    0.5424   -1.9711 H   0  0  0  0  0  0  0  0  0  0  0  0
    2.6643   -0.1009   -3.4836 H   0  0  0  0  0  0  0  0  0  0  0  0
    1.4659   -2.5570    0.1346 H   0  0  0  0  0  0  0  0  0  0  0  0
   -0.7795    0.6469    1.9609 H   0  0  0  0  0  0  0  0  0  0  0  0
    0.5470   -4.1340    1.7970 H   0  0  0  0  0  0  0  0  0  0  0  0
   -1.6834   -0.9441    3.6159 H   0  0  0  0  0  0  0  0  0  0  0  0
   -1.0128   -3.3312    3.5504 H   0  0  0  0  0  0  0  0  0  0  0  0
    4.5389    2.7397   -1.9200 H   0  0  0  0  0  0  0  0  0  0  0  0
    3.3333    0.8607   -5.6163 H   0  0  0  0  0  0  0  0  0  0  0  0
    6.2175    4.0649   -3.1545 H   0  0  0  0  0  0  0  0  0  0  0  0
    5.0181    2.1934   -6.8306 H   0  0  0  0  0  0  0  0  0  0  0  0
    6.4730    3.7845   -5.6051 H   0  0  0  0  0  0  0  0  0  0  0  0
  1  2  1  0  0  0  0
  1  5  1  0  0  0  0
  1 17  1  0  0  0  0
  1 18  1  0  0  0  0
  2  3  1  0  0  0  0
  3  4  1  0  0  0  0
  4 11  1  0  0  0  0
  4 19  1  0  0  0  0
  4 20  1  0  0  0  0
  5  6  2  0  0  0  0
  5  7  1  0  0  0  0
  6  8  1  0  0  0  0
  6 21  1  0  0  0  0
  7  9  2  0  0  0  0
  7 22  1  0  0  0  0
  8 10  2  0  0  0  0
  8 23  1  0  0  0  0
  9 10  1  0  0  0  0
  9 24  1  0  0  0  0
 10 25  1  0  0  0  0
 11 12  2  0  0  0  0
 11 13  1  0  0  0  0
 12 14  1  0  0  0  0
 12 26  1  0  0  0  0
 13 15  2  0  0  0  0
 13 27  1  0  0  0  0
 14 16  2  0  0  0  0
 14 28  1  0  0  0  0
 15 16  1  0  0  0  0
 15 29  1  0  0  0  0
 16 30  1  0  0  0  0
M  END
>  <Mol_ID>
7165

>  <Formula>
C14H14S2

>  <MolWeight>
246.39096

>  <Cat>
E4159

>  <Name>
Dibenzyl disulfide

>  <Synonyms>
Benzyl disulfide

>  <Target>
Others

>  <Form>
Free base

>  <CAS>
150-60-7

>  <URL>
https://www.selleckchem.com/products/dibenzyl-disulfide.html

$$$$
