Dibenzepine HCl
 OpenBabel08302520303D

 43 45  0  0  0  0  0  0  0  0999 V2000
   -1.7032    0.5921   -0.3339 C   0  0  0  0  0  0  0  0  0  0  0  0
   -1.3122   -0.7519   -0.4280 C   0  0  0  0  0  0  0  0  0  0  0  0
   -0.7906    1.6546   -0.4911 N   0  0  0  0  0  0  0  0  0  0  0  0
   -2.9857    0.9346    0.1160 C   0  0  0  0  0  0  0  0  0  0  0  0
   -0.0328   -1.1539   -0.8725 N   0  0  0  0  0  0  0  0  0  0  0  0
   -2.2336   -1.7366   -0.0279 C   0  0  0  0  0  0  0  0  0  0  0  0
    0.3242    1.6552    0.3315 C   0  0  0  0  0  0  0  0  0  0  0  0
   -0.7130    2.3189   -1.7979 C   0  0  0  0  0  0  0  0  0  0  0  0
   -3.8711   -0.0557    0.5358 C   0  0  0  0  0  0  0  0  0  0  0  0
    1.2065   -0.6344   -0.4446 C   0  0  0  0  0  0  0  0  0  0  0  0
   -0.0764   -1.8281   -2.1770 C   0  0  0  0  0  0  0  0  0  0  0  0
   -3.4910   -1.3922    0.4737 C   0  0  0  0  0  0  0  0  0  0  0  0
    1.3826    0.6201    0.1627 C   0  0  0  0  0  0  0  0  0  0  0  0
    0.4825    2.5568    1.1568 O   0  0  0  0  0  0  0  0  0  0  0  0
   -0.2480    3.7942   -1.6838 C   0  0  0  0  0  0  0  0  0  0  0  0
    2.3375   -1.4876   -0.4925 C   0  0  0  0  0  0  0  0  0  0  0  0
    2.6513    0.9972    0.6600 C   0  0  0  0  0  0  0  0  0  0  0  0
   -0.2003    4.5604   -2.9540 N   0  0  0  0  0  0  0  0  0  0  0  0
    3.5831   -1.1173    0.0215 C   0  0  0  0  0  0  0  0  0  0  0  0
    3.7429    0.1366    0.5889 C   0  0  0  0  0  0  0  0  0  0  0  0
    0.2047    5.9410   -2.6702 C   0  0  0  0  0  0  0  0  0  0  0  0
    0.7260    3.9683   -3.9199 C   0  0  0  0  0  0  0  0  0  0  0  0
   -3.2625    1.9812    0.2191 H   0  0  0  0  0  0  0  0  0  0  0  0
   -1.9427   -2.7844   -0.0431 H   0  0  0  0  0  0  0  0  0  0  0  0
   -0.0102    1.7487   -2.4163 H   0  0  0  0  0  0  0  0  0  0  0  0
   -1.6994    2.2876   -2.2766 H   0  0  0  0  0  0  0  0  0  0  0  0
   -4.8358    0.2207    0.9525 H   0  0  0  0  0  0  0  0  0  0  0  0
   -0.5535   -2.8114   -2.0940 H   0  0  0  0  0  0  0  0  0  0  0  0
   -0.6397   -1.2287   -2.9053 H   0  0  0  0  0  0  0  0  0  0  0  0
    0.9118   -1.9863   -2.6201 H   0  0  0  0  0  0  0  0  0  0  0  0
   -4.1590   -2.1665    0.8417 H   0  0  0  0  0  0  0  0  0  0  0  0
   -0.9476    4.3021   -1.0050 H   0  0  0  0  0  0  0  0  0  0  0  0
    0.7368    3.8308   -1.2029 H   0  0  0  0  0  0  0  0  0  0  0  0
    2.2353   -2.5061   -0.8686 H   0  0  0  0  0  0  0  0  0  0  0  0
    2.7886    1.9743    1.1185 H   0  0  0  0  0  0  0  0  0  0  0  0
    4.4138   -1.8143   -0.0014 H   0  0  0  0  0  0  0  0  0  0  0  0
    4.7023    0.4411    1.0003 H   0  0  0  0  0  0  0  0  0  0  0  0
    1.1912    5.9965   -2.1905 H   0  0  0  0  0  0  0  0  0  0  0  0
    0.2458    6.5347   -3.5928 H   0  0  0  0  0  0  0  0  0  0  0  0
   -0.5240    6.4355   -2.0183 H   0  0  0  0  0  0  0  0  0  0  0  0
    1.7115    3.7661   -3.4817 H   0  0  0  0  0  0  0  0  0  0  0  0
    0.3190    3.0343   -4.3193 H   0  0  0  0  0  0  0  0  0  0  0  0
    0.8689    4.6286   -4.7824 H   0  0  0  0  0  0  0  0  0  0  0  0
  1  2  2  0  0  0  0
  1  3  1  0  0  0  0
  1  4  1  0  0  0  0
  2  5  1  0  0  0  0
  2  6  1  0  0  0  0
  3  7  1  0  0  0  0
  3  8  1  0  0  0  0
  4  9  2  0  0  0  0
  4 23  1  0  0  0  0
  5 10  1  0  0  0  0
  5 11  1  0  0  0  0
  6 12  2  0  0  0  0
  6 24  1  0  0  0  0
  7 13  1  0  0  0  0
  7 14  2  0  0  0  0
  8 15  1  0  0  0  0
  8 25  1  0  0  0  0
  8 26  1  0  0  0  0
  9 12  1  0  0  0  0
  9 27  1  0  0  0  0
 10 16  2  0  0  0  0
 10 13  1  0  0  0  0
 11 28  1  0  0  0  0
 11 29  1  0  0  0  0
 11 30  1  0  0  0  0
 12 31  1  0  0  0  0
 13 17  2  0  0  0  0
 15 18  1  0  0  0  0
 15 32  1  0  0  0  0
 15 33  1  0  0  0  0
 16 19  1  0  0  0  0
 16 34  1  0  0  0  0
 17 20  1  0  0  0  0
 17 35  1  0  0  0  0
 18 21  1  0  0  0  0
 18 22  1  0  0  0  0
 19 20  2  0  0  0  0
 19 36  1  0  0  0  0
 20 37  1  0  0  0  0
 21 38  1  0  0  0  0
 21 39  1  0  0  0  0
 21 40  1  0  0  0  0
 22 41  1  0  0  0  0
 22 42  1  0  0  0  0
 22 43  1  0  0  0  0
M  END
>  <Mol_ID>
3317

>  <Formula>
C18H22ClN3O

>  <MolWeight>
331.83978

>  <Cat>
S4319

>  <Name>
Dibenzepine HCl

>  <Synonyms>
N/A

>  <Target>
Others

>  <Form>
hydrochloride

>  <CAS>
315-80-0

>  <URL>
http://www.selleckchem.com/products/dibenzepine-hcl.html

$$$$
