Dibutyl sebacate
 OpenBabel08302520383D

 56 55  0  0  0  0  0  0  0  0999 V2000
    2.8920   -2.4856    1.3929 C   0  0  0  0  0  0  0  0  0  0  0  0
    2.5158   -3.9494    1.4849 C   0  0  0  0  0  0  0  0  0  0  0  0
    2.2099   -1.5193    2.3646 C   0  0  0  0  0  0  0  0  0  0  0  0
    1.9397   -4.2756    2.6703 O   0  0  0  0  0  0  0  0  0  0  0  0
    2.7273   -4.7368    0.5696 O   0  0  0  0  0  0  0  0  0  0  0  0
    0.6943   -1.4466    2.1763 C   0  0  0  0  0  0  0  0  0  0  0  0
    1.4059   -5.6076    2.7756 C   0  0  0  0  0  0  0  0  0  0  0  0
    0.0483   -0.4273    3.1182 C   0  0  0  0  0  0  0  0  0  0  0  0
   -0.1077   -5.5932    2.5456 C   0  0  0  0  0  0  0  0  0  0  0  0
   -1.4723   -0.3511    2.9509 C   0  0  0  0  0  0  0  0  0  0  0  0
   -0.4974   -5.1366    1.1368 C   0  0  0  0  0  0  0  0  0  0  0  0
   -2.1956   -1.6646    3.2763 C   0  0  0  0  0  0  0  0  0  0  0  0
   -2.0027   -5.1392    0.9240 C   0  0  0  0  0  0  0  0  0  0  0  0
   -3.7132   -1.5901    3.0829 C   0  0  0  0  0  0  0  0  0  0  0  0
   -4.0919   -1.2821    1.6415 C   0  0  0  0  0  0  0  0  0  0  0  0
   -5.5809   -1.2344    1.4363 C   0  0  0  0  0  0  0  0  0  0  0  0
   -6.0280    0.0434    1.5851 O   0  0  0  0  0  0  0  0  0  0  0  0
   -6.2614   -2.1996    1.1364 O   0  0  0  0  0  0  0  0  0  0  0  0
   -7.3533    0.3051    1.0806 C   0  0  0  0  0  0  0  0  0  0  0  0
   -7.2259    0.6604   -0.3998 C   0  0  0  0  0  0  0  0  0  0  0  0
   -8.5266    1.0770   -1.0793 C   0  0  0  0  0  0  0  0  0  0  0  0
   -9.5729   -0.0257   -1.1348 C   0  0  0  0  0  0  0  0  0  0  0  0
    2.6680   -2.1644    0.3685 H   0  0  0  0  0  0  0  0  0  0  0  0
    3.9760   -2.4256    1.5376 H   0  0  0  0  0  0  0  0  0  0  0  0
    2.4401   -1.7998    3.3988 H   0  0  0  0  0  0  0  0  0  0  0  0
    2.6329   -0.5200    2.2037 H   0  0  0  0  0  0  0  0  0  0  0  0
    0.4547   -1.1944    1.1361 H   0  0  0  0  0  0  0  0  0  0  0  0
    0.2706   -2.4307    2.3768 H   0  0  0  0  0  0  0  0  0  0  0  0
    1.9040   -6.3126    2.1003 H   0  0  0  0  0  0  0  0  0  0  0  0
    1.6113   -5.9503    3.7959 H   0  0  0  0  0  0  0  0  0  0  0  0
    0.2922   -0.6683    4.1591 H   0  0  0  0  0  0  0  0  0  0  0  0
    0.4671    0.5657    2.9124 H   0  0  0  0  0  0  0  0  0  0  0  0
   -0.5098   -6.5955    2.7335 H   0  0  0  0  0  0  0  0  0  0  0  0
   -0.5663   -4.9123    3.2735 H   0  0  0  0  0  0  0  0  0  0  0  0
   -1.8607    0.4405    3.6033 H   0  0  0  0  0  0  0  0  0  0  0  0
   -1.6785   -0.0421    1.9212 H   0  0  0  0  0  0  0  0  0  0  0  0
   -0.1368   -4.1198    0.9601 H   0  0  0  0  0  0  0  0  0  0  0  0
   -0.0229   -5.7782    0.3855 H   0  0  0  0  0  0  0  0  0  0  0  0
   -1.8189   -2.4747    2.6447 H   0  0  0  0  0  0  0  0  0  0  0  0
   -1.9817   -1.9469    4.3142 H   0  0  0  0  0  0  0  0  0  0  0  0
   -2.5375   -4.7660    1.8026 H   0  0  0  0  0  0  0  0  0  0  0  0
   -2.2608   -4.4972    0.0749 H   0  0  0  0  0  0  0  0  0  0  0  0
   -2.3615   -6.1491    0.7033 H   0  0  0  0  0  0  0  0  0  0  0  0
   -4.1491   -2.5553    3.3723 H   0  0  0  0  0  0  0  0  0  0  0  0
   -4.1414   -0.8419    3.7600 H   0  0  0  0  0  0  0  0  0  0  0  0
   -3.6860   -0.3206    1.3105 H   0  0  0  0  0  0  0  0  0  0  0  0
   -3.6837   -2.0364    0.9585 H   0  0  0  0  0  0  0  0  0  0  0  0
   -8.0231   -0.5420    1.2574 H   0  0  0  0  0  0  0  0  0  0  0  0
   -7.7453    1.1590    1.6446 H   0  0  0  0  0  0  0  0  0  0  0  0
   -6.4982    1.4763   -0.5053 H   0  0  0  0  0  0  0  0  0  0  0  0
   -6.7851   -0.1863   -0.9410 H   0  0  0  0  0  0  0  0  0  0  0  0
   -8.9483    1.9610   -0.5877 H   0  0  0  0  0  0  0  0  0  0  0  0
   -8.2840    1.3762   -2.1060 H   0  0  0  0  0  0  0  0  0  0  0  0
  -10.2375    0.0253   -0.2668 H   0  0  0  0  0  0  0  0  0  0  0  0
  -10.1914    0.0921   -2.0313 H   0  0  0  0  0  0  0  0  0  0  0  0
   -9.1207   -1.0217   -1.1673 H   0  0  0  0  0  0  0  0  0  0  0  0
  1  2  1  0  0  0  0
  1  3  1  0  0  0  0
  1 23  1  0  0  0  0
  1 24  1  0  0  0  0
  2  4  1  0  0  0  0
  2  5  2  0  0  0  0
  3  6  1  0  0  0  0
  3 25  1  0  0  0  0
  3 26  1  0  0  0  0
  4  7  1  0  0  0  0
  6  8  1  0  0  0  0
  6 27  1  0  0  0  0
  6 28  1  0  0  0  0
  7  9  1  0  0  0  0
  7 29  1  0  0  0  0
  7 30  1  0  0  0  0
  8 10  1  0  0  0  0
  8 31  1  0  0  0  0
  8 32  1  0  0  0  0
  9 11  1  0  0  0  0
  9 33  1  0  0  0  0
  9 34  1  0  0  0  0
 10 12  1  0  0  0  0
 10 35  1  0  0  0  0
 10 36  1  0  0  0  0
 11 13  1  0  0  0  0
 11 37  1  0  0  0  0
 11 38  1  0  0  0  0
 12 14  1  0  0  0  0
 12 39  1  0  0  0  0
 12 40  1  0  0  0  0
 13 41  1  0  0  0  0
 13 42  1  0  0  0  0
 13 43  1  0  0  0  0
 14 15  1  0  0  0  0
 14 44  1  0  0  0  0
 14 45  1  0  0  0  0
 15 16  1  0  0  0  0
 15 46  1  0  0  0  0
 15 47  1  0  0  0  0
 16 17  1  0  0  0  0
 16 18  2  0  0  0  0
 17 19  1  0  0  0  0
 19 20  1  0  0  0  0
 19 48  1  0  0  0  0
 19 49  1  0  0  0  0
 20 21  1  0  0  0  0
 20 50  1  0  0  0  0
 20 51  1  0  0  0  0
 21 22  1  0  0  0  0
 21 52  1  0  0  0  0
 21 53  1  0  0  0  0
 22 54  1  0  0  0  0
 22 55  1  0  0  0  0
 22 56  1  0  0  0  0
M  END
>  <Mol_ID>
3526

>  <Formula>
C18H34O4

>  <MolWeight>
314.46016

>  <Cat>
S6041

>  <Name>
Dibutyl sebacate

>  <Synonyms>
N/A

>  <Target>
Others

>  <Form>
free base

>  <CAS>
109-43-3

>  <URL>
http://www.selleck.cn/products/dibutyl-sebacate.html

$$$$
