Dibutyl maleate
 OpenBabel08302521363D

 36 35  0  0  0  0  0  0  0  0999 V2000
    1.4617    0.1408   -0.8832 C   0  0  0  0  0  0  0  0  0  0  0  0
    0.5043    0.6507    0.1182 C   0  0  0  0  0  0  0  0  0  0  0  0
    0.8845   -0.6770   -1.7859 O   0  0  0  0  0  0  0  0  0  0  0  0
    2.6496    0.3940   -0.8090 O   0  0  0  0  0  0  0  0  0  0  0  0
   -0.8232    0.7599    0.2876 C   0  0  0  0  0  0  0  0  0  0  0  0
    1.7596   -1.1621   -2.8331 C   0  0  0  0  0  0  0  0  0  0  0  0
   -2.1498    0.4842   -0.3186 C   0  0  0  0  0  0  0  0  0  0  0  0
    2.2906   -2.5703   -2.5306 C   0  0  0  0  0  0  0  0  0  0  0  0
   -2.3030    0.6818   -1.6505 O   0  0  0  0  0  0  0  0  0  0  0  0
   -3.0808    0.2540    0.4503 O   0  0  0  0  0  0  0  0  0  0  0  0
    2.8305   -3.2965   -3.7716 C   0  0  0  0  0  0  0  0  0  0  0  0
   -3.6947    0.7661   -2.0919 C   0  0  0  0  0  0  0  0  0  0  0  0
    4.1503   -2.7791   -4.3301 C   0  0  0  0  0  0  0  0  0  0  0  0
   -4.1347   -0.4461   -2.9232 C   0  0  0  0  0  0  0  0  0  0  0  0
   -4.3522   -1.7130   -2.0887 C   0  0  0  0  0  0  0  0  0  0  0  0
   -4.4104   -2.9669   -2.9532 C   0  0  0  0  0  0  0  0  0  0  0  0
    1.0912    1.0217    0.9658 H   0  0  0  0  0  0  0  0  0  0  0  0
   -1.0585    1.1689    1.2752 H   0  0  0  0  0  0  0  0  0  0  0  0
    1.1478   -1.1854   -3.7406 H   0  0  0  0  0  0  0  0  0  0  0  0
    2.5844   -0.4635   -3.0294 H   0  0  0  0  0  0  0  0  0  0  0  0
    3.0520   -2.5340   -1.7412 H   0  0  0  0  0  0  0  0  0  0  0  0
    1.4665   -3.1679   -2.1214 H   0  0  0  0  0  0  0  0  0  0  0  0
    2.9614   -4.3588   -3.5314 H   0  0  0  0  0  0  0  0  0  0  0  0
    2.0707   -3.2511   -4.5600 H   0  0  0  0  0  0  0  0  0  0  0  0
   -4.3963    0.9319   -1.2624 H   0  0  0  0  0  0  0  0  0  0  0  0
   -3.7754    1.6625   -2.7210 H   0  0  0  0  0  0  0  0  0  0  0  0
    4.9985   -3.2826   -3.8533 H   0  0  0  0  0  0  0  0  0  0  0  0
    4.2113   -3.0059   -5.4013 H   0  0  0  0  0  0  0  0  0  0  0  0
    4.2767   -1.7006   -4.2088 H   0  0  0  0  0  0  0  0  0  0  0  0
   -5.0864   -0.2089   -3.4200 H   0  0  0  0  0  0  0  0  0  0  0  0
   -3.3941   -0.6329   -3.7072 H   0  0  0  0  0  0  0  0  0  0  0  0
   -3.5493   -1.8361   -1.3569 H   0  0  0  0  0  0  0  0  0  0  0  0
   -5.2921   -1.6257   -1.5291 H   0  0  0  0  0  0  0  0  0  0  0  0
   -3.4339   -3.1672   -3.4058 H   0  0  0  0  0  0  0  0  0  0  0  0
   -4.6794   -3.8356   -2.3431 H   0  0  0  0  0  0  0  0  0  0  0  0
   -5.1492   -2.8745   -3.7556 H   0  0  0  0  0  0  0  0  0  0  0  0
  1  2  1  0  0  0  0
  1  3  1  0  0  0  0
  1  4  2  0  0  0  0
  2  5  2  0  0  0  0
  2 17  1  0  0  0  0
  3  6  1  0  0  0  0
  5  7  1  0  0  0  0
  5 18  1  0  0  0  0
  6  8  1  0  0  0  0
  6 19  1  0  0  0  0
  6 20  1  0  0  0  0
  7  9  1  0  0  0  0
  7 10  2  0  0  0  0
  8 11  1  0  0  0  0
  8 21  1  0  0  0  0
  8 22  1  0  0  0  0
  9 12  1  0  0  0  0
 11 13  1  0  0  0  0
 11 23  1  0  0  0  0
 11 24  1  0  0  0  0
 12 14  1  0  0  0  0
 12 25  1  0  0  0  0
 12 26  1  0  0  0  0
 13 27  1  0  0  0  0
 13 28  1  0  0  0  0
 13 29  1  0  0  0  0
 14 15  1  0  0  0  0
 14 30  1  0  0  0  0
 14 31  1  0  0  0  0
 15 16  1  0  0  0  0
 15 32  1  0  0  0  0
 15 33  1  0  0  0  0
 16 34  1  0  0  0  0
 16 35  1  0  0  0  0
 16 36  1  0  0  0  0
M  END
>  <Mol_ID>
7166

>  <Formula>
C12H20O4

>  <MolWeight>
228.2848

>  <Cat>
E4161

>  <Name>
Dibutyl maleate

>  <Synonyms>
Butyl maleate

>  <Target>
Others

>  <Form>
Free base

>  <CAS>
105-76-0

>  <URL>
https://www.selleckchem.com/products/dibutyl-maleate.html

$$$$
