Dichlorphenamide.cdx
 OpenBabel08302519553D

 22 22  0  0  0  0  0  0  0  0999 V2000
    1.3747   -0.1931   -0.0178 C   0  0  0  0  0  0  0  0  0  0  0  0
    0.5230   -1.3028   -0.0532 C   0  0  0  0  0  0  0  0  0  0  0  0
   -0.8629   -1.1088   -0.0026 C   0  0  0  0  0  0  0  0  0  0  0  0
   -1.3956    0.1747    0.1083 C   0  0  0  0  0  0  0  0  0  0  0  0
   -0.5342    1.2683    0.1670 C   0  0  0  0  0  0  0  0  0  0  0  0
    0.8525    1.0989    0.0889 C   0  0  0  0  0  0  0  0  0  0  0  0
   -1.9639   -2.4950    0.0130 S   0  0  0  0  0  0  0  0  0  0  0  0
   -2.2333   -2.7408   -1.6206 N   0  0  0  0  0  0  0  0  0  0  0  0
   -1.2510   -3.6568    0.4924 O   0  0  0  0  0  0  0  0  0  0  0  0
   -3.2316   -2.0810    0.5708 O   0  0  0  0  0  0  0  0  0  0  0  0
   -1.2324    2.8821    0.3732 S   0  0  0  0  0  0  0  0  0  0  0  0
   -1.2771    3.0034    2.0456 N   0  0  0  0  0  0  0  0  0  0  0  0
   -0.2887    3.8727   -0.0864 O   0  0  0  0  0  0  0  0  0  0  0  0
   -2.6083    2.8657   -0.0685 O   0  0  0  0  0  0  0  0  0  0  0  0
    2.4527   -0.3382   -0.0635 H   0  0  0  0  0  0  0  0  0  0  0  0
    0.9393   -2.3046   -0.1129 H   0  0  0  0  0  0  0  0  0  0  0  0
   -2.4761    0.3196    0.1624 H   0  0  0  0  0  0  0  0  0  0  0  0
    1.5191    1.9547    0.1299 H   0  0  0  0  0  0  0  0  0  0  0  0
   -2.0065   -3.7078   -1.8625 H   0  0  0  0  0  0  0  0  0  0  0  0
   -3.1850   -2.4723   -1.8668 H   0  0  0  0  0  0  0  0  0  0  0  0
   -0.8144    3.8610    2.3460 H   0  0  0  0  0  0  0  0  0  0  0  0
   -2.2306    2.8984    2.3912 H   0  0  0  0  0  0  0  0  0  0  0  0
  1  2  2  0  0  0  0
  1 15  1  0  0  0  0
  2  3  1  0  0  0  0
  2 16  1  0  0  0  0
  3  4  2  0  0  0  0
  3  7  1  0  0  0  0
  4  5  1  0  0  0  0
  4 17  1  0  0  0  0
  5  6  2  0  0  0  0
  5 11  1  0  0  0  0
  6  1  1  0  0  0  0
  6 18  1  0  0  0  0
  7  8  1  0  0  0  0
  7  9  2  0  0  0  0
  7 10  2  0  0  0  0
  8 19  1  0  0  0  0
  8 20  1  0  0  0  0
 11 12  1  0  0  0  0
 11 13  2  0  0  0  0
 11 14  2  0  0  0  0
 12 21  1  0  0  0  0
 12 22  1  0  0  0  0
M  END
>  <Mol_ID>
2127

>  <Formula>
C6H6Cl2N2O4S2

>  <MolWeight>
305.15884

>  <Cat>
S2177

>  <Name>
Dichlorphenamide

>  <Synonyms>
Diclofenamide

>  <Target>
Carbonic Anhydrase

>  <Form>
Free Base

>  <CAS>
120-97-8

>  <URL>
http://www.selleckchem.com/products/Dichlorphenamide(Diclofenamide).html

$$$$
