dichotomitin
 OpenBabel08302521503D

 40 43  0  0  0  0  0  0  0  0999 V2000
    0.9502   -0.0512    0.0853 O   0  0  0  0  0  0  0  0  0  0  0  0
    0.9503   -2.7724    0.0547 O   0  0  0  0  0  0  0  0  0  0  0  0
    1.1101    4.9817   -2.3950 O   0  0  0  0  0  0  0  0  0  0  0  0
    1.3706    4.3133   -3.6212 C   0  0  0  0  0  0  0  0  0  0  0  0
    1.2703    5.0302    2.3915 O   0  0  0  0  0  0  0  0  0  0  0  0
    0.6203    6.2739    0.1765 O   0  0  0  0  0  0  0  0  0  0  0  0
    0.2526    7.0339   -0.9660 C   0  0  0  0  0  0  0  0  0  0  0  0
    2.9331   -1.3763    0.0642 C   0  0  0  0  0  0  0  0  0  0  0  0
    4.3424   -1.3126    0.0570 C   0  0  0  0  0  0  0  0  0  0  0  0
    2.1732   -0.1031    0.0755 C   0  0  0  0  0  0  0  0  0  0  0  0
    2.3037   -2.6262    0.0577 C   0  0  0  0  0  0  0  0  0  0  0  0
    5.1236   -2.4761    0.0488 C   0  0  0  0  0  0  0  0  0  0  0  0
    5.0374   -0.1262    0.0543 O   0  0  0  0  0  0  0  0  0  0  0  0
    2.9798    1.1451    0.0637 C   0  0  0  0  0  0  0  0  0  0  0  0
    3.0964   -3.7588    0.0509 C   0  0  0  0  0  0  0  0  0  0  0  0
    4.4667   -3.6862    0.0475 C   0  0  0  0  0  0  0  0  0  0  0  0
    4.3145    1.0391    0.0522 C   0  0  0  0  0  0  0  0  0  0  0  0
    2.6395   -5.0420    0.0471 O   0  0  0  0  0  0  0  0  0  0  0  0
    5.0486   -4.9142    0.0423 O   0  0  0  0  0  0  0  0  0  0  0  0
    3.8862   -5.7708    0.0458 C   0  0  0  0  0  0  0  0  0  0  0  0
    2.3436    2.4672    0.0496 C   0  0  0  0  0  0  0  0  0  0  0  0
    2.0139    3.0768   -1.1728 C   0  0  0  0  0  0  0  0  0  0  0  0
    2.0776    3.1326    1.2440 C   0  0  0  0  0  0  0  0  0  0  0  0
    1.4300    4.3549   -1.2210 C   0  0  0  0  0  0  0  0  0  0  0  0
    1.5013    4.3944    1.1979 C   0  0  0  0  0  0  0  0  0  0  0  0
    1.1704    5.0274   -0.0136 C   0  0  0  0  0  0  0  0  0  0  0  0
    0.7538   -3.7283    0.0600 H   0  0  0  0  0  0  0  0  0  0  0  0
    2.4418    4.1273   -3.7490 H   0  0  0  0  0  0  0  0  0  0  0  0
    0.7908    3.3882   -3.6988 H   0  0  0  0  0  0  0  0  0  0  0  0
    1.0510    4.9749   -4.4322 H   0  0  0  0  0  0  0  0  0  0  0  0
    0.8711    5.8872    2.1432 H   0  0  0  0  0  0  0  0  0  0  0  0
    1.1272    7.2756   -1.5786 H   0  0  0  0  0  0  0  0  0  0  0  0
   -0.5326    6.5337   -1.5417 H   0  0  0  0  0  0  0  0  0  0  0  0
   -0.1642    7.9825   -0.6138 H   0  0  0  0  0  0  0  0  0  0  0  0
    6.2072   -2.4281    0.0443 H   0  0  0  0  0  0  0  0  0  0  0  0
    4.9859    1.8899    0.0388 H   0  0  0  0  0  0  0  0  0  0  0  0
    3.9197   -6.4074    0.9376 H   0  0  0  0  0  0  0  0  0  0  0  0
    3.9162   -6.4086   -0.8450 H   0  0  0  0  0  0  0  0  0  0  0  0
    2.2197    2.5218   -2.0831 H   0  0  0  0  0  0  0  0  0  0  0  0
    2.3065    2.6812    2.2051 H   0  0  0  0  0  0  0  0  0  0  0  0
  1 10  2  0  0  0  0
  2 11  1  0  0  0  0
  2 27  1  0  0  0  0
  3  4  1  0  0  0  0
  3 24  1  0  0  0  0
  4 28  1  0  0  0  0
  4 29  1  0  0  0  0
  4 30  1  0  0  0  0
  5 25  1  0  0  0  0
  5 31  1  0  0  0  0
  6  7  1  0  0  0  0
  6 26  1  0  0  0  0
  7 32  1  0  0  0  0
  7 33  1  0  0  0  0
  7 34  1  0  0  0  0
  8  9  2  0  0  0  0
  8 10  1  0  0  0  0
  8 11  1  0  0  0  0
  9 12  1  0  0  0  0
  9 13  1  0  0  0  0
 10 14  1  0  0  0  0
 11 15  2  0  0  0  0
 12 16  2  0  0  0  0
 12 35  1  0  0  0  0
 13 17  1  0  0  0  0
 14 17  2  0  0  0  0
 14 21  1  0  0  0  0
 15 16  1  0  0  0  0
 15 18  1  0  0  0  0
 16 19  1  0  0  0  0
 17 36  1  0  0  0  0
 18 20  1  0  0  0  0
 19 20  1  0  0  0  0
 20 37  1  0  0  0  0
 20 38  1  0  0  0  0
 21 22  2  0  0  0  0
 21 23  1  0  0  0  0
 22 24  1  0  0  0  0
 22 39  1  0  0  0  0
 23 25  2  0  0  0  0
 23 40  1  0  0  0  0
 24 26  2  0  0  0  0
 25 26  1  0  0  0  0
M  END
>  <Mol_ID>
9863

>  <Formula>
C18H14O8

>  <MolWeight>
358.29896

>  <Cat>
E2588

>  <Name>
dichotomitin

>  <Synonyms>
N/A

>  <Target>
Immunology & Inflammation related

>  <Form>
free base

>  <CAS>
88509-91-5

>  <URL>
https://www.selleckchem.com/products/dichotomitin.html

$$$$
