Diclofenac Diethylamine.cdx
 OpenBabel08302521593D

 46 46  0  0  0  0  0  0  0  0999 V2000
    0.8964   -0.4563    1.5294 C   0  0  0  0  0  0  0  0  0  0  0  0
    0.0385   -1.5049    1.1817 C   0  0  0  0  0  0  0  0  0  0  0  0
   -1.1529   -1.2317    0.5242 C   0  0  0  0  0  0  0  0  0  0  0  0
   -1.4749    0.0902    0.2264 C   0  0  0  0  0  0  0  0  0  0  0  0
   -0.6150    1.1654    0.5578 C   0  0  0  0  0  0  0  0  0  0  0  0
    0.5862    0.8755    1.2039 C   0  0  0  0  0  0  0  0  0  0  0  0
   -1.1214    2.4918    0.4685 N   0  0  0  0  0  0  0  0  0  0  0  0
   -2.3665    2.8015    1.0591 C   0  0  0  0  0  0  0  0  0  0  0  0
   -2.7522    1.9971    2.1570 C   0  0  0  0  0  0  0  0  0  0  0  0
   -4.0699    1.8554    2.5381 C   0  0  0  0  0  0  0  0  0  0  0  0
   -5.0236    2.6441    1.9188 C   0  0  0  0  0  0  0  0  0  0  0  0
   -4.6437    3.5648    0.9439 C   0  0  0  0  0  0  0  0  0  0  0  0
   -3.3207    3.6553    0.4842 C   0  0  0  0  0  0  0  0  0  0  0  0
   -3.0496    4.5649   -0.6888 C   0  0  0  0  0  0  0  0  0  0  0  0
   -2.0454    5.6700   -0.4665 C   0  0  0  0  0  0  0  0  0  0  0  0
   -1.8999    6.1324    0.7806 O   0  0  0  0  0  0  0  0  0  0  0  0
   -1.4615    6.1947   -1.4158 O   0  0  0  0  0  0  0  0  0  0  0  0
    1.2492   -0.1662   -1.6071 N   0  0  0  0  0  0  0  0  0  0  0  0
    0.3062    0.2385   -2.6415 C   0  0  0  0  0  0  0  0  0  0  0  0
    0.0486    1.7302   -2.8372 C   0  0  0  0  0  0  0  0  0  0  0  0
    3.4705   -0.4267   -0.5614 C   0  0  0  0  0  0  0  0  0  0  0  0
    2.6549    0.1604   -1.7276 C   0  0  0  0  0  0  0  0  0  0  0  0
    1.8376   -0.6848    2.0219 H   0  0  0  0  0  0  0  0  0  0  0  0
    0.3122   -2.5326    1.4010 H   0  0  0  0  0  0  0  0  0  0  0  0
   -1.8332   -2.0289    0.2419 H   0  0  0  0  0  0  0  0  0  0  0  0
   -2.4212    0.3047   -0.2663 H   0  0  0  0  0  0  0  0  0  0  0  0
    1.2831    1.6667    1.4594 H   0  0  0  0  0  0  0  0  0  0  0  0
   -0.4656    3.2327    0.2545 H   0  0  0  0  0  0  0  0  0  0  0  0
   -2.0137    1.3592    2.6435 H   0  0  0  0  0  0  0  0  0  0  0  0
   -4.3333    1.0930    3.2650 H   0  0  0  0  0  0  0  0  0  0  0  0
   -6.0698    2.5147    2.1850 H   0  0  0  0  0  0  0  0  0  0  0  0
   -5.4349    4.1668    0.4861 H   0  0  0  0  0  0  0  0  0  0  0  0
   -2.7266    3.9604   -1.5454 H   0  0  0  0  0  0  0  0  0  0  0  0
   -3.9801    5.0653   -0.9935 H   0  0  0  0  0  0  0  0  0  0  0  0
   -2.4509    5.6651    1.4408 H   0  0  0  0  0  0  0  0  0  0  0  0
    1.1142   -1.1513   -1.3867 H   0  0  0  0  0  0  0  0  0  0  0  0
    0.5514   -0.2288   -3.5985 H   0  0  0  0  0  0  0  0  0  0  0  0
   -0.6607   -0.1924   -2.3528 H   0  0  0  0  0  0  0  0  0  0  0  0
    0.7494    2.1683   -3.5510 H   0  0  0  0  0  0  0  0  0  0  0  0
   -0.9661    1.8732   -3.2356 H   0  0  0  0  0  0  0  0  0  0  0  0
    0.1034    2.3068   -1.9117 H   0  0  0  0  0  0  0  0  0  0  0  0
    3.2698   -1.4936   -0.4007 H   0  0  0  0  0  0  0  0  0  0  0  0
    4.5433   -0.3217   -0.7518 H   0  0  0  0  0  0  0  0  0  0  0  0
    3.2799    0.0991    0.3794 H   0  0  0  0  0  0  0  0  0  0  0  0
    3.0561   -0.2513   -2.6557 H   0  0  0  0  0  0  0  0  0  0  0  0
    2.7943    1.2454   -1.7219 H   0  0  0  0  0  0  0  0  0  0  0  0
  1  2  2  0  0  0  0
  1 23  1  0  0  0  0
  2  3  1  0  0  0  0
  2 24  1  0  0  0  0
  3  4  2  0  0  0  0
  3 25  1  0  0  0  0
  4  5  1  0  0  0  0
  4 26  1  0  0  0  0
  5  6  2  0  0  0  0
  5  7  1  0  0  0  0
  6  1  1  0  0  0  0
  6 27  1  0  0  0  0
  7  8  1  0  0  0  0
  7 28  1  0  0  0  0
  8  9  2  0  0  0  0
  9 10  1  0  0  0  0
  9 29  1  0  0  0  0
 10 11  2  0  0  0  0
 10 30  1  0  0  0  0
 11 12  1  0  0  0  0
 11 31  1  0  0  0  0
 12 13  2  0  0  0  0
 12 32  1  0  0  0  0
 13  8  1  0  0  0  0
 13 14  1  0  0  0  0
 14 15  1  0  0  0  0
 14 33  1  0  0  0  0
 14 34  1  0  0  0  0
 15 16  1  0  0  0  0
 15 17  2  0  0  0  0
 16 35  1  0  0  0  0
 18 19  1  0  0  0  0
 18 36  1  0  0  0  0
 19 20  1  0  0  0  0
 19 37  1  0  0  0  0
 19 38  1  0  0  0  0
 20 39  1  0  0  0  0
 20 40  1  0  0  0  0
 20 41  1  0  0  0  0
 21 22  1  0  0  0  0
 21 42  1  0  0  0  0
 21 43  1  0  0  0  0
 21 44  1  0  0  0  0
 22 18  1  0  0  0  0
 22 45  1  0  0  0  0
 22 46  1  0  0  0  0
M  END
>  <Mol_ID>
1037

>  <Formula>
C18H22Cl2N2O2

>  <MolWeight>
369.28548

>  <Cat>
S3063

>  <Name>
Diclofenac Diethylamine

>  <Synonyms>
N/A

>  <Target>
COX

>  <Form>
Diethylamine

>  <CAS>
78213-16-8

>  <URL>
http://selleckchem.com/products/diclofenac-diethylamine.html

$$$$
