Dicyclo hexyl Phthalate
 OpenBabel08302521363D

 50 52  0  0  0  0  0  0  0  0999 V2000
    1.0239   -0.2328   -0.0024 C   0  0  0  0  0  0  0  0  0  0  0  0
    0.1278    0.5850   -0.6148 O   0  0  0  0  0  0  0  0  0  0  0  0
    0.7207   -1.1376    0.7686 O   0  0  0  0  0  0  0  0  0  0  0  0
    2.4090    2.4989   -0.5812 C   0  0  0  0  0  0  0  0  0  0  0  0
    2.9412    3.4078   -1.4566 O   0  0  0  0  0  0  0  0  0  0  0  0
    1.5433    2.7274    0.2425 O   0  0  0  0  0  0  0  0  0  0  0  0
    2.4544   -0.0296   -0.3763 C   0  0  0  0  0  0  0  0  0  0  0  0
    3.0938    1.1896   -0.6638 C   0  0  0  0  0  0  0  0  0  0  0  0
    3.2452   -1.1992   -0.2943 C   0  0  0  0  0  0  0  0  0  0  0  0
    4.4937    1.2084   -0.8516 C   0  0  0  0  0  0  0  0  0  0  0  0
    4.6310   -1.1623   -0.4553 C   0  0  0  0  0  0  0  0  0  0  0  0
    5.2566    0.0447   -0.7330 C   0  0  0  0  0  0  0  0  0  0  0  0
   -1.2132    0.4825   -0.0721 C   0  0  0  0  0  0  0  0  0  0  0  0
   -2.0513   -0.5586   -0.8262 C   0  0  0  0  0  0  0  0  0  0  0  0
   -1.9099    1.8442   -0.1443 C   0  0  0  0  0  0  0  0  0  0  0  0
   -3.4624   -0.6614   -0.2398 C   0  0  0  0  0  0  0  0  0  0  0  0
   -3.3077    1.7702    0.4741 C   0  0  0  0  0  0  0  0  0  0  0  0
   -4.1688    0.6926   -0.1824 C   0  0  0  0  0  0  0  0  0  0  0  0
    2.3703    4.7304   -1.3621 C   0  0  0  0  0  0  0  0  0  0  0  0
    1.0807    4.8022   -2.1808 C   0  0  0  0  0  0  0  0  0  0  0  0
    3.3497    5.7975   -1.8759 C   0  0  0  0  0  0  0  0  0  0  0  0
    0.4214    6.1620   -1.9906 C   0  0  0  0  0  0  0  0  0  0  0  0
    2.7340    7.2019   -1.7948 C   0  0  0  0  0  0  0  0  0  0  0  0
    1.3475    7.2902   -2.4374 C   0  0  0  0  0  0  0  0  0  0  0  0
    2.7794   -2.1557   -0.0538 H   0  0  0  0  0  0  0  0  0  0  0  0
    5.0144    2.1479   -1.0304 H   0  0  0  0  0  0  0  0  0  0  0  0
    5.2172   -2.0706   -0.3322 H   0  0  0  0  0  0  0  0  0  0  0  0
    6.3407    0.0879   -0.8199 H   0  0  0  0  0  0  0  0  0  0  0  0
   -1.1626    0.2064    0.9906 H   0  0  0  0  0  0  0  0  0  0  0  0
   -2.1103   -0.2880   -1.8882 H   0  0  0  0  0  0  0  0  0  0  0  0
   -1.5658   -1.5402   -0.7933 H   0  0  0  0  0  0  0  0  0  0  0  0
   -1.3116    2.5993    0.3770 H   0  0  0  0  0  0  0  0  0  0  0  0
   -1.9775    2.1755   -1.1881 H   0  0  0  0  0  0  0  0  0  0  0  0
   -4.0631   -1.3605   -0.8334 H   0  0  0  0  0  0  0  0  0  0  0  0
   -3.4037   -1.0790    0.7733 H   0  0  0  0  0  0  0  0  0  0  0  0
   -3.8061    2.7422    0.3871 H   0  0  0  0  0  0  0  0  0  0  0  0
   -3.2197    1.5554    1.5470 H   0  0  0  0  0  0  0  0  0  0  0  0
   -4.4307    1.0086   -1.1993 H   0  0  0  0  0  0  0  0  0  0  0  0
   -5.1124    0.5910    0.3681 H   0  0  0  0  0  0  0  0  0  0  0  0
    2.1656    4.9603   -0.3096 H   0  0  0  0  0  0  0  0  0  0  0  0
    1.3076    4.6369   -3.2430 H   0  0  0  0  0  0  0  0  0  0  0  0
    0.3916    4.0017   -1.8940 H   0  0  0  0  0  0  0  0  0  0  0  0
    4.2783    5.7692   -1.2932 H   0  0  0  0  0  0  0  0  0  0  0  0
    3.6390    5.5780   -2.9115 H   0  0  0  0  0  0  0  0  0  0  0  0
   -0.5165    6.2040   -2.5543 H   0  0  0  0  0  0  0  0  0  0  0  0
    0.1652    6.2955   -0.9320 H   0  0  0  0  0  0  0  0  0  0  0  0
    3.4004    7.9297   -2.2731 H   0  0  0  0  0  0  0  0  0  0  0  0
    2.6541    7.4976   -0.7409 H   0  0  0  0  0  0  0  0  0  0  0  0
    1.4515    7.2587   -3.5287 H   0  0  0  0  0  0  0  0  0  0  0  0
    0.8889    8.2560   -2.1926 H   0  0  0  0  0  0  0  0  0  0  0  0
  1  2  1  0  0  0  0
  1  3  2  0  0  0  0
  1  7  1  0  0  0  0
  2 13  1  0  0  0  0
  4  5  1  0  0  0  0
  4  6  2  0  0  0  0
  4  8  1  0  0  0  0
  5 19  1  0  0  0  0
  7  8  1  0  0  0  0
  7  9  2  0  0  0  0
  8 10  2  0  0  0  0
  9 11  1  0  0  0  0
  9 25  1  0  0  0  0
 10 12  1  0  0  0  0
 10 26  1  0  0  0  0
 11 12  2  0  0  0  0
 11 27  1  0  0  0  0
 12 28  1  0  0  0  0
 13 14  1  0  0  0  0
 13 15  1  0  0  0  0
 13 29  1  0  0  0  0
 14 16  1  0  0  0  0
 14 30  1  0  0  0  0
 14 31  1  0  0  0  0
 15 17  1  0  0  0  0
 15 32  1  0  0  0  0
 15 33  1  0  0  0  0
 16 18  1  0  0  0  0
 16 34  1  0  0  0  0
 16 35  1  0  0  0  0
 17 18  1  0  0  0  0
 17 36  1  0  0  0  0
 17 37  1  0  0  0  0
 18 38  1  0  0  0  0
 18 39  1  0  0  0  0
 19 20  1  0  0  0  0
 19 21  1  0  0  0  0
 19 40  1  0  0  0  0
 20 22  1  0  0  0  0
 20 41  1  0  0  0  0
 20 42  1  0  0  0  0
 21 23  1  0  0  0  0
 21 43  1  0  0  0  0
 21 44  1  0  0  0  0
 22 24  1  0  0  0  0
 22 45  1  0  0  0  0
 22 46  1  0  0  0  0
 23 24  1  0  0  0  0
 23 47  1  0  0  0  0
 23 48  1  0  0  0  0
 24 49  1  0  0  0  0
 24 50  1  0  0  0  0
M  END
>  <Mol_ID>
7277

>  <Formula>
C20H26O4

>  <MolWeight>
330.41804

>  <Cat>
E4300

>  <Name>
Dicyclo hexyl Phthalate

>  <Synonyms>
Dicyclo hexyl Phthalate

>  <Target>
Others

>  <Form>
free base

>  <CAS>
84-61-7

>  <URL>
https://www.selleckchem.com/products/dicyclo-hexyl-phthalate.html

$$$$
