DicycloMine Hydrochloride.cdx
 OpenBabel08302519573D

 57 58  0  0  0  0  0  0  0  0999 V2000
   -1.5027    0.5095   -0.1486 C   0  0  0  0  0  0  0  0  0  0  0  0
   -1.1549   -0.8518    0.4594 C   0  0  0  0  0  0  0  0  0  0  0  0
    0.3635   -1.1483    0.3969 C   0  0  0  0  0  0  0  0  0  0  0  0
    1.0989    0.0095    1.1176 C   0  0  0  0  0  0  0  0  0  0  0  0
    0.7813    1.3603    0.4764 C   0  0  0  0  0  0  0  0  0  0  0  0
   -0.7145    1.6476    0.4831 C   0  0  0  0  0  0  0  0  0  0  0  0
    0.7945   -2.5972    0.8951 C   0  0  0  0  0  0  0  0  0  0  0  0
   -0.2415   -3.6588    0.4306 C   0  0  0  0  0  0  0  0  0  0  0  0
    0.0640   -5.0741    0.9130 C   0  0  0  0  0  0  0  0  0  0  0  0
    0.1449   -5.1171    2.4314 C   0  0  0  0  0  0  0  0  0  0  0  0
    1.1415   -4.0996    2.9714 C   0  0  0  0  0  0  0  0  0  0  0  0
    0.8961   -2.6818    2.4411 C   0  0  0  0  0  0  0  0  0  0  0  0
    2.2009   -2.8570    0.2732 C   0  0  0  0  0  0  0  0  0  0  0  0
    2.1165   -3.5598   -0.8954 O   0  0  0  0  0  0  0  0  0  0  0  0
    3.2416   -2.3910    0.7143 O   0  0  0  0  0  0  0  0  0  0  0  0
    3.2892   -3.6278   -1.7310 C   0  0  0  0  0  0  0  0  0  0  0  0
    4.4081   -4.5650   -1.2383 C   0  0  0  0  0  0  0  0  0  0  0  0
    4.0094   -5.9398   -0.8904 N   0  0  0  0  0  0  0  0  0  0  0  0
    3.4956   -6.7357   -2.0135 C   0  0  0  0  0  0  0  0  0  0  0  0
    4.3982   -6.9433   -3.2261 C   0  0  0  0  0  0  0  0  0  0  0  0
    5.0822   -6.5788   -0.1020 C   0  0  0  0  0  0  0  0  0  0  0  0
    4.7730   -7.9730    0.4342 C   0  0  0  0  0  0  0  0  0  0  0  0
   -1.3004    0.4829   -1.2264 H   0  0  0  0  0  0  0  0  0  0  0  0
   -2.5768    0.6989   -0.0340 H   0  0  0  0  0  0  0  0  0  0  0  0
   -1.5022   -0.8860    1.4994 H   0  0  0  0  0  0  0  0  0  0  0  0
   -1.7249   -1.5977   -0.1022 H   0  0  0  0  0  0  0  0  0  0  0  0
    0.6431   -1.0916   -0.6658 H   0  0  0  0  0  0  0  0  0  0  0  0
    0.8007    0.0469    2.1722 H   0  0  0  0  0  0  0  0  0  0  0  0
    2.1827   -0.1390    1.0953 H   0  0  0  0  0  0  0  0  0  0  0  0
    1.3094    2.1577    1.0123 H   0  0  0  0  0  0  0  0  0  0  0  0
    1.1534    1.3699   -0.5560 H   0  0  0  0  0  0  0  0  0  0  0  0
   -0.9143    2.5798   -0.0587 H   0  0  0  0  0  0  0  0  0  0  0  0
   -1.0545    1.8000    1.5145 H   0  0  0  0  0  0  0  0  0  0  0  0
   -1.2285   -3.4089    0.8406 H   0  0  0  0  0  0  0  0  0  0  0  0
   -0.3466   -3.6533   -0.6605 H   0  0  0  0  0  0  0  0  0  0  0  0
   -0.7299   -5.7486    0.5718 H   0  0  0  0  0  0  0  0  0  0  0  0
    0.9988   -5.4422    0.4775 H   0  0  0  0  0  0  0  0  0  0  0  0
   -0.8473   -4.9179    2.8558 H   0  0  0  0  0  0  0  0  0  0  0  0
    0.4299   -6.1243    2.7558 H   0  0  0  0  0  0  0  0  0  0  0  0
    1.0837   -4.0891    4.0666 H   0  0  0  0  0  0  0  0  0  0  0  0
    2.1588   -4.4171    2.7148 H   0  0  0  0  0  0  0  0  0  0  0  0
    1.7036   -2.0432    2.8195 H   0  0  0  0  0  0  0  0  0  0  0  0
   -0.0340   -2.3061    2.8871 H   0  0  0  0  0  0  0  0  0  0  0  0
    2.9450   -3.9505   -2.7194 H   0  0  0  0  0  0  0  0  0  0  0  0
    3.6914   -2.6152   -1.8640 H   0  0  0  0  0  0  0  0  0  0  0  0
    5.2058   -4.5825   -1.9931 H   0  0  0  0  0  0  0  0  0  0  0  0
    4.8544   -4.0937   -0.3545 H   0  0  0  0  0  0  0  0  0  0  0  0
    3.1787   -7.7209   -1.6541 H   0  0  0  0  0  0  0  0  0  0  0  0
    2.5664   -6.2715   -2.3586 H   0  0  0  0  0  0  0  0  0  0  0  0
    5.2900   -7.5278   -2.9803 H   0  0  0  0  0  0  0  0  0  0  0  0
    3.8466   -7.4966   -3.9956 H   0  0  0  0  0  0  0  0  0  0  0  0
    4.7084   -5.9963   -3.6778 H   0  0  0  0  0  0  0  0  0  0  0  0
    6.0261   -6.6090   -0.6621 H   0  0  0  0  0  0  0  0  0  0  0  0
    5.2648   -5.9537    0.7834 H   0  0  0  0  0  0  0  0  0  0  0  0
    4.7782   -8.7233   -0.3621 H   0  0  0  0  0  0  0  0  0  0  0  0
    5.5363   -8.2680    1.1639 H   0  0  0  0  0  0  0  0  0  0  0  0
    3.8033   -7.9996    0.9420 H   0  0  0  0  0  0  0  0  0  0  0  0
  1  2  1  0  0  0  0
  1 23  1  0  0  0  0
  1 24  1  0  0  0  0
  2  3  1  0  0  0  0
  2 25  1  0  0  0  0
  2 26  1  0  0  0  0
  3  4  1  0  0  0  0
  3  7  1  0  0  0  0
  3 27  1  0  0  0  0
  4  5  1  0  0  0  0
  4 28  1  0  0  0  0
  4 29  1  0  0  0  0
  5  6  1  0  0  0  0
  5 30  1  0  0  0  0
  5 31  1  0  0  0  0
  6  1  1  0  0  0  0
  6 32  1  0  0  0  0
  6 33  1  0  0  0  0
  7  8  1  0  0  0  0
  7 13  1  0  0  0  0
  8  9  1  0  0  0  0
  8 34  1  0  0  0  0
  8 35  1  0  0  0  0
  9 10  1  0  0  0  0
  9 36  1  0  0  0  0
  9 37  1  0  0  0  0
 10 11  1  0  0  0  0
 10 38  1  0  0  0  0
 10 39  1  0  0  0  0
 11 12  1  0  0  0  0
 11 40  1  0  0  0  0
 11 41  1  0  0  0  0
 12  7  1  0  0  0  0
 12 42  1  0  0  0  0
 12 43  1  0  0  0  0
 13 14  1  0  0  0  0
 13 15  2  0  0  0  0
 14 16  1  0  0  0  0
 16 17  1  0  0  0  0
 16 44  1  0  0  0  0
 16 45  1  0  0  0  0
 17 18  1  0  0  0  0
 17 46  1  0  0  0  0
 17 47  1  0  0  0  0
 18 19  1  0  0  0  0
 18 21  1  0  0  0  0
 19 20  1  0  0  0  0
 19 48  1  0  0  0  0
 19 49  1  0  0  0  0
 20 50  1  0  0  0  0
 20 51  1  0  0  0  0
 20 52  1  0  0  0  0
 21 22  1  0  0  0  0
 21 53  1  0  0  0  0
 21 54  1  0  0  0  0
 22 55  1  0  0  0  0
 22 56  1  0  0  0  0
 22 57  1  0  0  0  0
M  END
>  <Mol_ID>
2286

>  <Formula>
C19H36ClNO2

>  <MolWeight>
345.94764

>  <Cat>
S4373

>  <Name>
Dicyclomine HCl

>  <Synonyms>
Dicycloverine HCl

>  <Target>
Others

>  <Form>
Hydrochloride

>  <CAS>
67-92-5

>  <URL>
http://www.selleckchem.com/products/dicyclomine-hcl.html

$$$$
