DIDANOSINE (didanosine).cdx
 OpenBabel08302520433D

 29 31  0  0  0  0  0  0  0  0999 V2000
    0.2630   -1.1759    0.1338 C   0  0  2  0  0  0  0  0  0  0  0  0
   -1.1362   -0.7099   -0.2274 C   0  0  0  0  0  0  0  0  0  0  0  0
   -1.1059    0.7405    0.1882 C   0  0  0  0  0  0  0  0  0  0  0  0
    0.3132    1.1594   -0.1727 C   0  0  1  0  0  0  0  0  0  0  0  0
    1.1291   -0.0221    0.0237 O   0  0  0  0  0  0  0  0  0  0  0  0
    0.7677   -2.2971   -0.7760 C   0  0  0  0  0  0  0  0  0  0  0  0
    2.0834   -2.6890   -0.3941 O   0  0  0  0  0  0  0  0  0  0  0  0
    0.4826    1.6205   -1.5433 N   0  0  0  0  0  0  0  0  0  0  0  0
   -0.0882    2.7258   -2.1172 C   0  0  0  0  0  0  0  0  0  0  0  0
    0.3886    2.7382   -3.4123 C   0  0  0  0  0  0  0  0  0  0  0  0
    1.2422    1.6955   -3.6477 N   0  0  0  0  0  0  0  0  0  0  0  0
    1.2948    1.0561   -2.4985 C   0  0  0  0  0  0  0  0  0  0  0  0
   -0.9432    3.6036   -1.5340 N   0  0  0  0  0  0  0  0  0  0  0  0
   -1.3260    4.5396   -2.3508 C   0  0  0  0  0  0  0  0  0  0  0  0
   -0.9296    4.6666   -3.6723 N   0  0  0  0  0  0  0  0  0  0  0  0
   -0.0548    3.7939   -4.2979 C   0  0  0  0  0  0  0  0  0  0  0  0
    0.2775    3.9397   -5.4711 O   0  0  0  0  0  0  0  0  0  0  0  0
    0.3130   -1.4945    1.1817 H   0  0  0  0  0  0  0  0  0  0  0  0
   -1.3113   -0.7801   -1.3075 H   0  0  0  0  0  0  0  0  0  0  0  0
   -1.9144   -1.2890    0.2779 H   0  0  0  0  0  0  0  0  0  0  0  0
   -1.8963    1.3334   -0.2785 H   0  0  0  0  0  0  0  0  0  0  0  0
   -1.2377    0.7998    1.2762 H   0  0  0  0  0  0  0  0  0  0  0  0
    0.6870    1.9577    0.4779 H   0  0  0  0  0  0  0  0  0  0  0  0
    0.1180   -3.1748   -0.7131 H   0  0  0  0  0  0  0  0  0  0  0  0
    0.8146   -1.9738   -1.8206 H   0  0  0  0  0  0  0  0  0  0  0  0
    2.6243   -1.8771   -0.4061 H   0  0  0  0  0  0  0  0  0  0  0  0
    1.9027    0.1820   -2.3052 H   0  0  0  0  0  0  0  0  0  0  0  0
   -2.0247    5.3303   -2.0306 H   0  0  0  0  0  0  0  0  0  0  0  0
   -1.2701    5.4218   -4.2467 H   0  0  0  0  0  0  0  0  0  0  0  0
  1  2  1  0  0  0  0
  1 18  1  1  0  0  0
  1  6  1  0  0  0  0
  2  3  1  0  0  0  0
  2 19  1  0  0  0  0
  2 20  1  0  0  0  0
  3 21  1  0  0  0  0
  3 22  1  0  0  0  0
  4  3  1  0  0  0  0
  4  5  1  0  0  0  0
  4  8  1  0  0  0  0
  4 23  1  1  0  0  0
  5  1  1  0  0  0  0
  6  7  1  0  0  0  0
  6 24  1  0  0  0  0
  6 25  1  0  0  0  0
  7 26  1  0  0  0  0
  8  9  1  0  0  0  0
  9 10  2  0  0  0  0
  9 13  1  0  0  0  0
 10 11  1  0  0  0  0
 11 12  2  0  0  0  0
 12  8  1  0  0  0  0
 12 27  1  0  0  0  0
 13 14  2  0  0  0  0
 14 15  1  0  0  0  0
 14 28  1  0  0  0  0
 15 16  1  0  0  0  0
 15 29  1  0  0  0  0
 16 10  1  0  0  0  0
 16 17  2  0  0  0  0
M  END
>  <Mol_ID>
400

>  <Formula>
C10H12N4O3

>  <MolWeight>
236.22728

>  <Cat>
S1702

>  <Name>
Didanosine

>  <Synonyms>
N/A

>  <Target>
Reverse Transcriptase

>  <Form>
free base

>  <CAS>
69655-05-6

>  <URL>
http://selleckchem.com/products/Didanosine(Videx).html

$$$$
