Dienestrol
 OpenBabel08302520303D

 38 39  0  0  0  0  0  0  0  0999 V2000
    0.3166    0.9300   -1.2208 C   0  0  0  0  0  0  0  0  0  0  0  0
    1.0394   -0.0374   -0.5374 C   0  0  0  0  0  0  0  0  0  0  0  0
    0.3876   -0.9642    0.2614 C   0  0  0  0  0  0  0  0  0  0  0  0
   -1.0063   -0.9093    0.3958 C   0  0  0  0  0  0  0  0  0  0  0  0
   -1.7743    0.0485   -0.2916 C   0  0  0  0  0  0  0  0  0  0  0  0
   -1.0821    0.9493   -1.1191 C   0  0  0  0  0  0  0  0  0  0  0  0
    2.3974   -0.1134   -0.6345 O   0  0  0  0  0  0  0  0  0  0  0  0
   -3.2695    0.0525   -0.1605 C   0  0  0  0  0  0  0  0  0  0  0  0
   -4.0149    1.1851   -0.1080 C   0  0  0  0  0  0  0  0  0  0  0  0
   -4.0337   -1.2222   -0.0409 C   0  0  0  0  0  0  0  0  0  0  0  0
   -3.6521    2.6361   -0.1047 C   0  0  0  0  0  0  0  0  0  0  0  0
   -4.0668   -2.2260   -1.1282 C   0  0  0  0  0  0  0  0  0  0  0  0
   -4.7884   -1.4586    1.0594 C   0  0  0  0  0  0  0  0  0  0  0  0
   -5.6941   -2.6259    1.3293 C   0  0  0  0  0  0  0  0  0  0  0  0
   -5.0251   -2.1144   -2.1461 C   0  0  0  0  0  0  0  0  0  0  0  0
   -5.1812   -3.1377   -3.0848 C   0  0  0  0  0  0  0  0  0  0  0  0
   -4.3716   -4.2655   -3.0070 C   0  0  0  0  0  0  0  0  0  0  0  0
   -3.3898   -4.3767   -2.0272 C   0  0  0  0  0  0  0  0  0  0  0  0
   -3.2403   -3.3576   -1.0851 C   0  0  0  0  0  0  0  0  0  0  0  0
   -4.5207   -5.3080   -3.8735 O   0  0  0  0  0  0  0  0  0  0  0  0
    0.8133    1.6694   -1.8411 H   0  0  0  0  0  0  0  0  0  0  0  0
    0.9573   -1.7313    0.7785 H   0  0  0  0  0  0  0  0  0  0  0  0
   -1.4868   -1.6399    1.0419 H   0  0  0  0  0  0  0  0  0  0  0  0
   -1.6228    1.6852   -1.7072 H   0  0  0  0  0  0  0  0  0  0  0  0
    2.7012    0.5583   -1.2667 H   0  0  0  0  0  0  0  0  0  0  0  0
   -5.0973    1.0613   -0.0306 H   0  0  0  0  0  0  0  0  0  0  0  0
   -4.1319    3.1317   -0.9559 H   0  0  0  0  0  0  0  0  0  0  0  0
   -4.0370    3.1017    0.8088 H   0  0  0  0  0  0  0  0  0  0  0  0
   -2.5844    2.8455   -0.1407 H   0  0  0  0  0  0  0  0  0  0  0  0
   -4.7811   -0.7210    1.8603 H   0  0  0  0  0  0  0  0  0  0  0  0
   -5.4362   -3.0775    2.2902 H   0  0  0  0  0  0  0  0  0  0  0  0
   -6.7305   -2.2754    1.3830 H   0  0  0  0  0  0  0  0  0  0  0  0
   -5.6500   -3.4109    0.5716 H   0  0  0  0  0  0  0  0  0  0  0  0
   -5.6806   -1.2481   -2.1826 H   0  0  0  0  0  0  0  0  0  0  0  0
   -5.9527   -3.0472   -3.8425 H   0  0  0  0  0  0  0  0  0  0  0  0
   -2.7699   -5.2637   -1.9761 H   0  0  0  0  0  0  0  0  0  0  0  0
   -2.5020   -3.4725   -0.2969 H   0  0  0  0  0  0  0  0  0  0  0  0
   -5.2760   -5.1210   -4.4542 H   0  0  0  0  0  0  0  0  0  0  0  0
  1  2  2  0  0  0  0
  1 21  1  0  0  0  0
  2  3  1  0  0  0  0
  2  7  1  0  0  0  0
  3  4  2  0  0  0  0
  3 22  1  0  0  0  0
  4  5  1  0  0  0  0
  4 23  1  0  0  0  0
  5  6  2  0  0  0  0
  5  8  1  0  0  0  0
  6  1  1  0  0  0  0
  6 24  1  0  0  0  0
  7 25  1  0  0  0  0
  8  9  2  0  0  0  0
  8 10  1  0  0  0  0
  9 11  1  0  0  0  0
  9 26  1  0  0  0  0
 10 12  1  0  0  0  0
 10 13  2  0  0  0  0
 11 27  1  0  0  0  0
 11 28  1  0  0  0  0
 11 29  1  0  0  0  0
 12 15  2  0  0  0  0
 13 14  1  0  0  0  0
 13 30  1  0  0  0  0
 14 31  1  0  0  0  0
 14 32  1  0  0  0  0
 14 33  1  0  0  0  0
 15 16  1  0  0  0  0
 15 34  1  0  0  0  0
 16 17  2  0  0  0  0
 16 35  1  0  0  0  0
 17 18  1  0  0  0  0
 17 20  1  0  0  0  0
 18 19  2  0  0  0  0
 18 36  1  0  0  0  0
 19 12  1  0  0  0  0
 19 37  1  0  0  0  0
 20 38  1  0  0  0  0
M  END
>  <Mol_ID>
3310

>  <Formula>
C18H18O2

>  <MolWeight>
266.33432

>  <Cat>
S1858

>  <Name>
Dienestrol

>  <Synonyms>
Restrol

>  <Target>
Estrogen/progestogen Receptor

>  <Form>
Free Base

>  <CAS>
84-17-3

>  <URL>
http://www.selleckchem.com/products/Dienestrol(Restrol).html

$$$$
