Diethyl malonate
 OpenBabel08302520383D

 23 22  0  0  0  0  0  0  0  0999 V2000
    1.1828    0.1069    0.0877 C   0  0  0  0  0  0  0  0  0  0  0  0
    0.2374   -0.1104    1.2246 C   0  0  0  0  0  0  0  0  0  0  0  0
    0.5364    0.5652   -1.0211 O   0  0  0  0  0  0  0  0  0  0  0  0
    2.3723   -0.1814    0.1369 O   0  0  0  0  0  0  0  0  0  0  0  0
   -0.6241    1.0583    1.5774 C   0  0  0  0  0  0  0  0  0  0  0  0
    1.3463    0.6953   -2.2004 C   0  0  0  0  0  0  0  0  0  0  0  0
    0.0224    2.2404    1.3990 O   0  0  0  0  0  0  0  0  0  0  0  0
   -1.7439    0.9401    2.0609 O   0  0  0  0  0  0  0  0  0  0  0  0
    2.0805    2.0236   -2.2065 C   0  0  0  0  0  0  0  0  0  0  0  0
   -0.6917    3.4204    1.8001 C   0  0  0  0  0  0  0  0  0  0  0  0
   -1.6850    3.8410    0.7326 C   0  0  0  0  0  0  0  0  0  0  0  0
   -0.4002   -0.9629    0.9667 H   0  0  0  0  0  0  0  0  0  0  0  0
    0.8177   -0.3715    2.1161 H   0  0  0  0  0  0  0  0  0  0  0  0
    2.0431   -0.1464   -2.2916 H   0  0  0  0  0  0  0  0  0  0  0  0
    0.6716    0.6444   -3.0614 H   0  0  0  0  0  0  0  0  0  0  0  0
    2.6949    2.1441   -1.3093 H   0  0  0  0  0  0  0  0  0  0  0  0
    2.7262    2.1038   -3.0858 H   0  0  0  0  0  0  0  0  0  0  0  0
    1.3676    2.8546   -2.2187 H   0  0  0  0  0  0  0  0  0  0  0  0
   -1.1793    3.2734    2.7709 H   0  0  0  0  0  0  0  0  0  0  0  0
    0.0566    4.2087    1.9321 H   0  0  0  0  0  0  0  0  0  0  0  0
   -2.5202    3.1357    0.6753 H   0  0  0  0  0  0  0  0  0  0  0  0
   -2.0910    4.8328    0.9520 H   0  0  0  0  0  0  0  0  0  0  0  0
   -1.2120    3.8586   -0.2543 H   0  0  0  0  0  0  0  0  0  0  0  0
  1  2  1  0  0  0  0
  1  3  1  0  0  0  0
  1  4  2  0  0  0  0
  2  5  1  0  0  0  0
  2 12  1  0  0  0  0
  2 13  1  0  0  0  0
  3  6  1  0  0  0  0
  5  7  1  0  0  0  0
  5  8  2  0  0  0  0
  6  9  1  0  0  0  0
  6 14  1  0  0  0  0
  6 15  1  0  0  0  0
  7 10  1  0  0  0  0
  9 16  1  0  0  0  0
  9 17  1  0  0  0  0
  9 18  1  0  0  0  0
 10 11  1  0  0  0  0
 10 19  1  0  0  0  0
 10 20  1  0  0  0  0
 11 21  1  0  0  0  0
 11 22  1  0  0  0  0
 11 23  1  0  0  0  0
M  END
>  <Mol_ID>
3489

>  <Formula>
C7H12O4

>  <MolWeight>
160.16778

>  <Cat>
S6208

>  <Name>
Diethyl malonate

>  <Synonyms>
N/A

>  <Target>
Others

>  <Form>
free base

>  <CAS>
105-53-3

>  <URL>
http://www.selleck.cn/products/diethyl-malonate.html

$$$$
