Diethyl succinate
 OpenBabel08302520383D

 26 25  0  0  0  0  0  0  0  0999 V2000
    1.0849    0.2569    0.0156 C   0  0  0  0  0  0  0  0  0  0  0  0
    0.4070   -0.6746    0.9946 C   0  0  0  0  0  0  0  0  0  0  0  0
    0.5828    1.5175    0.0610 O   0  0  0  0  0  0  0  0  0  0  0  0
    1.9237   -0.1327   -0.7878 O   0  0  0  0  0  0  0  0  0  0  0  0
   -0.2467   -0.0128    2.2006 C   0  0  0  0  0  0  0  0  0  0  0  0
    1.0266    2.4054   -0.9806 C   0  0  0  0  0  0  0  0  0  0  0  0
    0.7005    0.6880    3.1448 C   0  0  0  0  0  0  0  0  0  0  0  0
    2.3436    3.0671   -0.6199 C   0  0  0  0  0  0  0  0  0  0  0  0
    1.9577    0.1767    3.0804 O   0  0  0  0  0  0  0  0  0  0  0  0
    0.3326    1.5478    3.9339 O   0  0  0  0  0  0  0  0  0  0  0  0
    2.8871    0.6736    4.0558 C   0  0  0  0  0  0  0  0  0  0  0  0
    3.4731    2.0025    3.6173 C   0  0  0  0  0  0  0  0  0  0  0  0
   -0.3622   -1.2174    0.4335 H   0  0  0  0  0  0  0  0  0  0  0  0
    1.1526   -1.4060    1.3263 H   0  0  0  0  0  0  0  0  0  0  0  0
   -0.9969    0.7160    1.8737 H   0  0  0  0  0  0  0  0  0  0  0  0
   -0.7622   -0.7823    2.7875 H   0  0  0  0  0  0  0  0  0  0  0  0
    1.0956    1.8797   -1.9403 H   0  0  0  0  0  0  0  0  0  0  0  0
    0.2535    3.1726   -1.0952 H   0  0  0  0  0  0  0  0  0  0  0  0
    3.1391    2.3262   -0.4941 H   0  0  0  0  0  0  0  0  0  0  0  0
    2.6461    3.7706   -1.4016 H   0  0  0  0  0  0  0  0  0  0  0  0
    2.2571    3.6099    0.3267 H   0  0  0  0  0  0  0  0  0  0  0  0
    2.4145    0.7473    5.0424 H   0  0  0  0  0  0  0  0  0  0  0  0
    3.6870   -0.0695    4.1389 H   0  0  0  0  0  0  0  0  0  0  0  0
    2.6961    2.7682    3.5289 H   0  0  0  0  0  0  0  0  0  0  0  0
    4.2207    2.3492    4.3364 H   0  0  0  0  0  0  0  0  0  0  0  0
    3.9428    1.9096    2.6333 H   0  0  0  0  0  0  0  0  0  0  0  0
  1  2  1  0  0  0  0
  1  3  1  0  0  0  0
  1  4  2  0  0  0  0
  2  5  1  0  0  0  0
  2 13  1  0  0  0  0
  2 14  1  0  0  0  0
  3  6  1  0  0  0  0
  5  7  1  0  0  0  0
  5 15  1  0  0  0  0
  5 16  1  0  0  0  0
  6  8  1  0  0  0  0
  6 17  1  0  0  0  0
  6 18  1  0  0  0  0
  7  9  1  0  0  0  0
  7 10  2  0  0  0  0
  8 19  1  0  0  0  0
  8 20  1  0  0  0  0
  8 21  1  0  0  0  0
  9 11  1  0  0  0  0
 11 12  1  0  0  0  0
 11 22  1  0  0  0  0
 11 23  1  0  0  0  0
 12 24  1  0  0  0  0
 12 25  1  0  0  0  0
 12 26  1  0  0  0  0
M  END
>  <Mol_ID>
3490

>  <Formula>
C8H14O4

>  <MolWeight>
174.19436

>  <Cat>
S6209

>  <Name>
Diethyl succinate

>  <Synonyms>
Butanedioic acid diethyl ester

>  <Target>
Others

>  <Form>
free base

>  <CAS>
123-25-1

>  <URL>
http://www.selleck.cn/products/dethyl-succinate.html

$$$$
