Diethyl phosphate
 OpenBabel08302521293D

 20 19  0  0  0  0  0  0  0  0999 V2000
   -1.1787   -1.4059   -1.4751 C   0  0  0  0  0  0  0  0  0  0  0  0
    0.3231   -1.5248   -1.3281 C   0  0  0  0  0  0  0  0  0  0  0  0
    0.9241   -0.6124   -2.2282 O   0  0  0  0  0  0  0  0  0  0  0  0
    2.6541   -0.6124   -2.2282 P   0  0  0  0  0  0  0  0  0  0  0  0
    2.6675   -0.0713   -3.7739 O   0  0  0  0  0  0  0  0  0  0  0  0
    2.6480   -1.0722   -4.7758 C   0  0  0  0  0  0  0  0  0  0  0  0
    2.7060   -0.4191   -6.1401 C   0  0  0  0  0  0  0  0  0  0  0  0
    2.6751    0.5339   -1.2227 O   0  0  0  0  0  0  0  0  0  0  0  0
    4.3841   -0.6124   -2.2282 O   0  0  0  0  0  0  0  0  0  0  0  0
   -1.5188   -0.4164   -1.1524 H   0  0  0  0  0  0  0  0  0  0  0  0
   -1.6935   -2.1639   -0.8774 H   0  0  0  0  0  0  0  0  0  0  0  0
   -1.4791   -1.5174   -2.5230 H   0  0  0  0  0  0  0  0  0  0  0  0
    0.6328   -1.2937   -0.3051 H   0  0  0  0  0  0  0  0  0  0  0  0
    0.6511   -2.5378   -1.5814 H   0  0  0  0  0  0  0  0  0  0  0  0
    3.5070   -1.7389   -4.6420 H   0  0  0  0  0  0  0  0  0  0  0  0
    1.7290   -1.6622   -4.6782 H   0  0  0  0  0  0  0  0  0  0  0  0
    3.6383    0.1392   -6.2593 H   0  0  0  0  0  0  0  0  0  0  0  0
    2.6424   -1.1692   -6.9327 H   0  0  0  0  0  0  0  0  0  0  0  0
    1.8859    0.2964   -6.2620 H   0  0  0  0  0  0  0  0  0  0  0  0
    4.7296   -1.3731   -1.7345 H   0  0  0  0  0  0  0  0  0  0  0  0
  1  2  1  0  0  0  0
  1 10  1  0  0  0  0
  1 11  1  0  0  0  0
  1 12  1  0  0  0  0
  2  3  1  0  0  0  0
  2 13  1  0  0  0  0
  2 14  1  0  0  0  0
  3  4  1  0  0  0  0
  4  5  1  0  0  0  0
  4  8  2  0  0  0  0
  4  9  1  0  0  0  0
  5  6  1  0  0  0  0
  6  7  1  0  0  0  0
  6 15  1  0  0  0  0
  6 16  1  0  0  0  0
  7 17  1  0  0  0  0
  7 18  1  0  0  0  0
  7 19  1  0  0  0  0
  9 20  1  0  0  0  0
M  END
>  <Mol_ID>
5477

>  <Formula>
C4H11O4P

>  <MolWeight>
154.101501

>  <Cat>
S3312

>  <Name>
Diethyl phosphate

>  <Synonyms>
DEP, DPF, Diethyl phosphoric acid, diethyl hydrogen phosphate

>  <Target>
Interleukins

>  <Form>
Phosphate

>  <CAS>
598-02-7

>  <URL>
https://www.selleckchem.com/products/diethyl-phosphate.html

$$$$
