DIETHYLSTILBESTROL (diethylstilbestrol).cdx
 OpenBabel08302522063D

 40 41  0  0  0  0  0  0  0  0999 V2000
    0.9519   -0.0104   -0.1371 C   0  0  0  0  0  0  0  0  0  0  0  0
    0.2661   -0.1642    1.0632 C   0  0  0  0  0  0  0  0  0  0  0  0
   -1.1320   -0.1015    1.0707 C   0  0  0  0  0  0  0  0  0  0  0  0
   -1.8453    0.1053   -0.1193 C   0  0  0  0  0  0  0  0  0  0  0  0
   -1.1354    0.2610   -1.3177 C   0  0  0  0  0  0  0  0  0  0  0  0
    0.2634    0.2023   -1.3269 C   0  0  0  0  0  0  0  0  0  0  0  0
    2.3134   -0.0670   -0.1912 O   0  0  0  0  0  0  0  0  0  0  0  0
   -3.3256    0.1134   -0.1153 C   0  0  0  0  0  0  0  0  0  0  0  0
   -4.0193    1.2734    0.0257 C   0  0  0  0  0  0  0  0  0  0  0  0
   -4.0136   -1.2392   -0.2756 C   0  0  0  0  0  0  0  0  0  0  0  0
   -3.1384   -2.4902   -0.3460 C   0  0  0  0  0  0  0  0  0  0  0  0
   -5.5014    1.2948   -0.0271 C   0  0  0  0  0  0  0  0  0  0  0  0
   -3.4105    2.6561    0.1821 C   0  0  0  0  0  0  0  0  0  0  0  0
   -3.2638    3.0625    1.6434 C   0  0  0  0  0  0  0  0  0  0  0  0
   -6.2677    1.0839    1.1263 C   0  0  0  0  0  0  0  0  0  0  0  0
   -7.6647    1.1504    1.0739 C   0  0  0  0  0  0  0  0  0  0  0  0
   -8.2900    1.4270   -0.1384 C   0  0  0  0  0  0  0  0  0  0  0  0
   -7.5470    1.6310   -1.2930 C   0  0  0  0  0  0  0  0  0  0  0  0
   -6.1526    1.5623   -1.2400 C   0  0  0  0  0  0  0  0  0  0  0  0
   -9.6485    1.5125   -0.2344 O   0  0  0  0  0  0  0  0  0  0  0  0
    0.7948   -0.3436    1.9937 H   0  0  0  0  0  0  0  0  0  0  0  0
   -1.6663   -0.2358    2.0081 H   0  0  0  0  0  0  0  0  0  0  0  0
   -1.6641    0.4139   -2.2552 H   0  0  0  0  0  0  0  0  0  0  0  0
    0.8100    0.3135   -2.2565 H   0  0  0  0  0  0  0  0  0  0  0  0
    2.6564   -0.1969    0.7079 H   0  0  0  0  0  0  0  0  0  0  0  0
   -4.6994   -1.3815    0.5687 H   0  0  0  0  0  0  0  0  0  0  0  0
   -4.6211   -1.2141   -1.1890 H   0  0  0  0  0  0  0  0  0  0  0  0
   -2.5565   -2.6268    0.5709 H   0  0  0  0  0  0  0  0  0  0  0  0
   -3.7714   -3.3759   -0.4661 H   0  0  0  0  0  0  0  0  0  0  0  0
   -2.4534   -2.4584   -1.1988 H   0  0  0  0  0  0  0  0  0  0  0  0
   -2.4327    2.7102   -0.3063 H   0  0  0  0  0  0  0  0  0  0  0  0
   -4.0261    3.4056   -0.3332 H   0  0  0  0  0  0  0  0  0  0  0  0
   -2.7710    2.2837    2.2336 H   0  0  0  0  0  0  0  0  0  0  0  0
   -2.6638    3.9750    1.7202 H   0  0  0  0  0  0  0  0  0  0  0  0
   -4.2389    3.2674    2.0977 H   0  0  0  0  0  0  0  0  0  0  0  0
   -5.7783    0.8778    2.0756 H   0  0  0  0  0  0  0  0  0  0  0  0
   -8.2378    0.9926    1.9807 H   0  0  0  0  0  0  0  0  0  0  0  0
   -8.0482    1.8506   -2.2316 H   0  0  0  0  0  0  0  0  0  0  0  0
   -5.5763    1.7297   -2.1464 H   0  0  0  0  0  0  0  0  0  0  0  0
  -10.0332    1.3523    0.6428 H   0  0  0  0  0  0  0  0  0  0  0  0
  1  2  2  0  0  0  0
  1  7  1  0  0  0  0
  2  3  1  0  0  0  0
  2 21  1  0  0  0  0
  3  4  2  0  0  0  0
  3 22  1  0  0  0  0
  4  5  1  0  0  0  0
  4  8  1  0  0  0  0
  5  6  2  0  0  0  0
  5 23  1  0  0  0  0
  6  1  1  0  0  0  0
  6 24  1  0  0  0  0
  7 25  1  0  0  0  0
  8  9  2  0  0  0  0
  8 10  1  0  0  0  0
  9 12  1  0  0  0  0
  9 13  1  0  0  0  0
 10 11  1  0  0  0  0
 10 26  1  0  0  0  0
 10 27  1  0  0  0  0
 11 28  1  0  0  0  0
 11 29  1  0  0  0  0
 11 30  1  0  0  0  0
 12 15  2  0  0  0  0
 13 14  1  0  0  0  0
 13 31  1  0  0  0  0
 13 32  1  0  0  0  0
 14 33  1  0  0  0  0
 14 34  1  0  0  0  0
 14 35  1  0  0  0  0
 15 16  1  0  0  0  0
 15 36  1  0  0  0  0
 16 17  2  0  0  0  0
 16 37  1  0  0  0  0
 17 18  1  0  0  0  0
 17 20  1  0  0  0  0
 18 19  2  0  0  0  0
 18 38  1  0  0  0  0
 19 12  1  0  0  0  0
 19 39  1  0  0  0  0
 20 40  1  0  0  0  0
M  END
>  <Mol_ID>
162

>  <Formula>
C18H20O2

>  <MolWeight>
268.3502

>  <Cat>
S1859

>  <Name>
Diethylstilbestrol

>  <Synonyms>
Stilbestrol

>  <Target>
Estrogen/progestogen Receptor

>  <Form>
free base

>  <CAS>
56-53-1

>  <URL>
http://selleckchem.com/products/Diethylstilbestrol(Stilbestrol).html

$$$$
