Diethyl Pyrocarbonate
 OpenBabel08302521383D

 21 20  0  0  0  0  0  0  0  0999 V2000
    0.8665    0.2614    0.2456 C   0  0  0  0  0  0  0  0  0  0  0  0
    0.2170   -0.0548    1.3928 O   0  0  0  0  0  0  0  0  0  0  0  0
    0.1135    0.9067   -0.6839 O   0  0  0  0  0  0  0  0  0  0  0  0
    2.0607    0.0197    0.1127 O   0  0  0  0  0  0  0  0  0  0  0  0
   -1.1269   -0.0949    1.4367 C   0  0  0  0  0  0  0  0  0  0  0  0
    0.7694    1.1755   -1.9338 C   0  0  0  0  0  0  0  0  0  0  0  0
   -1.4592   -0.5010    2.6952 O   0  0  0  0  0  0  0  0  0  0  0  0
   -1.9372    0.1250    0.5504 O   0  0  0  0  0  0  0  0  0  0  0  0
    1.4532    2.5303   -1.9058 C   0  0  0  0  0  0  0  0  0  0  0  0
   -2.8493   -0.7324    2.9680 C   0  0  0  0  0  0  0  0  0  0  0  0
   -3.4888    0.5283    3.5154 C   0  0  0  0  0  0  0  0  0  0  0  0
    1.4812    0.3815   -2.1895 H   0  0  0  0  0  0  0  0  0  0  0  0
   -0.0011    1.1694   -2.7117 H   0  0  0  0  0  0  0  0  0  0  0  0
    2.1476    2.6101   -1.0638 H   0  0  0  0  0  0  0  0  0  0  0  0
    2.0061    2.7020   -2.8346 H   0  0  0  0  0  0  0  0  0  0  0  0
    0.7143    3.3297   -1.7896 H   0  0  0  0  0  0  0  0  0  0  0  0
   -3.3815   -1.1039    2.0850 H   0  0  0  0  0  0  0  0  0  0  0  0
   -2.8951   -1.5224    3.7255 H   0  0  0  0  0  0  0  0  0  0  0  0
   -3.5039    1.3170    2.7570 H   0  0  0  0  0  0  0  0  0  0  0  0
   -4.5155    0.3337    3.8387 H   0  0  0  0  0  0  0  0  0  0  0  0
   -2.9179    0.9127    4.3669 H   0  0  0  0  0  0  0  0  0  0  0  0
  1  2  1  0  0  0  0
  1  3  1  0  0  0  0
  1  4  2  0  0  0  0
  2  5  1  0  0  0  0
  3  6  1  0  0  0  0
  5  7  1  0  0  0  0
  5  8  2  0  0  0  0
  6  9  1  0  0  0  0
  6 12  1  0  0  0  0
  6 13  1  0  0  0  0
  7 10  1  0  0  0  0
  9 14  1  0  0  0  0
  9 15  1  0  0  0  0
  9 16  1  0  0  0  0
 10 11  1  0  0  0  0
 10 17  1  0  0  0  0
 10 18  1  0  0  0  0
 11 19  1  0  0  0  0
 11 20  1  0  0  0  0
 11 21  1  0  0  0  0
M  END
>  <Mol_ID>
7605

>  <Formula>
C6H10O5

>  <MolWeight>
162.1406

>  <Cat>
E2921

>  <Name>
Diethyl Pyrocarbonate

>  <Target>
DNA/RNA Synthesis

>  <Form>
free base

>  <CAS>
1609-47-8

>  <URL>
https://www.selleckchem.com/products/diethyl-pyrocarbonate.html

$$$$
