Difluoxacin hydrochloride .cdx
 OpenBabel08302520143D

 48 51  0  0  0  0  0  0  0  0999 V2000
   -0.3576    1.0989   -1.4317 C   0  0  0  0  0  0  0  0  0  0  0  0
    0.7213    0.1098   -1.2048 N   0  0  0  0  0  0  0  0  0  0  0  0
    0.1345   -1.1569   -0.7084 C   0  0  0  0  0  0  0  0  0  0  0  0
   -0.7320   -0.9644    0.5630 C   0  0  0  0  0  0  0  0  0  0  0  0
   -1.7669    0.0487    0.2934 N   0  0  0  0  0  0  0  0  0  0  0  0
   -1.2183    1.3348   -0.1687 C   0  0  0  0  0  0  0  0  0  0  0  0
    1.4740   -0.1181   -2.4357 C   0  0  0  0  0  0  0  0  0  0  0  0
   -2.9994    0.0018    0.9260 C   0  0  0  0  0  0  0  0  0  0  0  0
   -4.1144    0.5632    0.2720 C   0  0  0  0  0  0  0  0  0  0  0  0
   -5.4436    0.3348    0.6736 C   0  0  0  0  0  0  0  0  0  0  0  0
   -5.6190   -0.3284    1.9010 C   0  0  0  0  0  0  0  0  0  0  0  0
   -4.5325   -0.8128    2.6354 C   0  0  0  0  0  0  0  0  0  0  0  0
   -3.2474   -0.6761    2.1264 C   0  0  0  0  0  0  0  0  0  0  0  0
   -6.5868    0.7344   -0.1149 N   0  0  0  0  0  0  0  0  0  0  0  0
   -7.8462    0.4468    0.4277 C   0  0  0  0  0  0  0  0  0  0  0  0
   -8.1194   -0.1396    1.6027 C   0  0  0  0  0  0  0  0  0  0  0  0
   -6.9765   -0.5421    2.4357 C   0  0  0  0  0  0  0  0  0  0  0  0
   -6.5283    1.2765   -1.4542 C   0  0  0  0  0  0  0  0  0  0  0  0
   -9.5273   -0.3822    1.9851 C   0  0  0  0  0  0  0  0  0  0  0  0
   -9.6877   -0.9921    3.1789 O   0  0  0  0  0  0  0  0  0  0  0  0
  -10.4759   -0.0666    1.2820 O   0  0  0  0  0  0  0  0  0  0  0  0
   -7.1638   -1.0586    3.5354 O   0  0  0  0  0  0  0  0  0  0  0  0
   -2.2389   -1.2071    2.8343 F   0  0  0  0  0  0  0  0  0  0  0  0
   -5.5919    0.8194   -2.4036 C   0  0  0  0  0  0  0  0  0  0  0  0
   -5.4941    1.3939   -3.6751 C   0  0  0  0  0  0  0  0  0  0  0  0
   -6.3895    2.3830   -4.0478 C   0  0  0  0  0  0  0  0  0  0  0  0
   -7.3721    2.8139   -3.1690 C   0  0  0  0  0  0  0  0  0  0  0  0
   -7.4308    2.2762   -1.8768 C   0  0  0  0  0  0  0  0  0  0  0  0
   -6.3102    2.9194   -5.2720 F   0  0  0  0  0  0  0  0  0  0  0  0
    0.0786    2.0566   -1.7364 H   0  0  0  0  0  0  0  0  0  0  0  0
   -1.0148    0.7606   -2.2453 H   0  0  0  0  0  0  0  0  0  0  0  0
   -0.4926   -1.6096   -1.4900 H   0  0  0  0  0  0  0  0  0  0  0  0
    0.9343   -1.8705   -0.4783 H   0  0  0  0  0  0  0  0  0  0  0  0
   -0.1054   -0.6501    1.4066 H   0  0  0  0  0  0  0  0  0  0  0  0
   -1.1773   -1.9366    0.8054 H   0  0  0  0  0  0  0  0  0  0  0  0
   -0.6055    1.7747    0.6282 H   0  0  0  0  0  0  0  0  0  0  0  0
   -1.9962    2.0657   -0.4119 H   0  0  0  0  0  0  0  0  0  0  0  0
    2.2869   -0.8311   -2.2614 H   0  0  0  0  0  0  0  0  0  0  0  0
    0.8435   -0.5042   -3.2449 H   0  0  0  0  0  0  0  0  0  0  0  0
    1.9382    0.8141   -2.7756 H   0  0  0  0  0  0  0  0  0  0  0  0
   -3.9182    1.1345   -0.6268 H   0  0  0  0  0  0  0  0  0  0  0  0
   -4.6728   -1.3291    3.5810 H   0  0  0  0  0  0  0  0  0  0  0  0
   -8.6778    0.7039   -0.2269 H   0  0  0  0  0  0  0  0  0  0  0  0
   -8.8461   -1.1817    3.6562 H   0  0  0  0  0  0  0  0  0  0  0  0
   -4.9205   -0.0040   -2.1730 H   0  0  0  0  0  0  0  0  0  0  0  0
   -4.7320    1.0641   -4.3742 H   0  0  0  0  0  0  0  0  0  0  0  0
   -8.0817    3.5710   -3.4882 H   0  0  0  0  0  0  0  0  0  0  0  0
   -8.1893    2.6658   -1.2010 H   0  0  0  0  0  0  0  0  0  0  0  0
  1  2  1  0  0  0  0
  1 30  1  0  0  0  0
  1 31  1  0  0  0  0
  2  3  1  0  0  0  0
  2  7  1  0  0  0  0
  3  4  1  0  0  0  0
  3 32  1  0  0  0  0
  3 33  1  0  0  0  0
  4  5  1  0  0  0  0
  4 34  1  0  0  0  0
  4 35  1  0  0  0  0
  5  6  1  0  0  0  0
  5  8  1  0  0  0  0
  6  1  1  0  0  0  0
  6 36  1  0  0  0  0
  6 37  1  0  0  0  0
  7 38  1  0  0  0  0
  7 39  1  0  0  0  0
  7 40  1  0  0  0  0
  8  9  2  0  0  0  0
  9 10  1  0  0  0  0
  9 41  1  0  0  0  0
 10 11  2  0  0  0  0
 10 14  1  0  0  0  0
 11 12  1  0  0  0  0
 12 13  2  0  0  0  0
 12 42  1  0  0  0  0
 13  8  1  0  0  0  0
 13 23  1  0  0  0  0
 14 15  1  0  0  0  0
 14 18  1  0  0  0  0
 15 16  2  0  0  0  0
 15 43  1  0  0  0  0
 16 17  1  0  0  0  0
 16 19  1  0  0  0  0
 17 11  1  0  0  0  0
 17 22  2  0  0  0  0
 18 24  2  0  0  0  0
 19 20  1  0  0  0  0
 19 21  2  0  0  0  0
 20 44  1  0  0  0  0
 24 25  1  0  0  0  0
 24 45  1  0  0  0  0
 25 26  2  0  0  0  0
 25 46  1  0  0  0  0
 26 27  1  0  0  0  0
 26 29  1  0  0  0  0
 27 28  2  0  0  0  0
 27 47  1  0  0  0  0
 28 18  1  0  0  0  0
 28 48  1  0  0  0  0
M  END
>  <Mol_ID>
3144

>  <Formula>
C21H20ClF2N3O3

>  <MolWeight>
435.8516064

>  <Cat>
S5041

>  <Name>
Difloxacin hydrochloride

>  <Synonyms>
N/A

>  <Target>
Antibiotics

>  <Form>
hydrochloride

>  <CAS>
91296-86-5

>  <URL>
http://selleckchem.com/products/difloxacin-hydrochloride.html

$$$$
