Digoxigenin
 OpenBabel08302520323D

 62 66  0  0  0  0  0  0  0  0999 V2000
    2.5932    3.8207   -2.2264 C   0  0  0  0  0  0  0  0  0  0  0  0
    3.7653    4.7407   -2.0198 C   0  0  1  0  0  0  0  0  0  0  0  0
    3.5023    5.7543   -0.9221 C   0  0  0  0  0  0  0  0  0  0  0  0
    3.0379    5.1949    0.4434 C   0  0  2  0  0  0  0  0  0  0  0  0
    2.1776    3.8696    0.4603 C   0  0  2  0  0  0  0  0  0  0  0  0
    2.0206    3.1854   -0.9660 C   0  0  0  0  0  0  0  0  0  0  0  0
    2.4468    6.3429    1.2825 C   0  0  0  0  0  0  0  0  0  0  0  0
    0.9570    6.5076    1.0526 C   0  0  0  0  0  0  0  0  0  0  0  0
    0.1845    5.3103    1.6057 C   0  0  2  0  0  0  0  0  0  0  0  0
    0.6947    4.0101    1.0081 C   0  0  2  0  0  0  0  0  0  0  0  0
   -1.3988    5.3986    1.4296 C   0  0  2  0  0  0  0  0  0  0  0  0
   -2.1828    4.0667    0.9580 C   0  0  2  0  0  0  0  0  0  0  0  0
   -1.4883    2.7525    1.4760 C   0  0  1  0  0  0  0  0  0  0  0  0
    0.0212    2.8773    1.8173 C   0  0  0  0  0  0  0  0  0  0  0  0
   -1.8387    6.3822    0.3307 C   0  0  0  0  0  0  0  0  0  0  0  0
   -1.7514    5.6085   -0.9746 C   0  0  0  0  0  0  0  0  0  0  0  0
   -2.0968    4.1381   -0.6491 C   0  0  2  0  0  0  0  0  0  0  0  0
   -2.9900    3.5073   -1.6989 C   0  0  0  0  0  0  0  0  0  0  0  0
   -2.1415    2.1825    2.6181 O   0  0  0  0  0  0  0  0  0  0  0  0
   -3.6606    4.1469    1.4152 C   0  0  0  0  0  0  0  0  0  0  0  0
   -1.9541    5.8747    2.6610 O   0  0  0  0  0  0  0  0  0  0  0  0
    2.9612    2.8883    1.3752 C   0  0  0  0  0  0  0  0  0  0  0  0
    4.9256    3.9760   -1.7280 O   0  0  0  0  0  0  0  0  0  0  0  0
   -4.0640    2.5077   -1.4970 C   0  0  0  0  0  0  0  0  0  0  0  0
   -4.3773    2.0429   -2.8191 O   0  0  0  0  0  0  0  0  0  0  0  0
   -3.6359    2.7122   -3.7417 C   0  0  0  0  0  0  0  0  0  0  0  0
   -2.7453    3.6233   -3.0101 C   0  0  0  0  0  0  0  0  0  0  0  0
   -3.6629    2.5603   -4.9329 O   0  0  0  0  0  0  0  0  0  0  0  0
    1.7998    4.3739   -2.7474 H   0  0  0  0  0  0  0  0  0  0  0  0
    2.8737    3.0028   -2.9044 H   0  0  0  0  0  0  0  0  0  0  0  0
    3.9559    5.2828   -2.9563 H   0  0  0  0  0  0  0  0  0  0  0  0
    2.7881    6.4998   -1.2891 H   0  0  0  0  0  0  0  0  0  0  0  0
    4.4441    6.2970   -0.7448 H   0  0  0  0  0  0  0  0  0  0  0  0
    3.9905    4.9723    0.9490 H   0  0  0  0  0  0  0  0  0  0  0  0
    0.9618    3.0981   -1.2406 H   0  0  0  0  0  0  0  0  0  0  0  0
    2.3182    2.1337   -0.9107 H   0  0  0  0  0  0  0  0  0  0  0  0
    2.6390    6.1683    2.3477 H   0  0  0  0  0  0  0  0  0  0  0  0
    2.9477    7.2885    1.0352 H   0  0  0  0  0  0  0  0  0  0  0  0
    0.6165    7.4239    1.5469 H   0  0  0  0  0  0  0  0  0  0  0  0
    0.7885    6.6258   -0.0224 H   0  0  0  0  0  0  0  0  0  0  0  0
    0.4123    5.2836    2.6822 H   0  0  0  0  0  0  0  0  0  0  0  0
    0.1761    4.0299    0.0796 H   0  0  0  0  0  0  0  0  0  0  0  0
   -1.5717    1.9860    0.6957 H   0  0  0  0  0  0  0  0  0  0  0  0
    0.1358    3.0626    2.8964 H   0  0  0  0  0  0  0  0  0  0  0  0
    0.4785    1.8966    1.6577 H   0  0  0  0  0  0  0  0  0  0  0  0
   -1.2672    7.3122    0.2984 H   0  0  0  0  0  0  0  0  0  0  0  0
   -2.8696    6.7133    0.4970 H   0  0  0  0  0  0  0  0  0  0  0  0
   -0.7308    5.6511   -1.3778 H   0  0  0  0  0  0  0  0  0  0  0  0
   -2.4074    6.0640   -1.7219 H   0  0  0  0  0  0  0  0  0  0  0  0
   -1.2099    3.5519   -0.9017 H   0  0  0  0  0  0  0  0  0  0  0  0
   -2.9903    1.8343    2.3425 H   0  0  0  0  0  0  0  0  0  0  0  0
   -4.1303    5.0936    1.1338 H   0  0  0  0  0  0  0  0  0  0  0  0
   -3.7485    4.0675    2.5052 H   0  0  0  0  0  0  0  0  0  0  0  0
   -4.2675    3.3448    0.9940 H   0  0  0  0  0  0  0  0  0  0  0  0
   -1.2502    6.2203    3.2347 H   0  0  0  0  0  0  0  0  0  0  0  0
    2.9516    3.2357    2.4155 H   0  0  0  0  0  0  0  0  0  0  0  0
    2.5573    1.8737    1.3510 H   0  0  0  0  0  0  0  0  0  0  0  0
    4.0091    2.8045    1.0606 H   0  0  0  0  0  0  0  0  0  0  0  0
    4.9462    3.2288   -2.3531 H   0  0  0  0  0  0  0  0  0  0  0  0
   -4.9681    2.9480   -1.0699 H   0  0  0  0  0  0  0  0  0  0  0  0
   -3.7319    1.6574   -0.8950 H   0  0  0  0  0  0  0  0  0  0  0  0
   -1.9891    4.1929   -3.5103 H   0  0  0  0  0  0  0  0  0  0  0  0
  1  2  1  0  0  0  0
  1 29  1  0  0  0  0
  1 30  1  0  0  0  0
  2  3  1  0  0  0  0
  2 31  1  6  0  0  0
  2 23  1  0  0  0  0
  3 32  1  0  0  0  0
  3 33  1  0  0  0  0
  4  3  1  0  0  0  0
  4  5  1  0  0  0  0
  4  7  1  0  0  0  0
  4 34  1  1  0  0  0
  5  6  1  0  0  0  0
  5 22  1  1  0  0  0
  6  1  1  0  0  0  0
  6 35  1  0  0  0  0
  6 36  1  0  0  0  0
  7  8  1  0  0  0  0
  7 37  1  0  0  0  0
  7 38  1  0  0  0  0
  8 39  1  0  0  0  0
  8 40  1  0  0  0  0
  9  8  1  0  0  0  0
  9 10  1  0  0  0  0
  9 11  1  0  0  0  0
  9 41  1  1  0  0  0
 10  5  1  0  0  0  0
 10 14  1  0  0  0  0
 10 42  1  6  0  0  0
 11 12  1  0  0  0  0
 11 15  1  0  0  0  0
 11 21  1  1  0  0  0
 12 13  1  0  0  0  0
 12 20  1  1  0  0  0
 13 14  1  0  0  0  0
 13 19  1  0  0  0  0
 13 43  1  6  0  0  0
 14 44  1  0  0  0  0
 14 45  1  0  0  0  0
 15 16  1  0  0  0  0
 15 46  1  0  0  0  0
 15 47  1  0  0  0  0
 16 17  1  0  0  0  0
 16 48  1  0  0  0  0
 16 49  1  0  0  0  0
 17 12  1  0  0  0  0
 17 50  1  6  0  0  0
 17 18  1  0  0  0  0
 18 24  1  0  0  0  0
 19 51  1  0  0  0  0
 20 52  1  0  0  0  0
 20 53  1  0  0  0  0
 20 54  1  0  0  0  0
 21 55  1  0  0  0  0
 22 56  1  0  0  0  0
 22 57  1  0  0  0  0
 22 58  1  0  0  0  0
 23 59  1  0  0  0  0
 24 25  1  0  0  0  0
 24 60  1  0  0  0  0
 24 61  1  0  0  0  0
 25 26  1  0  0  0  0
 26 27  1  0  0  0  0
 26 28  2  0  0  0  0
 27 18  2  0  0  0  0
 27 62  1  0  0  0  0
M  END
>  <Mol_ID>
3328

>  <Formula>
C23H34O5

>  <MolWeight>
390.51306

>  <Cat>
S4396

>  <Name>
Digoxigenin

>  <Synonyms>
Lanadigigenin

>  <Target>
Others

>  <Form>
Free Base

>  <CAS>
1672-46-4

>  <URL>
http://www.selleckchem.com/products/digoxigenin.html

$$$$
