Dihydrolycorine
 OpenBabel08302521253D

 40 44  0  0  0  0  0  0  0  0999 V2000
    2.9412    0.4701   -0.6893 C   0  0  0  0  0  0  0  0  0  0  0  0
    3.6802   -0.6925   -0.6820 C   0  0  0  0  0  0  0  0  0  0  0  0
    3.0900   -1.9186   -0.4544 C   0  0  0  0  0  0  0  0  0  0  0  0
    1.7453   -2.0565   -0.2012 C   0  0  0  0  0  0  0  0  0  0  0  0
    0.9593   -0.8938   -0.1144 C   0  0  0  0  0  0  0  0  0  0  0  0
    1.5687    0.3948   -0.3217 C   0  0  0  0  0  0  0  0  0  0  0  0
    5.0279   -0.8040   -0.8385 O   0  0  0  0  0  0  0  0  0  0  0  0
    5.2308   -2.1918   -0.5058 C   0  0  0  0  0  0  0  0  0  0  0  0
    4.0045   -2.9335   -0.3778 O   0  0  0  0  0  0  0  0  0  0  0  0
   -0.3766   -1.0102    0.5886 C   0  0  1  0  0  0  0  0  0  0  0  0
   -0.9248    0.3100    1.0857 C   0  0  3  0  0  0  0  0  0  0  0  0
   -0.0875    1.4932    1.1060 N   0  0  3  0  0  0  0  0  0  0  0  0
    0.8200    1.6802   -0.0188 C   0  0  0  0  0  0  0  0  0  0  0  0
   -1.4888   -1.9763    0.1456 C   0  0  3  0  0  0  0  0  0  0  0  0
   -2.7503   -1.3202   -0.4568 C   0  0  3  0  0  0  0  0  0  0  0  0
   -3.3303   -0.2118    0.4514 C   0  0  0  0  0  0  0  0  0  0  0  0
   -2.2694    0.8567    0.6289 C   0  0  3  0  0  0  0  0  0  0  0  0
   -2.3734    1.9396    1.7057 C   0  0  0  0  0  0  0  0  0  0  0  0
   -0.9533    2.5753    1.6087 C   0  0  0  0  0  0  0  0  0  0  0  0
   -1.9530   -2.7132    1.3132 O   0  0  0  0  0  0  0  0  0  0  0  0
   -3.7726   -2.3123   -0.6342 O   0  0  0  0  0  0  0  0  0  0  0  0
    3.4328    1.4077   -0.8450 H   0  0  0  0  0  0  0  0  0  0  0  0
    1.3433   -3.0265    0.0798 H   0  0  0  0  0  0  0  0  0  0  0  0
    5.7953   -2.2511    0.4349 H   0  0  0  0  0  0  0  0  0  0  0  0
    5.8214   -2.6477   -1.3062 H   0  0  0  0  0  0  0  0  0  0  0  0
   -0.0106   -1.4686    1.5230 H   0  0  0  0  0  0  0  0  0  0  0  0
   -1.0320    0.0805    2.1567 H   0  0  0  0  0  0  0  0  0  0  0  0
    0.3740    2.0550   -0.9536 H   0  0  0  0  0  0  0  0  0  0  0  0
    1.5570    2.4307    0.2994 H   0  0  0  0  0  0  0  0  0  0  0  0
   -1.1117   -2.7557   -0.5290 H   0  0  0  0  0  0  0  0  0  0  0  0
   -2.5132   -0.9058   -1.4468 H   0  0  0  0  0  0  0  0  0  0  0  0
   -4.2207    0.2049   -0.0402 H   0  0  0  0  0  0  0  0  0  0  0  0
   -3.6955   -0.6306    1.3959 H   0  0  0  0  0  0  0  0  0  0  0  0
   -2.2049    1.3696   -0.3411 H   0  0  0  0  0  0  0  0  0  0  0  0
   -3.1844    2.6562    1.5762 H   0  0  0  0  0  0  0  0  0  0  0  0
   -2.4991    1.4854    2.7042 H   0  0  0  0  0  0  0  0  0  0  0  0
   -0.5721    2.8253    2.6027 H   0  0  0  0  0  0  0  0  0  0  0  0
   -0.9700    3.4791    0.9931 H   0  0  0  0  0  0  0  0  0  0  0  0
   -2.1376   -2.0709    2.0288 H   0  0  0  0  0  0  0  0  0  0  0  0
   -3.6320   -2.9745    0.0781 H   0  0  0  0  0  0  0  0  0  0  0  0
  1  2  2  0  0  0  0
  1 22  1  0  0  0  0
  2  3  1  0  0  0  0
  2  7  1  0  0  0  0
  3  4  2  0  0  0  0
  4  5  1  0  0  0  0
  4 23  1  0  0  0  0
  5  6  2  0  0  0  0
  6  1  1  0  0  0  0
  7  8  1  0  0  0  0
  8  9  1  0  0  0  0
  8 24  1  0  0  0  0
  8 25  1  0  0  0  0
  9  3  1  0  0  0  0
 10  5  1  0  0  0  0
 10 11  1  0  0  0  0
 10 14  1  0  0  0  0
 10 26  1  1  0  0  0
 11 12  1  0  0  0  0
 11 27  1  0  0  0  0
 12 13  1  0  0  0  0
 13  6  1  0  0  0  0
 13 28  1  0  0  0  0
 13 29  1  0  0  0  0
 14 15  1  0  0  0  0
 14 20  1  0  0  0  0
 14 30  1  0  0  0  0
 15 16  1  0  0  0  0
 15 21  1  0  0  0  0
 15 31  1  0  0  0  0
 16 32  1  0  0  0  0
 16 33  1  0  0  0  0
 17 16  1  0  0  0  0
 17 11  1  0  0  0  0
 17 18  1  0  0  0  0
 17 34  1  0  0  0  0
 18 19  1  0  0  0  0
 18 35  1  0  0  0  0
 18 36  1  0  0  0  0
 19 12  1  0  0  0  0
 19 37  1  0  0  0  0
 19 38  1  0  0  0  0
 20 39  1  0  0  0  0
 21 40  1  0  0  0  0
M  END
>  <Mol_ID>
5159

>  <Formula>
C16H19NO4

>  <MolWeight>
289.32636

>  <Cat>
S3285

>  <Name>
Dihydrolycorine

>  <Synonyms>
N/A

>  <Target>
Others

>  <Form>
free base

>  <CAS>
6271-21-2

>  <URL>
http://www.selleckchem.com/products/dihydrolycorine.html

$$$$
