dihydroartemisinin.cdx
 OpenBabel08302521363D

 44 47  0  0  0  0  0  0  0  0999 V2000
    1.0752    1.6586    0.0373 C   0  0  0  0  0  0  0  0  0  0  0  0
    1.4771    3.1187   -0.0720 C   0  0  0  0  0  0  0  0  0  0  0  0
    2.0162    3.4141   -1.4777 C   0  0  2  0  0  0  0  0  0  0  0  0
    3.1787    2.4387   -1.9118 C   0  0  2  0  0  0  0  0  0  0  0  0
    3.2971    1.1165   -1.0219 C   0  0  2  0  0  0  0  0  0  0  0  0
    2.3247    0.8055    0.1184 C   0  0  2  0  0  0  0  0  0  0  0  0
    2.2589    4.9409   -1.7419 C   0  0  2  0  0  0  0  0  0  0  0  0
    3.7386    5.2990   -1.8011 C   0  0  1  0  0  0  0  0  0  0  0  0
    4.3638    4.4756   -2.7560 O   0  0  0  0  0  0  0  0  0  0  0  0
    4.5450    3.1622   -2.2335 C   0  0  2  0  0  0  0  0  0  0  0  0
    5.3512    2.4586   -3.1943 O   0  0  0  0  0  0  0  0  0  0  0  0
    5.0524    1.0739   -3.2448 C   0  0  2  0  0  0  0  0  0  0  0  0
    5.5221    0.4043   -1.9126 C   0  0  0  0  0  0  0  0  0  0  0  0
    4.7583    0.8204   -0.6518 C   0  0  0  0  0  0  0  0  0  0  0  0
    1.9371   -0.6915    0.0464 C   0  0  0  0  0  0  0  0  0  0  0  0
    5.8166    0.3945   -4.3806 C   0  0  0  0  0  0  0  0  0  0  0  0
    3.9258    6.6387   -2.2136 O   0  0  0  0  0  0  0  0  0  0  0  0
    1.5208    5.9038   -0.7975 C   0  0  0  0  0  0  0  0  0  0  0  0
    2.8168    1.9742   -3.2540 O   0  0  0  0  0  0  0  0  0  0  0  0
    3.6721    0.8029   -3.5732 O   0  0  0  0  0  0  0  0  0  0  0  0
    0.4572    1.3615   -0.8201 H   0  0  0  0  0  0  0  0  0  0  0  0
    0.4617    1.5000    0.9319 H   0  0  0  0  0  0  0  0  0  0  0  0
    0.5788    3.7116    0.1227 H   0  0  0  0  0  0  0  0  0  0  0  0
    2.2126    3.3844    0.7008 H   0  0  0  0  0  0  0  0  0  0  0  0
    1.1645    3.1813   -2.1376 H   0  0  0  0  0  0  0  0  0  0  0  0
    3.0465    0.2920   -1.6940 H   0  0  0  0  0  0  0  0  0  0  0  0
    2.8042    0.9893    1.0869 H   0  0  0  0  0  0  0  0  0  0  0  0
    1.8509    5.1387   -2.7443 H   0  0  0  0  0  0  0  0  0  0  0  0
    4.2191    5.2000   -0.8192 H   0  0  0  0  0  0  0  0  0  0  0  0
    5.1560    3.2868   -1.3390 H   0  0  0  0  0  0  0  0  0  0  0  0
    6.5908    0.6107   -1.7511 H   0  0  0  0  0  0  0  0  0  0  0  0
    5.4111   -0.6889   -2.0094 H   0  0  0  0  0  0  0  0  0  0  0  0
    5.2279    1.6773   -0.1490 H   0  0  0  0  0  0  0  0  0  0  0  0
    4.8326    0.0128    0.0886 H   0  0  0  0  0  0  0  0  0  0  0  0
    2.7952   -1.3293    0.2895 H   0  0  0  0  0  0  0  0  0  0  0  0
    1.1194   -0.9352    0.7293 H   0  0  0  0  0  0  0  0  0  0  0  0
    1.5979   -0.9701   -0.9622 H   0  0  0  0  0  0  0  0  0  0  0  0
    6.8936    0.5580   -4.3113 H   0  0  0  0  0  0  0  0  0  0  0  0
    5.6194   -0.6874   -4.3711 H   0  0  0  0  0  0  0  0  0  0  0  0
    5.4715    0.7591   -5.3531 H   0  0  0  0  0  0  0  0  0  0  0  0
    3.6468    6.6532   -3.1447 H   0  0  0  0  0  0  0  0  0  0  0  0
    1.6619    6.9470   -1.1046 H   0  0  0  0  0  0  0  0  0  0  0  0
    0.4418    5.7156   -0.8034 H   0  0  0  0  0  0  0  0  0  0  0  0
    1.8813    5.8162    0.2311 H   0  0  0  0  0  0  0  0  0  0  0  0
  1  2  1  0  0  0  0
  1 21  1  0  0  0  0
  1 22  1  0  0  0  0
  2 23  1  0  0  0  0
  2 24  1  0  0  0  0
  3  2  1  0  0  0  0
  3  4  1  0  0  0  0
  3  7  1  0  0  0  0
  3 25  1  6  0  0  0
  4  5  1  0  0  0  0
  4 19  1  6  0  0  0
  5  6  1  0  0  0  0
  5 14  1  0  0  0  0
  5 26  1  6  0  0  0
  6  1  1  0  0  0  0
  6 27  1  1  0  0  0
  6 15  1  0  0  0  0
  7  8  1  0  0  0  0
  7 18  1  0  0  0  0
  7 28  1  6  0  0  0
  8  9  1  0  0  0  0
  8 17  1  0  0  0  0
  8 29  1  1  0  0  0
 10  9  1  0  0  0  0
 10  4  1  0  0  0  0
 10 11  1  0  0  0  0
 10 30  1  1  0  0  0
 11 12  1  0  0  0  0
 12 13  1  0  0  0  0
 12 16  1  6  0  0  0
 12 20  1  0  0  0  0
 13 14  1  0  0  0  0
 13 31  1  0  0  0  0
 13 32  1  0  0  0  0
 14 33  1  0  0  0  0
 14 34  1  0  0  0  0
 15 35  1  0  0  0  0
 15 36  1  0  0  0  0
 15 37  1  0  0  0  0
 16 38  1  0  0  0  0
 16 39  1  0  0  0  0
 16 40  1  0  0  0  0
 17 41  1  0  0  0  0
 18 42  1  0  0  0  0
 18 43  1  0  0  0  0
 18 44  1  0  0  0  0
 19 20  1  0  0  0  0
M  END
>  <Mol_ID>
678

>  <Formula>
C15H24O5

>  <MolWeight>
284.34806

>  <Cat>
S2290

>  <Name>
Dihydroartemisinin (DHA)

>  <Synonyms>
Dihydroqinghaosu, ¦Â-Dihydroartemisinin, Artenimol

>  <Target>
Apoptosis related,Autophagy,NF-¦ÊB

>  <Form>
free base

>  <CAS>
71939-50-9

>  <URL>
http://selleckchem.com/products/Dihydroartemisinin(DHA).html

$$$$
