Dihydroberberine
 OpenBabel08302521323D

 44 48  0  0  0  0  0  0  0  0999 V2000
   -1.0086    0.1332   -0.1166 C   0  0  0  0  0  0  0  0  0  0  0  0
   -1.7375    1.3579   -0.1451 C   0  0  0  0  0  0  0  0  0  0  0  0
   -0.9833    2.6642   -0.2029 C   0  0  0  0  0  0  0  0  0  0  0  0
    0.3225    2.5614    0.5843 C   0  0  0  0  0  0  0  0  0  0  0  0
    1.0952    1.4027    0.1411 N   0  0  0  0  0  0  0  0  0  0  0  0
    2.5284    1.6277   -0.1035 C   0  0  0  0  0  0  0  0  0  0  0  0
    3.3344    0.3497   -0.0190 C   0  0  0  0  0  0  0  0  0  0  0  0
    2.6804   -0.8747   -0.2310 C   0  0  0  0  0  0  0  0  0  0  0  0
    1.2256   -0.9134   -0.4135 C   0  0  0  0  0  0  0  0  0  0  0  0
    0.4867    0.1758   -0.1426 C   0  0  0  0  0  0  0  0  0  0  0  0
   -5.1361   -0.0175    0.0992 O   0  0  0  0  0  0  0  0  0  0  0  0
   -5.2012   -1.4384    0.3423 C   0  0  0  0  0  0  0  0  0  0  0  0
   -3.9224   -2.0960    0.2342 O   0  0  0  0  0  0  0  0  0  0  0  0
   -3.0995   -1.0229    0.0770 C   0  0  0  0  0  0  0  0  0  0  0  0
   -3.7910    0.1603    0.0034 C   0  0  0  0  0  0  0  0  0  0  0  0
   -1.7224   -1.0719    0.0104 C   0  0  0  0  0  0  0  0  0  0  0  0
   -3.1444    1.3669   -0.1201 C   0  0  0  0  0  0  0  0  0  0  0  0
    3.4062   -2.0628   -0.1950 C   0  0  0  0  0  0  0  0  0  0  0  0
    4.7734   -2.0410    0.0832 C   0  0  0  0  0  0  0  0  0  0  0  0
    5.4487   -0.8325    0.3066 C   0  0  0  0  0  0  0  0  0  0  0  0
    4.7285    0.3797    0.2306 C   0  0  0  0  0  0  0  0  0  0  0  0
    6.7857   -0.7824    0.6041 O   0  0  0  0  0  0  0  0  0  0  0  0
    7.5002   -2.0030    0.7375 C   0  0  0  0  0  0  0  0  0  0  0  0
    5.2243    1.6532    0.3814 O   0  0  0  0  0  0  0  0  0  0  0  0
    6.6023    1.8455    0.6620 C   0  0  0  0  0  0  0  0  0  0  0  0
   -1.5873    3.4740    0.2237 H   0  0  0  0  0  0  0  0  0  0  0  0
   -0.7825    2.9094   -1.2526 H   0  0  0  0  0  0  0  0  0  0  0  0
    0.1133    2.4511    1.6560 H   0  0  0  0  0  0  0  0  0  0  0  0
    0.8897    3.4917    0.4613 H   0  0  0  0  0  0  0  0  0  0  0  0
    2.9003    2.3521    0.6295 H   0  0  0  0  0  0  0  0  0  0  0  0
    2.6530    2.0555   -1.1057 H   0  0  0  0  0  0  0  0  0  0  0  0
    0.7898   -1.8697   -0.6833 H   0  0  0  0  0  0  0  0  0  0  0  0
   -5.5924   -1.6005    1.3530 H   0  0  0  0  0  0  0  0  0  0  0  0
   -5.8923   -1.8901   -0.3787 H   0  0  0  0  0  0  0  0  0  0  0  0
   -1.2309   -2.0327    0.0941 H   0  0  0  0  0  0  0  0  0  0  0  0
   -3.7083    2.2917   -0.1622 H   0  0  0  0  0  0  0  0  0  0  0  0
    2.9120   -3.0195   -0.3465 H   0  0  0  0  0  0  0  0  0  0  0  0
    5.2820   -2.9984    0.1271 H   0  0  0  0  0  0  0  0  0  0  0  0
    7.0822   -2.6265    1.5351 H   0  0  0  0  0  0  0  0  0  0  0  0
    7.5349   -2.5420   -0.2146 H   0  0  0  0  0  0  0  0  0  0  0  0
    8.5290   -1.7566    1.0172 H   0  0  0  0  0  0  0  0  0  0  0  0
    6.8789    1.4030    1.6239 H   0  0  0  0  0  0  0  0  0  0  0  0
    7.2294    1.4853   -0.1592 H   0  0  0  0  0  0  0  0  0  0  0  0
    6.7728    2.9229    0.7469 H   0  0  0  0  0  0  0  0  0  0  0  0
  1  2  2  0  0  0  0
  1 10  1  0  0  0  0
  2  3  1  0  0  0  0
  3  4  1  0  0  0  0
  3 26  1  0  0  0  0
  3 27  1  0  0  0  0
  4  5  1  0  0  0  0
  4 28  1  0  0  0  0
  4 29  1  0  0  0  0
  5  6  1  0  0  0  0
  5 10  1  0  0  0  0
  6  7  1  0  0  0  0
  6 30  1  0  0  0  0
  6 31  1  0  0  0  0
  7  8  2  0  0  0  0
  8  9  1  0  0  0  0
  9 10  2  0  0  0  0
  9 32  1  0  0  0  0
 11 12  1  0  0  0  0
 11 15  1  0  0  0  0
 12 13  1  0  0  0  0
 12 33  1  0  0  0  0
 12 34  1  0  0  0  0
 13 14  1  0  0  0  0
 14 15  1  0  0  0  0
 16 14  2  0  0  0  0
 16  1  1  0  0  0  0
 16 35  1  0  0  0  0
 17 15  2  0  0  0  0
 17  2  1  0  0  0  0
 17 36  1  0  0  0  0
 18 19  2  0  0  0  0
 18  8  1  0  0  0  0
 18 37  1  0  0  0  0
 19 20  1  0  0  0  0
 19 38  1  0  0  0  0
 20 21  2  0  0  0  0
 20 22  1  0  0  0  0
 21  7  1  0  0  0  0
 21 24  1  0  0  0  0
 22 23  1  0  0  0  0
 23 39  1  0  0  0  0
 23 40  1  0  0  0  0
 23 41  1  0  0  0  0
 24 25  1  0  0  0  0
 25 42  1  0  0  0  0
 25 43  1  0  0  0  0
 25 44  1  0  0  0  0
M  END
>  <Mol_ID>
6132

>  <Formula>
C20H19NO4

>  <MolWeight>
337.36916

>  <Cat>
E0211

>  <Name>
Dihydroberberine

>  <Synonyms>
N/A

>  <Target>
Immunology & Inflammation related,NF-¦ÊB

>  <Form>
free base

>  <CAS>
483-15-8

>  <URL>
http://www.selleckchem.com/products/dihydroberberine.html

$$$$
