Dihydrosanguinarine
 OpenBabel08302521463D

 40 45  0  0  0  0  0  0  0  0999 V2000
   -0.1687   -1.7944   -1.7732 C   0  0  0  0  0  0  0  0  0  0  0  0
    0.3878   -0.0753   -0.2067 C   0  0  0  0  0  0  0  0  0  0  0  0
   -0.4569    1.0704   -0.1500 C   0  0  0  0  0  0  0  0  0  0  0  0
    1.8050    0.0636   -0.1066 C   0  0  0  0  0  0  0  0  0  0  0  0
   -0.1798   -1.3788   -0.3653 N   0  0  0  0  0  0  0  0  0  0  0  0
   -1.9268    0.8858   -0.1525 C   0  0  0  0  0  0  0  0  0  0  0  0
    0.1449    2.3352   -0.0438 C   0  0  0  0  0  0  0  0  0  0  0  0
    2.3710    1.3667    0.0130 C   0  0  0  0  0  0  0  0  0  0  0  0
    2.6756   -1.0501   -0.0770 C   0  0  0  0  0  0  0  0  0  0  0  0
   -1.4706   -1.5474    0.3225 C   0  0  0  0  0  0  0  0  0  0  0  0
   -2.4245   -0.4136    0.0840 C   0  0  0  0  0  0  0  0  0  0  0  0
   -2.8571    1.9397   -0.3374 C   0  0  0  0  0  0  0  0  0  0  0  0
    1.5312    2.4816    0.0248 C   0  0  0  0  0  0  0  0  0  0  0  0
    3.7622    1.5355    0.1444 C   0  0  0  0  0  0  0  0  0  0  0  0
    4.0316   -0.8449    0.0589 C   0  0  0  0  0  0  0  0  0  0  0  0
   -3.7931   -0.5888    0.1955 C   0  0  0  0  0  0  0  0  0  0  0  0
   -4.2380    1.7280   -0.2408 C   0  0  0  0  0  0  0  0  0  0  0  0
    4.5604    0.4135    0.1673 C   0  0  0  0  0  0  0  0  0  0  0  0
    4.9823   -1.8169    0.1148 O   0  0  0  0  0  0  0  0  0  0  0  0
   -4.6726    0.4543    0.0394 C   0  0  0  0  0  0  0  0  0  0  0  0
   -4.4317   -1.7569    0.4864 O   0  0  0  0  0  0  0  0  0  0  0  0
    5.9122    0.3995    0.3117 O   0  0  0  0  0  0  0  0  0  0  0  0
    6.1730   -1.0194    0.2653 C   0  0  0  0  0  0  0  0  0  0  0  0
   -5.9678    0.0778    0.2088 O   0  0  0  0  0  0  0  0  0  0  0  0
   -5.8035   -1.3154    0.5390 C   0  0  0  0  0  0  0  0  0  0  0  0
   -0.7887   -1.1433   -2.3996 H   0  0  0  0  0  0  0  0  0  0  0  0
    0.8474   -1.8070   -2.1829 H   0  0  0  0  0  0  0  0  0  0  0  0
   -0.5522   -2.8174   -1.8616 H   0  0  0  0  0  0  0  0  0  0  0  0
   -0.4547    3.2386    0.0172 H   0  0  0  0  0  0  0  0  0  0  0  0
    2.2923   -2.0631   -0.1367 H   0  0  0  0  0  0  0  0  0  0  0  0
   -1.9207   -2.4962    0.0048 H   0  0  0  0  0  0  0  0  0  0  0  0
   -1.2874   -1.6320    1.4011 H   0  0  0  0  0  0  0  0  0  0  0  0
   -2.5197    2.9503   -0.5510 H   0  0  0  0  0  0  0  0  0  0  0  0
    1.9450    3.4824    0.1176 H   0  0  0  0  0  0  0  0  0  0  0  0
    4.2109    2.5177    0.2443 H   0  0  0  0  0  0  0  0  0  0  0  0
   -4.9411    2.5438   -0.3642 H   0  0  0  0  0  0  0  0  0  0  0  0
    6.6791   -1.3157    1.1914 H   0  0  0  0  0  0  0  0  0  0  0  0
    6.8391   -1.2237   -0.5808 H   0  0  0  0  0  0  0  0  0  0  0  0
   -6.3929   -1.9156   -0.1627 H   0  0  0  0  0  0  0  0  0  0  0  0
   -6.1853   -1.4835    1.5531 H   0  0  0  0  0  0  0  0  0  0  0  0
  1  5  1  0  0  0  0
  1 26  1  0  0  0  0
  1 27  1  0  0  0  0
  1 28  1  0  0  0  0
  2  3  2  0  0  0  0
  2  4  1  0  0  0  0
  2  5  1  0  0  0  0
  3  6  1  0  0  0  0
  3  7  1  0  0  0  0
  4  8  2  0  0  0  0
  4  9  1  0  0  0  0
  5 10  1  0  0  0  0
  6 11  2  0  0  0  0
  6 12  1  0  0  0  0
  7 13  2  0  0  0  0
  7 29  1  0  0  0  0
  8 13  1  0  0  0  0
  8 14  1  0  0  0  0
  9 15  2  0  0  0  0
  9 30  1  0  0  0  0
 10 11  1  0  0  0  0
 10 31  1  0  0  0  0
 10 32  1  0  0  0  0
 11 16  1  0  0  0  0
 12 17  2  0  0  0  0
 12 33  1  0  0  0  0
 13 34  1  0  0  0  0
 14 18  2  0  0  0  0
 14 35  1  0  0  0  0
 15 18  1  0  0  0  0
 15 19  1  0  0  0  0
 16 20  2  0  0  0  0
 16 21  1  0  0  0  0
 17 20  1  0  0  0  0
 17 36  1  0  0  0  0
 18 22  1  0  0  0  0
 19 23  1  0  0  0  0
 20 24  1  0  0  0  0
 21 25  1  0  0  0  0
 22 23  1  0  0  0  0
 23 37  1  0  0  0  0
 23 38  1  0  0  0  0
 24 25  1  0  0  0  0
 25 39  1  0  0  0  0
 25 40  1  0  0  0  0
M  END
>  <Mol_ID>
9695

>  <Formula>
C20H15NO4

>  <MolWeight>
333.3374

>  <Cat>
E0751

>  <Name>
Dihydrosanguinarine

>  <Synonyms>
NA

>  <Target>
mut-p53/-Ras, WT-p53/-Ras

>  <Form>
Free Base

>  <CAS>
3606-45-9

>  <URL>
https://www.selleckchem.com/products/dihydrosanguinarine.html

$$$$
