Dihydrouracil
 OpenBabel08302521323D

 14 14  0  0  0  0  0  0  0  0999 V2000
   -1.1920    0.3216    0.0181 C   0  0  0  0  0  0  0  0  0  0  0  0
   -1.1944   -1.0360   -0.0974 N   0  0  0  0  0  0  0  0  0  0  0  0
   -0.0251   -1.8103    0.2282 C   0  0  0  0  0  0  0  0  0  0  0  0
    1.2051   -1.1725   -0.3767 C   0  0  0  0  0  0  0  0  0  0  0  0
    1.2465    0.2869   -0.0032 C   0  0  0  0  0  0  0  0  0  0  0  0
    0.0337    0.9009    0.1738 N   0  0  0  0  0  0  0  0  0  0  0  0
   -2.2275    0.9736   -0.0276 O   0  0  0  0  0  0  0  0  0  0  0  0
    2.2991    0.9176    0.0610 O   0  0  0  0  0  0  0  0  0  0  0  0
   -2.1146   -1.4615   -0.0989 H   0  0  0  0  0  0  0  0  0  0  0  0
   -0.1703   -2.8256   -0.1524 H   0  0  0  0  0  0  0  0  0  0  0  0
    0.0510   -1.8533    1.3210 H   0  0  0  0  0  0  0  0  0  0  0  0
    1.1832   -1.2361   -1.4704 H   0  0  0  0  0  0  0  0  0  0  0  0
    2.1091   -1.6699   -0.0120 H   0  0  0  0  0  0  0  0  0  0  0  0
    0.0453    1.9014    0.3036 H   0  0  0  0  0  0  0  0  0  0  0  0
  1  2  1  0  0  0  0
  1  7  2  0  0  0  0
  2  3  1  0  0  0  0
  2  9  1  0  0  0  0
  3  4  1  0  0  0  0
  3 10  1  0  0  0  0
  3 11  1  0  0  0  0
  4  5  1  0  0  0  0
  4 12  1  0  0  0  0
  4 13  1  0  0  0  0
  5  6  1  0  0  0  0
  5  8  2  0  0  0  0
  6  1  1  0  0  0  0
  6 14  1  0  0  0  0
M  END
>  <Mol_ID>
6330

>  <Formula>
C4H6N2O2

>  <MolWeight>
114.10264

>  <Cat>
E0750

>  <Name>
Dihydrouracil

>  <Synonyms>
5,6-Dihydrouracil

>  <Target>
Others

>  <Form>
free base

>  <CAS>
504-07-4

>  <URL>
http://www.selleckchem.com/products/dihydrouracil.html

$$$$
