Dihydroresveratrol
 OpenBabel08302521313D

 31 32  0  0  0  0  0  0  0  0999 V2000
   -1.6356   -1.0943    1.7281 O   0  0  0  0  0  0  0  0  0  0  0  0
    2.6810   -0.7199   -0.1268 O   0  0  0  0  0  0  0  0  0  0  0  0
   -1.2384    9.3372   -1.3911 O   0  0  0  0  0  0  0  0  0  0  0  0
   -0.1480    3.3090    0.0647 C   0  0  0  0  0  0  0  0  0  0  0  0
   -0.7892    3.6850   -1.2761 C   0  0  0  0  0  0  0  0  0  0  0  0
    0.0563    1.8266    0.2618 C   0  0  0  0  0  0  0  0  0  0  0  0
   -0.9318    5.1883   -1.3847 C   0  0  0  0  0  0  0  0  0  0  0  0
    1.2686    1.2252   -0.1087 C   0  0  0  0  0  0  0  0  0  0  0  0
   -0.9376    1.0425    0.8685 C   0  0  0  0  0  0  0  0  0  0  0  0
    0.0779    5.9628   -1.9744 C   0  0  0  0  0  0  0  0  0  0  0  0
   -2.0446    5.8347   -0.8261 C   0  0  0  0  0  0  0  0  0  0  0  0
   -0.6968   -0.3073    1.1262 C   0  0  0  0  0  0  0  0  0  0  0  0
    1.4939   -0.1224    0.1755 C   0  0  0  0  0  0  0  0  0  0  0  0
    0.5176   -0.8930    0.7938 C   0  0  0  0  0  0  0  0  0  0  0  0
   -0.0151    7.3580   -1.9937 C   0  0  0  0  0  0  0  0  0  0  0  0
   -2.1372    7.2279   -0.8463 C   0  0  0  0  0  0  0  0  0  0  0  0
   -1.1196    7.9791   -1.4204 C   0  0  0  0  0  0  0  0  0  0  0  0
   -2.4536   -0.5824    1.8306 H   0  0  0  0  0  0  0  0  0  0  0  0
    3.3049   -0.0382   -0.4252 H   0  0  0  0  0  0  0  0  0  0  0  0
   -0.4327    9.7268   -1.7677 H   0  0  0  0  0  0  0  0  0  0  0  0
   -0.7587    3.6923    0.8925 H   0  0  0  0  0  0  0  0  0  0  0  0
    0.8213    3.8140    0.1691 H   0  0  0  0  0  0  0  0  0  0  0  0
   -0.1839    3.3114   -2.1130 H   0  0  0  0  0  0  0  0  0  0  0  0
   -1.7732    3.2147   -1.3830 H   0  0  0  0  0  0  0  0  0  0  0  0
    2.0378    1.8186   -0.5941 H   0  0  0  0  0  0  0  0  0  0  0  0
   -1.8798    1.4969    1.1598 H   0  0  0  0  0  0  0  0  0  0  0  0
    0.9513    5.4856   -2.4124 H   0  0  0  0  0  0  0  0  0  0  0  0
   -2.8392    5.2595   -0.3572 H   0  0  0  0  0  0  0  0  0  0  0  0
    0.7059   -1.9374    1.0219 H   0  0  0  0  0  0  0  0  0  0  0  0
    0.7817    7.9378   -2.4492 H   0  0  0  0  0  0  0  0  0  0  0  0
   -2.9950    7.7251   -0.4032 H   0  0  0  0  0  0  0  0  0  0  0  0
  1 12  1  0  0  0  0
  1 18  1  0  0  0  0
  2 13  1  0  0  0  0
  2 19  1  0  0  0  0
  3 17  1  0  0  0  0
  3 20  1  0  0  0  0
  4  5  1  0  0  0  0
  4  6  1  0  0  0  0
  4 21  1  0  0  0  0
  4 22  1  0  0  0  0
  5  7  1  0  0  0  0
  5 23  1  0  0  0  0
  5 24  1  0  0  0  0
  6  8  2  0  0  0  0
  6  9  1  0  0  0  0
  7 10  2  0  0  0  0
  7 11  1  0  0  0  0
  8 13  1  0  0  0  0
  8 25  1  0  0  0  0
  9 12  2  0  0  0  0
  9 26  1  0  0  0  0
 10 15  1  0  0  0  0
 10 27  1  0  0  0  0
 11 16  2  0  0  0  0
 11 28  1  0  0  0  0
 12 14  1  0  0  0  0
 13 14  2  0  0  0  0
 14 29  1  0  0  0  0
 15 17  2  0  0  0  0
 15 30  1  0  0  0  0
 16 17  1  0  0  0  0
 16 31  1  0  0  0  0
M  END
>  <Mol_ID>
5906

>  <Formula>
C14H14O3

>  <MolWeight>
230.25916

>  <Cat>
S6927

>  <Name>
Dihydroresveratrol

>  <Synonyms>
N/A

>  <Target>
Estrogen/progestogen Receptor

>  <Form>
Free Base

>  <CAS>
58436-28-5

>  <URL>
http://www.selleckchem.com/products/dihydroresveratrol.html

$$$$
