Dihydrokaempferol
 OpenBabel08302521463D

 33 35  0  0  1  0  0  0  0  0999 V2000
    0.9502    0.0845   -0.3900 O   0  0  0  0  0  0  0  0  0  0  0  0
    1.1739    2.7801   -0.3337 O   0  0  0  0  0  0  0  0  0  0  0  0
    2.0374   -2.3310   -0.3233 O   0  0  0  0  0  0  0  0  0  0  0  0
    5.3677    4.5374    0.9515 O   0  0  0  0  0  0  0  0  0  0  0  0
    5.8328   -6.5705    0.6843 O   0  0  0  0  0  0  0  0  0  0  0  0
    2.9575    1.2504    0.1912 C   0  0  0  0  0  0  0  0  0  0  0  0
    4.2807    1.0488    0.6218 C   0  0  0  0  0  0  0  0  0  0  0  0
    2.1567    0.0578   -0.1658 C   0  0  0  0  0  0  0  0  0  0  0  0
    2.4570    2.5545    0.0729 C   0  0  0  0  0  0  0  0  0  0  0  0
    4.8566   -0.1924    0.7996 O   0  0  0  0  0  0  0  0  0  0  0  0
    5.1083    2.1445    0.8728 C   0  0  0  0  0  0  0  0  0  0  0  0
    2.9451   -1.2288   -0.2912 C   0  0  1  0  0  0  0  0  0  0  0  0
    3.2781    3.6480    0.3437 C   0  0  0  0  0  0  0  0  0  0  0  0
    3.8921   -1.2590    0.9150 C   0  0  1  0  0  0  0  0  0  0  0  0
    4.5979    3.4365    0.7256 C   0  0  0  0  0  0  0  0  0  0  0  0
    4.5713   -2.6212    1.0024 C   0  0  0  0  0  0  0  0  0  0  0  0
    3.9387   -3.6330    1.7551 C   0  0  0  0  0  0  0  0  0  0  0  0
    5.6912   -2.9565    0.2344 C   0  0  0  0  0  0  0  0  0  0  0  0
    4.3685   -4.9597    1.6799 C   0  0  0  0  0  0  0  0  0  0  0  0
    6.1270   -4.2843    0.1628 C   0  0  0  0  0  0  0  0  0  0  0  0
    5.4425   -5.2755    0.8604 C   0  0  0  0  0  0  0  0  0  0  0  0
    0.9621    3.7260   -0.2784 H   0  0  0  0  0  0  0  0  0  0  0  0
    1.3223   -2.0708   -0.9361 H   0  0  0  0  0  0  0  0  0  0  0  0
    6.2680    4.2605    1.1844 H   0  0  0  0  0  0  0  0  0  0  0  0
    5.1303   -7.1459    1.0304 H   0  0  0  0  0  0  0  0  0  0  0  0
    6.1380    1.9836    1.1744 H   0  0  0  0  0  0  0  0  0  0  0  0
    3.4920   -1.2040   -1.2418 H   0  0  0  0  0  0  0  0  0  0  0  0
    2.9132    4.6671    0.2418 H   0  0  0  0  0  0  0  0  0  0  0  0
    3.3458   -1.1040    1.8572 H   0  0  0  0  0  0  0  0  0  0  0  0
    3.0548   -3.4025    2.3476 H   0  0  0  0  0  0  0  0  0  0  0  0
    6.2038   -2.2026   -0.3579 H   0  0  0  0  0  0  0  0  0  0  0  0
    3.8299   -5.7210    2.2320 H   0  0  0  0  0  0  0  0  0  0  0  0
    6.9682   -4.5526   -0.4652 H   0  0  0  0  0  0  0  0  0  0  0  0
  1  8  2  0  0  0  0
  2  9  1  0  0  0  0
  2 22  1  0  0  0  0
  3 23  1  0  0  0  0
  4 15  1  0  0  0  0
  4 24  1  0  0  0  0
  5 21  1  0  0  0  0
  5 25  1  0  0  0  0
  6  7  2  0  0  0  0
  6  8  1  0  0  0  0
  6  9  1  0  0  0  0
  7 10  1  0  0  0  0
  7 11  1  0  0  0  0
  8 12  1  0  0  0  0
  9 13  2  0  0  0  0
 10 14  1  0  0  0  0
 11 15  2  0  0  0  0
 11 26  1  0  0  0  0
 12 14  1  0  0  0  0
 12 27  1  6  0  0  0
 12  3  1  0  0  0  0
 13 15  1  0  0  0  0
 13 28  1  0  0  0  0
 14 29  1  1  0  0  0
 14 16  1  0  0  0  0
 16 17  2  0  0  0  0
 16 18  1  0  0  0  0
 17 19  1  0  0  0  0
 17 30  1  0  0  0  0
 18 20  2  0  0  0  0
 18 31  1  0  0  0  0
 19 21  2  0  0  0  0
 19 32  1  0  0  0  0
 20 21  1  0  0  0  0
 20 33  1  0  0  0  0
M  END
>  <Mol_ID>
9717

>  <Formula>
C15H12O6

>  <MolWeight>
288.25218

>  <Cat>
E0912

>  <Name>
Dihydrokaempferol

>  <Synonyms>
NA

>  <Target>
Keap1/Nrf2

>  <Form>
Free Base

>  <CAS>
480-20-6

>  <URL>
https://www.selleckchem.com/products/aromadendrin.html

$$$$
