Dihydrochelerythrine
 OpenBabel08302521453D

 45 49  0  0  0  0  0  0  0  0999 V2000
   -0.8627    2.1433   -1.3333 C   0  0  0  0  0  0  0  0  0  0  0  0
   -4.9062    2.5312    0.9607 O   0  0  0  0  0  0  0  0  0  0  0  0
   -4.3596    3.7432    0.4519 C   0  0  0  0  0  0  0  0  0  0  0  0
   -6.8543    0.5887   -0.0136 O   0  0  0  0  0  0  0  0  0  0  0  0
   -7.4139    1.8724    0.2016 C   0  0  0  0  0  0  0  0  0  0  0  0
   -0.3603    0.2501    0.0222 C   0  0  0  0  0  0  0  0  0  0  0  0
   -1.3373   -0.7810    0.0142 C   0  0  0  0  0  0  0  0  0  0  0  0
    1.0330   -0.0457    0.0177 C   0  0  0  0  0  0  0  0  0  0  0  0
   -0.7789    1.6162    0.0352 N   0  0  0  0  0  0  0  0  0  0  0  0
   -2.7784   -0.3989    0.0086 C   0  0  0  0  0  0  0  0  0  0  0  0
   -0.8849   -2.1090    0.0051 C   0  0  0  0  0  0  0  0  0  0  0  0
    1.4528   -1.4054   -0.0127 C   0  0  0  0  0  0  0  0  0  0  0  0
    2.0149    0.9681    0.0649 C   0  0  0  0  0  0  0  0  0  0  0  0
   -1.9853    1.7840    0.8603 C   0  0  0  0  0  0  0  0  0  0  0  0
   -3.1367    0.9315    0.3790 C   0  0  0  0  0  0  0  0  0  0  0  0
   -3.7981   -1.2858   -0.3486 C   0  0  0  0  0  0  0  0  0  0  0  0
    0.4827   -2.4157   -0.0162 C   0  0  0  0  0  0  0  0  0  0  0  0
    2.8251   -1.7187   -0.0311 C   0  0  0  0  0  0  0  0  0  0  0  0
    3.3432    0.6224    0.0391 C   0  0  0  0  0  0  0  0  0  0  0  0
   -4.4967    1.3460    0.4047 C   0  0  0  0  0  0  0  0  0  0  0  0
   -5.1298   -0.8757   -0.3409 C   0  0  0  0  0  0  0  0  0  0  0  0
    3.7439   -0.6875   -0.0074 C   0  0  0  0  0  0  0  0  0  0  0  0
    4.3887    1.4874    0.0688 O   0  0  0  0  0  0  0  0  0  0  0  0
   -5.4941    0.4253    0.0295 C   0  0  0  0  0  0  0  0  0  0  0  0
    5.0947   -0.8159   -0.0182 O   0  0  0  0  0  0  0  0  0  0  0  0
    5.4985    0.5699    0.0210 C   0  0  0  0  0  0  0  0  0  0  0  0
    0.1115    2.1072   -1.8348 H   0  0  0  0  0  0  0  0  0  0  0  0
   -1.5840    1.5961   -1.9516 H   0  0  0  0  0  0  0  0  0  0  0  0
   -1.1672    3.1950   -1.3079 H   0  0  0  0  0  0  0  0  0  0  0  0
   -3.6733    4.1598    1.1968 H   0  0  0  0  0  0  0  0  0  0  0  0
   -3.8676    3.6333   -0.5199 H   0  0  0  0  0  0  0  0  0  0  0  0
   -5.1689    4.4723    0.3482 H   0  0  0  0  0  0  0  0  0  0  0  0
   -7.2872    2.1875    1.2409 H   0  0  0  0  0  0  0  0  0  0  0  0
   -7.0203    2.6080   -0.5063 H   0  0  0  0  0  0  0  0  0  0  0  0
   -8.4913    1.7938    0.0213 H   0  0  0  0  0  0  0  0  0  0  0  0
   -1.5852   -2.9397    0.0243 H   0  0  0  0  0  0  0  0  0  0  0  0
    1.7354    2.0162    0.1198 H   0  0  0  0  0  0  0  0  0  0  0  0
   -1.7647    1.5202    1.9037 H   0  0  0  0  0  0  0  0  0  0  0  0
   -2.1951    2.8471    0.8666 H   0  0  0  0  0  0  0  0  0  0  0  0
   -3.5852   -2.3101   -0.6389 H   0  0  0  0  0  0  0  0  0  0  0  0
    0.7822   -3.4622   -0.0237 H   0  0  0  0  0  0  0  0  0  0  0  0
    3.1725   -2.7482   -0.0571 H   0  0  0  0  0  0  0  0  0  0  0  0
   -5.9059   -1.5899   -0.6117 H   0  0  0  0  0  0  0  0  0  0  0  0
    6.0926    0.7899   -0.8732 H   0  0  0  0  0  0  0  0  0  0  0  0
    6.1233    0.7325    0.9068 H   0  0  0  0  0  0  0  0  0  0  0  0
  1  9  1  0  0  0  0
  1 27  1  0  0  0  0
  1 28  1  0  0  0  0
  1 29  1  0  0  0  0
  2  3  1  0  0  0  0
  2 20  1  0  0  0  0
  3 30  1  0  0  0  0
  3 31  1  0  0  0  0
  3 32  1  0  0  0  0
  4  5  1  0  0  0  0
  4 24  1  0  0  0  0
  5 33  1  0  0  0  0
  5 34  1  0  0  0  0
  5 35  1  0  0  0  0
  6  7  2  0  0  0  0
  6  8  1  0  0  0  0
  6  9  1  0  0  0  0
  7 10  1  0  0  0  0
  7 11  1  0  0  0  0
  8 12  2  0  0  0  0
  8 13  1  0  0  0  0
  9 14  1  0  0  0  0
 10 15  2  0  0  0  0
 10 16  1  0  0  0  0
 11 17  2  0  0  0  0
 11 36  1  0  0  0  0
 12 17  1  0  0  0  0
 12 18  1  0  0  0  0
 13 19  2  0  0  0  0
 13 37  1  0  0  0  0
 14 15  1  0  0  0  0
 14 38  1  0  0  0  0
 14 39  1  0  0  0  0
 15 20  1  0  0  0  0
 16 21  2  0  0  0  0
 16 40  1  0  0  0  0
 17 41  1  0  0  0  0
 18 22  2  0  0  0  0
 18 42  1  0  0  0  0
 19 22  1  0  0  0  0
 19 23  1  0  0  0  0
 20 24  2  0  0  0  0
 21 24  1  0  0  0  0
 21 43  1  0  0  0  0
 22 25  1  0  0  0  0
 23 26  1  0  0  0  0
 25 26  1  0  0  0  0
 26 44  1  0  0  0  0
 26 45  1  0  0  0  0
M  END
>  <Mol_ID>
9560

>  <Formula>
C21H19NO4

>  <MolWeight>
349.37986

>  <Cat>
E0064

>  <Name>
Dihydrochelerythrine

>  <Synonyms>
12,13-Dihydrochelerythrine

>  <Target>
antifungal (Candida albicans)

>  <Form>
Free Base

>  <CAS>
6880-91-7

>  <URL>
https://www.selleckchem.com/products/dihydrochelerythrine.html

$$$$
