DIHYDROKAVAIN
 OpenBabel08302521453D

 29 30  0  0  0  0  0  0  0  0999 V2000
    0.9966   -0.0817   -0.1486 C   0  0  0  0  0  0  0  0  0  0  0  0
    0.4117   -0.3091    1.0392 C   0  0  0  0  0  0  0  0  0  0  0  0
    0.9229    0.9861   -4.8200 O   0  0  0  0  0  0  0  0  0  0  0  0
    0.2620    1.3253   -6.0342 C   0  0  0  0  0  0  0  0  0  0  0  0
   -3.0873    0.8763   -2.2487 O   0  0  0  0  0  0  0  0  0  0  0  0
    0.2918    0.2555   -1.3677 C   0  0  0  0  0  0  0  0  0  0  0  0
    0.9112    0.4646   -2.5364 C   0  0  0  0  0  0  0  0  0  0  0  0
   -1.1103    0.3838   -1.2453 O   0  0  0  0  0  0  0  0  0  0  0  0
    0.1461    0.8217   -3.7001 C   0  0  0  0  0  0  0  0  0  0  0  0
   -1.8703    0.7404   -2.3206 C   0  0  0  0  0  0  0  0  0  0  0  0
   -1.1824    0.9603   -3.6039 C   0  0  0  0  0  0  0  0  0  0  0  0
    1.1396   -0.5975    2.2852 C   0  0  0  0  0  0  0  0  0  0  0  0
    2.4092   -0.0667    2.5520 C   0  0  0  0  0  0  0  0  0  0  0  0
    0.5109   -1.3626    3.2768 C   0  0  0  0  0  0  0  0  0  0  0  0
    3.0457   -0.3152    3.7708 C   0  0  0  0  0  0  0  0  0  0  0  0
    1.1466   -1.6095    4.4975 C   0  0  0  0  0  0  0  0  0  0  0  0
    2.4142   -1.0872    4.7429 C   0  0  0  0  0  0  0  0  0  0  0  0
    2.0794   -0.1403   -0.2346 H   0  0  0  0  0  0  0  0  0  0  0  0
   -0.6723   -0.2825    1.1320 H   0  0  0  0  0  0  0  0  0  0  0  0
   -0.4569    0.5500   -6.3188 H   0  0  0  0  0  0  0  0  0  0  0  0
   -0.2275    2.3012   -5.9518 H   0  0  0  0  0  0  0  0  0  0  0  0
    1.0176    1.3904   -6.8225 H   0  0  0  0  0  0  0  0  0  0  0  0
    1.9888    0.3814   -2.6394 H   0  0  0  0  0  0  0  0  0  0  0  0
   -1.8265    1.2318   -4.4276 H   0  0  0  0  0  0  0  0  0  0  0  0
    2.9138    0.5634    1.8246 H   0  0  0  0  0  0  0  0  0  0  0  0
   -0.4815   -1.7753    3.1093 H   0  0  0  0  0  0  0  0  0  0  0  0
    4.0295    0.1039    3.9624 H   0  0  0  0  0  0  0  0  0  0  0  0
    0.6472   -2.2039    5.2581 H   0  0  0  0  0  0  0  0  0  0  0  0
    2.9062   -1.2735    5.6938 H   0  0  0  0  0  0  0  0  0  0  0  0
  1  2  2  0  0  0  0
  1  6  1  0  0  0  0
  1 18  1  0  0  0  0
  2 12  1  0  0  0  0
  2 19  1  0  0  0  0
  3  4  1  0  0  0  0
  3  9  1  0  0  0  0
  4 20  1  0  0  0  0
  4 21  1  0  0  0  0
  4 22  1  0  0  0  0
  5 10  2  0  0  0  0
  6  7  2  0  0  0  0
  6  8  1  0  0  0  0
  7  9  1  0  0  0  0
  7 23  1  0  0  0  0
  8 10  1  0  0  0  0
  9 11  2  0  0  0  0
 10 11  1  0  0  0  0
 11 24  1  0  0  0  0
 12 13  2  0  0  0  0
 12 14  1  0  0  0  0
 13 15  1  0  0  0  0
 13 25  1  0  0  0  0
 14 16  2  0  0  0  0
 14 26  1  0  0  0  0
 15 17  2  0  0  0  0
 15 27  1  0  0  0  0
 16 17  1  0  0  0  0
 16 28  1  0  0  0  0
 17 29  1  0  0  0  0
M  END
>  <Mol_ID>
9607

>  <Formula>
C14H12O3

>  <MolWeight>
228.24328

>  <Cat>
E2174

>  <Name>
DIHYDROKAVAIN

>  <Synonyms>
Desmethoxyyangonin

>  <Target>
MAO

>  <Form>
free base

>  <CAS>
15345-89-8

>  <URL>
https://www.selleckchem.com/products/demethoxyyangonin.html

$$$$
