Dihydropinosylvin
 OpenBabel08302521553D

 30 31  0  0  0  0  0  0  0  0999 V2000
    0.9147   -0.0393    0.0028 C   0  0  0  0  0  0  0  0  0  0  0  0
    0.6350    1.1871    0.8862 C   0  0  0  0  0  0  0  0  0  0  0  0
    1.3251    1.2353   -4.7571 O   0  0  0  0  0  0  0  0  0  0  0  0
   -2.7769   -0.5252   -3.2463 O   0  0  0  0  0  0  0  0  0  0  0  0
    0.3454    0.0880   -1.3946 C   0  0  0  0  0  0  0  0  0  0  0  0
    1.1221    0.6224   -2.4370 C   0  0  0  0  0  0  0  0  0  0  0  0
   -0.9690   -0.3215   -1.6732 C   0  0  0  0  0  0  0  0  0  0  0  0
    0.5875    0.7429   -3.7208 C   0  0  0  0  0  0  0  0  0  0  0  0
   -1.4931   -0.1634   -2.9563 C   0  0  0  0  0  0  0  0  0  0  0  0
   -0.7239    0.3627   -3.9839 C   0  0  0  0  0  0  0  0  0  0  0  0
    1.2745    1.0500    2.2525 C   0  0  0  0  0  0  0  0  0  0  0  0
    2.5570    1.5655    2.4876 C   0  0  0  0  0  0  0  0  0  0  0  0
    0.6269    0.3608    3.2893 C   0  0  0  0  0  0  0  0  0  0  0  0
    3.1939    1.3580    3.7123 C   0  0  0  0  0  0  0  0  0  0  0  0
    1.2690    0.1562    4.5115 C   0  0  0  0  0  0  0  0  0  0  0  0
    2.5592    0.6387    4.7230 C   0  0  0  0  0  0  0  0  0  0  0  0
    0.5068   -0.9439    0.4729 H   0  0  0  0  0  0  0  0  0  0  0  0
    1.9955   -0.2123   -0.0688 H   0  0  0  0  0  0  0  0  0  0  0  0
    1.0124    2.0978    0.4013 H   0  0  0  0  0  0  0  0  0  0  0  0
   -0.4466    1.3409    1.0038 H   0  0  0  0  0  0  0  0  0  0  0  0
    2.2394    1.3441   -4.4609 H   0  0  0  0  0  0  0  0  0  0  0  0
   -3.2243   -0.7694   -2.4196 H   0  0  0  0  0  0  0  0  0  0  0  0
    2.1436    0.9346   -2.2405 H   0  0  0  0  0  0  0  0  0  0  0  0
   -1.5718   -0.7643   -0.8851 H   0  0  0  0  0  0  0  0  0  0  0  0
   -1.1389    0.4760   -4.9813 H   0  0  0  0  0  0  0  0  0  0  0  0
    3.0762    2.1249    1.7121 H   0  0  0  0  0  0  0  0  0  0  0  0
   -0.3771   -0.0274    3.1461 H   0  0  0  0  0  0  0  0  0  0  0  0
    4.1975    1.7524    3.8789 H   0  0  0  0  0  0  0  0  0  0  0  0
    0.7639   -0.3941    5.3058 H   0  0  0  0  0  0  0  0  0  0  0  0
    3.0629    0.4617    5.6694 H   0  0  0  0  0  0  0  0  0  0  0  0
  1  2  1  0  0  0  0
  1  5  1  0  0  0  0
  1 17  1  0  0  0  0
  1 18  1  0  0  0  0
  2 11  1  0  0  0  0
  2 19  1  0  0  0  0
  2 20  1  0  0  0  0
  3  8  1  0  0  0  0
  3 21  1  0  0  0  0
  4  9  1  0  0  0  0
  4 22  1  0  0  0  0
  5  6  2  0  0  0  0
  5  7  1  0  0  0  0
  6  8  1  0  0  0  0
  6 23  1  0  0  0  0
  7  9  2  0  0  0  0
  7 24  1  0  0  0  0
  8 10  2  0  0  0  0
  9 10  1  0  0  0  0
 10 25  1  0  0  0  0
 11 12  2  0  0  0  0
 11 13  1  0  0  0  0
 12 14  1  0  0  0  0
 12 26  1  0  0  0  0
 13 15  2  0  0  0  0
 13 27  1  0  0  0  0
 14 16  2  0  0  0  0
 14 28  1  0  0  0  0
 15 16  1  0  0  0  0
 15 29  1  0  0  0  0
 16 30  1  0  0  0  0
M  END
>  <Mol_ID>
10030

>  <Formula>
C14H14O2

>  <MolWeight>
214.25976

>  <Cat>
E5561

>  <Name>
Dihydropinosylvin

>  <Synonyms>
N/A

>  <Target>
Leukotriene

>  <Form>
free base

>  <CAS>
14531-52-3

>  <URL>
https://www.selleckchem.com/products/dihydropinosylvin.html

$$$$
