(¡À)-Dihydroactinidiolide
 OpenBabel08302521363D

 29 30  0  0  0  0  0  0  0  0999 V2000
    2.0341    0.8300   -0.4373 C   0  0  0  0  0  0  0  0  0  0  0  0
   -0.2828    0.0748   -3.8081 C   0  0  0  0  0  0  0  0  0  0  0  0
   -2.3673    1.1744   -3.0073 C   0  0  0  0  0  0  0  0  0  0  0  0
   -0.0092    4.2092    0.2262 O   0  0  0  0  0  0  0  0  0  0  0  0
   -0.2390    1.3488   -1.6103 C   0  0  0  0  0  0  0  0  0  0  0  0
    0.4888    0.8651   -0.3873 C   0  0  3  0  0  0  0  0  0  0  0  0
   -0.3354    2.6784   -1.5683 C   0  0  0  0  0  0  0  0  0  0  0  0
   -1.0664    0.4609   -2.5462 C   0  0  0  0  0  0  0  0  0  0  0  0
    0.2303    1.9424    0.5321 O   0  0  0  0  0  0  0  0  0  0  0  0
   -0.0201   -0.4737    0.1621 C   0  0  0  0  0  0  0  0  0  0  0  0
    0.0046    3.0744   -0.2062 C   0  0  0  0  0  0  0  0  0  0  0  0
   -1.5373   -0.8040   -1.7880 C   0  0  0  0  0  0  0  0  0  0  0  0
   -0.4412   -1.4408   -0.9456 C   0  0  0  0  0  0  0  0  0  0  0  0
    2.4244    0.1138   -1.1612 H   0  0  0  0  0  0  0  0  0  0  0  0
    2.4204    0.5663    0.5598 H   0  0  0  0  0  0  0  0  0  0  0  0
    2.4581    1.8205   -0.6402 H   0  0  0  0  0  0  0  0  0  0  0  0
   -0.8357   -0.6569   -4.4155 H   0  0  0  0  0  0  0  0  0  0  0  0
   -0.1023    0.9446   -4.4513 H   0  0  0  0  0  0  0  0  0  0  0  0
    0.6842   -0.3698   -3.5628 H   0  0  0  0  0  0  0  0  0  0  0  0
   -2.9520    1.5232   -2.1466 H   0  0  0  0  0  0  0  0  0  0  0  0
   -2.1629    2.0426   -3.6452 H   0  0  0  0  0  0  0  0  0  0  0  0
   -3.0085    0.4952   -3.5807 H   0  0  0  0  0  0  0  0  0  0  0  0
   -0.8160    3.3610   -2.2449 H   0  0  0  0  0  0  0  0  0  0  0  0
   -0.8575   -0.3158    0.8526 H   0  0  0  0  0  0  0  0  0  0  0  0
    0.7569   -0.9730    0.7559 H   0  0  0  0  0  0  0  0  0  0  0  0
   -1.9413   -1.5421   -2.4916 H   0  0  0  0  0  0  0  0  0  0  0  0
   -2.3680   -0.5439   -1.1162 H   0  0  0  0  0  0  0  0  0  0  0  0
   -0.8218   -2.3661   -0.4988 H   0  0  0  0  0  0  0  0  0  0  0  0
    0.4129   -1.7195   -1.5757 H   0  0  0  0  0  0  0  0  0  0  0  0
  1  6  1  0  0  0  0
  1 14  1  0  0  0  0
  1 15  1  0  0  0  0
  1 16  1  0  0  0  0
  2  8  1  0  0  0  0
  2 17  1  0  0  0  0
  2 18  1  0  0  0  0
  2 19  1  0  0  0  0
  3  8  1  0  0  0  0
  3 20  1  0  0  0  0
  3 21  1  0  0  0  0
  3 22  1  0  0  0  0
  4 11  2  0  0  0  0
  5  6  1  0  0  0  0
  5  7  2  0  0  0  0
  5  8  1  0  0  0  0
  6  9  1  0  0  0  0
  6 10  1  0  0  0  0
  7 11  1  0  0  0  0
  7 23  1  0  0  0  0
  8 12  1  0  0  0  0
  9 11  1  0  0  0  0
 10 13  1  0  0  0  0
 10 24  1  0  0  0  0
 10 25  1  0  0  0  0
 12 13  1  0  0  0  0
 12 26  1  0  0  0  0
 12 27  1  0  0  0  0
 13 28  1  0  0  0  0
 13 29  1  0  0  0  0
M  END
>  <Mol_ID>
7235

>  <Formula>
C11H16O2

>  <MolWeight>
180.24354

>  <Cat>
E4242

>  <Name>
(¡À)-Dihydroactinidiolide

>  <Target>
Others

>  <Form>
Free base

>  <CAS>
15356-74-8

>  <URL>
https://www.selleckchem.com/products/dihydroactinidiolide.html

$$$$
