Diltiazem HCl.cdx
 OpenBabel08302522063D

 55 57  0  0  0  0  0  0  0  0999 V2000
    0.6010    0.8387   -0.1397 C   0  0  0  0  0  0  0  0  0  0  0  0
   -0.6205    1.4233    0.3193 N   0  0  0  0  0  0  0  0  0  0  0  0
   -1.9042    1.0601   -0.1181 C   0  0  0  0  0  0  0  0  0  0  0  0
   -2.0255    0.0507   -1.2800 C   0  0  1  0  0  0  0  0  0  0  0  0
   -1.7824   -1.4202   -0.8650 C   0  0  1  0  0  0  0  0  0  0  0  0
   -0.4283   -1.7347    0.3308 S   0  0  0  0  0  0  0  0  0  0  0  0
    0.7927   -0.5530   -0.2247 C   0  0  0  0  0  0  0  0  0  0  0  0
   -3.3351    0.1207   -1.9032 O   0  0  0  0  0  0  0  0  0  0  0  0
   -3.0417   -2.1820   -0.4376 C   0  0  0  0  0  0  0  0  0  0  0  0
   -3.4567   -3.3005   -1.1829 C   0  0  0  0  0  0  0  0  0  0  0  0
   -4.6688   -3.9462   -0.9117 C   0  0  0  0  0  0  0  0  0  0  0  0
   -5.4909   -3.4891    0.1130 C   0  0  0  0  0  0  0  0  0  0  0  0
   -5.0546   -2.4265    0.9085 C   0  0  0  0  0  0  0  0  0  0  0  0
   -3.8422   -1.7764    0.6394 C   0  0  0  0  0  0  0  0  0  0  0  0
   -6.7265   -3.9864    0.4290 O   0  0  0  0  0  0  0  0  0  0  0  0
   -7.3045   -4.8961   -0.5012 C   0  0  0  0  0  0  0  0  0  0  0  0
   -3.5387    1.0895   -2.8241 C   0  0  0  0  0  0  0  0  0  0  0  0
   -4.9362    1.0312   -3.3689 C   0  0  0  0  0  0  0  0  0  0  0  0
   -2.6839    1.8824   -3.2024 O   0  0  0  0  0  0  0  0  0  0  0  0
   -2.9153    1.5911    0.3562 O   0  0  0  0  0  0  0  0  0  0  0  0
   -0.5119    2.4981    1.3316 C   0  0  0  0  0  0  0  0  0  0  0  0
   -1.0392    2.0848    2.7282 C   0  0  0  0  0  0  0  0  0  0  0  0
   -0.7951    3.0900    3.7909 N   0  0  0  0  0  0  0  0  0  0  0  0
   -1.4644    4.3620    3.5090 C   0  0  0  0  0  0  0  0  0  0  0  0
   -1.2685    2.5688    5.0791 C   0  0  0  0  0  0  0  0  0  0  0  0
    2.0606   -1.0572   -0.5654 C   0  0  0  0  0  0  0  0  0  0  0  0
    3.1317   -0.1990   -0.8282 C   0  0  0  0  0  0  0  0  0  0  0  0
    2.9441    1.1747   -0.7711 C   0  0  0  0  0  0  0  0  0  0  0  0
    1.6880    1.6858   -0.4418 C   0  0  0  0  0  0  0  0  0  0  0  0
   -1.2753    0.3221   -2.0358 H   0  0  0  0  0  0  0  0  0  0  0  0
   -1.4431   -1.9095   -1.7887 H   0  0  0  0  0  0  0  0  0  0  0  0
   -2.8489   -3.6694   -2.0063 H   0  0  0  0  0  0  0  0  0  0  0  0
   -4.9455   -4.7941   -1.5294 H   0  0  0  0  0  0  0  0  0  0  0  0
   -5.6774   -2.0809    1.7305 H   0  0  0  0  0  0  0  0  0  0  0  0
   -3.5557   -0.9347    1.2671 H   0  0  0  0  0  0  0  0  0  0  0  0
   -7.2844   -4.5045   -1.5250 H   0  0  0  0  0  0  0  0  0  0  0  0
   -6.8083   -5.8700   -0.4438 H   0  0  0  0  0  0  0  0  0  0  0  0
   -8.3552   -5.0368   -0.2282 H   0  0  0  0  0  0  0  0  0  0  0  0
   -5.4127    2.0092   -3.2556 H   0  0  0  0  0  0  0  0  0  0  0  0
   -4.9020    0.7428   -4.4221 H   0  0  0  0  0  0  0  0  0  0  0  0
   -5.5420    0.2944   -2.8295 H   0  0  0  0  0  0  0  0  0  0  0  0
    0.5300    2.8124    1.4616 H   0  0  0  0  0  0  0  0  0  0  0  0
   -1.0690    3.3586    0.9443 H   0  0  0  0  0  0  0  0  0  0  0  0
   -2.1070    1.8445    2.6768 H   0  0  0  0  0  0  0  0  0  0  0  0
   -0.5230    1.1570    3.0111 H   0  0  0  0  0  0  0  0  0  0  0  0
   -2.5470    4.2427    3.3875 H   0  0  0  0  0  0  0  0  0  0  0  0
   -1.2844    5.0766    4.3207 H   0  0  0  0  0  0  0  0  0  0  0  0
   -1.0590    4.8320    2.6080 H   0  0  0  0  0  0  0  0  0  0  0  0
   -2.3341    2.3125    5.0531 H   0  0  0  0  0  0  0  0  0  0  0  0
   -0.7029    1.6755    5.3655 H   0  0  0  0  0  0  0  0  0  0  0  0
   -1.1153    3.3049    5.8769 H   0  0  0  0  0  0  0  0  0  0  0  0
    2.2408   -2.1306   -0.5887 H   0  0  0  0  0  0  0  0  0  0  0  0
    4.1172   -0.6030   -1.0480 H   0  0  0  0  0  0  0  0  0  0  0  0
    3.7743    1.8525   -0.9592 H   0  0  0  0  0  0  0  0  0  0  0  0
    1.5699    2.7675   -0.4247 H   0  0  0  0  0  0  0  0  0  0  0  0
  1  2  1  0  0  0  0
  2  3  1  0  0  0  0
  2 21  1  0  0  0  0
  3  4  1  0  0  0  0
  3 20  2  0  0  0  0
  4  5  1  0  0  0  0
  4  8  1  0  0  0  0
  4 30  1  6  0  0  0
  5  6  1  0  0  0  0
  5  9  1  0  0  0  0
  5 31  1  6  0  0  0
  6  7  1  0  0  0  0
  7  1  2  0  0  0  0
  7 26  1  0  0  0  0
  8 17  1  0  0  0  0
  9 10  2  0  0  0  0
 10 11  1  0  0  0  0
 10 32  1  0  0  0  0
 11 12  2  0  0  0  0
 11 33  1  0  0  0  0
 12 13  1  0  0  0  0
 12 15  1  0  0  0  0
 13 14  2  0  0  0  0
 13 34  1  0  0  0  0
 14  9  1  0  0  0  0
 14 35  1  0  0  0  0
 15 16  1  0  0  0  0
 16 36  1  0  0  0  0
 16 37  1  0  0  0  0
 16 38  1  0  0  0  0
 17 18  1  0  0  0  0
 17 19  2  0  0  0  0
 18 39  1  0  0  0  0
 18 40  1  0  0  0  0
 18 41  1  0  0  0  0
 21 22  1  0  0  0  0
 21 42  1  0  0  0  0
 21 43  1  0  0  0  0
 22 23  1  0  0  0  0
 22 44  1  0  0  0  0
 22 45  1  0  0  0  0
 23 24  1  0  0  0  0
 23 25  1  0  0  0  0
 24 46  1  0  0  0  0
 24 47  1  0  0  0  0
 24 48  1  0  0  0  0
 25 49  1  0  0  0  0
 25 50  1  0  0  0  0
 25 51  1  0  0  0  0
 26 27  2  0  0  0  0
 26 52  1  0  0  0  0
 27 28  1  0  0  0  0
 27 53  1  0  0  0  0
 28 29  2  0  0  0  0
 28 54  1  0  0  0  0
 29  1  1  0  0  0  0
 29 55  1  0  0  0  0
M  END
>  <Mol_ID>
163

>  <Formula>
C22H27ClN2O4S

>  <MolWeight>
450.97878

>  <Cat>
S1865

>  <Name>
Diltiazem HCl

>  <Synonyms>
RG 83606 HCl

>  <Target>
Calcium Channel

>  <Form>
Hydrochloride

>  <CAS>
33286-22-5

>  <URL>
http://selleckchem.com/products/Diltiazem-HCl(Tiazac).html

$$$$
