Dimaprit 2HCl
 OpenBabel08302520303D

 25 24  0  0  0  0  0  0  0  0999 V2000
   -1.5856    0.6524   -3.4130 C   0  0  0  0  0  0  0  0  0  0  0  0
   -0.3955    1.9020   -3.2290 S   0  0  0  0  0  0  0  0  0  0  0  0
   -2.5706    0.9351   -4.2892 N   0  0  0  0  0  0  0  0  0  0  0  0
   -1.5992   -0.4540   -2.7622 N   0  0  0  0  0  0  0  0  0  0  0  0
    0.9054    1.1726   -2.1915 C   0  0  0  0  0  0  0  0  0  0  0  0
    2.0216    2.2015   -1.9847 C   0  0  0  0  0  0  0  0  0  0  0  0
    3.1173    1.7213   -1.0175 C   0  0  0  0  0  0  0  0  0  0  0  0
    3.7679    0.4613   -1.4132 N   0  0  0  0  0  0  0  0  0  0  0  0
    4.6110    0.6368   -2.5994 C   0  0  0  0  0  0  0  0  0  0  0  0
    4.5814   -0.0576   -0.3073 C   0  0  0  0  0  0  0  0  0  0  0  0
   -3.3973    0.3693   -4.1394 H   0  0  0  0  0  0  0  0  0  0  0  0
   -2.7491    1.9227   -4.4257 H   0  0  0  0  0  0  0  0  0  0  0  0
   -0.7987   -0.5190   -2.1358 H   0  0  0  0  0  0  0  0  0  0  0  0
    0.4791    0.8948   -1.2222 H   0  0  0  0  0  0  0  0  0  0  0  0
    1.2939    0.2740   -2.6800 H   0  0  0  0  0  0  0  0  0  0  0  0
    2.4666    2.4800   -2.9464 H   0  0  0  0  0  0  0  0  0  0  0  0
    1.5972    3.1225   -1.5616 H   0  0  0  0  0  0  0  0  0  0  0  0
    3.8640    2.5192   -0.9023 H   0  0  0  0  0  0  0  0  0  0  0  0
    2.6494    1.5936   -0.0323 H   0  0  0  0  0  0  0  0  0  0  0  0
    5.3936    1.3886   -2.4443 H   0  0  0  0  0  0  0  0  0  0  0  0
    5.0948   -0.3093   -2.8685 H   0  0  0  0  0  0  0  0  0  0  0  0
    4.0145    0.9284   -3.4689 H   0  0  0  0  0  0  0  0  0  0  0  0
    5.3289    0.6668    0.0357 H   0  0  0  0  0  0  0  0  0  0  0  0
    3.9428   -0.3268    0.5411 H   0  0  0  0  0  0  0  0  0  0  0  0
    5.1033   -0.9742   -0.6053 H   0  0  0  0  0  0  0  0  0  0  0  0
  1  2  1  0  0  0  0
  1  3  1  0  0  0  0
  1  4  2  0  0  0  0
  2  5  1  0  0  0  0
  3 11  1  0  0  0  0
  3 12  1  0  0  0  0
  4 13  1  0  0  0  0
  5  6  1  0  0  0  0
  5 14  1  0  0  0  0
  5 15  1  0  0  0  0
  6  7  1  0  0  0  0
  6 16  1  0  0  0  0
  6 17  1  0  0  0  0
  7  8  1  0  0  0  0
  7 18  1  0  0  0  0
  7 19  1  0  0  0  0
  8  9  1  0  0  0  0
  8 10  1  0  0  0  0
  9 20  1  0  0  0  0
  9 21  1  0  0  0  0
  9 22  1  0  0  0  0
 10 23  1  0  0  0  0
 10 24  1  0  0  0  0
 10 25  1  0  0  0  0
M  END
>  <Mol_ID>
3318

>  <Formula>
C6H17Cl2N3S

>  <MolWeight>
234.19028

>  <Cat>
S4320

>  <Name>
Dimaprit 2HCl

>  <Synonyms>
N/A

>  <Target>
Histamine Receptor

>  <Form>
Dihydrochloride

>  <CAS>
23256-33-9

>  <URL>
http://www.selleckchem.com/products/dimaprit-2hcl.html

$$$$
