Dimethyl itaconate
 OpenBabel08302521343D

 21 20  0  0  0  0  0  0  0  0999 V2000
    0.1863   -0.1869    0.5371 C   0  0  0  0  0  0  0  0  0  0  0  0
    0.1898    1.2208   -0.0322 C   0  0  0  0  0  0  0  0  0  0  0  0
   -0.5582    1.2752   -1.3395 C   0  0  0  0  0  0  0  0  0  0  0  0
    1.2612   -0.3347    1.3678 O   0  0  0  0  0  0  0  0  0  0  0  0
   -2.0296    1.4920   -1.2111 C   0  0  0  0  0  0  0  0  0  0  0  0
   -2.6514    1.4852   -2.4162 O   0  0  0  0  0  0  0  0  0  0  0  0
   -2.5783    1.6781   -0.1356 O   0  0  0  0  0  0  0  0  0  0  0  0
    0.0738    1.1639   -2.5195 C   0  0  0  0  0  0  0  0  0  0  0  0
   -0.6363   -1.0600    0.2998 O   0  0  0  0  0  0  0  0  0  0  0  0
   -4.0649    1.6910   -2.3356 C   0  0  0  0  0  0  0  0  0  0  0  0
    1.3813   -1.6330    1.9505 C   0  0  0  0  0  0  0  0  0  0  0  0
   -0.2326    1.9042    0.7100 H   0  0  0  0  0  0  0  0  0  0  0  0
    1.2313    1.5262   -0.1955 H   0  0  0  0  0  0  0  0  0  0  0  0
    1.1512    1.0089   -2.5649 H   0  0  0  0  0  0  0  0  0  0  0  0
   -0.4460    1.2061   -3.4693 H   0  0  0  0  0  0  0  0  0  0  0  0
   -4.5376    0.8623   -1.7991 H   0  0  0  0  0  0  0  0  0  0  0  0
   -4.2925    2.6455   -1.8493 H   0  0  0  0  0  0  0  0  0  0  0  0
   -4.4676    1.7198   -3.3520 H   0  0  0  0  0  0  0  0  0  0  0  0
    0.4704   -1.9028    2.4927 H   0  0  0  0  0  0  0  0  0  0  0  0
    1.6098   -2.3750    1.1786 H   0  0  0  0  0  0  0  0  0  0  0  0
    2.2120   -1.6077    2.6617 H   0  0  0  0  0  0  0  0  0  0  0  0
  1  2  1  0  0  0  0
  1  4  1  0  0  0  0
  1  9  2  0  0  0  0
  2  3  1  0  0  0  0
  2 12  1  0  0  0  0
  2 13  1  0  0  0  0
  3  5  1  0  0  0  0
  3  8  2  0  0  0  0
  4 11  1  0  0  0  0
  5  6  1  0  0  0  0
  5  7  2  0  0  0  0
  6 10  1  0  0  0  0
  8 14  1  0  0  0  0
  8 15  1  0  0  0  0
 10 16  1  0  0  0  0
 10 17  1  0  0  0  0
 10 18  1  0  0  0  0
 11 19  1  0  0  0  0
 11 20  1  0  0  0  0
 11 21  1  0  0  0  0
M  END
>  <Mol_ID>
6426

>  <Formula>
C7H10O4

>  <MolWeight>
158.1519

>  <Cat>
E1281

>  <Name>
Dimethyl itaconate

>  <Target>
NLRP3,Nrf2

>  <Form>
free base

>  <CAS>
617-52-7

>  <URL>
http://www.selleckchem.com/products/dimethyl-itaconate.html

$$$$
