Dimethyl pimelimidate dihydrochloride
 OpenBabel08302521383D

 31 30  0  0  0  0  0  0  0  0999 V2000
    1.1879    0.5085    1.8990 C   0  0  0  0  0  0  0  0  0  0  0  0
    0.5230    1.0328    0.6193 C   0  0  0  0  0  0  0  0  0  0  0  0
    0.7085   -0.8670    2.2875 C   0  0  0  0  0  0  0  0  0  0  0  0
    1.0685    2.4074    0.2212 C   0  0  0  0  0  0  0  0  0  0  0  0
    1.2585   -1.5171    3.3206 O   0  0  0  0  0  0  0  0  0  0  0  0
   -0.2692   -1.4655    1.6937 N   0  0  0  0  0  0  0  0  0  0  0  0
    0.4222    2.9889   -1.0416 C   0  0  0  0  0  0  0  0  0  0  0  0
    2.5289   -1.1194    3.8590 C   0  0  0  0  0  0  0  0  0  0  0  0
    0.6893    2.1737   -2.3067 C   0  0  0  0  0  0  0  0  0  0  0  0
    0.0772    2.8377   -3.5067 C   0  0  0  0  0  0  0  0  0  0  0  0
   -1.1845    2.5895   -3.8839 O   0  0  0  0  0  0  0  0  0  0  0  0
    0.7367    3.6944   -4.2081 N   0  0  0  0  0  0  0  0  0  0  0  0
   -1.9964    1.6364   -3.1833 C   0  0  0  0  0  0  0  0  0  0  0  0
    0.9804    1.1869    2.7326 H   0  0  0  0  0  0  0  0  0  0  0  0
    2.2688    0.4791    1.7363 H   0  0  0  0  0  0  0  0  0  0  0  0
    0.6962    0.3123   -0.1880 H   0  0  0  0  0  0  0  0  0  0  0  0
   -0.5632    1.0973    0.7623 H   0  0  0  0  0  0  0  0  0  0  0  0
    0.8943    3.1093    1.0463 H   0  0  0  0  0  0  0  0  0  0  0  0
    2.1544    2.3491    0.0801 H   0  0  0  0  0  0  0  0  0  0  0  0
   -0.3833   -2.3648    2.1764 H   0  0  0  0  0  0  0  0  0  0  0  0
   -0.6554    3.1013   -0.8800 H   0  0  0  0  0  0  0  0  0  0  0  0
    0.8103    4.0054   -1.1880 H   0  0  0  0  0  0  0  0  0  0  0  0
    3.2437   -0.9012    3.0624 H   0  0  0  0  0  0  0  0  0  0  0  0
    2.4043   -0.2672    4.5304 H   0  0  0  0  0  0  0  0  0  0  0  0
    2.9184   -1.9660    4.4305 H   0  0  0  0  0  0  0  0  0  0  0  0
    1.7712    2.1024   -2.4764 H   0  0  0  0  0  0  0  0  0  0  0  0
    0.3283    1.1465   -2.2206 H   0  0  0  0  0  0  0  0  0  0  0  0
    0.0996    4.0027   -4.9540 H   0  0  0  0  0  0  0  0  0  0  0  0
   -1.5741    0.6330   -3.2775 H   0  0  0  0  0  0  0  0  0  0  0  0
   -2.1172    1.9227   -2.1366 H   0  0  0  0  0  0  0  0  0  0  0  0
   -2.9851    1.6370   -3.6516 H   0  0  0  0  0  0  0  0  0  0  0  0
  1  2  1  0  0  0  0
  1  3  1  0  0  0  0
  1 14  1  0  0  0  0
  1 15  1  0  0  0  0
  2  4  1  0  0  0  0
  2 16  1  0  0  0  0
  2 17  1  0  0  0  0
  3  5  1  0  0  0  0
  3  6  2  0  0  0  0
  4  7  1  0  0  0  0
  4 18  1  0  0  0  0
  4 19  1  0  0  0  0
  5  8  1  0  0  0  0
  6 20  1  0  0  0  0
  7  9  1  0  0  0  0
  7 21  1  0  0  0  0
  7 22  1  0  0  0  0
  8 23  1  0  0  0  0
  8 24  1  0  0  0  0
  8 25  1  0  0  0  0
  9 10  1  0  0  0  0
  9 26  1  0  0  0  0
  9 27  1  0  0  0  0
 10 11  1  0  0  0  0
 10 12  2  0  0  0  0
 11 13  1  0  0  0  0
 12 28  1  0  0  0  0
 13 29  1  0  0  0  0
 13 30  1  0  0  0  0
 13 31  1  0  0  0  0
M  END
>  <Mol_ID>
7639

>  <Formula>
C9H19ClN2O2

>  <MolWeight>
222.71236

>  <Cat>
E2999

>  <Name>
Dimethyl pimelimidate dihydrochloride

>  <Synonyms>
DMP

>  <Target>
Others

>  <Form>
dihydrochloride

>  <CAS>
58537-94-3

>  <URL>
https://www.selleckchem.com/products/dimethyl-pimelimidate-dihydrochloride.html

$$$$
