Dimethyl Fumarate.cdx
 OpenBabel08302521433D

 18 17  0  0  0  0  0  0  0  0999 V2000
    0.9498   -0.0651    0.0678 C   0  0  0  0  0  0  0  0  0  0  0  0
    0.2767    0.8401    1.0155 C   0  0  0  0  0  0  0  0  0  0  0  0
   -1.0630    0.8625    1.0388 C   0  0  0  0  0  0  0  0  0  0  0  0
   -1.7789    1.7516    1.9696 C   0  0  0  0  0  0  0  0  0  0  0  0
    0.3740   -0.8084   -0.7105 O   0  0  0  0  0  0  0  0  0  0  0  0
    2.2905    0.0694    0.2082 O   0  0  0  0  0  0  0  0  0  0  0  0
   -1.2498    2.5103    2.7640 O   0  0  0  0  0  0  0  0  0  0  0  0
   -3.1087    1.5701    1.7790 O   0  0  0  0  0  0  0  0  0  0  0  0
    3.0447   -0.7695   -0.6703 C   0  0  0  0  0  0  0  0  0  0  0  0
   -3.9392    2.3730    2.6194 C   0  0  0  0  0  0  0  0  0  0  0  0
    0.8906    1.4567    1.6611 H   0  0  0  0  0  0  0  0  0  0  0  0
   -1.6648    0.2397    0.3864 H   0  0  0  0  0  0  0  0  0  0  0  0
    2.8310   -1.8250   -0.4718 H   0  0  0  0  0  0  0  0  0  0  0  0
    2.8308   -0.5225   -1.7155 H   0  0  0  0  0  0  0  0  0  0  0  0
    4.1072   -0.5916   -0.4842 H   0  0  0  0  0  0  0  0  0  0  0  0
   -3.7661    2.1334    3.6731 H   0  0  0  0  0  0  0  0  0  0  0  0
   -3.7660    3.4365    2.4283 H   0  0  0  0  0  0  0  0  0  0  0  0
   -4.9821    2.1447    2.3804 H   0  0  0  0  0  0  0  0  0  0  0  0
  1  2  1  0  0  0  0
  1  5  2  0  0  0  0
  1  6  1  0  0  0  0
  2  3  2  0  0  0  0
  2 11  1  0  0  0  0
  3  4  1  0  0  0  0
  3 12  1  0  0  0  0
  4  7  2  0  0  0  0
  4  8  1  0  0  0  0
  6  9  1  0  0  0  0
  8 10  1  0  0  0  0
  9 13  1  0  0  0  0
  9 14  1  0  0  0  0
  9 15  1  0  0  0  0
 10 16  1  0  0  0  0
 10 17  1  0  0  0  0
 10 18  1  0  0  0  0
M  END
>  <Mol_ID>
859

>  <Formula>
C6H8O4

>  <MolWeight>
144.12532

>  <Cat>
S2586

>  <Name>
Dimethyl Fumarate

>  <Synonyms>
DMF,Tecfidera,BG-12

>  <Target>
Nrf2

>  <Form>
free base

>  <CAS>
624-49-7

>  <URL>
http://selleckchem.com/products/dimethyl-Fumarate.html

$$$$
