Dimenhydrinate
 OpenBabel08302520393D

 61 63  0  0  0  0  0  0  0  0999 V2000
   -1.2080   -0.5101   -0.0144 C   0  0  0  0  0  0  0  0  0  0  0  0
   -1.1025    1.0790   -0.2775 C   0  0  0  0  0  0  0  0  0  0  0  0
    0.2976   -1.5693    0.3711 C   0  0  0  0  0  0  0  0  0  0  0  0
   -2.5692   -0.6575   -0.0781 N   0  0  0  0  0  0  0  0  0  0  0  0
    0.4222    1.9174   -0.3294 N   0  0  0  0  0  0  0  0  0  0  0  0
   -2.3246    1.6314   -0.3869 N   0  0  0  0  0  0  0  0  0  0  0  0
    1.8359   -0.6471    0.3944 N   0  0  0  0  0  0  0  0  0  0  0  0
    0.2251   -2.7713    0.6219 O   0  0  0  0  0  0  0  0  0  0  0  0
   -3.1462    0.6042   -0.2517 C   0  0  0  0  0  0  0  0  0  0  0  0
    2.0603    1.1112   -0.0526 C   0  0  0  0  0  0  0  0  0  0  0  0
    0.3275    3.3832   -0.3631 C   0  0  0  0  0  0  0  0  0  0  0  0
    3.0675   -1.3977    0.4021 C   0  0  0  0  0  0  0  0  0  0  0  0
    3.1461    1.6847   -0.1145 O   0  0  0  0  0  0  0  0  0  0  0  0
    0.5519   -0.0448   -0.9984 C   0  0  0  0  0  0  0  0  0  0  0  0
    0.3698    0.4344    1.1124 C   0  0  0  0  0  0  0  0  0  0  0  0
    0.6946    0.8916   -2.4265 C   0  0  0  0  0  0  0  0  0  0  0  0
   -0.0491   -1.4937   -1.7653 O   0  0  0  0  0  0  0  0  0  0  0  0
   -0.3613   -0.3349    2.2551 C   0  0  0  0  0  0  0  0  0  0  0  0
    0.9913    1.5726    1.9754 C   0  0  0  0  0  0  0  0  0  0  0  0
    2.0059    1.0858   -2.9410 C   0  0  0  0  0  0  0  0  0  0  0  0
   -0.3936    1.0199   -3.2967 C   0  0  0  0  0  0  0  0  0  0  0  0
   -0.1709   -1.9382   -3.1969 C   0  0  0  0  0  0  0  0  0  0  0  0
   -0.4912   -0.0249    3.6519 C   0  0  0  0  0  0  0  0  0  0  0  0
    0.8502    1.8712    3.3744 C   0  0  0  0  0  0  0  0  0  0  0  0
    2.2329    1.1768   -4.3024 C   0  0  0  0  0  0  0  0  0  0  0  0
   -0.1486    1.0684   -4.6730 C   0  0  0  0  0  0  0  0  0  0  0  0
    1.0910   -2.5015   -4.0320 C   0  0  0  0  0  0  0  0  0  0  0  0
    0.0891    1.0894    4.2064 C   0  0  0  0  0  0  0  0  0  0  0  0
    1.1573    1.0895   -5.1706 C   0  0  0  0  0  0  0  0  0  0  0  0
    1.3007   -2.7935   -5.5135 N   0  0  0  0  0  0  0  0  0  0  0  0
    2.6698   -3.3247   -5.7209 C   0  0  0  0  0  0  0  0  0  0  0  0
    0.4075   -3.5368   -6.4109 C   0  0  0  0  0  0  0  0  0  0  0  0
   -3.0844   -1.5170    0.0276 H   0  0  0  0  0  0  0  0  0  0  0  0
   -4.2239    0.7122   -0.2663 H   0  0  0  0  0  0  0  0  0  0  0  0
   -0.2471    3.6846   -1.2415 H   0  0  0  0  0  0  0  0  0  0  0  0
   -0.2315    3.7072    0.5264 H   0  0  0  0  0  0  0  0  0  0  0  0
    1.3115    3.8535   -0.3519 H   0  0  0  0  0  0  0  0  0  0  0  0
    3.1198   -2.0230    1.2914 H   0  0  0  0  0  0  0  0  0  0  0  0
    3.0771   -2.0334   -0.4893 H   0  0  0  0  0  0  0  0  0  0  0  0
    3.9227   -0.7186    0.3505 H   0  0  0  0  0  0  0  0  0  0  0  0
    1.5387   -0.4452   -1.3173 H   0  0  0  0  0  0  0  0  0  0  0  0
   -0.9088   -1.2739    2.1110 H   0  0  0  0  0  0  0  0  0  0  0  0
    1.6582    2.3539    1.5886 H   0  0  0  0  0  0  0  0  0  0  0  0
    2.8941    1.0086   -2.3212 H   0  0  0  0  0  0  0  0  0  0  0  0
   -1.4122    0.8579   -2.9509 H   0  0  0  0  0  0  0  0  0  0  0  0
   -0.8138   -2.8268   -3.0882 H   0  0  0  0  0  0  0  0  0  0  0  0
   -0.8115   -1.2763   -3.7746 H   0  0  0  0  0  0  0  0  0  0  0  0
   -1.0640   -0.6920    4.2960 H   0  0  0  0  0  0  0  0  0  0  0  0
    1.3603    2.7403    3.7910 H   0  0  0  0  0  0  0  0  0  0  0  0
    3.2559    1.1941   -4.6677 H   0  0  0  0  0  0  0  0  0  0  0  0
   -0.9782    0.9527   -5.3656 H   0  0  0  0  0  0  0  0  0  0  0  0
    1.8349   -1.7229   -3.8636 H   0  0  0  0  0  0  0  0  0  0  0  0
    1.4356   -3.3845   -3.4807 H   0  0  0  0  0  0  0  0  0  0  0  0
   -0.0374    1.3353    5.2574 H   0  0  0  0  0  0  0  0  0  0  0  0
    1.3426    0.9830   -6.2346 H   0  0  0  0  0  0  0  0  0  0  0  0
    2.7636   -4.3876   -5.4555 H   0  0  0  0  0  0  0  0  0  0  0  0
    2.9864   -3.2206   -6.7687 H   0  0  0  0  0  0  0  0  0  0  0  0
    3.3963   -2.7595   -5.1319 H   0  0  0  0  0  0  0  0  0  0  0  0
    0.2513   -4.5981   -6.1749 H   0  0  0  0  0  0  0  0  0  0  0  0
   -0.5525   -3.0427   -6.5775 H   0  0  0  0  0  0  0  0  0  0  0  0
    0.8582   -3.5566   -7.4274 H   0  0  0  0  0  0  0  0  0  0  0  0
  1  2  2  0  0  0  0
  1  3  1  0  0  0  0
  1  4  1  0  0  0  0
  2  5  1  0  0  0  0
  2  6  1  0  0  0  0
  3  7  1  0  0  0  0
  3  8  2  0  0  0  0
  4  9  1  0  0  0  0
  4 33  1  0  0  0  0
  5 10  1  0  0  0  0
  5 11  1  0  0  0  0
  6  9  2  0  0  0  0
  7 12  1  0  0  0  0
  7 10  1  0  0  0  0
  9 34  1  0  0  0  0
 10 13  2  0  0  0  0
 11 35  1  0  0  0  0
 11 36  1  0  0  0  0
 11 37  1  0  0  0  0
 12 38  1  0  0  0  0
 12 39  1  0  0  0  0
 12 40  1  0  0  0  0
 14 15  1  0  0  0  0
 14 16  1  0  0  0  0
 14 17  1  0  0  0  0
 14 41  1  0  0  0  0
 15 18  2  0  0  0  0
 15 19  1  0  0  0  0
 16 20  2  0  0  0  0
 16 21  1  0  0  0  0
 17 22  1  0  0  0  0
 18 23  1  0  0  0  0
 18 42  1  0  0  0  0
 19 24  2  0  0  0  0
 19 43  1  0  0  0  0
 20 25  1  0  0  0  0
 20 44  1  0  0  0  0
 21 26  2  0  0  0  0
 21 45  1  0  0  0  0
 22 27  1  0  0  0  0
 22 46  1  0  0  0  0
 22 47  1  0  0  0  0
 23 28  2  0  0  0  0
 23 48  1  0  0  0  0
 24 28  1  0  0  0  0
 24 49  1  0  0  0  0
 25 29  2  0  0  0  0
 25 50  1  0  0  0  0
 26 29  1  0  0  0  0
 26 51  1  0  0  0  0
 27 30  1  0  0  0  0
 27 52  1  0  0  0  0
 27 53  1  0  0  0  0
 28 54  1  0  0  0  0
 29 55  1  0  0  0  0
 30 31  1  0  0  0  0
 30 32  1  0  0  0  0
 31 56  1  0  0  0  0
 31 57  1  0  0  0  0
 31 58  1  0  0  0  0
 32 59  1  0  0  0  0
 32 60  1  0  0  0  0
 32 61  1  0  0  0  0
M  END
>  <Mol_ID>
3698

>  <Formula>
C24H28ClN5O3

>  <MolWeight>
469.96382

>  <Cat>
S4672

>  <Name>
Dimenhydrinate

>  <Synonyms>
N/A

>  <Target>
Histamine Receptor

>  <Form>
Free Base

>  <CAS>
523-87-5

>  <URL>
http://www.selleck.cn/products/dimenhydrinate.html

$$$$
