Dimesna.cdx
 OpenBabel08302519503D

 22 21  0  0  0  0  0  0  0  0999 V2000
    2.3435    2.6740    0.6572 S   0  0  0  0  0  0  0  0  0  0  0  0
    2.3628    1.8417   -0.9222 C   0  0  0  0  0  0  0  0  0  0  0  0
    0.9643    1.8176   -1.5040 C   0  0  0  0  0  0  0  0  0  0  0  0
    1.4333    1.8645    1.4650 O   0  5  0  0  0  0  0  0  0  0  0  0
    0.8157    1.0790   -3.1738 S   0  0  0  0  0  0  0  0  0  0  0  0
    1.5920   -0.8132   -2.9815 S   0  0  0  0  0  0  0  0  0  0  0  0
    0.4409   -1.6866   -1.8522 C   0  0  0  0  0  0  0  0  0  0  0  0
   -1.0529   -1.6746   -2.1154 C   0  0  0  0  0  0  0  0  0  0  0  0
   -1.5926   -2.7001   -3.4591 S   0  0  0  0  0  0  0  0  0  0  0  0
   -0.9341   -3.9820   -3.2131 O   0  5  0  0  0  0  0  0  0  0  0  0
   -3.0457   -2.7336   -3.2753 O   0  0  0  0  0  0  0  0  0  0  0  0
   -1.1586   -2.0002   -4.6629 O   0  0  0  0  0  0  0  0  0  0  0  0
    1.8550    4.0158    0.3405 O   0  0  0  0  0  0  0  0  0  0  0  0
    3.7406    2.6225    1.0797 O   0  0  0  0  0  0  0  0  0  0  0  0
    3.0633    2.3849   -1.5638 H   0  0  0  0  0  0  0  0  0  0  0  0
    2.7537    0.8358   -0.7387 H   0  0  0  0  0  0  0  0  0  0  0  0
    0.2698    1.2864   -0.8460 H   0  0  0  0  0  0  0  0  0  0  0  0
    0.5793    2.8380   -1.5993 H   0  0  0  0  0  0  0  0  0  0  0  0
    0.8078   -2.7147   -1.7701 H   0  0  0  0  0  0  0  0  0  0  0  0
    0.6125   -1.2346   -0.8678 H   0  0  0  0  0  0  0  0  0  0  0  0
   -1.5408   -2.1008   -1.2281 H   0  0  0  0  0  0  0  0  0  0  0  0
   -1.4618   -0.6705   -2.2496 H   0  0  0  0  0  0  0  0  0  0  0  0
  1  2  1  0  0  0  0
  1  4  1  0  0  0  0
  1 13  2  0  0  0  0
  1 14  2  0  0  0  0
  2  3  1  0  0  0  0
  2 15  1  0  0  0  0
  2 16  1  0  0  0  0
  3  5  1  0  0  0  0
  3 17  1  0  0  0  0
  3 18  1  0  0  0  0
  5  6  1  0  0  0  0
  6  7  1  0  0  0  0
  7  8  1  0  0  0  0
  7 19  1  0  0  0  0
  7 20  1  0  0  0  0
  8  9  1  0  0  0  0
  8 21  1  0  0  0  0
  8 22  1  0  0  0  0
  9 10  1  0  0  0  0
  9 11  2  0  0  0  0
  9 12  2  0  0  0  0
M  CHG  2   4  -1  10  -1
M  END
>  <Mol_ID>
23

>  <Formula>
C4H8Na2O6S4

>  <MolWeight>
326.34226

>  <Cat>
S1201

>  <Name>
Dimesna

>  <Synonyms>
BNP-7787

>  <Target>
Others

>  <Form>
Disodium salt

>  <CAS>
16208-51-8

>  <URL>
http://selleckchem.com/products/Dimesna.html

$$$$
