Dimethyl Trisulfide
 OpenBabel08302520393D

 11 10  0  0  0  0  0  0  0  0999 V2000
    1.1019    0.1365   -0.1650 S   0  0  0  0  0  0  0  0  0  0  0  0
    0.5004    0.7053   -2.0479 S   0  0  0  0  0  0  0  0  0  0  0  0
    3.1554    0.2063   -0.2279 S   0  0  0  0  0  0  0  0  0  0  0  0
    1.0206   -0.7028   -3.0502 C   0  0  0  0  0  0  0  0  0  0  0  0
    3.4657    1.9823   -0.3444 C   0  0  0  0  0  0  0  0  0  0  0  0
    2.1088   -0.7965   -3.0464 H   0  0  0  0  0  0  0  0  0  0  0  0
    0.5644   -1.6303   -2.6921 H   0  0  0  0  0  0  0  0  0  0  0  0
    0.6990   -0.5357   -4.0825 H   0  0  0  0  0  0  0  0  0  0  0  0
    3.0835    2.3828   -1.2838 H   0  0  0  0  0  0  0  0  0  0  0  0
    3.0136    2.5109    0.5028 H   0  0  0  0  0  0  0  0  0  0  0  0
    4.5422    2.1523   -0.3211 H   0  0  0  0  0  0  0  0  0  0  0  0
  1  2  1  0  0  0  0
  1  3  1  0  0  0  0
  2  4  1  0  0  0  0
  3  5  1  0  0  0  0
  4  6  1  0  0  0  0
  4  7  1  0  0  0  0
  4  8  1  0  0  0  0
  5  9  1  0  0  0  0
  5 10  1  0  0  0  0
  5 11  1  0  0  0  0
M  END
>  <Mol_ID>
3654

>  <Formula>
C2H6S3

>  <MolWeight>
126.26404

>  <Cat>
S6311

>  <Name>
Dimethyl Trisulfide

>  <Synonyms>
Methyl trisulfide; DMTS; 2,3,4-trithiapentane

>  <Target>
Others

>  <Form>
free base

>  <CAS>
3658-80-8

>  <URL>
http://www.selleck.cn/products/dimethyl-trisulfide.html

$$$$
