Dimethylenastron
 OpenBabel08302521243D

 39 41  0  0  0  0  0  0  0  0999 V2000
   -1.2836   -1.2025   -0.0328 N   0  0  0  0  0  0  0  0  0  0  0  0
   -2.4763   -0.5445   -0.0838 C   0  0  0  0  0  0  0  0  0  0  0  0
   -2.4290    0.8063   -0.2107 N   0  0  0  0  0  0  0  0  0  0  0  0
   -1.2492    1.6071    0.0885 C   0  0  3  0  0  0  0  0  0  0  0  0
   -0.0238    0.7447    0.1601 C   0  0  0  0  0  0  0  0  0  0  0  0
    1.2576    1.3869    0.5067 C   0  0  0  0  0  0  0  0  0  0  0  0
    2.5347    0.7278    0.0576 C   0  0  0  0  0  0  0  0  0  0  0  0
    2.5452   -0.8162    0.0779 C   0  0  0  0  0  0  0  0  0  0  0  0
    1.1445   -1.4881    0.0230 C   0  0  0  0  0  0  0  0  0  0  0  0
   -0.0541   -0.5863    0.0365 C   0  0  0  0  0  0  0  0  0  0  0  0
    1.2669    2.4636    1.1012 O   0  0  0  0  0  0  0  0  0  0  0  0
   -3.9204   -1.3616   -0.0304 S   0  0  0  0  0  0  0  0  0  0  0  0
    3.2681   -1.3082    1.3502 C   0  0  0  0  0  0  0  0  0  0  0  0
    3.3755   -1.2873   -1.1407 C   0  0  0  0  0  0  0  0  0  0  0  0
   -1.1220    2.7394   -0.9245 C   0  0  0  0  0  0  0  0  0  0  0  0
   -1.1934    4.0730   -0.4837 C   0  0  0  0  0  0  0  0  0  0  0  0
   -0.9734    5.1163   -1.3753 C   0  0  0  0  0  0  0  0  0  0  0  0
   -0.6830    4.8698   -2.7104 C   0  0  0  0  0  0  0  0  0  0  0  0
   -0.6326    3.5523   -3.1693 C   0  0  0  0  0  0  0  0  0  0  0  0
   -0.8596    2.4936   -2.2852 C   0  0  0  0  0  0  0  0  0  0  0  0
   -1.0219    6.4206   -0.9695 O   0  0  0  0  0  0  0  0  0  0  0  0
   -1.3382   -2.2162    0.0069 H   0  0  0  0  0  0  0  0  0  0  0  0
   -3.3201    1.2834   -0.2552 H   0  0  0  0  0  0  0  0  0  0  0  0
   -1.4382    2.0237    1.0855 H   0  0  0  0  0  0  0  0  0  0  0  0
    3.3414    1.1164    0.6925 H   0  0  0  0  0  0  0  0  0  0  0  0
    2.7257    1.1136   -0.9523 H   0  0  0  0  0  0  0  0  0  0  0  0
    1.0368   -2.2006    0.8524 H   0  0  0  0  0  0  0  0  0  0  0  0
    1.0728   -2.0991   -0.8881 H   0  0  0  0  0  0  0  0  0  0  0  0
    3.3502   -2.4012    1.3578 H   0  0  0  0  0  0  0  0  0  0  0  0
    4.2854   -0.9056    1.4143 H   0  0  0  0  0  0  0  0  0  0  0  0
    2.7261   -1.0047    2.2528 H   0  0  0  0  0  0  0  0  0  0  0  0
    2.9087   -0.9615   -2.0782 H   0  0  0  0  0  0  0  0  0  0  0  0
    4.3885   -0.8682   -1.1123 H   0  0  0  0  0  0  0  0  0  0  0  0
    3.4627   -2.3767   -1.1705 H   0  0  0  0  0  0  0  0  0  0  0  0
   -1.3863    4.2826    0.5637 H   0  0  0  0  0  0  0  0  0  0  0  0
   -0.4872    5.6939   -3.3884 H   0  0  0  0  0  0  0  0  0  0  0  0
   -0.3996    3.3538   -4.2128 H   0  0  0  0  0  0  0  0  0  0  0  0
   -0.8084    1.4734   -2.6576 H   0  0  0  0  0  0  0  0  0  0  0  0
   -1.2008    6.4364   -0.0152 H   0  0  0  0  0  0  0  0  0  0  0  0
  1  2  1  0  0  0  0
  1 10  1  0  0  0  0
  1 22  1  0  0  0  0
  2  3  1  0  0  0  0
  2 12  2  0  0  0  0
  3  4  1  0  0  0  0
  3 23  1  0  0  0  0
  4  5  1  0  0  0  0
  4 15  1  0  0  0  0
  4 24  1  0  0  0  0
  5  6  1  0  0  0  0
  5 10  2  0  0  0  0
  6  7  1  0  0  0  0
  6 11  2  0  0  0  0
  7  8  1  0  0  0  0
  7 25  1  0  0  0  0
  7 26  1  0  0  0  0
  8  9  1  0  0  0  0
  8 13  1  0  0  0  0
  8 14  1  0  0  0  0
  9 10  1  0  0  0  0
  9 27  1  0  0  0  0
  9 28  1  0  0  0  0
 13 29  1  0  0  0  0
 13 30  1  0  0  0  0
 13 31  1  0  0  0  0
 14 32  1  0  0  0  0
 14 33  1  0  0  0  0
 14 34  1  0  0  0  0
 15 16  2  0  0  0  0
 15 20  1  0  0  0  0
 16 17  1  0  0  0  0
 16 35  1  0  0  0  0
 17 18  2  0  0  0  0
 17 21  1  0  0  0  0
 18 19  1  0  0  0  0
 18 36  1  0  0  0  0
 19 20  2  0  0  0  0
 19 37  1  0  0  0  0
 20 38  1  0  0  0  0
 21 39  1  0  0  0  0
M  END
>  <Mol_ID>
5059

>  <Formula>
C16H18N2O2S

>  <MolWeight>
302.39132

>  <Cat>
S0279

>  <Name>
Dimethylenastron

>  <Synonyms>
Eg5 Inhibitor III

>  <Target>
HSP (HSP90),Kinesin

>  <Form>
free base

>  <CAS>
863774-58-7

>  <URL>
http://www.selleckchem.com/products/dimethylenastron.html

$$$$
