Dimercaprol
 OpenBabel08302521303D

 14 13  0  0  0  0  0  0  0  0999 V2000
    0.9035    0.0615    0.0921 S   0  0  0  0  0  0  0  0  0  0  0  0
    2.7204    0.7278   -2.7971 S   0  0  0  0  0  0  0  0  0  0  0  0
    0.2481   -2.8016   -0.9562 O   0  0  0  0  0  0  0  0  0  0  0  0
    0.4195   -0.4567   -1.6091 C   0  0  3  0  0  0  0  0  0  0  0  0
    0.9106    0.5282   -2.6812 C   0  0  0  0  0  0  0  0  0  0  0  0
    0.8736   -1.9007   -1.8674 C   0  0  0  0  0  0  0  0  0  0  0  0
    2.2243   -0.1225   -0.0629 H   0  0  0  0  0  0  0  0  0  0  0  0
    2.8740    1.3819   -1.6355 H   0  0  0  0  0  0  0  0  0  0  0  0
    0.4065   -2.4536   -0.0583 H   0  0  0  0  0  0  0  0  0  0  0  0
   -0.6771   -0.4408   -1.6097 H   0  0  0  0  0  0  0  0  0  0  0  0
    0.5590    0.1939   -3.6626 H   0  0  0  0  0  0  0  0  0  0  0  0
    0.4753    1.5192   -2.5090 H   0  0  0  0  0  0  0  0  0  0  0  0
    0.5861   -2.2116   -2.8759 H   0  0  0  0  0  0  0  0  0  0  0  0
    1.9579   -2.0230   -1.7746 H   0  0  0  0  0  0  0  0  0  0  0  0
  1  4  1  0  0  0  0
  1  7  1  0  0  0  0
  2  5  1  0  0  0  0
  2  8  1  0  0  0  0
  3  6  1  0  0  0  0
  3  9  1  0  0  0  0
  4  5  1  0  0  0  0
  4  6  1  0  0  0  0
  4 10  1  0  0  0  0
  5 11  1  0  0  0  0
  5 12  1  0  0  0  0
  6 13  1  0  0  0  0
  6 14  1  0  0  0  0
M  END
>  <Mol_ID>
5648

>  <Formula>
C3H8OS2

>  <MolWeight>
124.22502

>  <Cat>
S4446

>  <Name>
Dimercaprol

>  <Synonyms>
Bal, 2,3-Dimercapto-1-propanol, Dithioglycerol

>  <Target>
HIV

>  <Form>
Free Base

>  <CAS>
59-52-9

>  <URL>
http://www.selleckchem.com/products/dimercaprol.html

$$$$
