Dimethylmalonic acid
 OpenBabel08302521363D

 17 16  0  0  0  0  0  0  0  0999 V2000
    1.0005    0.1012   -0.0395 C   0  0  0  0  0  0  0  0  0  0  0  0
    0.5191    1.2248   -0.9392 C   0  0  0  0  0  0  0  0  0  0  0  0
    0.5126   -1.2909   -0.4483 C   0  0  0  0  0  0  0  0  0  0  0  0
    0.5017    0.3454    1.3940 C   0  0  0  0  0  0  0  0  0  0  0  0
    2.5357    0.0622   -0.0811 C   0  0  0  0  0  0  0  0  0  0  0  0
    0.8767    2.4732   -0.5721 O   0  0  0  0  0  0  0  0  0  0  0  0
   -0.1441    1.0362   -1.9532 O   0  0  0  0  0  0  0  0  0  0  0  0
   -0.2352   -1.4006   -1.5645 O   0  0  0  0  0  0  0  0  0  0  0  0
    0.7880   -2.2914    0.2071 O   0  0  0  0  0  0  0  0  0  0  0  0
    0.8357   -0.4451    2.0761 H   0  0  0  0  0  0  0  0  0  0  0  0
    0.8619    1.2943    1.8040 H   0  0  0  0  0  0  0  0  0  0  0  0
   -0.5938    0.3669    1.4273 H   0  0  0  0  0  0  0  0  0  0  0  0
    2.8950   -0.1206   -1.1011 H   0  0  0  0  0  0  0  0  0  0  0  0
    2.9800    1.0031    0.2600 H   0  0  0  0  0  0  0  0  0  0  0  0
    2.9353   -0.7371    0.5540 H   0  0  0  0  0  0  0  0  0  0  0  0
    1.4170    2.5557    0.2369 H   0  0  0  0  0  0  0  0  0  0  0  0
   -0.4163   -0.5543   -2.0431 H   0  0  0  0  0  0  0  0  0  0  0  0
  1  2  1  0  0  0  0
  1  3  1  0  0  0  0
  1  4  1  0  0  0  0
  1  5  1  0  0  0  0
  2  6  1  0  0  0  0
  2  7  2  0  0  0  0
  3  8  1  0  0  0  0
  3  9  2  0  0  0  0
  4 10  1  0  0  0  0
  4 11  1  0  0  0  0
  4 12  1  0  0  0  0
  5 13  1  0  0  0  0
  5 14  1  0  0  0  0
  5 15  1  0  0  0  0
  6 16  1  0  0  0  0
  8 17  1  0  0  0  0
M  END
>  <Mol_ID>
7163

>  <Formula>
C5H8O4

>  <MolWeight>
132.11462

>  <Cat>
E4154

>  <Name>
Dimethylmalonic acid

>  <Synonyms>
2,2-Dimethylmalonic acid

>  <Target>
Others

>  <Form>
Free base

>  <CAS>
595-46-0

>  <URL>
https://www.selleckchem.com/products/dimethylmalonic-acid.html

$$$$
