Dimethylcurcumin (ASC-J9)
 OpenBabel08302521253D

 53 54  0  0  0  0  0  0  0  0999 V2000
    1.0323    0.1400   -0.4707 C   0  0  0  0  0  0  0  0  0  0  0  0
    0.4629    1.3191   -0.1742 C   0  0  0  0  0  0  0  0  0  0  0  0
    1.2882    2.3733    0.4794 C   0  0  0  0  0  0  0  0  0  0  0  0
    0.5598    3.6408    0.7563 C   0  0  0  0  0  0  0  0  0  0  0  0
    1.1785    4.8115    0.9698 C   0  0  0  0  0  0  0  0  0  0  0  0
    0.4452    6.0153    1.3193 C   0  0  0  0  0  0  0  0  0  0  0  0
    0.8845    7.2689    1.1106 C   0  0  0  0  0  0  0  0  0  0  0  0
    2.4523    2.1688    0.8051 O   0  0  0  0  0  0  0  0  0  0  0  0
    2.5477    4.9331    0.9113 O   0  0  0  0  0  0  0  0  0  0  0  0
    0.1688    8.4914    1.5108 C   0  0  0  0  0  0  0  0  0  0  0  0
   -0.6403    8.5446    2.6578 C   0  0  0  0  0  0  0  0  0  0  0  0
   -1.2621    9.7365    3.0715 C   0  0  0  0  0  0  0  0  0  0  0  0
   -1.0642   10.9038    2.3144 C   0  0  0  0  0  0  0  0  0  0  0  0
   -0.2440   10.8512    1.1793 C   0  0  0  0  0  0  0  0  0  0  0  0
    0.3708    9.6632    0.7835 C   0  0  0  0  0  0  0  0  0  0  0  0
   -1.5710   12.1602    2.5238 O   0  0  0  0  0  0  0  0  0  0  0  0
   -2.4113   12.3883    3.6447 C   0  0  0  0  0  0  0  0  0  0  0  0
   -2.0428    9.8137    4.1947 O   0  0  0  0  0  0  0  0  0  0  0  0
   -2.2452    8.6359    4.9624 C   0  0  0  0  0  0  0  0  0  0  0  0
    0.3327   -1.0108   -1.0586 C   0  0  0  0  0  0  0  0  0  0  0  0
    0.7823   -2.3018   -0.7336 C   0  0  0  0  0  0  0  0  0  0  0  0
    0.1540   -3.4547   -1.2366 C   0  0  0  0  0  0  0  0  0  0  0  0
   -0.9340   -3.3029   -2.1129 C   0  0  0  0  0  0  0  0  0  0  0  0
   -1.3598   -2.0122   -2.4604 C   0  0  0  0  0  0  0  0  0  0  0  0
   -0.7343   -0.8762   -1.9447 C   0  0  0  0  0  0  0  0  0  0  0  0
   -1.6880   -4.2710   -2.7244 O   0  0  0  0  0  0  0  0  0  0  0  0
   -1.3968   -5.6357   -2.4665 C   0  0  0  0  0  0  0  0  0  0  0  0
    0.5496   -4.7225   -0.9031 O   0  0  0  0  0  0  0  0  0  0  0  0
    1.6524   -4.8840   -0.0214 C   0  0  0  0  0  0  0  0  0  0  0  0
    2.0843   -0.0215   -0.2335 H   0  0  0  0  0  0  0  0  0  0  0  0
   -0.5803    1.5288   -0.3714 H   0  0  0  0  0  0  0  0  0  0  0  0
   -0.5225    3.5791    0.7793 H   0  0  0  0  0  0  0  0  0  0  0  0
   -0.5338    5.8533    1.7672 H   0  0  0  0  0  0  0  0  0  0  0  0
    1.8270    7.4391    0.5926 H   0  0  0  0  0  0  0  0  0  0  0  0
    2.8258    5.6660    1.4845 H   0  0  0  0  0  0  0  0  0  0  0  0
   -0.7620    7.6372    3.2377 H   0  0  0  0  0  0  0  0  0  0  0  0
   -0.0781   11.7566    0.5983 H   0  0  0  0  0  0  0  0  0  0  0  0
    1.0075    9.6700   -0.0986 H   0  0  0  0  0  0  0  0  0  0  0  0
   -3.3095   11.7643    3.6086 H   0  0  0  0  0  0  0  0  0  0  0  0
   -1.8588   12.2649    4.5820 H   0  0  0  0  0  0  0  0  0  0  0  0
   -2.7467   13.4291    3.6005 H   0  0  0  0  0  0  0  0  0  0  0  0
   -2.7769    7.8751    4.3842 H   0  0  0  0  0  0  0  0  0  0  0  0
   -1.3005    8.2509    5.3576 H   0  0  0  0  0  0  0  0  0  0  0  0
   -2.8774    8.9029    5.8164 H   0  0  0  0  0  0  0  0  0  0  0  0
    1.6317   -2.3848   -0.0618 H   0  0  0  0  0  0  0  0  0  0  0  0
   -2.1964   -1.8944   -3.1462 H   0  0  0  0  0  0  0  0  0  0  0  0
   -1.0912    0.1014   -2.2558 H   0  0  0  0  0  0  0  0  0  0  0  0
   -0.3802   -5.8956   -2.7773 H   0  0  0  0  0  0  0  0  0  0  0  0
   -1.5869   -5.8888   -1.4189 H   0  0  0  0  0  0  0  0  0  0  0  0
   -2.0781   -6.2387   -3.0756 H   0  0  0  0  0  0  0  0  0  0  0  0
    2.5740   -4.5012   -0.4715 H   0  0  0  0  0  0  0  0  0  0  0  0
    1.4581   -4.4188    0.9503 H   0  0  0  0  0  0  0  0  0  0  0  0
    1.7860   -5.9569    0.1489 H   0  0  0  0  0  0  0  0  0  0  0  0
  1  2  2  0  0  0  0
  1 20  1  0  0  0  0
  1 30  1  0  0  0  0
  2  3  1  0  0  0  0
  2 31  1  0  0  0  0
  3  4  1  0  0  0  0
  3  8  2  0  0  0  0
  4  5  2  0  0  0  0
  4 32  1  0  0  0  0
  5  6  1  0  0  0  0
  5  9  1  0  0  0  0
  6  7  2  0  0  0  0
  6 33  1  0  0  0  0
  7 10  1  0  0  0  0
  7 34  1  0  0  0  0
  9 35  1  0  0  0  0
 10 11  2  0  0  0  0
 10 15  1  0  0  0  0
 11 12  1  0  0  0  0
 11 36  1  0  0  0  0
 12 13  2  0  0  0  0
 12 18  1  0  0  0  0
 13 14  1  0  0  0  0
 13 16  1  0  0  0  0
 14 15  2  0  0  0  0
 14 37  1  0  0  0  0
 15 38  1  0  0  0  0
 16 17  1  0  0  0  0
 17 39  1  0  0  0  0
 17 40  1  0  0  0  0
 17 41  1  0  0  0  0
 18 19  1  0  0  0  0
 19 42  1  0  0  0  0
 19 43  1  0  0  0  0
 19 44  1  0  0  0  0
 20 21  2  0  0  0  0
 20 25  1  0  0  0  0
 21 22  1  0  0  0  0
 21 45  1  0  0  0  0
 22 23  2  0  0  0  0
 22 28  1  0  0  0  0
 23 24  1  0  0  0  0
 23 26  1  0  0  0  0
 24 25  2  0  0  0  0
 24 46  1  0  0  0  0
 25 47  1  0  0  0  0
 26 27  1  0  0  0  0
 27 48  1  0  0  0  0
 27 49  1  0  0  0  0
 27 50  1  0  0  0  0
 28 29  1  0  0  0  0
 29 51  1  0  0  0  0
 29 52  1  0  0  0  0
 29 53  1  0  0  0  0
M  END
>  <Mol_ID>
5182

>  <Formula>
C23H24O6

>  <MolWeight>
396.43306

>  <Cat>
S6630

>  <Name>
Dimethylcurcumin (ASC-J9)

>  <Synonyms>
Dimethyl curcumin, ASCJ 9, GO-Y025

>  <Target>
Androgen Receptor

>  <Form>
free base

>  <CAS>
52328-98-0

>  <URL>
http://www.selleckchem.com/products/dimethylcurcumin-asc-j9.html

$$$$
