Dimethyloxalylglycine (DMOG).cdx
 OpenBabel08302519583D

 21 20  0  0  0  0  0  0  0  0999 V2000
    1.0320    0.0830   -0.2874 O   0  0  0  0  0  0  0  0  0  0  0  0
    0.2816   -0.2345   -1.3592 C   0  0  0  0  0  0  0  0  0  0  0  0
    1.1616   -0.5713   -2.5922 C   0  0  0  0  0  0  0  0  0  0  0  0
   -0.9386   -0.2567   -1.4296 O   0  0  0  0  0  0  0  0  0  0  0  0
    0.2722    0.4477    0.8641 C   0  0  0  0  0  0  0  0  0  0  0  0
    0.4144   -0.8227   -3.7267 N   0  0  0  0  0  0  0  0  0  0  0  0
    2.3804   -0.5995   -2.5414 O   0  0  0  0  0  0  0  0  0  0  0  0
    1.0246   -1.2385   -4.9767 C   0  0  0  0  0  0  0  0  0  0  0  0
    1.1903   -2.7459   -5.1652 C   0  0  0  0  0  0  0  0  0  0  0  0
    0.7151   -3.4547   -4.1026 O   0  0  0  0  0  0  0  0  0  0  0  0
    1.6735   -3.2456   -6.1757 O   0  0  0  0  0  0  0  0  0  0  0  0
    0.8751   -4.8686   -4.2291 C   0  0  0  0  0  0  0  0  0  0  0  0
    0.9686    0.6650    1.6788 H   0  0  0  0  0  0  0  0  0  0  0  0
   -0.3160    1.3489    0.6629 H   0  0  0  0  0  0  0  0  0  0  0  0
   -0.3786   -0.3757    1.1756 H   0  0  0  0  0  0  0  0  0  0  0  0
   -0.5908   -0.9072   -3.6028 H   0  0  0  0  0  0  0  0  0  0  0  0
    0.3726   -0.8725   -5.7755 H   0  0  0  0  0  0  0  0  0  0  0  0
    2.0130   -0.7773   -5.0633 H   0  0  0  0  0  0  0  0  0  0  0  0
    0.3580   -5.2390   -5.1201 H   0  0  0  0  0  0  0  0  0  0  0  0
    1.9374   -5.1307   -4.2603 H   0  0  0  0  0  0  0  0  0  0  0  0
    0.4276   -5.3402   -3.3500 H   0  0  0  0  0  0  0  0  0  0  0  0
  1  2  1  0  0  0  0
  1  5  1  0  0  0  0
  2  3  1  0  0  0  0
  2  4  2  0  0  0  0
  3  6  1  0  0  0  0
  3  7  2  0  0  0  0
  5 13  1  0  0  0  0
  5 14  1  0  0  0  0
  5 15  1  0  0  0  0
  6  8  1  0  0  0  0
  6 16  1  0  0  0  0
  8  9  1  0  0  0  0
  8 17  1  0  0  0  0
  8 18  1  0  0  0  0
  9 10  1  0  0  0  0
  9 11  2  0  0  0  0
 10 12  1  0  0  0  0
 12 19  1  0  0  0  0
 12 20  1  0  0  0  0
 12 21  1  0  0  0  0
M  END
>  <Mol_ID>
2393

>  <Formula>
C6H9NO5

>  <MolWeight>
175.13936

>  <Cat>
S7483

>  <Name>
DMOG

>  <Synonyms>
Dimethyloxalylglycine

>  <Target>
Autophagy,HIF,Hydroxylase

>  <Form>
free base

>  <CAS>
89464-63-1

>  <URL>
http://selleckchem.com/products/dmog.html

$$$$
