Dimethyl malonate
 OpenBabel08302521373D

 17 16  0  0  0  0  0  0  0  0999 V2000
    0.9303   -0.0592    0.0859 C   0  0  0  0  0  0  0  0  0  0  0  0
    0.4459   -0.7659    1.3075 C   0  0  0  0  0  0  0  0  0  0  0  0
    0.5798    1.3826   -0.0726 C   0  0  0  0  0  0  0  0  0  0  0  0
   -0.7653   -0.3247    1.7381 O   0  0  0  0  0  0  0  0  0  0  0  0
    1.0431   -1.7239    1.7913 O   0  0  0  0  0  0  0  0  0  0  0  0
    0.6592    2.0788    1.0887 O   0  0  0  0  0  0  0  0  0  0  0  0
    0.3637    1.8906   -1.1708 O   0  0  0  0  0  0  0  0  0  0  0  0
   -1.2786   -1.0570    2.8579 C   0  0  0  0  0  0  0  0  0  0  0  0
    0.4453    3.4855    0.9354 C   0  0  0  0  0  0  0  0  0  0  0  0
    0.5312   -0.6055   -0.7769 H   0  0  0  0  0  0  0  0  0  0  0  0
    2.0241   -0.1232    0.0657 H   0  0  0  0  0  0  0  0  0  0  0  0
   -1.5185   -2.0817    2.5564 H   0  0  0  0  0  0  0  0  0  0  0  0
   -0.5656   -1.0567    3.6893 H   0  0  0  0  0  0  0  0  0  0  0  0
   -2.1981   -0.5702    3.1937 H   0  0  0  0  0  0  0  0  0  0  0  0
    1.2000    3.9155    0.2684 H   0  0  0  0  0  0  0  0  0  0  0  0
   -0.5625    3.6853    0.5564 H   0  0  0  0  0  0  0  0  0  0  0  0
    0.5464    3.9557    1.9171 H   0  0  0  0  0  0  0  0  0  0  0  0
  1  2  1  0  0  0  0
  1  3  1  0  0  0  0
  1 10  1  0  0  0  0
  1 11  1  0  0  0  0
  2  4  1  0  0  0  0
  2  5  2  0  0  0  0
  3  6  1  0  0  0  0
  3  7  2  0  0  0  0
  4  8  1  0  0  0  0
  6  9  1  0  0  0  0
  8 12  1  0  0  0  0
  8 13  1  0  0  0  0
  8 14  1  0  0  0  0
  9 15  1  0  0  0  0
  9 16  1  0  0  0  0
  9 17  1  0  0  0  0
M  END
>  <Mol_ID>
7366

>  <Formula>
C5H8O4

>  <MolWeight>
132.11462

>  <Cat>
E4415

>  <Name>
Dimethyl malonate

>  <Target>
Dehydrogenase

>  <Form>
Free base

>  <CAS>
108-59-8

>  <URL>
https://www.selleckchem.com/products/dimethyl-malonate.html

$$$$
