Dinitolmide.cdx
 OpenBabel08302522043D

 23 23  0  0  0  0  0  0  0  0999 V2000
    1.0264    0.1237   -0.0064 C   0  0  0  0  0  0  0  0  0  0  0  0
    0.3078    1.3401   -0.0115 C   0  0  0  0  0  0  0  0  0  0  0  0
   -1.1087    1.2512    0.0314 C   0  0  0  0  0  0  0  0  0  0  0  0
   -1.8052    0.0330    0.0443 C   0  0  0  0  0  0  0  0  0  0  0  0
   -1.0692   -1.1474    0.0375 C   0  0  0  0  0  0  0  0  0  0  0  0
    0.3291   -1.1061    0.0203 C   0  0  0  0  0  0  0  0  0  0  0  0
    2.5072   -0.0381   -0.1188 C   0  0  0  0  0  0  0  0  0  0  0  0
    2.9801   -0.9866   -0.7317 O   0  0  0  0  0  0  0  0  0  0  0  0
    3.3342    0.8368    0.5168 N   0  0  0  0  0  0  0  0  0  0  0  0
   -1.7643   -2.4410    0.0371 N   0  3  0  0  0  0  0  0  0  0  0  0
   -3.0024   -2.4226    0.0205 O   0  5  0  0  0  0  0  0  0  0  0  0
   -1.0737   -3.4675    0.0618 O   0  0  0  0  0  0  0  0  0  0  0  0
    0.9550    2.6990   -0.1094 C   0  0  0  0  0  0  0  0  0  0  0  0
   -1.9349    2.4572    0.0370 N   0  3  0  0  0  0  0  0  0  0  0  0
   -1.7856    3.2378    0.9835 O   0  0  0  0  0  0  0  0  0  0  0  0
   -2.7350    2.5869   -0.8964 O   0  5  0  0  0  0  0  0  0  0  0  0
   -2.8951    0.0200    0.0494 H   0  0  0  0  0  0  0  0  0  0  0  0
    0.8996   -2.0375    0.0084 H   0  0  0  0  0  0  0  0  0  0  0  0
    3.0364    1.5467    1.1717 H   0  0  0  0  0  0  0  0  0  0  0  0
    4.3235    0.6325    0.4577 H   0  0  0  0  0  0  0  0  0  0  0  0
    0.4733    3.2941   -0.8934 H   0  0  0  0  0  0  0  0  0  0  0  0
    0.8693    3.2270    0.8453 H   0  0  0  0  0  0  0  0  0  0  0  0
    2.0091    2.6645   -0.3857 H   0  0  0  0  0  0  0  0  0  0  0  0
  1  2  2  0  0  0  0
  1  7  1  0  0  0  0
  2  3  1  0  0  0  0
  2 13  1  0  0  0  0
  3  4  2  0  0  0  0
  3 14  1  0  0  0  0
  4  5  1  0  0  0  0
  4 17  1  0  0  0  0
  5  6  2  0  0  0  0
  5 10  1  0  0  0  0
  6  1  1  0  0  0  0
  6 18  1  0  0  0  0
  7  8  2  0  0  0  0
  7  9  1  0  0  0  0
  9 19  1  0  0  0  0
  9 20  1  0  0  0  0
 10 11  1  0  0  0  0
 10 12  2  0  0  0  0
 13 21  1  0  0  0  0
 13 22  1  0  0  0  0
 13 23  1  0  0  0  0
 14 15  2  0  0  0  0
 14 16  1  0  0  0  0
M  CHG  4  10   1  11  -1  14   1  16  -1
M  END
>  <Mol_ID>
1264

>  <Formula>
C8H7N3O5

>  <MolWeight>
225.15828

>  <Cat>
S4141

>  <Name>
Dinitolmide

>  <Synonyms>
Zoalene

>  <Target>
Parasite

>  <Form>
free base

>  <CAS>
148-01-6

>  <URL>
http://selleckchem.com/products/dinitolmide-zoalene.html

$$$$
