Dinotefuran
 OpenBabel08302521313D

 28 28  0  0  0  0  0  0  0  0999 V2000
   -0.3432    1.0374    0.0064 N   0  0  0  0  0  0  0  0  0  0  0  0
   -1.0422    0.2837    0.9042 C   0  0  0  0  0  0  0  0  0  0  0  0
   -0.8835   -0.9799    1.0638 N   0  0  0  0  0  0  0  0  0  0  0  0
   -1.9875    1.0327    1.5748 N   0  0  0  0  0  0  0  0  0  0  0  0
   -1.6478   -1.7529    2.0332 C   0  0  0  0  0  0  0  0  0  0  0  0
   -1.1417   -5.3222    2.9558 O   0  0  0  0  0  0  0  0  0  0  0  0
   -1.9487   -4.1342    2.8845 C   0  0  0  0  0  0  0  0  0  0  0  0
   -1.2867   -3.2221    1.8674 C   0  0  3  0  0  0  0  0  0  0  0  0
    0.1748   -3.5564    2.0921 C   0  0  0  0  0  0  0  0  0  0  0  0
    0.1065   -5.0546    2.2951 C   0  0  0  0  0  0  0  0  0  0  0  0
    0.7771    0.6162   -0.5963 N   0  3  0  0  0  0  0  0  0  0  0  0
    1.0466    1.2722   -1.6037 O   0  0  0  0  0  0  0  0  0  0  0  0
    1.4758   -0.2573   -0.0792 O   0  5  0  0  0  0  0  0  0  0  0  0
   -1.7950    2.4069    2.0049 C   0  0  0  0  0  0  0  0  0  0  0  0
   -0.8635    1.7667   -0.4454 H   0  0  0  0  0  0  0  0  0  0  0  0
   -2.4860    0.4999    2.2787 H   0  0  0  0  0  0  0  0  0  0  0  0
   -1.4099   -1.4175    3.0531 H   0  0  0  0  0  0  0  0  0  0  0  0
   -2.7249   -1.6313    1.8722 H   0  0  0  0  0  0  0  0  0  0  0  0
   -1.9687   -3.6912    3.8867 H   0  0  0  0  0  0  0  0  0  0  0  0
   -2.9709   -4.4068    2.6054 H   0  0  0  0  0  0  0  0  0  0  0  0
   -1.5635   -3.5535    0.8561 H   0  0  0  0  0  0  0  0  0  0  0  0
    0.8279   -3.2738    1.2622 H   0  0  0  0  0  0  0  0  0  0  0  0
    0.5444   -3.0714    3.0041 H   0  0  0  0  0  0  0  0  0  0  0  0
    0.0954   -5.5835    1.3357 H   0  0  0  0  0  0  0  0  0  0  0  0
    0.9346   -5.4390    2.8967 H   0  0  0  0  0  0  0  0  0  0  0  0
   -2.7578    2.8305    2.3046 H   0  0  0  0  0  0  0  0  0  0  0  0
   -1.1175    2.4457    2.8631 H   0  0  0  0  0  0  0  0  0  0  0  0
   -1.3942    3.0426    1.2099 H   0  0  0  0  0  0  0  0  0  0  0  0
  1  2  1  0  0  0  0
  1 11  1  0  0  0  0
  1 15  1  0  0  0  0
  2  3  2  0  0  0  0
  2  4  1  0  0  0  0
  3  5  1  0  0  0  0
  4 14  1  0  0  0  0
  4 16  1  0  0  0  0
  5  8  1  0  0  0  0
  5 17  1  0  0  0  0
  5 18  1  0  0  0  0
  6  7  1  0  0  0  0
  6 10  1  0  0  0  0
  7  8  1  0  0  0  0
  7 19  1  0  0  0  0
  7 20  1  0  0  0  0
  8  9  1  0  0  0  0
  8 21  1  0  0  0  0
  9 10  1  0  0  0  0
  9 22  1  0  0  0  0
  9 23  1  0  0  0  0
 10 24  1  0  0  0  0
 10 25  1  0  0  0  0
 11 12  2  0  0  0  0
 11 13  1  0  0  0  0
 14 26  1  0  0  0  0
 14 27  1  0  0  0  0
 14 28  1  0  0  0  0
M  CHG  2  11   1  13  -1
M  END
>  <Mol_ID>
5959

>  <Formula>
C7H14N4O3

>  <MolWeight>
202.21106

>  <Cat>
E0176

>  <Name>
Dinotefuran

>  <Synonyms>
MTI-446

>  <Target>
AChR

>  <Form>
Free Base

>  <CAS>
165252-70-0

>  <URL>
http://www.selleckchem.com/products/dinotefuran.html

$$$$
