Diosmetin.cdx
 OpenBabel08302521263D

 34 36  0  0  0  0  0  0  0  0999 V2000
    2.3337   -0.2585    0.0108 C   0  0  0  0  0  0  0  0  0  0  0  0
    1.9145    1.0683   -0.0058 C   0  0  0  0  0  0  0  0  0  0  0  0
    0.5459    1.3534    0.0020 C   0  0  0  0  0  0  0  0  0  0  0  0
   -0.3972    0.3157    0.0207 C   0  0  0  0  0  0  0  0  0  0  0  0
    0.0461   -1.0095    0.0282 C   0  0  0  0  0  0  0  0  0  0  0  0
    1.4122   -1.2984    0.0314 C   0  0  0  0  0  0  0  0  0  0  0  0
   -1.8568    0.5507    0.0283 C   0  0  0  0  0  0  0  0  0  0  0  0
   -2.7158   -0.6437   -0.0220 C   0  0  0  0  0  0  0  0  0  0  0  0
   -2.1650   -1.8640   -0.0405 C   0  0  0  0  0  0  0  0  0  0  0  0
   -0.8004   -2.0908    0.0212 O   0  0  0  0  0  0  0  0  0  0  0  0
    3.6572   -0.5856    0.0006 O   0  0  0  0  0  0  0  0  0  0  0  0
    0.1461    2.6589   -0.0196 O   0  0  0  0  0  0  0  0  0  0  0  0
   -2.3851    1.6536    0.0669 O   0  0  0  0  0  0  0  0  0  0  0  0
   -2.9853   -3.0915   -0.1209 C   0  0  0  0  0  0  0  0  0  0  0  0
   -4.1883   -3.1312   -0.8351 C   0  0  0  0  0  0  0  0  0  0  0  0
   -4.9255   -4.3159   -0.9235 C   0  0  0  0  0  0  0  0  0  0  0  0
   -4.4918   -5.5041   -0.3178 C   0  0  0  0  0  0  0  0  0  0  0  0
   -3.2933   -5.4690    0.3978 C   0  0  0  0  0  0  0  0  0  0  0  0
   -2.5560   -4.2773    0.4910 C   0  0  0  0  0  0  0  0  0  0  0  0
   -2.7153   -6.5080    1.0689 O   0  0  0  0  0  0  0  0  0  0  0  0
   -5.3718   -6.5207   -0.5427 O   0  0  0  0  0  0  0  0  0  0  0  0
   -5.1347   -7.8227   -0.0507 C   0  0  0  0  0  0  0  0  0  0  0  0
    2.6421    1.8722   -0.0268 H   0  0  0  0  0  0  0  0  0  0  0  0
    1.7560   -2.3292    0.0433 H   0  0  0  0  0  0  0  0  0  0  0  0
   -3.7815   -0.4562   -0.0443 H   0  0  0  0  0  0  0  0  0  0  0  0
    4.1904    0.2252   -0.0461 H   0  0  0  0  0  0  0  0  0  0  0  0
    0.9092    3.2565   -0.0066 H   0  0  0  0  0  0  0  0  0  0  0  0
   -4.5695   -2.2510   -1.3474 H   0  0  0  0  0  0  0  0  0  0  0  0
   -5.8604   -4.3116   -1.4821 H   0  0  0  0  0  0  0  0  0  0  0  0
   -1.6250   -4.2906    1.0557 H   0  0  0  0  0  0  0  0  0  0  0  0
   -3.0453   -7.3474    0.7319 H   0  0  0  0  0  0  0  0  0  0  0  0
   -4.2559   -8.2649   -0.5300 H   0  0  0  0  0  0  0  0  0  0  0  0
   -5.0599   -7.8298    1.0404 H   0  0  0  0  0  0  0  0  0  0  0  0
   -5.9928   -8.4442   -0.3248 H   0  0  0  0  0  0  0  0  0  0  0  0
  1  2  2  0  0  0  0
  1 11  1  0  0  0  0
  2  3  1  0  0  0  0
  2 23  1  0  0  0  0
  3  4  2  0  0  0  0
  3 12  1  0  0  0  0
  4  5  1  0  0  0  0
  4  7  1  0  0  0  0
  5  6  2  0  0  0  0
  6  1  1  0  0  0  0
  6 24  1  0  0  0  0
  7  8  1  0  0  0  0
  7 13  2  0  0  0  0
  8  9  2  0  0  0  0
  8 25  1  0  0  0  0
  9 10  1  0  0  0  0
  9 14  1  0  0  0  0
 10  5  1  0  0  0  0
 11 26  1  0  0  0  0
 12 27  1  0  0  0  0
 14 15  2  0  0  0  0
 15 16  1  0  0  0  0
 15 28  1  0  0  0  0
 16 17  2  0  0  0  0
 16 29  1  0  0  0  0
 17 18  1  0  0  0  0
 17 21  1  0  0  0  0
 18 19  2  0  0  0  0
 18 20  1  0  0  0  0
 19 14  1  0  0  0  0
 19 30  1  0  0  0  0
 20 31  1  0  0  0  0
 21 22  1  0  0  0  0
 22 32  1  0  0  0  0
 22 33  1  0  0  0  0
 22 34  1  0  0  0  0
M  END
>  <Mol_ID>
499

>  <Formula>
C16H12O6

>  <MolWeight>
300.26288

>  <Cat>
S2380

>  <Name>
Diosmetin

>  <Synonyms>
Luteolin 4-methyl ether

>  <Target>
P450 (e.g. CYP17)

>  <Form>
free base

>  <CAS>
520-34-3

>  <URL>
http://selleckchem.com/products/Diosmetin(Luteolin-4-methyl-ether).html

$$$$
