Diphyllin
 OpenBabel08302521453D

 44 48  0  0  0  0  0  0  0  0999 V2000
    1.5667   -2.3151    1.0582 O   0  0  0  0  0  0  0  0  0  0  0  0
    6.4595    0.0848   -0.7897 O   0  0  0  0  0  0  0  0  0  0  0  0
    6.9441   -5.6232   -3.6047 O   0  0  0  0  0  0  0  0  0  0  0  0
    7.9931   -5.7221   -4.5573 C   0  0  0  0  0  0  0  0  0  0  0  0
    8.2790   -3.1046   -4.2262 O   0  0  0  0  0  0  0  0  0  0  0  0
    8.8821   -1.8420   -4.4901 C   0  0  0  0  0  0  0  0  0  0  0  0
    4.2858   -3.4813   -0.1798 C   0  0  0  0  0  0  0  0  0  0  0  0
    5.3406   -3.4164   -1.1632 C   0  0  0  0  0  0  0  0  0  0  0  0
    3.8963   -2.2430    0.3699 C   0  0  0  0  0  0  0  0  0  0  0  0
    6.0299   -2.1887   -1.3963 C   0  0  0  0  0  0  0  0  0  0  0  0
    5.7468   -4.5098   -1.9708 C   0  0  0  0  0  0  0  0  0  0  0  0
    4.6638   -1.0986    0.2492 C   0  0  0  0  0  0  0  0  0  0  0  0
    2.6711   -1.8112    1.0749 C   0  0  0  0  0  0  0  0  0  0  0  0
    5.7247   -1.0581   -0.6274 C   0  0  0  0  0  0  0  0  0  0  0  0
    7.0160   -2.1090   -2.4044 C   0  0  0  0  0  0  0  0  0  0  0  0
    6.7364   -4.4173   -2.9671 C   0  0  0  0  0  0  0  0  0  0  0  0
    4.1929   -0.0816    1.2049 C   0  0  0  0  0  0  0  0  0  0  0  0
    2.9186   -0.5789    1.6102 O   0  0  0  0  0  0  0  0  0  0  0  0
    7.3655   -3.1910   -3.2097 C   0  0  0  0  0  0  0  0  0  0  0  0
    3.7939   -4.7824    0.3842 C   0  0  0  0  0  0  0  0  0  0  0  0
    4.7188   -5.7675    0.8149 C   0  0  0  0  0  0  0  0  0  0  0  0
    2.4258   -5.0526    0.6259 C   0  0  0  0  0  0  0  0  0  0  0  0
    4.2621   -6.8997    1.4697 C   0  0  0  0  0  0  0  0  0  0  0  0
    1.9845   -6.1997    1.3062 C   0  0  0  0  0  0  0  0  0  0  0  0
    2.9288   -7.1043    1.7172 C   0  0  0  0  0  0  0  0  0  0  0  0
    5.0335   -7.8958    1.9908 O   0  0  0  0  0  0  0  0  0  0  0  0
    2.6955   -8.2459    2.4179 O   0  0  0  0  0  0  0  0  0  0  0  0
    4.0459   -8.5963    2.7787 C   0  0  0  0  0  0  0  0  0  0  0  0
    5.9880    0.8534   -0.4313 H   0  0  0  0  0  0  0  0  0  0  0  0
    7.7468   -5.1810   -5.4632 H   0  0  0  0  0  0  0  0  0  0  0  0
    8.9506   -5.4140   -4.1417 H   0  0  0  0  0  0  0  0  0  0  0  0
    8.0921   -6.7825   -4.8196 H   0  0  0  0  0  0  0  0  0  0  0  0
    8.1374   -1.1069   -4.8110 H   0  0  0  0  0  0  0  0  0  0  0  0
    9.4470   -1.4865   -3.6227 H   0  0  0  0  0  0  0  0  0  0  0  0
    9.5924   -1.9770   -5.3117 H   0  0  0  0  0  0  0  0  0  0  0  0
    5.2531   -5.4751   -1.8593 H   0  0  0  0  0  0  0  0  0  0  0  0
    7.4994   -1.1442   -2.5497 H   0  0  0  0  0  0  0  0  0  0  0  0
    4.0724    0.9082    0.7618 H   0  0  0  0  0  0  0  0  0  0  0  0
    4.8392   -0.0310    2.0881 H   0  0  0  0  0  0  0  0  0  0  0  0
    5.7898   -5.6441    0.6784 H   0  0  0  0  0  0  0  0  0  0  0  0
    1.6570   -4.3576    0.3051 H   0  0  0  0  0  0  0  0  0  0  0  0
    0.9334   -6.3467    1.5295 H   0  0  0  0  0  0  0  0  0  0  0  0
    4.1960   -8.3303    3.8335 H   0  0  0  0  0  0  0  0  0  0  0  0
    4.1846   -9.6776    2.6705 H   0  0  0  0  0  0  0  0  0  0  0  0
  1 13  2  0  0  0  0
  2 14  1  0  0  0  0
  2 29  1  0  0  0  0
  3  4  1  0  0  0  0
  3 16  1  0  0  0  0
  4 30  1  0  0  0  0
  4 31  1  0  0  0  0
  4 32  1  0  0  0  0
  5  6  1  0  0  0  0
  5 19  1  0  0  0  0
  6 33  1  0  0  0  0
  6 34  1  0  0  0  0
  6 35  1  0  0  0  0
  7  8  1  0  0  0  0
  7  9  2  0  0  0  0
  7 20  1  0  0  0  0
  8 10  1  0  0  0  0
  8 11  2  0  0  0  0
  9 12  1  0  0  0  0
  9 13  1  0  0  0  0
 10 14  1  0  0  0  0
 10 15  2  0  0  0  0
 11 16  1  0  0  0  0
 11 36  1  0  0  0  0
 12 14  2  0  0  0  0
 12 17  1  0  0  0  0
 13 18  1  0  0  0  0
 15 19  1  0  0  0  0
 15 37  1  0  0  0  0
 16 19  2  0  0  0  0
 17 18  1  0  0  0  0
 17 38  1  0  0  0  0
 17 39  1  0  0  0  0
 20 21  2  0  0  0  0
 20 22  1  0  0  0  0
 21 23  1  0  0  0  0
 21 40  1  0  0  0  0
 22 24  2  0  0  0  0
 22 41  1  0  0  0  0
 23 25  2  0  0  0  0
 23 26  1  0  0  0  0
 24 25  1  0  0  0  0
 24 42  1  0  0  0  0
 25 27  1  0  0  0  0
 26 28  1  0  0  0  0
 27 28  1  0  0  0  0
 28 43  1  0  0  0  0
 28 44  1  0  0  0  0
M  END
>  <Mol_ID>
9578

>  <Formula>
C21H16O7

>  <MolWeight>
380.34754

>  <Cat>
E2021

>  <Name>
Diphyllin

>  <Synonyms>
NA

>  <Target>
V-ATPase, acid influx, HIV-1

>  <Form>
Free Base

>  <CAS>
22055-22-7

>  <URL>
https://www.selleckchem.com/products/diphyllin.html

$$$$
