Diphenhydramine hydrochloride.cdx
 OpenBabel08302522063D

 40 41  0  0  0  0  0  0  0  0999 V2000
    1.1297   -0.7815    0.2239 C   0  0  0  0  0  0  0  0  0  0  0  0
    0.1054   -1.7340    0.2162 C   0  0  0  0  0  0  0  0  0  0  0  0
   -1.2296   -1.3819   -0.0814 C   0  0  0  0  0  0  0  0  0  0  0  0
   -1.5074   -0.0357   -0.3324 C   0  0  0  0  0  0  0  0  0  0  0  0
   -0.4745    0.9259   -0.3289 C   0  0  0  0  0  0  0  0  0  0  0  0
    0.8407    0.5494   -0.0571 C   0  0  0  0  0  0  0  0  0  0  0  0
   -2.2657   -2.5039   -0.2176 C   0  0  0  0  0  0  0  0  0  0  0  0
   -3.1279   -2.8911    0.9852 C   0  0  0  0  0  0  0  0  0  0  0  0
   -3.1415   -2.3674   -1.3527 O   0  0  0  0  0  0  0  0  0  0  0  0
   -2.5546   -2.4667   -2.6521 C   0  0  0  0  0  0  0  0  0  0  0  0
   -1.6956   -3.7159   -2.9839 C   0  0  0  0  0  0  0  0  0  0  0  0
   -2.2881   -4.9210   -3.6014 N   0  0  0  0  0  0  0  0  0  0  0  0
   -1.2314   -5.9236   -3.7992 C   0  0  0  0  0  0  0  0  0  0  0  0
   -3.4443   -5.5221   -2.9488 C   0  0  0  0  0  0  0  0  0  0  0  0
   -2.9400   -2.4451    2.2936 C   0  0  0  0  0  0  0  0  0  0  0  0
   -3.6582   -3.0231    3.3496 C   0  0  0  0  0  0  0  0  0  0  0  0
   -4.5782   -4.0564    3.1132 C   0  0  0  0  0  0  0  0  0  0  0  0
   -4.8020   -4.4917    1.8181 C   0  0  0  0  0  0  0  0  0  0  0  0
   -4.0968   -3.9079    0.7751 C   0  0  0  0  0  0  0  0  0  0  0  0
    2.1515   -1.0860    0.4304 H   0  0  0  0  0  0  0  0  0  0  0  0
    0.3637   -2.7704    0.4231 H   0  0  0  0  0  0  0  0  0  0  0  0
   -2.5160    0.2884   -0.5791 H   0  0  0  0  0  0  0  0  0  0  0  0
   -0.6914    1.9678   -0.5536 H   0  0  0  0  0  0  0  0  0  0  0  0
    1.6400    1.2881   -0.0696 H   0  0  0  0  0  0  0  0  0  0  0  0
   -1.6872   -3.4192   -0.3627 H   0  0  0  0  0  0  0  0  0  0  0  0
   -3.3695   -2.3705   -3.3783 H   0  0  0  0  0  0  0  0  0  0  0  0
   -1.9298   -1.5768   -2.7941 H   0  0  0  0  0  0  0  0  0  0  0  0
   -0.9963   -3.3492   -3.7476 H   0  0  0  0  0  0  0  0  0  0  0  0
   -1.0806   -4.0010   -2.1285 H   0  0  0  0  0  0  0  0  0  0  0  0
   -0.6996   -6.1460   -2.8651 H   0  0  0  0  0  0  0  0  0  0  0  0
   -1.6315   -6.8667   -4.1883 H   0  0  0  0  0  0  0  0  0  0  0  0
   -0.5010   -5.5619   -4.5300 H   0  0  0  0  0  0  0  0  0  0  0  0
   -3.9076   -4.8884   -2.1987 H   0  0  0  0  0  0  0  0  0  0  0  0
   -4.2083   -5.7203   -3.7125 H   0  0  0  0  0  0  0  0  0  0  0  0
   -3.2233   -6.4922   -2.4804 H   0  0  0  0  0  0  0  0  0  0  0  0
   -2.2225   -1.6571    2.5235 H   0  0  0  0  0  0  0  0  0  0  0  0
   -3.4978   -2.6817    4.3701 H   0  0  0  0  0  0  0  0  0  0  0  0
   -5.1007   -4.5217    3.9398 H   0  0  0  0  0  0  0  0  0  0  0  0
   -5.5120   -5.2929    1.6196 H   0  0  0  0  0  0  0  0  0  0  0  0
   -4.2771   -4.2736   -0.2277 H   0  0  0  0  0  0  0  0  0  0  0  0
  1  2  2  0  0  0  0
  1 20  1  0  0  0  0
  2  3  1  0  0  0  0
  2 21  1  0  0  0  0
  3  4  2  0  0  0  0
  3  7  1  0  0  0  0
  4  5  1  0  0  0  0
  4 22  1  0  0  0  0
  5  6  2  0  0  0  0
  5 23  1  0  0  0  0
  6  1  1  0  0  0  0
  6 24  1  0  0  0  0
  7  8  1  0  0  0  0
  7  9  1  0  0  0  0
  7 25  1  0  0  0  0
  8 15  2  0  0  0  0
  9 10  1  0  0  0  0
 10 11  1  0  0  0  0
 10 26  1  0  0  0  0
 10 27  1  0  0  0  0
 11 12  1  0  0  0  0
 11 28  1  0  0  0  0
 11 29  1  0  0  0  0
 12 13  1  0  0  0  0
 12 14  1  0  0  0  0
 13 30  1  0  0  0  0
 13 31  1  0  0  0  0
 13 32  1  0  0  0  0
 14 33  1  0  0  0  0
 14 34  1  0  0  0  0
 14 35  1  0  0  0  0
 15 16  1  0  0  0  0
 15 36  1  0  0  0  0
 16 17  2  0  0  0  0
 16 37  1  0  0  0  0
 17 18  1  0  0  0  0
 17 38  1  0  0  0  0
 18 19  2  0  0  0  0
 18 39  1  0  0  0  0
 19  8  1  0  0  0  0
 19 40  1  0  0  0  0
M  END
>  <Mol_ID>
164

>  <Formula>
C17H22ClNO

>  <MolWeight>
291.81568

>  <Cat>
S1866

>  <Name>
Diphenhydramine HCl

>  <Synonyms>
N/A

>  <Target>
Histamine Receptor

>  <Form>
Hydrochloride

>  <CAS>
147-24-0

>  <URL>
http://selleckchem.com/products/Diphenhydramine-hydrochloride(Benadryl).html

$$$$
