Diphenylamine Hydrochloride
 OpenBabel08302520323D

 24 25  0  0  0  0  0  0  0  0999 V2000
    1.3474   -0.1405    0.0736 C   0  0  0  0  0  0  0  0  0  0  0  0
    2.7402   -0.3259   -0.0010 N   0  0  0  0  0  0  0  0  0  0  0  0
    0.7530    1.0878   -0.2450 C   0  0  0  0  0  0  0  0  0  0  0  0
    0.5195   -1.1830    0.5048 C   0  0  0  0  0  0  0  0  0  0  0  0
    3.7602    0.6208    0.2226 C   0  0  0  0  0  0  0  0  0  0  0  0
   -0.6217    1.2848   -0.1151 C   0  0  0  0  0  0  0  0  0  0  0  0
   -0.8606   -0.9922    0.6316 C   0  0  0  0  0  0  0  0  0  0  0  0
    3.5866    1.7013    1.0961 C   0  0  0  0  0  0  0  0  0  0  0  0
    4.9654    0.5176   -0.4798 C   0  0  0  0  0  0  0  0  0  0  0  0
   -1.4294    0.2435    0.3280 C   0  0  0  0  0  0  0  0  0  0  0  0
    4.5767    2.6726    1.2476 C   0  0  0  0  0  0  0  0  0  0  0  0
    5.9584    1.4920   -0.3351 C   0  0  0  0  0  0  0  0  0  0  0  0
    5.7599    2.5717    0.5236 C   0  0  0  0  0  0  0  0  0  0  0  0
    3.0569   -1.2835    0.0789 H   0  0  0  0  0  0  0  0  0  0  0  0
    1.3655    1.9098   -0.6143 H   0  0  0  0  0  0  0  0  0  0  0  0
    0.9425   -2.1498    0.7627 H   0  0  0  0  0  0  0  0  0  0  0  0
   -1.0542    2.2509   -0.3588 H   0  0  0  0  0  0  0  0  0  0  0  0
   -1.4903   -1.8080    0.9762 H   0  0  0  0  0  0  0  0  0  0  0  0
    2.6725    1.7909    1.6801 H   0  0  0  0  0  0  0  0  0  0  0  0
    5.1230   -0.3007   -1.1758 H   0  0  0  0  0  0  0  0  0  0  0  0
   -2.4996    0.3941    0.4346 H   0  0  0  0  0  0  0  0  0  0  0  0
    4.4158    3.5055    1.9252 H   0  0  0  0  0  0  0  0  0  0  0  0
    6.8804    1.4148   -0.9054 H   0  0  0  0  0  0  0  0  0  0  0  0
    6.5268    3.3362    0.6272 H   0  0  0  0  0  0  0  0  0  0  0  0
  1  2  1  0  0  0  0
  1  3  2  0  0  0  0
  1  4  1  0  0  0  0
  2  5  1  0  0  0  0
  2 14  1  0  0  0  0
  3  6  1  0  0  0  0
  3 15  1  0  0  0  0
  4  7  2  0  0  0  0
  4 16  1  0  0  0  0
  5  8  2  0  0  0  0
  5  9  1  0  0  0  0
  6 10  2  0  0  0  0
  6 17  1  0  0  0  0
  7 10  1  0  0  0  0
  7 18  1  0  0  0  0
  8 11  1  0  0  0  0
  8 19  1  0  0  0  0
  9 12  2  0  0  0  0
  9 20  1  0  0  0  0
 10 21  1  0  0  0  0
 11 13  2  0  0  0  0
 11 22  1  0  0  0  0
 12 13  1  0  0  0  0
 12 23  1  0  0  0  0
 13 24  1  0  0  0  0
M  END
>  <Mol_ID>
3350

>  <Formula>
C12H12ClN

>  <MolWeight>
205.68338

>  <Cat>
S5604

>  <Name>
Diphenylamine Hydrochloride

>  <Synonyms>
N-Phenylbenzenamine, Anilinobenzene, C.I. 10355

>  <Target>
OXPHOS

>  <Form>
Hydrochloride

>  <CAS>
537-67-7

>  <URL>
http://www.selleckchem.com/products/diphenylamine-hydrochloride.html

$$$$
