Diphenyleneiodonium chloride (DPI).cdx
 OpenBabel08302520433D

 21 23  0  0  0  0  0  0  0  0999 V2000
   -2.7213    1.1261   -0.0002 C   0  0  0  0  0  0  0  0  0  0  0  0
   -1.3330    0.9858    0.0003 C   0  0  0  0  0  0  0  0  0  0  0  0
   -0.7343   -0.2775    0.0010 C   0  0  0  0  0  0  0  0  0  0  0  0
   -1.5453   -1.4261    0.0015 C   0  0  0  0  0  0  0  0  0  0  0  0
   -2.9405   -1.2897    0.0011 C   0  0  0  0  0  0  0  0  0  0  0  0
   -3.5267   -0.0171    0.0002 C   0  0  0  0  0  0  0  0  0  0  0  0
    0.0083    2.5936    0.0004 I   0  3  0  0  0  0  0  0  0  0  0  0
    1.3467    0.9832    0.0017 C   0  0  0  0  0  0  0  0  0  0  0  0
    0.7456   -0.2787    0.0017 C   0  0  0  0  0  0  0  0  0  0  0  0
    2.7352    1.1209    0.0025 C   0  0  0  0  0  0  0  0  0  0  0  0
    3.5385   -0.0237    0.0033 C   0  0  0  0  0  0  0  0  0  0  0  0
    2.9497   -1.2954    0.0031 C   0  0  0  0  0  0  0  0  0  0  0  0
    1.5542   -1.4290    0.0021 C   0  0  0  0  0  0  0  0  0  0  0  0
   -3.1704    2.1106   -0.0008 H   0  0  0  0  0  0  0  0  0  0  0  0
   -1.1188   -2.4188    0.0023 H   0  0  0  0  0  0  0  0  0  0  0  0
   -3.5691   -2.1709    0.0015 H   0  0  0  0  0  0  0  0  0  0  0  0
   -4.6044    0.0825   -0.0001 H   0  0  0  0  0  0  0  0  0  0  0  0
    3.1863    2.1046    0.0029 H   0  0  0  0  0  0  0  0  0  0  0  0
    4.6164    0.0737    0.0042 H   0  0  0  0  0  0  0  0  0  0  0  0
    3.5767   -2.1776    0.0037 H   0  0  0  0  0  0  0  0  0  0  0  0
    1.1259   -2.4211    0.0021 H   0  0  0  0  0  0  0  0  0  0  0  0
  1  2  2  0  0  0  0
  1 14  1  0  0  0  0
  2  3  1  0  0  0  0
  2  7  1  0  0  0  0
  3  4  2  0  0  0  0
  4  5  1  0  0  0  0
  4 15  1  0  0  0  0
  5  6  2  0  0  0  0
  5 16  1  0  0  0  0
  6  1  1  0  0  0  0
  6 17  1  0  0  0  0
  7  8  1  0  0  0  0
  8  9  2  0  0  0  0
  8 10  1  0  0  0  0
  9  3  1  0  0  0  0
 10 11  2  0  0  0  0
 10 18  1  0  0  0  0
 11 12  1  0  0  0  0
 11 19  1  0  0  0  0
 12 13  2  0  0  0  0
 12 20  1  0  0  0  0
 13  9  1  0  0  0  0
 13 21  1  0  0  0  0
M  CHG  1   7   1
M  END
>  <Mol_ID>
4172

>  <Formula>
C12H8ClI

>  <MolWeight>
314.54939

>  <Cat>
S8639

>  <Name>
Diphenyleneiodonium chloride (DPI)

>  <Synonyms>
N/A

>  <Target>
NADPH-oxidase,NOS,ROS,TRP Channel

>  <Form>
chloride

>  <CAS>
4673-26-1

>  <URL>
http://selleckchem.com/products/diphenyleneiodonium-chloride-dpi.html

$$$$
