Dipivefrin Hydrochloride
 OpenBabel08302521313D

 54 54  0  0  0  0  0  0  0  0999 V2000
    0.9634   -0.1114    0.1679 O   0  0  0  0  0  0  0  0  0  0  0  0
    2.2446    2.3862    0.2731 O   0  0  0  0  0  0  0  0  0  0  0  0
    4.6105   -3.5688    0.5293 O   0  0  0  0  0  0  0  0  0  0  0  0
    0.5783   -2.0745    1.3529 O   0  0  0  0  0  0  0  0  0  0  0  0
    3.1653    3.3439   -1.6345 O   0  0  0  0  0  0  0  0  0  0  0  0
    7.1547   -3.8689   -0.7592 N   0  0  0  0  0  0  0  0  0  0  0  0
   -0.6859   -1.6576   -0.6982 C   0  0  0  0  0  0  0  0  0  0  0  0
    2.4383    4.8101    0.1717 C   0  0  0  0  0  0  0  0  0  0  0  0
    4.5489   -1.1472    0.1746 C   0  0  0  0  0  0  0  0  0  0  0  0
   -0.7872   -0.5271   -1.7327 C   0  0  0  0  0  0  0  0  0  0  0  0
   -0.2411   -2.9448   -1.4153 C   0  0  0  0  0  0  0  0  0  0  0  0
   -2.0556   -1.8837   -0.0500 C   0  0  0  0  0  0  0  0  0  0  0  0
    5.4014   -2.3910    0.3147 C   0  0  3  0  0  0  0  0  0  0  0  0
    0.3311   -1.3367    0.4100 C   0  0  0  0  0  0  0  0  0  0  0  0
    1.7261    4.7008    1.5268 C   0  0  0  0  0  0  0  0  0  0  0  0
    3.8310    5.4269    0.3972 C   0  0  0  0  0  0  0  0  0  0  0  0
    1.6200    5.7221   -0.7524 C   0  0  0  0  0  0  0  0  0  0  0  0
    2.6429    3.4561   -0.5271 C   0  0  0  0  0  0  0  0  0  0  0  0
    2.3710   -0.0497    0.2047 C   0  0  0  0  0  0  0  0  0  0  0  0
    2.9969    1.2007    0.1449 C   0  0  0  0  0  0  0  0  0  0  0  0
    3.1507   -1.2125    0.1831 C   0  0  0  0  0  0  0  0  0  0  0  0
    6.3357   -2.6461   -0.8928 C   0  0  0  0  0  0  0  0  0  0  0  0
    5.1593    0.1118    0.1124 C   0  0  0  0  0  0  0  0  0  0  0  0
    4.3920    1.2758    0.1014 C   0  0  0  0  0  0  0  0  0  0  0  0
    8.0584   -3.8054    0.3842 C   0  0  0  0  0  0  0  0  0  0  0  0
    4.1012   -3.4198    1.3456 H   0  0  0  0  0  0  0  0  0  0  0  0
    6.4990   -4.6405   -0.6041 H   0  0  0  0  0  0  0  0  0  0  0  0
    0.1727   -0.3690   -2.2374 H   0  0  0  0  0  0  0  0  0  0  0  0
   -1.5320   -0.7526   -2.5027 H   0  0  0  0  0  0  0  0  0  0  0  0
   -1.0699    0.4184   -1.2577 H   0  0  0  0  0  0  0  0  0  0  0  0
   -0.0785   -3.7698   -0.7116 H   0  0  0  0  0  0  0  0  0  0  0  0
   -0.9972   -3.2720   -2.1391 H   0  0  0  0  0  0  0  0  0  0  0  0
    0.6979   -2.7950   -1.9614 H   0  0  0  0  0  0  0  0  0  0  0  0
   -2.0382   -2.7368    0.6385 H   0  0  0  0  0  0  0  0  0  0  0  0
   -2.3704   -1.0050    0.5240 H   0  0  0  0  0  0  0  0  0  0  0  0
   -2.8217   -2.0866   -0.8077 H   0  0  0  0  0  0  0  0  0  0  0  0
    5.9948   -2.2510    1.2264 H   0  0  0  0  0  0  0  0  0  0  0  0
    2.2947    4.0799    2.2295 H   0  0  0  0  0  0  0  0  0  0  0  0
    1.6054    5.6884    1.9894 H   0  0  0  0  0  0  0  0  0  0  0  0
    0.7312    4.2578    1.4204 H   0  0  0  0  0  0  0  0  0  0  0  0
    4.3936    5.5073   -0.5402 H   0  0  0  0  0  0  0  0  0  0  0  0
    3.7584    6.4335    0.8258 H   0  0  0  0  0  0  0  0  0  0  0  0
    4.4298    4.8141    1.0812 H   0  0  0  0  0  0  0  0  0  0  0  0
    2.1048    5.8419   -1.7286 H   0  0  0  0  0  0  0  0  0  0  0  0
    0.6222    5.3115   -0.9283 H   0  0  0  0  0  0  0  0  0  0  0  0
    1.5048    6.7229   -0.3178 H   0  0  0  0  0  0  0  0  0  0  0  0
    2.6772   -2.1897    0.1851 H   0  0  0  0  0  0  0  0  0  0  0  0
    5.7235   -2.7713   -1.7962 H   0  0  0  0  0  0  0  0  0  0  0  0
    6.9884   -1.7871   -1.0802 H   0  0  0  0  0  0  0  0  0  0  0  0
    6.2434    0.2049    0.0884 H   0  0  0  0  0  0  0  0  0  0  0  0
    4.9016    2.2349    0.0669 H   0  0  0  0  0  0  0  0  0  0  0  0
    7.5198   -3.7709    1.3368 H   0  0  0  0  0  0  0  0  0  0  0  0
    8.6816   -4.7040    0.4068 H   0  0  0  0  0  0  0  0  0  0  0  0
    8.7231   -2.9381    0.3197 H   0  0  0  0  0  0  0  0  0  0  0  0
  1 14  1  0  0  0  0
  1 19  1  0  0  0  0
  2 18  1  0  0  0  0
  2 20  1  0  0  0  0
  3 13  1  0  0  0  0
  3 26  1  0  0  0  0
  4 14  2  0  0  0  0
  5 18  2  0  0  0  0
  6 22  1  0  0  0  0
  6 25  1  0  0  0  0
  6 27  1  0  0  0  0
  7 10  1  0  0  0  0
  7 11  1  0  0  0  0
  7 12  1  0  0  0  0
  7 14  1  0  0  0  0
  8 15  1  0  0  0  0
  8 16  1  0  0  0  0
  8 17  1  0  0  0  0
  8 18  1  0  0  0  0
  9 13  1  0  0  0  0
  9 21  2  0  0  0  0
  9 23  1  0  0  0  0
 10 28  1  0  0  0  0
 10 29  1  0  0  0  0
 10 30  1  0  0  0  0
 11 31  1  0  0  0  0
 11 32  1  0  0  0  0
 11 33  1  0  0  0  0
 12 34  1  0  0  0  0
 12 35  1  0  0  0  0
 12 36  1  0  0  0  0
 13 22  1  0  0  0  0
 13 37  1  0  0  0  0
 15 38  1  0  0  0  0
 15 39  1  0  0  0  0
 15 40  1  0  0  0  0
 16 41  1  0  0  0  0
 16 42  1  0  0  0  0
 16 43  1  0  0  0  0
 17 44  1  0  0  0  0
 17 45  1  0  0  0  0
 17 46  1  0  0  0  0
 19 20  2  0  0  0  0
 19 21  1  0  0  0  0
 20 24  1  0  0  0  0
 21 47  1  0  0  0  0
 22 48  1  0  0  0  0
 22 49  1  0  0  0  0
 23 24  2  0  0  0  0
 23 50  1  0  0  0  0
 24 51  1  0  0  0  0
 25 52  1  0  0  0  0
 25 53  1  0  0  0  0
 25 54  1  0  0  0  0
M  END
>  <Mol_ID>
5825

>  <Formula>
C19H30ClNO5

>  <MolWeight>
387.8982

>  <Cat>
E0019

>  <Name>
Dipivefrin Hydrochloride

>  <Synonyms>
Dipivefrine,  Propine, Pivalephrine

>  <Target>
Others

>  <Form>
Hydrochloride

>  <CAS>
64019-93-8

>  <URL>
http://www.selleckchem.com/products/dipivefrin-hydrochloride.html

$$$$
