diprotin A
 OpenBabel08302521343D

 55 55  0  0  0  0  0  0  0  0999 V2000
    0.6044    0.2959   -2.6538 C   0  0  0  0  0  0  0  0  0  0  0  0
    2.0731   -0.2717   -2.7616 C   0  0  2  0  0  0  0  0  0  0  0  0
   -0.3100   -0.3460   -2.1435 O   0  0  0  0  0  0  0  0  0  0  0  0
    2.1795   -1.7414   -3.2448 C   0  0  2  0  0  0  0  0  0  0  0  0
    2.8191   -0.1022   -1.4954 N   0  0  0  0  0  0  0  0  0  0  0  0
    1.4059   -2.0080   -4.5533 C   0  0  0  0  0  0  0  0  0  0  0  0
    1.7968   -2.8046   -2.2040 C   0  0  0  0  0  0  0  0  0  0  0  0
    1.8009   -1.0945   -5.7038 C   0  0  0  0  0  0  0  0  0  0  0  0
   -2.1700    1.7185   -3.9953 C   0  0  0  0  0  0  0  0  0  0  0  0
   -2.5171    2.4177   -5.1284 N   0  0  0  0  0  0  0  0  0  0  0  0
   -2.8501    0.7483   -3.6673 O   0  0  0  0  0  0  0  0  0  0  0  0
   -3.8805    2.5299   -5.7170 C   0  0  1  0  0  0  0  0  0  0  0  0
   -4.0223    3.9453   -6.3820 C   0  0  2  0  0  0  0  0  0  0  0  0
   -4.2353    1.3422   -6.6238 C   0  0  0  0  0  0  0  0  0  0  0  0
   -5.4052    4.3297   -6.9625 C   0  0  0  0  0  0  0  0  0  0  0  0
   -2.9831    4.2196   -7.4828 C   0  0  0  0  0  0  0  0  0  0  0  0
   -3.6846    0.1676   -6.2326 O   0  0  0  0  0  0  0  0  0  0  0  0
   -5.0262    1.3836   -7.5531 O   0  0  0  0  0  0  0  0  0  0  0  0
   -6.5813    4.2221   -6.0093 C   0  0  0  0  0  0  0  0  0  0  0  0
    0.4138    1.5832   -3.1735 N   0  0  0  0  0  0  0  0  0  0  0  0
   -0.9103    2.2460   -3.2039 C   0  0  1  0  0  0  0  0  0  0  0  0
    1.4614    2.5833   -2.9187 C   0  0  0  0  0  0  0  0  0  0  0  0
   -0.5230    3.6442   -3.7328 C   0  0  0  0  0  0  0  0  0  0  0  0
    0.8124    3.9472   -3.0946 C   0  0  0  0  0  0  0  0  0  0  0  0
    2.6095    0.3206   -3.5093 H   0  0  0  0  0  0  0  0  0  0  0  0
    3.2448   -1.9129   -3.4641 H   0  0  0  0  0  0  0  0  0  0  0  0
    3.2205    0.8265   -1.4201 H   0  0  0  0  0  0  0  0  0  0  0  0
    2.1844   -0.2350   -0.7070 H   0  0  0  0  0  0  0  0  0  0  0  0
    1.5856   -3.0452   -4.8637 H   0  0  0  0  0  0  0  0  0  0  0  0
    0.3279   -1.9194   -4.3795 H   0  0  0  0  0  0  0  0  0  0  0  0
    2.2116   -3.7748   -2.5031 H   0  0  0  0  0  0  0  0  0  0  0  0
    2.1994   -2.5873   -1.2110 H   0  0  0  0  0  0  0  0  0  0  0  0
    0.7129   -2.9211   -2.1198 H   0  0  0  0  0  0  0  0  0  0  0  0
    2.8802   -1.1291   -5.8816 H   0  0  0  0  0  0  0  0  0  0  0  0
    1.2945   -1.4097   -6.6213 H   0  0  0  0  0  0  0  0  0  0  0  0
    1.5136   -0.0560   -5.5136 H   0  0  0  0  0  0  0  0  0  0  0  0
   -1.7501    2.6427   -5.7457 H   0  0  0  0  0  0  0  0  0  0  0  0
   -4.5781    2.4727   -4.8787 H   0  0  0  0  0  0  0  0  0  0  0  0
   -3.8153    4.6742   -5.5823 H   0  0  0  0  0  0  0  0  0  0  0  0
   -5.3579    5.3772   -7.2949 H   0  0  0  0  0  0  0  0  0  0  0  0
   -5.6201    3.7511   -7.8689 H   0  0  0  0  0  0  0  0  0  0  0  0
   -3.0512    5.2650   -7.8113 H   0  0  0  0  0  0  0  0  0  0  0  0
   -1.9577    4.0760   -7.1369 H   0  0  0  0  0  0  0  0  0  0  0  0
   -3.1486    3.5841   -8.3580 H   0  0  0  0  0  0  0  0  0  0  0  0
   -3.2897    0.2193   -5.3292 H   0  0  0  0  0  0  0  0  0  0  0  0
   -6.4569    4.8967   -5.1562 H   0  0  0  0  0  0  0  0  0  0  0  0
   -7.5007    4.5134   -6.5288 H   0  0  0  0  0  0  0  0  0  0  0  0
   -6.7158    3.2020   -5.6423 H   0  0  0  0  0  0  0  0  0  0  0  0
   -1.2364    2.3420   -2.1580 H   0  0  0  0  0  0  0  0  0  0  0  0
    2.2918    2.4326   -3.5998 H   0  0  0  0  0  0  0  0  0  0  0  0
    1.8039    2.4836   -1.8792 H   0  0  0  0  0  0  0  0  0  0  0  0
   -0.3537    3.6260   -4.8151 H   0  0  0  0  0  0  0  0  0  0  0  0
   -1.2859    4.4047   -3.5265 H   0  0  0  0  0  0  0  0  0  0  0  0
    1.4226    4.5999   -3.7271 H   0  0  0  0  0  0  0  0  0  0  0  0
    0.6696    4.4491   -2.1317 H   0  0  0  0  0  0  0  0  0  0  0  0
  1  3  2  0  0  0  0
  1 20  1  0  0  0  0
  2  5  1  0  0  0  0
  2 25  1  6  0  0  0
  2  4  1  0  0  0  0
  2  1  1  0  0  0  0
  4 26  1  6  0  0  0
  4  7  1  0  0  0  0
  4  6  1  0  0  0  0
  5 27  1  0  0  0  0
  5 28  1  0  0  0  0
  6  8  1  0  0  0  0
  6 29  1  0  0  0  0
  6 30  1  0  0  0  0
  7 31  1  0  0  0  0
  7 32  1  0  0  0  0
  7 33  1  0  0  0  0
  8 34  1  0  0  0  0
  8 35  1  0  0  0  0
  8 36  1  0  0  0  0
  9 10  1  0  0  0  0
  9 11  2  0  0  0  0
 10 37  1  0  0  0  0
 12 10  1  0  0  0  0
 12 14  1  0  0  0  0
 12 38  1  1  0  0  0
 13 16  1  0  0  0  0
 13 39  1  1  0  0  0
 13 15  1  0  0  0  0
 13 12  1  0  0  0  0
 14 17  1  0  0  0  0
 14 18  2  0  0  0  0
 15 19  1  0  0  0  0
 15 40  1  0  0  0  0
 15 41  1  0  0  0  0
 16 42  1  0  0  0  0
 16 43  1  0  0  0  0
 16 44  1  0  0  0  0
 17 45  1  0  0  0  0
 19 46  1  0  0  0  0
 19 47  1  0  0  0  0
 19 48  1  0  0  0  0
 20 21  1  0  0  0  0
 20 22  1  0  0  0  0
 21 23  1  0  0  0  0
 21 49  1  1  0  0  0
 21  9  1  0  0  0  0
 22 24  1  0  0  0  0
 22 50  1  0  0  0  0
 22 51  1  0  0  0  0
 23 24  1  0  0  0  0
 23 52  1  0  0  0  0
 23 53  1  0  0  0  0
 24 54  1  0  0  0  0
 24 55  1  0  0  0  0
M  END
>  <Mol_ID>
6522

>  <Formula>
C17H31N3O4

>  <MolWeight>
341.44574

>  <Cat>
P1134

>  <Name>
diprotin A

>  <Synonyms>
Ile-Pro-Ile

>  <Target>
DPP

>  <Form>
Diacetate

>  <CAS>
90614-48-5

>  <URL>
http://www.selleckchem.com/products/diprotin-a.html

$$$$
