DisodiuM trans-crocetinate
 OpenBabel08302521463D

 48 47  0  0  0  0  0  0  0  0999 V2000
    0.9727    0.0183    0.1270 C   0  0  0  0  0  0  0  0  0  0  0  0
    0.3193    0.6831   -0.8565 C   0  0  0  0  0  0  0  0  0  0  0  0
    0.3034   -0.6994    1.1999 C   0  0  0  0  0  0  0  0  0  0  0  0
    1.1767    1.3306   -1.8886 C   0  0  0  0  0  0  0  0  0  0  0  0
   -1.1812    0.7196   -0.9481 C   0  0  0  0  0  0  0  0  0  0  0  0
    0.8801   -1.3746    2.2124 C   0  0  0  0  0  0  0  0  0  0  0  0
    0.5839    2.2903   -2.6230 O   0  0  0  0  0  0  0  0  0  0  0  0
    2.3469    1.0280   -2.0714 O   0  0  0  0  0  0  0  0  0  0  0  0
    0.1203   -2.0788    3.2696 C   0  0  0  0  0  0  0  0  0  0  0  0
    0.7645   -2.7373    4.2606 C   0  0  0  0  0  0  0  0  0  0  0  0
   -1.3869   -2.0095    3.1654 C   0  0  0  0  0  0  0  0  0  0  0  0
    0.1309   -3.4651    5.3555 C   0  0  0  0  0  0  0  0  0  0  0  0
    0.8052   -4.1065    6.3211 C   0  0  0  0  0  0  0  0  0  0  0  0
    0.1603   -4.8305    7.4138 C   0  0  0  0  0  0  0  0  0  0  0  0
    0.8182   -5.4832    8.3992 C   0  0  0  0  0  0  0  0  0  0  0  0
    0.0657   -6.1874    9.4608 C   0  0  0  0  0  0  0  0  0  0  0  0
    2.3304   -5.4908    8.4115 C   0  0  0  0  0  0  0  0  0  0  0  0
    0.6265   -6.8648   10.4722 C   0  0  0  0  0  0  0  0  0  0  0  0
   -0.0519   -7.5819   11.5432 C   0  0  0  0  0  0  0  0  0  0  0  0
    0.6007   -8.2459   12.5260 C   0  0  0  0  0  0  0  0  0  0  0  0
   -0.2577   -8.8964   13.5584 C   0  0  0  0  0  0  0  0  0  0  0  0
    2.1011   -8.2823   12.6162 C   0  0  0  0  0  0  0  0  0  0  0  0
    0.3395   -9.8591   14.2889 O   0  0  0  0  0  0  0  0  0  0  0  0
   -1.4256   -8.5968   13.7430 O   0  0  0  0  0  0  0  0  0  0  0  0
    2.0634   -0.0018    0.1389 H   0  0  0  0  0  0  0  0  0  0  0  0
   -0.7789   -0.6721    1.1514 H   0  0  0  0  0  0  0  0  0  0  0  0
   -1.5817   -0.2981   -1.0204 H   0  0  0  0  0  0  0  0  0  0  0  0
   -1.6007    1.1985   -0.0563 H   0  0  0  0  0  0  0  0  0  0  0  0
   -1.5734    1.2543   -1.8141 H   0  0  0  0  0  0  0  0  0  0  0  0
    1.9670   -1.4159    2.2750 H   0  0  0  0  0  0  0  0  0  0  0  0
   -0.3199    2.5523   -2.3805 H   0  0  0  0  0  0  0  0  0  0  0  0
    1.8520   -2.7420    4.2693 H   0  0  0  0  0  0  0  0  0  0  0  0
   -1.7235   -0.9676    3.2119 H   0  0  0  0  0  0  0  0  0  0  0  0
   -1.7232   -2.4572    2.2234 H   0  0  0  0  0  0  0  0  0  0  0  0
   -1.9219   -2.5342    3.9563 H   0  0  0  0  0  0  0  0  0  0  0  0
   -0.9522   -3.4918    5.3975 H   0  0  0  0  0  0  0  0  0  0  0  0
    1.8917   -4.0904    6.2941 H   0  0  0  0  0  0  0  0  0  0  0  0
   -0.9299   -4.8257    7.4062 H   0  0  0  0  0  0  0  0  0  0  0  0
   -1.0186   -6.1443    9.3959 H   0  0  0  0  0  0  0  0  0  0  0  0
    2.7085   -5.9534    7.4938 H   0  0  0  0  0  0  0  0  0  0  0  0
    2.7077   -4.4644    8.4818 H   0  0  0  0  0  0  0  0  0  0  0  0
    2.7952   -6.0343    9.2317 H   0  0  0  0  0  0  0  0  0  0  0  0
    1.7040   -6.9086   10.5371 H   0  0  0  0  0  0  0  0  0  0  0  0
   -1.1430   -7.5584   11.5281 H   0  0  0  0  0  0  0  0  0  0  0  0
    2.5216   -8.7598   11.7225 H   0  0  0  0  0  0  0  0  0  0  0  0
    2.4996   -7.2636   12.6886 H   0  0  0  0  0  0  0  0  0  0  0  0
    2.4975   -8.8155   13.4819 H   0  0  0  0  0  0  0  0  0  0  0  0
    1.2440  -10.1129   14.0476 H   0  0  0  0  0  0  0  0  0  0  0  0
  1  2  2  0  0  0  0
  1  3  1  0  0  0  0
  1 25  1  0  0  0  0
  2  4  1  0  0  0  0
  2  5  1  0  0  0  0
  3  6  2  0  0  0  0
  3 26  1  0  0  0  0
  4  7  1  0  0  0  0
  4  8  2  0  0  0  0
  5 27  1  0  0  0  0
  5 28  1  0  0  0  0
  5 29  1  0  0  0  0
  6  9  1  0  0  0  0
  6 30  1  0  0  0  0
  7 31  1  0  0  0  0
  9 10  2  0  0  0  0
  9 11  1  0  0  0  0
 10 12  1  0  0  0  0
 10 32  1  0  0  0  0
 11 33  1  0  0  0  0
 11 34  1  0  0  0  0
 11 35  1  0  0  0  0
 12 13  2  0  0  0  0
 12 36  1  0  0  0  0
 13 14  1  0  0  0  0
 13 37  1  0  0  0  0
 14 15  2  0  0  0  0
 14 38  1  0  0  0  0
 15 16  1  0  0  0  0
 15 17  1  0  0  0  0
 16 18  2  0  0  0  0
 16 39  1  0  0  0  0
 17 40  1  0  0  0  0
 17 41  1  0  0  0  0
 17 42  1  0  0  0  0
 18 19  1  0  0  0  0
 18 43  1  0  0  0  0
 19 20  2  0  0  0  0
 19 44  1  0  0  0  0
 20 21  1  0  0  0  0
 20 22  1  0  0  0  0
 21 23  1  0  0  0  0
 21 24  2  0  0  0  0
 22 45  1  0  0  0  0
 22 46  1  0  0  0  0
 22 47  1  0  0  0  0
 23 48  1  0  0  0  0
M  END
>  <Mol_ID>
9751

>  <Formula>
C20H24NaO4

>  <MolWeight>
351.39193

>  <Cat>
E2228

>  <Name>
DisodiuM trans-crocetinate

>  <Synonyms>
Trans sodium crocetinate, Transcrocetinate disodium

>  <Target>
NMDAR

>  <Form>
Disodium

>  <CAS>
591230-99-8

>  <URL>
https://www.selleckchem.com/products/transcrocetinate-disodium.html

$$$$
