disopyramide phosphate.cdx
 OpenBabel08302519573D

 62 62  0  0  0  0  0  0  0  0999 V2000
    1.6681    1.4585   -2.2007 C   0  0  3  0  0  0  0  0  0  0  0  0
    0.7805    2.6473   -1.3166 C   0  0  0  0  0  0  0  0  0  0  0  0
    1.2951    1.8774   -3.7065 C   0  0  0  0  0  0  0  0  0  0  0  0
    3.5252    1.1751   -1.9308 C   0  0  0  0  0  0  0  0  0  0  0  0
    0.6950    0.0042   -2.4112 C   0  0  0  0  0  0  0  0  0  0  0  0
    1.3291    3.5379   -0.3714 C   0  0  0  0  0  0  0  0  0  0  0  0
   -0.6313    2.9083   -1.5414 C   0  0  0  0  0  0  0  0  0  0  0  0
    2.1413    1.5720   -4.7401 C   0  0  0  0  0  0  0  0  0  0  0  0
   -0.0547    1.9511   -3.9613 N   0  0  0  0  0  0  0  0  0  0  0  0
    4.6904    0.3857   -0.6660 C   0  0  0  0  0  0  0  0  0  0  0  0
    1.2694   -1.2192   -2.5461 N   0  0  0  0  0  0  0  0  0  0  0  0
   -0.5671   -0.0080   -2.3276 O   0  0  0  0  0  0  0  0  0  0  0  0
    0.5688    4.6157    0.2024 C   0  0  0  0  0  0  0  0  0  0  0  0
   -1.3607    4.0377   -1.0538 C   0  0  0  0  0  0  0  0  0  0  0  0
    1.5809    1.0667   -5.9049 C   0  0  0  0  0  0  0  0  0  0  0  0
   -0.5919    1.3384   -5.0372 C   0  0  0  0  0  0  0  0  0  0  0  0
    6.1934    0.0438   -0.4254 N   0  0  0  0  0  0  0  0  0  0  0  0
   -0.7388    4.9099   -0.1884 C   0  0  0  0  0  0  0  0  0  0  0  0
    0.2047    0.8704   -6.0438 C   0  0  0  0  0  0  0  0  0  0  0  0
    6.8256   -0.5392    0.8450 C   0  0  0  0  0  0  0  0  0  0  0  0
    7.2571    0.4357   -1.3421 C   0  0  0  0  0  0  0  0  0  0  0  0
    6.7510    0.1267    2.2352 C   0  0  0  0  0  0  0  0  0  0  0  0
    6.9008   -2.0764    1.0270 C   0  0  0  0  0  0  0  0  0  0  0  0
    7.0643   -0.0013   -2.7799 C   0  0  0  0  0  0  0  0  0  0  0  0
    7.6653    1.8760   -1.0583 C   0  0  0  0  0  0  0  0  0  0  0  0
    1.0784   -0.0427    0.0450 P   0  0  0  0  0  0  0  0  0  0  0  0
    0.9705   -1.1170    1.2676 O   0  0  0  0  0  0  0  0  0  0  0  0
    1.0189    1.2022    1.0874 O   0  0  0  0  0  0  0  0  0  0  0  0
   -0.6516   -0.0427    0.0450 O   0  0  0  0  0  0  0  0  0  0  0  0
    2.6268   -0.0427    0.0450 O   0  0  0  0  0  0  0  0  0  0  0  0
    3.7740    0.5481   -2.7931 H   0  0  0  0  0  0  0  0  0  0  0  0
    3.9423    2.1800   -2.0435 H   0  0  0  0  0  0  0  0  0  0  0  0
    2.3377    3.4085    0.0071 H   0  0  0  0  0  0  0  0  0  0  0  0
   -1.2486    2.2597   -2.1605 H   0  0  0  0  0  0  0  0  0  0  0  0
    3.2142    1.5952   -4.5958 H   0  0  0  0  0  0  0  0  0  0  0  0
    4.4599    0.9237    0.2636 H   0  0  0  0  0  0  0  0  0  0  0  0
    4.3593   -0.6626   -0.7019 H   0  0  0  0  0  0  0  0  0  0  0  0
    0.6443   -1.9941   -2.5846 H   0  0  0  0  0  0  0  0  0  0  0  0
    2.2167   -1.4543   -2.3160 H   0  0  0  0  0  0  0  0  0  0  0  0
    1.0018    5.2469    0.9831 H   0  0  0  0  0  0  0  0  0  0  0  0
   -2.3750    4.2190   -1.3770 H   0  0  0  0  0  0  0  0  0  0  0  0
    2.2325    0.7246   -6.7053 H   0  0  0  0  0  0  0  0  0  0  0  0
   -1.6647    1.1672   -4.9984 H   0  0  0  0  0  0  0  0  0  0  0  0
   -1.2731    5.7765    0.2014 H   0  0  0  0  0  0  0  0  0  0  0  0
   -0.2223    0.3457   -6.8866 H   0  0  0  0  0  0  0  0  0  0  0  0
    7.8998   -0.3552    0.6906 H   0  0  0  0  0  0  0  0  0  0  0  0
    8.1722   -0.1295   -1.0994 H   0  0  0  0  0  0  0  0  0  0  0  0
    6.0359   -0.3474    2.9101 H   0  0  0  0  0  0  0  0  0  0  0  0
    7.7355    0.0084    2.7248 H   0  0  0  0  0  0  0  0  0  0  0  0
    6.5845    1.2042    2.1843 H   0  0  0  0  0  0  0  0  0  0  0  0
    6.9110   -2.6163    0.0783 H   0  0  0  0  0  0  0  0  0  0  0  0
    7.8561   -2.3337    1.5209 H   0  0  0  0  0  0  0  0  0  0  0  0
    6.1160   -2.4748    1.6760 H   0  0  0  0  0  0  0  0  0  0  0  0
    6.0846   -0.4475   -2.9609 H   0  0  0  0  0  0  0  0  0  0  0  0
    7.2532    0.8064   -3.4835 H   0  0  0  0  0  0  0  0  0  0  0  0
    7.7909   -0.8046   -2.9968 H   0  0  0  0  0  0  0  0  0  0  0  0
    8.1288    1.9402   -0.0605 H   0  0  0  0  0  0  0  0  0  0  0  0
    8.4156    2.2229   -1.7717 H   0  0  0  0  0  0  0  0  0  0  0  0
    6.8111    2.5561   -1.0602 H   0  0  0  0  0  0  0  0  0  0  0  0
    0.9612   -0.5708    2.0690 H   0  0  0  0  0  0  0  0  0  0  0  0
    1.9455    1.4722    1.2428 H   0  0  0  0  0  0  0  0  0  0  0  0
   -1.0120    0.3464   -0.7826 H   0  0  0  0  0  0  0  0  0  0  0  0
  1  5  1  0  0  0  0
  1  2  1  0  0  0  0
  1  3  1  0  0  0  0
  1  4  1  0  0  0  0
  2  6  2  0  0  0  0
  2  7  1  0  0  0  0
  3  8  2  0  0  0  0
  3  9  1  0  0  0  0
  4 10  1  0  0  0  0
  4 31  1  0  0  0  0
  4 32  1  0  0  0  0
  5 11  1  0  0  0  0
  5 12  2  0  0  0  0
  6 13  1  0  0  0  0
  6 33  1  0  0  0  0
  7 14  2  0  0  0  0
  7 34  1  0  0  0  0
  8 15  1  0  0  0  0
  8 35  1  0  0  0  0
  9 16  2  0  0  0  0
 10 17  1  0  0  0  0
 10 36  1  0  0  0  0
 10 37  1  0  0  0  0
 11 38  1  0  0  0  0
 11 39  1  0  0  0  0
 13 18  2  0  0  0  0
 13 40  1  0  0  0  0
 14 18  1  0  0  0  0
 14 41  1  0  0  0  0
 15 19  2  0  0  0  0
 15 42  1  0  0  0  0
 16 19  1  0  0  0  0
 16 43  1  0  0  0  0
 17 20  1  0  0  0  0
 17 21  1  0  0  0  0
 18 44  1  0  0  0  0
 19 45  1  0  0  0  0
 20 22  1  0  0  0  0
 20 23  1  0  0  0  0
 20 46  1  0  0  0  0
 21 24  1  0  0  0  0
 21 25  1  0  0  0  0
 21 47  1  0  0  0  0
 22 48  1  0  0  0  0
 22 49  1  0  0  0  0
 22 50  1  0  0  0  0
 23 51  1  0  0  0  0
 23 52  1  0  0  0  0
 23 53  1  0  0  0  0
 24 54  1  0  0  0  0
 24 55  1  0  0  0  0
 24 56  1  0  0  0  0
 25 57  1  0  0  0  0
 25 58  1  0  0  0  0
 25 59  1  0  0  0  0
 26 27  1  0  0  0  0
 26 28  1  0  0  0  0
 26 29  1  0  0  0  0
 26 30  2  0  0  0  0
 27 60  1  0  0  0  0
 28 61  1  0  0  0  0
 29 62  1  0  0  0  0
M  END
>  <Mol_ID>
2287

>  <Formula>
C21H32N3O5P

>  <MolWeight>
437.469641

>  <Cat>
S4322

>  <Name>
Disopyramide Phosphate

>  <Synonyms>
N/A

>  <Target>
Others

>  <Form>
phosphate

>  <CAS>
22059-60-5

>  <URL>
http://www.selleckchem.com/products/disopyramide-phosphate.html

$$$$
