Disopyramide Phosphate.cdx
 OpenBabel08302522063D

 62 62  0  0  0  0  0  0  0  0999 V2000
    2.4855   -2.1503    3.4374 C   0  0  0  0  0  0  0  0  0  0  0  0
    1.1751   -2.0333    3.8666 C   0  0  0  0  0  0  0  0  0  0  0  0
    0.1170   -2.2990    2.9773 C   0  0  0  0  0  0  0  0  0  0  0  0
    0.3720   -2.6559    1.6382 C   0  0  0  0  0  0  0  0  0  0  0  0
    1.6852   -2.6850    1.2091 N   0  0  0  0  0  0  0  0  0  0  0  0
    2.6837   -2.4837    2.1159 C   0  0  0  0  0  0  0  0  0  0  0  0
   -0.7338   -3.4136    0.7159 C   0  0  3  0  0  0  0  0  0  0  0  0
   -2.1745   -3.3825    1.4813 C   0  0  0  0  0  0  0  0  0  0  0  0
   -0.9520   -2.8346   -0.7314 C   0  0  0  0  0  0  0  0  0  0  0  0
   -1.9872   -3.4043   -1.4390 N   0  0  0  0  0  0  0  0  0  0  0  0
   -0.1807   -2.0900   -1.3522 O   0  0  0  0  0  0  0  0  0  0  0  0
   -3.5905   -3.9884    1.0771 C   0  0  0  0  0  0  0  0  0  0  0  0
   -3.9171   -5.4347    1.0364 N   0  0  0  0  0  0  0  0  0  0  0  0
   -3.8898   -6.2013    2.3172 C   0  0  0  0  0  0  0  0  0  0  0  0
    0.0359   -4.7454    0.4869 C   0  0  0  0  0  0  0  0  0  0  0  0
    0.2026   -5.6113    1.5597 C   0  0  0  0  0  0  0  0  0  0  0  0
    1.0991   -6.6683    1.5275 C   0  0  0  0  0  0  0  0  0  0  0  0
    1.9722   -6.7922    0.4579 C   0  0  0  0  0  0  0  0  0  0  0  0
    1.9430   -5.8654   -0.5761 C   0  0  0  0  0  0  0  0  0  0  0  0
    0.9656   -4.8752   -0.5810 C   0  0  0  0  0  0  0  0  0  0  0  0
   -5.1449   -5.8202    0.2499 C   0  0  0  0  0  0  0  0  0  0  0  0
   -6.5139   -5.8027    0.9636 C   0  0  0  0  0  0  0  0  0  0  0  0
   -5.3221   -5.1162   -1.1004 C   0  0  0  0  0  0  0  0  0  0  0  0
   -2.4771   -6.4375    2.8010 C   0  0  0  0  0  0  0  0  0  0  0  0
   -4.6905   -5.6889    3.5223 C   0  0  0  0  0  0  0  0  0  0  0  0
    0.9375   -0.0507   -0.0594 P   0  0  0  0  0  0  0  0  0  0  0  0
    0.9472    0.0243    1.4679 O   0  0  0  0  0  0  0  0  0  0  0  0
    0.9099    1.5709   -0.2301 O   0  0  0  0  0  0  0  0  0  0  0  0
   -0.7925   -0.0507   -0.0594 O   0  0  0  0  0  0  0  0  0  0  0  0
    2.6675   -0.0507   -0.0594 O   0  0  0  0  0  0  0  0  0  0  0  0
    3.3245   -1.9642    4.0994 H   0  0  0  0  0  0  0  0  0  0  0  0
    0.9702   -1.7431    4.8945 H   0  0  0  0  0  0  0  0  0  0  0  0
   -0.8835   -2.2132    3.3801 H   0  0  0  0  0  0  0  0  0  0  0  0
    3.6940   -2.5817    1.7230 H   0  0  0  0  0  0  0  0  0  0  0  0
   -2.0355   -3.6565    2.5254 H   0  0  0  0  0  0  0  0  0  0  0  0
   -2.4052   -2.2995    1.5106 H   0  0  0  0  0  0  0  0  0  0  0  0
   -1.9811   -3.2023   -2.4297 H   0  0  0  0  0  0  0  0  0  0  0  0
   -2.2767   -4.3467   -1.1869 H   0  0  0  0  0  0  0  0  0  0  0  0
   -4.3161   -3.5267    1.7638 H   0  0  0  0  0  0  0  0  0  0  0  0
   -3.8408   -3.5276    0.1204 H   0  0  0  0  0  0  0  0  0  0  0  0
   -4.2516   -7.2150    2.0941 H   0  0  0  0  0  0  0  0  0  0  0  0
   -0.2676   -5.3786    2.5047 H   0  0  0  0  0  0  0  0  0  0  0  0
    1.1701   -7.3239    2.3883 H   0  0  0  0  0  0  0  0  0  0  0  0
    2.7399   -7.5570    0.4756 H   0  0  0  0  0  0  0  0  0  0  0  0
    2.7291   -5.8493   -1.3273 H   0  0  0  0  0  0  0  0  0  0  0  0
    1.0876   -4.0900   -1.3305 H   0  0  0  0  0  0  0  0  0  0  0  0
   -4.9803   -6.8749   -0.0153 H   0  0  0  0  0  0  0  0  0  0  0  0
   -6.7098   -4.8483    1.4608 H   0  0  0  0  0  0  0  0  0  0  0  0
   -7.3335   -5.9724    0.2541 H   0  0  0  0  0  0  0  0  0  0  0  0
   -6.5998   -6.6196    1.6880 H   0  0  0  0  0  0  0  0  0  0  0  0
   -4.4221   -5.2060   -1.7123 H   0  0  0  0  0  0  0  0  0  0  0  0
   -6.1404   -5.5835   -1.6641 H   0  0  0  0  0  0  0  0  0  0  0  0
   -5.5862   -4.0609   -0.9819 H   0  0  0  0  0  0  0  0  0  0  0  0
   -2.0791   -5.5374    3.2710 H   0  0  0  0  0  0  0  0  0  0  0  0
   -2.4265   -7.2214    3.5621 H   0  0  0  0  0  0  0  0  0  0  0  0
   -1.8707   -6.7788    1.9638 H   0  0  0  0  0  0  0  0  0  0  0  0
   -5.7683   -5.7204    3.3739 H   0  0  0  0  0  0  0  0  0  0  0  0
   -4.4965   -6.3320    4.3916 H   0  0  0  0  0  0  0  0  0  0  0  0
   -4.4102   -4.6708    3.8008 H   0  0  0  0  0  0  0  0  0  0  0  0
    0.9976    1.8414    0.7154 H   0  0  0  0  0  0  0  0  0  0  0  0
   -1.0409    0.6678   -0.6691 H   0  0  0  0  0  0  0  0  0  0  0  0
    2.8725   -0.8764    0.4161 H   0  0  0  0  0  0  0  0  0  0  0  0
  1  2  2  0  0  0  0
  1 31  1  0  0  0  0
  2  3  1  0  0  0  0
  2 32  1  0  0  0  0
  3  4  2  0  0  0  0
  3 33  1  0  0  0  0
  4  5  1  0  0  0  0
  4  7  1  0  0  0  0
  5  6  2  0  0  0  0
  6  1  1  0  0  0  0
  6 34  1  0  0  0  0
  7  8  1  0  0  0  0
  7  9  1  0  0  0  0
  7 15  1  0  0  0  0
  8 12  1  0  0  0  0
  8 35  1  0  0  0  0
  8 36  1  0  0  0  0
  9 10  1  0  0  0  0
  9 11  2  0  0  0  0
 10 37  1  0  0  0  0
 10 38  1  0  0  0  0
 12 13  1  0  0  0  0
 12 39  1  0  0  0  0
 12 40  1  0  0  0  0
 13 14  1  0  0  0  0
 13 21  1  0  0  0  0
 14 24  1  0  0  0  0
 14 25  1  0  0  0  0
 14 41  1  0  0  0  0
 15 16  2  0  0  0  0
 16 17  1  0  0  0  0
 16 42  1  0  0  0  0
 17 18  2  0  0  0  0
 17 43  1  0  0  0  0
 18 19  1  0  0  0  0
 18 44  1  0  0  0  0
 19 20  2  0  0  0  0
 19 45  1  0  0  0  0
 20 15  1  0  0  0  0
 20 46  1  0  0  0  0
 21 22  1  0  0  0  0
 21 23  1  0  0  0  0
 21 47  1  0  0  0  0
 22 48  1  0  0  0  0
 22 49  1  0  0  0  0
 22 50  1  0  0  0  0
 23 51  1  0  0  0  0
 23 52  1  0  0  0  0
 23 53  1  0  0  0  0
 24 54  1  0  0  0  0
 24 55  1  0  0  0  0
 24 56  1  0  0  0  0
 25 57  1  0  0  0  0
 25 58  1  0  0  0  0
 25 59  1  0  0  0  0
 26 27  2  0  0  0  0
 26 28  1  0  0  0  0
 26 29  1  0  0  0  0
 26 30  1  0  0  0  0
 28 60  1  0  0  0  0
 29 61  1  0  0  0  0
 30 62  1  0  0  0  0
M  END
>  <Mol_ID>
1453

>  <Formula>
C21H32N3O5P

>  <MolWeight>
437.469641

>  <Cat>
S4143

>  <Name>
Pentoxyverine Citrate

>  <Synonyms>
Carbetapentane Citrate

>  <Target>
AChR

>  <Form>
Citrate

>  <CAS>
23142-01-0

>  <URL>
http://selleckchem.com/products/pentoxyverine-carbetapentane-citrate.html

$$$$
