Dithiothreitol (DTT)
 OpenBabel08302521243D

 18 17  0  0  0  0  0  0  0  0999 V2000
    2.9099    2.5597   -0.7508 S   0  0  0  0  0  0  0  0  0  0  0  0
    2.3336    2.0742    0.9103 C   0  0  0  0  0  0  0  0  0  0  0  0
    0.8592    2.4024    1.2113 C   0  0  2  0  0  0  0  0  0  0  0  0
    0.0170    1.7504    0.2544 O   0  0  0  0  0  0  0  0  0  0  0  0
    0.5314    3.9149    1.2633 C   0  0  1  0  0  0  0  0  0  0  0  0
    0.6393    4.4739   -0.0582 O   0  0  0  0  0  0  0  0  0  0  0  0
   -0.8992    4.2338    1.7311 C   0  0  0  0  0  0  0  0  0  0  0  0
   -1.3220    3.6193    3.3872 S   0  0  0  0  0  0  0  0  0  0  0  0
    2.0977    1.7310   -1.4281 H   0  0  0  0  0  0  0  0  0  0  0  0
    2.4813    0.9912    0.9798 H   0  0  0  0  0  0  0  0  0  0  0  0
    2.9831    2.5514    1.6504 H   0  0  0  0  0  0  0  0  0  0  0  0
    0.6429    1.9466    2.1833 H   0  0  0  0  0  0  0  0  0  0  0  0
   -0.0787    2.3734   -0.4935 H   0  0  0  0  0  0  0  0  0  0  0  0
    1.2499    4.4366    1.9073 H   0  0  0  0  0  0  0  0  0  0  0  0
    1.5587    4.3401   -0.3637 H   0  0  0  0  0  0  0  0  0  0  0  0
   -1.0327    5.3238    1.7360 H   0  0  0  0  0  0  0  0  0  0  0  0
   -1.6336    3.8497    1.0149 H   0  0  0  0  0  0  0  0  0  0  0  0
   -1.5885    2.3578    3.0106 H   0  0  0  0  0  0  0  0  0  0  0  0
  1  2  1  0  0  0  0
  1  9  1  0  0  0  0
  2 10  1  0  0  0  0
  2 11  1  0  0  0  0
  3  5  1  0  0  0  0
  3 12  1  1  0  0  0
  3  4  1  0  0  0  0
  3  2  1  0  0  0  0
  4 13  1  0  0  0  0
  5  6  1  0  0  0  0
  5  7  1  0  0  0  0
  5 14  1  1  0  0  0
  6 15  1  0  0  0  0
  7  8  1  0  0  0  0
  7 16  1  0  0  0  0
  7 17  1  0  0  0  0
  8 18  1  0  0  0  0
M  END
>  <Mol_ID>
5007

>  <Formula>
C4H10O2S2

>  <MolWeight>
154.251

>  <Cat>
S6829

>  <Name>
Dithiothreitol (DTT)

>  <Synonyms>
Cleland's reagent

>  <Target>
Others

>  <Form>
Free Base

>  <CAS>
3483-12-3

>  <URL>
http://www.selleckchem.com/products/dtt.html

$$$$
