DIVALPROEX (divalproex sodium).cdx
 OpenBabel08302520433D

 51 49  0  0  0  0  0  0  0  0999 V2000
    2.4659    0.7295    0.3634 C   0  0  0  0  0  0  0  0  0  0  0  0
    1.8336    0.4784    1.7492 C   0  0  0  0  0  0  0  0  0  0  0  0
    3.8277    1.4089    0.5786 C   0  0  0  0  0  0  0  0  0  0  0  0
    1.4887    1.6133   -0.4729 C   0  0  0  0  0  0  0  0  0  0  0  0
    1.7756    1.6559   -1.9892 C   0  0  0  0  0  0  0  0  0  0  0  0
    4.9834    0.5346    1.1032 C   0  0  0  0  0  0  0  0  0  0  0  0
    0.5785    2.0781   -2.8543 C   0  0  0  0  0  0  0  0  0  0  0  0
    5.0099    0.2278    2.5963 C   0  0  0  0  0  0  0  0  0  0  0  0
    1.2944    1.4746    2.3067 O   0  5  0  0  0  0  0  0  0  0  0  0
    1.9167   -0.7150    2.1616 O   0  0  0  0  0  0  0  0  0  0  0  0
   -0.8296   -0.7248   -0.8939 C   0  0  0  0  0  0  0  0  0  0  0  0
   -0.8933   -1.7719    0.1743 C   0  0  0  0  0  0  0  0  0  0  0  0
   -1.7243    0.0420   -1.2388 O   0  0  0  0  0  0  0  0  0  0  0  0
    0.2727   -0.8997   -1.6442 O   0  0  0  0  0  0  0  0  0  0  0  0
   -1.4996   -1.1920    1.4642 C   0  0  0  0  0  0  0  0  0  0  0  0
   -1.6642   -2.9365   -0.4797 C   0  0  0  0  0  0  0  0  0  0  0  0
   -1.5269   -2.2056    2.6094 C   0  0  0  0  0  0  0  0  0  0  0  0
   -2.0028   -1.5909    3.9176 C   0  0  0  0  0  0  0  0  0  0  0  0
   -1.0777   -3.4197   -1.8299 C   0  0  0  0  0  0  0  0  0  0  0  0
    0.3668   -3.9050   -1.7658 C   0  0  0  0  0  0  0  0  0  0  0  0
    2.5987   -0.2370   -0.1403 H   0  0  0  0  0  0  0  0  0  0  0  0
    4.1591    1.7903   -0.3944 H   0  0  0  0  0  0  0  0  0  0  0  0
    3.7189    2.2837    1.2303 H   0  0  0  0  0  0  0  0  0  0  0  0
    0.4671    1.2668   -0.3059 H   0  0  0  0  0  0  0  0  0  0  0  0
    1.4931    2.6411   -0.0920 H   0  0  0  0  0  0  0  0  0  0  0  0
    2.5741    2.3788   -2.1665 H   0  0  0  0  0  0  0  0  0  0  0  0
    2.1532    0.6900   -2.3467 H   0  0  0  0  0  0  0  0  0  0  0  0
    5.0459   -0.4007    0.5361 H   0  0  0  0  0  0  0  0  0  0  0  0
    5.9081    1.0857    0.8880 H   0  0  0  0  0  0  0  0  0  0  0  0
    0.1627    3.0374   -2.5394 H   0  0  0  0  0  0  0  0  0  0  0  0
    0.8847    2.1580   -3.9040 H   0  0  0  0  0  0  0  0  0  0  0  0
   -0.2497    1.3676   -2.8394 H   0  0  0  0  0  0  0  0  0  0  0  0
    4.3726   -0.6216    2.8534 H   0  0  0  0  0  0  0  0  0  0  0  0
    6.0289   -0.0523    2.8920 H   0  0  0  0  0  0  0  0  0  0  0  0
    4.7191    1.0896    3.2039 H   0  0  0  0  0  0  0  0  0  0  0  0
    0.1289   -2.0874    0.4145 H   0  0  0  0  0  0  0  0  0  0  0  0
    0.1350   -0.3919   -2.4571 H   0  0  0  0  0  0  0  0  0  0  0  0
   -0.9039   -0.3237    1.7766 H   0  0  0  0  0  0  0  0  0  0  0  0
   -2.5080   -0.8028    1.2802 H   0  0  0  0  0  0  0  0  0  0  0  0
   -1.7183   -3.7845    0.2060 H   0  0  0  0  0  0  0  0  0  0  0  0
   -2.6950   -2.6070   -0.6720 H   0  0  0  0  0  0  0  0  0  0  0  0
   -2.1934   -3.0338    2.3501 H   0  0  0  0  0  0  0  0  0  0  0  0
   -0.5254   -2.6250    2.7621 H   0  0  0  0  0  0  0  0  0  0  0  0
   -2.9704   -1.0945    3.7964 H   0  0  0  0  0  0  0  0  0  0  0  0
   -2.1154   -2.3709    4.6783 H   0  0  0  0  0  0  0  0  0  0  0  0
   -1.2830   -0.8571    4.2948 H   0  0  0  0  0  0  0  0  0  0  0  0
   -1.7032   -4.2313   -2.2137 H   0  0  0  0  0  0  0  0  0  0  0  0
   -1.1542   -2.6272   -2.5862 H   0  0  0  0  0  0  0  0  0  0  0  0
    0.4367   -4.8196   -1.1743 H   0  0  0  0  0  0  0  0  0  0  0  0
    0.7359   -4.1179   -2.7754 H   0  0  0  0  0  0  0  0  0  0  0  0
    1.0522   -3.1753   -1.3258 H   0  0  0  0  0  0  0  0  0  0  0  0
  1  2  1  0  0  0  0
  1  3  1  0  0  0  0
  1  4  1  0  0  0  0
  1 21  1  0  0  0  0
  2  9  1  0  0  0  0
  2 10  2  0  0  0  0
  3  6  1  0  0  0  0
  3 22  1  0  0  0  0
  3 23  1  0  0  0  0
  4  5  1  0  0  0  0
  4 24  1  0  0  0  0
  4 25  1  0  0  0  0
  5  7  1  0  0  0  0
  5 26  1  0  0  0  0
  5 27  1  0  0  0  0
  6  8  1  0  0  0  0
  6 28  1  0  0  0  0
  6 29  1  0  0  0  0
  7 30  1  0  0  0  0
  7 31  1  0  0  0  0
  7 32  1  0  0  0  0
  8 33  1  0  0  0  0
  8 34  1  0  0  0  0
  8 35  1  0  0  0  0
 11 12  1  0  0  0  0
 11 13  2  0  0  0  0
 11 14  1  0  0  0  0
 12 15  1  0  0  0  0
 12 16  1  0  0  0  0
 12 36  1  0  0  0  0
 14 37  1  0  0  0  0
 15 17  1  0  0  0  0
 15 38  1  0  0  0  0
 15 39  1  0  0  0  0
 16 19  1  0  0  0  0
 16 40  1  0  0  0  0
 16 41  1  0  0  0  0
 17 18  1  0  0  0  0
 17 42  1  0  0  0  0
 17 43  1  0  0  0  0
 18 44  1  0  0  0  0
 18 45  1  0  0  0  0
 18 46  1  0  0  0  0
 19 20  1  0  0  0  0
 19 47  1  0  0  0  0
 19 48  1  0  0  0  0
 20 49  1  0  0  0  0
 20 50  1  0  0  0  0
 20 51  1  0  0  0  0
M  CHG  1   9  -1
M  END
>  <Mol_ID>
401

>  <Formula>
C16H31NaO4

>  <MolWeight>
310.40471

>  <Cat>
S1703

>  <Name>
Divalproex Sodium

>  <Synonyms>
N/A

>  <Target>
HDAC

>  <Form>
Sodium Salt

>  <CAS>
76584-70-8

>  <URL>
http://selleckchem.com/products/Divalproex-sodium.html

$$$$
