Dixanthogen
 OpenBabel08302521323D

 22 21  0  0  0  0  0  0  0  0999 V2000
    1.2912    0.1646   -0.2237 C   0  0  0  0  0  0  0  0  0  0  0  0
    0.7350    0.4076   -1.8786 S   0  0  0  0  0  0  0  0  0  0  0  0
    0.4486    0.1277    0.8464 O   0  0  0  0  0  0  0  0  0  0  0  0
    2.9086    0.0377    0.2067 S   0  0  0  0  0  0  0  0  0  0  0  0
    1.6385   -1.1257   -2.9468 S   0  0  0  0  0  0  0  0  0  0  0  0
   -0.9302    0.5484    0.7833 C   0  0  0  0  0  0  0  0  0  0  0  0
    1.2055   -0.7554   -4.6151 C   0  0  0  0  0  0  0  0  0  0  0  0
   -1.0106    2.0632    0.8456 C   0  0  0  0  0  0  0  0  0  0  0  0
    2.1225   -0.6401   -5.6170 O   0  0  0  0  0  0  0  0  0  0  0  0
   -0.3758   -0.5639   -5.1424 S   0  0  0  0  0  0  0  0  0  0  0  0
    3.4034   -1.2995   -5.5692 C   0  0  0  0  0  0  0  0  0  0  0  0
    4.4884   -0.3474   -5.1104 C   0  0  0  0  0  0  0  0  0  0  0  0
   -1.4454    0.1355   -0.0889 H   0  0  0  0  0  0  0  0  0  0  0  0
   -1.4172    0.1283    1.6704 H   0  0  0  0  0  0  0  0  0  0  0  0
   -0.7476    2.5077   -0.1188 H   0  0  0  0  0  0  0  0  0  0  0  0
   -2.0216    2.3901    1.1043 H   0  0  0  0  0  0  0  0  0  0  0  0
   -0.3071    2.4619    1.5840 H   0  0  0  0  0  0  0  0  0  0  0  0
    3.3638   -2.2048   -4.9544 H   0  0  0  0  0  0  0  0  0  0  0  0
    3.6190   -1.6203   -6.5934 H   0  0  0  0  0  0  0  0  0  0  0  0
    4.3162   -0.0150   -4.0829 H   0  0  0  0  0  0  0  0  0  0  0  0
    5.4687   -0.8299   -5.1592 H   0  0  0  0  0  0  0  0  0  0  0  0
    4.5064    0.5493   -5.7378 H   0  0  0  0  0  0  0  0  0  0  0  0
  1  2  1  0  0  0  0
  1  3  1  0  0  0  0
  1  4  2  0  0  0  0
  2  5  1  0  0  0  0
  3  6  1  0  0  0  0
  5  7  1  0  0  0  0
  6  8  1  0  0  0  0
  6 13  1  0  0  0  0
  6 14  1  0  0  0  0
  7  9  1  0  0  0  0
  7 10  2  0  0  0  0
  8 15  1  0  0  0  0
  8 16  1  0  0  0  0
  8 17  1  0  0  0  0
  9 11  1  0  0  0  0
 11 12  1  0  0  0  0
 11 18  1  0  0  0  0
 11 19  1  0  0  0  0
 12 20  1  0  0  0  0
 12 21  1  0  0  0  0
 12 22  1  0  0  0  0
M  END
>  <Mol_ID>
6190

>  <Formula>
C6H10O2S4

>  <MolWeight>
242.4024

>  <Cat>
S0889

>  <Name>
Dixanthogen

>  <Synonyms>
N/A

>  <Target>
Anti-infection

>  <Form>
free base

>  <CAS>
502-55-6

>  <URL>
http://www.selleckchem.com/products/dixanthogen.html

$$$$
