DJ4
 OpenBabel08302521373D

 43 46  0  0  0  0  0  0  0  0999 V2000
    1.4778   -1.4267    1.3147 O   0  0  0  0  0  0  0  0  0  0  0  0
    0.7894   -0.8322    0.5015 C   0  0  0  0  0  0  0  0  0  0  0  0
   -0.4455   -1.2383    0.1312 N   0  0  0  0  0  0  0  0  0  0  0  0
   -1.2954   -0.2570   -0.2374 C   0  0  0  0  0  0  0  0  0  0  0  0
   -2.5387   -0.5215   -0.2284 N   0  0  0  0  0  0  0  0  0  0  0  0
   -3.5336    0.5167   -0.4602 C   0  0  0  0  0  0  0  0  0  0  0  0
   -4.8842   -0.1406   -0.1642 C   0  0  0  0  0  0  0  0  0  0  0  0
   -6.0664    0.7875   -0.2119 C   0  0  0  0  0  0  0  0  0  0  0  0
   -6.7236    1.0370   -1.4224 C   0  0  0  0  0  0  0  0  0  0  0  0
   -7.8970    1.7915   -1.4431 C   0  0  0  0  0  0  0  0  0  0  0  0
   -8.4136    2.3130   -0.2581 C   0  0  0  0  0  0  0  0  0  0  0  0
   -7.7417    2.1068    0.9452 C   0  0  0  0  0  0  0  0  0  0  0  0
   -6.5682    1.3532    0.9681 C   0  0  0  0  0  0  0  0  0  0  0  0
   -0.4349    1.2126   -0.5910 S   0  0  0  0  0  0  0  0  0  0  0  0
    1.0677    0.5044   -0.0992 C   0  0  0  0  0  0  0  0  0  0  0  0
    2.2842    1.0448   -0.2756 C   0  0  0  0  0  0  0  0  0  0  0  0
    3.5131    0.3523    0.0318 C   0  0  0  0  0  0  0  0  0  0  0  0
    3.8250   -0.8828   -0.3857 C   0  0  0  0  0  0  0  0  0  0  0  0
    5.0131   -1.3488    0.1334 N   0  0  0  0  0  0  0  0  0  0  0  0
    5.6946   -0.2470    0.8204 C   0  0  3  0  0  0  0  0  0  0  0  0
    6.3773   -0.6446    2.0468 N   0  0  0  0  0  0  0  0  0  0  0  0
    5.9290   -0.2176    3.1677 C   0  0  0  0  0  0  0  0  0  0  0  0
    4.7424    0.6207    3.4047 C   0  0  0  0  0  0  0  0  0  0  0  0
    4.1192    1.1311    2.3398 C   0  0  0  0  0  0  0  0  0  0  0  0
    4.6041    0.8839    0.9360 C   0  0  3  0  0  0  0  0  0  0  0  0
   -0.8303   -2.0840    0.5219 H   0  0  0  0  0  0  0  0  0  0  0  0
   -3.3768    1.3643    0.2156 H   0  0  0  0  0  0  0  0  0  0  0  0
   -3.5005    0.8741   -1.4949 H   0  0  0  0  0  0  0  0  0  0  0  0
   -5.0523   -0.9690   -0.8671 H   0  0  0  0  0  0  0  0  0  0  0  0
   -4.8502   -0.6181    0.8250 H   0  0  0  0  0  0  0  0  0  0  0  0
   -6.3440    0.6155   -2.3503 H   0  0  0  0  0  0  0  0  0  0  0  0
   -8.4199    1.9539   -2.3817 H   0  0  0  0  0  0  0  0  0  0  0  0
   -9.3438    2.8743   -0.2713 H   0  0  0  0  0  0  0  0  0  0  0  0
   -8.1427    2.5143    1.8693 H   0  0  0  0  0  0  0  0  0  0  0  0
   -6.0658    1.1808    1.9175 H   0  0  0  0  0  0  0  0  0  0  0  0
    2.3898    2.0389   -0.7032 H   0  0  0  0  0  0  0  0  0  0  0  0
    3.2329   -1.5537   -0.9935 H   0  0  0  0  0  0  0  0  0  0  0  0
    4.8369   -2.1144    0.7865 H   0  0  0  0  0  0  0  0  0  0  0  0
    6.4685    0.1121    0.1262 H   0  0  0  0  0  0  0  0  0  0  0  0
    6.4754   -0.4986    4.0848 H   0  0  0  0  0  0  0  0  0  0  0  0
    4.4242    0.7930    4.4246 H   0  0  0  0  0  0  0  0  0  0  0  0
    3.2410    1.7528    2.4823 H   0  0  0  0  0  0  0  0  0  0  0  0
    5.0090    1.8192    0.5348 H   0  0  0  0  0  0  0  0  0  0  0  0
  1  2  2  0  0  0  0
  2  3  1  0  0  0  0
  3  4  1  0  0  0  0
  3 26  1  0  0  0  0
  4  5  2  0  0  0  0
  4 14  1  0  0  0  0
  5  6  1  0  0  0  0
  6  7  1  0  0  0  0
  6 27  1  0  0  0  0
  6 28  1  0  0  0  0
  7  8  1  0  0  0  0
  7 29  1  0  0  0  0
  7 30  1  0  0  0  0
  8  9  2  0  0  0  0
  9 10  1  0  0  0  0
  9 31  1  0  0  0  0
 10 11  2  0  0  0  0
 10 32  1  0  0  0  0
 11 12  1  0  0  0  0
 11 33  1  0  0  0  0
 12 13  2  0  0  0  0
 12 34  1  0  0  0  0
 13  8  1  0  0  0  0
 13 35  1  0  0  0  0
 14 15  1  0  0  0  0
 15 16  2  0  0  0  0
 15  2  1  0  0  0  0
 16 17  1  0  0  0  0
 16 36  1  0  0  0  0
 17 18  2  0  0  0  0
 18 19  1  0  0  0  0
 18 37  1  0  0  0  0
 19 20  1  0  0  0  0
 19 38  1  0  0  0  0
 20 21  1  0  0  0  0
 20 39  1  0  0  0  0
 21 22  2  0  0  0  0
 22 23  1  0  0  0  0
 22 40  1  0  0  0  0
 23 24  2  0  0  0  0
 23 41  1  0  0  0  0
 24 25  1  0  0  0  0
 24 42  1  0  0  0  0
 25 17  1  0  0  0  0
 25 20  1  0  0  0  0
 25 43  1  0  0  0  0
M  END
>  <Mol_ID>
7550

>  <Formula>
C19H18N4OS

>  <MolWeight>
350.43742

>  <Cat>
E1480

>  <Name>
DJ4

>  <Synonyms>
EX-A7863

>  <Target>
ROCK

>  <Form>
free base

>  <URL>
https://www.selleckchem.com/products/dj4.html

$$$$
