DKM 2-93
 OpenBabel08302520143D

 30 30  0  0  0  0  0  0  0  0999 V2000
    1.4431   -0.2328   -0.0261 C   0  0  0  0  0  0  0  0  0  0  0  0
    0.5716   -1.3328   -0.0181 C   0  0  0  0  0  0  0  0  0  0  0  0
    0.9061    1.0581    0.1434 C   0  0  0  0  0  0  0  0  0  0  0  0
    2.7912   -0.4079   -0.2314 O   0  0  0  0  0  0  0  0  0  0  0  0
   -0.8151   -1.0891    0.0430 C   0  0  0  0  0  0  0  0  0  0  0  0
    0.8135   -2.6716   -0.1115 O   0  0  0  0  0  0  0  0  0  0  0  0
   -0.4734    1.2890    0.2172 C   0  0  0  0  0  0  0  0  0  0  0  0
    3.4953    0.7217   -0.7599 C   0  0  0  0  0  0  0  0  0  0  0  0
   -1.3349    0.2014    0.1301 C   0  0  0  0  0  0  0  0  0  0  0  0
    2.1004   -3.2252    0.0958 C   0  0  0  0  0  0  0  0  0  0  0  0
   -0.9946    2.6926    0.3416 C   0  0  0  0  0  0  0  0  0  0  0  0
   -1.2326    3.2808   -0.9525 N   0  0  0  0  0  0  0  0  0  0  0  0
   -1.6817    4.5794   -1.0579 C   0  0  0  0  0  0  0  0  0  0  0  0
   -1.8809    5.0442   -2.4774 C   0  0  0  0  0  0  0  0  0  0  0  0
   -1.8979    5.2972   -0.0998 O   0  0  0  0  0  0  0  0  0  0  0  0
    1.5568    1.9270    0.2071 H   0  0  0  0  0  0  0  0  0  0  0  0
   -1.4981   -1.9318    0.0135 H   0  0  0  0  0  0  0  0  0  0  0  0
    2.8797    1.3490   -1.4215 H   0  0  0  0  0  0  0  0  0  0  0  0
    3.9078    1.3250    0.0589 H   0  0  0  0  0  0  0  0  0  0  0  0
    4.3239    0.3581   -1.3719 H   0  0  0  0  0  0  0  0  0  0  0  0
   -2.4114    0.3390    0.1445 H   0  0  0  0  0  0  0  0  0  0  0  0
    2.8931   -2.7020   -0.4346 H   0  0  0  0  0  0  0  0  0  0  0  0
    2.3203   -3.3299    1.1639 H   0  0  0  0  0  0  0  0  0  0  0  0
    2.0690   -4.2387   -0.3250 H   0  0  0  0  0  0  0  0  0  0  0  0
   -1.9232    2.7133    0.9219 H   0  0  0  0  0  0  0  0  0  0  0  0
   -0.2721    3.3216    0.8759 H   0  0  0  0  0  0  0  0  0  0  0  0
   -1.1020    2.7103   -1.7797 H   0  0  0  0  0  0  0  0  0  0  0  0
   -2.9312    5.3124   -2.6196 H   0  0  0  0  0  0  0  0  0  0  0  0
   -1.2487    5.9185   -2.6549 H   0  0  0  0  0  0  0  0  0  0  0  0
   -1.6173    4.2719   -3.2056 H   0  0  0  0  0  0  0  0  0  0  0  0
  1  2  2  0  0  0  0
  1  3  1  0  0  0  0
  1  4  1  0  0  0  0
  2  5  1  0  0  0  0
  2  6  1  0  0  0  0
  3  7  2  0  0  0  0
  3 16  1  0  0  0  0
  4  8  1  0  0  0  0
  5  9  2  0  0  0  0
  5 17  1  0  0  0  0
  6 10  1  0  0  0  0
  7 11  1  0  0  0  0
  7  9  1  0  0  0  0
  8 18  1  0  0  0  0
  8 19  1  0  0  0  0
  8 20  1  0  0  0  0
  9 21  1  0  0  0  0
 10 22  1  0  0  0  0
 10 23  1  0  0  0  0
 10 24  1  0  0  0  0
 11 12  1  0  0  0  0
 11 25  1  0  0  0  0
 11 26  1  0  0  0  0
 12 13  1  0  0  0  0
 12 27  1  0  0  0  0
 13 14  1  0  0  0  0
 13 15  2  0  0  0  0
 14 28  1  0  0  0  0
 14 29  1  0  0  0  0
 14 30  1  0  0  0  0
M  END
>  <Mol_ID>
3154

>  <Formula>
C11H14ClNO3

>  <MolWeight>
243.68676

>  <Cat>
S5841

>  <Name>
DKM 2-93

>  <Synonyms>
N/A

>  <Target>
E1 Activating

>  <Form>
Free Base

>  <CAS>
65836-72-8

>  <URL>
http://www.selleckchem.com/products/dkm2-93.html

$$$$
