DL-2,3-Diaminopropionic acid monohydrochloride
 OpenBabel08302521393D

 15 14  0  0  0  0  0  0  0  0999 V2000
    0.8669    2.4260    0.1181 N   0  0  0  0  0  0  0  0  0  0  0  0
    0.4991    1.2420   -0.6741 C   0  0  0  0  0  0  0  0  0  0  0  0
    0.9664    1.3470   -2.1416 C   0  0  3  0  0  0  0  0  0  0  0  0
    0.4745    0.1106   -2.9052 C   0  0  0  0  0  0  0  0  0  0  0  0
   -0.3133    0.3920   -3.9693 O   0  0  0  0  0  0  0  0  0  0  0  0
    0.7582   -1.0386   -2.5985 O   0  0  0  0  0  0  0  0  0  0  0  0
    0.5181    2.6284   -2.7451 N   0  0  0  0  0  0  0  0  0  0  0  0
    1.8865    2.4835    0.1706 H   0  0  0  0  0  0  0  0  0  0  0  0
    0.5975    3.2523   -0.4214 H   0  0  0  0  0  0  0  0  0  0  0  0
    0.9204    0.3491   -0.1999 H   0  0  0  0  0  0  0  0  0  0  0  0
   -0.5913    1.1330   -0.6366 H   0  0  0  0  0  0  0  0  0  0  0  0
    2.0617    1.3384   -2.1877 H   0  0  0  0  0  0  0  0  0  0  0  0
   -0.4426    1.3518   -4.0615 H   0  0  0  0  0  0  0  0  0  0  0  0
    0.8792    2.7760   -3.6836 H   0  0  0  0  0  0  0  0  0  0  0  0
   -0.4835    2.7821   -2.6576 H   0  0  0  0  0  0  0  0  0  0  0  0
  1  2  1  0  0  0  0
  1  8  1  0  0  0  0
  1  9  1  0  0  0  0
  2  3  1  0  0  0  0
  2 10  1  0  0  0  0
  2 11  1  0  0  0  0
  3  4  1  0  0  0  0
  3  7  1  0  0  0  0
  3 12  1  0  0  0  0
  4  5  1  0  0  0  0
  4  6  2  0  0  0  0
  5 13  1  0  0  0  0
  7 14  1  0  0  0  0
  7 15  1  0  0  0  0
M  END
>  <Mol_ID>
7973

>  <Formula>
C3H9ClN2O2

>  <MolWeight>
140.56876

>  <Cat>
S3354

>  <Name>
DL-2,3-Diaminopropionic acid monohydrochloride

>  <Synonyms>
2,3-Diaminopropanoic acid hydrochloride

>  <Target>
Others

>  <Form>
Monohydrochloride

>  <CAS>
54897-59-5

>  <URL>
https://www.selleckchem.com/products/dl-2-3-diaminopropionic-acid-monohydrochloride.html

$$$$
