DL-3-Phenyllactic acid
 OpenBabel08302521363D

 22 22  0  0  0  0  0  0  0  0999 V2000
    0.9623   -0.0724    0.0932 C   0  0  0  0  0  0  0  0  0  0  0  0
    0.4692   -1.4120   -0.4650 C   0  0  3  0  0  0  0  0  0  0  0  0
   -1.0538   -1.4663   -0.6517 C   0  0  0  0  0  0  0  0  0  0  0  0
    1.0692   -1.6599   -1.7591 O   0  0  0  0  0  0  0  0  0  0  0  0
   -1.3787   -2.2006   -1.7516 O   0  0  0  0  0  0  0  0  0  0  0  0
   -1.8958   -0.9640    0.0708 O   0  0  0  0  0  0  0  0  0  0  0  0
    0.6133    0.2630    1.5248 C   0  0  0  0  0  0  0  0  0  0  0  0
    0.3937   -0.7134    2.5070 C   0  0  0  0  0  0  0  0  0  0  0  0
    0.5377    1.6133    1.8993 C   0  0  0  0  0  0  0  0  0  0  0  0
    0.0592   -0.3484    3.8129 C   0  0  0  0  0  0  0  0  0  0  0  0
    0.2117    1.9765    3.2065 C   0  0  0  0  0  0  0  0  0  0  0  0
   -0.0355    0.9951    4.1628 C   0  0  0  0  0  0  0  0  0  0  0  0
    0.5833    0.7265   -0.5599 H   0  0  0  0  0  0  0  0  0  0  0  0
    2.0556   -0.0346    0.0019 H   0  0  0  0  0  0  0  0  0  0  0  0
    0.7633   -2.2561    0.1645 H   0  0  0  0  0  0  0  0  0  0  0  0
    1.1798   -0.7968   -2.2030 H   0  0  0  0  0  0  0  0  0  0  0  0
   -0.5406   -2.4938   -2.1830 H   0  0  0  0  0  0  0  0  0  0  0  0
    0.4558   -1.7732    2.2803 H   0  0  0  0  0  0  0  0  0  0  0  0
    0.7175    2.3993    1.1691 H   0  0  0  0  0  0  0  0  0  0  0  0
   -0.1380   -1.1178    4.5549 H   0  0  0  0  0  0  0  0  0  0  0  0
    0.1409    3.0258    3.4787 H   0  0  0  0  0  0  0  0  0  0  0  0
   -0.3058    1.2760    5.1773 H   0  0  0  0  0  0  0  0  0  0  0  0
  1  2  1  0  0  0  0
  1  7  1  0  0  0  0
  1 13  1  0  0  0  0
  1 14  1  0  0  0  0
  2  3  1  0  0  0  0
  2  4  1  0  0  0  0
  2 15  1  0  0  0  0
  3  5  1  0  0  0  0
  3  6  2  0  0  0  0
  4 16  1  0  0  0  0
  5 17  1  0  0  0  0
  7  8  2  0  0  0  0
  7  9  1  0  0  0  0
  8 10  1  0  0  0  0
  8 18  1  0  0  0  0
  9 11  2  0  0  0  0
  9 19  1  0  0  0  0
 10 12  2  0  0  0  0
 10 20  1  0  0  0  0
 11 12  1  0  0  0  0
 11 21  1  0  0  0  0
 12 22  1  0  0  0  0
M  END
>  <Mol_ID>
7209

>  <Formula>
C9H10O3

>  <MolWeight>
166.1739

>  <Cat>
E4213

>  <Name>
DL-3-Phenyllactic acid

>  <Synonyms>
DL-3-Phenyllactic acid

>  <Target>
Antibacterial; Endogenous Metabolite

>  <Form>
free base

>  <CAS>
828-01-3

>  <URL>
https://www.selleckchem.com/products/dl-3-phenyllactic-acid.html

$$$$
