DL-5-Hydroxylysine hydrochloride
 OpenBabel08302521383D

 25 24  0  0  0  0  0  0  0  0999 V2000
    1.0399    0.0752    0.0204 O   0  0  0  0  0  0  0  0  0  0  0  0
    1.9094   -4.7320   -2.0759 O   0  0  0  0  0  0  0  0  0  0  0  0
    3.5374   -3.2700   -2.7025 O   0  0  0  0  0  0  0  0  0  0  0  0
    2.6565   -4.9694    0.3608 N   0  0  0  0  0  0  0  0  0  0  0  0
    0.1509    0.3320    2.8018 N   0  0  0  0  0  0  0  0  0  0  0  0
    1.1477   -2.3500    0.2198 C   0  0  0  0  0  0  0  0  0  0  0  0
    2.6832   -2.4624    0.2498 C   0  0  0  0  0  0  0  0  0  0  0  0
    0.5712   -1.0407    0.7851 C   0  0  3  0  0  0  0  0  0  0  0  0
    3.2319   -3.7792   -0.3254 C   0  0  3  0  0  0  0  0  0  0  0  0
    0.8777   -0.8265    2.2808 C   0  0  0  0  0  0  0  0  0  0  0  0
    2.9417   -3.8833   -1.8302 C   0  0  0  0  0  0  0  0  0  0  0  0
    1.9999    0.1543    0.1403 H   0  0  0  0  0  0  0  0  0  0  0  0
    1.6180   -5.0757   -1.1957 H   0  0  0  0  0  0  0  0  0  0  0  0
    3.2284   -5.7831    0.1052 H   0  0  0  0  0  0  0  0  0  0  0  0
    2.8140   -4.8632    1.3669 H   0  0  0  0  0  0  0  0  0  0  0  0
    0.5307    0.6148    3.7024 H   0  0  0  0  0  0  0  0  0  0  0  0
    0.2795    1.1172    2.1590 H   0  0  0  0  0  0  0  0  0  0  0  0
    0.7032   -3.1875    0.7705 H   0  0  0  0  0  0  0  0  0  0  0  0
    0.8168   -2.4362   -0.8227 H   0  0  0  0  0  0  0  0  0  0  0  0
    3.1181   -1.6307   -0.3178 H   0  0  0  0  0  0  0  0  0  0  0  0
    3.0368   -2.3610    1.2825 H   0  0  0  0  0  0  0  0  0  0  0  0
   -0.5164   -1.0746    0.6483 H   0  0  0  0  0  0  0  0  0  0  0  0
    4.3202   -3.8153   -0.2006 H   0  0  0  0  0  0  0  0  0  0  0  0
    0.5963   -1.7114    2.8610 H   0  0  0  0  0  0  0  0  0  0  0  0
    1.9472   -0.6409    2.4247 H   0  0  0  0  0  0  0  0  0  0  0  0
  1  8  1  0  0  0  0
  1 12  1  0  0  0  0
  2 11  1  0  0  0  0
  2 13  1  0  0  0  0
  3 11  2  0  0  0  0
  4  9  1  0  0  0  0
  4 14  1  0  0  0  0
  4 15  1  0  0  0  0
  5 10  1  0  0  0  0
  5 16  1  0  0  0  0
  5 17  1  0  0  0  0
  6  7  1  0  0  0  0
  6  8  1  0  0  0  0
  6 18  1  0  0  0  0
  6 19  1  0  0  0  0
  7  9  1  0  0  0  0
  7 20  1  0  0  0  0
  7 21  1  0  0  0  0
  8 10  1  0  0  0  0
  8 22  1  0  0  0  0
  9 11  1  0  0  0  0
  9 23  1  0  0  0  0
 10 24  1  0  0  0  0
 10 25  1  0  0  0  0
M  END
>  <Mol_ID>
7951

>  <Formula>
C6H15ClN2O3

>  <MolWeight>
198.6479

>  <Cat>
S2988

>  <Name>
DL-5-Hydroxylysine hydrochloride

>  <Synonyms>
N/A

>  <Target>
Others

>  <Form>
Hydrochloride

>  <CAS>
13204-98-3

>  <URL>
https://www.selleckchem.com/products/dl-5-hydroxylysine-hydrochloride.html

$$$$
