DL-6,8-Thioctamide
 OpenBabel08302520383D

 27 27  0  0  0  0  0  0  0  0999 V2000
    1.5499    0.2957   -2.2769 C   0  0  0  0  0  0  0  0  0  0  0  0
    0.4591    0.2126   -1.2302 C   0  0  0  0  0  0  0  0  0  0  0  0
   -0.4487   -0.9957   -1.4565 C   0  0  0  0  0  0  0  0  0  0  0  0
   -1.5584   -1.1328   -0.4110 C   0  0  0  0  0  0  0  0  0  0  0  0
   -2.5548    0.0349   -0.3538 C   0  0  0  0  0  0  0  0  0  0  0  0
   -3.3129    0.3264   -1.6584 C   0  0  3  0  0  0  0  0  0  0  0  0
   -4.3428   -1.0919   -2.1776 S   0  0  0  0  0  0  0  0  0  0  0  0
   -6.0347   -0.0496   -2.6587 S   0  0  0  0  0  0  0  0  0  0  0  0
   -5.2620    1.5794   -2.6399 C   0  0  0  0  0  0  0  0  0  0  0  0
   -4.2472    1.5373   -1.5029 C   0  0  0  0  0  0  0  0  0  0  0  0
    1.6822   -0.4844   -3.2120 O   0  0  0  0  0  0  0  0  0  0  0  0
    2.4001    1.3477   -2.1259 N   0  0  0  0  0  0  0  0  0  0  0  0
    0.9298    0.1488   -0.2429 H   0  0  0  0  0  0  0  0  0  0  0  0
   -0.1166    1.1426   -1.2815 H   0  0  0  0  0  0  0  0  0  0  0  0
   -0.8805   -0.9588   -2.4621 H   0  0  0  0  0  0  0  0  0  0  0  0
    0.1606   -1.9098   -1.4290 H   0  0  0  0  0  0  0  0  0  0  0  0
   -2.0971   -2.0696   -0.5983 H   0  0  0  0  0  0  0  0  0  0  0  0
   -1.1019   -1.2482    0.5802 H   0  0  0  0  0  0  0  0  0  0  0  0
   -3.2745   -0.1738    0.4496 H   0  0  0  0  0  0  0  0  0  0  0  0
   -2.0237    0.9411   -0.0387 H   0  0  0  0  0  0  0  0  0  0  0  0
   -2.6045    0.5384   -2.4668 H   0  0  0  0  0  0  0  0  0  0  0  0
   -6.0158    2.3538   -2.4736 H   0  0  0  0  0  0  0  0  0  0  0  0
   -4.7778    1.7662   -3.6038 H   0  0  0  0  0  0  0  0  0  0  0  0
   -4.7669    1.5102   -0.5348 H   0  0  0  0  0  0  0  0  0  0  0  0
   -3.6573    2.4621   -1.5044 H   0  0  0  0  0  0  0  0  0  0  0  0
    2.4308    1.9130   -1.2891 H   0  0  0  0  0  0  0  0  0  0  0  0
    3.1723    1.4105   -2.7788 H   0  0  0  0  0  0  0  0  0  0  0  0
  1  2  1  0  0  0  0
  1 11  2  0  0  0  0
  1 12  1  0  0  0  0
  2  3  1  0  0  0  0
  2 13  1  0  0  0  0
  2 14  1  0  0  0  0
  3  4  1  0  0  0  0
  3 15  1  0  0  0  0
  3 16  1  0  0  0  0
  4  5  1  0  0  0  0
  4 17  1  0  0  0  0
  4 18  1  0  0  0  0
  5  6  1  0  0  0  0
  5 19  1  0  0  0  0
  5 20  1  0  0  0  0
  6  7  1  0  0  0  0
  6 10  1  0  0  0  0
  6 21  1  0  0  0  0
  7  8  1  0  0  0  0
  8  9  1  0  0  0  0
  9 10  1  0  0  0  0
  9 22  1  0  0  0  0
  9 23  1  0  0  0  0
 10 24  1  0  0  0  0
 10 25  1  0  0  0  0
 12 26  1  0  0  0  0
 12 27  1  0  0  0  0
M  END
>  <Mol_ID>
3472

>  <Formula>
C8H15NOS2

>  <MolWeight>
205.3408

>  <Cat>
S6178

>  <Name>
DL-6,8-Thioctamide

>  <Synonyms>
alpha-Lipoic amide

>  <Target>
Others

>  <Form>
free base

>  <CAS>
940-69-2

>  <URL>
http://www.selleck.cn/products/dl-6-8-thioctamide.html

$$$$
