DL-AP5 (2-APV)
 OpenBabel08302521453D

 24 23  0  0  0  0  0  0  0  0999 V2000
    0.9970    0.1413    0.0425 C   0  0  0  0  0  0  0  0  0  0  0  0
    0.4437   -0.1956    1.4324 C   0  0  0  0  0  0  0  0  0  0  0  0
    0.5418    1.5094   -0.4592 C   0  0  0  0  0  0  0  0  0  0  0  0
    0.8290   -1.5997    1.9226 C   0  0  3  0  0  0  0  0  0  0  0  0
    1.1325    2.9157    0.4596 P   0  0  0  0  0  0  0  0  0  0  0  0
    0.2422   -1.8840    3.3239 C   0  0  0  0  0  0  0  0  0  0  0  0
    0.3447   -2.6223    0.9668 N   0  0  0  0  0  0  0  0  0  0  0  0
    0.6883    3.0349    1.8771 O   0  0  0  0  0  0  0  0  0  0  0  0
    2.7223    2.9117    0.2759 O   0  0  0  0  0  0  0  0  0  0  0  0
    0.7473    4.1854   -0.4340 O   0  0  0  0  0  0  0  0  0  0  0  0
    0.6822   -1.0512    4.2926 O   0  0  0  0  0  0  0  0  0  0  0  0
   -0.5192   -2.8120    3.5643 O   0  0  0  0  0  0  0  0  0  0  0  0
    0.6631   -0.6073   -0.6854 H   0  0  0  0  0  0  0  0  0  0  0  0
    2.0920    0.1046    0.0669 H   0  0  0  0  0  0  0  0  0  0  0  0
    0.8232    0.5392    2.1486 H   0  0  0  0  0  0  0  0  0  0  0  0
   -0.6488   -0.0877    1.4329 H   0  0  0  0  0  0  0  0  0  0  0  0
    0.8802    1.6211   -1.4965 H   0  0  0  0  0  0  0  0  0  0  0  0
   -0.5534    1.5436   -0.4851 H   0  0  0  0  0  0  0  0  0  0  0  0
    1.9170   -1.7000    1.9957 H   0  0  0  0  0  0  0  0  0  0  0  0
    0.4448   -3.5379    1.4184 H   0  0  0  0  0  0  0  0  0  0  0  0
   -0.6705   -2.5225    0.8809 H   0  0  0  0  0  0  0  0  0  0  0  0
    3.0501    2.5061   -0.5474 H   0  0  0  0  0  0  0  0  0  0  0  0
    0.9299    5.0215    0.0386 H   0  0  0  0  0  0  0  0  0  0  0  0
    1.2950   -0.3513    3.9977 H   0  0  0  0  0  0  0  0  0  0  0  0
  1  2  1  0  0  0  0
  1  3  1  0  0  0  0
  1 13  1  0  0  0  0
  1 14  1  0  0  0  0
  2  4  1  0  0  0  0
  2 15  1  0  0  0  0
  2 16  1  0  0  0  0
  3  5  1  0  0  0  0
  3 17  1  0  0  0  0
  3 18  1  0  0  0  0
  4  6  1  0  0  0  0
  4  7  1  0  0  0  0
  4 19  1  0  0  0  0
  5  8  2  0  0  0  0
  5  9  1  0  0  0  0
  5 10  1  0  0  0  0
  6 11  1  0  0  0  0
  6 12  2  0  0  0  0
  7 20  1  0  0  0  0
  7 21  1  0  0  0  0
  9 22  1  0  0  0  0
 10 23  1  0  0  0  0
 11 24  1  0  0  0  0
M  END
>  <Mol_ID>
9549

>  <Formula>
C5H12NO5P

>  <MolWeight>
197.126241

>  <Cat>
E2979

>  <Name>
DL-AP5 (2-APV)

>  <Synonyms>
DL-2-Amino-5-phosphonovaleric acid

>  <Target>
NMDAR

>  <Form>
Free base

>  <CAS>
76326-31-3

>  <URL>
https://www.selleckchem.com/products/dl-ap5-2-apv.html

$$$$
