DL-Asparagine
 OpenBabel08302521453D

 17 16  0  0  0  0  0  0  0  0999 V2000
    0.9425    0.0292    0.1302 C   0  0  3  0  0  0  0  0  0  0  0  0
    0.3850   -1.2437   -0.5015 C   0  0  0  0  0  0  0  0  0  0  0  0
    0.3794    0.2399    1.5462 C   0  0  0  0  0  0  0  0  0  0  0  0
    0.6163    1.2440   -0.6655 N   0  0  0  0  0  0  0  0  0  0  0  0
    0.9142   -2.4431    0.2567 C   0  0  0  0  0  0  0  0  0  0  0  0
    0.6978    1.4737    2.0206 O   0  0  0  0  0  0  0  0  0  0  0  0
   -0.2799   -0.5659    2.1841 O   0  0  0  0  0  0  0  0  0  0  0  0
   -0.0391   -3.2370    0.8229 N   0  0  0  0  0  0  0  0  0  0  0  0
    2.1078   -2.7020    0.3534 O   0  0  0  0  0  0  0  0  0  0  0  0
    2.0328   -0.0331    0.2218 H   0  0  0  0  0  0  0  0  0  0  0  0
   -0.7065   -1.2454   -0.5163 H   0  0  0  0  0  0  0  0  0  0  0  0
    0.7280   -1.3449   -1.5383 H   0  0  0  0  0  0  0  0  0  0  0  0
    1.0061    1.1345   -1.6056 H   0  0  0  0  0  0  0  0  0  0  0  0
   -0.3982    1.2762   -0.8110 H   0  0  0  0  0  0  0  0  0  0  0  0
    1.1143    1.9797    1.2824 H   0  0  0  0  0  0  0  0  0  0  0  0
    0.3263   -3.9531    1.4439 H   0  0  0  0  0  0  0  0  0  0  0  0
   -0.8913   -2.7949    1.1530 H   0  0  0  0  0  0  0  0  0  0  0  0
  1  2  1  0  0  0  0
  1  3  1  0  0  0  0
  1  4  1  0  0  0  0
  1 10  1  0  0  0  0
  2  5  1  0  0  0  0
  2 11  1  0  0  0  0
  2 12  1  0  0  0  0
  3  6  1  0  0  0  0
  3  7  2  0  0  0  0
  4 13  1  0  0  0  0
  4 14  1  0  0  0  0
  5  8  1  0  0  0  0
  5  9  2  0  0  0  0
  6 15  1  0  0  0  0
  8 16  1  0  0  0  0
  8 17  1  0  0  0  0
M  END
>  <Mol_ID>
9505

>  <Formula>
C4H8N2O3

>  <MolWeight>
132.11792

>  <Cat>
E4221

>  <Name>
DL-Asparagine

>  <Target>
Others

>  <Form>
free base

>  <CAS>
3130-87-8

>  <URL>
https://www.selleckchem.com/products/dl-asparagine.html

$$$$
