DL-Buthionine-Sulfoximine
 OpenBabel08302521383D

 32 31  0  0  0  0  0  0  0  0999 V2000
   -2.3421    2.7089   -2.4363 C   0  0  0  0  0  0  0  0  0  0  0  0
   -1.4155    1.4776   -2.4386 C   0  0  3  0  0  0  0  0  0  0  0  0
   -0.7620    1.2094   -1.0725 C   0  0  0  0  0  0  0  0  0  0  0  0
   -1.6504    1.0125    0.1588 C   0  0  0  0  0  0  0  0  0  0  0  0
   -2.1713    3.7052   -1.7559 O   0  0  0  0  0  0  0  0  0  0  0  0
   -3.3585    2.5734   -3.3234 O   0  0  0  0  0  0  0  0  0  0  0  0
   -3.5750   -0.3140    1.7342 C   0  0  0  0  0  0  0  0  0  0  0  0
   -4.3721    0.9743    1.9504 C   0  0  0  0  0  0  0  0  0  0  0  0
   -5.0820    1.0031    3.3053 C   0  0  0  0  0  0  0  0  0  0  0  0
   -2.7637   -0.3760    0.1272 S   0  0  3  0  0  0  0  0  0  0  0  0
   -3.7748   -0.0920   -0.8783 O   0  0  0  0  0  0  0  0  0  0  0  0
   -1.9051   -1.6511    0.0804 N   0  0  0  0  0  0  0  0  0  0  0  0
   -2.1374    0.3241   -3.0296 N   0  0  0  0  0  0  0  0  0  0  0  0
   -5.8576    2.2998    3.5068 C   0  0  0  0  0  0  0  0  0  0  0  0
   -0.6104    1.7191   -3.1444 H   0  0  0  0  0  0  0  0  0  0  0  0
   -0.0688    0.3656   -1.1665 H   0  0  0  0  0  0  0  0  0  0  0  0
   -0.1308    2.0834   -0.8493 H   0  0  0  0  0  0  0  0  0  0  0  0
   -1.0026    0.8622    1.0328 H   0  0  0  0  0  0  0  0  0  0  0  0
   -2.2400    1.9131    0.3342 H   0  0  0  0  0  0  0  0  0  0  0  0
   -3.2664    1.6716   -3.7272 H   0  0  0  0  0  0  0  0  0  0  0  0
   -4.2400   -1.1834    1.7786 H   0  0  0  0  0  0  0  0  0  0  0  0
   -2.7981   -0.4289    2.4965 H   0  0  0  0  0  0  0  0  0  0  0  0
   -3.7022    1.8385    1.8965 H   0  0  0  0  0  0  0  0  0  0  0  0
   -5.1092    1.0962    1.1476 H   0  0  0  0  0  0  0  0  0  0  0  0
   -5.7736    0.1571    3.3869 H   0  0  0  0  0  0  0  0  0  0  0  0
   -4.3450    0.9020    4.1101 H   0  0  0  0  0  0  0  0  0  0  0  0
   -2.4896   -2.4905   -0.0082 H   0  0  0  0  0  0  0  0  0  0  0  0
   -1.5585   -0.5126   -2.9055 H   0  0  0  0  0  0  0  0  0  0  0  0
   -2.9646    0.1121   -2.4413 H   0  0  0  0  0  0  0  0  0  0  0  0
   -6.6811    2.3801    2.7898 H   0  0  0  0  0  0  0  0  0  0  0  0
   -6.2839    2.3350    4.5147 H   0  0  0  0  0  0  0  0  0  0  0  0
   -5.2109    3.1750    3.3844 H   0  0  0  0  0  0  0  0  0  0  0  0
  1  2  1  0  0  0  0
  1  5  2  0  0  0  0
  1  6  1  0  0  0  0
  2  3  1  0  0  0  0
  2 13  1  0  0  0  0
  2 15  1  0  0  0  0
  3  4  1  0  0  0  0
  3 16  1  0  0  0  0
  3 17  1  0  0  0  0
  4 10  1  0  0  0  0
  4 18  1  0  0  0  0
  4 19  1  0  0  0  0
  6 20  1  0  0  0  0
  7  8  1  0  0  0  0
  7 10  1  0  0  0  0
  7 21  1  0  0  0  0
  7 22  1  0  0  0  0
  8  9  1  0  0  0  0
  8 23  1  0  0  0  0
  8 24  1  0  0  0  0
  9 14  1  0  0  0  0
  9 25  1  0  0  0  0
  9 26  1  0  0  0  0
 10 11  2  0  0  0  0
 10 12  2  0  0  0  0
 12 27  1  0  0  0  0
 13 28  1  0  0  0  0
 13 29  1  0  0  0  0
 14 30  1  0  0  0  0
 14 31  1  0  0  0  0
 14 32  1  0  0  0  0
M  END
>  <Mol_ID>
7937

>  <Formula>
C8H18N2O3S

>  <MolWeight>
222.30512

>  <Cat>
S2433

>  <Name>
DL-Buthionine-Sulfoximine

>  <Synonyms>
BSO, DL-Buthionine-(S,R)-sulfoximine

>  <Target>
Glutathione

>  <Form>
Free Base

>  <CAS>
5072-26-4

>  <URL>
http://www.selleckchem.com/products/dl-buthionine-sulfoximine.html

$$$$
