DL-Benzylsuccinic acid
 OpenBabel08302520393D

 27 27  0  0  0  0  0  0  0  0999 V2000
   -0.6691   -0.2182    1.7256 C   0  0  0  0  0  0  0  0  0  0  0  0
    0.2400   -1.0089    0.8009 C   0  0  3  0  0  0  0  0  0  0  0  0
    1.2024   -1.8821    1.6164 C   0  0  0  0  0  0  0  0  0  0  0  0
    0.4878   -2.8526    2.5117 C   0  0  0  0  0  0  0  0  0  0  0  0
   -0.4269    0.9358    2.0556 O   0  0  0  0  0  0  0  0  0  0  0  0
   -1.7353   -0.8800    2.2183 O   0  0  0  0  0  0  0  0  0  0  0  0
   -0.6502   -3.2663    2.3507 O   0  0  0  0  0  0  0  0  0  0  0  0
    1.2196   -3.2116    3.5781 O   0  0  0  0  0  0  0  0  0  0  0  0
   -0.5600   -1.7168   -0.3068 C   0  0  0  0  0  0  0  0  0  0  0  0
    0.2852   -2.4522   -1.3177 C   0  0  0  0  0  0  0  0  0  0  0  0
    0.1580   -3.8414   -1.4659 C   0  0  0  0  0  0  0  0  0  0  0  0
    0.9189   -4.5264   -2.4151 C   0  0  0  0  0  0  0  0  0  0  0  0
    1.8173   -3.8311   -3.2217 C   0  0  0  0  0  0  0  0  0  0  0  0
    1.9519   -2.4512   -3.0831 C   0  0  0  0  0  0  0  0  0  0  0  0
    1.1907   -1.7638   -2.1364 C   0  0  0  0  0  0  0  0  0  0  0  0
    0.8599   -0.2511    0.2998 H   0  0  0  0  0  0  0  0  0  0  0  0
    1.8858   -2.4413    0.9696 H   0  0  0  0  0  0  0  0  0  0  0  0
    1.8081   -1.2247    2.2531 H   0  0  0  0  0  0  0  0  0  0  0  0
   -1.7532   -1.8509    2.0490 H   0  0  0  0  0  0  0  0  0  0  0  0
    0.6376   -3.7819    4.1228 H   0  0  0  0  0  0  0  0  0  0  0  0
   -1.2971   -2.4108    0.1106 H   0  0  0  0  0  0  0  0  0  0  0  0
   -1.1609   -0.9740   -0.8492 H   0  0  0  0  0  0  0  0  0  0  0  0
   -0.5423   -4.4025   -0.8492 H   0  0  0  0  0  0  0  0  0  0  0  0
    0.8046   -5.6010   -2.5290 H   0  0  0  0  0  0  0  0  0  0  0  0
    2.4043   -4.3647   -3.9648 H   0  0  0  0  0  0  0  0  0  0  0  0
    2.6495   -1.9087   -3.7169 H   0  0  0  0  0  0  0  0  0  0  0  0
    1.3029   -0.6861   -2.0556 H   0  0  0  0  0  0  0  0  0  0  0  0
  1  2  1  0  0  0  0
  1  5  2  0  0  0  0
  1  6  1  0  0  0  0
  2  3  1  0  0  0  0
  2  9  1  0  0  0  0
  2 16  1  0  0  0  0
  3  4  1  0  0  0  0
  3 17  1  0  0  0  0
  3 18  1  0  0  0  0
  4  7  2  0  0  0  0
  4  8  1  0  0  0  0
  6 19  1  0  0  0  0
  8 20  1  0  0  0  0
  9 10  1  0  0  0  0
  9 21  1  0  0  0  0
  9 22  1  0  0  0  0
 10 11  2  0  0  0  0
 10 15  1  0  0  0  0
 11 12  1  0  0  0  0
 11 23  1  0  0  0  0
 12 13  2  0  0  0  0
 12 24  1  0  0  0  0
 13 14  1  0  0  0  0
 13 25  1  0  0  0  0
 14 15  2  0  0  0  0
 14 26  1  0  0  0  0
 15 27  1  0  0  0  0
M  END
>  <Mol_ID>
3577

>  <Formula>
C11H12O4

>  <MolWeight>
208.21058

>  <Cat>
S6123

>  <Name>
DL-Benzylsuccinic acid

>  <Synonyms>
2-benzylbutanedioic acid, Benzylsuccinic acid

>  <Target>
Others

>  <Form>
free base

>  <CAS>
884-33-3

>  <URL>
http://www.selleck.cn/products/dl-benzylsuccinic-acid.html

$$$$
