DL-Carnitine
 OpenBabel08302521303D

 26 25  0  0  0  0  0  0  0  0999 V2000
    1.0257    2.5362    0.0845 O   0  0  0  0  0  0  0  0  0  0  0  0
   -0.6834    1.7490   -1.6403 O   0  5  0  0  0  0  0  0  0  0  0  0
   -2.4177    0.4006   -0.9866 O   0  0  0  0  0  0  0  0  0  0  0  0
    2.6518    1.1805    2.2756 N   0  3  0  0  0  0  0  0  0  0  0  0
    1.0976    1.2217    2.1114 C   0  0  0  0  0  0  0  0  0  0  0  0
    0.5998    1.2933    0.6574 C   0  0  3  0  0  0  0  0  0  0  0  0
    3.3019    2.4211    1.6652 C   0  0  0  0  0  0  0  0  0  0  0  0
    2.9523    1.1572    3.7658 C   0  0  0  0  0  0  0  0  0  0  0  0
    3.2290   -0.0617    1.6241 C   0  0  0  0  0  0  0  0  0  0  0  0
   -0.9233    1.2106    0.6335 C   0  0  0  0  0  0  0  0  0  0  0  0
   -1.3992    1.1142   -0.8143 C   0  0  0  0  0  0  0  0  0  0  0  0
    0.5440    2.5613   -0.7902 H   0  0  0  0  0  0  0  0  0  0  0  0
    0.7650    2.1055    2.6698 H   0  0  0  0  0  0  0  0  0  0  0  0
    0.7163    0.3225    2.6093 H   0  0  0  0  0  0  0  0  0  0  0  0
    1.0270    0.4801    0.0624 H   0  0  0  0  0  0  0  0  0  0  0  0
    2.7174    3.3029    1.9441 H   0  0  0  0  0  0  0  0  0  0  0  0
    4.3162    2.5057    2.0662 H   0  0  0  0  0  0  0  0  0  0  0  0
    3.3672    2.3014    0.5796 H   0  0  0  0  0  0  0  0  0  0  0  0
    2.4822    0.2723    4.2025 H   0  0  0  0  0  0  0  0  0  0  0  0
    4.0377    1.1175    3.9041 H   0  0  0  0  0  0  0  0  0  0  0  0
    2.5488    2.0699    4.2155 H   0  0  0  0  0  0  0  0  0  0  0  0
    2.6747   -0.9333    1.9845 H   0  0  0  0  0  0  0  0  0  0  0  0
    3.1452    0.0257    0.5377 H   0  0  0  0  0  0  0  0  0  0  0  0
    4.2835   -0.1408    1.9059 H   0  0  0  0  0  0  0  0  0  0  0  0
   -1.2697    0.3236    1.1820 H   0  0  0  0  0  0  0  0  0  0  0  0
   -1.3841    2.0976    1.0801 H   0  0  0  0  0  0  0  0  0  0  0  0
  1  6  1  0  0  0  0
  1 12  1  0  0  0  0
  2 11  1  0  0  0  0
  3 11  2  0  0  0  0
  4  5  1  0  0  0  0
  4  7  1  0  0  0  0
  4  8  1  0  0  0  0
  4  9  1  0  0  0  0
  5  6  1  0  0  0  0
  5 13  1  0  0  0  0
  5 14  1  0  0  0  0
  6 10  1  0  0  0  0
  6 15  1  0  0  0  0
  7 16  1  0  0  0  0
  7 17  1  0  0  0  0
  7 18  1  0  0  0  0
  8 19  1  0  0  0  0
  8 20  1  0  0  0  0
  8 21  1  0  0  0  0
  9 22  1  0  0  0  0
  9 23  1  0  0  0  0
  9 24  1  0  0  0  0
 10 11  1  0  0  0  0
 10 25  1  0  0  0  0
 10 26  1  0  0  0  0
M  CHG  2   2  -1   4   1
M  END
>  <Mol_ID>
5624

>  <Formula>
C7H15NO3

>  <MolWeight>
161.1989

>  <Cat>
S5937

>  <Name>
DL-Carnitine

>  <Synonyms>
(¡À)-Carnitin

>  <Target>
Others

>  <Form>
Free Base

>  <CAS>
461-06-3, 406-76-8

>  <URL>
http://www.selleckchem.com/products/dl-carnitine.html

$$$$
