DL-Carnitine hydrochloride.cdx
 OpenBabel08302521363D

 27 26  0  0  0  0  0  0  0  0999 V2000
   -2.9072   -2.1395    1.1000 O   0  0  0  0  0  0  0  0  0  0  0  0
   -1.5745   -1.9950    1.1952 C   0  0  0  0  0  0  0  0  0  0  0  0
   -0.8271   -3.2990    1.3124 C   0  0  0  0  0  0  0  0  0  0  0  0
    0.6784   -3.0311    1.4891 C   0  0  3  0  0  0  0  0  0  0  0  0
    0.8782   -2.3366    2.7240 O   0  0  0  0  0  0  0  0  0  0  0  0
   -1.0215   -0.9057    1.2107 O   0  0  0  0  0  0  0  0  0  0  0  0
    1.4563   -4.3665    1.5305 C   0  0  0  0  0  0  0  0  0  0  0  0
    3.0045   -4.2312    1.6001 N   0  3  0  0  0  0  0  0  0  0  0  0
    3.4511   -3.4406    2.8310 C   0  0  0  0  0  0  0  0  0  0  0  0
    3.5872   -5.6386    1.7139 C   0  0  0  0  0  0  0  0  0  0  0  0
    3.5652   -3.5691    0.3513 C   0  0  0  0  0  0  0  0  0  0  0  0
   -3.2518   -3.0519    1.1409 H   0  0  0  0  0  0  0  0  0  0  0  0
   -1.2189   -3.8367    2.1837 H   0  0  0  0  0  0  0  0  0  0  0  0
   -1.0059   -3.8825    0.4012 H   0  0  0  0  0  0  0  0  0  0  0  0
    1.0508   -2.3998    0.6744 H   0  0  0  0  0  0  0  0  0  0  0  0
    0.4685   -1.4483    2.6212 H   0  0  0  0  0  0  0  0  0  0  0  0
    1.1667   -4.9387    2.4210 H   0  0  0  0  0  0  0  0  0  0  0  0
    1.2412   -4.9656    0.6373 H   0  0  0  0  0  0  0  0  0  0  0  0
    2.9592   -3.8611    3.7124 H   0  0  0  0  0  0  0  0  0  0  0  0
    4.5375   -3.5367    2.9204 H   0  0  0  0  0  0  0  0  0  0  0  0
    3.2071   -2.3858    2.6906 H   0  0  0  0  0  0  0  0  0  0  0  0
    3.2978   -6.2061    0.8262 H   0  0  0  0  0  0  0  0  0  0  0  0
    4.6783   -5.5668    1.7806 H   0  0  0  0  0  0  0  0  0  0  0  0
    3.1845   -6.1094    2.6162 H   0  0  0  0  0  0  0  0  0  0  0  0
    3.1337   -4.0603   -0.5257 H   0  0  0  0  0  0  0  0  0  0  0  0
    3.3077   -2.5072    0.3650 H   0  0  0  0  0  0  0  0  0  0  0  0
    4.6534   -3.6873    0.3554 H   0  0  0  0  0  0  0  0  0  0  0  0
  1  2  1  0  0  0  0
  1 12  1  0  0  0  0
  2  3  1  0  0  0  0
  2  6  2  0  0  0  0
  3  4  1  0  0  0  0
  3 13  1  0  0  0  0
  3 14  1  0  0  0  0
  4  5  1  0  0  0  0
  4  7  1  0  0  0  0
  4 15  1  0  0  0  0
  5 16  1  0  0  0  0
  7  8  1  0  0  0  0
  7 17  1  0  0  0  0
  7 18  1  0  0  0  0
  8  9  1  0  0  0  0
  8 10  1  0  0  0  0
  8 11  1  0  0  0  0
  9 19  1  0  0  0  0
  9 20  1  0  0  0  0
  9 21  1  0  0  0  0
 10 22  1  0  0  0  0
 10 23  1  0  0  0  0
 10 24  1  0  0  0  0
 11 25  1  0  0  0  0
 11 26  1  0  0  0  0
 11 27  1  0  0  0  0
M  CHG  1   8   1
M  END
>  <Mol_ID>
679

>  <Formula>
C7H16ClNO3

>  <MolWeight>
197.65984

>  <Cat>
S2293

>  <Name>
DL-Carnitine HCl

>  <Synonyms>
N/A

>  <Target>
Others

>  <Form>
Hydrochloride

>  <CAS>
461-05-2

>  <URL>
http://selleckchem.com/products/DL-Carnitine-hydrochloride.html

$$$$
