DL-Glutamic acid
 OpenBabel08302521453D

 19 18  0  0  0  0  0  0  0  0999 V2000
    0.9513   -0.0887   -0.0922 C   0  0  3  0  0  0  0  0  0  0  0  0
    0.3448    0.8097    0.9892 C   0  0  0  0  0  0  0  0  0  0  0  0
    0.1695   -1.4123   -0.1845 C   0  0  0  0  0  0  0  0  0  0  0  0
    2.3844   -0.4063    0.1766 N   0  0  0  0  0  0  0  0  0  0  0  0
    1.0115    2.1807    1.0658 C   0  0  0  0  0  0  0  0  0  0  0  0
    1.0039   -2.4826   -0.1443 O   0  0  0  0  0  0  0  0  0  0  0  0
   -1.0421   -1.5042   -0.3003 O   0  0  0  0  0  0  0  0  0  0  0  0
    0.4221    2.9907    2.1896 C   0  0  0  0  0  0  0  0  0  0  0  0
   -0.6184    3.7637    1.8157 O   0  0  0  0  0  0  0  0  0  0  0  0
    0.8230    2.9331    3.3417 O   0  0  0  0  0  0  0  0  0  0  0  0
    0.8856    0.3825   -1.0798 H   0  0  0  0  0  0  0  0  0  0  0  0
   -0.7274    0.9469    0.7942 H   0  0  0  0  0  0  0  0  0  0  0  0
    0.4001    0.3111    1.9661 H   0  0  0  0  0  0  0  0  0  0  0  0
    2.9574    0.3666   -0.1748 H   0  0  0  0  0  0  0  0  0  0  0  0
    2.5417   -0.3963    1.1913 H   0  0  0  0  0  0  0  0  0  0  0  0
    2.0859    2.0928    1.2656 H   0  0  0  0  0  0  0  0  0  0  0  0
    0.9166    2.7259    0.1214 H   0  0  0  0  0  0  0  0  0  0  0  0
    1.9169   -2.1048   -0.0718 H   0  0  0  0  0  0  0  0  0  0  0  0
   -0.8584    3.7016    0.8722 H   0  0  0  0  0  0  0  0  0  0  0  0
  1  2  1  0  0  0  0
  1  3  1  0  0  0  0
  1  4  1  0  0  0  0
  1 11  1  0  0  0  0
  2  5  1  0  0  0  0
  2 12  1  0  0  0  0
  2 13  1  0  0  0  0
  3  6  1  0  0  0  0
  3  7  2  0  0  0  0
  4 14  1  0  0  0  0
  4 15  1  0  0  0  0
  5  8  1  0  0  0  0
  5 16  1  0  0  0  0
  5 17  1  0  0  0  0
  6 18  1  0  0  0  0
  8  9  1  0  0  0  0
  8 10  2  0  0  0  0
  9 19  1  0  0  0  0
M  END
>  <Mol_ID>
9507

>  <Formula>
C5H9NO4

>  <MolWeight>
147.12926

>  <Cat>
E4243

>  <Name>
DL-Glutamic acid

>  <Target>
Others

>  <Form>
free base

>  <CAS>
617-65-2

>  <URL>
https://www.selleckchem.com/products/dl-glutamic-acid.html

$$$$
