DL-Glyceraldehyde
 OpenBabel08302521373D

 12 11  0  0  0  0  0  0  0  0999 V2000
    0.9760   -0.0071   -0.1192 C   0  0  3  0  0  0  0  0  0  0  0  0
    0.5129    0.9362    0.9959 C   0  0  0  0  0  0  0  0  0  0  0  0
    0.4458    0.4839   -1.4536 C   0  0  0  0  0  0  0  0  0  0  0  0
    0.5750   -1.3428    0.1520 O   0  0  0  0  0  0  0  0  0  0  0  0
   -0.9077    0.9283    1.1469 O   0  0  0  0  0  0  0  0  0  0  0  0
   -0.4239   -0.0930   -2.1012 O   0  0  0  0  0  0  0  0  0  0  0  0
    2.0695    0.0022   -0.1777 H   0  0  0  0  0  0  0  0  0  0  0  0
    0.9288    0.6049    1.9530 H   0  0  0  0  0  0  0  0  0  0  0  0
    0.8363    1.9659    0.8157 H   0  0  0  0  0  0  0  0  0  0  0  0
    0.8717    1.4376   -1.8107 H   0  0  0  0  0  0  0  0  0  0  0  0
   -0.3901   -1.3726   -0.0049 H   0  0  0  0  0  0  0  0  0  0  0  0
   -1.3100    1.4215    0.4141 H   0  0  0  0  0  0  0  0  0  0  0  0
  1  2  1  0  0  0  0
  1  3  1  0  0  0  0
  1  4  1  0  0  0  0
  1  7  1  0  0  0  0
  2  5  1  0  0  0  0
  2  8  1  0  0  0  0
  2  9  1  0  0  0  0
  3  6  2  0  0  0  0
  3 10  1  0  0  0  0
  4 11  1  0  0  0  0
  5 12  1  0  0  0  0
M  END
>  <Mol_ID>
7442

>  <Formula>
C3H6O3

>  <MolWeight>
90.07794

>  <Cat>
E4544

>  <Name>
DL-Glyceraldehyde

>  <Synonyms>
DL-Glyceraldehyde

>  <Target>
Reductase

>  <Form>
Free base

>  <CAS>
56-82-6

>  <URL>
https://www.selleckchem.com/products/dl-glyceraldehyde.html

$$$$
