DL-Homocysteine
 OpenBabel08302521383D

 17 16  0  0  0  0  0  0  0  0999 V2000
   -1.3820    1.2905    0.6563 S   0  0  0  0  0  0  0  0  0  0  0  0
    3.1531    2.9876    4.0005 O   0  0  0  0  0  0  0  0  0  0  0  0
    2.9506    0.7577    4.3986 O   0  0  0  0  0  0  0  0  0  0  0  0
    3.0506    2.8168    1.4566 N   0  0  0  0  0  0  0  0  0  0  0  0
    2.4924    1.6218    2.1523 C   0  0  3  0  0  0  0  0  0  0  0  0
    0.9611    1.5643    2.0785 C   0  0  0  0  0  0  0  0  0  0  0  0
    0.4322    1.3870    0.6613 C   0  0  0  0  0  0  0  0  0  0  0  0
    2.8932    1.7053    3.6324 C   0  0  0  0  0  0  0  0  0  0  0  0
   -1.4859    0.1396    1.3375 H   0  0  0  0  0  0  0  0  0  0  0  0
    3.0331    3.5413    3.1899 H   0  0  0  0  0  0  0  0  0  0  0  0
    4.0751    2.7342    1.4656 H   0  0  0  0  0  0  0  0  0  0  0  0
    2.8146    2.7610    0.4626 H   0  0  0  0  0  0  0  0  0  0  0  0
    2.9504    0.7243    1.7234 H   0  0  0  0  0  0  0  0  0  0  0  0
    0.5419    2.4754    2.5281 H   0  0  0  0  0  0  0  0  0  0  0  0
    0.6160    0.7299    2.7062 H   0  0  0  0  0  0  0  0  0  0  0  0
    0.8304    0.4726    0.2105 H   0  0  0  0  0  0  0  0  0  0  0  0
    0.7154    2.2318    0.0275 H   0  0  0  0  0  0  0  0  0  0  0  0
  1  7  1  0  0  0  0
  1  9  1  0  0  0  0
  2  8  1  0  0  0  0
  2 10  1  0  0  0  0
  3  8  2  0  0  0  0
  4  5  1  0  0  0  0
  4 11  1  0  0  0  0
  4 12  1  0  0  0  0
  5  6  1  0  0  0  0
  5  8  1  0  0  0  0
  5 13  1  0  0  0  0
  6  7  1  0  0  0  0
  6 14  1  0  0  0  0
  6 15  1  0  0  0  0
  7 16  1  0  0  0  0
  7 17  1  0  0  0  0
M  END
>  <Mol_ID>
7955

>  <Formula>
C4H9NO2S

>  <MolWeight>
135.18476

>  <Cat>
S2994

>  <Name>
DL-Homocysteine

>  <Synonyms>
N/A

>  <Target>
Transferase

>  <Form>
Free Base

>  <CAS>
454-29-5

>  <URL>
https://www.selleckchem.com/products/dl-homocysteine.html

$$$$
