DL-Homocysteine thiolactone (hydrochloride)
 OpenBabel08302521363D

 14 14  0  0  0  0  0  0  0  0999 V2000
    1.1934   -0.0543   -0.1776 N   0  0  0  0  0  0  0  0  0  0  0  0
   -1.0584   -0.5375    1.5860 O   0  0  0  0  0  0  0  0  0  0  0  0
    0.4051   -1.2944   -0.2274 C   0  0  3  0  0  0  0  0  0  0  0  0
   -0.5119   -1.4469    0.9829 C   0  0  0  0  0  0  0  0  0  0  0  0
    1.2954   -2.5306   -0.1971 C   0  0  0  0  0  0  0  0  0  0  0  0
   -0.7111   -3.1470    1.4017 S   0  0  0  0  0  0  0  0  0  0  0  0
    0.3905   -3.7177    0.0756 C   0  0  0  0  0  0  0  0  0  0  0  0
    0.5855    0.6918    0.1788 H   0  0  0  0  0  0  0  0  0  0  0  0
    1.9379   -0.1356    0.5168 H   0  0  0  0  0  0  0  0  0  0  0  0
   -0.2260   -1.2860   -1.1247 H   0  0  0  0  0  0  0  0  0  0  0  0
    1.8390   -2.6570   -1.1414 H   0  0  0  0  0  0  0  0  0  0  0  0
    2.0504   -2.4536    0.5992 H   0  0  0  0  0  0  0  0  0  0  0  0
    0.9565   -4.5974    0.3920 H   0  0  0  0  0  0  0  0  0  0  0  0
   -0.2053   -3.9733   -0.8064 H   0  0  0  0  0  0  0  0  0  0  0  0
  1  3  1  0  0  0  0
  1  8  1  0  0  0  0
  1  9  1  0  0  0  0
  2  4  2  0  0  0  0
  3  4  1  0  0  0  0
  3  5  1  0  0  0  0
  3 10  1  0  0  0  0
  4  6  1  0  0  0  0
  5  7  1  0  0  0  0
  5 11  1  0  0  0  0
  5 12  1  0  0  0  0
  6  7  1  0  0  0  0
  7 13  1  0  0  0  0
  7 14  1  0  0  0  0
M  END
>  <Mol_ID>
7038

>  <Formula>
C4H8ClNOS

>  <MolWeight>
153.63042

>  <Cat>
E4043

>  <Name>
DL-Homocysteine thiolactone (hydrochloride)

>  <Synonyms>
DL-Homocysteinethiolactone Hydrochloride

>  <Target>
Others

>  <Form>
hydrochloride salt

>  <CAS>
6038-19-3

>  <URL>
https://www.selleckchem.com/products/dl-homocysteine-thiolactone-hydrochloride.html

$$$$
