DL-Leucine
 OpenBabel08302521453D

 22 21  0  0  0  0  0  0  0  0999 V2000
    1.0053   -0.2013    0.0302 C   0  0  3  0  0  0  0  0  0  0  0  0
    0.3962    0.2890   -1.2896 C   0  0  0  0  0  0  0  0  0  0  0  0
    0.3620    0.5453    1.2181 C   0  0  0  0  0  0  0  0  0  0  0  0
    2.4826    0.0241    0.0812 N   0  0  0  0  0  0  0  0  0  0  0  0
    0.9286   -0.4028   -2.5604 C   0  0  0  0  0  0  0  0  0  0  0  0
    1.3100    1.0323    2.0604 O   0  0  0  0  0  0  0  0  0  0  0  0
   -0.8353    0.6770    1.4059 O   0  0  0  0  0  0  0  0  0  0  0  0
    0.6653   -1.9092   -2.5488 C   0  0  0  0  0  0  0  0  0  0  0  0
    0.2892    0.2308   -3.7989 C   0  0  0  0  0  0  0  0  0  0  0  0
    0.8138   -1.2664    0.1976 H   0  0  0  0  0  0  0  0  0  0  0  0
   -0.6943    0.1626   -1.2458 H   0  0  0  0  0  0  0  0  0  0  0  0
    0.5602    1.3723   -1.3776 H   0  0  0  0  0  0  0  0  0  0  0  0
    2.9263   -0.7309   -0.4507 H   0  0  0  0  0  0  0  0  0  0  0  0
    2.6967    0.8670   -0.4631 H   0  0  0  0  0  0  0  0  0  0  0  0
    2.0111   -0.2437   -2.6368 H   0  0  0  0  0  0  0  0  0  0  0  0
    2.1761    0.7539    1.6679 H   0  0  0  0  0  0  0  0  0  0  0  0
   -0.3728   -2.1304   -2.2784 H   0  0  0  0  0  0  0  0  0  0  0  0
    0.8593   -2.3512   -3.5319 H   0  0  0  0  0  0  0  0  0  0  0  0
    1.3189   -2.4144   -1.8306 H   0  0  0  0  0  0  0  0  0  0  0  0
    0.5112    1.3024   -3.8446 H   0  0  0  0  0  0  0  0  0  0  0  0
    0.6779   -0.2269   -4.7149 H   0  0  0  0  0  0  0  0  0  0  0  0
   -0.7991    0.1081   -3.7933 H   0  0  0  0  0  0  0  0  0  0  0  0
  1  2  1  0  0  0  0
  1  3  1  0  0  0  0
  1  4  1  0  0  0  0
  1 10  1  0  0  0  0
  2  5  1  0  0  0  0
  2 11  1  0  0  0  0
  2 12  1  0  0  0  0
  3  6  1  0  0  0  0
  3  7  2  0  0  0  0
  4 13  1  0  0  0  0
  4 14  1  0  0  0  0
  5  8  1  0  0  0  0
  5  9  1  0  0  0  0
  5 15  1  0  0  0  0
  6 16  1  0  0  0  0
  8 17  1  0  0  0  0
  8 18  1  0  0  0  0
  8 19  1  0  0  0  0
  9 20  1  0  0  0  0
  9 21  1  0  0  0  0
  9 22  1  0  0  0  0
M  END
>  <Mol_ID>
9519

>  <Formula>
C6H13NO2

>  <MolWeight>
131.17292

>  <Cat>
E4341

>  <Name>
DL-Leucine

>  <Synonyms>
DL-Leucine

>  <Target>
Others

>  <Form>
free base

>  <CAS>
328-39-2

>  <URL>
https://www.selleckchem.com/products/dl-leucine.html

$$$$
