DL-Lysine
 OpenBabel08302521453D

 24 23  0  0  0  0  0  0  0  0999 V2000
    1.1066   -0.0079    0.0427 C   0  0  3  0  0  0  0  0  0  0  0  0
    0.5784   -0.0371   -1.3972 C   0  0  0  0  0  0  0  0  0  0  0  0
    0.4970    1.1731    0.8211 C   0  0  0  0  0  0  0  0  0  0  0  0
    2.5969    0.1250    0.0902 N   0  0  0  0  0  0  0  0  0  0  0  0
    1.1072   -1.2308   -2.1988 C   0  0  0  0  0  0  0  0  0  0  0  0
    1.4612    1.8817    1.4677 O   0  0  0  0  0  0  0  0  0  0  0  0
   -0.6918    1.4470    0.8807 O   0  0  0  0  0  0  0  0  0  0  0  0
    0.5832   -1.2261   -3.6378 C   0  0  0  0  0  0  0  0  0  0  0  0
    1.1020   -2.4084   -4.4613 C   0  0  0  0  0  0  0  0  0  0  0  0
    2.5563   -2.3902   -4.5783 N   0  0  0  0  0  0  0  0  0  0  0  0
    0.8292   -0.9194    0.5840 H   0  0  0  0  0  0  0  0  0  0  0  0
   -0.5189   -0.0738   -1.3805 H   0  0  0  0  0  0  0  0  0  0  0  0
    0.8413    0.8988   -1.9087 H   0  0  0  0  0  0  0  0  0  0  0  0
    2.9905   -0.8061   -0.0844 H   0  0  0  0  0  0  0  0  0  0  0  0
    2.8944    0.6662   -0.7299 H   0  0  0  0  0  0  0  0  0  0  0  0
    2.2018   -1.2061   -2.2139 H   0  0  0  0  0  0  0  0  0  0  0  0
    0.8106   -2.1632   -1.7032 H   0  0  0  0  0  0  0  0  0  0  0  0
    2.3100    1.4155    1.2540 H   0  0  0  0  0  0  0  0  0  0  0  0
   -0.5129   -1.2636   -3.6258 H   0  0  0  0  0  0  0  0  0  0  0  0
    0.8619   -0.2856   -4.1301 H   0  0  0  0  0  0  0  0  0  0  0  0
    0.7906   -3.3508   -3.9975 H   0  0  0  0  0  0  0  0  0  0  0  0
    0.6617   -2.3736   -5.4633 H   0  0  0  0  0  0  0  0  0  0  0  0
    2.8533   -3.1582   -5.1804 H   0  0  0  0  0  0  0  0  0  0  0  0
    2.8511   -1.5353   -5.0471 H   0  0  0  0  0  0  0  0  0  0  0  0
  1  2  1  0  0  0  0
  1  3  1  0  0  0  0
  1  4  1  0  0  0  0
  1 11  1  0  0  0  0
  2  5  1  0  0  0  0
  2 12  1  0  0  0  0
  2 13  1  0  0  0  0
  3  6  1  0  0  0  0
  3  7  2  0  0  0  0
  4 14  1  0  0  0  0
  4 15  1  0  0  0  0
  5  8  1  0  0  0  0
  5 16  1  0  0  0  0
  5 17  1  0  0  0  0
  6 18  1  0  0  0  0
  8  9  1  0  0  0  0
  8 19  1  0  0  0  0
  8 20  1  0  0  0  0
  9 10  1  0  0  0  0
  9 21  1  0  0  0  0
  9 22  1  0  0  0  0
 10 23  1  0  0  0  0
 10 24  1  0  0  0  0
M  END
>  <Mol_ID>
9489

>  <Formula>
C6H14N2O2

>  <MolWeight>
146.18756

>  <Cat>
E4104

>  <Name>
DL-Lysine

>  <Synonyms>
(¡À)-2,6-Diaminocaproic acid

>  <Target>
Others

>  <Form>
free base

>  <CAS>
70-54-2

>  <URL>
https://www.selleckchem.com/products/dl-lysine.html

$$$$
