DL-m-Tyrosine
 OpenBabel08302521383D

 24 24  0  0  0  0  0  0  0  0999 V2000
    3.6105    0.6918   -0.7435 C   0  0  3  0  0  0  0  0  0  0  0  0
    4.7351   -0.2721   -1.1577 C   0  0  0  0  0  0  0  0  0  0  0  0
    2.9641    1.2510   -1.9590 N   0  0  0  0  0  0  0  0  0  0  0  0
    5.7282   -0.3917   -0.2452 O   0  0  0  0  0  0  0  0  0  0  0  0
    4.7585   -0.8730   -2.2231 O   0  0  0  0  0  0  0  0  0  0  0  0
    3.0516   -0.4990    1.4551 C   0  0  0  0  0  0  0  0  0  0  0  0
    2.5573   -0.0403    0.1009 C   0  0  0  0  0  0  0  0  0  0  0  0
    3.0208   -1.8631    1.7922 C   0  0  0  0  0  0  0  0  0  0  0  0
    3.5139    0.4277    2.4024 C   0  0  0  0  0  0  0  0  0  0  0  0
    3.4394   -2.2745    3.0537 C   0  0  0  0  0  0  0  0  0  0  0  0
    3.9496   -0.0028    3.6568 C   0  0  0  0  0  0  0  0  0  0  0  0
    3.9068   -1.3563    3.9840 C   0  0  0  0  0  0  0  0  0  0  0  0
    3.3958   -3.5865    3.4233 O   0  0  0  0  0  0  0  0  0  0  0  0
    4.0537    1.5365   -0.2060 H   0  0  0  0  0  0  0  0  0  0  0  0
    3.6962    1.6286   -2.5672 H   0  0  0  0  0  0  0  0  0  0  0  0
    2.5890    0.4675   -2.5033 H   0  0  0  0  0  0  0  0  0  0  0  0
    5.5728    0.0934    0.5897 H   0  0  0  0  0  0  0  0  0  0  0  0
    1.6940    0.6164    0.2743 H   0  0  0  0  0  0  0  0  0  0  0  0
    2.1732   -0.9039   -0.4593 H   0  0  0  0  0  0  0  0  0  0  0  0
    2.6610   -2.5905    1.0698 H   0  0  0  0  0  0  0  0  0  0  0  0
    3.5223    1.4929    2.1817 H   0  0  0  0  0  0  0  0  0  0  0  0
    4.3053    0.7177    4.3898 H   0  0  0  0  0  0  0  0  0  0  0  0
    4.2223   -1.6943    4.9672 H   0  0  0  0  0  0  0  0  0  0  0  0
    3.0081   -4.1041    2.6978 H   0  0  0  0  0  0  0  0  0  0  0  0
  1  2  1  0  0  0  0
  1  3  1  0  0  0  0
  1 14  1  0  0  0  0
  2  4  1  0  0  0  0
  2  5  2  0  0  0  0
  3 15  1  0  0  0  0
  3 16  1  0  0  0  0
  4 17  1  0  0  0  0
  6  7  1  0  0  0  0
  6  8  2  0  0  0  0
  6  9  1  0  0  0  0
  7  1  1  0  0  0  0
  7 18  1  0  0  0  0
  7 19  1  0  0  0  0
  8 10  1  0  0  0  0
  8 20  1  0  0  0  0
  9 11  2  0  0  0  0
  9 21  1  0  0  0  0
 10 12  2  0  0  0  0
 10 13  1  0  0  0  0
 11 12  1  0  0  0  0
 11 22  1  0  0  0  0
 12 23  1  0  0  0  0
 13 24  1  0  0  0  0
M  END
>  <Mol_ID>
7894

>  <Formula>
C9H11NO3

>  <MolWeight>
181.18854

>  <Cat>
S6061

>  <Name>
DL-m-Tyrosine

>  <Synonyms>
N/A

>  <Target>
Others

>  <Form>
free base

>  <CAS>
775-06-4

>  <URL>
http://www.selleck.cn/products/dl-m-tyrosine.html

$$$$
