DL-Mevalonic Acid Lactone
 OpenBabel08302520323D

 19 19  0  0  0  0  0  0  0  0999 V2000
    0.7267    1.2199   -0.2102 C   0  0  0  0  0  0  0  0  0  0  0  0
    1.4552   -0.0359    0.2183 C   0  0  0  0  0  0  0  0  0  0  0  0
    0.7178   -1.2489    0.0040 O   0  0  0  0  0  0  0  0  0  0  0  0
   -0.6271   -1.2946    0.1468 C   0  0  0  0  0  0  0  0  0  0  0  0
   -1.3868   -0.0514   -0.2151 C   0  0  0  0  0  0  0  0  0  0  0  0
   -0.7112    1.2140    0.2919 C   0  0  1  0  0  0  0  0  0  0  0  0
   -1.2001   -2.3368    0.4460 O   0  0  0  0  0  0  0  0  0  0  0  0
   -0.8135    1.3385    1.8146 C   0  0  0  0  0  0  0  0  0  0  0  0
   -1.3870    2.3354   -0.2858 O   0  0  0  0  0  0  0  0  0  0  0  0
    1.2647    2.1132    0.1293 H   0  0  0  0  0  0  0  0  0  0  0  0
    0.7204    1.2780   -1.3076 H   0  0  0  0  0  0  0  0  0  0  0  0
    2.3926   -0.1251   -0.3405 H   0  0  0  0  0  0  0  0  0  0  0  0
    1.7229    0.0028    1.2798 H   0  0  0  0  0  0  0  0  0  0  0  0
   -1.4915   -0.0282   -1.3071 H   0  0  0  0  0  0  0  0  0  0  0  0
   -2.4051   -0.1190    0.1874 H   0  0  0  0  0  0  0  0  0  0  0  0
   -0.3339    2.2605    2.1615 H   0  0  0  0  0  0  0  0  0  0  0  0
   -1.8627    1.3998    2.1253 H   0  0  0  0  0  0  0  0  0  0  0  0
   -0.3541    0.4954    2.3389 H   0  0  0  0  0  0  0  0  0  0  0  0
   -0.9957    3.1521    0.0725 H   0  0  0  0  0  0  0  0  0  0  0  0
  1  2  1  0  0  0  0
  1 10  1  0  0  0  0
  1 11  1  0  0  0  0
  2  3  1  0  0  0  0
  2 12  1  0  0  0  0
  2 13  1  0  0  0  0
  3  4  1  0  0  0  0
  4  5  1  0  0  0  0
  4  7  2  0  0  0  0
  5  6  1  0  0  0  0
  5 14  1  0  0  0  0
  5 15  1  0  0  0  0
  6  1  1  0  0  0  0
  6  8  1  0  0  0  0
  6  9  1  6  0  0  0
  8 16  1  0  0  0  0
  8 17  1  0  0  0  0
  8 18  1  0  0  0  0
  9 19  1  0  0  0  0
M  END
>  <Mol_ID>
3331

>  <Formula>
C6H10O3

>  <MolWeight>
130.1418

>  <Cat>
S4412

>  <Name>
DL-Mevalonic Acid Lactone

>  <Synonyms>
DL-Mevalolactone, (¡À)-Mevalonolactone

>  <Target>
Others

>  <Form>
Free Base

>  <CAS>
674-26-0

>  <URL>
http://www.selleckchem.com/products/dl-mevalonic-acid-Lactone.html

$$$$
