DL-Norvaline
 OpenBabel08302521383D

 19 18  0  0  0  0  0  0  0  0999 V2000
    1.0746   -0.0372   -0.1505 C   0  0  3  0  0  0  0  0  0  0  0  0
    0.4696   -0.0852    1.2560 C   0  0  0  0  0  0  0  0  0  0  0  0
    0.4025   -1.0966   -1.0479 C   0  0  0  0  0  0  0  0  0  0  0  0
    2.5461   -0.3013   -0.1313 N   0  0  0  0  0  0  0  0  0  0  0  0
    1.0236    0.9437    2.2481 C   0  0  0  0  0  0  0  0  0  0  0  0
    1.3316   -1.8631   -1.6801 O   0  0  0  0  0  0  0  0  0  0  0  0
   -0.7992   -1.2402   -1.1967 O   0  0  0  0  0  0  0  0  0  0  0  0
    0.8125    2.3847    1.8098 C   0  0  0  0  0  0  0  0  0  0  0  0
    0.9062    0.9313   -0.6351 H   0  0  0  0  0  0  0  0  0  0  0  0
   -0.6192    0.0494    1.1862 H   0  0  0  0  0  0  0  0  0  0  0  0
    0.6143   -1.0871    1.6825 H   0  0  0  0  0  0  0  0  0  0  0  0
    3.0110    0.5712    0.1383 H   0  0  0  0  0  0  0  0  0  0  0  0
    2.7484   -0.9374    0.6484 H   0  0  0  0  0  0  0  0  0  0  0  0
    0.5168    0.7944    3.2092 H   0  0  0  0  0  0  0  0  0  0  0  0
    2.0900    0.7694    2.4307 H   0  0  0  0  0  0  0  0  0  0  0  0
    2.2077   -1.5010   -1.3926 H   0  0  0  0  0  0  0  0  0  0  0  0
   -0.2065    2.5456    1.4446 H   0  0  0  0  0  0  0  0  0  0  0  0
    0.9804    3.0618    2.6537 H   0  0  0  0  0  0  0  0  0  0  0  0
    1.5134    2.6629    1.0167 H   0  0  0  0  0  0  0  0  0  0  0  0
  1  2  1  0  0  0  0
  1  3  1  0  0  0  0
  1  4  1  0  0  0  0
  1  9  1  0  0  0  0
  2  5  1  0  0  0  0
  2 10  1  0  0  0  0
  2 11  1  0  0  0  0
  3  6  1  0  0  0  0
  3  7  2  0  0  0  0
  4 12  1  0  0  0  0
  4 13  1  0  0  0  0
  5  8  1  0  0  0  0
  5 14  1  0  0  0  0
  5 15  1  0  0  0  0
  6 16  1  0  0  0  0
  8 17  1  0  0  0  0
  8 18  1  0  0  0  0
  8 19  1  0  0  0  0
M  END
>  <Mol_ID>
7928

>  <Formula>
C5H11NO2

>  <MolWeight>
117.14634

>  <Cat>
S6334

>  <Name>
DL-Norvaline

>  <Synonyms>
2-Aminopentanoic acid, H-DL-Nva-OH, 2-Aminovaleric acid, ¦Á-Aminopentanoic acid

>  <Target>
Arginase

>  <Form>
free base

>  <CAS>
760-78-1

>  <URL>
http://www.selleck.cn/products/dl-norvaline.html

$$$$
