DL-O-Tyrosine
 OpenBabel08302521373D

 24 24  0  0  0  0  0  0  0  0999 V2000
    1.0374   -0.2366    0.0101 C   0  0  0  0  0  0  0  0  0  0  0  0
    0.4607   -0.7394   -1.3329 C   0  0  3  0  0  0  0  0  0  0  0  0
   -1.0757   -0.5778   -1.3731 C   0  0  0  0  0  0  0  0  0  0  0  0
    1.1192   -0.0200   -2.4528 N   0  0  0  0  0  0  0  0  0  0  0  0
   -1.5070    0.3033   -2.3099 O   0  0  0  0  0  0  0  0  0  0  0  0
   -1.8601   -1.1834   -0.6620 O   0  0  0  0  0  0  0  0  0  0  0  0
    0.8408    0.9500    2.7468 O   0  0  0  0  0  0  0  0  0  0  0  0
    0.6589   -0.9937    1.2699 C   0  0  0  0  0  0  0  0  0  0  0  0
    0.5755   -0.3734    2.5280 C   0  0  0  0  0  0  0  0  0  0  0  0
    0.4180   -2.3802    1.2222 C   0  0  0  0  0  0  0  0  0  0  0  0
    0.2064   -1.0906    3.6687 C   0  0  0  0  0  0  0  0  0  0  0  0
    0.0370   -3.0962    2.3599 C   0  0  0  0  0  0  0  0  0  0  0  0
   -0.0763   -2.4500    3.5838 C   0  0  0  0  0  0  0  0  0  0  0  0
    0.7330    0.8122    0.1123 H   0  0  0  0  0  0  0  0  0  0  0  0
    2.1352   -0.2477   -0.0412 H   0  0  0  0  0  0  0  0  0  0  0  0
    0.6782   -1.7989   -1.4970 H   0  0  0  0  0  0  0  0  0  0  0  0
    0.8489   -0.3689   -3.3695 H   0  0  0  0  0  0  0  0  0  0  0  0
    1.1170    0.9920   -2.3691 H   0  0  0  0  0  0  0  0  0  0  0  0
   -0.7555    0.6624   -2.8117 H   0  0  0  0  0  0  0  0  0  0  0  0
    1.1507    1.3705    1.9342 H   0  0  0  0  0  0  0  0  0  0  0  0
    0.4965   -2.9373    0.2933 H   0  0  0  0  0  0  0  0  0  0  0  0
    0.1346   -0.5825    4.6264 H   0  0  0  0  0  0  0  0  0  0  0  0
   -0.1813   -4.1581    2.2814 H   0  0  0  0  0  0  0  0  0  0  0  0
   -0.3818   -3.0017    4.4678 H   0  0  0  0  0  0  0  0  0  0  0  0
  1  2  1  0  0  0  0
  1  8  1  0  0  0  0
  1 14  1  0  0  0  0
  1 15  1  0  0  0  0
  2  3  1  0  0  0  0
  2  4  1  0  0  0  0
  2 16  1  0  0  0  0
  3  5  1  0  0  0  0
  3  6  2  0  0  0  0
  4 17  1  0  0  0  0
  4 18  1  0  0  0  0
  5 19  1  0  0  0  0
  7  9  1  0  0  0  0
  7 20  1  0  0  0  0
  8  9  2  0  0  0  0
  8 10  1  0  0  0  0
  9 11  1  0  0  0  0
 10 12  2  0  0  0  0
 10 21  1  0  0  0  0
 11 13  2  0  0  0  0
 11 22  1  0  0  0  0
 12 13  1  0  0  0  0
 12 23  1  0  0  0  0
 13 24  1  0  0  0  0
M  END
>  <Mol_ID>
7429

>  <Formula>
C9H11NO3

>  <MolWeight>
181.18854

>  <Cat>
E4529

>  <Name>
DL-O-Tyrosine

>  <Synonyms>
DL-O-Tyrosine

>  <Target>
Amino Acids and Derivatives Agonist

>  <Form>
Free base

>  <CAS>
2370-61-8

>  <URL>
https://www.selleckchem.com/products/dl-o-tyrosine.html

$$$$
