DL-Pyroglutamic acid
 OpenBabel08302521363D

 16 16  0  0  0  0  0  0  0  0999 V2000
    0.9271   -0.0405    0.0180 C   0  0  0  0  0  0  0  0  0  0  0  0
    0.3666   -0.8906   -0.8816 O   0  0  0  0  0  0  0  0  0  0  0  0
    0.2747    0.7490    0.6782 O   0  0  0  0  0  0  0  0  0  0  0  0
    4.7970   -1.9939   -1.7629 O   0  0  0  0  0  0  0  0  0  0  0  0
    2.4517   -0.1180    0.0259 C   0  0  3  0  0  0  0  0  0  0  0  0
    2.9222   -1.3302   -0.6121 N   0  0  0  0  0  0  0  0  0  0  0  0
    3.0556    0.9768   -0.8410 C   0  0  0  0  0  0  0  0  0  0  0  0
    4.0895   -1.1111   -1.3147 C   0  0  0  0  0  0  0  0  0  0  0  0
    4.3538    0.3705   -1.3640 C   0  0  0  0  0  0  0  0  0  0  0  0
    1.0702   -1.3742   -1.3668 H   0  0  0  0  0  0  0  0  0  0  0  0
    2.8287   -0.1096    1.0540 H   0  0  0  0  0  0  0  0  0  0  0  0
    2.7816   -2.2648   -0.2355 H   0  0  0  0  0  0  0  0  0  0  0  0
    3.2215    1.9078   -0.2904 H   0  0  0  0  0  0  0  0  0  0  0  0
    2.3983    1.2147   -1.6881 H   0  0  0  0  0  0  0  0  0  0  0  0
    5.1943    0.6012   -0.7028 H   0  0  0  0  0  0  0  0  0  0  0  0
    4.5718    0.6951   -2.3841 H   0  0  0  0  0  0  0  0  0  0  0  0
  1  2  1  0  0  0  0
  1  3  2  0  0  0  0
  1  5  1  0  0  0  0
  2 10  1  0  0  0  0
  4  8  2  0  0  0  0
  5  6  1  0  0  0  0
  5  7  1  0  0  0  0
  5 11  1  0  0  0  0
  6  8  1  0  0  0  0
  6 12  1  0  0  0  0
  7  9  1  0  0  0  0
  7 13  1  0  0  0  0
  7 14  1  0  0  0  0
  8  9  1  0  0  0  0
  9 15  1  0  0  0  0
  9 16  1  0  0  0  0
M  END
>  <Mol_ID>
7272

>  <Formula>
C5H7NO3

>  <MolWeight>
129.11398

>  <Cat>
E4291

>  <Name>
DL-Pyroglutamic acid

>  <Synonyms>
DL-Pyroglutamic acid

>  <Target>
Others

>  <Form>
free base

>  <CAS>
149-87-1

>  <URL>
https://www.selleckchem.com/products/dl-pyroglutamic-acid.html

$$$$
