DL-Penicillamine
 OpenBabel08302521453D

 20 19  0  0  0  0  0  0  0  0999 V2000
    0.9276   -0.0613   -0.0979 S   0  0  0  0  0  0  0  0  0  0  0  0
    1.3273   -4.9129    0.8527 O   0  0  0  0  0  0  0  0  0  0  0  0
   -0.6279   -4.7493   -0.2586 O   0  0  0  0  0  0  0  0  0  0  0  0
    2.4259   -2.8598   -0.4657 N   0  0  0  0  0  0  0  0  0  0  0  0
    0.3828   -1.7253    0.5363 C   0  0  0  0  0  0  0  0  0  0  0  0
    0.9301   -2.8504   -0.3996 C   0  0  3  0  0  0  0  0  0  0  0  0
    0.8945   -1.8698    1.9786 C   0  0  0  0  0  0  0  0  0  0  0  0
   -1.1516   -1.6871    0.5278 C   0  0  0  0  0  0  0  0  0  0  0  0
    0.4557   -4.2522    0.0521 C   0  0  0  0  0  0  0  0  0  0  0  0
    2.2441   -0.2148    0.1064 H   0  0  0  0  0  0  0  0  0  0  0  0
    2.1368   -4.3884    1.0367 H   0  0  0  0  0  0  0  0  0  0  0  0
    2.7173   -3.5678   -1.1431 H   0  0  0  0  0  0  0  0  0  0  0  0
    2.7250   -1.9685   -0.8636 H   0  0  0  0  0  0  0  0  0  0  0  0
    0.5480   -2.6886   -1.4227 H   0  0  0  0  0  0  0  0  0  0  0  0
    0.5503   -1.0499    2.6201 H   0  0  0  0  0  0  0  0  0  0  0  0
    0.5260   -2.7949    2.4347 H   0  0  0  0  0  0  0  0  0  0  0  0
    1.9897   -1.8955    2.0286 H   0  0  0  0  0  0  0  0  0  0  0  0
   -1.5405   -0.8967    1.1810 H   0  0  0  0  0  0  0  0  0  0  0  0
   -1.5461   -1.5176   -0.4811 H   0  0  0  0  0  0  0  0  0  0  0  0
   -1.5738   -2.6284    0.8905 H   0  0  0  0  0  0  0  0  0  0  0  0
  1  5  1  0  0  0  0
  1 10  1  0  0  0  0
  2  9  1  0  0  0  0
  2 11  1  0  0  0  0
  3  9  2  0  0  0  0
  4  6  1  0  0  0  0
  4 12  1  0  0  0  0
  4 13  1  0  0  0  0
  5  6  1  0  0  0  0
  5  7  1  0  0  0  0
  5  8  1  0  0  0  0
  6  9  1  0  0  0  0
  6 14  1  0  0  0  0
  7 15  1  0  0  0  0
  7 16  1  0  0  0  0
  7 17  1  0  0  0  0
  8 18  1  0  0  0  0
  8 19  1  0  0  0  0
  8 20  1  0  0  0  0
M  END
>  <Mol_ID>
9391

>  <Formula>
C5H11NO2S

>  <MolWeight>
149.21134

>  <Cat>
S5962

>  <Name>
DL-Penicillamine

>  <Synonyms>
DL-beta-Mercaptovaline, 3,3-Dimethyl-DL-cysteine, 3-Sulfanylvaline, Cuprimine, Depen, DL-PenA

>  <Target>
Others

>  <Form>
Free Base

>  <CAS>
52-66-4

>  <URL>
http://www.selleckchem.com/products/dl-penicillamine.html

$$$$
