DL-Pantolactone
 OpenBabel08302521363D

 19 19  0  0  0  0  0  0  0  0999 V2000
    0.8777    0.0733   -0.0264 O   0  0  0  0  0  0  0  0  0  0  0  0
    1.9993    2.5061    0.7343 C   0  0  0  0  0  0  0  0  0  0  0  0
   -0.4198    2.7130    1.3283 C   0  0  0  0  0  0  0  0  0  0  0  0
    2.0871   -1.3250    2.2512 O   0  0  0  0  0  0  0  0  0  0  0  0
    0.6569    0.4247    1.3251 C   0  0  3  0  0  0  0  0  0  0  0  0
    0.8622    1.9146    1.5835 C   0  0  0  0  0  0  0  0  0  0  0  0
    1.6000   -0.2096    2.3348 C   0  0  0  0  0  0  0  0  0  0  0  0
    1.2299    1.9255    3.0662 C   0  0  0  0  0  0  0  0  0  0  0  0
    1.8490    0.6677    3.3515 O   0  0  0  0  0  0  0  0  0  0  0  0
    1.6990   -0.4566   -0.0555 H   0  0  0  0  0  0  0  0  0  0  0  0
    1.7476    2.4906   -0.3322 H   0  0  0  0  0  0  0  0  0  0  0  0
    2.1908    3.5486    1.0087 H   0  0  0  0  0  0  0  0  0  0  0  0
    2.9338    1.9507    0.8666 H   0  0  0  0  0  0  0  0  0  0  0  0
   -1.2529    2.3403    1.9351 H   0  0  0  0  0  0  0  0  0  0  0  0
   -0.2792    3.7728    1.5769 H   0  0  0  0  0  0  0  0  0  0  0  0
   -0.7217    2.6485    0.2766 H   0  0  0  0  0  0  0  0  0  0  0  0
   -0.3573    0.1069    1.5948 H   0  0  0  0  0  0  0  0  0  0  0  0
    1.9415    2.7203    3.3118 H   0  0  0  0  0  0  0  0  0  0  0  0
    0.3610    2.0320    3.7244 H   0  0  0  0  0  0  0  0  0  0  0  0
  1  5  1  0  0  0  0
  1 10  1  0  0  0  0
  2  6  1  0  0  0  0
  2 11  1  0  0  0  0
  2 12  1  0  0  0  0
  2 13  1  0  0  0  0
  3  6  1  0  0  0  0
  3 14  1  0  0  0  0
  3 15  1  0  0  0  0
  3 16  1  0  0  0  0
  4  7  2  0  0  0  0
  5  6  1  0  0  0  0
  5  7  1  0  0  0  0
  5 17  1  0  0  0  0
  6  8  1  0  0  0  0
  7  9  1  0  0  0  0
  8  9  1  0  0  0  0
  8 18  1  0  0  0  0
  8 19  1  0  0  0  0
M  END
>  <Mol_ID>
7238

>  <Formula>
C6H10O3

>  <MolWeight>
130.1418

>  <Cat>
E4247

>  <Name>
DL-Pantolactone

>  <Target>
Others

>  <Form>
Free base

>  <CAS>
79-50-5

>  <URL>
https://www.selleckchem.com/products/dl-pantolactone.html

$$$$
