DL-Threonine
 OpenBabel08302521453D

 17 16  0  0  0  0  0  0  0  0999 V2000
    0.9018   -0.1563   -0.0131 C   0  0  1  0  0  0  0  0  0  0  0  0
    0.5056    0.1223    1.4595 C   0  0  1  0  0  0  0  0  0  0  0  0
    0.2156   -1.4462   -0.4859 C   0  0  0  0  0  0  0  0  0  0  0  0
    0.6210    0.9902   -0.9029 N   0  0  0  0  0  0  0  0  0  0  0  0
   -0.9910    0.3276    1.6801 C   0  0  0  0  0  0  0  0  0  0  0  0
    0.9703   -0.9116    2.3326 O   0  0  0  0  0  0  0  0  0  0  0  0
   -0.5179   -1.3092   -1.6161 O   0  0  0  0  0  0  0  0  0  0  0  0
    0.3008   -2.5144    0.1065 O   0  0  0  0  0  0  0  0  0  0  0  0
    1.9795   -0.3551   -0.0613 H   0  0  0  0  0  0  0  0  0  0  0  0
    1.0203    1.0349    1.7840 H   0  0  0  0  0  0  0  0  0  0  0  0
    1.0165    0.8903   -1.8347 H   0  0  0  0  0  0  0  0  0  0  0  0
   -0.3385    1.3192   -0.8858 H   0  0  0  0  0  0  0  0  0  0  0  0
   -1.5656   -0.5590    1.4043 H   0  0  0  0  0  0  0  0  0  0  0  0
   -1.1927    0.5093    2.7419 H   0  0  0  0  0  0  0  0  0  0  0  0
   -1.3710    1.1813    1.1141 H   0  0  0  0  0  0  0  0  0  0  0  0
    0.6846   -1.7740    1.9691 H   0  0  0  0  0  0  0  0  0  0  0  0
   -0.4907   -0.3874   -1.9311 H   0  0  0  0  0  0  0  0  0  0  0  0
  1  4  1  0  0  0  0
  1  9  1  6  0  0  0
  1  3  1  0  0  0  0
  1  2  1  0  0  0  0
  2  5  1  0  0  0  0
  2  6  1  0  0  0  0
  2 10  1  1  0  0  0
  3  7  1  0  0  0  0
  3  8  2  0  0  0  0
  4 11  1  0  0  0  0
  4 12  1  0  0  0  0
  5 13  1  0  0  0  0
  5 14  1  0  0  0  0
  5 15  1  0  0  0  0
  6 16  1  0  0  0  0
  7 17  1  0  0  0  0
M  END
>  <Mol_ID>
9490

>  <Formula>
C4H9NO3

>  <MolWeight>
119.11916

>  <Cat>
E4107

>  <Name>
DL-Threonine

>  <Synonyms>
DL-Threonine

>  <Target>
Others

>  <Form>
free base

>  <CAS>
80-68-2

>  <URL>
https://www.selleckchem.com/products/dl-threonine.html

$$$$
