DL-Tartaric acid
 OpenBabel08302521293D

 16 15  0  0  0  0  0  0  0  0999 V2000
    1.2798    0.0810   -0.2206 O   0  0  0  0  0  0  0  0  0  0  0  0
    2.3907   -0.0810   -2.7819 O   0  0  0  0  0  0  0  0  0  0  0  0
    0.4537   -3.2047   -1.5569 O   0  0  0  0  0  0  0  0  0  0  0  0
    1.0961   -1.0192   -4.8031 O   0  0  0  0  0  0  0  0  0  0  0  0
    2.1332   -2.4552   -0.2507 O   0  0  0  0  0  0  0  0  0  0  0  0
   -0.6044   -1.7899   -3.5061 O   0  0  0  0  0  0  0  0  0  0  0  0
    0.6559   -0.7976   -1.1796 C   0  0  3  0  0  0  0  0  0  0  0  0
    0.9801   -0.2285   -2.5594 C   0  0  3  0  0  0  0  0  0  0  0  0
    1.1667   -2.2243   -0.9717 C   0  0  0  0  0  0  0  0  0  0  0  0
    0.3889   -1.0884   -3.6522 C   0  0  0  0  0  0  0  0  0  0  0  0
    1.8047   -0.4921    0.3801 H   0  0  0  0  0  0  0  0  0  0  0  0
    2.7662    0.2056   -1.9223 H   0  0  0  0  0  0  0  0  0  0  0  0
   -0.2917   -2.9230   -2.1417 H   0  0  0  0  0  0  0  0  0  0  0  0
    1.9153   -0.4932   -4.6358 H   0  0  0  0  0  0  0  0  0  0  0  0
   -0.4214   -0.7907   -0.9788 H   0  0  0  0  0  0  0  0  0  0  0  0
    0.5522    0.7749   -2.6546 H   0  0  0  0  0  0  0  0  0  0  0  0
  1  7  1  0  0  0  0
  1 11  1  0  0  0  0
  2  8  1  0  0  0  0
  2 12  1  0  0  0  0
  3  9  1  0  0  0  0
  3 13  1  0  0  0  0
  4 10  1  0  0  0  0
  4 14  1  0  0  0  0
  5  9  2  0  0  0  0
  6 10  2  0  0  0  0
  7  8  1  0  0  0  0
  7  9  1  0  0  0  0
  7 15  1  0  0  0  0
  8 10  1  0  0  0  0
  8 16  1  0  0  0  0
M  END
>  <Mol_ID>
5433

>  <Formula>
C4H6O6

>  <MolWeight>
150.08684

>  <Cat>
S2997

>  <Name>
DL-Tartaric acid

>  <Synonyms>
2,3-Dihydroxysuccinic acid

>  <Target>
Others

>  <Form>
Free Base

>  <CAS>
133-37-9, 526-83-0

>  <URL>
https://www.selleckchem.com/products/dl-tartaric-acid.html

$$$$
