DL-Thiorphan
 OpenBabel08302521353D

 32 32  0  0  0  0  0  0  0  0999 V2000
    1.1477   -0.2340    0.0950 C   0  0  0  0  0  0  0  0  0  0  0  0
    0.4914   -0.7397   -1.2078 C   0  0  3  0  0  0  0  0  0  0  0  0
    0.9655   -2.1348   -1.6212 C   0  0  0  0  0  0  0  0  0  0  0  0
   -1.0449   -0.6901   -1.2177 C   0  0  0  0  0  0  0  0  0  0  0  0
    2.3228   -2.2816   -1.7655 N   0  0  0  0  0  0  0  0  0  0  0  0
    0.2137   -3.0532   -1.9438 O   0  0  0  0  0  0  0  0  0  0  0  0
   -1.7098    1.0094   -1.1555 S   0  0  0  0  0  0  0  0  0  0  0  0
    2.9311   -3.5475   -2.1587 C   0  0  0  0  0  0  0  0  0  0  0  0
    2.9322   -3.7566   -3.6719 C   0  0  0  0  0  0  0  0  0  0  0  0
    1.7153   -3.6365   -4.2483 O   0  0  0  0  0  0  0  0  0  0  0  0
    3.9267   -4.0792   -4.3081 O   0  0  0  0  0  0  0  0  0  0  0  0
    0.9201   -1.0461    1.3488 C   0  0  0  0  0  0  0  0  0  0  0  0
    1.8010   -2.0829    1.6888 C   0  0  0  0  0  0  0  0  0  0  0  0
   -0.1302   -0.7454    2.2269 C   0  0  0  0  0  0  0  0  0  0  0  0
    1.6356   -2.8018    2.8742 C   0  0  0  0  0  0  0  0  0  0  0  0
   -0.2945   -1.4651    3.4144 C   0  0  0  0  0  0  0  0  0  0  0  0
    0.5882   -2.4926    3.7373 C   0  0  0  0  0  0  0  0  0  0  0  0
    0.8386    0.8003    0.2926 H   0  0  0  0  0  0  0  0  0  0  0  0
    2.2326   -0.1543   -0.0559 H   0  0  0  0  0  0  0  0  0  0  0  0
    0.8418   -0.0816   -2.0171 H   0  0  0  0  0  0  0  0  0  0  0  0
   -1.4250   -1.1219   -2.1507 H   0  0  0  0  0  0  0  0  0  0  0  0
   -1.4768   -1.2737   -0.3990 H   0  0  0  0  0  0  0  0  0  0  0  0
    2.9100   -1.4570   -1.7961 H   0  0  0  0  0  0  0  0  0  0  0  0
   -1.4009    1.2683    0.1222 H   0  0  0  0  0  0  0  0  0  0  0  0
    3.9614   -3.5422   -1.7994 H   0  0  0  0  0  0  0  0  0  0  0  0
    2.3954   -4.3852   -1.6992 H   0  0  0  0  0  0  0  0  0  0  0  0
    1.0087   -3.5113   -3.5743 H   0  0  0  0  0  0  0  0  0  0  0  0
    2.6420   -2.3285    1.0459 H   0  0  0  0  0  0  0  0  0  0  0  0
   -0.8226    0.0649    2.0145 H   0  0  0  0  0  0  0  0  0  0  0  0
    2.3320   -3.5964    3.1293 H   0  0  0  0  0  0  0  0  0  0  0  0
   -1.1060   -1.2166    4.0941 H   0  0  0  0  0  0  0  0  0  0  0  0
    0.4652   -3.0465    4.6645 H   0  0  0  0  0  0  0  0  0  0  0  0
  1  2  1  0  0  0  0
  1 12  1  0  0  0  0
  1 18  1  0  0  0  0
  1 19  1  0  0  0  0
  2  3  1  0  0  0  0
  2  4  1  0  0  0  0
  2 20  1  0  0  0  0
  3  5  1  0  0  0  0
  3  6  2  0  0  0  0
  4  7  1  0  0  0  0
  4 21  1  0  0  0  0
  4 22  1  0  0  0  0
  5  8  1  0  0  0  0
  5 23  1  0  0  0  0
  7 24  1  0  0  0  0
  8  9  1  0  0  0  0
  8 25  1  0  0  0  0
  8 26  1  0  0  0  0
  9 10  1  0  0  0  0
  9 11  2  0  0  0  0
 10 27  1  0  0  0  0
 12 13  2  0  0  0  0
 12 14  1  0  0  0  0
 13 15  1  0  0  0  0
 13 28  1  0  0  0  0
 14 16  2  0  0  0  0
 14 29  1  0  0  0  0
 15 17  2  0  0  0  0
 15 30  1  0  0  0  0
 16 17  1  0  0  0  0
 16 31  1  0  0  0  0
 17 32  1  0  0  0  0
M  END
>  <Mol_ID>
7013

>  <Formula>
C12H15NO3S

>  <MolWeight>
253.3174

>  <Cat>
E4454

>  <Name>
DL-Thiorphan

>  <Synonyms>
DL-3-Mercapto-2-benzylpropanoylglycine

>  <Target>
Neprilysin

>  <Form>
free base

>  <CAS>
76721-89-6

>  <URL>
https://www.selleckchem.com/products/dl-thiorphan.html

$$$$
