DMAT
 OpenBabel08302521343D

 23 24  0  0  0  0  0  0  0  0999 V2000
   -2.3862   -0.0358    0.0001 C   0  0  0  0  0  0  0  0  0  0  0  0
   -1.6308   -1.1117    0.0008 N   0  0  0  0  0  0  0  0  0  0  0  0
   -0.3214   -0.6813    0.0011 C   0  0  0  0  0  0  0  0  0  0  0  0
   -0.2770    0.7040    0.0010 C   0  0  0  0  0  0  0  0  0  0  0  0
   -1.5973    1.0834    0.0002 N   0  0  0  0  0  0  0  0  0  0  0  0
    0.8847   -1.4094    0.0013 C   0  0  0  0  0  0  0  0  0  0  0  0
    2.1089   -0.7012    0.0018 C   0  0  0  0  0  0  0  0  0  0  0  0
    2.1196    0.7140    0.0027 C   0  0  0  0  0  0  0  0  0  0  0  0
    0.9103    1.4393    0.0017 C   0  0  0  0  0  0  0  0  0  0  0  0
   -3.7401    0.0185   -0.0009 N   0  0  0  0  0  0  0  0  0  0  0  0
   -4.5347    1.2301    0.0001 C   0  0  0  0  0  0  0  0  0  0  0  0
   -4.4635   -1.2467    0.0020 C   0  0  0  0  0  0  0  0  0  0  0  0
    0.7904    3.3348    0.0015 Br  0  0  0  0  0  0  0  0  0  0  0  0
    3.7768    1.6825    0.0063 Br  0  0  0  0  0  0  0  0  0  0  0  0
    3.7587   -1.6840    0.0000 Br  0  0  0  0  0  0  0  0  0  0  0  0
    0.7678   -3.3097    0.0006 Br  0  0  0  0  0  0  0  0  0  0  0  0
   -1.9231    2.0356   -0.0004 H   0  0  0  0  0  0  0  0  0  0  0  0
   -5.1786    1.2565   -0.8858 H   0  0  0  0  0  0  0  0  0  0  0  0
   -5.1751    1.2576    0.8884 H   0  0  0  0  0  0  0  0  0  0  0  0
   -3.9458    2.1510   -0.0018 H   0  0  0  0  0  0  0  0  0  0  0  0
   -4.2203   -1.8370   -0.8886 H   0  0  0  0  0  0  0  0  0  0  0  0
   -4.2210   -1.8325    0.8956 H   0  0  0  0  0  0  0  0  0  0  0  0
   -5.5477   -1.0853    0.0012 H   0  0  0  0  0  0  0  0  0  0  0  0
  1  2  2  0  0  0  0
  1  5  1  0  0  0  0
  1 10  1  0  0  0  0
  2  3  1  0  0  0  0
  3  4  2  0  0  0  0
  4  5  1  0  0  0  0
  5 17  1  0  0  0  0
  6  7  2  0  0  0  0
  6  3  1  0  0  0  0
  6 16  1  0  0  0  0
  7  8  1  0  0  0  0
  7 15  1  0  0  0  0
  8  9  2  0  0  0  0
  8 14  1  0  0  0  0
  9  4  1  0  0  0  0
  9 13  1  0  0  0  0
 10 11  1  0  0  0  0
 10 12  1  0  0  0  0
 11 18  1  0  0  0  0
 11 19  1  0  0  0  0
 11 20  1  0  0  0  0
 12 21  1  0  0  0  0
 12 22  1  0  0  0  0
 12 23  1  0  0  0  0
M  END
>  <Mol_ID>
6486

>  <Formula>
C9H7Br4N3

>  <MolWeight>
476.78798

>  <Cat>
E2659

>  <Name>
DMAT

>  <Target>
Casein Kinase

>  <Form>
free base

>  <CAS>
749234-11-5

>  <URL>
http://www.selleckchem.com/products/dmat.html

$$$$
