DMU-212
 OpenBabel08302521343D

 42 43  0  0  0  0  0  0  0  0999 V2000
    1.5009   -0.2139   -0.0550 C   0  0  0  0  0  0  0  0  0  0  0  0
    0.6692   -1.3432    0.1089 C   0  0  0  0  0  0  0  0  0  0  0  0
   -0.7250   -1.1706    0.1467 C   0  0  0  0  0  0  0  0  0  0  0  0
   -1.2535    0.1304    0.1560 C   0  0  0  0  0  0  0  0  0  0  0  0
   -0.4269    1.2557    0.1464 C   0  0  0  0  0  0  0  0  0  0  0  0
    0.9484    1.0690    0.0017 C   0  0  0  0  0  0  0  0  0  0  0  0
   -1.0233    2.5919    0.2888 C   0  0  0  0  0  0  0  0  0  0  0  0
   -0.3836    3.6093    0.8901 C   0  0  0  0  0  0  0  0  0  0  0  0
   -0.9740    4.9172    1.2030 C   0  0  0  0  0  0  0  0  0  0  0  0
   -2.3231    5.0547    1.5528 C   0  0  0  0  0  0  0  0  0  0  0  0
   -2.8332    6.2835    1.9680 C   0  0  0  0  0  0  0  0  0  0  0  0
   -1.9977    7.3973    2.0486 C   0  0  0  0  0  0  0  0  0  0  0  0
   -0.6518    7.2701    1.6994 C   0  0  0  0  0  0  0  0  0  0  0  0
   -0.1395    6.0356    1.2849 C   0  0  0  0  0  0  0  0  0  0  0  0
   -2.3698    8.6480    2.4567 O   0  0  0  0  0  0  0  0  0  0  0  0
   -3.7235    8.8047    2.8647 C   0  0  0  0  0  0  0  0  0  0  0  0
   -1.7154   -2.1157    0.1929 O   0  0  0  0  0  0  0  0  0  0  0  0
   -1.3640   -3.4890    0.1755 C   0  0  0  0  0  0  0  0  0  0  0  0
    1.2012   -2.6081    0.1331 O   0  0  0  0  0  0  0  0  0  0  0  0
    2.1632   -2.8188    1.1705 C   0  0  0  0  0  0  0  0  0  0  0  0
    2.8420   -0.4354   -0.2651 O   0  0  0  0  0  0  0  0  0  0  0  0
    3.5878    0.6497   -0.8086 C   0  0  0  0  0  0  0  0  0  0  0  0
   -2.3349    0.2505    0.2040 H   0  0  0  0  0  0  0  0  0  0  0  0
    1.5883    1.9418   -0.0584 H   0  0  0  0  0  0  0  0  0  0  0  0
   -2.0487    2.6976   -0.0558 H   0  0  0  0  0  0  0  0  0  0  0  0
    0.6367    3.4913    1.2478 H   0  0  0  0  0  0  0  0  0  0  0  0
   -2.9874    4.1931    1.5374 H   0  0  0  0  0  0  0  0  0  0  0  0
   -3.8811    6.3317    2.2386 H   0  0  0  0  0  0  0  0  0  0  0  0
    0.0065    8.1310    1.7694 H   0  0  0  0  0  0  0  0  0  0  0  0
    0.9173    5.9633    1.0385 H   0  0  0  0  0  0  0  0  0  0  0  0
   -4.4108    8.5740    2.0430 H   0  0  0  0  0  0  0  0  0  0  0  0
   -3.9428    8.1977    3.7477 H   0  0  0  0  0  0  0  0  0  0  0  0
   -3.8715    9.8558    3.1333 H   0  0  0  0  0  0  0  0  0  0  0  0
   -0.7948   -3.7538   -0.7186 H   0  0  0  0  0  0  0  0  0  0  0  0
   -0.8468   -3.7696    1.0971 H   0  0  0  0  0  0  0  0  0  0  0  0
   -2.2982   -4.0625    0.1423 H   0  0  0  0  0  0  0  0  0  0  0  0
    2.5525   -1.9104    1.6420 H   0  0  0  0  0  0  0  0  0  0  0  0
    1.7078   -3.4328    1.9539 H   0  0  0  0  0  0  0  0  0  0  0  0
    3.0017   -3.3783    0.7441 H   0  0  0  0  0  0  0  0  0  0  0  0
    3.0676    1.1245   -1.6489 H   0  0  0  0  0  0  0  0  0  0  0  0
    3.8208    1.3812   -0.0280 H   0  0  0  0  0  0  0  0  0  0  0  0
    4.5313    0.2531   -1.1907 H   0  0  0  0  0  0  0  0  0  0  0  0
  1  2  2  0  0  0  0
  1  6  1  0  0  0  0
  1 21  1  0  0  0  0
  2  3  1  0  0  0  0
  2 19  1  0  0  0  0
  3  4  2  0  0  0  0
  3 17  1  0  0  0  0
  4  5  1  0  0  0  0
  4 23  1  0  0  0  0
  5  6  2  0  0  0  0
  5  7  1  0  0  0  0
  6 24  1  0  0  0  0
  7  8  2  0  0  0  0
  7 25  1  0  0  0  0
  8  9  1  0  0  0  0
  8 26  1  0  0  0  0
  9 10  2  0  0  0  0
  9 14  1  0  0  0  0
 10 11  1  0  0  0  0
 10 27  1  0  0  0  0
 11 12  2  0  0  0  0
 11 28  1  0  0  0  0
 12 13  1  0  0  0  0
 12 15  1  0  0  0  0
 13 14  2  0  0  0  0
 13 29  1  0  0  0  0
 14 30  1  0  0  0  0
 15 16  1  0  0  0  0
 16 31  1  0  0  0  0
 16 32  1  0  0  0  0
 16 33  1  0  0  0  0
 17 18  1  0  0  0  0
 18 34  1  0  0  0  0
 18 35  1  0  0  0  0
 18 36  1  0  0  0  0
 19 20  1  0  0  0  0
 20 37  1  0  0  0  0
 20 38  1  0  0  0  0
 20 39  1  0  0  0  0
 21 22  1  0  0  0  0
 22 40  1  0  0  0  0
 22 41  1  0  0  0  0
 22 42  1  0  0  0  0
M  END
>  <Mol_ID>
6434

>  <Formula>
C18H20O4

>  <MolWeight>
300.349

>  <Cat>
E2203

>  <Name>
DMU-212

>  <Target>
ERK

>  <Form>
free base

>  <CAS>
134029-62-2

>  <URL>
http://www.selleckchem.com/products/dmu-212.html

$$$$
