DMU2105
 OpenBabel08302521273D

 33 35  0  0  0  0  0  0  0  0999 V2000
    2.9668    0.4267   -0.9303 O   0  0  0  0  0  0  0  0  0  0  0  0
   -1.2390   -0.1340    1.1743 N   0  0  0  0  0  0  0  0  0  0  0  0
    6.7467   -1.6121    4.0745 C   0  0  0  0  0  0  0  0  0  0  0  0
    6.3415   -2.9233    4.4116 C   0  0  0  0  0  0  0  0  0  0  0  0
    5.0124   -1.5193    2.3470 C   0  0  0  0  0  0  0  0  0  0  0  0
    6.0781   -0.9269    3.0396 C   0  0  0  0  0  0  0  0  0  0  0  0
    5.2988   -3.5223    3.6959 C   0  0  0  0  0  0  0  0  0  0  0  0
    4.6504   -2.8318    2.6698 C   0  0  0  0  0  0  0  0  0  0  0  0
    7.8055   -1.0258    4.7903 C   0  0  0  0  0  0  0  0  0  0  0  0
    6.9904   -3.6070    5.4522 C   0  0  0  0  0  0  0  0  0  0  0  0
    4.3235   -0.7681    1.2841 C   0  0  0  0  0  0  0  0  0  0  0  0
    8.4440   -1.7190    5.8219 C   0  0  0  0  0  0  0  0  0  0  0  0
    8.0354   -3.0059    6.1550 C   0  0  0  0  0  0  0  0  0  0  0  0
    3.0084   -0.8977    1.0474 C   0  0  0  0  0  0  0  0  0  0  0  0
    0.8580   -0.1195   -0.0404 C   0  0  0  0  0  0  0  0  0  0  0  0
    2.3401   -0.1323   -0.0385 C   0  0  0  0  0  0  0  0  0  0  0  0
    0.1627   -0.0690   -1.2499 C   0  0  0  0  0  0  0  0  0  0  0  0
    0.1157   -0.1324    1.1345 C   0  0  0  0  0  0  0  0  0  0  0  0
   -1.2314   -0.0638   -1.2383 C   0  0  0  0  0  0  0  0  0  0  0  0
   -1.8810   -0.0999   -0.0139 C   0  0  0  0  0  0  0  0  0  0  0  0
    6.3863    0.0857    2.7856 H   0  0  0  0  0  0  0  0  0  0  0  0
    4.9806   -4.5363    3.9283 H   0  0  0  0  0  0  0  0  0  0  0  0
    3.8607   -3.3440    2.1263 H   0  0  0  0  0  0  0  0  0  0  0  0
    8.1416   -0.0199    4.5486 H   0  0  0  0  0  0  0  0  0  0  0  0
    6.6840   -4.6147    5.7238 H   0  0  0  0  0  0  0  0  0  0  0  0
    4.9263   -0.0722    0.7034 H   0  0  0  0  0  0  0  0  0  0  0  0
    9.2603   -1.2514    6.3663 H   0  0  0  0  0  0  0  0  0  0  0  0
    8.5282   -3.5462    6.9591 H   0  0  0  0  0  0  0  0  0  0  0  0
    2.3942   -1.5718    1.6317 H   0  0  0  0  0  0  0  0  0  0  0  0
    0.7007   -0.0394   -2.1946 H   0  0  0  0  0  0  0  0  0  0  0  0
    0.5844   -0.1265    2.1144 H   0  0  0  0  0  0  0  0  0  0  0  0
   -1.7980   -0.0310   -2.1627 H   0  0  0  0  0  0  0  0  0  0  0  0
   -2.9659   -0.0977    0.0461 H   0  0  0  0  0  0  0  0  0  0  0  0
  1 16  2  0  0  0  0
  2 18  2  0  0  0  0
  2 20  1  0  0  0  0
  3  4  1  0  0  0  0
  3  6  2  0  0  0  0
  3  9  1  0  0  0  0
  4  7  2  0  0  0  0
  4 10  1  0  0  0  0
  5  6  1  0  0  0  0
  5  8  2  0  0  0  0
  5 11  1  0  0  0  0
  6 21  1  0  0  0  0
  7  8  1  0  0  0  0
  7 22  1  0  0  0  0
  8 23  1  0  0  0  0
  9 12  2  0  0  0  0
  9 24  1  0  0  0  0
 10 13  2  0  0  0  0
 10 25  1  0  0  0  0
 11 14  2  0  0  0  0
 11 26  1  0  0  0  0
 12 13  1  0  0  0  0
 12 27  1  0  0  0  0
 13 28  1  0  0  0  0
 14 16  1  0  0  0  0
 14 29  1  0  0  0  0
 15 16  1  0  0  0  0
 15 17  2  0  0  0  0
 15 18  1  0  0  0  0
 17 19  1  0  0  0  0
 17 30  1  0  0  0  0
 18 31  1  0  0  0  0
 19 20  2  0  0  0  0
 19 32  1  0  0  0  0
 20 33  1  0  0  0  0
M  END
>  <Mol_ID>
5353

>  <Formula>
C18H13NO

>  <MolWeight>
259.30192

>  <Cat>
S0175

>  <Name>
DMU2105

>  <Synonyms>
N/A

>  <Target>
P450 (e.g. CYP17)

>  <Form>
Free Base

>  <CAS>
1031063-36-1

>  <URL>
https://www.selleckchem.com/products/dmu2105.html

$$$$
