DMX-5084
 OpenBabel08302521243D

 46 49  0  0  0  0  0  0  0  0999 V2000
   -0.8368   -0.9804   -0.6911 C   0  0  0  0  0  0  0  0  0  0  0  0
    0.4239   -1.2528   -0.1493 C   0  0  0  0  0  0  0  0  0  0  0  0
    1.2033   -0.2007    0.3549 C   0  0  0  0  0  0  0  0  0  0  0  0
    0.7315    1.1124    0.2920 C   0  0  0  0  0  0  0  0  0  0  0  0
   -0.5255    1.3755   -0.2440 C   0  0  0  0  0  0  0  0  0  0  0  0
   -1.3120    0.3320   -0.7270 C   0  0  0  0  0  0  0  0  0  0  0  0
    0.9274   -2.5841   -0.1103 N   0  0  0  0  0  0  0  0  0  0  0  0
    0.6841   -3.6177   -1.0021 C   0  0  0  0  0  0  0  0  0  0  0  0
    1.4525   -4.7118   -0.6239 C   0  0  0  0  0  0  0  0  0  0  0  0
    2.1565   -4.3723    0.5678 C   0  0  0  0  0  0  0  0  0  0  0  0
    1.8035   -3.0628    0.8450 C   0  0  0  0  0  0  0  0  0  0  0  0
   -0.0879   -3.5108   -2.1208 N   0  0  0  0  0  0  0  0  0  0  0  0
   -0.0700   -4.5617   -2.8752 C   0  0  0  0  0  0  0  0  0  0  0  0
    0.6304   -5.7122   -2.6068 N   0  0  0  0  0  0  0  0  0  0  0  0
    1.4255   -5.8740   -1.4895 C   0  0  0  0  0  0  0  0  0  0  0  0
    2.0375   -6.9202   -1.3026 O   0  0  0  0  0  0  0  0  0  0  0  0
    3.0979   -5.1049    1.4135 C   0  0  0  0  0  0  0  0  0  0  0  0
    4.1152   -4.4198    2.1018 C   0  0  0  0  0  0  0  0  0  0  0  0
    5.0202   -5.0938    2.9302 C   0  0  0  0  0  0  0  0  0  0  0  0
    4.9302   -6.4732    3.0813 C   0  0  0  0  0  0  0  0  0  0  0  0
    3.9318   -7.1658    2.3960 C   0  0  0  0  0  0  0  0  0  0  0  0
    3.0140   -6.4881    1.5825 C   0  0  0  0  0  0  0  0  0  0  0  0
    5.7511   -7.2497    3.8474 O   0  0  0  0  0  0  0  0  0  0  0  0
    6.5841   -6.5736    4.7894 C   0  0  0  0  0  0  0  0  0  0  0  0
    7.1564   -7.6143    5.7460 C   0  0  0  0  0  0  0  0  0  0  0  0
    8.0194   -6.9817    6.6901 O   0  0  0  0  0  0  0  0  0  0  0  0
    8.4673   -7.9007    7.6790 C   0  0  0  0  0  0  0  0  0  0  0  0
   -1.4811   -1.7758   -1.0561 H   0  0  0  0  0  0  0  0  0  0  0  0
    2.2021   -0.3694    0.7487 H   0  0  0  0  0  0  0  0  0  0  0  0
    1.3527    1.9286    0.6510 H   0  0  0  0  0  0  0  0  0  0  0  0
   -0.8955    2.3986   -0.2878 H   0  0  0  0  0  0  0  0  0  0  0  0
   -2.2999    0.5365   -1.1331 H   0  0  0  0  0  0  0  0  0  0  0  0
    2.0815   -2.4327    1.6791 H   0  0  0  0  0  0  0  0  0  0  0  0
   -0.6392   -4.5983   -3.8172 H   0  0  0  0  0  0  0  0  0  0  0  0
    0.6019   -6.4938   -3.2420 H   0  0  0  0  0  0  0  0  0  0  0  0
    4.2247   -3.3431    2.0000 H   0  0  0  0  0  0  0  0  0  0  0  0
    5.7855   -4.5102    3.4311 H   0  0  0  0  0  0  0  0  0  0  0  0
    3.8559   -8.2455    2.5001 H   0  0  0  0  0  0  0  0  0  0  0  0
    2.2333   -7.0679    1.0991 H   0  0  0  0  0  0  0  0  0  0  0  0
    7.4021   -6.0537    4.2746 H   0  0  0  0  0  0  0  0  0  0  0  0
    6.0128   -5.8391    5.3711 H   0  0  0  0  0  0  0  0  0  0  0  0
    6.3360   -8.1260    6.2642 H   0  0  0  0  0  0  0  0  0  0  0  0
    7.7172   -8.3698    5.1825 H   0  0  0  0  0  0  0  0  0  0  0  0
    7.6405   -8.1674    8.3445 H   0  0  0  0  0  0  0  0  0  0  0  0
    8.8837   -8.8015    7.2174 H   0  0  0  0  0  0  0  0  0  0  0  0
    9.2494   -7.4172    8.2702 H   0  0  0  0  0  0  0  0  0  0  0  0
  1  2  2  0  0  0  0
  1 28  1  0  0  0  0
  2  3  1  0  0  0  0
  2  7  1  0  0  0  0
  3  4  2  0  0  0  0
  3 29  1  0  0  0  0
  4  5  1  0  0  0  0
  4 30  1  0  0  0  0
  5  6  2  0  0  0  0
  5 31  1  0  0  0  0
  6  1  1  0  0  0  0
  6 32  1  0  0  0  0
  7  8  1  0  0  0  0
  8  9  2  0  0  0  0
  8 12  1  0  0  0  0
  9 10  1  0  0  0  0
 10 11  2  0  0  0  0
 10 17  1  0  0  0  0
 11  7  1  0  0  0  0
 11 33  1  0  0  0  0
 12 13  2  0  0  0  0
 13 14  1  0  0  0  0
 13 34  1  0  0  0  0
 14 15  1  0  0  0  0
 14 35  1  0  0  0  0
 15  9  1  0  0  0  0
 15 16  2  0  0  0  0
 17 18  2  0  0  0  0
 18 19  1  0  0  0  0
 18 36  1  0  0  0  0
 19 20  2  0  0  0  0
 19 37  1  0  0  0  0
 20 21  1  0  0  0  0
 20 23  1  0  0  0  0
 21 22  2  0  0  0  0
 21 38  1  0  0  0  0
 22 17  1  0  0  0  0
 22 39  1  0  0  0  0
 23 24  1  0  0  0  0
 24 25  1  0  0  0  0
 24 40  1  0  0  0  0
 24 41  1  0  0  0  0
 25 26  1  0  0  0  0
 25 42  1  0  0  0  0
 25 43  1  0  0  0  0
 26 27  1  0  0  0  0
 27 44  1  0  0  0  0
 27 45  1  0  0  0  0
 27 46  1  0  0  0  0
M  END
>  <Mol_ID>
5056

>  <Formula>
C21H19N3O3

>  <MolWeight>
361.39386

>  <Cat>
S0268

>  <Name>
DMX-5084

>  <Synonyms>
N/A

>  <Target>
MAP4K

>  <Form>
free base

>  <CAS>
2306178-56-1

>  <URL>
http://www.selleckchem.com/products/dmx-5084.html

$$$$
