DNPH1i(N6-benzyladenosine)
 OpenBabel08302521333D

 45 48  0  0  0  0  0  0  0  0999 V2000
    1.5461    0.3182   -0.0716 O   0  0  0  0  0  0  0  0  0  0  0  0
   -1.9248    1.0381    0.5600 O   0  0  0  0  0  0  0  0  0  0  0  0
   -0.8763   -1.3293    0.8581 O   0  0  0  0  0  0  0  0  0  0  0  0
    2.6527   -0.8452   -2.4155 O   0  0  0  0  0  0  0  0  0  0  0  0
    0.9146    2.5946   -0.0059 N   0  0  0  0  0  0  0  0  0  0  0  0
    1.6154    4.6828    0.3537 N   0  0  0  0  0  0  0  0  0  0  0  0
    1.1619    2.4852   -2.4258 N   0  0  0  0  0  0  0  0  0  0  0  0
    2.8697    6.3116   -1.9162 N   0  0  0  0  0  0  0  0  0  0  0  0
    2.2346    4.4764   -3.3016 N   0  0  0  0  0  0  0  0  0  0  0  0
   -0.8068    0.7725   -0.2864 C   0  0  1  0  0  0  0  0  0  0  0  0
    0.5094    1.2448    0.3297 C   0  0  1  0  0  0  0  0  0  0  0  0
   -0.5644   -0.7250   -0.4158 C   0  0  1  0  0  0  0  0  0  0  0  0
    0.9248   -0.8203   -0.7235 C   0  0  1  0  0  0  0  0  0  0  0  0
    1.2415   -0.7860   -2.2192 C   0  0  0  0  0  0  0  0  0  0  0  0
    1.2380    3.0980   -1.2364 C   0  0  0  0  0  0  0  0  0  0  0  0
    1.1385    3.5904    0.9123 C   0  0  0  0  0  0  0  0  0  0  0  0
    1.7188    4.3747   -0.9898 C   0  0  0  0  0  0  0  0  0  0  0  0
    2.2616    5.0813   -2.0876 C   0  0  0  0  0  0  0  0  0  0  0  0
    1.6742    3.2542   -3.4071 C   0  0  0  0  0  0  0  0  0  0  0  0
    3.7648    6.8107   -2.9366 C   0  0  0  0  0  0  0  0  0  0  0  0
    4.6758    7.8570   -2.3252 C   0  0  0  0  0  0  0  0  0  0  0  0
    5.4601    7.5360   -1.2009 C   0  0  0  0  0  0  0  0  0  0  0  0
    4.7904    9.1353   -2.8830 C   0  0  0  0  0  0  0  0  0  0  0  0
    6.3417    8.4713   -0.6575 C   0  0  0  0  0  0  0  0  0  0  0  0
    5.6765   10.0708   -2.3363 C   0  0  0  0  0  0  0  0  0  0  0  0
    6.4483    9.7372   -1.2230 C   0  0  0  0  0  0  0  0  0  0  0  0
   -2.0849    0.2125    1.0712 H   0  0  0  0  0  0  0  0  0  0  0  0
   -0.0693   -1.3461    1.4071 H   0  0  0  0  0  0  0  0  0  0  0  0
    3.0277   -0.0900   -1.9214 H   0  0  0  0  0  0  0  0  0  0  0  0
    2.3436    6.9754   -1.3666 H   0  0  0  0  0  0  0  0  0  0  0  0
   -0.9951    1.2256   -1.2639 H   0  0  0  0  0  0  0  0  0  0  0  0
    0.4515    1.1931    1.4246 H   0  0  0  0  0  0  0  0  0  0  0  0
   -1.2087   -1.2017   -1.1590 H   0  0  0  0  0  0  0  0  0  0  0  0
    1.3762   -1.7157   -0.2823 H   0  0  0  0  0  0  0  0  0  0  0  0
    0.7934   -1.6411   -2.7326 H   0  0  0  0  0  0  0  0  0  0  0  0
    0.8761    0.1192   -2.7024 H   0  0  0  0  0  0  0  0  0  0  0  0
    0.9592    3.4601    1.9727 H   0  0  0  0  0  0  0  0  0  0  0  0
    1.6410    2.8360   -4.4062 H   0  0  0  0  0  0  0  0  0  0  0  0
    4.4112    6.0116   -3.3200 H   0  0  0  0  0  0  0  0  0  0  0  0
    3.2027    7.2223   -3.7828 H   0  0  0  0  0  0  0  0  0  0  0  0
    5.3807    6.5516   -0.7513 H   0  0  0  0  0  0  0  0  0  0  0  0
    4.1994    9.4141   -3.7521 H   0  0  0  0  0  0  0  0  0  0  0  0
    6.9401    8.2056    0.2131 H   0  0  0  0  0  0  0  0  0  0  0  0
    5.7610   11.0590   -2.7755 H   0  0  0  0  0  0  0  0  0  0  0  0
    7.1437   10.4669   -0.8052 H   0  0  0  0  0  0  0  0  0  0  0  0
  1 11  1  0  0  0  0
  1 13  1  0  0  0  0
  2 27  1  0  0  0  0
  3 28  1  0  0  0  0
  4 14  1  0  0  0  0
  4 29  1  0  0  0  0
  5 15  1  0  0  0  0
  5 16  1  0  0  0  0
  6 16  2  0  0  0  0
  6 17  1  0  0  0  0
  7 15  1  0  0  0  0
  7 19  2  0  0  0  0
  8 18  1  0  0  0  0
  8 20  1  0  0  0  0
  8 30  1  0  0  0  0
  9 18  2  0  0  0  0
  9 19  1  0  0  0  0
 10  2  1  0  0  0  0
 10 11  1  0  0  0  0
 10 12  1  0  0  0  0
 10 31  1  6  0  0  0
 11 32  1  1  0  0  0
 11  5  1  0  0  0  0
 12  3  1  0  0  0  0
 12 13  1  0  0  0  0
 12 33  1  6  0  0  0
 13 34  1  1  0  0  0
 13 14  1  0  0  0  0
 14 35  1  0  0  0  0
 14 36  1  0  0  0  0
 15 17  2  0  0  0  0
 16 37  1  0  0  0  0
 17 18  1  0  0  0  0
 19 38  1  0  0  0  0
 20 21  1  0  0  0  0
 20 39  1  0  0  0  0
 20 40  1  0  0  0  0
 21 22  2  0  0  0  0
 21 23  1  0  0  0  0
 22 24  1  0  0  0  0
 22 41  1  0  0  0  0
 23 25  2  0  0  0  0
 23 42  1  0  0  0  0
 24 26  2  0  0  0  0
 24 43  1  0  0  0  0
 25 26  1  0  0  0  0
 25 44  1  0  0  0  0
 26 45  1  0  0  0  0
M  END
>  <Mol_ID>
6397

>  <Formula>
C17H19N5O4

>  <MolWeight>
357.36386

>  <Cat>
E1093

>  <Name>
DNPH1i(N6-benzyladenosine)

>  <Synonyms>
N6-benzyladenosine, BAPR

>  <Target>
Adenosine Deaminase

>  <Form>
free base

>  <CAS>
4294-16-0

>  <URL>
http://www.selleckchem.com/products/dnph1i-n6-benzyladenosine.html

$$$$
