DNQX
 OpenBabel08302521353D

 22 23  0  0  0  0  0  0  0  0999 V2000
    1.0548    0.0036    0.1367 N   0  3  0  0  0  0  0  0  0  0  0  0
    0.5262   -0.3772    1.1870 O   0  5  0  0  0  0  0  0  0  0  0  0
    0.4892    0.5527   -0.8179 O   0  0  0  0  0  0  0  0  0  0  0  0
    2.4971   -2.6061   -0.0369 N   0  3  0  0  0  0  0  0  0  0  0  0
    1.3121   -2.6241   -0.3779 O   0  5  0  0  0  0  0  0  0  0  0  0
    3.1781   -3.6159    0.1881 O   0  0  0  0  0  0  0  0  0  0  0  0
    7.2508    3.4709    0.0875 O   0  0  0  0  0  0  0  0  0  0  0  0
    8.6547    1.0130    0.0868 O   0  0  0  0  0  0  0  0  0  0  0  0
    2.4960   -0.0897    0.0664 C   0  0  0  0  0  0  0  0  0  0  0  0
    3.1776   -1.3111    0.0476 C   0  0  0  0  0  0  0  0  0  0  0  0
    3.1926    1.1335    0.0809 C   0  0  0  0  0  0  0  0  0  0  0  0
    4.5862   -1.3082    0.0547 C   0  0  0  0  0  0  0  0  0  0  0  0
    4.5837    1.1206    0.0799 C   0  0  0  0  0  0  0  0  0  0  0  0
    5.2779   -0.0954    0.0721 C   0  0  0  0  0  0  0  0  0  0  0  0
    5.2881    2.3253    0.0886 N   0  0  0  0  0  0  0  0  0  0  0  0
    6.6730   -0.0979    0.0754 N   0  0  0  0  0  0  0  0  0  0  0  0
    6.6651    2.3975    0.0885 C   0  0  0  0  0  0  0  0  0  0  0  0
    7.4337    1.0532    0.0835 C   0  0  0  0  0  0  0  0  0  0  0  0
    2.6463    2.0760    0.0991 H   0  0  0  0  0  0  0  0  0  0  0  0
    5.1447   -2.2434    0.0357 H   0  0  0  0  0  0  0  0  0  0  0  0
    4.8112    3.2175    0.0903 H   0  0  0  0  0  0  0  0  0  0  0  0
    7.2015   -0.9619    0.0743 H   0  0  0  0  0  0  0  0  0  0  0  0
  1  2  1  0  0  0  0
  1  3  2  0  0  0  0
  1  9  1  0  0  0  0
  4  5  1  0  0  0  0
  4  6  2  0  0  0  0
  4 10  1  0  0  0  0
  7 17  2  0  0  0  0
  8 18  2  0  0  0  0
  9 10  2  0  0  0  0
  9 11  1  0  0  0  0
 10 12  1  0  0  0  0
 11 13  2  0  0  0  0
 11 19  1  0  0  0  0
 12 14  2  0  0  0  0
 12 20  1  0  0  0  0
 13 14  1  0  0  0  0
 13 15  1  0  0  0  0
 14 16  1  0  0  0  0
 15 17  1  0  0  0  0
 15 21  1  0  0  0  0
 16 18  1  0  0  0  0
 16 22  1  0  0  0  0
 17 18  1  0  0  0  0
M  CHG  4   1   1   2  -1   4   1   5  -1
M  END
>  <Mol_ID>
6913

>  <Formula>
C8H4N4O6

>  <MolWeight>
252.14056

>  <Cat>
E1259

>  <Name>
DNQX

>  <Synonyms>
FG 9041

>  <Target>
Calcium Channel,GluR

>  <Form>
Free base

>  <CAS>
2379-57-9

>  <URL>
https://www.selleckchem.com/products/dnqx.html

$$$$
