Dolasetron Mesylate
 OpenBabel08302520323D

 53 56  0  0  0  0  0  0  0  0999 V2000
   -3.2495   -2.6430   -1.9236 C   0  0  1  0  0  0  0  0  0  0  0  0
   -2.5962   -1.7839   -2.8382 N   0  0  3  0  0  0  0  0  0  0  0  0
   -4.2023   -3.0400   -3.3062 C   0  0  0  0  0  0  0  0  0  0  0  0
   -2.4066   -1.5431   -0.9300 C   0  0  0  0  0  0  0  0  0  0  0  0
   -3.4910   -0.6101   -3.0840 C   0  0  2  0  0  0  0  0  0  0  0  0
   -1.7544   -2.5115   -3.7881 C   0  0  0  0  0  0  0  0  0  0  0  0
   -3.9594   -2.2103   -4.7413 C   0  0  1  0  0  0  0  0  0  0  0  0
   -1.7501   -0.0879   -1.5177 C   0  0  2  0  0  0  0  0  0  0  0  0
   -3.9377   -0.6738   -4.5101 C   0  0  0  0  0  0  0  0  0  0  0  0
   -2.8928    0.5605   -2.3285 C   0  0  0  0  0  0  0  0  0  0  0  0
   -2.5059   -2.4618   -5.0614 C   0  0  0  0  0  0  0  0  0  0  0  0
   -0.6468   -0.1199   -2.5238 O   0  0  0  0  0  0  0  0  0  0  0  0
   -1.9914   -2.4522   -6.1715 O   0  0  0  0  0  0  0  0  0  0  0  0
    0.5041   -0.8079   -2.2730 C   0  0  0  0  0  0  0  0  0  0  0  0
    1.4214   -1.0331   -3.4227 C   0  0  0  0  0  0  0  0  0  0  0  0
    0.7352   -1.3106   -1.1685 O   0  0  0  0  0  0  0  0  0  0  0  0
    2.7724   -1.5381   -3.3096 C   0  0  0  0  0  0  0  0  0  0  0  0
    1.2060   -0.9356   -4.8006 C   0  0  0  0  0  0  0  0  0  0  0  0
    3.3291   -1.6713   -4.5808 C   0  0  0  0  0  0  0  0  0  0  0  0
    3.5671   -1.8950   -2.2020 C   0  0  0  0  0  0  0  0  0  0  0  0
    2.3262   -1.3786   -5.4754 N   0  0  0  0  0  0  0  0  0  0  0  0
    4.6584   -2.0599   -4.7913 C   0  0  0  0  0  0  0  0  0  0  0  0
    4.8951   -2.2703   -2.3846 C   0  0  0  0  0  0  0  0  0  0  0  0
    5.4453   -2.3260   -3.6585 C   0  0  0  0  0  0  0  0  0  0  0  0
    1.1130    1.3663    2.0508 S   0  0  0  0  0  0  0  0  0  0  0  0
    0.1512    0.5403    3.2893 C   0  0  0  0  0  0  0  0  0  0  0  0
    0.6168    2.8753    2.3235 O   0  0  0  0  0  0  0  0  0  0  0  0
    0.6319    1.0345    0.7313 O   0  0  0  0  0  0  0  0  0  0  0  0
    2.5233    1.3140    2.3956 O   0  0  0  0  0  0  0  0  0  0  0  0
   -4.1655   -2.4989   -1.3183 H   0  0  0  0  0  0  0  0  0  0  0  0
   -5.2675   -2.9659   -3.0578 H   0  0  0  0  0  0  0  0  0  0  0  0
   -3.9818   -4.0990   -3.5134 H   0  0  0  0  0  0  0  0  0  0  0  0
   -3.1182   -1.2207   -0.1485 H   0  0  0  0  0  0  0  0  0  0  0  0
   -1.6139   -2.1020   -0.4180 H   0  0  0  0  0  0  0  0  0  0  0  0
   -4.4497   -0.7363   -2.5415 H   0  0  0  0  0  0  0  0  0  0  0  0
   -0.7774   -2.0922   -3.8964 H   0  0  0  0  0  0  0  0  0  0  0  0
   -1.6105   -3.5590   -3.4867 H   0  0  0  0  0  0  0  0  0  0  0  0
   -4.5846   -2.5552   -5.5638 H   0  0  0  0  0  0  0  0  0  0  0  0
   -1.4393    0.5538   -0.6874 H   0  0  0  0  0  0  0  0  0  0  0  0
   -3.2394   -0.1312   -5.1583 H   0  0  0  0  0  0  0  0  0  0  0  0
   -4.9360   -0.2454   -4.6379 H   0  0  0  0  0  0  0  0  0  0  0  0
   -3.6325    0.9628   -1.6192 H   0  0  0  0  0  0  0  0  0  0  0  0
   -2.5637    1.3698   -2.9837 H   0  0  0  0  0  0  0  0  0  0  0  0
    0.3248   -0.6790   -5.3825 H   0  0  0  0  0  0  0  0  0  0  0  0
    3.1403   -1.8654   -1.1995 H   0  0  0  0  0  0  0  0  0  0  0  0
    2.4036   -1.4917   -6.4834 H   0  0  0  0  0  0  0  0  0  0  0  0
    5.0922   -2.1410   -5.7852 H   0  0  0  0  0  0  0  0  0  0  0  0
    5.5003   -2.5125   -1.5135 H   0  0  0  0  0  0  0  0  0  0  0  0
    6.4949   -2.5938   -3.7754 H   0  0  0  0  0  0  0  0  0  0  0  0
    0.4348    0.9297    4.2716 H   0  0  0  0  0  0  0  0  0  0  0  0
   -0.9088    0.7115    3.0945 H   0  0  0  0  0  0  0  0  0  0  0  0
    0.3721   -0.5297    3.2401 H   0  0  0  0  0  0  0  0  0  0  0  0
    0.8243    3.4028    1.5234 H   0  0  0  0  0  0  0  0  0  0  0  0
  1  2  1  0  0  0  0
  1  3  1  0  0  0  0
  1  4  1  0  0  0  0
  1 30  1  6  0  0  0
  2  5  1  0  0  0  0
  2  6  1  0  0  0  0
  3 31  1  0  0  0  0
  3 32  1  0  0  0  0
  4  8  1  0  0  0  0
  4 33  1  0  0  0  0
  4 34  1  0  0  0  0
  5  9  1  0  0  0  0
  5 10  1  0  0  0  0
  5 35  1  1  0  0  0
  6 11  1  0  0  0  0
  6 36  1  0  0  0  0
  6 37  1  0  0  0  0
  7  3  1  0  0  0  0
  7  9  1  0  0  0  0
  7 11  1  0  0  0  0
  7 38  1  6  0  0  0
  8 10  1  0  0  0  0
  8 39  1  1  0  0  0
  8 12  1  0  0  0  0
  9 40  1  0  0  0  0
  9 41  1  0  0  0  0
 10 42  1  0  0  0  0
 10 43  1  0  0  0  0
 11 13  2  0  0  0  0
 12 14  1  0  0  0  0
 14 15  1  0  0  0  0
 14 16  2  0  0  0  0
 15 17  1  0  0  0  0
 15 18  2  0  0  0  0
 17 19  2  0  0  0  0
 17 20  1  0  0  0  0
 18 21  1  0  0  0  0
 18 44  1  0  0  0  0
 19 22  1  0  0  0  0
 19 21  1  0  0  0  0
 20 23  2  0  0  0  0
 20 45  1  0  0  0  0
 21 46  1  0  0  0  0
 22 24  2  0  0  0  0
 22 47  1  0  0  0  0
 23 24  1  0  0  0  0
 23 48  1  0  0  0  0
 24 49  1  0  0  0  0
 25 26  1  0  0  0  0
 25 27  1  0  0  0  0
 25 28  2  0  0  0  0
 25 29  2  0  0  0  0
 26 50  1  0  0  0  0
 26 51  1  0  0  0  0
 26 52  1  0  0  0  0
 27 53  1  0  0  0  0
M  END
>  <Mol_ID>
3359

>  <Formula>
C20H24N2O6S

>  <MolWeight>
420.47936

>  <Cat>
S5679

>  <Name>
Dolasetron Mesylate

>  <Synonyms>
Anzemet hydrate,MDL-73147EF

>  <Target>
5-HT Receptor

>  <Form>
Mesylate

>  <CAS>
115956-13-3

>  <URL>
http://www.selleckchem.com/products/dolasetron-mesylate.html

$$$$
