domiphen bromide.cdx
 OpenBabel08302522043D

 65 64  0  0  0  0  0  0  0  0999 V2000
    4.1620   -1.6015   -7.4951 C   0  0  0  0  0  0  0  0  0  0  0  0
    3.7856   -2.4226   -6.2607 C   0  0  0  0  0  0  0  0  0  0  0  0
    3.5575   -2.1203   -8.7865 C   0  0  0  0  0  0  0  0  0  0  0  0
    2.2873   -2.4934   -5.9867 C   0  0  0  0  0  0  0  0  0  0  0  0
    2.0007   -3.3031   -4.7208 C   0  0  0  0  0  0  0  0  0  0  0  0
    0.5047   -3.3649   -4.4345 C   0  0  0  0  0  0  0  0  0  0  0  0
    0.2133   -4.1552   -3.1578 C   0  0  0  0  0  0  0  0  0  0  0  0
   -1.2911   -4.2082   -2.9099 C   0  0  0  0  0  0  0  0  0  0  0  0
   -1.6463   -4.9748   -1.6407 C   0  0  0  0  0  0  0  0  0  0  0  0
   -3.1577   -5.1007   -1.4321 C   0  0  0  0  0  0  0  0  0  0  0  0
   -3.9258   -5.7820   -2.5879 C   0  0  0  0  0  0  0  0  0  0  0  0
   -3.4120   -7.2055   -2.7684 C   0  0  0  0  0  0  0  0  0  0  0  0
   -4.0151   -8.0430   -3.9090 N   0  3  0  0  0  0  0  0  0  0  0  0
   -3.2790   -9.4553   -3.8943 C   0  0  0  0  0  0  0  0  0  0  0  0
   -5.5199   -8.2618   -3.8095 C   0  0  0  0  0  0  0  0  0  0  0  0
   -3.7507   -7.3279   -5.2475 C   0  0  0  0  0  0  0  0  0  0  0  0
   -3.4601  -10.2196   -2.5590 C   0  0  0  0  0  0  0  0  0  0  0  0
   -2.5511  -11.2888   -2.3173 O   0  0  0  0  0  0  0  0  0  0  0  0
   -2.7184  -12.5238   -2.8552 C   0  0  0  0  0  0  0  0  0  0  0  0
   -3.5468  -12.8741   -3.9119 C   0  0  0  0  0  0  0  0  0  0  0  0
   -3.3909  -14.1254   -4.5205 C   0  0  0  0  0  0  0  0  0  0  0  0
   -2.4428  -15.0356   -4.0453 C   0  0  0  0  0  0  0  0  0  0  0  0
   -1.7042  -14.7287   -2.9127 C   0  0  0  0  0  0  0  0  0  0  0  0
   -1.8504  -13.4787   -2.3163 C   0  0  0  0  0  0  0  0  0  0  0  0
   -2.5238    1.2600    0.3761 Br  0  5  0  0  0  0  0  0  0  0  0  0
    5.2279   -1.6262   -7.5957 H   0  0  0  0  0  0  0  0  0  0  0  0
    3.8635   -0.5501   -7.3475 H   0  0  0  0  0  0  0  0  0  0  0  0
    4.1828   -3.4444   -6.3770 H   0  0  0  0  0  0  0  0  0  0  0  0
    4.2938   -1.9919   -5.3905 H   0  0  0  0  0  0  0  0  0  0  0  0
    4.0980   -1.7093   -9.6455 H   0  0  0  0  0  0  0  0  0  0  0  0
    3.6162   -3.2121   -8.8432 H   0  0  0  0  0  0  0  0  0  0  0  0
    2.5104   -1.8245   -8.8774 H   0  0  0  0  0  0  0  0  0  0  0  0
    1.8859   -1.4776   -5.8748 H   0  0  0  0  0  0  0  0  0  0  0  0
    1.7672   -2.9560   -6.8338 H   0  0  0  0  0  0  0  0  0  0  0  0
    2.3948   -4.3207   -4.8364 H   0  0  0  0  0  0  0  0  0  0  0  0
    2.5195   -2.8503   -3.8657 H   0  0  0  0  0  0  0  0  0  0  0  0
    0.1046   -2.3490   -4.3346 H   0  0  0  0  0  0  0  0  0  0  0  0
   -0.0109   -3.8318   -5.2813 H   0  0  0  0  0  0  0  0  0  0  0  0
    0.6076   -5.1735   -3.2550 H   0  0  0  0  0  0  0  0  0  0  0  0
    0.7179   -3.6888   -2.3030 H   0  0  0  0  0  0  0  0  0  0  0  0
   -1.6929   -3.1908   -2.8321 H   0  0  0  0  0  0  0  0  0  0  0  0
   -1.7578   -4.6758   -3.7830 H   0  0  0  0  0  0  0  0  0  0  0  0
   -1.1798   -5.9771   -1.6678 H   0  0  0  0  0  0  0  0  0  0  0  0
   -1.2028   -4.4766   -0.7717 H   0  0  0  0  0  0  0  0  0  0  0  0
   -3.3378   -5.6572   -0.5044 H   0  0  0  0  0  0  0  0  0  0  0  0
   -3.5798   -4.0934   -1.2771 H   0  0  0  0  0  0  0  0  0  0  0  0
   -4.9883   -5.7905   -2.3309 H   0  0  0  0  0  0  0  0  0  0  0  0
   -3.8290   -5.1802   -3.4937 H   0  0  0  0  0  0  0  0  0  0  0  0
   -2.3225   -7.2281   -2.9307 H   0  0  0  0  0  0  0  0  0  0  0  0
   -3.6383   -7.7231   -1.8402 H   0  0  0  0  0  0  0  0  0  0  0  0
   -3.6651  -10.0207   -4.7425 H   0  0  0  0  0  0  0  0  0  0  0  0
   -2.2115   -9.2513   -4.0851 H   0  0  0  0  0  0  0  0  0  0  0  0
   -6.0055   -7.2943   -3.6826 H   0  0  0  0  0  0  0  0  0  0  0  0
   -5.8567   -8.7239   -4.7412 H   0  0  0  0  0  0  0  0  0  0  0  0
   -5.7395   -8.9216   -2.9703 H   0  0  0  0  0  0  0  0  0  0  0  0
   -4.2144   -6.3352   -5.2116 H   0  0  0  0  0  0  0  0  0  0  0  0
   -2.6787   -7.2488   -5.4030 H   0  0  0  0  0  0  0  0  0  0  0  0
   -4.2187   -7.9058   -6.0539 H   0  0  0  0  0  0  0  0  0  0  0  0
   -3.1932   -9.5506   -1.7343 H   0  0  0  0  0  0  0  0  0  0  0  0
   -4.4904  -10.5289   -2.3654 H   0  0  0  0  0  0  0  0  0  0  0  0
   -4.3009  -12.2048   -4.3097 H   0  0  0  0  0  0  0  0  0  0  0  0
   -3.9870  -14.3937   -5.3916 H   0  0  0  0  0  0  0  0  0  0  0  0
   -2.2865  -15.9853   -4.5515 H   0  0  0  0  0  0  0  0  0  0  0  0
   -0.9926  -15.4451   -2.5030 H   0  0  0  0  0  0  0  0  0  0  0  0
   -1.2601  -13.2358   -1.4330 H   0  0  0  0  0  0  0  0  0  0  0  0
  1  2  1  0  0  0  0
  1  3  1  0  0  0  0
  1 26  1  0  0  0  0
  1 27  1  0  0  0  0
  2  4  1  0  0  0  0
  2 28  1  0  0  0  0
  2 29  1  0  0  0  0
  3 30  1  0  0  0  0
  3 31  1  0  0  0  0
  3 32  1  0  0  0  0
  4  5  1  0  0  0  0
  4 33  1  0  0  0  0
  4 34  1  0  0  0  0
  5  6  1  0  0  0  0
  5 35  1  0  0  0  0
  5 36  1  0  0  0  0
  6  7  1  0  0  0  0
  6 37  1  0  0  0  0
  6 38  1  0  0  0  0
  7  8  1  0  0  0  0
  7 39  1  0  0  0  0
  7 40  1  0  0  0  0
  8  9  1  0  0  0  0
  8 41  1  0  0  0  0
  8 42  1  0  0  0  0
  9 10  1  0  0  0  0
  9 43  1  0  0  0  0
  9 44  1  0  0  0  0
 10 11  1  0  0  0  0
 10 45  1  0  0  0  0
 10 46  1  0  0  0  0
 11 12  1  0  0  0  0
 11 47  1  0  0  0  0
 11 48  1  0  0  0  0
 12 13  1  0  0  0  0
 12 49  1  0  0  0  0
 12 50  1  0  0  0  0
 13 14  1  0  0  0  0
 13 15  1  0  0  0  0
 13 16  1  0  0  0  0
 14 17  1  0  0  0  0
 14 51  1  0  0  0  0
 14 52  1  0  0  0  0
 15 53  1  0  0  0  0
 15 54  1  0  0  0  0
 15 55  1  0  0  0  0
 16 56  1  0  0  0  0
 16 57  1  0  0  0  0
 16 58  1  0  0  0  0
 17 18  1  0  0  0  0
 17 59  1  0  0  0  0
 17 60  1  0  0  0  0
 18 19  1  0  0  0  0
 19 20  2  0  0  0  0
 20 21  1  0  0  0  0
 20 61  1  0  0  0  0
 21 22  2  0  0  0  0
 21 62  1  0  0  0  0
 22 23  1  0  0  0  0
 22 63  1  0  0  0  0
 23 24  2  0  0  0  0
 23 64  1  0  0  0  0
 24 19  1  0  0  0  0
 24 65  1  0  0  0  0
M  CHG  2  13   1  25  -1
M  END
>  <Mol_ID>
1308

>  <Formula>
C22H40BrNO

>  <MolWeight>
414.4631

>  <Cat>
S4186

>  <Name>
Domiphen Bromide

>  <Synonyms>
NSC-39415

>  <Target>
Potassium Channel

>  <Form>
free base

>  <CAS>
538-71-6

>  <URL>
http://selleckchem.com/products/domiphen-bromide.html

$$$$
