Domperidone.cdx
 OpenBabel08302521383D

 54 58  0  0  0  0  0  0  0  0999 V2000
    3.5931   -3.0459    0.8249 C   0  0  0  0  0  0  0  0  0  0  0  0
    2.4308   -2.1072    0.4583 C   0  0  0  0  0  0  0  0  0  0  0  0
    1.0571   -2.4312    1.0667 C   0  0  0  0  0  0  0  0  0  0  0  0
    0.8485   -2.2239    2.5235 N   0  0  0  0  0  0  0  0  0  0  0  0
    4.7914   -2.6704    0.0832 N   0  0  0  0  0  0  0  0  0  0  0  0
    4.8455   -2.6987   -1.3344 C   0  0  0  0  0  0  0  0  0  0  0  0
    5.8140   -1.7598   -1.7196 N   0  0  0  0  0  0  0  0  0  0  0  0
    6.3562   -1.1757   -0.5839 C   0  0  0  0  0  0  0  0  0  0  0  0
    5.7744   -1.7708    0.5365 C   0  0  0  0  0  0  0  0  0  0  0  0
    7.2955   -0.1734   -0.4941 C   0  0  0  0  0  0  0  0  0  0  0  0
    7.7351    0.1610    0.7885 C   0  0  0  0  0  0  0  0  0  0  0  0
    7.2274   -0.5074    1.9234 C   0  0  0  0  0  0  0  0  0  0  0  0
    6.2111   -1.4673    1.8071 C   0  0  0  0  0  0  0  0  0  0  0  0
    1.0845   -0.8157    2.8998 C   0  0  0  0  0  0  0  0  0  0  0  0
    0.6557   -0.4711    4.3369 C   0  0  0  0  0  0  0  0  0  0  0  0
   -0.8142   -0.8255    4.5391 C   0  0  0  0  0  0  0  0  0  0  0  0
   -0.9964   -2.3178    4.2632 C   0  0  0  0  0  0  0  0  0  0  0  0
   -0.5398   -2.6446    2.8376 C   0  0  0  0  0  0  0  0  0  0  0  0
   -1.4379   -0.4068    5.7843 N   0  0  0  0  0  0  0  0  0  0  0  0
   -1.0593   -0.6871    7.1122 C   0  0  0  0  0  0  0  0  0  0  0  0
   -2.1419   -0.3666    7.9382 C   0  0  0  0  0  0  0  0  0  0  0  0
   -3.1703    0.1247    7.1492 N   0  0  0  0  0  0  0  0  0  0  0  0
   -2.7737    0.0728    5.8071 C   0  0  0  0  0  0  0  0  0  0  0  0
    0.0960   -1.1978    7.6597 C   0  0  0  0  0  0  0  0  0  0  0  0
    0.1240   -1.4030    9.0488 C   0  0  0  0  0  0  0  0  0  0  0  0
   -0.9919   -1.1096    9.8586 C   0  0  0  0  0  0  0  0  0  0  0  0
   -2.1505   -0.5710    9.3008 C   0  0  0  0  0  0  0  0  0  0  0  0
    4.1547   -3.3535   -2.0959 O   0  0  0  0  0  0  0  0  0  0  0  0
   -3.4848    0.3606    4.8624 O   0  0  0  0  0  0  0  0  0  0  0  0
    3.3389   -4.0721    0.5345 H   0  0  0  0  0  0  0  0  0  0  0  0
    3.7953   -3.0327    1.8997 H   0  0  0  0  0  0  0  0  0  0  0  0
    2.7094   -1.0671    0.6588 H   0  0  0  0  0  0  0  0  0  0  0  0
    2.2911   -2.1541   -0.6318 H   0  0  0  0  0  0  0  0  0  0  0  0
    0.3268   -1.8146    0.5204 H   0  0  0  0  0  0  0  0  0  0  0  0
    0.8187   -3.4733    0.8139 H   0  0  0  0  0  0  0  0  0  0  0  0
    6.0341   -1.5485   -2.6782 H   0  0  0  0  0  0  0  0  0  0  0  0
    7.6791    0.3343   -1.3708 H   0  0  0  0  0  0  0  0  0  0  0  0
    8.4921    0.9331    0.9139 H   0  0  0  0  0  0  0  0  0  0  0  0
    7.6405   -0.2755    2.9034 H   0  0  0  0  0  0  0  0  0  0  0  0
    5.8395   -1.9888    2.6807 H   0  0  0  0  0  0  0  0  0  0  0  0
    0.5646   -0.1410    2.2062 H   0  0  0  0  0  0  0  0  0  0  0  0
    2.1562   -0.6004    2.8199 H   0  0  0  0  0  0  0  0  0  0  0  0
    0.8134    0.5982    4.5188 H   0  0  0  0  0  0  0  0  0  0  0  0
    1.2988   -1.0150    5.0329 H   0  0  0  0  0  0  0  0  0  0  0  0
   -1.3689   -0.2903    3.7535 H   0  0  0  0  0  0  0  0  0  0  0  0
   -0.4424   -2.9202    4.9885 H   0  0  0  0  0  0  0  0  0  0  0  0
   -2.0590   -2.5957    4.3703 H   0  0  0  0  0  0  0  0  0  0  0  0
   -0.6255   -3.7287    2.6969 H   0  0  0  0  0  0  0  0  0  0  0  0
   -1.2481   -2.1780    2.1397 H   0  0  0  0  0  0  0  0  0  0  0  0
   -4.0897    0.4061    7.4468 H   0  0  0  0  0  0  0  0  0  0  0  0
    0.9690   -1.4320    7.0689 H   0  0  0  0  0  0  0  0  0  0  0  0
    1.0235   -1.8022    9.5128 H   0  0  0  0  0  0  0  0  0  0  0  0
   -0.9485   -1.3086   10.9272 H   0  0  0  0  0  0  0  0  0  0  0  0
   -3.0157   -0.3430    9.9121 H   0  0  0  0  0  0  0  0  0  0  0  0
  1  2  1  0  0  0  0
  1  5  1  0  0  0  0
  1 30  1  0  0  0  0
  1 31  1  0  0  0  0
  2  3  1  0  0  0  0
  2 32  1  0  0  0  0
  2 33  1  0  0  0  0
  3  4  1  0  0  0  0
  3 34  1  0  0  0  0
  3 35  1  0  0  0  0
  4 14  1  0  0  0  0
  5  6  1  0  0  0  0
  6  7  1  0  0  0  0
  6 28  2  0  0  0  0
  7  8  1  0  0  0  0
  7 36  1  0  0  0  0
  8  9  2  0  0  0  0
  8 10  1  0  0  0  0
  9  5  1  0  0  0  0
 10 11  2  0  0  0  0
 10 37  1  0  0  0  0
 11 12  1  0  0  0  0
 11 38  1  0  0  0  0
 12 13  2  0  0  0  0
 12 39  1  0  0  0  0
 13  9  1  0  0  0  0
 13 40  1  0  0  0  0
 14 15  1  0  0  0  0
 14 41  1  0  0  0  0
 14 42  1  0  0  0  0
 15 16  1  0  0  0  0
 15 43  1  0  0  0  0
 15 44  1  0  0  0  0
 16 17  1  0  0  0  0
 16 19  1  0  0  0  0
 16 45  1  0  0  0  0
 17 18  1  0  0  0  0
 17 46  1  0  0  0  0
 17 47  1  0  0  0  0
 18  4  1  0  0  0  0
 18 48  1  0  0  0  0
 18 49  1  0  0  0  0
 19 20  1  0  0  0  0
 20 21  2  0  0  0  0
 20 24  1  0  0  0  0
 21 22  1  0  0  0  0
 22 23  1  0  0  0  0
 22 50  1  0  0  0  0
 23 19  1  0  0  0  0
 23 29  2  0  0  0  0
 24 25  2  0  0  0  0
 24 51  1  0  0  0  0
 25 26  1  0  0  0  0
 25 52  1  0  0  0  0
 26 27  2  0  0  0  0
 26 53  1  0  0  0  0
 27 21  1  0  0  0  0
 27 54  1  0  0  0  0
M  END
>  <Mol_ID>
742

>  <Formula>
C22H24ClN5O2

>  <MolWeight>
425.91126

>  <Cat>
S2461

>  <Name>
Domperidone

>  <Synonyms>
N/A

>  <Target>
Dopamine Receptor

>  <Form>
free base

>  <CAS>
57808-66-9

>  <URL>
http://selleckchem.com/products/Domperidone(Motilium).html

$$$$
