Donepezil HCl.cdx
 OpenBabel08302521383D

 57 60  0  0  0  0  0  0  0  0999 V2000
   -3.5864    5.7272   -3.8663 C   0  0  0  0  0  0  0  0  0  0  0  0
   -3.3303    4.7077   -2.9595 C   0  0  0  0  0  0  0  0  0  0  0  0
   -2.3008    4.8961   -2.0532 C   0  0  0  0  0  0  0  0  0  0  0  0
   -1.5631    6.0602   -1.9373 C   0  0  0  0  0  0  0  0  0  0  0  0
   -1.8329    7.1099   -2.8171 C   0  0  0  0  0  0  0  0  0  0  0  0
   -2.8290    6.9306   -3.8164 C   0  0  0  0  0  0  0  0  0  0  0  0
   -3.9503    3.3358   -2.8034 C   0  0  0  0  0  0  0  0  0  0  0  0
   -3.4296    2.8619   -1.4151 C   0  0  3  0  0  0  0  0  0  0  0  0
   -2.1681    3.6919   -1.2551 C   0  0  0  0  0  0  0  0  0  0  0  0
   -3.1864    7.8224   -4.8018 O   0  0  0  0  0  0  0  0  0  0  0  0
   -1.1764    8.3104   -2.7451 O   0  0  0  0  0  0  0  0  0  0  0  0
   -2.3825    8.9801   -5.0025 C   0  0  0  0  0  0  0  0  0  0  0  0
   -0.1746    8.4732   -1.7467 C   0  0  0  0  0  0  0  0  0  0  0  0
   -3.1117    1.3743   -1.1977 C   0  0  0  0  0  0  0  0  0  0  0  0
   -4.2911    0.3738   -1.1460 C   0  0  0  0  0  0  0  0  0  0  0  0
   -1.1870    3.4422   -0.5765 O   0  0  0  0  0  0  0  0  0  0  0  0
   -5.3577    0.6748   -0.0855 C   0  0  0  0  0  0  0  0  0  0  0  0
   -4.8578    0.4780    1.3535 C   0  0  0  0  0  0  0  0  0  0  0  0
   -4.2820   -0.8533    1.6062 N   0  0  0  0  0  0  0  0  0  0  0  0
   -3.2968   -1.2406    0.5815 C   0  0  0  0  0  0  0  0  0  0  0  0
   -3.7898   -1.0575   -0.8616 C   0  0  0  0  0  0  0  0  0  0  0  0
   -3.6212   -0.9001    2.9361 C   0  0  0  0  0  0  0  0  0  0  0  0
   -4.5381   -0.7230    4.1312 C   0  0  0  0  0  0  0  0  0  0  0  0
   -5.5890   -1.6201    4.3689 C   0  0  0  0  0  0  0  0  0  0  0  0
   -6.3998   -1.4789    5.4974 C   0  0  0  0  0  0  0  0  0  0  0  0
   -6.1663   -0.4507    6.4049 C   0  0  0  0  0  0  0  0  0  0  0  0
   -5.1201    0.4440    6.1885 C   0  0  0  0  0  0  0  0  0  0  0  0
   -4.3088    0.3064    5.0591 C   0  0  0  0  0  0  0  0  0  0  0  0
   -4.3575    5.6175   -4.6248 H   0  0  0  0  0  0  0  0  0  0  0  0
   -0.8164    6.1126   -1.1547 H   0  0  0  0  0  0  0  0  0  0  0  0
   -3.6034    2.6844   -3.6124 H   0  0  0  0  0  0  0  0  0  0  0  0
   -5.0451    3.3824   -2.8084 H   0  0  0  0  0  0  0  0  0  0  0  0
   -4.1145    3.2116   -0.6309 H   0  0  0  0  0  0  0  0  0  0  0  0
   -2.5667    9.7177   -4.2145 H   0  0  0  0  0  0  0  0  0  0  0  0
   -1.3185    8.7379   -5.0963 H   0  0  0  0  0  0  0  0  0  0  0  0
   -2.6819    9.4392   -5.9505 H   0  0  0  0  0  0  0  0  0  0  0  0
   -0.6236    8.5023   -0.7483 H   0  0  0  0  0  0  0  0  0  0  0  0
    0.5944    7.6966   -1.8148 H   0  0  0  0  0  0  0  0  0  0  0  0
    0.3192    9.4338   -1.9213 H   0  0  0  0  0  0  0  0  0  0  0  0
   -2.4004    1.0427   -1.9668 H   0  0  0  0  0  0  0  0  0  0  0  0
   -2.5609    1.3012   -0.2518 H   0  0  0  0  0  0  0  0  0  0  0  0
   -4.7694    0.3796   -2.1336 H   0  0  0  0  0  0  0  0  0  0  0  0
   -5.7501    1.6891   -0.2057 H   0  0  0  0  0  0  0  0  0  0  0  0
   -6.2099    0.0001   -0.2522 H   0  0  0  0  0  0  0  0  0  0  0  0
   -4.1368    1.2689    1.5915 H   0  0  0  0  0  0  0  0  0  0  0  0
   -5.7223    0.6188    2.0140 H   0  0  0  0  0  0  0  0  0  0  0  0
   -3.0512   -2.3042    0.7155 H   0  0  0  0  0  0  0  0  0  0  0  0
   -2.3576   -0.6898    0.7138 H   0  0  0  0  0  0  0  0  0  0  0  0
   -4.6084   -1.7662   -1.0464 H   0  0  0  0  0  0  0  0  0  0  0  0
   -2.9867   -1.3260   -1.5587 H   0  0  0  0  0  0  0  0  0  0  0  0
   -3.1306   -1.8743    3.0690 H   0  0  0  0  0  0  0  0  0  0  0  0
   -2.8180   -0.1510    2.9780 H   0  0  0  0  0  0  0  0  0  0  0  0
   -5.7725   -2.4349    3.6728 H   0  0  0  0  0  0  0  0  0  0  0  0
   -7.2111   -2.1844    5.6731 H   0  0  0  0  0  0  0  0  0  0  0  0
   -6.7980   -0.3470    7.2849 H   0  0  0  0  0  0  0  0  0  0  0  0
   -4.9310    1.2433    6.9007 H   0  0  0  0  0  0  0  0  0  0  0  0
   -3.4879    1.0051    4.9149 H   0  0  0  0  0  0  0  0  0  0  0  0
  1  2  2  0  0  0  0
  1 29  1  0  0  0  0
  2  3  1  0  0  0  0
  2  7  1  0  0  0  0
  3  4  2  0  0  0  0
  4  5  1  0  0  0  0
  4 30  1  0  0  0  0
  5  6  2  0  0  0  0
  5 11  1  0  0  0  0
  6  1  1  0  0  0  0
  6 10  1  0  0  0  0
  7  8  1  0  0  0  0
  7 31  1  0  0  0  0
  7 32  1  0  0  0  0
  8  9  1  0  0  0  0
  8 14  1  0  0  0  0
  8 33  1  0  0  0  0
  9  3  1  0  0  0  0
  9 16  2  0  0  0  0
 10 12  1  0  0  0  0
 11 13  1  0  0  0  0
 12 34  1  0  0  0  0
 12 35  1  0  0  0  0
 12 36  1  0  0  0  0
 13 37  1  0  0  0  0
 13 38  1  0  0  0  0
 13 39  1  0  0  0  0
 14 15  1  0  0  0  0
 14 40  1  0  0  0  0
 14 41  1  0  0  0  0
 15 17  1  0  0  0  0
 15 42  1  0  0  0  0
 17 18  1  0  0  0  0
 17 43  1  0  0  0  0
 17 44  1  0  0  0  0
 18 19  1  0  0  0  0
 18 45  1  0  0  0  0
 18 46  1  0  0  0  0
 19 20  1  0  0  0  0
 19 22  1  0  0  0  0
 20 21  1  0  0  0  0
 20 47  1  0  0  0  0
 20 48  1  0  0  0  0
 21 15  1  0  0  0  0
 21 49  1  0  0  0  0
 21 50  1  0  0  0  0
 22 23  1  0  0  0  0
 22 51  1  0  0  0  0
 22 52  1  0  0  0  0
 23 24  2  0  0  0  0
 24 25  1  0  0  0  0
 24 53  1  0  0  0  0
 25 26  2  0  0  0  0
 25 54  1  0  0  0  0
 26 27  1  0  0  0  0
 26 55  1  0  0  0  0
 27 28  2  0  0  0  0
 27 56  1  0  0  0  0
 28 23  1  0  0  0  0
 28 57  1  0  0  0  0
M  END
>  <Mol_ID>
7758

>  <Formula>
C24H30ClNO3

>  <MolWeight>
415.9529

>  <Cat>
S2462

>  <Name>
Donepezil HCl

>  <Synonyms>
N/A

>  <Target>
AChR

>  <Form>
Hydrochloride

>  <CAS>
120011-70-3

>  <URL>
http://selleckchem.com/products/Donepezil-hydrochloride(Aricept).html

$$$$
