Dooku1
 OpenBabel08302521293D

 29 31  0  0  0  0  0  0  0  0999 V2000
    0.9471    0.0549    0.2601 S   0  0  0  0  0  0  0  0  0  0  0  0
    3.4261   -0.9713   -0.3875 O   0  0  0  0  0  0  0  0  0  0  0  0
    7.1517   -0.8267   -0.2660 N   0  0  0  0  0  0  0  0  0  0  0  0
    4.7570    0.4810    0.6650 N   0  0  0  0  0  0  0  0  0  0  0  0
    3.4483    0.8504    0.9018 N   0  0  0  0  0  0  0  0  0  0  0  0
   -0.9406   -1.9779    0.0562 C   0  0  0  0  0  0  0  0  0  0  0  0
    0.5443   -1.6931    0.0387 C   0  0  0  0  0  0  0  0  0  0  0  0
    5.8840   -1.2558   -0.5879 C   0  0  0  0  0  0  0  0  0  0  0  0
   -1.6863   -1.9927   -1.1327 C   0  0  0  0  0  0  0  0  0  0  0  0
   -1.5941   -2.2809    1.2612 C   0  0  0  0  0  0  0  0  0  0  0  0
    4.7175   -0.5886   -0.1054 C   0  0  0  0  0  0  0  0  0  0  0  0
    6.0193   -2.3587   -1.4067 C   0  0  0  0  0  0  0  0  0  0  0  0
    2.6877   -0.0215    0.2705 C   0  0  0  0  0  0  0  0  0  0  0  0
   -3.0373   -2.3535   -1.1217 C   0  0  0  0  0  0  0  0  0  0  0  0
   -2.9444   -2.6407    1.2698 C   0  0  0  0  0  0  0  0  0  0  0  0
    8.0831   -1.6418   -0.8609 C   0  0  0  0  0  0  0  0  0  0  0  0
    7.4065   -2.6022   -1.5787 C   0  0  0  0  0  0  0  0  0  0  0  0
   -3.6628   -2.6888    0.0776 C   0  0  0  0  0  0  0  0  0  0  0  0
    7.3559   -0.0276    0.3199 H   0  0  0  0  0  0  0  0  0  0  0  0
    0.9672   -2.0504   -0.9070 H   0  0  0  0  0  0  0  0  0  0  0  0
    1.0243   -2.2724    0.8361 H   0  0  0  0  0  0  0  0  0  0  0  0
   -1.2170   -1.7427   -2.0820 H   0  0  0  0  0  0  0  0  0  0  0  0
   -1.0499   -2.2581    2.2030 H   0  0  0  0  0  0  0  0  0  0  0  0
    5.2085   -2.9296   -1.8412 H   0  0  0  0  0  0  0  0  0  0  0  0
   -3.6005   -2.3841   -2.0512 H   0  0  0  0  0  0  0  0  0  0  0  0
   -3.4335   -2.8949    2.2073 H   0  0  0  0  0  0  0  0  0  0  0  0
    9.1416   -1.4637   -0.7232 H   0  0  0  0  0  0  0  0  0  0  0  0
    7.8616   -3.3912   -2.1636 H   0  0  0  0  0  0  0  0  0  0  0  0
   -4.7086   -2.9860    0.0829 H   0  0  0  0  0  0  0  0  0  0  0  0
  1  7  1  0  0  0  0
  1 13  1  0  0  0  0
  2 11  1  0  0  0  0
  2 13  1  0  0  0  0
  3  8  1  0  0  0  0
  3 16  1  0  0  0  0
  3 19  1  0  0  0  0
  4  5  1  0  0  0  0
  4 11  2  0  0  0  0
  5 13  2  0  0  0  0
  6  7  1  0  0  0  0
  6  9  2  0  0  0  0
  6 10  1  0  0  0  0
  7 20  1  0  0  0  0
  7 21  1  0  0  0  0
  8 11  1  0  0  0  0
  8 12  2  0  0  0  0
  9 14  1  0  0  0  0
  9 22  1  0  0  0  0
 10 15  2  0  0  0  0
 10 23  1  0  0  0  0
 12 17  1  0  0  0  0
 12 24  1  0  0  0  0
 14 18  2  0  0  0  0
 14 25  1  0  0  0  0
 15 18  1  0  0  0  0
 15 26  1  0  0  0  0
 16 17  2  0  0  0  0
 16 27  1  0  0  0  0
 17 28  1  0  0  0  0
 18 29  1  0  0  0  0
M  END
>  <Mol_ID>
5425

>  <Formula>
C13H9Cl2N3OS

>  <MolWeight>
326.20106

>  <Cat>
S2953

>  <Name>
Dooku1

>  <Synonyms>
N/A

>  <Target>
Mechanosensitive Channel

>  <Form>
Free Base

>  <CAS>
2253744-54-4

>  <URL>
https://www.selleckchem.com/products/dooku1.html

$$$$
