Dorsomorphin.cdx
 OpenBabel08302521393D

 55 59  0  0  0  0  0  0  0  0999 V2000
    1.1589   -0.2236    0.5944 C   0  0  0  0  0  0  0  0  0  0  0  0
    0.4328   -1.3443    0.1815 C   0  0  0  0  0  0  0  0  0  0  0  0
   -0.9214   -1.2019   -0.1241 C   0  0  0  0  0  0  0  0  0  0  0  0
   -1.5463    0.0443   -0.0170 C   0  0  0  0  0  0  0  0  0  0  0  0
   -0.8151    1.1677    0.3854 C   0  0  0  0  0  0  0  0  0  0  0  0
    0.5385    1.0261    0.6978 C   0  0  0  0  0  0  0  0  0  0  0  0
    0.9541   -2.5999   -0.0078 O   0  0  0  0  0  0  0  0  0  0  0  0
    2.0746   -2.9158    0.8247 C   0  0  0  0  0  0  0  0  0  0  0  0
    2.6125   -4.3249    0.5043 C   0  0  0  0  0  0  0  0  0  0  0  0
    3.8509   -4.6102    1.2490 N   0  0  0  0  0  0  0  0  0  0  0  0
    3.6284   -4.7561    2.6942 C   0  0  0  0  0  0  0  0  0  0  0  0
    4.9695   -4.7917    3.4251 C   0  0  0  0  0  0  0  0  0  0  0  0
    5.8913   -5.8807    2.8885 C   0  0  0  0  0  0  0  0  0  0  0  0
    5.9408   -5.8844    1.3625 C   0  0  0  0  0  0  0  0  0  0  0  0
    4.5463   -5.7975    0.7351 C   0  0  0  0  0  0  0  0  0  0  0  0
   -1.4527    2.4800    0.4246 C   0  0  0  0  0  0  0  0  0  0  0  0
   -1.8801    3.0745    1.5497 C   0  0  0  0  0  0  0  0  0  0  0  0
   -2.5270    4.3058    1.4909 N   0  0  0  0  0  0  0  0  0  0  0  0
   -2.7536    4.9394    0.2617 C   0  0  0  0  0  0  0  0  0  0  0  0
   -2.2925    4.4085   -0.9161 N   0  0  0  0  0  0  0  0  0  0  0  0
   -1.6890    3.2626   -0.8251 C   0  0  0  0  0  0  0  0  0  0  0  0
   -3.0274    5.0219    2.5268 N   0  0  0  0  0  0  0  0  0  0  0  0
   -3.6043    6.0767    1.9493 C   0  0  0  0  0  0  0  0  0  0  0  0
   -3.4856    6.0803    0.5430 C   0  0  0  0  0  0  0  0  0  0  0  0
   -3.9806    7.0205   -0.4489 C   0  0  0  0  0  0  0  0  0  0  0  0
   -4.1034    8.3791   -0.1440 C   0  0  0  0  0  0  0  0  0  0  0  0
   -4.5759    9.2392   -1.1267 C   0  0  0  0  0  0  0  0  0  0  0  0
   -4.9315    8.8440   -2.3671 N   0  0  0  0  0  0  0  0  0  0  0  0
   -4.8109    7.5307   -2.6393 C   0  0  0  0  0  0  0  0  0  0  0  0
   -4.3553    6.5949   -1.7258 C   0  0  0  0  0  0  0  0  0  0  0  0
    2.2197   -0.2749    0.8147 H   0  0  0  0  0  0  0  0  0  0  0  0
   -1.4960   -2.0666   -0.4473 H   0  0  0  0  0  0  0  0  0  0  0  0
   -2.6033    0.1296   -0.2616 H   0  0  0  0  0  0  0  0  0  0  0  0
    1.1320    1.8877    0.9974 H   0  0  0  0  0  0  0  0  0  0  0  0
    2.8943   -2.2104    0.6531 H   0  0  0  0  0  0  0  0  0  0  0  0
    1.7456   -2.8585    1.8677 H   0  0  0  0  0  0  0  0  0  0  0  0
    1.8419   -5.0850    0.6740 H   0  0  0  0  0  0  0  0  0  0  0  0
    2.8233   -4.3441   -0.5752 H   0  0  0  0  0  0  0  0  0  0  0  0
    3.0448   -5.6597    2.9132 H   0  0  0  0  0  0  0  0  0  0  0  0
    3.0698   -3.9083    3.1009 H   0  0  0  0  0  0  0  0  0  0  0  0
    4.7997   -4.9470    4.4968 H   0  0  0  0  0  0  0  0  0  0  0  0
    5.4610   -3.8156    3.3216 H   0  0  0  0  0  0  0  0  0  0  0  0
    6.9007   -5.7387    3.2920 H   0  0  0  0  0  0  0  0  0  0  0  0
    5.5406   -6.8571    3.2424 H   0  0  0  0  0  0  0  0  0  0  0  0
    6.5433   -5.0333    1.0192 H   0  0  0  0  0  0  0  0  0  0  0  0
    6.4497   -6.7912    1.0161 H   0  0  0  0  0  0  0  0  0  0  0  0
    4.6683   -5.7341   -0.3528 H   0  0  0  0  0  0  0  0  0  0  0  0
    3.9772   -6.7132    0.9451 H   0  0  0  0  0  0  0  0  0  0  0  0
   -1.7801    2.6446    2.5374 H   0  0  0  0  0  0  0  0  0  0  0  0
   -1.2960    2.8065   -1.7522 H   0  0  0  0  0  0  0  0  0  0  0  0
   -4.1058    6.7985    2.5815 H   0  0  0  0  0  0  0  0  0  0  0  0
   -3.8242    8.7783    0.8234 H   0  0  0  0  0  0  0  0  0  0  0  0
   -4.6759   10.3030   -0.9366 H   0  0  0  0  0  0  0  0  0  0  0  0
   -5.0968    7.2300   -3.6432 H   0  0  0  0  0  0  0  0  0  0  0  0
   -4.2953    5.5518   -2.0189 H   0  0  0  0  0  0  0  0  0  0  0  0
  1  2  2  0  0  0  0
  1 31  1  0  0  0  0
  2  3  1  0  0  0  0
  2  7  1  0  0  0  0
  3  4  2  0  0  0  0
  3 32  1  0  0  0  0
  4  5  1  0  0  0  0
  4 33  1  0  0  0  0
  5  6  2  0  0  0  0
  5 16  1  0  0  0  0
  6  1  1  0  0  0  0
  6 34  1  0  0  0  0
  7  8  1  0  0  0  0
  8  9  1  0  0  0  0
  8 35  1  0  0  0  0
  8 36  1  0  0  0  0
  9 10  1  0  0  0  0
  9 37  1  0  0  0  0
  9 38  1  0  0  0  0
 10 11  1  0  0  0  0
 11 12  1  0  0  0  0
 11 39  1  0  0  0  0
 11 40  1  0  0  0  0
 12 13  1  0  0  0  0
 12 41  1  0  0  0  0
 12 42  1  0  0  0  0
 13 14  1  0  0  0  0
 13 43  1  0  0  0  0
 13 44  1  0  0  0  0
 14 15  1  0  0  0  0
 14 45  1  0  0  0  0
 14 46  1  0  0  0  0
 15 10  1  0  0  0  0
 15 47  1  0  0  0  0
 15 48  1  0  0  0  0
 16 17  2  0  0  0  0
 17 18  1  0  0  0  0
 17 49  1  0  0  0  0
 18 19  1  0  0  0  0
 18 22  1  0  0  0  0
 19 20  1  0  0  0  0
 20 21  2  0  0  0  0
 21 16  1  0  0  0  0
 21 50  1  0  0  0  0
 22 23  2  0  0  0  0
 23 24  1  0  0  0  0
 23 51  1  0  0  0  0
 24 19  2  0  0  0  0
 24 25  1  0  0  0  0
 25 26  2  0  0  0  0
 26 27  1  0  0  0  0
 26 52  1  0  0  0  0
 27 28  2  0  0  0  0
 27 53  1  0  0  0  0
 28 29  1  0  0  0  0
 29 30  2  0  0  0  0
 29 54  1  0  0  0  0
 30 25  1  0  0  0  0
 30 55  1  0  0  0  0
M  END
>  <Mol_ID>
8172

>  <Formula>
C24H25N5O

>  <MolWeight>
399.4882

>  <Cat>
S7840

>  <Name>
Dorsomorphin (Compound C)

>  <Synonyms>
BML-275,Compound C

>  <Target>
AMPK,Autophagy,TGF-beta/Smad

>  <Form>
Free Base

>  <CAS>
866405-64-3

>  <URL>
http://selleckchem.com/products/dorsomorphin.html

$$$$
