Dorzolamide HCL.cdx
 OpenBabel08302520433D

 35 36  0  0  0  0  0  0  0  0999 V2000
   -2.2717   -0.6114   -0.0235 C   0  0  0  0  0  0  0  0  0  0  0  0
   -2.4398    0.8966   -0.2884 C   0  0  1  0  0  0  0  0  0  0  0  0
   -1.0739    1.9472    0.1739 S   0  0  0  0  0  0  0  0  0  0  0  0
    0.3039    0.8897   -0.0799 C   0  0  0  0  0  0  0  0  0  0  0  0
    0.3193   -0.4809   -0.1955 C   0  0  0  0  0  0  0  0  0  0  0  0
   -0.8998   -1.3416    0.0133 C   0  0  1  0  0  0  0  0  0  0  0  0
    1.8537    1.5882   -0.1175 S   0  0  0  0  0  0  0  0  0  0  0  0
    2.6003    0.0619   -0.3039 C   0  0  0  0  0  0  0  0  0  0  0  0
    1.6592   -0.9433   -0.4438 C   0  0  0  0  0  0  0  0  0  0  0  0
   -0.6789   -1.9846    1.3186 N   0  0  0  0  0  0  0  0  0  0  0  0
   -1.6701   -2.9619    1.7688 C   0  0  0  0  0  0  0  0  0  0  0  0
   -1.8599   -4.1485    0.8391 C   0  0  0  0  0  0  0  0  0  0  0  0
    4.3685    0.0359   -0.2085 S   0  0  0  0  0  0  0  0  0  0  0  0
    4.6987    0.4500    1.1325 O   0  0  0  0  0  0  0  0  0  0  0  0
    4.7740   -1.2492   -0.7360 O   0  0  0  0  0  0  0  0  0  0  0  0
    5.0025    1.2114   -1.2280 N   0  0  0  0  0  0  0  0  0  0  0  0
   -2.9429    1.1672   -1.7040 C   0  0  0  0  0  0  0  0  0  0  0  0
   -0.9275    3.0189   -0.7884 O   0  0  0  0  0  0  0  0  0  0  0  0
   -1.1168    2.1864    1.6024 O   0  0  0  0  0  0  0  0  0  0  0  0
   -2.7876   -0.7678    0.9295 H   0  0  0  0  0  0  0  0  0  0  0  0
   -2.9023   -1.1705   -0.7314 H   0  0  0  0  0  0  0  0  0  0  0  0
   -3.2489    1.2393    0.3744 H   0  0  0  0  0  0  0  0  0  0  0  0
   -0.8866   -2.1053   -0.7759 H   0  0  0  0  0  0  0  0  0  0  0  0
    1.9416   -1.9811   -0.5880 H   0  0  0  0  0  0  0  0  0  0  0  0
    0.2392   -2.4298    1.3306 H   0  0  0  0  0  0  0  0  0  0  0  0
   -1.3333   -3.3374    2.7426 H   0  0  0  0  0  0  0  0  0  0  0  0
   -2.6380   -2.4937    1.9708 H   0  0  0  0  0  0  0  0  0  0  0  0
   -0.9142   -4.6706    0.6661 H   0  0  0  0  0  0  0  0  0  0  0  0
   -2.5608   -4.8599    1.2887 H   0  0  0  0  0  0  0  0  0  0  0  0
   -2.2758   -3.8449   -0.1265 H   0  0  0  0  0  0  0  0  0  0  0  0
    4.8452    2.1358   -0.8234 H   0  0  0  0  0  0  0  0  0  0  0  0
    6.0006    1.0324   -1.3509 H   0  0  0  0  0  0  0  0  0  0  0  0
   -3.8742    0.6176   -1.8877 H   0  0  0  0  0  0  0  0  0  0  0  0
   -3.1704    2.2286   -1.8430 H   0  0  0  0  0  0  0  0  0  0  0  0
   -2.2108    0.8692   -2.4552 H   0  0  0  0  0  0  0  0  0  0  0  0
  1  2  1  0  0  0  0
  1 20  1  0  0  0  0
  1 21  1  0  0  0  0
  2  3  1  0  0  0  0
  2 17  1  0  0  0  0
  2 22  1  1  0  0  0
  3  4  1  0  0  0  0
  3 18  2  0  0  0  0
  3 19  2  0  0  0  0
  4  5  2  0  0  0  0
  4  7  1  0  0  0  0
  5  6  1  0  0  0  0
  6  1  1  0  0  0  0
  6 10  1  0  0  0  0
  6 23  1  6  0  0  0
  7  8  1  0  0  0  0
  8  9  2  0  0  0  0
  8 13  1  0  0  0  0
  9  5  1  0  0  0  0
  9 24  1  0  0  0  0
 10 11  1  0  0  0  0
 10 25  1  0  0  0  0
 11 12  1  0  0  0  0
 11 26  1  0  0  0  0
 11 27  1  0  0  0  0
 12 28  1  0  0  0  0
 12 29  1  0  0  0  0
 12 30  1  0  0  0  0
 13 14  2  0  0  0  0
 13 15  2  0  0  0  0
 13 16  1  0  0  0  0
 16 31  1  0  0  0  0
 16 32  1  0  0  0  0
 17 33  1  0  0  0  0
 17 34  1  0  0  0  0
 17 35  1  0  0  0  0
M  END
>  <Mol_ID>
4018

>  <Formula>
C10H17ClN2O4S3

>  <MolWeight>
360.90098

>  <Cat>
S1375

>  <Name>
Dorzolamide HCl

>  <Synonyms>
MK-507 (L-671152) HCl

>  <Target>
Carbonic Anhydrase

>  <Form>
Hydrochloride

>  <CAS>
130693-82-2

>  <URL>
http://selleckchem.com/products/Dorzolamide-HCL.html

$$$$
