Doxazosin
 OpenBabel08302520353D

 58 62  0  0  0  0  0  0  0  0999 V2000
    1.1953    0.5774    1.3275 C   0  0  0  0  0  0  0  0  0  0  0  0
   -0.0034    0.5062    0.6216 C   0  0  0  0  0  0  0  0  0  0  0  0
    2.1377   -0.3768    1.2520 N   0  0  0  0  0  0  0  0  0  0  0  0
    1.3949    1.6983    2.1171 C   0  0  0  0  0  0  0  0  0  0  0  0
   -0.9630    1.5458    0.7121 C   0  0  0  0  0  0  0  0  0  0  0  0
   -0.1496   -0.6371   -0.1599 C   0  0  0  0  0  0  0  0  0  0  0  0
    1.9329   -1.4200    0.4404 C   0  0  0  0  0  0  0  0  0  0  0  0
    0.4657    2.7500    2.2162 C   0  0  0  0  0  0  0  0  0  0  0  0
   -0.7341    2.6810    1.4940 C   0  0  0  0  0  0  0  0  0  0  0  0
    0.7959   -1.5737   -0.2556 N   0  0  0  0  0  0  0  0  0  0  0  0
   -1.3184   -0.8984   -0.8869 N   0  0  0  0  0  0  0  0  0  0  0  0
    2.9352   -2.3333    0.2361 N   0  0  0  0  0  0  0  0  0  0  0  0
    0.8993    3.7498    3.0493 O   0  0  0  0  0  0  0  0  0  0  0  0
   -1.6217    3.7167    1.5799 O   0  0  0  0  0  0  0  0  0  0  0  0
    4.0716   -2.5168    1.1425 C   0  0  0  0  0  0  0  0  0  0  0  0
    2.8212   -3.2727   -0.8701 C   0  0  0  0  0  0  0  0  0  0  0  0
   -2.8078    3.6717    0.7965 C   0  0  0  0  0  0  0  0  0  0  0  0
    5.4031   -2.7268    0.3588 C   0  0  0  0  0  0  0  0  0  0  0  0
    4.1199   -3.2254   -1.6739 C   0  0  0  0  0  0  0  0  0  0  0  0
    5.2551   -3.5988   -0.8312 N   0  0  0  0  0  0  0  0  0  0  0  0
    6.2010   -4.5805   -1.1274 C   0  0  0  0  0  0  0  0  0  0  0  0
    5.9228   -5.5730   -2.3107 C   0  0  3  0  0  0  0  0  0  0  0  0
    7.1720   -4.7519   -0.3842 O   0  0  0  0  0  0  0  0  0  0  0  0
    5.4160   -5.0753   -3.5423 O   0  0  0  0  0  0  0  0  0  0  0  0
    7.1146   -6.4957   -2.6050 C   0  0  0  0  0  0  0  0  0  0  0  0
    6.3986   -4.4936   -4.2891 C   0  0  0  0  0  0  0  0  0  0  0  0
    8.1662   -5.8723   -3.3584 O   0  0  0  0  0  0  0  0  0  0  0  0
    7.7319   -4.8806   -4.1921 C   0  0  0  0  0  0  0  0  0  0  0  0
    6.0149   -3.4685   -5.1522 C   0  0  0  0  0  0  0  0  0  0  0  0
    8.6968   -4.2121   -4.9414 C   0  0  0  0  0  0  0  0  0  0  0  0
    6.9870   -2.7685   -5.8642 C   0  0  0  0  0  0  0  0  0  0  0  0
    8.3285   -3.1369   -5.7544 C   0  0  0  0  0  0  0  0  0  0  0  0
    0.0675    4.8797    3.2650 C   0  0  0  0  0  0  0  0  0  0  0  0
    2.3266    1.7699    2.6825 H   0  0  0  0  0  0  0  0  0  0  0  0
   -1.8873    1.4327    0.1547 H   0  0  0  0  0  0  0  0  0  0  0  0
   -1.5602   -0.1331   -1.5066 H   0  0  0  0  0  0  0  0  0  0  0  0
   -1.1626   -1.7608   -1.3982 H   0  0  0  0  0  0  0  0  0  0  0  0
    4.1993   -1.6812    1.8405 H   0  0  0  0  0  0  0  0  0  0  0  0
    3.8805   -3.4111    1.7504 H   0  0  0  0  0  0  0  0  0  0  0  0
    2.6574   -4.2844   -0.4781 H   0  0  0  0  0  0  0  0  0  0  0  0
    2.0017   -3.0523   -1.5619 H   0  0  0  0  0  0  0  0  0  0  0  0
   -2.5790    3.5985   -0.2719 H   0  0  0  0  0  0  0  0  0  0  0  0
   -3.4599    2.8546    1.1215 H   0  0  0  0  0  0  0  0  0  0  0  0
   -3.3468    4.6109    0.9541 H   0  0  0  0  0  0  0  0  0  0  0  0
    5.7558   -1.7552   -0.0100 H   0  0  0  0  0  0  0  0  0  0  0  0
    6.1705   -3.1148    1.0368 H   0  0  0  0  0  0  0  0  0  0  0  0
    4.3138   -2.2064   -2.0350 H   0  0  0  0  0  0  0  0  0  0  0  0
    3.9936   -3.8602   -2.5400 H   0  0  0  0  0  0  0  0  0  0  0  0
    5.1284   -6.2174   -1.9083 H   0  0  0  0  0  0  0  0  0  0  0  0
    7.5606   -6.8854   -1.6845 H   0  0  0  0  0  0  0  0  0  0  0  0
    6.7715   -7.3603   -3.1885 H   0  0  0  0  0  0  0  0  0  0  0  0
    4.9690   -3.1889   -5.2382 H   0  0  0  0  0  0  0  0  0  0  0  0
    9.7390   -4.5103   -4.8712 H   0  0  0  0  0  0  0  0  0  0  0  0
    6.7016   -1.9280   -6.4916 H   0  0  0  0  0  0  0  0  0  0  0  0
    9.0905   -2.5805   -6.2940 H   0  0  0  0  0  0  0  0  0  0  0  0
   -0.0816    5.4453    2.3393 H   0  0  0  0  0  0  0  0  0  0  0  0
   -0.8762    4.5986    3.7360 H   0  0  0  0  0  0  0  0  0  0  0  0
    0.5886    5.5428    3.9605 H   0  0  0  0  0  0  0  0  0  0  0  0
  1  2  1  0  0  0  0
  1  3  2  0  0  0  0
  1  4  1  0  0  0  0
  2  5  1  0  0  0  0
  2  6  2  0  0  0  0
  3  7  1  0  0  0  0
  4  8  2  0  0  0  0
  4 34  1  0  0  0  0
  5  9  2  0  0  0  0
  5 35  1  0  0  0  0
  6 10  1  0  0  0  0
  6 11  1  0  0  0  0
  7 12  1  0  0  0  0
  7 10  2  0  0  0  0
  8 13  1  0  0  0  0
  8  9  1  0  0  0  0
  9 14  1  0  0  0  0
 11 36  1  0  0  0  0
 11 37  1  0  0  0  0
 12 15  1  0  0  0  0
 12 16  1  0  0  0  0
 13 33  1  0  0  0  0
 14 17  1  0  0  0  0
 15 18  1  0  0  0  0
 15 38  1  0  0  0  0
 15 39  1  0  0  0  0
 16 19  1  0  0  0  0
 16 40  1  0  0  0  0
 16 41  1  0  0  0  0
 17 42  1  0  0  0  0
 17 43  1  0  0  0  0
 17 44  1  0  0  0  0
 18 20  1  0  0  0  0
 18 45  1  0  0  0  0
 18 46  1  0  0  0  0
 19 20  1  0  0  0  0
 19 47  1  0  0  0  0
 19 48  1  0  0  0  0
 20 21  1  0  0  0  0
 21 22  1  0  0  0  0
 21 23  2  0  0  0  0
 22 24  1  0  0  0  0
 22 25  1  0  0  0  0
 22 49  1  0  0  0  0
 24 26  1  0  0  0  0
 25 27  1  0  0  0  0
 25 50  1  0  0  0  0
 25 51  1  0  0  0  0
 26 28  2  0  0  0  0
 26 29  1  0  0  0  0
 27 28  1  0  0  0  0
 28 30  1  0  0  0  0
 29 31  2  0  0  0  0
 29 52  1  0  0  0  0
 30 32  2  0  0  0  0
 30 53  1  0  0  0  0
 31 32  1  0  0  0  0
 31 54  1  0  0  0  0
 32 55  1  0  0  0  0
 33 56  1  0  0  0  0
 33 57  1  0  0  0  0
 33 58  1  0  0  0  0
M  END
>  <Mol_ID>
3420

>  <Formula>
C23H25N5O5

>  <MolWeight>
451.4751

>  <Cat>
S5782

>  <Name>
Doxazosin

>  <Synonyms>
UK 33274

>  <Target>
Adrenergic Receptor

>  <Form>
Free Base

>  <CAS>
74191-85-8

>  <URL>
http://www.selleckchem.com/products/doxazosin.html

$$$$
