Doxifluridine.cdx
 OpenBabel08302521453D

 28 29  0  0  0  0  0  0  0  0999 V2000
   -0.5981    1.0567    0.4951 N   0  0  0  0  0  0  0  0  0  0  0  0
   -1.3796    0.0159    0.0686 C   0  0  0  0  0  0  0  0  0  0  0  0
   -0.6346   -1.1477   -0.4487 C   0  0  0  0  0  0  0  0  0  0  0  0
    0.6940   -1.0990   -0.5275 C   0  0  0  0  0  0  0  0  0  0  0  0
    1.4067    0.0196   -0.1291 N   0  0  0  0  0  0  0  0  0  0  0  0
    0.7740    1.1152    0.4445 C   0  0  0  0  0  0  0  0  0  0  0  0
    1.3797    2.0900    0.8896 O   0  0  0  0  0  0  0  0  0  0  0  0
   -2.6055    0.0501    0.1168 O   0  0  0  0  0  0  0  0  0  0  0  0
   -1.3430   -2.2225   -0.8420 F   0  0  0  0  0  0  0  0  0  0  0  0
    2.8579    0.0833   -0.2714 C   0  0  2  0  0  0  0  0  0  0  0  0
    3.2805   -0.6870   -1.4086 O   0  0  0  0  0  0  0  0  0  0  0  0
    4.5799   -1.2452   -1.1103 C   0  0  1  0  0  0  0  0  0  0  0  0
    4.9653   -0.7915    0.2997 C   0  0  2  0  0  0  0  0  0  0  0  0
    3.6237   -0.4753    0.9378 C   0  0  1  0  0  0  0  0  0  0  0  0
    4.4623   -2.7563   -1.2343 C   0  0  0  0  0  0  0  0  0  0  0  0
    3.7846    0.4116    2.0448 O   0  0  0  0  0  0  0  0  0  0  0  0
    5.7471    0.4095    0.2302 O   0  0  0  0  0  0  0  0  0  0  0  0
   -1.0773    1.8614    0.8674 H   0  0  0  0  0  0  0  0  0  0  0  0
    1.2503   -1.9421   -0.9241 H   0  0  0  0  0  0  0  0  0  0  0  0
    3.1465    1.1254   -0.4575 H   0  0  0  0  0  0  0  0  0  0  0  0
    5.2823   -0.8655   -1.8604 H   0  0  0  0  0  0  0  0  0  0  0  0
    5.5548   -1.5266    0.8558 H   0  0  0  0  0  0  0  0  0  0  0  0
    3.1579   -1.4000    1.2992 H   0  0  0  0  0  0  0  0  0  0  0  0
    4.1486   -3.0283   -2.2482 H   0  0  0  0  0  0  0  0  0  0  0  0
    5.4172   -3.2457   -1.0221 H   0  0  0  0  0  0  0  0  0  0  0  0
    3.7015   -3.1548   -0.5547 H   0  0  0  0  0  0  0  0  0  0  0  0
    3.4734    1.2992    1.7759 H   0  0  0  0  0  0  0  0  0  0  0  0
    5.8287    0.7215    1.1536 H   0  0  0  0  0  0  0  0  0  0  0  0
  1  2  1  0  0  0  0
  1 18  1  0  0  0  0
  2  3  1  0  0  0  0
  2  8  2  0  0  0  0
  3  4  2  0  0  0  0
  3  9  1  0  0  0  0
  4  5  1  0  0  0  0
  4 19  1  0  0  0  0
  5  6  1  0  0  0  0
  6  1  1  0  0  0  0
  6  7  2  0  0  0  0
 10  5  1  0  0  0  0
 10 11  1  0  0  0  0
 10 20  1  6  0  0  0
 11 12  1  0  0  0  0
 12 13  1  0  0  0  0
 12 15  1  0  0  0  0
 12 21  1  6  0  0  0
 13 14  1  0  0  0  0
 13 22  1  1  0  0  0
 13 17  1  0  0  0  0
 14 10  1  0  0  0  0
 14 16  1  0  0  0  0
 14 23  1  1  0  0  0
 15 24  1  0  0  0  0
 15 25  1  0  0  0  0
 15 26  1  0  0  0  0
 16 27  1  0  0  0  0
 17 28  1  0  0  0  0
M  END
>  <Mol_ID>
960

>  <Formula>
C9H11FN2O5

>  <MolWeight>
246.1924432

>  <Cat>
S2045

>  <Name>
Doxifluridine

>  <Synonyms>
5'-DFUR, AMC 0101

>  <Target>
Phosphorylase

>  <Form>
free base

>  <CAS>
3094-09-5

>  <URL>
http://selleckchem.com/products/doxifluridine.html

$$$$
