Doxofylline.cdx
 OpenBabel08302522043D

 33 35  0  0  0  0  0  0  0  0999 V2000
   -2.1777    0.6322    0.1685 N   0  0  0  0  0  0  0  0  0  0  0  0
   -2.1797   -0.7725    0.0739 C   0  0  0  0  0  0  0  0  0  0  0  0
   -0.9364   -1.4100    0.0629 N   0  0  0  0  0  0  0  0  0  0  0  0
    0.2110   -0.6524    0.0696 C   0  0  0  0  0  0  0  0  0  0  0  0
    0.1706    0.7063    0.1718 C   0  0  0  0  0  0  0  0  0  0  0  0
   -1.0411    1.4356    0.3134 C   0  0  0  0  0  0  0  0  0  0  0  0
    1.4834   -1.1187   -0.0463 N   0  0  0  0  0  0  0  0  0  0  0  0
    2.2286   -0.0322   -0.0621 C   0  0  0  0  0  0  0  0  0  0  0  0
    1.4716    1.1053    0.0482 N   0  0  0  0  0  0  0  0  0  0  0  0
   -0.8517   -2.8576   -0.0213 C   0  0  0  0  0  0  0  0  0  0  0  0
   -3.4476    1.3314    0.1412 C   0  0  0  0  0  0  0  0  0  0  0  0
   -1.0855    2.6406    0.5531 O   0  0  0  0  0  0  0  0  0  0  0  0
   -3.2349   -1.4116    0.0056 O   0  0  0  0  0  0  0  0  0  0  0  0
    1.9756    2.4652   -0.0255 C   0  0  0  0  0  0  0  0  0  0  0  0
    1.9776    3.0298   -1.4499 C   0  0  0  0  0  0  0  0  0  0  0  0
    0.6727    3.0418   -2.0456 O   0  0  0  0  0  0  0  0  0  0  0  0
    0.7880    2.2278   -3.2143 C   0  0  0  0  0  0  0  0  0  0  0  0
    2.2483    2.3159   -3.5699 C   0  0  0  0  0  0  0  0  0  0  0  0
    2.8916    2.3115   -2.2950 O   0  0  0  0  0  0  0  0  0  0  0  0
    3.3041   -0.0104   -0.1716 H   0  0  0  0  0  0  0  0  0  0  0  0
   -0.3317   -3.1330   -0.9444 H   0  0  0  0  0  0  0  0  0  0  0  0
   -0.2890   -3.2299    0.8410 H   0  0  0  0  0  0  0  0  0  0  0  0
   -1.8384   -3.3259   -0.0220 H   0  0  0  0  0  0  0  0  0  0  0  0
   -3.5480    1.9392    1.0465 H   0  0  0  0  0  0  0  0  0  0  0  0
   -3.4523    2.0029   -0.7240 H   0  0  0  0  0  0  0  0  0  0  0  0
   -4.3037    0.6569    0.0675 H   0  0  0  0  0  0  0  0  0  0  0  0
    1.3633    3.0804    0.6391 H   0  0  0  0  0  0  0  0  0  0  0  0
    2.9963    2.4453    0.3755 H   0  0  0  0  0  0  0  0  0  0  0  0
    2.3221    4.0704   -1.4093 H   0  0  0  0  0  0  0  0  0  0  0  0
    0.5026    1.2054   -2.9451 H   0  0  0  0  0  0  0  0  0  0  0  0
    0.1243    2.5902   -4.0039 H   0  0  0  0  0  0  0  0  0  0  0  0
    2.5959    1.4829   -4.1853 H   0  0  0  0  0  0  0  0  0  0  0  0
    2.4844    3.2614   -4.0694 H   0  0  0  0  0  0  0  0  0  0  0  0
  1  2  1  0  0  0  0
  1 11  1  0  0  0  0
  2  3  1  0  0  0  0
  2 13  2  0  0  0  0
  3  4  1  0  0  0  0
  3 10  1  0  0  0  0
  4  5  2  0  0  0  0
  4  7  1  0  0  0  0
  5  6  1  0  0  0  0
  6  1  1  0  0  0  0
  6 12  2  0  0  0  0
  7  8  2  0  0  0  0
  8  9  1  0  0  0  0
  8 20  1  0  0  0  0
  9  5  1  0  0  0  0
  9 14  1  0  0  0  0
 10 21  1  0  0  0  0
 10 22  1  0  0  0  0
 10 23  1  0  0  0  0
 11 24  1  0  0  0  0
 11 25  1  0  0  0  0
 11 26  1  0  0  0  0
 14 15  1  0  0  0  0
 14 27  1  0  0  0  0
 14 28  1  0  0  0  0
 15 16  1  0  0  0  0
 15 29  1  0  0  0  0
 16 17  1  0  0  0  0
 17 18  1  0  0  0  0
 17 30  1  0  0  0  0
 17 31  1  0  0  0  0
 18 19  1  0  0  0  0
 18 32  1  0  0  0  0
 18 33  1  0  0  0  0
 19 15  1  0  0  0  0
M  END
>  <Mol_ID>
1283

>  <Formula>
C11H14N4O4

>  <MolWeight>
266.25326

>  <Cat>
S4164

>  <Name>
Doxofylline

>  <Synonyms>
Doxophylline

>  <Target>
PDE

>  <Form>
free base

>  <CAS>
69975-86-6

>  <URL>
http://selleckchem.com/products/doxofylline.html

$$$$
