Doxylamine succinate.cdx
 OpenBabel08302522043D

 56 56  0  0  0  0  0  0  0  0999 V2000
    1.9060   -0.8714    1.2390 C   0  0  0  0  0  0  0  0  0  0  0  0
    0.9619   -1.8557    0.9195 C   0  0  0  0  0  0  0  0  0  0  0  0
   -0.4012   -1.5518    0.9765 C   0  0  0  0  0  0  0  0  0  0  0  0
   -0.7803   -0.2115    1.2805 C   0  0  0  0  0  0  0  0  0  0  0  0
    0.1599    0.7411    1.6407 C   0  0  0  0  0  0  0  0  0  0  0  0
    1.5035    0.4068    1.6267 C   0  0  0  0  0  0  0  0  0  0  0  0
   -1.5270   -2.6256    0.8713 C   0  0  3  0  0  0  0  0  0  0  0  0
   -2.4142   -2.4031    2.1323 C   0  0  0  0  0  0  0  0  0  0  0  0
   -1.7793   -2.4997    3.3869 C   0  0  0  0  0  0  0  0  0  0  0  0
   -2.4295   -2.0491    4.5273 C   0  0  0  0  0  0  0  0  0  0  0  0
   -3.7168   -1.5564    4.4071 C   0  0  0  0  0  0  0  0  0  0  0  0
   -4.3018   -1.5391    3.1484 C   0  0  0  0  0  0  0  0  0  0  0  0
   -3.6867   -1.9467    2.0082 N   0  0  0  0  0  0  0  0  0  0  0  0
   -2.1630   -2.3945   -0.5192 C   0  0  0  0  0  0  0  0  0  0  0  0
   -1.0133   -3.9953    0.9368 O   0  0  0  0  0  0  0  0  0  0  0  0
   -2.0385   -4.9889    0.7093 C   0  0  0  0  0  0  0  0  0  0  0  0
   -1.5925   -6.4436    0.9620 C   0  0  0  0  0  0  0  0  0  0  0  0
   -0.6910   -7.0105   -0.0657 N   0  0  0  0  0  0  0  0  0  0  0  0
    0.6346   -6.3977    0.0216 C   0  0  0  0  0  0  0  0  0  0  0  0
   -0.6102   -8.4642    0.0725 C   0  0  0  0  0  0  0  0  0  0  0  0
    1.3577    1.2186   -1.7114 C   0  0  0  0  0  0  0  0  0  0  0  0
    0.4784    2.3874   -1.3854 C   0  0  0  0  0  0  0  0  0  0  0  0
    1.0420    0.2180   -2.3315 O   0  0  0  0  0  0  0  0  0  0  0  0
    2.5907    1.3523   -1.1807 O   0  0  0  0  0  0  0  0  0  0  0  0
   -0.4399    2.7723   -2.5316 C   0  0  0  0  0  0  0  0  0  0  0  0
   -1.3123    3.9312   -2.1059 C   0  0  0  0  0  0  0  0  0  0  0  0
   -1.1494    4.6007   -1.0931 O   0  0  0  0  0  0  0  0  0  0  0  0
   -2.3106    4.1875   -2.9801 O   0  0  0  0  0  0  0  0  0  0  0  0
    2.9666   -1.1092    1.2011 H   0  0  0  0  0  0  0  0  0  0  0  0
    1.2907   -2.8547    0.6576 H   0  0  0  0  0  0  0  0  0  0  0  0
   -1.8340    0.0667    1.2834 H   0  0  0  0  0  0  0  0  0  0  0  0
   -0.1693    1.7443    1.9189 H   0  0  0  0  0  0  0  0  0  0  0  0
    2.2432    1.1613    1.8886 H   0  0  0  0  0  0  0  0  0  0  0  0
   -0.7462   -2.8315    3.4512 H   0  0  0  0  0  0  0  0  0  0  0  0
   -1.9154   -2.0490    5.4842 H   0  0  0  0  0  0  0  0  0  0  0  0
   -4.2481   -1.1752    5.2739 H   0  0  0  0  0  0  0  0  0  0  0  0
   -5.3123   -1.1603    3.0172 H   0  0  0  0  0  0  0  0  0  0  0  0
   -1.4599   -2.7229   -1.3001 H   0  0  0  0  0  0  0  0  0  0  0  0
   -3.0839   -2.9656   -0.6666 H   0  0  0  0  0  0  0  0  0  0  0  0
   -2.4056   -1.3464   -0.7206 H   0  0  0  0  0  0  0  0  0  0  0  0
   -2.8820   -4.7987    1.3827 H   0  0  0  0  0  0  0  0  0  0  0  0
   -2.4014   -4.9265   -0.3207 H   0  0  0  0  0  0  0  0  0  0  0  0
   -1.1523   -6.5370    1.9625 H   0  0  0  0  0  0  0  0  0  0  0  0
   -2.5144   -7.0432    0.9607 H   0  0  0  0  0  0  0  0  0  0  0  0
    0.9706   -6.2704    1.0566 H   0  0  0  0  0  0  0  0  0  0  0  0
    1.3890   -6.9957   -0.5020 H   0  0  0  0  0  0  0  0  0  0  0  0
    0.6264   -5.4214   -0.4726 H   0  0  0  0  0  0  0  0  0  0  0  0
   -0.3782   -8.7792    1.0955 H   0  0  0  0  0  0  0  0  0  0  0  0
   -1.5609   -8.9221   -0.2259 H   0  0  0  0  0  0  0  0  0  0  0  0
    0.1492   -8.8848   -0.5973 H   0  0  0  0  0  0  0  0  0  0  0  0
   -0.1259    2.1269   -0.5162 H   0  0  0  0  0  0  0  0  0  0  0  0
    1.1073    3.2394   -1.1047 H   0  0  0  0  0  0  0  0  0  0  0  0
    3.0020    0.4705   -1.2918 H   0  0  0  0  0  0  0  0  0  0  0  0
    0.1474    3.0653   -3.4078 H   0  0  0  0  0  0  0  0  0  0  0  0
   -1.0785    1.9234   -2.8015 H   0  0  0  0  0  0  0  0  0  0  0  0
   -2.3329    3.5838   -3.7484 H   0  0  0  0  0  0  0  0  0  0  0  0
  1  2  2  0  0  0  0
  1 29  1  0  0  0  0
  2  3  1  0  0  0  0
  2 30  1  0  0  0  0
  3  4  2  0  0  0  0
  3  7  1  0  0  0  0
  4  5  1  0  0  0  0
  4 31  1  0  0  0  0
  5  6  2  0  0  0  0
  5 32  1  0  0  0  0
  6  1  1  0  0  0  0
  6 33  1  0  0  0  0
  7  8  1  0  0  0  0
  7 14  1  0  0  0  0
  7 15  1  0  0  0  0
  8  9  2  0  0  0  0
  9 10  1  0  0  0  0
  9 34  1  0  0  0  0
 10 11  2  0  0  0  0
 10 35  1  0  0  0  0
 11 12  1  0  0  0  0
 11 36  1  0  0  0  0
 12 13  2  0  0  0  0
 12 37  1  0  0  0  0
 13  8  1  0  0  0  0
 14 38  1  0  0  0  0
 14 39  1  0  0  0  0
 14 40  1  0  0  0  0
 15 16  1  0  0  0  0
 16 17  1  0  0  0  0
 16 41  1  0  0  0  0
 16 42  1  0  0  0  0
 17 18  1  0  0  0  0
 17 43  1  0  0  0  0
 17 44  1  0  0  0  0
 18 19  1  0  0  0  0
 18 20  1  0  0  0  0
 19 45  1  0  0  0  0
 19 46  1  0  0  0  0
 19 47  1  0  0  0  0
 20 48  1  0  0  0  0
 20 49  1  0  0  0  0
 20 50  1  0  0  0  0
 21 22  1  0  0  0  0
 21 23  2  0  0  0  0
 21 24  1  0  0  0  0
 22 25  1  0  0  0  0
 22 51  1  0  0  0  0
 22 52  1  0  0  0  0
 24 53  1  0  0  0  0
 25 26  1  0  0  0  0
 25 54  1  0  0  0  0
 25 55  1  0  0  0  0
 26 27  2  0  0  0  0
 26 28  1  0  0  0  0
 28 56  1  0  0  0  0
M  END
>  <Mol_ID>
1309

>  <Formula>
C21H28N2O5

>  <MolWeight>
388.45742

>  <Cat>
S4240

>  <Name>
Doxylamine Succinate

>  <Synonyms>
N/A

>  <Target>
Histamine Receptor

>  <Form>
Succinate

>  <CAS>
562-10-7

>  <URL>
http://selleckchem.com/products/doxylamine-succinate.html

$$$$
