DPH
 OpenBabel08302521373D

 38 41  0  0  0  0  0  0  0  0999 V2000
   -0.6153   -2.3367    2.3460 C   0  0  0  0  0  0  0  0  0  0  0  0
    0.6513   -2.3856    1.8791 N   0  0  0  0  0  0  0  0  0  0  0  0
    0.7241   -1.8666    0.6217 C   0  0  0  0  0  0  0  0  0  0  0  0
   -0.6799   -1.4174    0.1985 C   0  0  3  0  0  0  0  0  0  0  0  0
   -1.4143   -1.7659    1.3922 N   0  0  0  0  0  0  0  0  0  0  0  0
   -1.0012   -2.7295    3.4311 O   0  0  0  0  0  0  0  0  0  0  0  0
    1.7489   -1.7882   -0.0404 O   0  0  0  0  0  0  0  0  0  0  0  0
   -1.7537   -3.7529   -2.4322 N   0  0  0  0  0  0  0  0  0  0  0  0
   -2.4398   -2.6574   -2.8439 N   0  0  0  0  0  0  0  0  0  0  0  0
   -2.1831   -1.7013   -1.9369 C   0  0  0  0  0  0  0  0  0  0  0  0
   -1.2529   -2.1630   -0.9526 C   0  0  0  0  0  0  0  0  0  0  0  0
   -1.0054   -3.4723   -1.3137 C   0  0  0  0  0  0  0  0  0  0  0  0
   -1.8615   -5.0051   -3.1048 C   0  0  0  0  0  0  0  0  0  0  0  0
   -2.6556   -5.1135   -4.2561 C   0  0  0  0  0  0  0  0  0  0  0  0
   -2.7853   -6.3450   -4.9045 C   0  0  0  0  0  0  0  0  0  0  0  0
   -2.1315   -7.4737   -4.4120 C   0  0  0  0  0  0  0  0  0  0  0  0
   -1.3397   -7.3733   -3.2713 C   0  0  0  0  0  0  0  0  0  0  0  0
   -1.2005   -6.1451   -2.6189 C   0  0  0  0  0  0  0  0  0  0  0  0
   -2.8094   -0.3751   -2.0380 C   0  0  0  0  0  0  0  0  0  0  0  0
   -3.2108    0.3231   -0.8879 C   0  0  0  0  0  0  0  0  0  0  0  0
   -3.7013    1.6266   -0.9723 C   0  0  0  0  0  0  0  0  0  0  0  0
   -3.8320    2.2256   -2.2157 C   0  0  0  0  0  0  0  0  0  0  0  0
   -3.5011    1.5343   -3.3780 C   0  0  0  0  0  0  0  0  0  0  0  0
   -2.9936    0.2347   -3.2894 C   0  0  0  0  0  0  0  0  0  0  0  0
   -4.2849    3.4831   -2.2950 F   0  0  0  0  0  0  0  0  0  0  0  0
    1.4283   -2.7612    2.3947 H   0  0  0  0  0  0  0  0  0  0  0  0
   -0.6812   -0.3314    0.0777 H   0  0  0  0  0  0  0  0  0  0  0  0
   -2.4109   -1.6775    1.5313 H   0  0  0  0  0  0  0  0  0  0  0  0
   -0.3594   -4.2081   -0.8610 H   0  0  0  0  0  0  0  0  0  0  0  0
   -3.1793   -4.2497   -4.6584 H   0  0  0  0  0  0  0  0  0  0  0  0
   -3.4036   -6.4249   -5.7964 H   0  0  0  0  0  0  0  0  0  0  0  0
   -2.2399   -8.4310   -4.9154 H   0  0  0  0  0  0  0  0  0  0  0  0
   -0.8319   -8.2536   -2.8838 H   0  0  0  0  0  0  0  0  0  0  0  0
   -0.5785   -6.1218   -1.7302 H   0  0  0  0  0  0  0  0  0  0  0  0
   -3.1537   -0.1335    0.0930 H   0  0  0  0  0  0  0  0  0  0  0  0
   -3.9783    2.1739   -0.0764 H   0  0  0  0  0  0  0  0  0  0  0  0
   -3.6348    2.0163   -4.3403 H   0  0  0  0  0  0  0  0  0  0  0  0
   -2.7283   -0.2955   -4.2025 H   0  0  0  0  0  0  0  0  0  0  0  0
  1  2  1  0  0  0  0
  1  5  1  0  0  0  0
  1  6  2  0  0  0  0
  2  3  1  0  0  0  0
  2 26  1  0  0  0  0
  3  4  1  0  0  0  0
  3  7  2  0  0  0  0
  4  5  1  0  0  0  0
  4 11  1  0  0  0  0
  4 27  1  0  0  0  0
  5 28  1  0  0  0  0
  8  9  1  0  0  0  0
  8 12  1  0  0  0  0
  8 13  1  0  0  0  0
  9 10  2  0  0  0  0
 10 11  1  0  0  0  0
 10 19  1  0  0  0  0
 11 12  2  0  0  0  0
 12 29  1  0  0  0  0
 13 14  2  0  0  0  0
 13 18  1  0  0  0  0
 14 15  1  0  0  0  0
 14 30  1  0  0  0  0
 15 16  2  0  0  0  0
 15 31  1  0  0  0  0
 16 17  1  0  0  0  0
 16 32  1  0  0  0  0
 17 18  2  0  0  0  0
 17 33  1  0  0  0  0
 18 34  1  0  0  0  0
 19 20  2  0  0  0  0
 19 24  1  0  0  0  0
 20 21  1  0  0  0  0
 20 35  1  0  0  0  0
 21 22  2  0  0  0  0
 21 36  1  0  0  0  0
 22 23  1  0  0  0  0
 22 25  1  0  0  0  0
 23 24  2  0  0  0  0
 23 37  1  0  0  0  0
 24 38  1  0  0  0  0
M  END
>  <Mol_ID>
7508

>  <Formula>
C18H13FN4O2

>  <MolWeight>
336.3198232

>  <Cat>
E1312

>  <Name>
DPH

>  <Target>
Bcr-Abl

>  <Form>
free base

>  <CAS>
484049-04-9

>  <URL>
https://www.selleckchem.com/products/dph.html

$$$$
