DPPC
 OpenBabel08302521373D

 24 25  0  0  0  0  0  0  0  0999 V2000
    0.9031   -0.0747   -0.0464 P   0  0  0  0  0  4  0  0  0  0  0  0
    0.5802   -0.5265    1.3062 O   0  0  0  0  0  0  0  0  0  0  0  0
    0.3487    1.6793    0.0611 C   0  0  0  0  0  0  0  0  0  0  0  0
    0.3340    2.3916    1.2718 C   0  0  0  0  0  0  0  0  0  0  0  0
   -0.0737    2.3457   -1.1045 C   0  0  0  0  0  0  0  0  0  0  0  0
   -0.0821    3.7251    1.3171 C   0  0  0  0  0  0  0  0  0  0  0  0
   -0.4850    3.6820   -1.0588 C   0  0  0  0  0  0  0  0  0  0  0  0
   -0.4884    4.3709    0.1516 C   0  0  0  0  0  0  0  0  0  0  0  0
    2.7290    0.1361    0.1316 C   0  0  0  0  0  0  0  0  0  0  0  0
    3.4844   -0.6896    0.9853 C   0  0  0  0  0  0  0  0  0  0  0  0
    3.4190    1.0933   -0.6341 C   0  0  0  0  0  0  0  0  0  0  0  0
    4.8711   -0.5422    1.0913 C   0  0  0  0  0  0  0  0  0  0  0  0
    4.8052    1.2423   -0.5248 C   0  0  0  0  0  0  0  0  0  0  0  0
    5.5291    0.4277    0.3390 C   0  0  0  0  0  0  0  0  0  0  0  0
    0.6447    1.9044    2.1956 H   0  0  0  0  0  0  0  0  0  0  0  0
   -0.0874    1.8328   -2.0645 H   0  0  0  0  0  0  0  0  0  0  0  0
   -0.0904    4.2556    2.2659 H   0  0  0  0  0  0  0  0  0  0  0  0
   -0.8063    4.1855   -1.9677 H   0  0  0  0  0  0  0  0  0  0  0  0
   -0.8115    5.4079    0.1896 H   0  0  0  0  0  0  0  0  0  0  0  0
    2.9928   -1.4561    1.5838 H   0  0  0  0  0  0  0  0  0  0  0  0
    2.8871    1.7432   -1.3248 H   0  0  0  0  0  0  0  0  0  0  0  0
    5.4353   -1.1843    1.7637 H   0  0  0  0  0  0  0  0  0  0  0  0
    5.3159    1.9983   -1.1165 H   0  0  0  0  0  0  0  0  0  0  0  0
    6.6063    0.5472    0.4266 H   0  0  0  0  0  0  0  0  0  0  0  0
  1  2  2  0  0  0  0
  1  3  1  0  0  0  0
  1  9  1  0  0  0  0
  3  4  2  0  0  0  0
  3  5  1  0  0  0  0
  4  6  1  0  0  0  0
  4 15  1  0  0  0  0
  5  7  2  0  0  0  0
  5 16  1  0  0  0  0
  6  8  2  0  0  0  0
  6 17  1  0  0  0  0
  7  8  1  0  0  0  0
  7 18  1  0  0  0  0
  8 19  1  0  0  0  0
  9 10  2  0  0  0  0
  9 11  1  0  0  0  0
 10 12  1  0  0  0  0
 10 20  1  0  0  0  0
 11 13  2  0  0  0  0
 11 21  1  0  0  0  0
 12 14  2  0  0  0  0
 12 22  1  0  0  0  0
 13 14  1  0  0  0  0
 13 23  1  0  0  0  0
 14 24  1  0  0  0  0
M  END
>  <Mol_ID>
7345

>  <Formula>
C12H10ClOP

>  <MolWeight>
236.633961

>  <Cat>
E4392

>  <Name>
DPPC

>  <Synonyms>
Ph2POCl

>  <Target>
Others

>  <Form>
chloride salt

>  <CAS>
1499-21-4

>  <URL>
https://www.selleckchem.com/products/dppc.html

$$$$
