DR2313
 OpenBabel08302521323D

 22 23  0  0  0  0  0  0  0  0999 V2000
    2.3502    0.7164    0.0303 C   0  0  0  0  0  0  0  0  0  0  0  0
    1.2329    1.3632    0.0532 N   0  0  0  0  0  0  0  0  0  0  0  0
    0.0634    0.6328    0.0273 C   0  0  0  0  0  0  0  0  0  0  0  0
    0.0176   -0.7123   -0.0350 C   0  0  0  0  0  0  0  0  0  0  0  0
    1.3150   -1.4257   -0.0841 C   0  0  0  0  0  0  0  0  0  0  0  0
    2.4254   -0.6415   -0.0258 N   0  0  0  0  0  0  0  0  0  0  0  0
   -1.1911   -1.5951   -0.0585 C   0  0  0  0  0  0  0  0  0  0  0  0
   -1.1910    1.4831    0.0577 C   0  0  0  0  0  0  0  0  0  0  0  0
   -2.4658    0.7863   -0.4069 C   0  0  0  0  0  0  0  0  0  0  0  0
   -2.7085   -0.7661    0.4921 S   0  0  0  0  0  0  0  0  0  0  0  0
    1.3925   -2.6450   -0.1833 O   0  0  0  0  0  0  0  0  0  0  0  0
    3.6605    1.4504    0.0616 C   0  0  0  0  0  0  0  0  0  0  0  0
    3.3106   -1.1242   -0.0593 H   0  0  0  0  0  0  0  0  0  0  0  0
   -1.0539   -2.4609    0.5973 H   0  0  0  0  0  0  0  0  0  0  0  0
   -1.3532   -1.9709   -1.0747 H   0  0  0  0  0  0  0  0  0  0  0  0
   -1.0429    2.3617   -0.5841 H   0  0  0  0  0  0  0  0  0  0  0  0
   -1.3275    1.8661    1.0778 H   0  0  0  0  0  0  0  0  0  0  0  0
   -2.4273    0.5712   -1.4806 H   0  0  0  0  0  0  0  0  0  0  0  0
   -3.3320    1.4329   -0.2339 H   0  0  0  0  0  0  0  0  0  0  0  0
    3.7169    2.1247   -0.7974 H   0  0  0  0  0  0  0  0  0  0  0  0
    3.7208    2.0419    0.9795 H   0  0  0  0  0  0  0  0  0  0  0  0
    4.5092    0.7615    0.0276 H   0  0  0  0  0  0  0  0  0  0  0  0
  1  2  2  0  0  0  0
  1  6  1  0  0  0  0
  1 12  1  0  0  0  0
  2  3  1  0  0  0  0
  3  4  2  0  0  0  0
  4  5  1  0  0  0  0
  5  6  1  0  0  0  0
  5 11  2  0  0  0  0
  6 13  1  0  0  0  0
  7 10  1  0  0  0  0
  7  4  1  0  0  0  0
  7 14  1  0  0  0  0
  7 15  1  0  0  0  0
  8  9  1  0  0  0  0
  8  3  1  0  0  0  0
  8 16  1  0  0  0  0
  8 17  1  0  0  0  0
  9 10  1  0  0  0  0
  9 18  1  0  0  0  0
  9 19  1  0  0  0  0
 12 20  1  0  0  0  0
 12 21  1  0  0  0  0
 12 22  1  0  0  0  0
M  END
>  <Mol_ID>
6242

>  <Formula>
C8H10N2OS

>  <MolWeight>
182.2428

>  <Cat>
S6977

>  <Name>
DR2313

>  <Synonyms>
N/A

>  <Target>
PARP

>  <Form>
free base

>  <CAS>
284028-90-6

>  <URL>
http://www.selleckchem.com/products/dr2313.html

$$$$
