DREADD agonist 21
 OpenBabel08302521243D

 39 42  0  0  0  0  0  0  0  0999 V2000
   -1.4770    0.1304    0.1457 N   0  0  0  0  0  0  0  0  0  0  0  0
    0.5663   -1.3438   -1.3780 N   0  0  0  0  0  0  0  0  0  0  0  0
   -2.5993   -0.3790    2.1217 N   0  0  0  0  0  0  0  0  0  0  0  0
   -5.3884   -0.8253    1.2555 N   0  0  0  0  0  0  0  0  0  0  0  0
   -1.5094    0.0869   -1.3258 C   0  0  0  0  0  0  0  0  0  0  0  0
   -0.1560   -0.1557    0.7352 C   0  0  0  0  0  0  0  0  0  0  0  0
   -0.8105   -1.1734   -1.8744 C   0  0  0  0  0  0  0  0  0  0  0  0
    0.5064   -1.3963    0.0986 C   0  0  0  0  0  0  0  0  0  0  0  0
   -2.6366    0.1710    0.9354 C   0  0  0  0  0  0  0  0  0  0  0  0
   -3.8475    0.8783    0.3795 C   0  0  0  0  0  0  0  0  0  0  0  0
   -5.1249    0.3050    0.4537 C   0  0  0  0  0  0  0  0  0  0  0  0
   -3.6908   -0.4518    3.0075 C   0  0  0  0  0  0  0  0  0  0  0  0
   -5.0076   -0.7789    2.6217 C   0  0  0  0  0  0  0  0  0  0  0  0
   -3.6674    2.1081   -0.2758 C   0  0  0  0  0  0  0  0  0  0  0  0
   -6.2015    0.9643   -0.1631 C   0  0  0  0  0  0  0  0  0  0  0  0
   -4.7475    2.7502   -0.8830 C   0  0  0  0  0  0  0  0  0  0  0  0
   -3.4149   -0.3009    4.3733 C   0  0  0  0  0  0  0  0  0  0  0  0
   -6.0131    2.1755   -0.8305 C   0  0  0  0  0  0  0  0  0  0  0  0
   -6.0118   -0.9049    3.5985 C   0  0  0  0  0  0  0  0  0  0  0  0
   -4.4195   -0.4227    5.3376 C   0  0  0  0  0  0  0  0  0  0  0  0
   -5.7198   -0.7234    4.9486 C   0  0  0  0  0  0  0  0  0  0  0  0
    1.1056   -0.5200   -1.6446 H   0  0  0  0  0  0  0  0  0  0  0  0
   -6.3193   -1.2011    1.1263 H   0  0  0  0  0  0  0  0  0  0  0  0
   -2.5316    0.0870   -1.7169 H   0  0  0  0  0  0  0  0  0  0  0  0
   -1.0103    0.9835   -1.7124 H   0  0  0  0  0  0  0  0  0  0  0  0
    0.4847    0.7189    0.5680 H   0  0  0  0  0  0  0  0  0  0  0  0
   -0.2015   -0.2989    1.8200 H   0  0  0  0  0  0  0  0  0  0  0  0
   -1.3997   -2.0649   -1.6214 H   0  0  0  0  0  0  0  0  0  0  0  0
   -0.7849   -1.1184   -2.9700 H   0  0  0  0  0  0  0  0  0  0  0  0
   -0.0266   -2.3051    0.4025 H   0  0  0  0  0  0  0  0  0  0  0  0
    1.5305   -1.4907    0.4772 H   0  0  0  0  0  0  0  0  0  0  0  0
   -2.6819    2.5645   -0.3131 H   0  0  0  0  0  0  0  0  0  0  0  0
   -7.2066    0.5572   -0.0890 H   0  0  0  0  0  0  0  0  0  0  0  0
   -4.6005    3.7001   -1.3903 H   0  0  0  0  0  0  0  0  0  0  0  0
   -2.3961   -0.0832    4.6843 H   0  0  0  0  0  0  0  0  0  0  0  0
   -6.8616    2.6806   -1.2855 H   0  0  0  0  0  0  0  0  0  0  0  0
   -7.0378   -1.1101    3.3066 H   0  0  0  0  0  0  0  0  0  0  0  0
   -4.1816   -0.2877    6.3886 H   0  0  0  0  0  0  0  0  0  0  0  0
   -6.5091   -0.8049    5.6922 H   0  0  0  0  0  0  0  0  0  0  0  0
  1  5  1  0  0  0  0
  1  6  1  0  0  0  0
  1  9  1  0  0  0  0
  2  7  1  0  0  0  0
  2  8  1  0  0  0  0
  2 22  1  0  0  0  0
  3  9  2  0  0  0  0
  3 12  1  0  0  0  0
  4 11  1  0  0  0  0
  4 13  1  0  0  0  0
  4 23  1  0  0  0  0
  5  7  1  0  0  0  0
  5 24  1  0  0  0  0
  5 25  1  0  0  0  0
  6  8  1  0  0  0  0
  6 26  1  0  0  0  0
  6 27  1  0  0  0  0
  7 28  1  0  0  0  0
  7 29  1  0  0  0  0
  8 30  1  0  0  0  0
  8 31  1  0  0  0  0
  9 10  1  0  0  0  0
 10 11  2  0  0  0  0
 10 14  1  0  0  0  0
 11 15  1  0  0  0  0
 12 13  2  0  0  0  0
 12 17  1  0  0  0  0
 13 19  1  0  0  0  0
 14 16  2  0  0  0  0
 14 32  1  0  0  0  0
 15 18  2  0  0  0  0
 15 33  1  0  0  0  0
 16 18  1  0  0  0  0
 16 34  1  0  0  0  0
 17 20  2  0  0  0  0
 17 35  1  0  0  0  0
 18 36  1  0  0  0  0
 19 21  2  0  0  0  0
 19 37  1  0  0  0  0
 20 21  1  0  0  0  0
 20 38  1  0  0  0  0
 21 39  1  0  0  0  0
M  END
>  <Mol_ID>
5071

>  <Formula>
C17H18N4

>  <MolWeight>
278.35162

>  <Cat>
S0457

>  <Name>
DREADD agonist 21

>  <Synonyms>
N/A

>  <Target>
AChR

>  <Form>
free base

>  <CAS>
56296-18-5

>  <URL>
http://www.selleckchem.com/products/dreadd-agonist-21.html

$$$$
