Drofenine Hydrochloride
 OpenBabel08302520323D

 54 55  0  0  0  0  0  0  0  0999 V2000
    0.4841   -0.3588   -0.3190 C   0  0  3  0  0  0  0  0  0  0  0  0
    0.1802   -0.4708   -1.8133 C   0  0  0  0  0  0  0  0  0  0  0  0
   -0.1660   -1.4629    0.6078 C   0  0  0  0  0  0  0  0  0  0  0  0
    0.2917    1.0901    0.1646 C   0  0  0  0  0  0  0  0  0  0  0  0
   -1.1105   -0.2550   -2.3205 C   0  0  0  0  0  0  0  0  0  0  0  0
    1.2085   -0.7143   -2.7347 C   0  0  0  0  0  0  0  0  0  0  0  0
   -1.7066   -1.5458    0.5103 C   0  0  0  0  0  0  0  0  0  0  0  0
    0.3684   -1.3353    2.0569 C   0  0  0  0  0  0  0  0  0  0  0  0
   -0.7900    1.2069    0.9742 O   0  0  0  0  0  0  0  0  0  0  0  0
    1.0446    2.0140   -0.1225 O   0  0  0  0  0  0  0  0  0  0  0  0
   -1.3757   -0.3251   -3.6897 C   0  0  0  0  0  0  0  0  0  0  0  0
    0.9532   -0.7529   -4.1115 C   0  0  0  0  0  0  0  0  0  0  0  0
   -2.4109   -2.2892    1.6365 C   0  0  0  0  0  0  0  0  0  0  0  0
   -0.4106   -2.1380    3.0942 C   0  0  0  0  0  0  0  0  0  0  0  0
   -1.0398    2.4724    1.5975 C   0  0  0  0  0  0  0  0  0  0  0  0
   -0.3415   -0.5665   -4.5872 C   0  0  0  0  0  0  0  0  0  0  0  0
   -1.9008   -1.8572    3.0006 C   0  0  0  0  0  0  0  0  0  0  0  0
   -1.6950    3.4712    0.6346 C   0  0  0  0  0  0  0  0  0  0  0  0
   -2.8247    2.9256   -0.1744 N   0  0  0  0  0  0  0  0  0  0  0  0
   -4.0422    2.8581    0.6503 C   0  0  0  0  0  0  0  0  0  0  0  0
   -2.8461    3.6722   -1.4425 C   0  0  0  0  0  0  0  0  0  0  0  0
   -5.3352    2.3979   -0.0134 C   0  0  0  0  0  0  0  0  0  0  0  0
   -3.9105    3.3997   -2.4857 C   0  0  0  0  0  0  0  0  0  0  0  0
    1.5694   -0.5187   -0.2033 H   0  0  0  0  0  0  0  0  0  0  0  0
    0.2047   -2.4330    0.2443 H   0  0  0  0  0  0  0  0  0  0  0  0
   -1.9371   -0.0092   -1.6593 H   0  0  0  0  0  0  0  0  0  0  0  0
    2.2391   -0.8486   -2.4006 H   0  0  0  0  0  0  0  0  0  0  0  0
   -2.1535   -0.5501    0.4647 H   0  0  0  0  0  0  0  0  0  0  0  0
   -1.9747   -2.0446   -0.4284 H   0  0  0  0  0  0  0  0  0  0  0  0
    1.4183   -1.6474    2.0898 H   0  0  0  0  0  0  0  0  0  0  0  0
    0.3656   -0.2963    2.3996 H   0  0  0  0  0  0  0  0  0  0  0  0
   -2.3897   -0.1719   -4.0495 H   0  0  0  0  0  0  0  0  0  0  0  0
    1.7655   -0.9153   -4.8163 H   0  0  0  0  0  0  0  0  0  0  0  0
   -3.4897   -2.0995    1.5683 H   0  0  0  0  0  0  0  0  0  0  0  0
   -2.2712   -3.3689    1.5116 H   0  0  0  0  0  0  0  0  0  0  0  0
   -0.0598   -1.8900    4.1019 H   0  0  0  0  0  0  0  0  0  0  0  0
   -0.2232   -3.2060    2.9511 H   0  0  0  0  0  0  0  0  0  0  0  0
   -1.6937    2.2779    2.4528 H   0  0  0  0  0  0  0  0  0  0  0  0
   -0.1060    2.8833    2.0011 H   0  0  0  0  0  0  0  0  0  0  0  0
   -0.5455   -0.5917   -5.6550 H   0  0  0  0  0  0  0  0  0  0  0  0
   -2.0992   -0.7888    3.1567 H   0  0  0  0  0  0  0  0  0  0  0  0
   -2.4412   -2.4026    3.7830 H   0  0  0  0  0  0  0  0  0  0  0  0
   -2.0155    4.3575    1.2009 H   0  0  0  0  0  0  0  0  0  0  0  0
   -0.8994    3.8225   -0.0309 H   0  0  0  0  0  0  0  0  0  0  0  0
   -3.8489    2.1241    1.4445 H   0  0  0  0  0  0  0  0  0  0  0  0
   -4.2389    3.8126    1.1541 H   0  0  0  0  0  0  0  0  0  0  0  0
   -2.8182    4.7554   -1.2544 H   0  0  0  0  0  0  0  0  0  0  0  0
   -1.8986    3.4202   -1.9423 H   0  0  0  0  0  0  0  0  0  0  0  0
   -5.1747    1.5413   -0.6739 H   0  0  0  0  0  0  0  0  0  0  0  0
   -6.0583    2.0848    0.7485 H   0  0  0  0  0  0  0  0  0  0  0  0
   -5.8057    3.2112   -0.5718 H   0  0  0  0  0  0  0  0  0  0  0  0
   -4.7993    4.0177   -2.3148 H   0  0  0  0  0  0  0  0  0  0  0  0
   -3.5301    3.6668   -3.4784 H   0  0  0  0  0  0  0  0  0  0  0  0
   -4.1989    2.3456   -2.5326 H   0  0  0  0  0  0  0  0  0  0  0  0
  1  2  1  0  0  0  0
  1  3  1  0  0  0  0
  1  4  1  0  0  0  0
  1 24  1  0  0  0  0
  2  5  2  0  0  0  0
  2  6  1  0  0  0  0
  3  7  1  0  0  0  0
  3  8  1  0  0  0  0
  3 25  1  0  0  0  0
  4  9  1  0  0  0  0
  4 10  2  0  0  0  0
  5 11  1  0  0  0  0
  5 26  1  0  0  0  0
  6 12  2  0  0  0  0
  6 27  1  0  0  0  0
  7 13  1  0  0  0  0
  7 28  1  0  0  0  0
  7 29  1  0  0  0  0
  8 14  1  0  0  0  0
  8 30  1  0  0  0  0
  8 31  1  0  0  0  0
  9 15  1  0  0  0  0
 11 16  2  0  0  0  0
 11 32  1  0  0  0  0
 12 16  1  0  0  0  0
 12 33  1  0  0  0  0
 13 17  1  0  0  0  0
 13 34  1  0  0  0  0
 13 35  1  0  0  0  0
 14 17  1  0  0  0  0
 14 36  1  0  0  0  0
 14 37  1  0  0  0  0
 15 18  1  0  0  0  0
 15 38  1  0  0  0  0
 15 39  1  0  0  0  0
 16 40  1  0  0  0  0
 17 41  1  0  0  0  0
 17 42  1  0  0  0  0
 18 19  1  0  0  0  0
 18 43  1  0  0  0  0
 18 44  1  0  0  0  0
 19 20  1  0  0  0  0
 19 21  1  0  0  0  0
 20 22  1  0  0  0  0
 20 45  1  0  0  0  0
 20 46  1  0  0  0  0
 21 23  1  0  0  0  0
 21 47  1  0  0  0  0
 21 48  1  0  0  0  0
 22 49  1  0  0  0  0
 22 50  1  0  0  0  0
 22 51  1  0  0  0  0
 23 52  1  0  0  0  0
 23 53  1  0  0  0  0
 23 54  1  0  0  0  0
M  END
>  <Mol_ID>
3354

>  <Formula>
C20H32ClNO2

>  <MolWeight>
353.92658

>  <Cat>
S5665

>  <Name>
Drofenine Hydrochloride

>  <Synonyms>
N/A

>  <Target>
BChE

>  <Form>
hydrochloride

>  <CAS>
548-66-3

>  <URL>
http://www.selleckchem.com/products/drofenine-hydrochloride.html

$$$$
