Drospirenone.cdx
 OpenBabel08302519563D

 57 63  0  0  0  0  0  0  0  0999 V2000
    5.8688    3.5384   -0.6640 C   0  0  0  0  0  0  0  0  0  0  0  0
    4.5253    4.1797   -1.0170 C   0  0  0  0  0  0  0  0  0  0  0  0
    3.2816    3.4191   -0.7417 C   0  0  0  0  0  0  0  0  0  0  0  0
    3.3358    2.4367    0.1721 C   0  0  0  0  0  0  0  0  0  0  0  0
    4.5469    2.3619    1.1299 C   0  0  2  0  0  0  0  0  0  0  0  0
    5.7470    2.2593    0.1966 C   0  0  0  0  0  0  0  0  0  0  0  0
    2.4891    1.2304    0.0286 C   0  0  1  0  0  0  0  0  0  0  0  0
    2.1474    0.4129    1.2587 C   0  0  1  0  0  0  0  0  0  0  0  0
    2.9716    0.7562    2.4619 C   0  0  3  0  0  0  0  0  0  0  0  0
    4.4047    1.2878    2.2349 C   0  0  3  0  0  0  0  0  0  0  0  0
    1.0826    1.1609    0.5178 C   0  0  0  0  0  0  0  0  0  0  0  0
    2.7572    0.9031    3.9812 C   0  0  3  0  0  0  0  0  0  0  0  0
    3.5550   -0.3208    4.5876 C   0  0  3  0  0  0  0  0  0  0  0  0
    5.0703   -0.2503    4.1098 C   0  0  0  0  0  0  0  0  0  0  0  0
    5.3674    0.1328    2.5956 C   0  0  0  0  0  0  0  0  0  0  0  0
    1.5504    0.9751    4.8804 C   0  0  3  0  0  0  0  0  0  0  0  0
    1.9361    0.3277    6.2162 C   0  0  3  0  0  0  0  0  0  0  0  0
    3.3704   -0.1906    6.1252 C   0  0  3  0  0  0  0  0  0  0  0  0
    1.6427    1.8026    6.1558 C   0  0  0  0  0  0  0  0  0  0  0  0
    4.2394    0.7676    6.7434 O   0  0  0  0  0  0  0  0  0  0  0  0
    5.1461    0.1596    7.5509 C   0  0  0  0  0  0  0  0  0  0  0  0
    5.1094   -1.3241    7.3482 C   0  0  0  0  0  0  0  0  0  0  0  0
    3.7134   -1.5194    6.8255 C   0  0  0  0  0  0  0  0  0  0  0  0
    4.4500    5.2723   -1.5744 O   0  0  0  0  0  0  0  0  0  0  0  0
    5.9419    0.7475    8.2602 O   0  0  0  0  0  0  0  0  0  0  0  0
    2.7454   -1.6230    4.1388 C   0  0  0  0  0  0  0  0  0  0  0  0
    4.6202    3.7072    1.9734 C   0  0  0  0  0  0  0  0  0  0  0  0
    6.4549    4.2817   -0.1080 H   0  0  0  0  0  0  0  0  0  0  0  0
    6.4014    3.3161   -1.5934 H   0  0  0  0  0  0  0  0  0  0  0  0
    2.4604    3.5513   -1.4329 H   0  0  0  0  0  0  0  0  0  0  0  0
    5.6334    1.3911   -0.4673 H   0  0  0  0  0  0  0  0  0  0  0  0
    6.6786    2.1015    0.7492 H   0  0  0  0  0  0  0  0  0  0  0  0
    2.7420    0.6587   -0.8603 H   0  0  0  0  0  0  0  0  0  0  0  0
    2.1691   -0.6620    1.0429 H   0  0  0  0  0  0  0  0  0  0  0  0
    3.2424   -0.3004    2.4538 H   0  0  0  0  0  0  0  0  0  0  0  0
    4.6691    1.8884    3.1089 H   0  0  0  0  0  0  0  0  0  0  0  0
    0.5938    1.9921    1.0025 H   0  0  0  0  0  0  0  0  0  0  0  0
    0.4224    0.5470   -0.0947 H   0  0  0  0  0  0  0  0  0  0  0  0
    3.2454    1.8490    4.2623 H   0  0  0  0  0  0  0  0  0  0  0  0
    5.5973   -1.1699    4.3708 H   0  0  0  0  0  0  0  0  0  0  0  0
    5.5536    0.5519    4.6877 H   0  0  0  0  0  0  0  0  0  0  0  0
    5.2144   -0.7460    1.9598 H   0  0  0  0  0  0  0  0  0  0  0  0
    6.4164    0.4370    2.5021 H   0  0  0  0  0  0  0  0  0  0  0  0
    0.5794    0.8733    4.4264 H   0  0  0  0  0  0  0  0  0  0  0  0
    1.2394   -0.3181    6.7253 H   0  0  0  0  0  0  0  0  0  0  0  0
    2.4697    2.5033    6.2809 H   0  0  0  0  0  0  0  0  0  0  0  0
    0.7456    2.1503    6.6512 H   0  0  0  0  0  0  0  0  0  0  0  0
    5.8788   -1.5883    6.6123 H   0  0  0  0  0  0  0  0  0  0  0  0
    5.2798   -1.8895    8.2698 H   0  0  0  0  0  0  0  0  0  0  0  0
    3.0127   -1.7440    7.6326 H   0  0  0  0  0  0  0  0  0  0  0  0
    3.7392   -2.4021    6.1767 H   0  0  0  0  0  0  0  0  0  0  0  0
    1.9559   -1.4129    3.4043 H   0  0  0  0  0  0  0  0  0  0  0  0
    3.4024   -2.3888    3.7388 H   0  0  0  0  0  0  0  0  0  0  0  0
    2.1483   -2.0485    4.9549 H   0  0  0  0  0  0  0  0  0  0  0  0
    5.4885    3.6774    2.6483 H   0  0  0  0  0  0  0  0  0  0  0  0
    4.7233    4.6282    1.3981 H   0  0  0  0  0  0  0  0  0  0  0  0
    3.7206    3.8265    2.5895 H   0  0  0  0  0  0  0  0  0  0  0  0
  1  2  1  0  0  0  0
  1 28  1  0  0  0  0
  1 29  1  0  0  0  0
  2  3  1  0  0  0  0
  2 24  2  0  0  0  0
  3  4  2  0  0  0  0
  3 30  1  0  0  0  0
  4  5  1  0  0  0  0
  4  7  1  0  0  0  0
  5  6  1  0  0  0  0
  5 27  1  1  0  0  0
  6  1  1  0  0  0  0
  6 31  1  0  0  0  0
  6 32  1  0  0  0  0
  7  8  1  0  0  0  0
  7 11  1  0  0  0  0
  7 33  1  6  0  0  0
  8 11  1  0  0  0  0
  8 34  1  6  0  0  0
  9  8  1  0  0  0  0
  9 10  1  0  0  0  0
  9 12  1  0  0  0  0
  9 35  1  0  0  0  0
 10  5  1  0  0  0  0
 10 15  1  0  0  0  0
 10 36  1  0  0  0  0
 11 37  1  0  0  0  0
 11 38  1  0  0  0  0
 12 13  1  0  0  0  0
 12 16  1  0  0  0  0
 12 39  1  0  0  0  0
 13 14  1  0  0  0  0
 13 26  1  0  0  0  0
 14 15  1  0  0  0  0
 14 40  1  0  0  0  0
 14 41  1  0  0  0  0
 15 42  1  0  0  0  0
 15 43  1  0  0  0  0
 16 17  1  0  0  0  0
 16 19  1  0  0  0  0
 16 44  1  0  0  0  0
 17 18  1  0  0  0  0
 17 19  1  0  0  0  0
 17 45  1  0  0  0  0
 18 13  1  0  0  0  0
 18 20  1  0  0  0  0
 18 23  1  0  0  0  0
 19 46  1  0  0  0  0
 19 47  1  0  0  0  0
 20 21  1  0  0  0  0
 21 22  1  0  0  0  0
 21 25  2  0  0  0  0
 22 23  1  0  0  0  0
 22 48  1  0  0  0  0
 22 49  1  0  0  0  0
 23 50  1  0  0  0  0
 23 51  1  0  0  0  0
 26 52  1  0  0  0  0
 26 53  1  0  0  0  0
 26 54  1  0  0  0  0
 27 55  1  0  0  0  0
 27 56  1  0  0  0  0
 27 57  1  0  0  0  0
M  END
>  <Mol_ID>
227

>  <Formula>
C24H30O3

>  <MolWeight>
366.4932

>  <Cat>
S1377

>  <Name>
Drospirenone

>  <Synonyms>
ZK 3059

>  <Target>
Estrogen/progestogen Receptor

>  <Form>
free base

>  <CAS>
67392-87-4

>  <URL>
http://selleckchem.com/products/Drospirenone.html

$$$$
