Droxinostat.cdx
 OpenBabel08302519583D

 30 30  0  0  0  0  0  0  0  0999 V2000
   -1.7247   -0.0461   -0.8221 C   0  0  0  0  0  0  0  0  0  0  0  0
   -1.3510    1.0513   -0.0565 C   0  0  0  0  0  0  0  0  0  0  0  0
   -0.2417    0.9528    0.7790 C   0  0  0  0  0  0  0  0  0  0  0  0
    0.5277   -0.2289    0.8648 C   0  0  0  0  0  0  0  0  0  0  0  0
    0.1932   -1.3092    0.0226 C   0  0  0  0  0  0  0  0  0  0  0  0
   -0.9514   -1.2134   -0.7858 C   0  0  0  0  0  0  0  0  0  0  0  0
    1.5098   -0.2867    1.9979 C   0  0  0  0  0  0  0  0  0  0  0  0
    0.8276   -2.5288   -0.0512 O   0  0  0  0  0  0  0  0  0  0  0  0
    2.2511   -2.4761   -0.1320 C   0  0  0  0  0  0  0  0  0  0  0  0
    2.8315   -3.7134   -0.8243 C   0  0  0  0  0  0  0  0  0  0  0  0
    2.6997   -4.9924    0.0058 C   0  0  0  0  0  0  0  0  0  0  0  0
    1.3212   -5.6081    0.0589 C   0  0  0  0  0  0  0  0  0  0  0  0
    0.7121   -5.7950   -1.1564 N   0  0  0  0  0  0  0  0  0  0  0  0
    0.8167   -6.0210    1.1087 O   0  0  0  0  0  0  0  0  0  0  0  0
   -0.4700   -6.5717   -1.1358 O   0  0  0  0  0  0  0  0  0  0  0  0
   -2.6231   -0.0032   -1.4297 H   0  0  0  0  0  0  0  0  0  0  0  0
   -1.9443    1.9635   -0.0779 H   0  0  0  0  0  0  0  0  0  0  0  0
    0.0031    1.8071    1.4131 H   0  0  0  0  0  0  0  0  0  0  0  0
   -1.2603   -2.0658   -1.3857 H   0  0  0  0  0  0  0  0  0  0  0  0
    1.0457   -0.7934    2.8506 H   0  0  0  0  0  0  0  0  0  0  0  0
    2.4487   -0.7703    1.7501 H   0  0  0  0  0  0  0  0  0  0  0  0
    1.7934    0.7230    2.3205 H   0  0  0  0  0  0  0  0  0  0  0  0
    2.5823   -1.5858   -0.6813 H   0  0  0  0  0  0  0  0  0  0  0  0
    2.6635   -2.4687    0.8780 H   0  0  0  0  0  0  0  0  0  0  0  0
    2.3877   -3.8382   -1.8170 H   0  0  0  0  0  0  0  0  0  0  0  0
    3.9048   -3.5331   -0.9700 H   0  0  0  0  0  0  0  0  0  0  0  0
    3.3686   -5.7580   -0.4077 H   0  0  0  0  0  0  0  0  0  0  0  0
    3.0333   -4.8071    1.0340 H   0  0  0  0  0  0  0  0  0  0  0  0
    1.2073   -5.7529   -2.0386 H   0  0  0  0  0  0  0  0  0  0  0  0
   -0.5542   -6.7965   -0.1825 H   0  0  0  0  0  0  0  0  0  0  0  0
  1  2  2  0  0  0  0
  1 16  1  0  0  0  0
  2  3  1  0  0  0  0
  2 17  1  0  0  0  0
  3  4  2  0  0  0  0
  3 18  1  0  0  0  0
  4  5  1  0  0  0  0
  4  7  1  0  0  0  0
  5  6  2  0  0  0  0
  5  8  1  0  0  0  0
  6  1  1  0  0  0  0
  6 19  1  0  0  0  0
  7 20  1  0  0  0  0
  7 21  1  0  0  0  0
  7 22  1  0  0  0  0
  8  9  1  0  0  0  0
  9 10  1  0  0  0  0
  9 23  1  0  0  0  0
  9 24  1  0  0  0  0
 10 11  1  0  0  0  0
 10 25  1  0  0  0  0
 10 26  1  0  0  0  0
 11 12  1  0  0  0  0
 11 27  1  0  0  0  0
 11 28  1  0  0  0  0
 12 13  1  0  0  0  0
 12 14  2  0  0  0  0
 13 15  1  0  0  0  0
 13 29  1  0  0  0  0
 15 30  1  0  0  0  0
M  END
>  <Mol_ID>
249

>  <Formula>
C11H14ClNO3

>  <MolWeight>
243.68676

>  <Cat>
S1422

>  <Name>
Droxinostat

>  <Synonyms>
NS 41080

>  <Target>
HDAC

>  <Form>
free base

>  <CAS>
99873-43-5

>  <URL>
http://selleckchem.com/products/Droxinostat.html

$$$$
