DSP-4 HCl
 OpenBabel08302521323D

 29 29  0  0  0  0  0  0  0  0999 V2000
    0.8663   -0.0002    0.0741 C   0  0  0  0  0  0  0  0  0  0  0  0
    0.2781   -1.2147   -0.5260 N   0  0  0  0  0  0  0  0  0  0  0  0
   -1.1961   -1.2095   -0.5226 C   0  0  0  0  0  0  0  0  0  0  0  0
    0.8235   -1.5050   -1.8588 C   0  0  0  0  0  0  0  0  0  0  0  0
   -1.8922   -0.1096   -1.3200 C   0  0  0  0  0  0  0  0  0  0  0  0
    2.2842   -1.9492   -1.8055 C   0  0  0  0  0  0  0  0  0  0  0  0
   -0.4309    2.8462    1.1649 Br  0  0  0  0  0  0  0  0  0  0  0  0
    0.5817    0.1408    1.5594 C   0  0  0  0  0  0  0  0  0  0  0  0
    0.0488    1.2961    2.1539 C   0  0  0  0  0  0  0  0  0  0  0  0
    0.9227   -0.9388    2.4023 C   0  0  0  0  0  0  0  0  0  0  0  0
   -0.1479    1.3562    3.5406 C   0  0  0  0  0  0  0  0  0  0  0  0
    0.7268   -0.8721    3.7824 C   0  0  0  0  0  0  0  0  0  0  0  0
    0.1949    0.2761    4.3533 C   0  0  0  0  0  0  0  0  0  0  0  0
    0.5808    0.8837   -0.5009 H   0  0  0  0  0  0  0  0  0  0  0  0
    1.9605   -0.0381    0.0055 H   0  0  0  0  0  0  0  0  0  0  0  0
   -1.5508   -2.1790   -0.8974 H   0  0  0  0  0  0  0  0  0  0  0  0
   -1.5556   -1.1708    0.5123 H   0  0  0  0  0  0  0  0  0  0  0  0
    0.2625   -2.3354   -2.3064 H   0  0  0  0  0  0  0  0  0  0  0  0
    0.7203   -0.6473   -2.5341 H   0  0  0  0  0  0  0  0  0  0  0  0
   -1.7200   -0.2207   -2.3941 H   0  0  0  0  0  0  0  0  0  0  0  0
   -2.9730   -0.1614   -1.1482 H   0  0  0  0  0  0  0  0  0  0  0  0
   -1.5711    0.8901   -1.0208 H   0  0  0  0  0  0  0  0  0  0  0  0
    2.4397   -2.7129   -1.0356 H   0  0  0  0  0  0  0  0  0  0  0  0
    2.5809   -2.3809   -2.7671 H   0  0  0  0  0  0  0  0  0  0  0  0
    2.9588   -1.1118   -1.6029 H   0  0  0  0  0  0  0  0  0  0  0  0
    1.3416   -1.8469    1.9711 H   0  0  0  0  0  0  0  0  0  0  0  0
   -0.5609    2.2511    4.0003 H   0  0  0  0  0  0  0  0  0  0  0  0
    0.9949   -1.7203    4.4073 H   0  0  0  0  0  0  0  0  0  0  0  0
    0.0445    0.3336    5.4259 H   0  0  0  0  0  0  0  0  0  0  0  0
  1  2  1  0  0  0  0
  1  8  1  0  0  0  0
  1 14  1  0  0  0  0
  1 15  1  0  0  0  0
  2  3  1  0  0  0  0
  2  4  1  0  0  0  0
  3  5  1  0  0  0  0
  3 16  1  0  0  0  0
  3 17  1  0  0  0  0
  4  6  1  0  0  0  0
  4 18  1  0  0  0  0
  4 19  1  0  0  0  0
  5 20  1  0  0  0  0
  5 21  1  0  0  0  0
  5 22  1  0  0  0  0
  6 23  1  0  0  0  0
  6 24  1  0  0  0  0
  6 25  1  0  0  0  0
  7  9  1  0  0  0  0
  8  9  2  0  0  0  0
  8 10  1  0  0  0  0
  9 11  1  0  0  0  0
 10 12  2  0  0  0  0
 10 26  1  0  0  0  0
 11 13  2  0  0  0  0
 11 27  1  0  0  0  0
 12 13  1  0  0  0  0
 12 28  1  0  0  0  0
 13 29  1  0  0  0  0
M  END
>  <Mol_ID>
6192

>  <Formula>
C11H16BrCl2N

>  <MolWeight>
313.06144

>  <Cat>
S0896

>  <Name>
DSP-4 HCl

>  <Synonyms>
Neurotoxin DSP 4 (hydrochloride)

>  <Target>
Adrenergic Receptor

>  <Form>
hydrochloride

>  <CAS>
40616-75-9

>  <URL>
http://www.selleckchem.com/products/dsp-4-hcl.html

$$$$
