DSP Crosslinker
 OpenBabel08302521303D

 42 43  0  0  0  0  0  0  0  0999 V2000
    1.1590    0.4853   -0.5365 S   0  0  0  0  0  0  0  0  0  0  0  0
    0.5649   -1.0129   -1.8049 S   0  0  0  0  0  0  0  0  0  0  0  0
    5.9478   -0.6521   -1.9811 O   0  0  0  0  0  0  0  0  0  0  0  0
   -2.2045   -0.9643    0.4932 O   0  0  0  0  0  0  0  0  0  0  0  0
    6.3634    2.0596   -1.4247 O   0  0  0  0  0  0  0  0  0  0  0  0
    8.5510   -1.9223   -2.0815 O   0  0  0  0  0  0  0  0  0  0  0  0
   -2.4806   -1.0241   -2.3840 O   0  0  0  0  0  0  0  0  0  0  0  0
   -4.3235    0.6297    1.4856 O   0  0  0  0  0  0  0  0  0  0  0  0
    5.5070   -0.7136    0.2717 O   0  0  0  0  0  0  0  0  0  0  0  0
   -2.5443   -3.1091   -0.2923 O   0  0  0  0  0  0  0  0  0  0  0  0
    7.1821   -0.0915   -1.6983 N   0  0  0  0  0  0  0  0  0  0  0  0
   -3.2632   -0.4717   -0.2646 N   0  0  0  0  0  0  0  0  0  0  0  0
    8.7330    1.5932   -1.4028 C   0  0  0  0  0  0  0  0  0  0  0  0
    9.4439    0.2473   -1.4884 C   0  0  0  0  0  0  0  0  0  0  0  0
   -4.2655    0.5368   -2.0776 C   0  0  0  0  0  0  0  0  0  0  0  0
   -4.9927    0.9525   -0.8109 C   0  0  0  0  0  0  0  0  0  0  0  0
    7.2783    1.2518   -1.4908 C   0  0  0  0  0  0  0  0  0  0  0  0
    8.3556   -0.7522   -1.7867 C   0  0  0  0  0  0  0  0  0  0  0  0
   -3.2374   -0.4400   -1.6195 C   0  0  0  0  0  0  0  0  0  0  0  0
   -4.1756    0.3611    0.3019 C   0  0  0  0  0  0  0  0  0  0  0  0
    3.7468   -0.2319   -1.3367 C   0  0  0  0  0  0  0  0  0  0  0  0
   -0.3699   -2.4020    0.5173 C   0  0  0  0  0  0  0  0  0  0  0  0
    5.1334   -0.5917   -0.8870 C   0  0  0  0  0  0  0  0  0  0  0  0
   -1.8331   -2.2351    0.1870 C   0  0  0  0  0  0  0  0  0  0  0  0
    2.8630   -0.0045   -0.1220 C   0  0  0  0  0  0  0  0  0  0  0  0
    0.4810   -2.4996   -0.7396 C   0  0  0  0  0  0  0  0  0  0  0  0
    8.9893    2.2333   -2.2535 H   0  0  0  0  0  0  0  0  0  0  0  0
    8.9483    2.1132   -0.4674 H   0  0  0  0  0  0  0  0  0  0  0  0
   10.1939    0.2514   -2.2876 H   0  0  0  0  0  0  0  0  0  0  0  0
    9.9222   -0.0083   -0.5368 H   0  0  0  0  0  0  0  0  0  0  0  0
   -3.7398    1.3897   -2.5241 H   0  0  0  0  0  0  0  0  0  0  0  0
   -4.9313    0.0861   -2.8156 H   0  0  0  0  0  0  0  0  0  0  0  0
   -5.0157    2.0424   -0.7160 H   0  0  0  0  0  0  0  0  0  0  0  0
   -6.0108    0.5557   -0.7845 H   0  0  0  0  0  0  0  0  0  0  0  0
    3.3881   -1.0452   -1.9736 H   0  0  0  0  0  0  0  0  0  0  0  0
    3.8122    0.6903   -1.9269 H   0  0  0  0  0  0  0  0  0  0  0  0
   -0.2637   -3.3165    1.1103 H   0  0  0  0  0  0  0  0  0  0  0  0
   -0.0361   -1.5889    1.1724 H   0  0  0  0  0  0  0  0  0  0  0  0
    3.2815    0.7853    0.5113 H   0  0  0  0  0  0  0  0  0  0  0  0
    2.8135   -0.9067    0.4967 H   0  0  0  0  0  0  0  0  0  0  0  0
    0.1262   -3.3174   -1.3747 H   0  0  0  0  0  0  0  0  0  0  0  0
    1.5110   -2.7439   -0.4614 H   0  0  0  0  0  0  0  0  0  0  0  0
  1  2  1  0  0  0  0
  1 25  1  0  0  0  0
  2 26  1  0  0  0  0
  3 11  1  0  0  0  0
  3 23  1  0  0  0  0
  4 12  1  0  0  0  0
  4 24  1  0  0  0  0
  5 17  2  0  0  0  0
  6 18  2  0  0  0  0
  7 19  2  0  0  0  0
  8 20  2  0  0  0  0
  9 23  2  0  0  0  0
 10 24  2  0  0  0  0
 11 17  1  0  0  0  0
 11 18  1  0  0  0  0
 12 19  1  0  0  0  0
 12 20  1  0  0  0  0
 13 14  1  0  0  0  0
 13 17  1  0  0  0  0
 13 27  1  0  0  0  0
 13 28  1  0  0  0  0
 14 18  1  0  0  0  0
 14 29  1  0  0  0  0
 14 30  1  0  0  0  0
 15 16  1  0  0  0  0
 15 19  1  0  0  0  0
 15 31  1  0  0  0  0
 15 32  1  0  0  0  0
 16 20  1  0  0  0  0
 16 33  1  0  0  0  0
 16 34  1  0  0  0  0
 21 23  1  0  0  0  0
 21 25  1  0  0  0  0
 21 35  1  0  0  0  0
 21 36  1  0  0  0  0
 22 24  1  0  0  0  0
 22 26  1  0  0  0  0
 22 37  1  0  0  0  0
 22 38  1  0  0  0  0
 25 39  1  0  0  0  0
 25 40  1  0  0  0  0
 26 41  1  0  0  0  0
 26 42  1  0  0  0  0
M  END
>  <Mol_ID>
5644

>  <Formula>
C14H16N2O8S2

>  <MolWeight>
404.41544

>  <Cat>
S0626

>  <Name>
DSP Crosslinker

>  <Synonyms>
N/A

>  <Target>
ADC Linker

>  <Form>
Free Base

>  <CAS>
57757-57-0

>  <URL>
http://www.selleckchem.com/products/dsp-crosslinker.html

$$$$
