DTNB
 OpenBabel08302521243D

 34 35  0  0  0  0  0  0  0  0999 V2000
    1.3675   -0.3853    0.0957 C   0  0  0  0  0  0  0  0  0  0  0  0
    0.5843   -1.0833   -0.8327 C   0  0  0  0  0  0  0  0  0  0  0  0
   -0.7898   -0.8276   -0.9050 C   0  0  0  0  0  0  0  0  0  0  0  0
   -1.3893    0.0935   -0.0360 C   0  0  0  0  0  0  0  0  0  0  0  0
   -0.5785    0.8145    0.8524 C   0  0  0  0  0  0  0  0  0  0  0  0
    0.8048    0.5802    0.9291 C   0  0  0  0  0  0  0  0  0  0  0  0
    1.6222    1.4079    1.8350 C   0  0  0  0  0  0  0  0  0  0  0  0
    2.7587   -0.7729    0.2380 N   0  3  0  0  0  0  0  0  0  0  0  0
    2.7611    1.7753    1.6289 O   0  0  0  0  0  0  0  0  0  0  0  0
    0.9407    1.7534    2.9388 O   0  0  0  0  0  0  0  0  0  0  0  0
    3.4459   -0.7883   -0.7913 O   0  5  0  0  0  0  0  0  0  0  0  0
    3.1200   -1.1542    1.3594 O   0  0  0  0  0  0  0  0  0  0  0  0
   -3.1471    0.4062    0.0623 S   0  0  0  0  0  0  0  0  0  0  0  0
   -4.0665   -1.3132   -0.5783 S   0  0  0  0  0  0  0  0  0  0  0  0
   -3.6359   -2.5185    0.6628 C   0  0  0  0  0  0  0  0  0  0  0  0
   -2.9842   -3.6847    0.2425 C   0  0  0  0  0  0  0  0  0  0  0  0
   -2.6212   -4.7173    1.1369 C   0  0  0  0  0  0  0  0  0  0  0  0
   -2.9629   -4.5621    2.4884 C   0  0  0  0  0  0  0  0  0  0  0  0
   -3.6123   -3.3817    2.9195 C   0  0  0  0  0  0  0  0  0  0  0  0
   -3.9437   -2.3694    2.0116 C   0  0  0  0  0  0  0  0  0  0  0  0
   -2.7361   -5.6004    3.4995 N   0  3  0  0  0  0  0  0  0  0  0  0
   -1.9187   -5.8498    0.4636 C   0  0  0  0  0  0  0  0  0  0  0  0
   -0.8462   -6.3356    1.1163 O   0  0  0  0  0  0  0  0  0  0  0  0
   -2.1474   -6.1319   -0.7019 O   0  0  0  0  0  0  0  0  0  0  0  0
   -2.2281   -6.6688    3.1369 O   0  0  0  0  0  0  0  0  0  0  0  0
   -3.0528   -5.3500    4.6691 O   0  5  0  0  0  0  0  0  0  0  0  0
    1.0264   -1.8374   -1.4835 H   0  0  0  0  0  0  0  0  0  0  0  0
   -1.3787   -1.3757   -1.6371 H   0  0  0  0  0  0  0  0  0  0  0  0
   -1.0270    1.5689    1.4975 H   0  0  0  0  0  0  0  0  0  0  0  0
    1.5665    2.3026    3.4590 H   0  0  0  0  0  0  0  0  0  0  0  0
   -2.7493   -3.7977   -0.8183 H   0  0  0  0  0  0  0  0  0  0  0  0
   -3.8867   -3.2388    3.9651 H   0  0  0  0  0  0  0  0  0  0  0  0
   -4.4584   -1.4796    2.3710 H   0  0  0  0  0  0  0  0  0  0  0  0
   -1.0617   -6.6632    2.0187 H   0  0  0  0  0  0  0  0  0  0  0  0
  1  2  2  0  0  0  0
  1  8  1  0  0  0  0
  2  3  1  0  0  0  0
  2 27  1  0  0  0  0
  3  4  2  0  0  0  0
  3 28  1  0  0  0  0
  4  5  1  0  0  0  0
  4 13  1  0  0  0  0
  5  6  2  0  0  0  0
  5 29  1  0  0  0  0
  6  1  1  0  0  0  0
  6  7  1  0  0  0  0
  7  9  2  0  0  0  0
  7 10  1  0  0  0  0
  8 11  1  0  0  0  0
  8 12  2  0  0  0  0
 10 30  1  0  0  0  0
 13 14  1  0  0  0  0
 14 15  1  0  0  0  0
 15 16  2  0  0  0  0
 16 17  1  0  0  0  0
 16 31  1  0  0  0  0
 17 18  2  0  0  0  0
 17 22  1  0  0  0  0
 18 19  1  0  0  0  0
 18 21  1  0  0  0  0
 19 20  2  0  0  0  0
 19 32  1  0  0  0  0
 20 15  1  0  0  0  0
 20 33  1  0  0  0  0
 21 25  2  0  0  0  0
 21 26  1  0  0  0  0
 22 23  1  0  0  0  0
 22 24  2  0  0  0  0
 23 34  1  0  0  0  0
M  CHG  4   8   1  11  -1  21   1  26  -1
M  END
>  <Mol_ID>
5101

>  <Formula>
C14H8N2O8S2

>  <MolWeight>
396.35192

>  <Cat>
S2764

>  <Name>
DTNB

>  <Synonyms>
Ellman¡¯s Reag, Ellmans Reagenz, 5,5¡ä-Dithiobis(2-nitrobenzoic acid), 5,5¡ä-Dithiobis-2-nitrobenzoes?ure

>  <Target>
Antiviral

>  <Form>
free base

>  <CAS>
69-78-3

>  <URL>
http://www.selleckchem.com/products/dtnb.html

$$$$
