Dyclonine hydrochloride.cdx
 OpenBabel08302519503D

 48 49  0  0  0  0  0  0  0  0999 V2000
    1.1681   -0.3598    0.5912 C   0  0  0  0  0  0  0  0  0  0  0  0
    0.3328   -1.4019    0.1800 C   0  0  0  0  0  0  0  0  0  0  0  0
   -1.0090   -1.1302   -0.0985 C   0  0  0  0  0  0  0  0  0  0  0  0
   -1.5309    0.1562    0.0848 C   0  0  0  0  0  0  0  0  0  0  0  0
   -0.7018    1.1846    0.5391 C   0  0  0  0  0  0  0  0  0  0  0  0
    0.6536    0.9283    0.7691 C   0  0  0  0  0  0  0  0  0  0  0  0
    0.7103   -2.7071    0.0056 O   0  0  0  0  0  0  0  0  0  0  0  0
    1.9108   -3.1074    0.6664 C   0  0  0  0  0  0  0  0  0  0  0  0
    1.9548   -4.6284    0.8217 C   0  0  0  0  0  0  0  0  0  0  0  0
    2.1623   -5.4312   -0.4653 C   0  0  0  0  0  0  0  0  0  0  0  0
    1.0161   -5.3457   -1.4597 C   0  0  0  0  0  0  0  0  0  0  0  0
   -1.2138    2.5630    0.7646 C   0  0  0  0  0  0  0  0  0  0  0  0
   -2.6054    2.7509    1.3329 C   0  0  0  0  0  0  0  0  0  0  0  0
   -2.7853    2.1313    2.7263 C   0  0  0  0  0  0  0  0  0  0  0  0
   -1.7897    2.5618    3.7211 N   0  0  0  0  0  0  0  0  0  0  0  0
   -0.5007    3.5205    0.4572 O   0  0  0  0  0  0  0  0  0  0  0  0
   -1.8793    3.9983    4.0292 C   0  0  0  0  0  0  0  0  0  0  0  0
   -0.7525    4.4269    4.9727 C   0  0  0  0  0  0  0  0  0  0  0  0
   -0.7268    3.5884    6.2458 C   0  0  0  0  0  0  0  0  0  0  0  0
   -0.7576    2.1019    5.9119 C   0  0  0  0  0  0  0  0  0  0  0  0
   -1.9057    1.7706    4.9569 C   0  0  0  0  0  0  0  0  0  0  0  0
    2.2264   -0.5203    0.7807 H   0  0  0  0  0  0  0  0  0  0  0  0
   -1.6554   -1.9303   -0.4522 H   0  0  0  0  0  0  0  0  0  0  0  0
   -2.5776    0.3311   -0.1455 H   0  0  0  0  0  0  0  0  0  0  0  0
    1.3097    1.7317    1.0995 H   0  0  0  0  0  0  0  0  0  0  0  0
    2.7819   -2.7560    0.1023 H   0  0  0  0  0  0  0  0  0  0  0  0
    1.9395   -2.6854    1.6793 H   0  0  0  0  0  0  0  0  0  0  0  0
    2.7828   -4.8727    1.4989 H   0  0  0  0  0  0  0  0  0  0  0  0
    1.0318   -4.9707    1.3055 H   0  0  0  0  0  0  0  0  0  0  0  0
    3.0967   -5.1319   -0.9542 H   0  0  0  0  0  0  0  0  0  0  0  0
    2.2853   -6.4836   -0.1795 H   0  0  0  0  0  0  0  0  0  0  0  0
    1.1147   -4.4603   -2.0952 H   0  0  0  0  0  0  0  0  0  0  0  0
    1.0240   -6.2235   -2.1151 H   0  0  0  0  0  0  0  0  0  0  0  0
    0.0441   -5.3118   -0.9582 H   0  0  0  0  0  0  0  0  0  0  0  0
   -2.8136    3.8266    1.3668 H   0  0  0  0  0  0  0  0  0  0  0  0
   -3.3405    2.3359    0.6351 H   0  0  0  0  0  0  0  0  0  0  0  0
   -3.8009    2.3446    3.0842 H   0  0  0  0  0  0  0  0  0  0  0  0
   -2.7217    1.0407    2.6179 H   0  0  0  0  0  0  0  0  0  0  0  0
   -2.8517    4.2397    4.4774 H   0  0  0  0  0  0  0  0  0  0  0  0
   -1.7814    4.6004    3.1218 H   0  0  0  0  0  0  0  0  0  0  0  0
   -0.8715    5.4859    5.2319 H   0  0  0  0  0  0  0  0  0  0  0  0
    0.2100    4.3314    4.4545 H   0  0  0  0  0  0  0  0  0  0  0  0
    0.1696    3.8237    6.8297 H   0  0  0  0  0  0  0  0  0  0  0  0
   -1.5916    3.8411    6.8679 H   0  0  0  0  0  0  0  0  0  0  0  0
    0.1951    1.8104    5.4514 H   0  0  0  0  0  0  0  0  0  0  0  0
   -0.8580    1.5174    6.8337 H   0  0  0  0  0  0  0  0  0  0  0  0
   -1.8577    0.6992    4.7288 H   0  0  0  0  0  0  0  0  0  0  0  0
   -2.8683    1.9546    5.4518 H   0  0  0  0  0  0  0  0  0  0  0  0
  1  2  2  0  0  0  0
  1 22  1  0  0  0  0
  2  3  1  0  0  0  0
  2  7  1  0  0  0  0
  3  4  2  0  0  0  0
  3 23  1  0  0  0  0
  4  5  1  0  0  0  0
  4 24  1  0  0  0  0
  5  6  2  0  0  0  0
  5 12  1  0  0  0  0
  6  1  1  0  0  0  0
  6 25  1  0  0  0  0
  7  8  1  0  0  0  0
  8  9  1  0  0  0  0
  8 26  1  0  0  0  0
  8 27  1  0  0  0  0
  9 10  1  0  0  0  0
  9 28  1  0  0  0  0
  9 29  1  0  0  0  0
 10 11  1  0  0  0  0
 10 30  1  0  0  0  0
 10 31  1  0  0  0  0
 11 32  1  0  0  0  0
 11 33  1  0  0  0  0
 11 34  1  0  0  0  0
 12 13  1  0  0  0  0
 12 16  2  0  0  0  0
 13 14  1  0  0  0  0
 13 35  1  0  0  0  0
 13 36  1  0  0  0  0
 14 15  1  0  0  0  0
 14 37  1  0  0  0  0
 14 38  1  0  0  0  0
 15 17  1  0  0  0  0
 17 18  1  0  0  0  0
 17 39  1  0  0  0  0
 17 40  1  0  0  0  0
 18 19  1  0  0  0  0
 18 41  1  0  0  0  0
 18 42  1  0  0  0  0
 19 20  1  0  0  0  0
 19 43  1  0  0  0  0
 19 44  1  0  0  0  0
 20 21  1  0  0  0  0
 20 45  1  0  0  0  0
 20 46  1  0  0  0  0
 21 15  1  0  0  0  0
 21 47  1  0  0  0  0
 21 48  1  0  0  0  0
M  END
>  <Mol_ID>
171

>  <Formula>
C18H28ClNO2

>  <MolWeight>
325.87342

>  <Cat>
S2041

>  <Name>
Dyclonine HCl

>  <Synonyms>
Dyclocaine HCl

>  <Target>
Sodium Channel

>  <Form>
Hydrochloride

>  <CAS>
536-43-6

>  <URL>
http://selleckchem.com/products/dyclonine-hydrochloride.html

$$$$
