DYNACIRC (isradipine).cdx
 OpenBabel08302520403D

 48 50  0  0  0  0  0  0  0  0999 V2000
    1.0024   -0.1878    0.0665 C   0  0  0  0  0  0  0  0  0  0  0  0
    0.4382    1.0995    0.2932 C   0  0  0  0  0  0  0  0  0  0  0  0
   -0.8743    1.4737   -0.0996 C   0  0  0  0  0  0  0  0  0  0  0  0
   -1.5846    0.4057   -0.7115 C   0  0  0  0  0  0  0  0  0  0  0  0
   -1.0040   -0.9121   -0.9374 C   0  0  0  0  0  0  0  0  0  0  0  0
    0.3099   -1.2357   -0.5624 C   0  0  0  0  0  0  0  0  0  0  0  0
   -2.8396    0.3840   -1.1866 N   0  0  0  0  0  0  0  0  0  0  0  0
   -3.0399   -0.8880   -1.6885 O   0  0  0  0  0  0  0  0  0  0  0  0
   -1.9174   -1.6814   -1.5431 N   0  0  0  0  0  0  0  0  0  0  0  0
   -1.4606    2.8587    0.0898 C   0  0  3  0  0  0  0  0  0  0  0  0
   -1.9933    3.1883    1.5084 C   0  0  0  0  0  0  0  0  0  0  0  0
   -2.4848    4.4399    1.6956 C   0  0  0  0  0  0  0  0  0  0  0  0
   -2.3616    5.3516    0.6539 N   0  0  0  0  0  0  0  0  0  0  0  0
   -1.3080    5.2980   -0.2613 C   0  0  0  0  0  0  0  0  0  0  0  0
   -0.7685    4.0888   -0.5730 C   0  0  0  0  0  0  0  0  0  0  0  0
   -1.9149    2.1883    2.5966 C   0  0  0  0  0  0  0  0  0  0  0  0
   -0.9580    1.4513    2.7902 O   0  0  0  0  0  0  0  0  0  0  0  0
   -3.0296    2.2104    3.3705 O   0  0  0  0  0  0  0  0  0  0  0  0
   -2.9882    1.4385    4.5748 C   0  0  0  0  0  0  0  0  0  0  0  0
   -3.0936    5.0540    2.9332 C   0  0  0  0  0  0  0  0  0  0  0  0
   -0.9197    6.6723   -0.7464 C   0  0  0  0  0  0  0  0  0  0  0  0
    0.3873    3.9711   -1.5258 C   0  0  0  0  0  0  0  0  0  0  0  0
    0.4237    2.7524   -2.1038 O   0  0  0  0  0  0  0  0  0  0  0  0
    1.4817    2.4298   -3.0318 C   0  0  0  0  0  0  0  0  0  0  0  0
    2.8132    2.1348   -2.3221 C   0  0  0  0  0  0  0  0  0  0  0  0
    1.0068    1.1952   -3.7898 C   0  0  0  0  0  0  0  0  0  0  0  0
    1.1903    4.8605   -1.7567 O   0  0  0  0  0  0  0  0  0  0  0  0
    2.0300   -0.3637    0.3882 H   0  0  0  0  0  0  0  0  0  0  0  0
    1.0654    1.8429    0.7899 H   0  0  0  0  0  0  0  0  0  0  0  0
    0.7469   -2.2073   -0.7469 H   0  0  0  0  0  0  0  0  0  0  0  0
   -2.3901    2.8018   -0.5039 H   0  0  0  0  0  0  0  0  0  0  0  0
   -2.7079    6.2883    0.8568 H   0  0  0  0  0  0  0  0  0  0  0  0
   -3.6067    0.5459    4.4370 H   0  0  0  0  0  0  0  0  0  0  0  0
   -1.9764    1.1506    4.8778 H   0  0  0  0  0  0  0  0  0  0  0  0
   -3.4200    2.0426    5.3789 H   0  0  0  0  0  0  0  0  0  0  0  0
   -2.4563    5.8765    3.2793 H   0  0  0  0  0  0  0  0  0  0  0  0
   -4.0756    5.4768    2.6878 H   0  0  0  0  0  0  0  0  0  0  0  0
   -3.2331    4.3891    3.7824 H   0  0  0  0  0  0  0  0  0  0  0  0
   -1.7876    7.1556   -1.2094 H   0  0  0  0  0  0  0  0  0  0  0  0
   -0.6274    7.2852    0.1136 H   0  0  0  0  0  0  0  0  0  0  0  0
   -0.1073    6.7081   -1.4671 H   0  0  0  0  0  0  0  0  0  0  0  0
    1.6259    3.2515   -3.7439 H   0  0  0  0  0  0  0  0  0  0  0  0
    2.6755    1.5763   -1.3952 H   0  0  0  0  0  0  0  0  0  0  0  0
    3.4958    1.5689   -2.9659 H   0  0  0  0  0  0  0  0  0  0  0  0
    3.3202    3.0673   -2.0549 H   0  0  0  0  0  0  0  0  0  0  0  0
    0.2027    1.4764   -4.4787 H   0  0  0  0  0  0  0  0  0  0  0  0
    1.8051    0.7251   -4.3709 H   0  0  0  0  0  0  0  0  0  0  0  0
    0.5848    0.4500   -3.1108 H   0  0  0  0  0  0  0  0  0  0  0  0
  1  2  1  0  0  0  0
  1 28  1  0  0  0  0
  2  3  2  0  0  0  0
  2 29  1  0  0  0  0
  3  4  1  0  0  0  0
  3 10  1  0  0  0  0
  4  5  1  0  0  0  0
  4  7  2  0  0  0  0
  5  6  1  0  0  0  0
  6  1  2  0  0  0  0
  6 30  1  0  0  0  0
  7  8  1  0  0  0  0
  8  9  1  0  0  0  0
  9  5  2  0  0  0  0
 10 11  1  0  0  0  0
 10 31  1  0  0  0  0
 11 12  2  0  0  0  0
 11 16  1  0  0  0  0
 12 13  1  0  0  0  0
 12 20  1  0  0  0  0
 13 14  1  0  0  0  0
 13 32  1  0  0  0  0
 14 15  2  0  0  0  0
 14 21  1  0  0  0  0
 15 10  1  0  0  0  0
 15 22  1  0  0  0  0
 16 17  2  0  0  0  0
 16 18  1  0  0  0  0
 18 19  1  0  0  0  0
 19 33  1  0  0  0  0
 19 34  1  0  0  0  0
 19 35  1  0  0  0  0
 20 36  1  0  0  0  0
 20 37  1  0  0  0  0
 20 38  1  0  0  0  0
 21 39  1  0  0  0  0
 21 40  1  0  0  0  0
 21 41  1  0  0  0  0
 22 23  1  0  0  0  0
 22 27  2  0  0  0  0
 23 24  1  0  0  0  0
 24 25  1  0  0  0  0
 24 26  1  0  0  0  0
 24 42  1  0  0  0  0
 25 43  1  0  0  0  0
 25 44  1  0  0  0  0
 25 45  1  0  0  0  0
 26 46  1  0  0  0  0
 26 47  1  0  0  0  0
 26 48  1  0  0  0  0
M  END
>  <Mol_ID>
380

>  <Formula>
C19H21N3O5

>  <MolWeight>
371.38714

>  <Cat>
S1662

>  <Name>
Isradipine

>  <Synonyms>
PN 200-110

>  <Target>
Calcium Channel

>  <Form>
free base

>  <CAS>
75695-93-1

>  <URL>
http://selleckchem.com/products/Isradipine(Dynacirc).html

$$$$
