DYRENIUM (triamterene).cdx
 OpenBabel08302522043D

 30 32  0  0  0  0  0  0  0  0999 V2000
    2.2532   -0.6128    0.1026 C   0  0  0  0  0  0  0  0  0  0  0  0
    1.1312   -1.3223    0.0871 N   0  0  0  0  0  0  0  0  0  0  0  0
   -0.0206   -0.6588    0.0318 C   0  0  0  0  0  0  0  0  0  0  0  0
   -0.0971    0.7333   -0.0303 C   0  0  0  0  0  0  0  0  0  0  0  0
    1.1432    1.3604   -0.0525 C   0  0  0  0  0  0  0  0  0  0  0  0
    2.3172    0.7119    0.0043 N   0  0  0  0  0  0  0  0  0  0  0  0
   -1.1462   -1.3798    0.0467 N   0  0  0  0  0  0  0  0  0  0  0  0
   -2.3341   -0.7358    0.0404 C   0  0  0  0  0  0  0  0  0  0  0  0
   -2.4194    0.6675    0.0320 C   0  0  0  0  0  0  0  0  0  0  0  0
   -1.2836    1.4082   -0.0339 N   0  0  0  0  0  0  0  0  0  0  0  0
    3.4427   -1.2994    0.2041 N   0  0  0  0  0  0  0  0  0  0  0  0
    1.2316    2.7532   -0.2193 N   0  0  0  0  0  0  0  0  0  0  0  0
   -3.4388   -1.5880    0.0782 N   0  0  0  0  0  0  0  0  0  0  0  0
   -3.6730    1.4576    0.0940 C   0  0  0  0  0  0  0  0  0  0  0  0
   -4.8145    1.0161    0.7888 C   0  0  0  0  0  0  0  0  0  0  0  0
   -5.9898    1.7736    0.8296 C   0  0  0  0  0  0  0  0  0  0  0  0
   -6.0434    3.0116    0.1995 C   0  0  0  0  0  0  0  0  0  0  0  0
   -4.9227    3.4919   -0.4696 C   0  0  0  0  0  0  0  0  0  0  0  0
   -3.7551    2.7225   -0.5229 C   0  0  0  0  0  0  0  0  0  0  0  0
    3.3363   -2.2517   -0.1167 H   0  0  0  0  0  0  0  0  0  0  0  0
    4.2057   -0.7578   -0.1763 H   0  0  0  0  0  0  0  0  0  0  0  0
    0.5386    3.2360    0.3462 H   0  0  0  0  0  0  0  0  0  0  0  0
    2.1883    3.0519   -0.0676 H   0  0  0  0  0  0  0  0  0  0  0  0
   -3.0933   -2.5429    0.0100 H   0  0  0  0  0  0  0  0  0  0  0  0
   -4.1147   -1.3682   -0.6463 H   0  0  0  0  0  0  0  0  0  0  0  0
   -4.8039    0.0736    1.3330 H   0  0  0  0  0  0  0  0  0  0  0  0
   -6.8571    1.3957    1.3652 H   0  0  0  0  0  0  0  0  0  0  0  0
   -6.9526    3.6053    0.2403 H   0  0  0  0  0  0  0  0  0  0  0  0
   -4.9514    4.4672   -0.9486 H   0  0  0  0  0  0  0  0  0  0  0  0
   -2.8928    3.1258   -1.0532 H   0  0  0  0  0  0  0  0  0  0  0  0
  1  2  2  0  0  0  0
  1 11  1  0  0  0  0
  2  3  1  0  0  0  0
  3  4  2  0  0  0  0
  3  7  1  0  0  0  0
  4  5  1  0  0  0  0
  5  6  2  0  0  0  0
  5 12  1  0  0  0  0
  6  1  1  0  0  0  0
  7  8  2  0  0  0  0
  8  9  1  0  0  0  0
  8 13  1  0  0  0  0
  9 10  2  0  0  0  0
  9 14  1  0  0  0  0
 10  4  1  0  0  0  0
 11 20  1  0  0  0  0
 11 21  1  0  0  0  0
 12 22  1  0  0  0  0
 12 23  1  0  0  0  0
 13 24  1  0  0  0  0
 13 25  1  0  0  0  0
 14 15  2  0  0  0  0
 15 16  1  0  0  0  0
 15 26  1  0  0  0  0
 16 17  2  0  0  0  0
 16 27  1  0  0  0  0
 17 18  1  0  0  0  0
 17 28  1  0  0  0  0
 18 19  2  0  0  0  0
 18 29  1  0  0  0  0
 19 14  1  0  0  0  0
 19 30  1  0  0  0  0
M  END
>  <Mol_ID>
1245

>  <Formula>
C12H11N7

>  <MolWeight>
253.26264

>  <Cat>
S4080

>  <Name>
Triamterene

>  <Synonyms>
SKF8542

>  <Target>
Sodium Channel

>  <Form>
free base

>  <CAS>
396-01-0

>  <URL>
http://selleckchem.com/products/triamterene.html

$$$$
