(E)-3,4-Dimethoxycinnamic acid
 OpenBabel08302521363D

 27 27  0  0  0  0  0  0  0  0999 V2000
    1.0409    0.1055   -0.4307 O   0  0  0  0  0  0  0  0  0  0  0  0
    0.5390   -1.0710   -1.0652 C   0  0  0  0  0  0  0  0  0  0  0  0
    2.6031    2.5824   -0.2652 O   0  0  0  0  0  0  0  0  0  0  0  0
    1.2180    2.8647   -0.1492 C   0  0  0  0  0  0  0  0  0  0  0  0
    5.1783   -2.3555    0.7120 C   0  0  0  0  0  0  0  0  0  0  0  0
    4.6678   -3.4647    1.2701 C   0  0  0  0  0  0  0  0  0  0  0  0
    5.5305   -4.6514    1.4534 C   0  0  0  0  0  0  0  0  0  0  0  0
    4.8681   -5.6683    2.0405 O   0  0  0  0  0  0  0  0  0  0  0  0
    6.6992   -4.7175    1.1177 O   0  0  0  0  0  0  0  0  0  0  0  0
    2.3638    0.0984   -0.0810 C   0  0  0  0  0  0  0  0  0  0  0  0
    3.0600    1.3164   -0.0138 C   0  0  0  0  0  0  0  0  0  0  0  0
    3.0507   -1.0994    0.2046 C   0  0  0  0  0  0  0  0  0  0  0  0
    4.4328    1.2965    0.2615 C   0  0  0  0  0  0  0  0  0  0  0  0
    4.4243   -1.1132    0.4884 C   0  0  0  0  0  0  0  0  0  0  0  0
    5.1128    0.0991    0.4922 C   0  0  0  0  0  0  0  0  0  0  0  0
    1.2883   -1.5897   -1.6719 H   0  0  0  0  0  0  0  0  0  0  0  0
    0.1269   -1.7470   -0.3110 H   0  0  0  0  0  0  0  0  0  0  0  0
   -0.2711   -0.7753   -1.7382 H   0  0  0  0  0  0  0  0  0  0  0  0
    0.6152    2.3120   -0.8720 H   0  0  0  0  0  0  0  0  0  0  0  0
    0.8663    2.7181    0.8769 H   0  0  0  0  0  0  0  0  0  0  0  0
    1.0867    3.9248   -0.3945 H   0  0  0  0  0  0  0  0  0  0  0  0
    6.2254   -2.3345    0.4073 H   0  0  0  0  0  0  0  0  0  0  0  0
    3.6424   -3.5147    1.6038 H   0  0  0  0  0  0  0  0  0  0  0  0
    3.9421   -5.4873    2.2763 H   0  0  0  0  0  0  0  0  0  0  0  0
    2.5125   -2.0409    0.1832 H   0  0  0  0  0  0  0  0  0  0  0  0
    4.9850    2.2342    0.2846 H   0  0  0  0  0  0  0  0  0  0  0  0
    6.1837    0.1319    0.6805 H   0  0  0  0  0  0  0  0  0  0  0  0
  1  2  1  0  0  0  0
  1 10  1  0  0  0  0
  2 16  1  0  0  0  0
  2 17  1  0  0  0  0
  2 18  1  0  0  0  0
  3  4  1  0  0  0  0
  3 11  1  0  0  0  0
  4 19  1  0  0  0  0
  4 20  1  0  0  0  0
  4 21  1  0  0  0  0
  5  6  2  0  0  0  0
  5 14  1  0  0  0  0
  5 22  1  0  0  0  0
  6  7  1  0  0  0  0
  6 23  1  0  0  0  0
  7  8  1  0  0  0  0
  7  9  2  0  0  0  0
  8 24  1  0  0  0  0
 10 11  2  0  0  0  0
 10 12  1  0  0  0  0
 11 13  1  0  0  0  0
 12 14  2  0  0  0  0
 12 25  1  0  0  0  0
 13 15  2  0  0  0  0
 13 26  1  0  0  0  0
 14 15  1  0  0  0  0
 15 27  1  0  0  0  0
M  END
>  <Mol_ID>
7074

>  <Formula>
C11H12O4

>  <MolWeight>
208.21058

>  <Cat>
E4088

>  <Name>
(E)-3,4-Dimethoxycinnamic acid

>  <Synonyms>
(E)-O-Methylferulic acid

>  <Target>
ROS

>  <Form>
Free base

>  <CAS>
14737-89-4

>  <URL>
https://www.selleckchem.com/products/e-3-4-dimethoxycinnamic-acid.html

$$$$
