(E)-3,4,5-Trimethoxycinnamic acid
 OpenBabel08302521363D

 31 31  0  0  0  0  0  0  0  0999 V2000
    0.8596   -0.0945   -0.3397 O   0  0  0  0  0  0  0  0  0  0  0  0
    0.3640   -1.2772   -0.9575 C   0  0  0  0  0  0  0  0  0  0  0  0
    2.0835    2.3204    0.1131 O   0  0  0  0  0  0  0  0  0  0  0  0
    1.0031    2.4066    1.0460 C   0  0  0  0  0  0  0  0  0  0  0  0
    5.0125    2.3109    0.5307 O   0  0  0  0  0  0  0  0  0  0  0  0
    4.4501    3.6086    0.4202 C   0  0  0  0  0  0  0  0  0  0  0  0
    5.0825   -2.4652    0.6061 C   0  0  0  0  0  0  0  0  0  0  0  0
    4.7707   -3.6532    0.0648 C   0  0  0  0  0  0  0  0  0  0  0  0
    5.5517   -4.8526    0.4276 C   0  0  0  0  0  0  0  0  0  0  0  0
    5.0725   -5.9639   -0.1635 O   0  0  0  0  0  0  0  0  0  0  0  0
    6.4983   -4.8580    1.1948 O   0  0  0  0  0  0  0  0  0  0  0  0
    2.1910   -0.0918    0.0046 C   0  0  0  0  0  0  0  0  0  0  0  0
    2.8092    1.1606    0.2023 C   0  0  0  0  0  0  0  0  0  0  0  0
    2.9288   -1.2704    0.1620 C   0  0  0  0  0  0  0  0  0  0  0  0
    4.1999    1.2130    0.3980 C   0  0  0  0  0  0  0  0  0  0  0  0
    4.3067   -1.2338    0.3928 C   0  0  0  0  0  0  0  0  0  0  0  0
    4.9293    0.0130    0.4918 C   0  0  0  0  0  0  0  0  0  0  0  0
    1.0450   -1.6559   -1.7280 H   0  0  0  0  0  0  0  0  0  0  0  0
    0.1639   -2.0441   -0.2012 H   0  0  0  0  0  0  0  0  0  0  0  0
   -0.5826   -1.0341   -1.4465 H   0  0  0  0  0  0  0  0  0  0  0  0
    0.6974    1.4575    1.4984 H   0  0  0  0  0  0  0  0  0  0  0  0
    1.2871    3.0870    1.8547 H   0  0  0  0  0  0  0  0  0  0  0  0
    0.1418    2.8368    0.5253 H   0  0  0  0  0  0  0  0  0  0  0  0
    3.9587    3.7585   -0.5457 H   0  0  0  0  0  0  0  0  0  0  0  0
    3.7827    3.8166    1.2614 H   0  0  0  0  0  0  0  0  0  0  0  0
    5.2737    4.3280    0.4753 H   0  0  0  0  0  0  0  0  0  0  0  0
    5.9421   -2.3743    1.2701 H   0  0  0  0  0  0  0  0  0  0  0  0
    3.9388   -3.7727   -0.6133 H   0  0  0  0  0  0  0  0  0  0  0  0
    4.3127   -5.8383   -0.7589 H   0  0  0  0  0  0  0  0  0  0  0  0
    2.4232   -2.2258    0.1268 H   0  0  0  0  0  0  0  0  0  0  0  0
    6.0060    0.0715    0.6490 H   0  0  0  0  0  0  0  0  0  0  0  0
  1  2  1  0  0  0  0
  1 12  1  0  0  0  0
  2 18  1  0  0  0  0
  2 19  1  0  0  0  0
  2 20  1  0  0  0  0
  3  4  1  0  0  0  0
  3 13  1  0  0  0  0
  4 21  1  0  0  0  0
  4 22  1  0  0  0  0
  4 23  1  0  0  0  0
  5  6  1  0  0  0  0
  5 15  1  0  0  0  0
  6 24  1  0  0  0  0
  6 25  1  0  0  0  0
  6 26  1  0  0  0  0
  7  8  2  0  0  0  0
  7 16  1  0  0  0  0
  7 27  1  0  0  0  0
  8  9  1  0  0  0  0
  8 28  1  0  0  0  0
  9 10  1  0  0  0  0
  9 11  2  0  0  0  0
 10 29  1  0  0  0  0
 12 13  2  0  0  0  0
 12 14  1  0  0  0  0
 13 15  1  0  0  0  0
 14 16  2  0  0  0  0
 14 30  1  0  0  0  0
 15 17  2  0  0  0  0
 16 17  1  0  0  0  0
 17 31  1  0  0  0  0
M  END
>  <Mol_ID>
7294

>  <Formula>
C12H14O5

>  <MolWeight>
238.23656

>  <Cat>
E4322

>  <Name>
(E)-3,4,5-Trimethoxycinnamic acid

>  <Synonyms>
(E)-3,4,5-Trimethoxycinnamic acid

>  <Target>
Others

>  <Form>
free base

>  <CAS>
20329-98-0

>  <URL>
https://www.selleckchem.com/products/e-3-4-5-trimethoxycinnamic-acid.html

$$$$
