E-4031 dihydrochloride
 OpenBabel08302521223D

 55 57  0  0  0  0  0  0  0  0999 V2000
   -4.9909   -6.1066  -10.6637 C   0  0  0  0  0  0  0  0  0  0  0  0
   -4.1462   -5.4422   -9.2417 S   0  0  0  0  0  0  0  0  0  0  0  0
   -2.9810   -6.2601   -8.9884 O   0  0  0  0  0  0  0  0  0  0  0  0
   -4.0630   -4.0071   -9.3988 O   0  0  0  0  0  0  0  0  0  0  0  0
   -5.3156   -5.7208   -8.0314 N   0  0  0  0  0  0  0  0  0  0  0  0
   -4.8186   -5.8163   -6.6854 C   0  0  0  0  0  0  0  0  0  0  0  0
   -4.5595   -4.6659   -5.9493 C   0  0  0  0  0  0  0  0  0  0  0  0
   -4.1699   -4.7702   -4.6064 C   0  0  0  0  0  0  0  0  0  0  0  0
   -4.0180   -6.0207   -3.9739 C   0  0  0  0  0  0  0  0  0  0  0  0
   -4.2350   -7.1725   -4.7382 C   0  0  0  0  0  0  0  0  0  0  0  0
   -4.6239   -7.0675   -6.0952 C   0  0  0  0  0  0  0  0  0  0  0  0
   -3.6561   -6.0143   -2.5041 C   0  0  0  0  0  0  0  0  0  0  0  0
   -3.3984   -4.9234   -1.9913 O   0  0  0  0  0  0  0  0  0  0  0  0
   -1.8381   -7.2832    0.7393 N   0  0  0  0  0  0  0  0  0  0  0  0
   -3.0011   -6.3886    0.6625 C   0  0  0  0  0  0  0  0  0  0  0  0
   -4.1098   -7.0026   -0.2064 C   0  0  0  0  0  0  0  0  0  0  0  0
   -3.6716   -7.2979   -1.6532 C   0  0  0  0  0  0  0  0  0  0  0  0
   -2.3390   -8.0508   -1.6377 C   0  0  0  0  0  0  0  0  0  0  0  0
   -1.3074   -7.5344   -0.6172 C   0  0  0  0  0  0  0  0  0  0  0  0
   -0.7477   -6.7103    1.5847 C   0  0  0  0  0  0  0  0  0  0  0  0
   -0.9985   -6.4654    3.0964 C   0  0  0  0  0  0  0  0  0  0  0  0
   -1.2318   -7.6898    3.9535 C   0  0  0  0  0  0  0  0  0  0  0  0
   -2.3983   -8.4369    3.7883 C   0  0  0  0  0  0  0  0  0  0  0  0
   -2.6358   -9.5173    4.6201 C   0  0  0  0  0  0  0  0  0  0  0  0
   -1.7128   -9.8330    5.6085 C   0  0  0  0  0  0  0  0  0  0  0  0
   -0.5767   -9.0424    5.7419 C   0  0  0  0  0  0  0  0  0  0  0  0
   -0.3249   -7.9850    4.9242 N   0  0  0  0  0  0  0  0  0  0  0  0
    0.4297   -9.3695    6.8058 C   0  0  0  0  0  0  0  0  0  0  0  0
   -5.9257   -5.5615  -10.8125 H   0  0  0  0  0  0  0  0  0  0  0  0
   -5.1789   -7.1697  -10.5049 H   0  0  0  0  0  0  0  0  0  0  0  0
   -4.3481   -5.9711  -11.5369 H   0  0  0  0  0  0  0  0  0  0  0  0
   -5.9904   -4.9532   -8.1043 H   0  0  0  0  0  0  0  0  0  0  0  0
   -4.6714   -3.6799   -6.3952 H   0  0  0  0  0  0  0  0  0  0  0  0
   -4.0009   -3.8508   -4.0455 H   0  0  0  0  0  0  0  0  0  0  0  0
   -4.1201   -8.1657   -4.3172 H   0  0  0  0  0  0  0  0  0  0  0  0
   -4.7967   -7.9693   -6.6779 H   0  0  0  0  0  0  0  0  0  0  0  0
   -2.7113   -5.3996    0.2917 H   0  0  0  0  0  0  0  0  0  0  0  0
   -3.4229   -6.2357    1.6618 H   0  0  0  0  0  0  0  0  0  0  0  0
   -4.9844   -6.3422   -0.1997 H   0  0  0  0  0  0  0  0  0  0  0  0
   -4.4309   -7.9461    0.2588 H   0  0  0  0  0  0  0  0  0  0  0  0
   -4.4412   -7.9501   -2.0839 H   0  0  0  0  0  0  0  0  0  0  0  0
   -2.5486   -9.1024   -1.3981 H   0  0  0  0  0  0  0  0  0  0  0  0
   -1.8824   -8.0454   -2.6341 H   0  0  0  0  0  0  0  0  0  0  0  0
   -0.5239   -8.2999   -0.5399 H   0  0  0  0  0  0  0  0  0  0  0  0
   -0.8325   -6.6310   -1.0203 H   0  0  0  0  0  0  0  0  0  0  0  0
    0.1286   -7.3669    1.5114 H   0  0  0  0  0  0  0  0  0  0  0  0
   -0.4462   -5.7441    1.1542 H   0  0  0  0  0  0  0  0  0  0  0  0
   -1.8268   -5.7617    3.2440 H   0  0  0  0  0  0  0  0  0  0  0  0
   -0.1169   -5.9530    3.4878 H   0  0  0  0  0  0  0  0  0  0  0  0
   -3.1209   -8.1700    3.0263 H   0  0  0  0  0  0  0  0  0  0  0  0
   -3.5360  -10.1093    4.4986 H   0  0  0  0  0  0  0  0  0  0  0  0
   -1.8910  -10.6773    6.2655 H   0  0  0  0  0  0  0  0  0  0  0  0
    1.3114   -9.8350    6.3585 H   0  0  0  0  0  0  0  0  0  0  0  0
    0.7290   -8.4638    7.3422 H   0  0  0  0  0  0  0  0  0  0  0  0
    0.0141  -10.0660    7.5457 H   0  0  0  0  0  0  0  0  0  0  0  0
  1  2  1  0  0  0  0
  1 29  1  0  0  0  0
  1 30  1  0  0  0  0
  1 31  1  0  0  0  0
  2  4  2  0  0  0  0
  2  5  1  0  0  0  0
  2  3  2  0  0  0  0
  5  6  1  0  0  0  0
  5 32  1  0  0  0  0
  6  7  2  0  0  0  0
  6 11  1  0  0  0  0
  7  8  1  0  0  0  0
  7 33  1  0  0  0  0
  8  9  2  0  0  0  0
  8 34  1  0  0  0  0
  9 10  1  0  0  0  0
  9 12  1  0  0  0  0
 10 11  2  0  0  0  0
 10 35  1  0  0  0  0
 11 36  1  0  0  0  0
 12 13  2  0  0  0  0
 12 17  1  0  0  0  0
 14 15  1  0  0  0  0
 14 19  1  0  0  0  0
 14 20  1  0  0  0  0
 15 16  1  0  0  0  0
 15 37  1  0  0  0  0
 15 38  1  0  0  0  0
 16 17  1  0  0  0  0
 16 39  1  0  0  0  0
 16 40  1  0  0  0  0
 17 18  1  0  0  0  0
 17 41  1  0  0  0  0
 18 19  1  0  0  0  0
 18 42  1  0  0  0  0
 18 43  1  0  0  0  0
 19 44  1  0  0  0  0
 19 45  1  0  0  0  0
 20 21  1  0  0  0  0
 20 46  1  0  0  0  0
 20 47  1  0  0  0  0
 21 22  1  0  0  0  0
 21 48  1  0  0  0  0
 21 49  1  0  0  0  0
 22 23  2  0  0  0  0
 22 27  1  0  0  0  0
 23 24  1  0  0  0  0
 23 50  1  0  0  0  0
 24 25  2  0  0  0  0
 24 51  1  0  0  0  0
 25 26  1  0  0  0  0
 25 52  1  0  0  0  0
 26 27  2  0  0  0  0
 26 28  1  0  0  0  0
 28 53  1  0  0  0  0
 28 54  1  0  0  0  0
 28 55  1  0  0  0  0
M  END
>  <Mol_ID>
4749

>  <Formula>
C21H29Cl2N3O3S

>  <MolWeight>
474.44426

>  <Cat>
S6627

>  <Name>
E-4031 dihydrochloride

>  <Synonyms>
N/A

>  <Target>
Potassium Channel

>  <Form>
Dihydrochloride

>  <CAS>
113559-13-0

>  <URL>
http://www.selleck.cn/products/e-4031-dihydrochloride.html

$$$$
