E-64c (Loxistatin Acid).cdx
 OpenBabel08302519583D

 48 48  0  0  0  0  0  0  0  0999 V2000
   -2.1671    2.9721    3.1924 C   0  0  2  0  0  0  0  0  0  0  0  0
   -1.6250    1.9324    4.1416 C   0  0  2  0  0  0  0  0  0  0  0  0
   -2.3638    1.5625    2.9610 O   0  0  0  0  0  0  0  0  0  0  0  0
   -1.1982    3.7032    2.3444 C   0  0  0  0  0  0  0  0  0  0  0  0
   -2.2925    1.7471    5.4416 C   0  0  0  0  0  0  0  0  0  0  0  0
   -0.9081    3.1445    1.1301 N   0  0  0  0  0  0  0  0  0  0  0  0
   -0.7032    4.7445    2.7543 O   0  0  0  0  0  0  0  0  0  0  0  0
   -3.2967    0.8378    5.4268 O   0  0  0  0  0  0  0  0  0  0  0  0
   -1.9469    2.3570    6.4361 O   0  0  0  0  0  0  0  0  0  0  0  0
    0.1146    3.6794    0.2156 C   0  0  2  0  0  0  0  0  0  0  0  0
   -0.0968    2.9326   -1.1194 C   0  0  0  0  0  0  0  0  0  0  0  0
    1.5186    3.4342    0.7968 C   0  0  0  0  0  0  0  0  0  0  0  0
    0.3249    3.5989   -2.2504 N   0  0  0  0  0  0  0  0  0  0  0  0
   -0.5891    1.8056   -1.1568 O   0  0  0  0  0  0  0  0  0  0  0  0
    2.7366    3.8941   -0.0288 C   0  0  0  0  0  0  0  0  0  0  0  0
    0.1674    3.0325   -3.5764 C   0  0  0  0  0  0  0  0  0  0  0  0
    2.7452    5.3958   -0.3130 C   0  0  0  0  0  0  0  0  0  0  0  0
    4.0164    3.5179    0.7307 C   0  0  0  0  0  0  0  0  0  0  0  0
   -1.2119    3.3094   -4.1815 C   0  0  0  0  0  0  0  0  0  0  0  0
   -1.5542    4.8015   -4.3689 C   0  0  0  0  0  0  0  0  0  0  0  0
   -0.5756    5.5138   -5.3038 C   0  0  0  0  0  0  0  0  0  0  0  0
   -2.9788    4.9445   -4.9131 C   0  0  0  0  0  0  0  0  0  0  0  0
   -3.0289    3.5503    3.5043 H   0  0  0  0  0  0  0  0  0  0  0  0
   -0.5610    1.7272    4.1381 H   0  0  0  0  0  0  0  0  0  0  0  0
   -1.3350    2.2570    0.8736 H   0  0  0  0  0  0  0  0  0  0  0  0
   -3.4214    0.4653    4.5279 H   0  0  0  0  0  0  0  0  0  0  0  0
   -0.0825    4.7484    0.0857 H   0  0  0  0  0  0  0  0  0  0  0  0
    1.5792    3.9127    1.7834 H   0  0  0  0  0  0  0  0  0  0  0  0
    1.6254    2.3568    0.9868 H   0  0  0  0  0  0  0  0  0  0  0  0
    0.5915    4.5715   -2.1838 H   0  0  0  0  0  0  0  0  0  0  0  0
    2.7521    3.3566   -0.9837 H   0  0  0  0  0  0  0  0  0  0  0  0
    0.9671    3.4371   -4.2037 H   0  0  0  0  0  0  0  0  0  0  0  0
    0.3210    1.9493   -3.5145 H   0  0  0  0  0  0  0  0  0  0  0  0
    2.7207    5.9776    0.6141 H   0  0  0  0  0  0  0  0  0  0  0  0
    3.6525    5.6766   -0.8608 H   0  0  0  0  0  0  0  0  0  0  0  0
    1.8932    5.7009   -0.9247 H   0  0  0  0  0  0  0  0  0  0  0  0
    4.0575    2.4388    0.9135 H   0  0  0  0  0  0  0  0  0  0  0  0
    4.9097    3.7946    0.1611 H   0  0  0  0  0  0  0  0  0  0  0  0
    4.0638    4.0255    1.7009 H   0  0  0  0  0  0  0  0  0  0  0  0
   -1.2707    2.8001   -5.1519 H   0  0  0  0  0  0  0  0  0  0  0  0
   -1.9774    2.8499   -3.5425 H   0  0  0  0  0  0  0  0  0  0  0  0
   -1.5215    5.3005   -3.3926 H   0  0  0  0  0  0  0  0  0  0  0  0
   -0.5392    5.0285   -6.2849 H   0  0  0  0  0  0  0  0  0  0  0  0
   -0.8738    6.5571   -5.4544 H   0  0  0  0  0  0  0  0  0  0  0  0
    0.4369    5.5254   -4.8899 H   0  0  0  0  0  0  0  0  0  0  0  0
   -3.7031    4.4728   -4.2408 H   0  0  0  0  0  0  0  0  0  0  0  0
   -3.2539    6.0003   -5.0099 H   0  0  0  0  0  0  0  0  0  0  0  0
   -3.0773    4.4783   -5.8996 H   0  0  0  0  0  0  0  0  0  0  0  0
  1  2  1  0  0  0  0
  1  3  1  0  0  0  0
  1 23  1  1  0  0  0
  1  4  1  0  0  0  0
  2  3  1  0  0  0  0
  2 24  1  6  0  0  0
  2  5  1  0  0  0  0
  4  6  1  0  0  0  0
  4  7  2  0  0  0  0
  5  8  1  0  0  0  0
  5  9  2  0  0  0  0
  6 25  1  0  0  0  0
  8 26  1  0  0  0  0
 10 12  1  0  0  0  0
 10 27  1  6  0  0  0
 10 11  1  0  0  0  0
 10  6  1  0  0  0  0
 11 13  1  0  0  0  0
 11 14  2  0  0  0  0
 12 15  1  0  0  0  0
 12 28  1  0  0  0  0
 12 29  1  0  0  0  0
 13 16  1  0  0  0  0
 13 30  1  0  0  0  0
 15 17  1  0  0  0  0
 15 18  1  0  0  0  0
 15 31  1  0  0  0  0
 16 19  1  0  0  0  0
 16 32  1  0  0  0  0
 16 33  1  0  0  0  0
 17 34  1  0  0  0  0
 17 35  1  0  0  0  0
 17 36  1  0  0  0  0
 18 37  1  0  0  0  0
 18 38  1  0  0  0  0
 18 39  1  0  0  0  0
 19 20  1  0  0  0  0
 19 40  1  0  0  0  0
 19 41  1  0  0  0  0
 20 21  1  0  0  0  0
 20 22  1  0  0  0  0
 20 42  1  0  0  0  0
 21 43  1  0  0  0  0
 21 44  1  0  0  0  0
 21 45  1  0  0  0  0
 22 46  1  0  0  0  0
 22 47  1  0  0  0  0
 22 48  1  0  0  0  0
M  END
>  <Mol_ID>
2392

>  <Formula>
C15H26N2O5

>  <MolWeight>
314.37734

>  <Cat>
S7392

>  <Name>
Loxistatin Acid (E-64C)

>  <Synonyms>
NSC 694279, EP 475

>  <Target>
COVID-19,Cysteine Protease

>  <Form>
free base

>  <CAS>
76684-89-4

>  <URL>
http://selleckchem.com/products/loxistatin-acid-e-64c.html

$$$$
