(E)-Cinnamamide
 OpenBabel08302521363D

 20 20  0  0  0  0  0  0  0  0999 V2000
    0.8765   -0.1600    0.0008 C   0  0  0  0  0  0  0  0  0  0  0  0
    1.8588   -0.9258    0.4953 C   0  0  0  0  0  0  0  0  0  0  0  0
    2.6122   -1.8271   -0.4026 C   0  0  0  0  0  0  0  0  0  0  0  0
    3.5489   -2.5744    0.2393 N   0  0  0  0  0  0  0  0  0  0  0  0
    2.4248   -1.9125   -1.6081 O   0  0  0  0  0  0  0  0  0  0  0  0
    0.0931    0.7317    0.8536 C   0  0  0  0  0  0  0  0  0  0  0  0
    0.5193    2.0433    1.0867 C   0  0  0  0  0  0  0  0  0  0  0  0
   -1.0998    0.2819    1.4296 C   0  0  0  0  0  0  0  0  0  0  0  0
   -0.2591    2.9072    1.8603 C   0  0  0  0  0  0  0  0  0  0  0  0
   -1.8780    1.1479    2.2010 C   0  0  0  0  0  0  0  0  0  0  0  0
   -1.4622    2.4625    2.4077 C   0  0  0  0  0  0  0  0  0  0  0  0
    0.6121   -0.1757   -1.0538 H   0  0  0  0  0  0  0  0  0  0  0  0
    2.1157   -0.9097    1.5482 H   0  0  0  0  0  0  0  0  0  0  0  0
    4.0935   -3.2196   -0.3187 H   0  0  0  0  0  0  0  0  0  0  0  0
    3.7204   -2.5315    1.2323 H   0  0  0  0  0  0  0  0  0  0  0  0
    1.4504    2.4047    0.6564 H   0  0  0  0  0  0  0  0  0  0  0  0
   -1.4367   -0.7397    1.2707 H   0  0  0  0  0  0  0  0  0  0  0  0
    0.0680    3.9303    2.0268 H   0  0  0  0  0  0  0  0  0  0  0  0
   -2.8128    0.7991    2.6318 H   0  0  0  0  0  0  0  0  0  0  0  0
   -2.0772    3.1416    2.9930 H   0  0  0  0  0  0  0  0  0  0  0  0
  1  2  2  0  0  0  0
  1  6  1  0  0  0  0
  1 12  1  0  0  0  0
  2  3  1  0  0  0  0
  2 13  1  0  0  0  0
  3  4  1  0  0  0  0
  3  5  2  0  0  0  0
  4 14  1  0  0  0  0
  4 15  1  0  0  0  0
  6  7  2  0  0  0  0
  6  8  1  0  0  0  0
  7  9  1  0  0  0  0
  7 16  1  0  0  0  0
  8 10  2  0  0  0  0
  8 17  1  0  0  0  0
  9 11  2  0  0  0  0
  9 18  1  0  0  0  0
 10 11  1  0  0  0  0
 10 19  1  0  0  0  0
 11 20  1  0  0  0  0
M  END
>  <Mol_ID>
7242

>  <Formula>
C9H9NO

>  <MolWeight>
147.17386

>  <Cat>
E4251

>  <Name>
(E)-Cinnamamide

>  <Target>
Others

>  <Form>
Free base

>  <CAS>
22031-64-7

>  <URL>
https://www.selleckchem.com/products/e-cinnamamide.html

$$$$
