(E)-Flavokawain A
 OpenBabel08302521463D

 41 42  0  0  0  0  0  0  0  0999 V2000
    1.9886    0.0380    1.1099 O   0  0  0  0  0  0  0  0  0  0  0  0
    2.9573   -0.9590    1.3558 C   0  0  0  0  0  0  0  0  0  0  0  0
    0.7833   -2.7146    0.0666 C   0  0  0  0  0  0  0  0  0  0  0  0
    0.0097   -3.9603    0.3811 C   0  0  0  0  0  0  0  0  0  0  0  0
    1.9331   -2.8204   -0.3277 O   0  0  0  0  0  0  0  0  0  0  0  0
    0.6866   -5.0981    0.6009 C   0  0  0  0  0  0  0  0  0  0  0  0
   -1.9031   -2.2483   -0.9968 O   0  0  0  0  0  0  0  0  0  0  0  0
   -1.7288    2.4145   -0.0355 O   0  0  0  0  0  0  0  0  0  0  0  0
   -3.0372    2.5762   -0.5700 C   0  0  0  0  0  0  0  0  0  0  0  0
   -2.0276  -10.0419    0.6724 O   0  0  0  0  0  0  0  0  0  0  0  0
   -2.1112  -10.8410   -0.5025 C   0  0  0  0  0  0  0  0  0  0  0  0
    0.7629   -0.2000    0.5592 C   0  0  0  0  0  0  0  0  0  0  0  0
    0.1208   -1.3742    0.1050 C   0  0  0  0  0  0  0  0  0  0  0  0
    0.0729    1.0320    0.4792 C   0  0  0  0  0  0  0  0  0  0  0  0
   -1.1856   -1.2264   -0.4216 C   0  0  0  0  0  0  0  0  0  0  0  0
   -1.2197    1.1467   -0.0216 C   0  0  0  0  0  0  0  0  0  0  0  0
   -1.8552    0.0039   -0.4621 C   0  0  0  0  0  0  0  0  0  0  0  0
    0.0100   -6.3971    0.6320 C   0  0  0  0  0  0  0  0  0  0  0  0
    0.0188   -7.1877   -0.5233 C   0  0  0  0  0  0  0  0  0  0  0  0
   -0.6608   -6.8553    1.7660 C   0  0  0  0  0  0  0  0  0  0  0  0
   -0.6508   -8.4158   -0.5555 C   0  0  0  0  0  0  0  0  0  0  0  0
   -1.3245   -8.0868    1.7312 C   0  0  0  0  0  0  0  0  0  0  0  0
   -1.3317   -8.8696    0.5726 C   0  0  0  0  0  0  0  0  0  0  0  0
    2.5647   -1.7636    1.9813 H   0  0  0  0  0  0  0  0  0  0  0  0
    3.4072   -1.3077    0.4247 H   0  0  0  0  0  0  0  0  0  0  0  0
    3.7712   -0.4811    1.9132 H   0  0  0  0  0  0  0  0  0  0  0  0
   -1.0701   -3.9613    0.3197 H   0  0  0  0  0  0  0  0  0  0  0  0
    1.7710   -5.1233    0.6663 H   0  0  0  0  0  0  0  0  0  0  0  0
   -1.3269   -2.6927   -1.6430 H   0  0  0  0  0  0  0  0  0  0  0  0
   -3.0675    2.3005   -1.6297 H   0  0  0  0  0  0  0  0  0  0  0  0
   -3.7724    2.0069    0.0080 H   0  0  0  0  0  0  0  0  0  0  0  0
   -3.3011    3.6353   -0.4931 H   0  0  0  0  0  0  0  0  0  0  0  0
   -2.6566  -10.3183   -1.2954 H   0  0  0  0  0  0  0  0  0  0  0  0
   -1.1179  -11.1506   -0.8437 H   0  0  0  0  0  0  0  0  0  0  0  0
   -2.6713  -11.7473   -0.2528 H   0  0  0  0  0  0  0  0  0  0  0  0
    0.5765    1.9372    0.8216 H   0  0  0  0  0  0  0  0  0  0  0  0
   -2.8566    0.0284   -0.8779 H   0  0  0  0  0  0  0  0  0  0  0  0
    0.5472   -6.8506   -1.4139 H   0  0  0  0  0  0  0  0  0  0  0  0
   -0.6722   -6.2671    2.6797 H   0  0  0  0  0  0  0  0  0  0  0  0
   -0.6210   -8.9876   -1.4771 H   0  0  0  0  0  0  0  0  0  0  0  0
   -1.8472   -8.4395    2.6185 H   0  0  0  0  0  0  0  0  0  0  0  0
  1  2  1  0  0  0  0
  1 12  1  0  0  0  0
  2 24  1  0  0  0  0
  2 25  1  0  0  0  0
  2 26  1  0  0  0  0
  3  4  1  0  0  0  0
  3  5  2  0  0  0  0
  3 13  1  0  0  0  0
  4  6  2  0  0  0  0
  4 27  1  0  0  0  0
  6 18  1  0  0  0  0
  6 28  1  0  0  0  0
  7 15  1  0  0  0  0
  7 29  1  0  0  0  0
  8  9  1  0  0  0  0
  8 16  1  0  0  0  0
  9 30  1  0  0  0  0
  9 31  1  0  0  0  0
  9 32  1  0  0  0  0
 10 11  1  0  0  0  0
 10 23  1  0  0  0  0
 11 33  1  0  0  0  0
 11 34  1  0  0  0  0
 11 35  1  0  0  0  0
 12 13  2  0  0  0  0
 12 14  1  0  0  0  0
 13 15  1  0  0  0  0
 14 16  2  0  0  0  0
 14 36  1  0  0  0  0
 15 17  2  0  0  0  0
 16 17  1  0  0  0  0
 17 37  1  0  0  0  0
 18 19  2  0  0  0  0
 18 20  1  0  0  0  0
 19 21  1  0  0  0  0
 19 38  1  0  0  0  0
 20 22  2  0  0  0  0
 20 39  1  0  0  0  0
 21 23  2  0  0  0  0
 21 40  1  0  0  0  0
 22 23  1  0  0  0  0
 22 41  1  0  0  0  0
M  END
>  <Mol_ID>
9742

>  <Formula>
C18H18O5

>  <MolWeight>
314.33252

>  <Cat>
E2215

>  <Name>
(E)-Flavokawain A

>  <Synonyms>
N/A

>  <Target>
Apoptosis related

>  <Form>
free base

>  <CAS>
37951-13-6

>  <URL>
https://www.selleckchem.com/products/e-flavokawain-a.html

$$$$
