E7080.cdx
 OpenBabel08302521323D

 49 52  0  0  0  0  0  0  0  0999 V2000
    2.1708   -0.9410   -1.6818 C   0  0  0  0  0  0  0  0  0  0  0  0
    2.3398    0.4374   -1.5269 C   0  0  0  0  0  0  0  0  0  0  0  0
    1.2804    1.1772   -0.9594 C   0  0  0  0  0  0  0  0  0  0  0  0
    0.1224    0.6004   -0.4557 C   0  0  0  0  0  0  0  0  0  0  0  0
   -0.0146   -0.7939   -0.5234 C   0  0  0  0  0  0  0  0  0  0  0  0
    0.9582   -1.5177   -1.2560 C   0  0  0  0  0  0  0  0  0  0  0  0
   -0.8016    1.3967    0.1079 N   0  0  0  0  0  0  0  0  0  0  0  0
   -1.8872    0.8289    0.6673 C   0  0  0  0  0  0  0  0  0  0  0  0
   -2.0696   -0.5327    0.7531 C   0  0  0  0  0  0  0  0  0  0  0  0
   -1.0966   -1.3619    0.1984 C   0  0  0  0  0  0  0  0  0  0  0  0
    3.3759    1.2684   -1.8378 O   0  0  0  0  0  0  0  0  0  0  0  0
    4.5533    0.7910   -2.4600 C   0  0  0  0  0  0  0  0  0  0  0  0
    3.2247   -1.9189   -2.0616 C   0  0  0  0  0  0  0  0  0  0  0  0
    2.8645   -2.9929   -2.8276 N   0  0  0  0  0  0  0  0  0  0  0  0
    4.3667   -1.8512   -1.6179 O   0  0  0  0  0  0  0  0  0  0  0  0
   -1.3387   -2.7038    0.4253 O   0  0  0  0  0  0  0  0  0  0  0  0
   -0.3260   -3.6075    0.6581 C   0  0  0  0  0  0  0  0  0  0  0  0
    0.9610   -3.3159    1.1181 C   0  0  0  0  0  0  0  0  0  0  0  0
    1.9865   -4.2750    1.0183 C   0  0  0  0  0  0  0  0  0  0  0  0
    1.6977   -5.5676    0.5872 C   0  0  0  0  0  0  0  0  0  0  0  0
    0.3617   -5.8955    0.3090 C   0  0  0  0  0  0  0  0  0  0  0  0
   -0.6394   -4.9237    0.3314 C   0  0  0  0  0  0  0  0  0  0  0  0
    2.6348   -6.5720    0.3012 N   0  0  0  0  0  0  0  0  0  0  0  0
    3.9795   -6.7082    0.3929 C   0  0  0  0  0  0  0  0  0  0  0  0
    4.4938   -7.6319   -0.2419 O   0  0  0  0  0  0  0  0  0  0  0  0
    4.6947   -5.8701    1.1929 N   0  0  0  0  0  0  0  0  0  0  0  0
    6.1113   -6.0599    1.3519 C   0  0  0  0  0  0  0  0  0  0  0  0
    6.9521   -5.2757    2.3184 C   0  0  0  0  0  0  0  0  0  0  0  0
    7.0484   -4.9976    0.8472 C   0  0  0  0  0  0  0  0  0  0  0  0
    1.3907    2.2565   -0.8611 H   0  0  0  0  0  0  0  0  0  0  0  0
    0.8067   -2.5829   -1.3968 H   0  0  0  0  0  0  0  0  0  0  0  0
   -2.6161    1.5221    1.0789 H   0  0  0  0  0  0  0  0  0  0  0  0
   -2.9409   -0.9426    1.2521 H   0  0  0  0  0  0  0  0  0  0  0  0
    5.2070    0.3135   -1.7261 H   0  0  0  0  0  0  0  0  0  0  0  0
    4.3390    0.1529   -3.3205 H   0  0  0  0  0  0  0  0  0  0  0  0
    5.0984    1.6645   -2.8335 H   0  0  0  0  0  0  0  0  0  0  0  0
    3.5661   -3.7133   -2.9542 H   0  0  0  0  0  0  0  0  0  0  0  0
    1.9206   -3.2022   -3.1153 H   0  0  0  0  0  0  0  0  0  0  0  0
    1.2237   -2.3123    1.4446 H   0  0  0  0  0  0  0  0  0  0  0  0
    3.0006   -3.9363    1.2017 H   0  0  0  0  0  0  0  0  0  0  0  0
    0.0877   -6.9082    0.0200 H   0  0  0  0  0  0  0  0  0  0  0  0
   -1.6544   -5.1884    0.0444 H   0  0  0  0  0  0  0  0  0  0  0  0
    2.2731   -7.3647   -0.2172 H   0  0  0  0  0  0  0  0  0  0  0  0
    4.1938   -5.4271    1.9479 H   0  0  0  0  0  0  0  0  0  0  0  0
    6.4212   -7.0971    1.2196 H   0  0  0  0  0  0  0  0  0  0  0  0
    6.4839   -4.5326    2.9494 H   0  0  0  0  0  0  0  0  0  0  0  0
    7.7961   -5.7805    2.7790 H   0  0  0  0  0  0  0  0  0  0  0  0
    7.9243   -5.3323    0.3039 H   0  0  0  0  0  0  0  0  0  0  0  0
    6.6265   -4.0691    0.4797 H   0  0  0  0  0  0  0  0  0  0  0  0
  1  2  2  0  0  0  0
  1 13  1  0  0  0  0
  2  3  1  0  0  0  0
  2 11  1  0  0  0  0
  3  4  2  0  0  0  0
  3 30  1  0  0  0  0
  4  5  1  0  0  0  0
  4  7  1  0  0  0  0
  5  6  2  0  0  0  0
  6  1  1  0  0  0  0
  6 31  1  0  0  0  0
  7  8  2  0  0  0  0
  8  9  1  0  0  0  0
  8 32  1  0  0  0  0
  9 10  2  0  0  0  0
  9 33  1  0  0  0  0
 10  5  1  0  0  0  0
 10 16  1  0  0  0  0
 11 12  1  0  0  0  0
 12 34  1  0  0  0  0
 12 35  1  0  0  0  0
 12 36  1  0  0  0  0
 13 14  1  0  0  0  0
 13 15  2  0  0  0  0
 14 37  1  0  0  0  0
 14 38  1  0  0  0  0
 16 17  1  0  0  0  0
 17 18  2  0  0  0  0
 18 19  1  0  0  0  0
 18 39  1  0  0  0  0
 19 20  2  0  0  0  0
 19 40  1  0  0  0  0
 20 21  1  0  0  0  0
 20 23  1  0  0  0  0
 21 22  2  0  0  0  0
 21 41  1  0  0  0  0
 22 17  1  0  0  0  0
 22 42  1  0  0  0  0
 23 24  1  0  0  0  0
 23 43  1  0  0  0  0
 24 25  2  0  0  0  0
 24 26  1  0  0  0  0
 26 27  1  0  0  0  0
 26 44  1  0  0  0  0
 27 28  1  0  0  0  0
 27 45  1  0  0  0  0
 28 29  1  0  0  0  0
 28 46  1  0  0  0  0
 28 47  1  0  0  0  0
 29 27  1  0  0  0  0
 29 48  1  0  0  0  0
 29 49  1  0  0  0  0
M  END
>  <Mol_ID>
608

>  <Formula>
C21H19ClN4O4

>  <MolWeight>
426.85296

>  <Cat>
S1164

>  <Name>
Lenvatinib (E7080)

>  <Synonyms>
N/A

>  <Target>
c-Kit,c-RET,FGFR,PDGFR,VEGFR

>  <Form>
free base

>  <CAS>
417716-92-8

>  <URL>
http://selleckchem.com/products/E7080.html

$$$$
