(E/Z)-GSK-3¦Â inhibitor 1
 OpenBabel08302521323D

 27 29  0  0  0  0  0  0  0  0999 V2000
   -1.7220   -1.9748    0.1118 C   0  0  0  0  0  0  0  0  0  0  0  0
    1.3302   -1.8579   -0.1714 O   0  0  0  0  0  0  0  0  0  0  0  0
   -1.3633    0.5003   -0.1139 C   0  0  0  0  0  0  0  0  0  0  0  0
   -0.9322   -0.9034   -0.0431 C   0  0  0  0  0  0  0  0  0  0  0  0
   -0.1934    1.2542   -0.2499 C   0  0  0  0  0  0  0  0  0  0  0  0
   -2.5939    1.1310   -0.0645 C   0  0  0  0  0  0  0  0  0  0  0  0
    0.5722   -0.9092   -0.1552 C   0  0  0  0  0  0  0  0  0  0  0  0
    0.9244    0.4250   -0.2699 N   0  0  0  0  0  0  0  0  0  0  0  0
   -0.1971    2.6305   -0.3525 C   0  0  0  0  0  0  0  0  0  0  0  0
   -2.6244    2.5284   -0.1623 C   0  0  0  0  0  0  0  0  0  0  0  0
   -1.4367    3.2714   -0.3066 C   0  0  0  0  0  0  0  0  0  0  0  0
   -1.2409   -3.3490    0.2359 C   0  0  0  0  0  0  0  0  0  0  0  0
   -0.9854   -4.1322   -0.8843 C   0  0  0  0  0  0  0  0  0  0  0  0
   -1.1249   -3.8063    1.5026 N   0  0  0  0  0  0  0  0  0  0  0  0
   -0.5763   -5.4507   -0.6943 C   0  0  0  0  0  0  0  0  0  0  0  0
   -0.6935   -5.0782    1.6540 C   0  0  0  0  0  0  0  0  0  0  0  0
   -0.4201   -5.9352    0.5975 C   0  0  0  0  0  0  0  0  0  0  0  0
   -2.7969   -1.8746    0.2153 H   0  0  0  0  0  0  0  0  0  0  0  0
   -3.5160    0.5701    0.0509 H   0  0  0  0  0  0  0  0  0  0  0  0
    1.8810    0.7243   -0.3599 H   0  0  0  0  0  0  0  0  0  0  0  0
    0.7198    3.1977   -0.4600 H   0  0  0  0  0  0  0  0  0  0  0  0
   -3.5770    3.0513   -0.1234 H   0  0  0  0  0  0  0  0  0  0  0  0
   -1.4871    4.3555   -0.3813 H   0  0  0  0  0  0  0  0  0  0  0  0
   -1.0988   -3.7326   -1.8858 H   0  0  0  0  0  0  0  0  0  0  0  0
   -0.3722   -6.0905   -1.5476 H   0  0  0  0  0  0  0  0  0  0  0  0
   -0.5701   -5.4039    2.6827 H   0  0  0  0  0  0  0  0  0  0  0  0
   -0.0912   -6.9507    0.7824 H   0  0  0  0  0  0  0  0  0  0  0  0
  1  4  2  0  0  0  0
  1 12  1  0  0  0  0
  1 18  1  0  0  0  0
  2  7  2  0  0  0  0
  3  4  1  0  0  0  0
  3  5  1  0  0  0  0
  3  6  2  0  0  0  0
  4  7  1  0  0  0  0
  5  8  1  0  0  0  0
  5  9  2  0  0  0  0
  6 10  1  0  0  0  0
  6 19  1  0  0  0  0
  7  8  1  0  0  0  0
  8 20  1  0  0  0  0
  9 11  1  0  0  0  0
  9 21  1  0  0  0  0
 10 11  2  0  0  0  0
 10 22  1  0  0  0  0
 11 23  1  0  0  0  0
 12 13  2  0  0  0  0
 12 14  1  0  0  0  0
 13 15  1  0  0  0  0
 13 24  1  0  0  0  0
 14 16  2  0  0  0  0
 15 17  2  0  0  0  0
 15 25  1  0  0  0  0
 16 17  1  0  0  0  0
 16 26  1  0  0  0  0
 17 27  1  0  0  0  0
M  END
>  <Mol_ID>
6263

>  <Formula>
C14H10N2O

>  <MolWeight>
222.242

>  <Cat>
E0381

>  <Name>
(E/Z)-GSK-3¦Â inhibitor 1

>  <Synonyms>
N/A

>  <Target>
GSK-3

>  <Form>
free base

>  <CAS>
3367-88-2

>  <URL>
http://www.selleckchem.com/products/e-z-gsk-3beta-inhibitor-1.html

$$$$
