(E/Z)-BCI
 OpenBabel08302521273D

 47 50  0  0  0  0  0  0  0  0999 V2000
   -2.8262    0.1995   -0.5212 C   0  0  0  0  0  0  0  0  0  0  0  0
   -2.5743   -1.1564   -0.2420 C   0  0  0  0  0  0  0  0  0  0  0  0
   -1.2708   -1.6130   -0.0444 C   0  0  0  0  0  0  0  0  0  0  0  0
   -0.2528   -0.6757   -0.0974 C   0  0  0  0  0  0  0  0  0  0  0  0
   -0.4964    0.6867   -0.2845 C   0  0  0  0  0  0  0  0  0  0  0  0
   -1.7846    1.1327   -0.5461 C   0  0  0  0  0  0  0  0  0  0  0  0
    1.1832   -0.8880    0.1213 C   0  0  0  0  0  0  0  0  0  0  0  0
    1.8465    0.4498    0.0119 C   0  0  0  0  0  0  0  0  0  0  0  0
    0.7507    1.4908   -0.0396 C   0  0  3  0  0  0  0  0  0  0  0  0
    0.7021    2.3594    1.1499 N   0  0  0  0  0  0  0  0  0  0  0  0
    0.5311    1.7218    2.4802 C   0  0  0  0  0  0  0  0  0  0  0  0
    3.1573    0.6993   -0.1077 C   0  0  0  0  0  0  0  0  0  0  0  0
    4.2002   -0.3176   -0.1859 C   0  0  0  0  0  0  0  0  0  0  0  0
    1.6894   -1.9631    0.3685 O   0  0  0  0  0  0  0  0  0  0  0  0
   -0.9089    1.2176    2.6943 C   0  0  0  0  0  0  0  0  0  0  0  0
   -1.3508    0.9680    4.1290 C   0  0  0  0  0  0  0  0  0  0  0  0
   -0.9272    2.0766    5.0703 C   0  0  0  0  0  0  0  0  0  0  0  0
    0.5734    2.2996    4.9655 C   0  0  0  0  0  0  0  0  0  0  0  0
    0.9424    2.7502    3.5542 C   0  0  0  0  0  0  0  0  0  0  0  0
    4.5685   -0.8328   -1.4353 C   0  0  0  0  0  0  0  0  0  0  0  0
    5.5586   -1.8145   -1.5188 C   0  0  0  0  0  0  0  0  0  0  0  0
    6.1805   -2.2748   -0.3617 C   0  0  0  0  0  0  0  0  0  0  0  0
    5.8138   -1.7632    0.8835 C   0  0  0  0  0  0  0  0  0  0  0  0
    4.8219   -0.7870    0.9736 C   0  0  0  0  0  0  0  0  0  0  0  0
   -3.8494    0.5319   -0.6793 H   0  0  0  0  0  0  0  0  0  0  0  0
   -3.4063   -1.8540   -0.1685 H   0  0  0  0  0  0  0  0  0  0  0  0
   -1.0574   -2.6491    0.1857 H   0  0  0  0  0  0  0  0  0  0  0  0
   -1.9902    2.1875   -0.7007 H   0  0  0  0  0  0  0  0  0  0  0  0
    0.9054    2.1276   -0.9210 H   0  0  0  0  0  0  0  0  0  0  0  0
    1.5598    2.9111    1.1605 H   0  0  0  0  0  0  0  0  0  0  0  0
    1.2242    0.8775    2.5858 H   0  0  0  0  0  0  0  0  0  0  0  0
    3.5078    1.7263   -0.2149 H   0  0  0  0  0  0  0  0  0  0  0  0
   -1.6161    1.9184    2.2359 H   0  0  0  0  0  0  0  0  0  0  0  0
   -1.0309    0.2559    2.1955 H   0  0  0  0  0  0  0  0  0  0  0  0
   -2.4425    0.8615    4.1467 H   0  0  0  0  0  0  0  0  0  0  0  0
   -0.9397    0.0125    4.4766 H   0  0  0  0  0  0  0  0  0  0  0  0
   -1.4624    3.0012    4.8210 H   0  0  0  0  0  0  0  0  0  0  0  0
   -1.2020    1.8100    6.0961 H   0  0  0  0  0  0  0  0  0  0  0  0
    0.8841    3.0574    5.6922 H   0  0  0  0  0  0  0  0  0  0  0  0
    1.1068    1.3736    5.2148 H   0  0  0  0  0  0  0  0  0  0  0  0
    2.0265    2.9186    3.5088 H   0  0  0  0  0  0  0  0  0  0  0  0
    0.4654    3.7192    3.3575 H   0  0  0  0  0  0  0  0  0  0  0  0
    4.0795   -0.4841   -2.3402 H   0  0  0  0  0  0  0  0  0  0  0  0
    5.8337   -2.2163   -2.4879 H   0  0  0  0  0  0  0  0  0  0  0  0
    6.9440   -3.0451   -0.4280 H   0  0  0  0  0  0  0  0  0  0  0  0
    6.2897   -2.1365    1.7859 H   0  0  0  0  0  0  0  0  0  0  0  0
    4.5334   -0.4057    1.9499 H   0  0  0  0  0  0  0  0  0  0  0  0
  1  2  2  0  0  0  0
  1 25  1  0  0  0  0
  2  3  1  0  0  0  0
  2 26  1  0  0  0  0
  3  4  2  0  0  0  0
  3 27  1  0  0  0  0
  4  5  1  0  0  0  0
  4  7  1  0  0  0  0
  5  6  2  0  0  0  0
  6  1  1  0  0  0  0
  6 28  1  0  0  0  0
  7  8  1  0  0  0  0
  7 14  2  0  0  0  0
  8  9  1  0  0  0  0
  8 12  2  0  0  0  0
  9  5  1  0  0  0  0
  9 10  1  0  0  0  0
  9 29  1  0  0  0  0
 10 11  1  0  0  0  0
 10 30  1  0  0  0  0
 11 15  1  0  0  0  0
 11 31  1  0  0  0  0
 12 13  1  0  0  0  0
 12 32  1  0  0  0  0
 13 20  2  0  0  0  0
 15 16  1  0  0  0  0
 15 33  1  0  0  0  0
 15 34  1  0  0  0  0
 16 17  1  0  0  0  0
 16 35  1  0  0  0  0
 16 36  1  0  0  0  0
 17 18  1  0  0  0  0
 17 37  1  0  0  0  0
 17 38  1  0  0  0  0
 18 19  1  0  0  0  0
 18 39  1  0  0  0  0
 18 40  1  0  0  0  0
 19 11  1  0  0  0  0
 19 41  1  0  0  0  0
 19 42  1  0  0  0  0
 20 21  1  0  0  0  0
 20 43  1  0  0  0  0
 21 22  2  0  0  0  0
 21 44  1  0  0  0  0
 22 23  1  0  0  0  0
 22 45  1  0  0  0  0
 23 24  2  0  0  0  0
 23 46  1  0  0  0  0
 24 13  1  0  0  0  0
 24 47  1  0  0  0  0
M  END
>  <Mol_ID>
5333

>  <Formula>
C22H23NO

>  <MolWeight>
317.42412

>  <Cat>
S0056

>  <Name>
(E/Z)-BCI

>  <Synonyms>
BCI, NSC 150117

>  <Target>
Apoptosis related,phosphatase,ROS

>  <Form>
Free Base

>  <CAS>
15982-84-0

>  <URL>
https://www.selleckchem.com/products/dual-specificity-protein-phosphatase-1-6-Inhibitor-bcl.htm

$$$$
