EBE-A22
 OpenBabel08302521223D

 39 41  0  0  0  0  0  0  0  0999 V2000
   -1.0933   -1.2575   -0.2016 N   0  0  0  0  0  0  0  0  0  0  0  0
   -2.1914   -0.4998   -0.1214 C   0  0  0  0  0  0  0  0  0  0  0  0
   -2.2181    0.8284    0.0012 N   0  0  0  0  0  0  0  0  0  0  0  0
   -1.0294    1.4713    0.0714 C   0  0  0  0  0  0  0  0  0  0  0  0
    0.1964    0.7464    0.1256 C   0  0  0  0  0  0  0  0  0  0  0  0
    1.5060    1.2649    0.3963 C   0  0  0  0  0  0  0  0  0  0  0  0
    2.6605    0.4744    0.3430 C   0  0  0  0  0  0  0  0  0  0  0  0
    2.5296   -0.8818    0.0557 C   0  0  0  0  0  0  0  0  0  0  0  0
    1.2331   -1.3994   -0.1311 C   0  0  0  0  0  0  0  0  0  0  0  0
    0.0770   -0.6318   -0.0716 C   0  0  0  0  0  0  0  0  0  0  0  0
   -1.0739    2.8880    0.0254 N   0  0  0  0  0  0  0  0  0  0  0  0
   -0.0998    3.5632   -0.8331 C   0  0  0  0  0  0  0  0  0  0  0  0
    3.4632   -1.8731   -0.0147 O   0  0  0  0  0  0  0  0  0  0  0  0
    4.8418   -1.5756    0.0236 C   0  0  0  0  0  0  0  0  0  0  0  0
    3.8096    1.0652    0.7935 O   0  0  0  0  0  0  0  0  0  0  0  0
    4.7108    1.4782   -0.2280 C   0  0  0  0  0  0  0  0  0  0  0  0
   -2.0523    3.7311    0.6159 C   0  0  0  0  0  0  0  0  0  0  0  0
   -2.4240    4.9688    0.0534 C   0  0  0  0  0  0  0  0  0  0  0  0
   -3.2216    5.8791    0.7526 C   0  0  0  0  0  0  0  0  0  0  0  0
   -3.7025    5.5682    2.0155 C   0  0  0  0  0  0  0  0  0  0  0  0
   -3.4261    4.3159    2.5566 C   0  0  0  0  0  0  0  0  0  0  0  0
   -2.6226    3.4034    1.8564 C   0  0  0  0  0  0  0  0  0  0  0  0
   -3.5967    7.5674   -0.0145 Br  0  0  0  0  0  0  0  0  0  0  0  0
   -3.1463   -1.0172   -0.1585 H   0  0  0  0  0  0  0  0  0  0  0  0
    1.6055    2.3039    0.7093 H   0  0  0  0  0  0  0  0  0  0  0  0
    1.1263   -2.4725   -0.3007 H   0  0  0  0  0  0  0  0  0  0  0  0
   -0.5684    4.1190   -1.6517 H   0  0  0  0  0  0  0  0  0  0  0  0
    0.4906    4.2592   -0.2251 H   0  0  0  0  0  0  0  0  0  0  0  0
    0.5955    2.8895   -1.3423 H   0  0  0  0  0  0  0  0  0  0  0  0
    5.1487   -1.0362   -0.8772 H   0  0  0  0  0  0  0  0  0  0  0  0
    5.1193   -1.0577    0.9442 H   0  0  0  0  0  0  0  0  0  0  0  0
    5.3842   -2.5269    0.0172 H   0  0  0  0  0  0  0  0  0  0  0  0
    5.6960    1.0354    0.0036 H   0  0  0  0  0  0  0  0  0  0  0  0
    4.4208    1.1755   -1.2386 H   0  0  0  0  0  0  0  0  0  0  0  0
    4.8473    2.5600   -0.1912 H   0  0  0  0  0  0  0  0  0  0  0  0
   -2.0989    5.2496   -0.9418 H   0  0  0  0  0  0  0  0  0  0  0  0
   -4.2904    6.2862    2.5792 H   0  0  0  0  0  0  0  0  0  0  0  0
   -3.8065    4.0542    3.5404 H   0  0  0  0  0  0  0  0  0  0  0  0
   -2.4001    2.4444    2.3214 H   0  0  0  0  0  0  0  0  0  0  0  0
  1  2  2  0  0  0  0
  1 10  1  0  0  0  0
  2  3  1  0  0  0  0
  2 24  1  0  0  0  0
  3  4  2  0  0  0  0
  4  5  1  0  0  0  0
  4 11  1  0  0  0  0
  5  6  1  0  0  0  0
  5 10  2  0  0  0  0
  6  7  2  0  0  0  0
  6 25  1  0  0  0  0
  7  8  1  0  0  0  0
  7 15  1  0  0  0  0
  8  9  2  0  0  0  0
  8 13  1  0  0  0  0
  9 10  1  0  0  0  0
  9 26  1  0  0  0  0
 11 12  1  0  0  0  0
 11 17  1  0  0  0  0
 12 27  1  0  0  0  0
 12 28  1  0  0  0  0
 12 29  1  0  0  0  0
 13 14  1  0  0  0  0
 14 30  1  0  0  0  0
 14 31  1  0  0  0  0
 14 32  1  0  0  0  0
 15 16  1  0  0  0  0
 16 33  1  0  0  0  0
 16 34  1  0  0  0  0
 16 35  1  0  0  0  0
 17 18  2  0  0  0  0
 17 22  1  0  0  0  0
 18 19  1  0  0  0  0
 18 36  1  0  0  0  0
 19 20  2  0  0  0  0
 19 23  1  0  0  0  0
 20 21  1  0  0  0  0
 20 37  1  0  0  0  0
 21 22  2  0  0  0  0
 21 38  1  0  0  0  0
 22 39  1  0  0  0  0
M  END
>  <Mol_ID>
4715

>  <Formula>
C17H16BrN3O2

>  <MolWeight>
374.23184

>  <Cat>
S6530

>  <Name>
EBE-A22

>  <Synonyms>
N/A

>  <Target>
EGFR

>  <Form>
Free Base

>  <CAS>
229476-53-3

>  <URL>
http://www.selleck.cn/products/ebe-a22.html

$$$$
