Edaravone.cdx
 OpenBabel08302521423D

 23 24  0  0  0  0  0  0  0  0999 V2000
   -1.1636   -0.1428    0.0929 C   0  0  0  0  0  0  0  0  0  0  0  0
   -0.0449   -1.1296    0.0208 C   0  0  0  0  0  0  0  0  0  0  0  0
    1.1421   -0.2139   -0.0299 C   0  0  0  0  0  0  0  0  0  0  0  0
    0.6015    1.0708    0.1417 N   0  0  0  0  0  0  0  0  0  0  0  0
   -0.7811    1.0881    0.2094 N   0  0  0  0  0  0  0  0  0  0  0  0
    1.2917    2.3092    0.1521 C   0  0  0  0  0  0  0  0  0  0  0  0
    2.6529    2.3975   -0.1589 C   0  0  0  0  0  0  0  0  0  0  0  0
    3.3071    3.6349   -0.1769 C   0  0  0  0  0  0  0  0  0  0  0  0
    2.6115    4.7997    0.1345 C   0  0  0  0  0  0  0  0  0  0  0  0
    1.2615    4.7298    0.4617 C   0  0  0  0  0  0  0  0  0  0  0  0
    0.6052    3.4953    0.4634 C   0  0  0  0  0  0  0  0  0  0  0  0
   -2.5888   -0.5656    0.0301 C   0  0  0  0  0  0  0  0  0  0  0  0
    2.2942   -0.5909   -0.1750 O   0  0  0  0  0  0  0  0  0  0  0  0
   -0.1178   -1.7358   -0.8819 H   0  0  0  0  0  0  0  0  0  0  0  0
   -0.0198   -1.7385    0.9270 H   0  0  0  0  0  0  0  0  0  0  0  0
    3.2352    1.5175   -0.4156 H   0  0  0  0  0  0  0  0  0  0  0  0
    4.3602    3.6825   -0.4416 H   0  0  0  0  0  0  0  0  0  0  0  0
    3.1217    5.7591    0.1205 H   0  0  0  0  0  0  0  0  0  0  0  0
    0.7135    5.6339    0.7138 H   0  0  0  0  0  0  0  0  0  0  0  0
   -0.4499    3.4693    0.7237 H   0  0  0  0  0  0  0  0  0  0  0  0
   -2.7364   -1.1985   -0.8495 H   0  0  0  0  0  0  0  0  0  0  0  0
   -2.8477   -1.1321    0.9284 H   0  0  0  0  0  0  0  0  0  0  0  0
   -3.2421    0.3091   -0.0505 H   0  0  0  0  0  0  0  0  0  0  0  0
  1  2  1  0  0  0  0
  1 12  1  0  0  0  0
  2  3  1  0  0  0  0
  2 14  1  0  0  0  0
  2 15  1  0  0  0  0
  3  4  1  0  0  0  0
  3 13  2  0  0  0  0
  4  5  1  0  0  0  0
  4  6  1  0  0  0  0
  5  1  2  0  0  0  0
  6  7  2  0  0  0  0
  7  8  1  0  0  0  0
  7 16  1  0  0  0  0
  8  9  2  0  0  0  0
  8 17  1  0  0  0  0
  9 10  1  0  0  0  0
  9 18  1  0  0  0  0
 10 11  2  0  0  0  0
 10 19  1  0  0  0  0
 11  6  1  0  0  0  0
 11 20  1  0  0  0  0
 12 21  1  0  0  0  0
 12 22  1  0  0  0  0
 12 23  1  0  0  0  0
M  END
>  <Mol_ID>
831

>  <Formula>
C10H10N2O

>  <MolWeight>
174.1992

>  <Cat>
S1326

>  <Name>
Edaravone

>  <Synonyms>
MCI-186

>  <Target>
Antioxidant

>  <Form>
free base

>  <CAS>
89-25-8

>  <URL>
http://selleckchem.com/products/Edaravone.html

$$$$
