Edetate calcium disodium
 OpenBabel08302521383D

 32 31  0  0  0  0  0  0  0  0999 V2000
    2.8413    1.3577   -0.7828 N   0  0  0  0  0  0  0  0  0  0  0  0
    2.0311    1.7262   -1.9819 C   0  0  0  0  0  0  0  0  0  0  0  0
    4.3075    1.3541   -1.0367 C   0  0  0  0  0  0  0  0  0  0  0  0
    2.1780    0.8967   -3.3033 C   0  0  0  0  0  0  0  0  0  0  0  0
    4.9423    2.7861   -1.2127 C   0  0  0  0  0  0  0  0  0  0  0  0
    2.0785   -0.3619   -3.2390 O   0  5  0  0  0  0  0  0  0  0  0  0
    2.2150    1.6002   -4.3746 O   0  0  0  0  0  0  0  0  0  0  0  0
    4.6269    3.6924   -0.3834 O   0  5  0  0  0  0  0  0  0  0  0  0
    5.8259    2.8732   -2.1285 O   0  0  0  0  0  0  0  0  0  0  0  0
    2.0425   -0.8952    2.2793 N   0  0  0  0  0  0  0  0  0  0  0  0
    2.7285    0.1376    1.4580 C   0  0  0  0  0  0  0  0  0  0  0  0
    2.4704   -2.2931    1.9608 C   0  0  0  0  0  0  0  0  0  0  0  0
    2.1411   -0.6062    3.7445 C   0  0  0  0  0  0  0  0  0  0  0  0
    2.3644    0.1443   -0.0736 C   0  0  0  0  0  0  0  0  0  0  0  0
    3.9708   -2.7023    2.1694 C   0  0  0  0  0  0  0  0  0  0  0  0
    1.0850    0.4282    4.2814 C   0  0  0  0  0  0  0  0  0  0  0  0
    4.5052   -2.4694    3.2924 O   0  5  0  0  0  0  0  0  0  0  0  0
    4.4628   -3.4108    1.2244 O   0  0  0  0  0  0  0  0  0  0  0  0
   -0.1413    0.2170    4.0178 O   0  5  0  0  0  0  0  0  0  0  0  0
    1.5442    1.3077    5.0858 O   0  0  0  0  0  0  0  0  0  0  0  0
    0.9668    1.6938   -1.7167 H   0  0  0  0  0  0  0  0  0  0  0  0
    2.2383    2.7787   -2.2124 H   0  0  0  0  0  0  0  0  0  0  0  0
    4.8352    0.9305   -0.1739 H   0  0  0  0  0  0  0  0  0  0  0  0
    4.5524    0.7203   -1.8951 H   0  0  0  0  0  0  0  0  0  0  0  0
    3.8137    0.0562    1.5882 H   0  0  0  0  0  0  0  0  0  0  0  0
    2.4402    1.1223    1.8493 H   0  0  0  0  0  0  0  0  0  0  0  0
    1.8807   -2.9819    2.5802 H   0  0  0  0  0  0  0  0  0  0  0  0
    2.1764   -2.5169    0.9291 H   0  0  0  0  0  0  0  0  0  0  0  0
    1.9181   -1.5171    4.3157 H   0  0  0  0  0  0  0  0  0  0  0  0
    3.1538   -0.2906    4.0198 H   0  0  0  0  0  0  0  0  0  0  0  0
    1.2689    0.1133   -0.1254 H   0  0  0  0  0  0  0  0  0  0  0  0
    2.7345   -0.7645   -0.5607 H   0  0  0  0  0  0  0  0  0  0  0  0
  1  3  1  0  0  0  0
  1  2  1  0  0  0  0
  1 14  1  0  0  0  0
  2  4  1  0  0  0  0
  2 21  1  0  0  0  0
  2 22  1  0  0  0  0
  3  5  1  0  0  0  0
  3 23  1  0  0  0  0
  3 24  1  0  0  0  0
  4  6  1  0  0  0  0
  4  7  2  0  0  0  0
  5  8  1  0  0  0  0
  5  9  2  0  0  0  0
 10 11  1  0  0  0  0
 10 12  1  0  0  0  0
 10 13  1  0  0  0  0
 11 14  1  0  0  0  0
 11 25  1  0  0  0  0
 11 26  1  0  0  0  0
 12 15  1  0  0  0  0
 12 27  1  0  0  0  0
 12 28  1  0  0  0  0
 13 16  1  0  0  0  0
 13 29  1  0  0  0  0
 13 30  1  0  0  0  0
 14 31  1  0  0  0  0
 14 32  1  0  0  0  0
 15 17  1  0  0  0  0
 15 18  2  0  0  0  0
 16 19  1  0  0  0  0
 16 20  2  0  0  0  0
M  CHG  4   6  -1   8  -1  17  -1  19  -1
M  END
>  <Mol_ID>
7884

>  <Formula>
C10H12CaN2Na2O8

>  <MolWeight>
374.26842

>  <Cat>
S5721

>  <Name>
Edetate calcium disodium

>  <Synonyms>
EDTA calcium disodium

>  <Target>
Others

>  <Form>
disodium salt

>  <CAS>
62-33-9

>  <URL>
http://www.selleckchem.com/products/edetate-calcium-disodium.html

$$$$
