Edonerpic maleate
 OpenBabel08302521233D

 53 54  0  0  0  0  0  0  0  0999 V2000
   -7.0135   -3.6350   -8.7512 S   0  0  0  0  0  0  0  0  0  0  0  0
    1.0848   -4.4160    3.2244 O   0  0  0  0  0  0  0  0  0  0  0  0
   -3.9966   -3.2435   -2.0407 O   0  0  0  0  0  0  0  0  0  0  0  0
    1.8414   -0.2449    2.0294 O   0  0  0  0  0  0  0  0  0  0  0  0
    1.1507    0.5914   -0.5034 O   0  0  0  0  0  0  0  0  0  0  0  0
    0.7452   -0.1259    3.9934 O   0  0  0  0  0  0  0  0  0  0  0  0
   -0.7054    1.3358   -1.4820 O   0  0  0  0  0  0  0  0  0  0  0  0
   -1.4641   -4.4382    1.0320 N   0  0  0  0  0  0  0  0  0  0  0  0
   -0.0402   -5.0380    2.5555 C   0  0  0  0  0  0  0  0  0  0  0  0
   -1.3825   -4.2966    2.5226 C   0  0  0  0  0  0  0  0  0  0  0  0
   -0.0607   -4.9127    1.0131 C   0  0  0  0  0  0  0  0  0  0  0  0
   -1.7150   -3.0799    0.4988 C   0  0  0  0  0  0  0  0  0  0  0  0
   -1.7263   -2.6207   -0.9877 C   0  0  0  0  0  0  0  0  0  0  0  0
   -2.5743   -3.2375   -2.1209 C   0  0  0  0  0  0  0  0  0  0  0  0
   -4.7532   -2.0479   -2.2527 C   0  0  0  0  0  0  0  0  0  0  0  0
   -4.7499   -1.2951   -3.6209 C   0  0  0  0  0  0  0  0  0  0  0  0
   -5.3212   -1.8719   -4.9140 C   0  0  0  0  0  0  0  0  0  0  0  0
   -5.4480   -3.2444   -5.1511 C   0  0  0  0  0  0  0  0  0  0  0  0
   -6.0016   -3.7454   -6.3676 C   0  0  0  0  0  0  0  0  0  0  0  0
   -5.6974   -0.9960   -5.9522 C   0  0  0  0  0  0  0  0  0  0  0  0
   -6.3658   -2.8375   -7.3642 C   0  0  0  0  0  0  0  0  0  0  0  0
   -6.1999   -1.4549   -7.1824 C   0  0  0  0  0  0  0  0  0  0  0  0
   -6.2895   -5.0917   -6.7790 C   0  0  0  0  0  0  0  0  0  0  0  0
   -6.8814   -5.1686   -8.0188 C   0  0  0  0  0  0  0  0  0  0  0  0
   -0.4537    0.4333    2.0570 C   0  0  0  0  0  0  0  0  0  0  0  0
   -0.8119    0.7908    0.8114 C   0  0  0  0  0  0  0  0  0  0  0  0
    0.7664    0.0212    2.7849 C   0  0  0  0  0  0  0  0  0  0  0  0
   -0.1415    0.9461   -0.4853 C   0  0  0  0  0  0  0  0  0  0  0  0
    0.7320   -3.6663    3.7349 H   0  0  0  0  0  0  0  0  0  0  0  0
    1.7274   -0.0991    1.0652 H   0  0  0  0  0  0  0  0  0  0  0  0
    1.3749    0.7961   -1.4452 H   0  0  0  0  0  0  0  0  0  0  0  0
   -0.1554   -6.0651    2.9277 H   0  0  0  0  0  0  0  0  0  0  0  0
   -2.1927   -4.7954    3.0639 H   0  0  0  0  0  0  0  0  0  0  0  0
   -1.3062   -3.2738    2.9173 H   0  0  0  0  0  0  0  0  0  0  0  0
    0.6961   -4.2368    0.6049 H   0  0  0  0  0  0  0  0  0  0  0  0
    0.0698   -5.8979    0.5451 H   0  0  0  0  0  0  0  0  0  0  0  0
   -0.9866   -2.4034    0.9712 H   0  0  0  0  0  0  0  0  0  0  0  0
   -2.6957   -2.7932    0.8969 H   0  0  0  0  0  0  0  0  0  0  0  0
   -0.6837   -2.6235   -1.3319 H   0  0  0  0  0  0  0  0  0  0  0  0
   -2.0226   -1.5637   -0.9408 H   0  0  0  0  0  0  0  0  0  0  0  0
   -2.2684   -4.2821   -2.2352 H   0  0  0  0  0  0  0  0  0  0  0  0
   -2.2993   -2.7352   -3.0566 H   0  0  0  0  0  0  0  0  0  0  0  0
   -4.4579   -1.3332   -1.4753 H   0  0  0  0  0  0  0  0  0  0  0  0
   -5.7934   -2.3194   -2.0314 H   0  0  0  0  0  0  0  0  0  0  0  0
   -3.7386   -0.9370   -3.8352 H   0  0  0  0  0  0  0  0  0  0  0  0
   -5.3655   -0.4004   -3.4284 H   0  0  0  0  0  0  0  0  0  0  0  0
   -5.1381   -3.9570   -4.3919 H   0  0  0  0  0  0  0  0  0  0  0  0
   -5.6107    0.0831   -5.8235 H   0  0  0  0  0  0  0  0  0  0  0  0
   -6.4763   -0.7590   -7.9714 H   0  0  0  0  0  0  0  0  0  0  0  0
   -6.0998   -5.9627   -6.1643 H   0  0  0  0  0  0  0  0  0  0  0  0
   -7.2347   -6.0539   -8.5310 H   0  0  0  0  0  0  0  0  0  0  0  0
   -1.2721    0.4550    2.7793 H   0  0  0  0  0  0  0  0  0  0  0  0
   -1.8703    1.0361    0.6909 H   0  0  0  0  0  0  0  0  0  0  0  0
  1 21  1  0  0  0  0
  1 24  1  0  0  0  0
  2  9  1  0  0  0  0
  2 29  1  0  0  0  0
  3 14  1  0  0  0  0
  3 15  1  0  0  0  0
  4 27  1  0  0  0  0
  4 30  1  0  0  0  0
  5 28  1  0  0  0  0
  5 31  1  0  0  0  0
  6 27  2  0  0  0  0
  7 28  2  0  0  0  0
  8 10  1  0  0  0  0
  8 11  1  0  0  0  0
  8 12  1  0  0  0  0
  9 10  1  0  0  0  0
  9 11  1  0  0  0  0
  9 32  1  0  0  0  0
 10 33  1  0  0  0  0
 10 34  1  0  0  0  0
 11 35  1  0  0  0  0
 11 36  1  0  0  0  0
 12 13  1  0  0  0  0
 12 37  1  0  0  0  0
 12 38  1  0  0  0  0
 13 14  1  0  0  0  0
 13 39  1  0  0  0  0
 13 40  1  0  0  0  0
 14 41  1  0  0  0  0
 14 42  1  0  0  0  0
 15 16  1  0  0  0  0
 15 43  1  0  0  0  0
 15 44  1  0  0  0  0
 16 17  1  0  0  0  0
 16 45  1  0  0  0  0
 16 46  1  0  0  0  0
 17 18  2  0  0  0  0
 17 20  1  0  0  0  0
 18 19  1  0  0  0  0
 18 47  1  0  0  0  0
 19 21  2  0  0  0  0
 19 23  1  0  0  0  0
 20 22  2  0  0  0  0
 20 48  1  0  0  0  0
 21 22  1  0  0  0  0
 22 49  1  0  0  0  0
 23 24  2  0  0  0  0
 23 50  1  0  0  0  0
 24 51  1  0  0  0  0
 25 26  2  0  0  0  0
 25 27  1  0  0  0  0
 25 52  1  0  0  0  0
 26 28  1  0  0  0  0
 26 53  1  0  0  0  0
M  END
>  <Mol_ID>
4780

>  <Formula>
C20H25NO6S

>  <MolWeight>
407.4806

>  <Cat>
S6733

>  <Name>
Edonerpic maleate

>  <Synonyms>
T-817 maleate

>  <Target>
Beta Amyloid

>  <Form>
Free Base

>  <CAS>
519187-97-4

>  <URL>
http://www.selleck.cn/products/edonerpic-maleate.html

$$$$
