Edrophonium chloride
 OpenBabel08302520143D

 28 28  0  0  0  0  0  0  0  0999 V2000
   -0.9798   -1.3923   -0.0631 C   0  0  0  0  0  0  0  0  0  0  0  0
   -1.7178   -2.7223    0.2215 N   0  3  0  0  0  0  0  0  0  0  0  0
   -0.7473   -0.9649   -1.3832 C   0  0  0  0  0  0  0  0  0  0  0  0
   -0.5791   -0.5444    0.9821 C   0  0  0  0  0  0  0  0  0  0  0  0
   -1.3851   -3.2042    1.6580 C   0  0  0  0  0  0  0  0  0  0  0  0
   -3.2079   -2.4471    0.0601 C   0  0  0  0  0  0  0  0  0  0  0  0
   -1.2581   -3.7929   -0.7712 C   0  0  0  0  0  0  0  0  0  0  0  0
   -0.0518    0.2226   -1.6237 C   0  0  0  0  0  0  0  0  0  0  0  0
    0.1039    0.6487    0.7287 C   0  0  0  0  0  0  0  0  0  0  0  0
   -1.9188   -4.5877    2.0061 C   0  0  0  0  0  0  0  0  0  0  0  0
    0.3834    1.0237   -0.5782 C   0  0  0  0  0  0  0  0  0  0  0  0
    0.2289    0.6517   -2.8837 O   0  0  0  0  0  0  0  0  0  0  0  0
   -1.1035   -1.5175   -2.2413 H   0  0  0  0  0  0  0  0  0  0  0  0
   -0.7765   -0.7559    2.0276 H   0  0  0  0  0  0  0  0  0  0  0  0
   -0.2925   -3.2015    1.7559 H   0  0  0  0  0  0  0  0  0  0  0  0
   -1.8305   -2.4896    2.3586 H   0  0  0  0  0  0  0  0  0  0  0  0
   -3.4205   -2.2691   -0.9985 H   0  0  0  0  0  0  0  0  0  0  0  0
   -3.7682   -3.3233    0.3966 H   0  0  0  0  0  0  0  0  0  0  0  0
   -3.4785   -1.5740    0.6628 H   0  0  0  0  0  0  0  0  0  0  0  0
   -1.4216   -3.4590   -1.7988 H   0  0  0  0  0  0  0  0  0  0  0  0
   -0.2018   -4.0094   -0.5894 H   0  0  0  0  0  0  0  0  0  0  0  0
   -1.8725   -4.6839   -0.6297 H   0  0  0  0  0  0  0  0  0  0  0  0
    0.4226    1.2887    1.5507 H   0  0  0  0  0  0  0  0  0  0  0  0
   -1.5145   -5.3716    1.3623 H   0  0  0  0  0  0  0  0  0  0  0  0
   -1.6171   -4.8383    3.0300 H   0  0  0  0  0  0  0  0  0  0  0  0
   -3.0101   -4.6277    1.9740 H   0  0  0  0  0  0  0  0  0  0  0  0
    0.9263    1.9442   -0.7835 H   0  0  0  0  0  0  0  0  0  0  0  0
   -0.0505    0.0027   -3.5513 H   0  0  0  0  0  0  0  0  0  0  0  0
  1  2  1  0  0  0  0
  1  3  2  0  0  0  0
  1  4  1  0  0  0  0
  2  5  1  0  0  0  0
  2  6  1  0  0  0  0
  2  7  1  0  0  0  0
  3  8  1  0  0  0  0
  3 13  1  0  0  0  0
  4  9  2  0  0  0  0
  4 14  1  0  0  0  0
  5 10  1  0  0  0  0
  5 15  1  0  0  0  0
  5 16  1  0  0  0  0
  6 17  1  0  0  0  0
  6 18  1  0  0  0  0
  6 19  1  0  0  0  0
  7 20  1  0  0  0  0
  7 21  1  0  0  0  0
  7 22  1  0  0  0  0
  8 11  2  0  0  0  0
  8 12  1  0  0  0  0
  9 11  1  0  0  0  0
  9 23  1  0  0  0  0
 10 24  1  0  0  0  0
 10 25  1  0  0  0  0
 10 26  1  0  0  0  0
 11 27  1  0  0  0  0
 12 28  1  0  0  0  0
M  CHG  1   2   1
M  END
>  <Mol_ID>
3169

>  <Formula>
C10H16ClNO

>  <MolWeight>
201.69314

>  <Cat>
S5900

>  <Name>
Edrophonium chloride

>  <Synonyms>
N/A

>  <Target>
AChR

>  <Form>
chloride

>  <CAS>
116-38-1

>  <URL>
http://www.selleckchem.com/products/edrophonium-chloride.html

$$$$
