EED226.cdx
 OpenBabel08302520433D

 41 44  0  0  0  0  0  0  0  0999 V2000
    1.2360   -0.3903    0.5958 C   0  0  0  0  0  0  0  0  0  0  0  0
    0.4461   -1.3804    0.0071 C   0  0  0  0  0  0  0  0  0  0  0  0
   -0.8054   -1.0681   -0.5298 C   0  0  0  0  0  0  0  0  0  0  0  0
   -1.2930    0.2390   -0.4319 C   0  0  0  0  0  0  0  0  0  0  0  0
   -0.5280    1.2357    0.1924 C   0  0  0  0  0  0  0  0  0  0  0  0
    0.7444    0.9156    0.6873 C   0  0  0  0  0  0  0  0  0  0  0  0
    1.0615   -3.0464   -0.1238 S   0  0  0  0  0  0  0  0  0  0  0  0
   -1.0469    2.6075    0.3348 C   0  0  0  0  0  0  0  0  0  0  0  0
   -0.8038    3.6596   -0.5795 C   0  0  0  0  0  0  0  0  0  0  0  0
   -1.3299    4.8901   -0.2655 N   0  0  0  0  0  0  0  0  0  0  0  0
   -2.0935    5.1374    0.8862 C   0  0  0  0  0  0  0  0  0  0  0  0
   -2.3459    4.1510    1.7044 N   0  0  0  0  0  0  0  0  0  0  0  0
   -1.7978    2.9122    1.4160 C   0  0  0  0  0  0  0  0  0  0  0  0
   -0.1681    3.7405   -1.7304 N   0  0  0  0  0  0  0  0  0  0  0  0
   -0.2944    5.0321   -2.1941 N   0  0  0  0  0  0  0  0  0  0  0  0
   -1.0051    5.7019   -1.3139 C   0  0  0  0  0  0  0  0  0  0  0  0
   -2.5743    6.4122    1.0784 N   0  0  0  0  0  0  0  0  0  0  0  0
   -3.6397    6.7298    2.0167 C   0  0  0  0  0  0  0  0  0  0  0  0
   -4.2191    8.0818    1.7526 C   0  0  0  0  0  0  0  0  0  0  0  0
   -5.4620    8.5266    1.3478 C   0  0  0  0  0  0  0  0  0  0  0  0
   -5.3573    9.9329    1.2028 C   0  0  0  0  0  0  0  0  0  0  0  0
   -4.0644   10.2590    1.5333 C   0  0  0  0  0  0  0  0  0  0  0  0
   -3.3629    9.1429    1.8674 O   0  0  0  0  0  0  0  0  0  0  0  0
    0.4038   -3.6695   -1.2503 O   0  0  0  0  0  0  0  0  0  0  0  0
    2.5092   -2.9873   -0.0428 O   0  0  0  0  0  0  0  0  0  0  0  0
    0.4669   -3.8281    1.3563 C   0  0  0  0  0  0  0  0  0  0  0  0
    2.2332   -0.6144    0.9684 H   0  0  0  0  0  0  0  0  0  0  0  0
   -1.3997   -1.8267   -1.0358 H   0  0  0  0  0  0  0  0  0  0  0  0
   -2.2636    0.4770   -0.8625 H   0  0  0  0  0  0  0  0  0  0  0  0
    1.3665    1.6883    1.1351 H   0  0  0  0  0  0  0  0  0  0  0  0
   -2.0079    2.1475    2.1630 H   0  0  0  0  0  0  0  0  0  0  0  0
   -1.3132    6.7326   -1.3981 H   0  0  0  0  0  0  0  0  0  0  0  0
   -1.9012    7.1707    1.0055 H   0  0  0  0  0  0  0  0  0  0  0  0
   -4.4393    5.9840    1.9291 H   0  0  0  0  0  0  0  0  0  0  0  0
   -3.2669    6.6912    3.0468 H   0  0  0  0  0  0  0  0  0  0  0  0
   -6.3302    7.9100    1.1598 H   0  0  0  0  0  0  0  0  0  0  0  0
   -6.1294   10.6209    0.8857 H   0  0  0  0  0  0  0  0  0  0  0  0
   -3.5149   11.1904    1.5706 H   0  0  0  0  0  0  0  0  0  0  0  0
    0.8899   -3.3232    2.2276 H   0  0  0  0  0  0  0  0  0  0  0  0
   -0.6235   -3.7853    1.3739 H   0  0  0  0  0  0  0  0  0  0  0  0
    0.7934   -4.8709    1.3406 H   0  0  0  0  0  0  0  0  0  0  0  0
  1  2  2  0  0  0  0
  1 27  1  0  0  0  0
  2  3  1  0  0  0  0
  2  7  1  0  0  0  0
  3  4  2  0  0  0  0
  3 28  1  0  0  0  0
  4  5  1  0  0  0  0
  4 29  1  0  0  0  0
  5  6  2  0  0  0  0
  5  8  1  0  0  0  0
  6  1  1  0  0  0  0
  6 30  1  0  0  0  0
  7 24  2  0  0  0  0
  7 25  2  0  0  0  0
  7 26  1  0  0  0  0
  8  9  1  0  0  0  0
  9 10  1  0  0  0  0
  9 14  2  0  0  0  0
 10 11  1  0  0  0  0
 11 12  2  0  0  0  0
 11 17  1  0  0  0  0
 12 13  1  0  0  0  0
 13  8  2  0  0  0  0
 13 31  1  0  0  0  0
 14 15  1  0  0  0  0
 15 16  2  0  0  0  0
 16 10  1  0  0  0  0
 16 32  1  0  0  0  0
 17 18  1  0  0  0  0
 17 33  1  0  0  0  0
 18 19  1  0  0  0  0
 18 34  1  0  0  0  0
 18 35  1  0  0  0  0
 19 20  2  0  0  0  0
 20 21  1  0  0  0  0
 20 36  1  0  0  0  0
 21 22  2  0  0  0  0
 21 37  1  0  0  0  0
 22 23  1  0  0  0  0
 22 38  1  0  0  0  0
 23 19  1  0  0  0  0
 26 39  1  0  0  0  0
 26 40  1  0  0  0  0
 26 41  1  0  0  0  0
M  END
>  <Mol_ID>
4128

>  <Formula>
C17H15N5O3S

>  <MolWeight>
369.3977

>  <Cat>
S8496

>  <Name>
EED226

>  <Synonyms>
N/A

>  <Target>
Epigenetic Reader Domain,Histone Methyltransferase

>  <Form>
free base

>  <CAS>
2083627-02-3

>  <URL>
http://selleckchem.com/products/eed226.html

$$$$
