Efaproxiral sodium.cdx
 OpenBabel08302522063D

 47 48  0  0  0  0  0  0  0  0999 V2000
   -4.2064   -0.0730    0.8615 C   0  0  0  0  0  0  0  0  0  0  0  0
   -3.6076    0.7577   -0.0949 C   0  0  0  0  0  0  0  0  0  0  0  0
   -2.6354    0.2553   -0.9670 C   0  0  0  0  0  0  0  0  0  0  0  0
   -2.2479   -1.0862   -0.8619 C   0  0  0  0  0  0  0  0  0  0  0  0
   -2.8184   -1.9235    0.0983 C   0  0  0  0  0  0  0  0  0  0  0  0
   -3.8167   -1.4174    0.9405 C   0  0  0  0  0  0  0  0  0  0  0  0
   -5.2351    0.4890    1.7986 C   0  0  0  0  0  0  0  0  0  0  0  0
   -1.9945    1.1441   -1.9889 C   0  0  0  0  0  0  0  0  0  0  0  0
   -2.4416   -3.2707    0.2662 N   0  0  0  0  0  0  0  0  0  0  0  0
   -1.3247   -3.8935   -0.2647 C   0  0  0  0  0  0  0  0  0  0  0  0
   -1.2240   -5.3908   -0.0204 C   0  0  0  0  0  0  0  0  0  0  0  0
   -0.4556   -3.3470   -0.9452 O   0  0  0  0  0  0  0  0  0  0  0  0
   -1.9244   -5.9200    1.2014 C   0  0  0  0  0  0  0  0  0  0  0  0
   -3.2638   -6.3200    1.1193 C   0  0  0  0  0  0  0  0  0  0  0  0
   -3.9263   -6.8074    2.2447 C   0  0  0  0  0  0  0  0  0  0  0  0
   -3.2442   -6.9659    3.4459 C   0  0  0  0  0  0  0  0  0  0  0  0
   -1.9287   -6.5080    3.5480 C   0  0  0  0  0  0  0  0  0  0  0  0
   -1.2696   -5.9830    2.4362 C   0  0  0  0  0  0  0  0  0  0  0  0
   -3.7387   -7.5530    4.5726 O   0  0  0  0  0  0  0  0  0  0  0  0
   -4.7718   -8.5748    4.4675 C   0  0  0  0  0  0  0  0  0  0  0  0
   -6.1964   -7.9317    4.3270 C   0  0  0  0  0  0  0  0  0  0  0  0
   -4.4324   -9.6654    3.4372 C   0  0  0  0  0  0  0  0  0  0  0  0
   -4.7806   -9.2585    5.8454 C   0  0  0  0  0  0  0  0  0  0  0  0
   -6.5711   -7.1644    5.2612 O   0  5  0  0  0  0  0  0  0  0  0  0
   -6.8362   -8.2559    3.2808 O   0  0  0  0  0  0  0  0  0  0  0  0
   -3.8997    1.8037   -0.1579 H   0  0  0  0  0  0  0  0  0  0  0  0
   -1.5051   -1.4637   -1.5544 H   0  0  0  0  0  0  0  0  0  0  0  0
   -4.2794   -2.0626    1.6860 H   0  0  0  0  0  0  0  0  0  0  0  0
   -4.7969    1.2970    2.3935 H   0  0  0  0  0  0  0  0  0  0  0  0
   -6.0878    0.8794    1.2346 H   0  0  0  0  0  0  0  0  0  0  0  0
   -5.6089   -0.2715    2.4925 H   0  0  0  0  0  0  0  0  0  0  0  0
   -2.7558    1.5799   -2.6436 H   0  0  0  0  0  0  0  0  0  0  0  0
   -1.4379    1.9458   -1.4939 H   0  0  0  0  0  0  0  0  0  0  0  0
   -1.2913    0.5882   -2.6205 H   0  0  0  0  0  0  0  0  0  0  0  0
   -2.9915   -3.7950    0.9393 H   0  0  0  0  0  0  0  0  0  0  0  0
   -1.6055   -5.8981   -0.9156 H   0  0  0  0  0  0  0  0  0  0  0  0
   -0.1584   -5.6464    0.0481 H   0  0  0  0  0  0  0  0  0  0  0  0
   -3.8095   -6.2612    0.1801 H   0  0  0  0  0  0  0  0  0  0  0  0
   -4.9713   -7.0854    2.1449 H   0  0  0  0  0  0  0  0  0  0  0  0
   -1.4119   -6.5880    4.5012 H   0  0  0  0  0  0  0  0  0  0  0  0
   -0.2397   -5.6495    2.5391 H   0  0  0  0  0  0  0  0  0  0  0  0
   -3.4272  -10.0645    3.6085 H   0  0  0  0  0  0  0  0  0  0  0  0
   -5.1513  -10.4920    3.4857 H   0  0  0  0  0  0  0  0  0  0  0  0
   -4.4535   -9.3063    2.4067 H   0  0  0  0  0  0  0  0  0  0  0  0
   -3.8109   -9.7350    6.0402 H   0  0  0  0  0  0  0  0  0  0  0  0
   -4.9331   -8.5446    6.6604 H   0  0  0  0  0  0  0  0  0  0  0  0
   -5.5577  -10.0301    5.9078 H   0  0  0  0  0  0  0  0  0  0  0  0
  1  2  2  0  0  0  0
  1  7  1  0  0  0  0
  2  3  1  0  0  0  0
  2 26  1  0  0  0  0
  3  4  2  0  0  0  0
  3  8  1  0  0  0  0
  4  5  1  0  0  0  0
  4 27  1  0  0  0  0
  5  6  2  0  0  0  0
  5  9  1  0  0  0  0
  6  1  1  0  0  0  0
  6 28  1  0  0  0  0
  7 29  1  0  0  0  0
  7 30  1  0  0  0  0
  7 31  1  0  0  0  0
  8 32  1  0  0  0  0
  8 33  1  0  0  0  0
  8 34  1  0  0  0  0
  9 10  1  0  0  0  0
  9 35  1  0  0  0  0
 10 11  1  0  0  0  0
 10 12  2  0  0  0  0
 11 13  1  0  0  0  0
 11 36  1  0  0  0  0
 11 37  1  0  0  0  0
 13 14  2  0  0  0  0
 14 15  1  0  0  0  0
 14 38  1  0  0  0  0
 15 16  2  0  0  0  0
 15 39  1  0  0  0  0
 16 17  1  0  0  0  0
 16 19  1  0  0  0  0
 17 18  2  0  0  0  0
 17 40  1  0  0  0  0
 18 13  1  0  0  0  0
 18 41  1  0  0  0  0
 19 20  1  0  0  0  0
 20 21  1  0  0  0  0
 20 22  1  0  0  0  0
 20 23  1  0  0  0  0
 21 24  1  0  0  0  0
 21 25  2  0  0  0  0
 22 42  1  0  0  0  0
 22 43  1  0  0  0  0
 22 44  1  0  0  0  0
 23 45  1  0  0  0  0
 23 46  1  0  0  0  0
 23 47  1  0  0  0  0
M  CHG  1  24  -1
M  END
>  <Mol_ID>
1401

>  <Formula>
C20H22NNaO4

>  <MolWeight>
363.38275

>  <Cat>
S4263

>  <Name>
Efaproxiral Sodium

>  <Synonyms>
RSR13 Sodium

>  <Target>
ROS

>  <Form>
Sodium salt

>  <CAS>
170787-99-2

>  <URL>
http://selleckchem.com/products/efaproxiral-sodium.html

$$$$
