EG1
 OpenBabel08302521313D

 47 49  0  0  0  0  0  0  0  0999 V2000
    1.0352   -1.5963   -4.6242 O   0  0  0  0  0  0  0  0  0  0  0  0
    1.6544    3.0652    3.5629 O   0  0  0  0  0  0  0  0  0  0  0  0
    0.6989   -1.6923   -1.8810 O   0  0  0  0  0  0  0  0  0  0  0  0
   -2.4559    2.3296    3.9451 O   0  0  0  0  0  0  0  0  0  0  0  0
   -4.2443    3.1970    2.8541 O   0  0  0  0  0  0  0  0  0  0  0  0
    2.7210   -1.5792   -0.7324 N   0  0  0  0  0  0  0  0  0  0  0  0
   -0.3123    2.9940    2.3605 N   0  0  0  0  0  0  0  0  0  0  0  0
    1.3666    1.2515    2.0753 C   0  0  0  0  0  0  0  0  0  0  0  0
    2.2674   -0.7718    0.3470 C   0  0  0  0  0  0  0  0  0  0  0  0
   -0.8314    4.2806    2.6231 C   0  0  0  0  0  0  0  0  0  0  0  0
    0.4547    0.3699    1.4943 C   0  0  0  0  0  0  0  0  0  0  0  0
    2.7374    0.9937    1.9418 C   0  0  0  0  0  0  0  0  0  0  0  0
    0.9101   -0.6382    0.6485 C   0  0  0  0  0  0  0  0  0  0  0  0
    3.1887   -0.0212    1.0823 C   0  0  0  0  0  0  0  0  0  0  0  0
    2.5226   -2.6482   -2.9507 C   0  0  0  0  0  0  0  0  0  0  0  0
    0.9286    2.5201    2.7382 C   0  0  0  0  0  0  0  0  0  0  0  0
    1.8983   -1.9434   -1.7943 C   0  0  0  0  0  0  0  0  0  0  0  0
   -2.2086    4.4308    2.8674 C   0  0  0  0  0  0  0  0  0  0  0  0
    1.9963   -2.5003   -4.2499 C   0  0  0  0  0  0  0  0  0  0  0  0
   -0.0327    5.4194    2.4897 C   0  0  0  0  0  0  0  0  0  0  0  0
    3.5046   -3.6195   -2.7141 C   0  0  0  0  0  0  0  0  0  0  0  0
   -2.7893    5.7041    2.8949 C   0  0  0  0  0  0  0  0  0  0  0  0
    2.3612   -3.4045   -5.2524 C   0  0  0  0  0  0  0  0  0  0  0  0
   -0.6197    6.6905    2.5105 C   0  0  0  0  0  0  0  0  0  0  0  0
   -1.9959    6.8326    2.6965 C   0  0  0  0  0  0  0  0  0  0  0  0
    3.9016   -4.4820   -3.7410 C   0  0  0  0  0  0  0  0  0  0  0  0
    3.3070   -4.3958   -4.9984 C   0  0  0  0  0  0  0  0  0  0  0  0
   -3.0768    3.2735    3.1901 C   0  0  0  0  0  0  0  0  0  0  0  0
    1.4019   -0.2292   -4.4356 C   0  0  0  0  0  0  0  0  0  0  0  0
   -1.5548    2.5899    4.2398 H   0  0  0  0  0  0  0  0  0  0  0  0
    3.7219   -1.6562   -0.8554 H   0  0  0  0  0  0  0  0  0  0  0  0
   -0.9289    2.3940    1.8229 H   0  0  0  0  0  0  0  0  0  0  0  0
   -0.6175    0.4493    1.6361 H   0  0  0  0  0  0  0  0  0  0  0  0
    3.4595    1.6281    2.4527 H   0  0  0  0  0  0  0  0  0  0  0  0
    0.1641   -1.2878    0.1994 H   0  0  0  0  0  0  0  0  0  0  0  0
    4.2591   -0.1500    0.9462 H   0  0  0  0  0  0  0  0  0  0  0  0
    1.0335    5.3337    2.2917 H   0  0  0  0  0  0  0  0  0  0  0  0
    3.9195   -3.7734   -1.7221 H   0  0  0  0  0  0  0  0  0  0  0  0
   -3.8574    5.8173    3.0714 H   0  0  0  0  0  0  0  0  0  0  0  0
    1.8820   -3.3499   -6.2277 H   0  0  0  0  0  0  0  0  0  0  0  0
   -0.0041    7.5736    2.3492 H   0  0  0  0  0  0  0  0  0  0  0  0
   -2.4486    7.8222    2.6912 H   0  0  0  0  0  0  0  0  0  0  0  0
    4.6363   -5.2594   -3.5446 H   0  0  0  0  0  0  0  0  0  0  0  0
    3.5623   -5.1118   -5.7763 H   0  0  0  0  0  0  0  0  0  0  0  0
    0.4799    0.3601   -4.3985 H   0  0  0  0  0  0  0  0  0  0  0  0
    1.9593   -0.0324   -3.5159 H   0  0  0  0  0  0  0  0  0  0  0  0
    1.9925    0.1168   -5.2898 H   0  0  0  0  0  0  0  0  0  0  0  0
  1 19  1  0  0  0  0
  1 29  1  0  0  0  0
  2 16  2  0  0  0  0
  3 17  2  0  0  0  0
  4 28  1  0  0  0  0
  4 30  1  0  0  0  0
  5 28  2  0  0  0  0
  6  9  1  0  0  0  0
  6 17  1  0  0  0  0
  6 31  1  0  0  0  0
  7 10  1  0  0  0  0
  7 16  1  0  0  0  0
  7 32  1  0  0  0  0
  8 11  2  0  0  0  0
  8 12  1  0  0  0  0
  8 16  1  0  0  0  0
  9 13  2  0  0  0  0
  9 14  1  0  0  0  0
 10 18  2  0  0  0  0
 10 20  1  0  0  0  0
 11 13  1  0  0  0  0
 11 33  1  0  0  0  0
 12 14  2  0  0  0  0
 12 34  1  0  0  0  0
 13 35  1  0  0  0  0
 14 36  1  0  0  0  0
 15 17  1  0  0  0  0
 15 19  2  0  0  0  0
 15 21  1  0  0  0  0
 18 22  1  0  0  0  0
 18 28  1  0  0  0  0
 19 23  1  0  0  0  0
 20 24  2  0  0  0  0
 20 37  1  0  0  0  0
 21 26  2  0  0  0  0
 21 38  1  0  0  0  0
 22 25  2  0  0  0  0
 22 39  1  0  0  0  0
 23 27  2  0  0  0  0
 23 40  1  0  0  0  0
 24 25  1  0  0  0  0
 24 41  1  0  0  0  0
 25 42  1  0  0  0  0
 26 27  1  0  0  0  0
 26 43  1  0  0  0  0
 27 44  1  0  0  0  0
 29 45  1  0  0  0  0
 29 46  1  0  0  0  0
 29 47  1  0  0  0  0
M  END
>  <Mol_ID>
5857

>  <Formula>
C22H18N2O5

>  <MolWeight>
390.38872

>  <Cat>
S0858

>  <Name>
EG1

>  <Synonyms>
N/A

>  <Target>
Pax

>  <Form>
Free Base

>  <CAS>
693241-54-2

>  <URL>
http://www.selleckchem.com/products/eg1.html

$$$$
