EGTA tetrasodium
 OpenBabel08302521453D

 50 49  0  0  0  0  0  0  0  0999 V2000
    1.3814   -5.4233    0.5402 N   0  0  0  0  0  0  0  0  0  0  0  0
    0.7677   -5.0070    1.8052 C   0  0  0  0  0  0  0  0  0  0  0  0
    0.9024   -6.6910   -0.0325 C   0  0  0  0  0  0  0  0  0  0  0  0
    1.9682   -4.4399   -0.3705 C   0  0  0  0  0  0  0  0  0  0  0  0
    1.0515   -3.5968    2.3823 C   0  0  0  0  0  0  0  0  0  0  0  0
    1.6522   -7.8764    0.5728 C   0  0  0  0  0  0  0  0  0  0  0  0
    3.4290   -4.1634    0.0122 C   0  0  0  0  0  0  0  0  0  0  0  0
    0.3731   -2.5658    1.6622 O   0  0  0  0  0  0  0  0  0  0  0  0
    2.8684   -7.5472    1.0700 O   0  0  0  0  0  0  0  0  0  0  0  0
    1.2816   -9.0389    0.5764 O   0  0  0  0  0  0  0  0  0  0  0  0
    3.9633   -5.1202    0.8129 O   0  0  0  0  0  0  0  0  0  0  0  0
    4.0933   -3.2237   -0.4065 O   0  0  0  0  0  0  0  0  0  0  0  0
    0.4248   -1.2861    2.3190 C   0  0  0  0  0  0  0  0  0  0  0  0
    1.8331   -0.6864    2.4726 C   0  0  0  0  0  0  0  0  0  0  0  0
    2.5697   -0.5931    1.2524 O   0  0  0  0  0  0  0  0  0  0  0  0
    2.2581    0.5595    0.4648 C   0  0  0  0  0  0  0  0  0  0  0  0
    3.3665    0.7837   -0.5977 C   0  0  0  0  0  0  0  0  0  0  0  0
    3.6183   -0.3649   -1.5061 N   0  0  0  0  0  0  0  0  0  0  0  0
    2.4238   -0.7275   -2.2994 C   0  0  0  0  0  0  0  0  0  0  0  0
    4.8064   -0.1737   -2.3690 C   0  0  0  0  0  0  0  0  0  0  0  0
    1.8495    0.4257   -3.1217 C   0  0  0  0  0  0  0  0  0  0  0  0
    6.1153   -0.2088   -1.5909 C   0  0  0  0  0  0  0  0  0  0  0  0
    2.4045    0.5605   -4.3490 O   0  0  0  0  0  0  0  0  0  0  0  0
    0.9985    1.2007   -2.7076 O   0  0  0  0  0  0  0  0  0  0  0  0
    6.0502   -0.9111   -0.4388 O   0  0  0  0  0  0  0  0  0  0  0  0
    7.1524    0.3007   -2.0026 O   0  0  0  0  0  0  0  0  0  0  0  0
   -0.3199   -5.1356    1.7474 H   0  0  0  0  0  0  0  0  0  0  0  0
    1.1364   -5.7139    2.5592 H   0  0  0  0  0  0  0  0  0  0  0  0
   -0.1707   -6.8301    0.1410 H   0  0  0  0  0  0  0  0  0  0  0  0
    1.0726   -6.7441   -1.1141 H   0  0  0  0  0  0  0  0  0  0  0  0
    1.9993   -4.8214   -1.3974 H   0  0  0  0  0  0  0  0  0  0  0  0
    1.4064   -3.5051   -0.3909 H   0  0  0  0  0  0  0  0  0  0  0  0
    0.6951   -3.5877    3.4198 H   0  0  0  0  0  0  0  0  0  0  0  0
    2.1264   -3.4029    2.3866 H   0  0  0  0  0  0  0  0  0  0  0  0
    3.2529   -8.4046    1.3571 H   0  0  0  0  0  0  0  0  0  0  0  0
    3.2872   -5.8241    0.9833 H   0  0  0  0  0  0  0  0  0  0  0  0
   -0.2035   -0.6047    1.7359 H   0  0  0  0  0  0  0  0  0  0  0  0
   -0.0417   -1.3769    3.3092 H   0  0  0  0  0  0  0  0  0  0  0  0
    1.7784    0.2942    2.9609 H   0  0  0  0  0  0  0  0  0  0  0  0
    2.4252   -1.3251    3.1351 H   0  0  0  0  0  0  0  0  0  0  0  0
    1.2743    0.4339    0.0029 H   0  0  0  0  0  0  0  0  0  0  0  0
    2.2220    1.4483    1.1064 H   0  0  0  0  0  0  0  0  0  0  0  0
    3.1411    1.6922   -1.1692 H   0  0  0  0  0  0  0  0  0  0  0  0
    4.2865    0.9957   -0.0399 H   0  0  0  0  0  0  0  0  0  0  0  0
    2.6401   -1.5721   -2.9663 H   0  0  0  0  0  0  0  0  0  0  0  0
    1.6288   -1.1013   -1.6443 H   0  0  0  0  0  0  0  0  0  0  0  0
    4.8795   -1.0073   -3.0788 H   0  0  0  0  0  0  0  0  0  0  0  0
    4.7501    0.7664   -2.9270 H   0  0  0  0  0  0  0  0  0  0  0  0
    3.0849   -0.1058   -4.5586 H   0  0  0  0  0  0  0  0  0  0  0  0
    5.1426   -1.2971   -0.3289 H   0  0  0  0  0  0  0  0  0  0  0  0
  1  2  1  0  0  0  0
  1  3  1  0  0  0  0
  1  4  1  0  0  0  0
  2  5  1  0  0  0  0
  2 27  1  0  0  0  0
  2 28  1  0  0  0  0
  3  6  1  0  0  0  0
  3 29  1  0  0  0  0
  3 30  1  0  0  0  0
  4  7  1  0  0  0  0
  4 31  1  0  0  0  0
  4 32  1  0  0  0  0
  5  8  1  0  0  0  0
  5 33  1  0  0  0  0
  5 34  1  0  0  0  0
  6  9  1  0  0  0  0
  6 10  2  0  0  0  0
  7 11  1  0  0  0  0
  7 12  2  0  0  0  0
  8 13  1  0  0  0  0
  9 35  1  0  0  0  0
 11 36  1  0  0  0  0
 13 14  1  0  0  0  0
 13 37  1  0  0  0  0
 13 38  1  0  0  0  0
 14 15  1  0  0  0  0
 14 39  1  0  0  0  0
 14 40  1  0  0  0  0
 15 16  1  0  0  0  0
 16 17  1  0  0  0  0
 16 41  1  0  0  0  0
 16 42  1  0  0  0  0
 17 18  1  0  0  0  0
 17 43  1  0  0  0  0
 17 44  1  0  0  0  0
 18 19  1  0  0  0  0
 18 20  1  0  0  0  0
 19 21  1  0  0  0  0
 19 45  1  0  0  0  0
 19 46  1  0  0  0  0
 20 22  1  0  0  0  0
 20 47  1  0  0  0  0
 20 48  1  0  0  0  0
 21 23  1  0  0  0  0
 21 24  2  0  0  0  0
 22 25  1  0  0  0  0
 22 26  2  0  0  0  0
 23 49  1  0  0  0  0
 25 50  1  0  0  0  0
M  END
>  <Mol_ID>
9481

>  <Formula>
C14H24N2NaO10

>  <MolWeight>
403.33753

>  <Cat>
E4448

>  <Name>
EGTA tetrasodium

>  <Synonyms>
Ethylene glycol-bis(¦Â-aminoethyl ether)-N,N,N',N'-tetraacetic acid tetrasodium salt

>  <Target>
Others

>  <Form>
Tetrasodium

>  <CAS>
13368-13-3

>  <URL>
https://www.selleckchem.com/products/egta-tetrasodium.html

$$$$
