Ehp-inhibitor-1
 OpenBabel08302521273D

 39 42  0  0  0  0  0  0  0  0999 V2000
   -2.0773   -0.7995    0.0840 C   0  0  0  0  0  0  0  0  0  0  0  0
   -1.9927    0.6895    0.0428 C   0  0  0  0  0  0  0  0  0  0  0  0
   -0.9117    1.4027    0.0157 N   0  0  0  0  0  0  0  0  0  0  0  0
    0.2666    0.7059    0.0308 C   0  0  0  0  0  0  0  0  0  0  0  0
    0.2988   -0.6912    0.0708 N   0  0  0  0  0  0  0  0  0  0  0  0
   -0.8974   -1.4594    0.1150 C   0  0  0  0  0  0  0  0  0  0  0  0
    1.5808    1.1301    0.0065 C   0  0  0  0  0  0  0  0  0  0  0  0
    2.3351   -0.0602   -0.0194 C   0  0  0  0  0  0  0  0  0  0  0  0
    1.5810   -1.1630    0.0129 N   0  0  0  0  0  0  0  0  0  0  0  0
   -0.7570   -2.8461    0.1701 N   0  0  0  0  0  0  0  0  0  0  0  0
    1.9884    2.5223   -0.0341 C   0  0  0  0  0  0  0  0  0  0  0  0
   -3.3917   -1.4453    0.0826 C   0  0  0  0  0  0  0  0  0  0  0  0
   -4.0450   -1.7227    1.2870 C   0  0  0  0  0  0  0  0  0  0  0  0
   -5.3109   -2.3042    1.2719 C   0  0  0  0  0  0  0  0  0  0  0  0
   -5.9154   -2.6253    0.0553 C   0  0  0  0  0  0  0  0  0  0  0  0
   -5.2634   -2.3710   -1.1540 C   0  0  0  0  0  0  0  0  0  0  0  0
   -4.0056   -1.7676   -1.1372 C   0  0  0  0  0  0  0  0  0  0  0  0
    1.2217    3.5290    0.5556 C   0  0  0  0  0  0  0  0  0  0  0  0
    1.5313    4.8473    0.5300 N   0  0  0  0  0  0  0  0  0  0  0  0
    2.6555    5.1843   -0.1296 C   0  0  0  0  0  0  0  0  0  0  0  0
    3.4934    4.2668   -0.7429 C   0  0  0  0  0  0  0  0  0  0  0  0
    3.1577    2.9169   -0.6861 C   0  0  0  0  0  0  0  0  0  0  0  0
   -5.9490   -2.7607   -2.2713 O   0  0  0  0  0  0  0  0  0  0  0  0
   -5.3179   -2.5321   -3.5260 C   0  0  0  0  0  0  0  0  0  0  0  0
   -2.9612    1.2196    0.0352 H   0  0  0  0  0  0  0  0  0  0  0  0
    3.4112   -0.1721   -0.0588 H   0  0  0  0  0  0  0  0  0  0  0  0
    0.1655   -3.1481   -0.1541 H   0  0  0  0  0  0  0  0  0  0  0  0
   -1.5326   -3.3691   -0.2248 H   0  0  0  0  0  0  0  0  0  0  0  0
   -3.5750   -1.4864    2.2393 H   0  0  0  0  0  0  0  0  0  0  0  0
   -5.8269   -2.5110    2.2062 H   0  0  0  0  0  0  0  0  0  0  0  0
   -6.9030   -3.0812    0.0494 H   0  0  0  0  0  0  0  0  0  0  0  0
   -3.4814   -1.5367   -2.0593 H   0  0  0  0  0  0  0  0  0  0  0  0
    0.3003    3.3050    1.0871 H   0  0  0  0  0  0  0  0  0  0  0  0
    2.8720    6.2487   -0.1551 H   0  0  0  0  0  0  0  0  0  0  0  0
    4.3832    4.5993   -1.2653 H   0  0  0  0  0  0  0  0  0  0  0  0
    3.7988    2.1898   -1.1764 H   0  0  0  0  0  0  0  0  0  0  0  0
   -5.2733   -1.4598   -3.7429 H   0  0  0  0  0  0  0  0  0  0  0  0
   -4.3215   -2.9851   -3.5670 H   0  0  0  0  0  0  0  0  0  0  0  0
   -5.9249   -3.0097   -4.3007 H   0  0  0  0  0  0  0  0  0  0  0  0
  1  2  1  0  0  0  0
  1 12  1  0  0  0  0
  2  3  2  0  0  0  0
  2 25  1  0  0  0  0
  3  4  1  0  0  0  0
  4  5  1  0  0  0  0
  4  7  2  0  0  0  0
  5  6  1  0  0  0  0
  6  1  2  0  0  0  0
  6 10  1  0  0  0  0
  7  8  1  0  0  0  0
  7 11  1  0  0  0  0
  8  9  2  0  0  0  0
  8 26  1  0  0  0  0
  9  5  1  0  0  0  0
 10 27  1  0  0  0  0
 10 28  1  0  0  0  0
 11 18  2  0  0  0  0
 12 13  2  0  0  0  0
 13 14  1  0  0  0  0
 13 29  1  0  0  0  0
 14 15  2  0  0  0  0
 14 30  1  0  0  0  0
 15 16  1  0  0  0  0
 15 31  1  0  0  0  0
 16 17  2  0  0  0  0
 16 23  1  0  0  0  0
 17 12  1  0  0  0  0
 17 32  1  0  0  0  0
 18 19  1  0  0  0  0
 18 33  1  0  0  0  0
 19 20  2  0  0  0  0
 20 21  1  0  0  0  0
 20 34  1  0  0  0  0
 21 22  2  0  0  0  0
 21 35  1  0  0  0  0
 22 11  1  0  0  0  0
 22 36  1  0  0  0  0
 23 24  1  0  0  0  0
 24 37  1  0  0  0  0
 24 38  1  0  0  0  0
 24 39  1  0  0  0  0
M  END
>  <Mol_ID>
5359

>  <Formula>
C18H15N5O

>  <MolWeight>
317.3446

>  <Cat>
S0256

>  <Name>
Ehp-inhibitor-1

>  <Synonyms>
Ehp inhibitor 2

>  <Target>
Ephrin receptor

>  <Form>
Free Base

>  <CAS>
861249-59-4

>  <URL>
https://www.selleckchem.com/products/ehp-inhibitor.html

$$$$
