EIDD-1931
 OpenBabel08302521453D

 31 32  0  0  0  0  0  0  0  0999 V2000
   -0.5550    0.6657   -0.5301 C   0  0  2  0  0  0  0  0  0  0  0  0
   -0.2478   -0.8245   -0.4487 C   0  0  1  0  0  0  0  0  0  0  0  0
    1.2721   -0.8597   -0.3915 C   0  0  2  0  0  0  0  0  0  0  0  0
    1.6752    0.3452    0.3020 O   0  0  0  0  0  0  0  0  0  0  0  0
    0.5476    1.2545    0.3667 C   0  0  1  0  0  0  0  0  0  0  0  0
   -0.8247   -1.3457    0.7642 O   0  0  0  0  0  0  0  0  0  0  0  0
   -1.8840    0.9293   -0.0903 O   0  0  0  0  0  0  0  0  0  0  0  0
    1.9254   -0.8732   -1.7761 C   0  0  0  0  0  0  0  0  0  0  0  0
    0.9949    2.6015    0.0214 N   0  0  0  0  0  0  0  0  0  0  0  0
    2.0053    2.8076   -0.8996 C   0  0  0  0  0  0  0  0  0  0  0  0
    2.5654    4.0016   -1.0982 C   0  0  0  0  0  0  0  0  0  0  0  0
    2.1026    5.1325   -0.2848 C   0  0  0  0  0  0  0  0  0  0  0  0
    1.0043    4.8925    0.4904 N   0  0  0  0  0  0  0  0  0  0  0  0
    0.4286    3.6663    0.7201 C   0  0  0  0  0  0  0  0  0  0  0  0
    2.7112    6.2760   -0.3040 N   0  0  0  0  0  0  0  0  0  0  0  0
    2.1206    7.1820    0.5912 O   0  0  0  0  0  0  0  0  0  0  0  0
   -0.4836    3.5528    1.5359 O   0  0  0  0  0  0  0  0  0  0  0  0
    3.3457   -0.8291   -1.6499 O   0  0  0  0  0  0  0  0  0  0  0  0
   -0.4554    1.0276   -1.5589 H   0  0  0  0  0  0  0  0  0  0  0  0
   -0.6762   -1.3965   -1.2767 H   0  0  0  0  0  0  0  0  0  0  0  0
    1.6483   -1.6994    0.2027 H   0  0  0  0  0  0  0  0  0  0  0  0
    0.2086    1.2552    1.4102 H   0  0  0  0  0  0  0  0  0  0  0  0
   -0.2009   -1.2023    1.5011 H   0  0  0  0  0  0  0  0  0  0  0  0
   -2.1052    0.2346    0.5607 H   0  0  0  0  0  0  0  0  0  0  0  0
    1.6612   -1.7838   -2.3219 H   0  0  0  0  0  0  0  0  0  0  0  0
    1.6276   -0.0114   -2.3796 H   0  0  0  0  0  0  0  0  0  0  0  0
    2.3701    1.9492   -1.4496 H   0  0  0  0  0  0  0  0  0  0  0  0
    3.3823    4.1659   -1.7887 H   0  0  0  0  0  0  0  0  0  0  0  0
    0.6730    5.6701    1.0431 H   0  0  0  0  0  0  0  0  0  0  0  0
    2.7377    7.9378    0.5527 H   0  0  0  0  0  0  0  0  0  0  0  0
    3.5526   -0.1472   -0.9821 H   0  0  0  0  0  0  0  0  0  0  0  0
  1  2  1  0  0  0  0
  1  7  1  0  0  0  0
  1 19  1  6  0  0  0
  2  3  1  0  0  0  0
  2  6  1  0  0  0  0
  2 20  1  6  0  0  0
  3  4  1  0  0  0  0
  3 21  1  1  0  0  0
  3  8  1  0  0  0  0
  4  5  1  0  0  0  0
  5  1  1  0  0  0  0
  5 22  1  1  0  0  0
  5  9  1  0  0  0  0
  6 23  1  0  0  0  0
  7 24  1  0  0  0  0
  8 18  1  0  0  0  0
  8 25  1  0  0  0  0
  8 26  1  0  0  0  0
  9 10  1  0  0  0  0
 10 11  2  0  0  0  0
 10 27  1  0  0  0  0
 11 12  1  0  0  0  0
 11 28  1  0  0  0  0
 12 13  1  0  0  0  0
 12 15  2  0  0  0  0
 13 14  1  0  0  0  0
 13 29  1  0  0  0  0
 14  9  1  0  0  0  0
 14 17  2  0  0  0  0
 15 16  1  0  0  0  0
 16 30  1  0  0  0  0
 18 31  1  0  0  0  0
M  END
>  <Mol_ID>
9445

>  <Formula>
C9H13N3O6

>  <MolWeight>
259.21602

>  <Cat>
S0833

>  <Name>
EIDD-1931

>  <Synonyms>
Beta-d-N4-hydroxycytidine, ¦Â-d-N4-hydroxycytidine, NHC

>  <Target>
COVID-19,SARS-CoV

>  <Form>
Free base

>  <CAS>
3258-02-4

>  <URL>
http://www.selleckchem.com/products/eidd-1931.html

$$$$
