¦Â-Elemene
 OpenBabel08302521303D

 39 39  0  0  0  0  0  0  0  0999 V2000
    1.0627   -0.0787    0.3812 C   0  0  2  0  0  0  0  0  0  0  0  0
    0.3575    1.2786   -0.0189 C   0  0  1  0  0  0  0  0  0  0  0  0
   -1.9164    0.0468   -0.2228 C   0  0  1  0  0  0  0  0  0  0  0  0
   -1.1611    1.2909    0.2861 C   0  0  0  0  0  0  0  0  0  0  0  0
    0.2435   -1.2554   -0.2216 C   0  0  0  0  0  0  0  0  0  0  0  0
   -1.2228   -1.2528    0.1961 C   0  0  0  0  0  0  0  0  0  0  0  0
    1.1458   -0.2869    1.9111 C   0  0  0  0  0  0  0  0  0  0  0  0
    0.9828    2.5719    0.5375 C   0  0  0  0  0  0  0  0  0  0  0  0
    2.5073   -0.0770   -0.1385 C   0  0  0  0  0  0  0  0  0  0  0  0
   -3.3700    0.0521    0.2318 C   0  0  0  0  0  0  0  0  0  0  0  0
    1.4931    3.5810   -0.4576 C   0  0  0  0  0  0  0  0  0  0  0  0
   -3.6628    0.0485    1.7102 C   0  0  0  0  0  0  0  0  0  0  0  0
    1.0336    2.8914    1.8441 C   0  0  0  0  0  0  0  0  0  0  0  0
    3.0838   -0.9405   -0.9879 C   0  0  0  0  0  0  0  0  0  0  0  0
   -4.3885    0.0483   -0.6469 C   0  0  0  0  0  0  0  0  0  0  0  0
    0.4331    1.3336   -1.1162 H   0  0  0  0  0  0  0  0  0  0  0  0
   -1.8908    0.0869   -1.3167 H   0  0  0  0  0  0  0  0  0  0  0  0
   -1.3150    1.4119    1.3614 H   0  0  0  0  0  0  0  0  0  0  0  0
   -1.6095    2.1801   -0.1816 H   0  0  0  0  0  0  0  0  0  0  0  0
    0.2842   -1.2208   -1.3186 H   0  0  0  0  0  0  0  0  0  0  0  0
    0.6833   -2.2174    0.0765 H   0  0  0  0  0  0  0  0  0  0  0  0
   -1.2969   -1.4156    1.2775 H   0  0  0  0  0  0  0  0  0  0  0  0
   -1.7257   -2.1081   -0.2733 H   0  0  0  0  0  0  0  0  0  0  0  0
    0.2062   -0.0342    2.4134 H   0  0  0  0  0  0  0  0  0  0  0  0
    1.3704   -1.3315    2.1597 H   0  0  0  0  0  0  0  0  0  0  0  0
    1.9405    0.3135    2.3687 H   0  0  0  0  0  0  0  0  0  0  0  0
    3.1376    0.7249    0.2491 H   0  0  0  0  0  0  0  0  0  0  0  0
    1.0412    4.5620   -0.2672 H   0  0  0  0  0  0  0  0  0  0  0  0
    2.5810    3.6768   -0.3823 H   0  0  0  0  0  0  0  0  0  0  0  0
    1.2461    3.3117   -1.4881 H   0  0  0  0  0  0  0  0  0  0  0  0
   -4.2451    0.9334    1.9865 H   0  0  0  0  0  0  0  0  0  0  0  0
   -4.2207   -0.8514    1.9886 H   0  0  0  0  0  0  0  0  0  0  0  0
   -2.7514    0.0586    2.3142 H   0  0  0  0  0  0  0  0  0  0  0  0
    0.6380    2.2470    2.6209 H   0  0  0  0  0  0  0  0  0  0  0  0
    1.4739    3.8254    2.1808 H   0  0  0  0  0  0  0  0  0  0  0  0
    4.1287   -0.8252   -1.2630 H   0  0  0  0  0  0  0  0  0  0  0  0
    2.5570   -1.7789   -1.4278 H   0  0  0  0  0  0  0  0  0  0  0  0
   -4.2207    0.0443   -1.7189 H   0  0  0  0  0  0  0  0  0  0  0  0
   -5.4242    0.0477   -0.3091 H   0  0  0  0  0  0  0  0  0  0  0  0
  1  2  1  0  0  0  0
  1  5  1  0  0  0  0
  1  9  1  6  0  0  0
  1  7  1  0  0  0  0
  2  4  1  0  0  0  0
  2  8  1  0  0  0  0
  2 16  1  6  0  0  0
  3  4  1  0  0  0  0
  3  6  1  0  0  0  0
  3 10  1  0  0  0  0
  3 17  1  6  0  0  0
  4 18  1  0  0  0  0
  4 19  1  0  0  0  0
  5  6  1  0  0  0  0
  5 20  1  0  0  0  0
  5 21  1  0  0  0  0
  6 22  1  0  0  0  0
  6 23  1  0  0  0  0
  7 24  1  0  0  0  0
  7 25  1  0  0  0  0
  7 26  1  0  0  0  0
  8 11  1  0  0  0  0
  8 13  2  0  0  0  0
  9 14  2  0  0  0  0
  9 27  1  0  0  0  0
 10 12  1  0  0  0  0
 10 15  2  0  0  0  0
 11 28  1  0  0  0  0
 11 29  1  0  0  0  0
 11 30  1  0  0  0  0
 12 31  1  0  0  0  0
 12 32  1  0  0  0  0
 12 33  1  0  0  0  0
 13 34  1  0  0  0  0
 13 35  1  0  0  0  0
 14 36  1  0  0  0  0
 14 37  1  0  0  0  0
 15 38  1  0  0  0  0
 15 39  1  0  0  0  0
M  END
>  <Mol_ID>
5538

>  <Formula>
C15H24

>  <MolWeight>
204.35106

>  <Cat>
S6957

>  <Name>
¦Â-Elemene

>  <Synonyms>
(-)-¦Â-Elemene, Levo-¦Â-elemene

>  <Target>
Apoptosis related,Autophagy

>  <Form>
Free Base

>  <CAS>
515-13-9

>  <URL>
https://www.selleckchem.com/products/b-elemene.html

$$$$
