Elenbecestat
 OpenBabel08302521352D

 48 51  0  0  0  0  0  0  0  0999 V2000
    5.8393    3.0451    0.0000 C   0  0  0  0  0  0  0  0  0  0  0  0
    5.8393    1.6451    0.0000 S   0  0  0  0  0  0  0  0  0  0  0  0
    7.0518    0.9451    0.0000 C   0  0  0  0  0  0  0  0  0  0  0  0
    8.2642    1.6451    0.0000 C   0  0  1  0  0  0  0  0  0  0  0  0
    8.2642    3.0451    0.0000 C   0  0  1  0  0  0  0  0  0  0  0  0
    7.0518    3.7451    0.0000 N   0  0  0  0  0  0  0  0  0  0  0  0
    9.5957    1.2124    0.0000 C   0  0  2  0  0  0  0  0  0  0  0  0
   10.4186    2.3451    0.0000 O   0  0  0  0  0  0  0  0  0  0  0  0
    9.5957    3.4777    0.0000 C   0  0  0  0  0  0  0  0  0  0  0  0
   10.2957    0.0000    0.0000 C   0  0  0  0  0  0  0  0  0  0  0  0
    4.4870    3.4074    0.0000 N   0  0  0  0  0  0  0  0  0  0  0  0
    8.2642    4.4451    0.0000 C   0  0  0  0  0  0  0  0  0  0  0  0
    9.4766    5.1451    0.0000 C   0  0  0  0  0  0  0  0  0  0  0  0
    9.4766    6.5451    0.0000 C   0  0  0  0  0  0  0  0  0  0  0  0
    8.2642    7.2451    0.0000 C   0  0  0  0  0  0  0  0  0  0  0  0
    7.0518    6.5451    0.0000 C   0  0  0  0  0  0  0  0  0  0  0  0
    7.0518    5.1451    0.0000 C   0  0  0  0  0  0  0  0  0  0  0  0
   10.6891    4.4451    0.0000 F   0  0  0  0  0  0  0  0  0  0  0  0
    5.8395    7.2450    0.0000 N   0  0  0  0  0  0  0  0  0  0  0  0
    5.8395    8.6450    0.0000 C   0  0  0  0  0  0  0  0  0  0  0  0
    7.1918    9.0073    0.0000 O   0  0  0  0  0  0  0  0  0  0  0  0
    4.6271    9.3450    0.0000 C   0  0  0  0  0  0  0  0  0  0  0  0
    4.6271   10.7450    0.0000 C   0  0  0  0  0  0  0  0  0  0  0  0
    3.4146   11.4450    0.0000 N   0  0  0  0  0  0  0  0  0  0  0  0
    2.2022   10.7450    0.0000 C   0  0  0  0  0  0  0  0  0  0  0  0
    2.2022    9.3450    0.0000 C   0  0  0  0  0  0  0  0  0  0  0  0
    3.4146    8.6450    0.0000 N   0  0  0  0  0  0  0  0  0  0  0  0
    0.9899   11.4449    0.0000 C   0  0  0  0  0  0  0  0  0  0  0  0
    0.9899   12.8449    0.0000 F   0  0  0  0  0  0  0  0  0  0  0  0
    0.0000   10.4549    0.0000 F   0  0  0  0  0  0  0  0  0  0  0  0
    7.0518   -0.1249    0.0000 H   0  0  0  0  0  0  0  0  0  0  0  0
    7.9785    0.4101    0.0000 H   0  0  0  0  0  0  0  0  0  0  0  0
    7.3375    2.1801    0.0000 H   0  0  0  0  0  0  0  0  0  0  0  0
    8.9223    0.3809    0.0000 H   0  0  0  0  0  0  0  0  0  0  0  0
    9.9264    4.4953    0.0000 H   0  0  0  0  0  0  0  0  0  0  0  0
    8.8391    4.2343    0.0000 H   0  0  0  0  0  0  0  0  0  0  0  0
    9.7607   -0.9267    0.0000 H   0  0  0  0  0  0  0  0  0  0  0  0
   11.3657    0.0000    0.0000 H   0  0  0  0  0  0  0  0  0  0  0  0
   10.8307   -0.9266    0.0000 H   0  0  0  0  0  0  0  0  0  0  0  0
    4.2322    4.3583    0.0000 H   0  0  0  0  0  0  0  0  0  0  0  0
    3.7909    2.7112    0.0000 H   0  0  0  0  0  0  0  0  0  0  0  0
   10.3703    7.0611    0.0000 H   0  0  0  0  0  0  0  0  0  0  0  0
    8.2642    8.2771    0.0000 H   0  0  0  0  0  0  0  0  0  0  0  0
    6.1581    4.6291    0.0000 H   0  0  0  0  0  0  0  0  0  0  0  0
    4.9869    6.7527    0.0000 H   0  0  0  0  0  0  0  0  0  0  0  0
    5.5208   11.2610    0.0000 H   0  0  0  0  0  0  0  0  0  0  0  0
    1.3085    8.8290    0.0000 H   0  0  0  0  0  0  0  0  0  0  0  0
    0.0013   11.8543    0.0000 H   0  0  0  0  0  0  0  0  0  0  0  0
  1  2  1  0  0  0  0
  1 11  1  0  0  0  0
  2  3  1  0  0  0  0
  3 31  1  0  0  0  0
  3 32  1  0  0  0  0
  4  3  1  0  0  0  0
  4  5  1  0  0  0  0
  4  7  1  0  0  0  0
  4 33  1  6  0  0  0
  5  6  1  0  0  0  0
  5 12  1  6  0  0  0
  6  1  2  0  0  0  0
  7  8  1  0  0  0  0
  7 10  1  0  0  0  0
  7 34  1  1  0  0  0
  8  9  1  0  0  0  0
  9  5  1  0  0  0  0
  9 35  1  0  0  0  0
  9 36  1  0  0  0  0
 10 37  1  0  0  0  0
 10 38  1  0  0  0  0
 10 39  1  0  0  0  0
 11 40  1  0  0  0  0
 11 41  1  0  0  0  0
 12 13  2  0  0  0  0
 13 14  1  0  0  0  0
 13 18  1  0  0  0  0
 14 15  2  0  0  0  0
 14 42  1  0  0  0  0
 15 16  1  0  0  0  0
 15 43  1  0  0  0  0
 16 17  2  0  0  0  0
 16 19  1  0  0  0  0
 17 12  1  0  0  0  0
 17 44  1  0  0  0  0
 19 20  1  0  0  0  0
 19 45  1  0  0  0  0
 20 21  2  0  0  0  0
 20 22  1  0  0  0  0
 22 23  2  0  0  0  0
 23 24  1  0  0  0  0
 23 46  1  0  0  0  0
 24 25  2  0  0  0  0
 25 26  1  0  0  0  0
 25 28  1  0  0  0  0
 26 27  2  0  0  0  0
 26 47  1  0  0  0  0
 27 22  1  0  0  0  0
 28 29  1  0  0  0  0
 28 30  1  0  0  0  0
 28 48  1  0  0  0  0
M  END
>  <Mol_ID>
6722

>  <Formula>
C19H18F3N5O2S

>  <MolWeight>
437.4387296

>  <Cat>
S8600

>  <Name>
Elenbecestat

>  <Synonyms>
E2609

>  <Target>
BACE

>  <Form>
Free base

>  <CAS>
1388651-30-6

>  <URL>
http://www.selleckchem.com/products/elenbecestat.html

$$$$
