Eletriptan hydrobromide.cdx
 OpenBabel08302521593D

 55 57  0  0  0  0  0  0  0  0999 V2000
   -1.7086    0.8626   -0.3674 N   0  0  0  0  0  0  0  0  0  0  0  0
   -2.3605   -0.3254   -0.4849 C   0  0  0  0  0  0  0  0  0  0  0  0
   -1.4522   -1.3871   -0.4712 C   0  0  0  0  0  0  0  0  0  0  0  0
   -0.2057   -0.7887   -0.3391 C   0  0  0  0  0  0  0  0  0  0  0  0
    1.0635   -1.3336   -0.2220 C   0  0  0  0  0  0  0  0  0  0  0  0
    2.1651   -0.4754   -0.0257 C   0  0  0  0  0  0  0  0  0  0  0  0
    1.9536    0.9255    0.0598 C   0  0  0  0  0  0  0  0  0  0  0  0
    0.6585    1.4607   -0.0662 C   0  0  0  0  0  0  0  0  0  0  0  0
   -0.4024    0.5684   -0.2708 C   0  0  0  0  0  0  0  0  0  0  0  0
    3.5485   -1.0769    0.0915 C   0  0  0  0  0  0  0  0  0  0  0  0
    4.1952   -0.8347    1.4564 C   0  0  0  0  0  0  0  0  0  0  0  0
    3.1584   -1.5094    2.7978 S   0  0  0  0  0  0  0  0  0  0  0  0
    3.9952   -1.5955    4.0832 O   0  0  0  0  0  0  0  0  0  0  0  0
    2.2610   -0.3327    3.2123 O   0  0  0  0  0  0  0  0  0  0  0  0
    2.0686   -2.9462    2.7183 C   0  0  0  0  0  0  0  0  0  0  0  0
    2.5902   -4.2421    2.5600 C   0  0  0  0  0  0  0  0  0  0  0  0
    1.7246   -5.3429    2.4834 C   0  0  0  0  0  0  0  0  0  0  0  0
    0.3410   -5.1527    2.5721 C   0  0  0  0  0  0  0  0  0  0  0  0
   -0.1756   -3.8683    2.7435 C   0  0  0  0  0  0  0  0  0  0  0  0
    0.6799   -2.7724    2.8168 C   0  0  0  0  0  0  0  0  0  0  0  0
   -1.8009   -2.8731   -0.4020 C   0  0  0  0  0  0  0  0  0  0  0  0
   -0.1921   -3.9683   -2.1613 N   0  0  0  0  0  0  0  0  0  0  0  0
   -1.5506   -3.8819   -1.5673 C   0  0  2  0  0  0  0  0  0  0  0  0
   -2.5485   -3.7185   -2.7278 C   0  0  0  0  0  0  0  0  0  0  0  0
   -1.7095   -3.8959   -3.9770 C   0  0  0  0  0  0  0  0  0  0  0  0
   -0.4532   -4.5644   -3.4830 C   0  0  0  0  0  0  0  0  0  0  0  0
    0.7298   -4.8769   -1.4375 C   0  0  0  0  0  0  0  0  0  0  0  0
    2.1814    0.7360   -3.4211 Br  0  0  0  0  0  0  0  0  0  0  0  0
   -2.1423    1.8130   -0.3326 H   0  0  0  0  0  0  0  0  0  0  0  0
   -3.4379   -0.4077   -0.5310 H   0  0  0  0  0  0  0  0  0  0  0  0
    1.1985   -2.3899   -0.2691 H   0  0  0  0  0  0  0  0  0  0  0  0
    2.7886    1.5966    0.2193 H   0  0  0  0  0  0  0  0  0  0  0  0
    0.4834    2.5259    0.0094 H   0  0  0  0  0  0  0  0  0  0  0  0
    3.4999   -2.1769   -0.0659 H   0  0  0  0  0  0  0  0  0  0  0  0
    4.1990   -0.6556   -0.7033 H   0  0  0  0  0  0  0  0  0  0  0  0
    5.1915   -1.3260    1.4794 H   0  0  0  0  0  0  0  0  0  0  0  0
    4.3348    0.2549    1.6174 H   0  0  0  0  0  0  0  0  0  0  0  0
    3.6591   -4.4011    2.4902 H   0  0  0  0  0  0  0  0  0  0  0  0
    2.1210   -6.3425    2.3548 H   0  0  0  0  0  0  0  0  0  0  0  0
   -0.3294   -5.9995    2.5071 H   0  0  0  0  0  0  0  0  0  0  0  0
   -1.2455   -3.7203    2.8103 H   0  0  0  0  0  0  0  0  0  0  0  0
    0.2547   -1.7831    2.9268 H   0  0  0  0  0  0  0  0  0  0  0  0
   -1.2984   -3.2578    0.4964 H   0  0  0  0  0  0  0  0  0  0  0  0
   -2.8925   -2.9350   -0.1903 H   0  0  0  0  0  0  0  0  0  0  0  0
   -1.7960   -4.8880   -1.1423 H   0  0  0  0  0  0  0  0  0  0  0  0
   -3.3298   -4.5091   -2.6336 H   0  0  0  0  0  0  0  0  0  0  0  0
   -3.0476   -2.7276   -2.7728 H   0  0  0  0  0  0  0  0  0  0  0  0
   -2.2228   -4.4161   -4.8170 H   0  0  0  0  0  0  0  0  0  0  0  0
   -1.4048   -2.8827   -4.3097 H   0  0  0  0  0  0  0  0  0  0  0  0
    0.3927   -4.4052   -4.1884 H   0  0  0  0  0  0  0  0  0  0  0  0
   -0.6479   -5.6607   -3.3935 H   0  0  0  0  0  0  0  0  0  0  0  0
    0.2764   -5.8767   -1.2518 H   0  0  0  0  0  0  0  0  0  0  0  0
    1.6498   -5.0403   -2.0455 H   0  0  0  0  0  0  0  0  0  0  0  0
    1.0475   -4.4710   -0.4638 H   0  0  0  0  0  0  0  0  0  0  0  0
    3.3608    0.7660   -2.4483 H   0  0  0  0  0  0  0  0  0  0  0  0
  1  2  1  0  0  0  0
  1  9  1  0  0  0  0
  1 29  1  0  0  0  0
  2  3  2  0  0  0  0
  2 30  1  0  0  0  0
  3  4  1  0  0  0  0
  3 21  1  0  0  0  0
  4  5  1  0  0  0  0
  4  9  2  0  0  0  0
  5  6  2  0  0  0  0
  5 31  1  0  0  0  0
  6  7  1  0  0  0  0
  6 10  1  0  0  0  0
  7  8  2  0  0  0  0
  7 32  1  0  0  0  0
  8  9  1  0  0  0  0
  8 33  1  0  0  0  0
 10 11  1  0  0  0  0
 10 34  1  0  0  0  0
 10 35  1  0  0  0  0
 11 12  1  0  0  0  0
 11 36  1  0  0  0  0
 11 37  1  0  0  0  0
 12 13  2  0  0  0  0
 12 14  2  0  0  0  0
 12 15  1  0  0  0  0
 15 16  2  0  0  0  0
 15 20  1  0  0  0  0
 16 17  1  0  0  0  0
 16 38  1  0  0  0  0
 17 18  2  0  0  0  0
 17 39  1  0  0  0  0
 18 19  1  0  0  0  0
 18 40  1  0  0  0  0
 19 20  2  0  0  0  0
 19 41  1  0  0  0  0
 20 42  1  0  0  0  0
 21 43  1  0  0  0  0
 21 44  1  0  0  0  0
 22 23  1  0  0  0  0
 22 26  1  0  0  0  0
 22 27  1  0  0  0  0
 23 24  1  0  0  0  0
 23 21  1  0  0  0  0
 23 45  1  1  0  0  0
 24 25  1  0  0  0  0
 24 46  1  0  0  0  0
 24 47  1  0  0  0  0
 25 26  1  0  0  0  0
 25 48  1  0  0  0  0
 25 49  1  0  0  0  0
 26 50  1  0  0  0  0
 26 51  1  0  0  0  0
 27 52  1  0  0  0  0
 27 53  1  0  0  0  0
 27 54  1  0  0  0  0
 28 55  1  0  0  0  0
M  END
>  <Mol_ID>
995

>  <Formula>
C22H27BrN2O2S

>  <MolWeight>
463.43098

>  <Cat>
S3180

>  <Name>
Eletriptan HBr

>  <Synonyms>
UK-116044

>  <Target>
5-HT Receptor

>  <Form>
HBr

>  <CAS>
177834-92-3

>  <URL>
http://selleckchem.com/products/eletriptan-hydrobromide.html

$$$$
