Eliapixant
 OpenBabel08302521353D

 54 57  0  0  0  0  0  0  0  0999 V2000
   -3.1751   -2.8307    3.8209 C   0  0  0  0  0  0  0  0  0  0  0  0
   -2.5821   -2.9226    2.5508 C   0  0  0  0  0  0  0  0  0  0  0  0
   -3.0963   -3.7722    1.5673 C   0  0  0  0  0  0  0  0  0  0  0  0
   -4.2383   -4.5270    1.8517 C   0  0  0  0  0  0  0  0  0  0  0  0
   -4.8675   -4.4252    3.1027 C   0  0  0  0  0  0  0  0  0  0  0  0
   -4.3497   -3.5540    4.0682 C   0  0  0  0  0  0  0  0  0  0  0  0
   -2.4999   -2.0364    4.8642 C   0  0  0  0  0  0  0  0  0  0  0  0
   -6.0671   -5.2669    3.3919 C   0  0  0  0  0  0  0  0  0  0  0  0
   -6.2922   -5.5850    4.7152 N   0  0  0  0  0  0  0  0  0  0  0  0
   -7.3790   -6.4670    5.1330 C   0  0  1  0  0  0  0  0  0  0  0  0
   -6.9323   -7.9064    5.1174 C   0  0  0  0  0  0  0  0  0  0  0  0
   -6.3911   -8.5713    6.1987 C   0  0  0  0  0  0  0  0  0  0  0  0
   -5.9744   -9.8539    6.1768 N   0  0  0  0  0  0  0  0  0  0  0  0
   -6.0943  -10.5257    5.0046 C   0  0  0  0  0  0  0  0  0  0  0  0
   -6.6127   -9.9620    3.8863 N   0  0  0  0  0  0  0  0  0  0  0  0
   -7.0087   -8.6717    3.9693 C   0  0  0  0  0  0  0  0  0  0  0  0
   -5.6079  -11.9806    4.9365 C   0  0  0  0  0  0  0  0  0  0  0  0
   -5.0915  -12.4466    6.1154 F   0  0  0  0  0  0  0  0  0  0  0  0
   -6.5958  -12.8660    4.6064 F   0  0  0  0  0  0  0  0  0  0  0  0
   -4.6168  -12.1734    4.0141 F   0  0  0  0  0  0  0  0  0  0  0  0
   -2.6639   -2.4511    6.5303 S   0  0  0  0  0  0  0  0  0  0  0  0
   -1.5323   -1.2417    6.9505 C   0  0  0  0  0  0  0  0  0  0  0  0
   -1.1075   -0.5965    5.8090 C   0  0  0  0  0  0  0  0  0  0  0  0
   -1.6547   -1.0522    4.6234 N   0  0  0  0  0  0  0  0  0  0  0  0
   -1.1445   -1.0312    8.3667 C   0  0  0  0  0  0  0  0  0  0  0  0
   -2.5152   -3.9951    0.3429 O   0  0  0  0  0  0  0  0  0  0  0  0
   -1.6673   -2.9563   -0.1763 C   0  0  1  0  0  0  0  0  0  0  0  0
   -0.2197   -3.0650    0.3061 C   0  0  0  0  0  0  0  0  0  0  0  0
    0.5551   -3.7360   -0.6983 O   0  0  0  0  0  0  0  0  0  0  0  0
   -0.2990   -4.0343   -1.8024 C   0  0  0  0  0  0  0  0  0  0  0  0
   -1.5194   -3.1487   -1.6723 C   0  0  0  0  0  0  0  0  0  0  0  0
   -6.7808   -5.6617    2.4743 O   0  0  0  0  0  0  0  0  0  0  0  0
   -7.9097   -5.9997    6.4925 C   0  0  0  0  0  0  0  0  0  0  0  0
   -1.6820   -2.3424    2.3768 H   0  0  0  0  0  0  0  0  0  0  0  0
   -4.6380   -5.2031    1.0986 H   0  0  0  0  0  0  0  0  0  0  0  0
   -4.8647   -3.4319    5.0164 H   0  0  0  0  0  0  0  0  0  0  0  0
   -5.5689   -5.3956    5.3974 H   0  0  0  0  0  0  0  0  0  0  0  0
   -8.2032   -6.3537    4.4157 H   0  0  0  0  0  0  0  0  0  0  0  0
   -6.2576   -8.0912    7.1633 H   0  0  0  0  0  0  0  0  0  0  0  0
   -7.4002   -8.2579    3.0413 H   0  0  0  0  0  0  0  0  0  0  0  0
   -0.3866    0.2121    5.7786 H   0  0  0  0  0  0  0  0  0  0  0  0
   -2.0252   -0.8219    8.9839 H   0  0  0  0  0  0  0  0  0  0  0  0
   -0.6457   -1.9210    8.7669 H   0  0  0  0  0  0  0  0  0  0  0  0
   -0.4557   -0.1861    8.4657 H   0  0  0  0  0  0  0  0  0  0  0  0
   -2.1146   -1.9774    0.0366 H   0  0  0  0  0  0  0  0  0  0  0  0
    0.2164   -2.0679    0.4260 H   0  0  0  0  0  0  0  0  0  0  0  0
   -0.1068   -3.6153    1.2423 H   0  0  0  0  0  0  0  0  0  0  0  0
   -0.5594   -5.0953   -1.7555 H   0  0  0  0  0  0  0  0  0  0  0  0
    0.2456   -3.8518   -2.7348 H   0  0  0  0  0  0  0  0  0  0  0  0
   -2.3919   -3.5897   -2.1617 H   0  0  0  0  0  0  0  0  0  0  0  0
   -1.3065   -2.1813   -2.1430 H   0  0  0  0  0  0  0  0  0  0  0  0
   -8.2374   -4.9542    6.4412 H   0  0  0  0  0  0  0  0  0  0  0  0
   -8.7629   -6.6076    6.8129 H   0  0  0  0  0  0  0  0  0  0  0  0
   -7.1449   -6.0486    7.2740 H   0  0  0  0  0  0  0  0  0  0  0  0
  1  2  2  0  0  0  0
  1  7  1  0  0  0  0
  2  3  1  0  0  0  0
  2 34  1  0  0  0  0
  3  4  2  0  0  0  0
  3 26  1  0  0  0  0
  4  5  1  0  0  0  0
  4 35  1  0  0  0  0
  5  6  2  0  0  0  0
  5  8  1  0  0  0  0
  6  1  1  0  0  0  0
  6 36  1  0  0  0  0
  7 21  1  0  0  0  0
  8  9  1  0  0  0  0
  8 32  2  0  0  0  0
  9 10  1  0  0  0  0
  9 37  1  0  0  0  0
 10 11  1  0  0  0  0
 10 33  1  0  0  0  0
 10 38  1  6  0  0  0
 11 12  2  0  0  0  0
 12 13  1  0  0  0  0
 12 39  1  0  0  0  0
 13 14  2  0  0  0  0
 14 15  1  0  0  0  0
 14 17  1  0  0  0  0
 15 16  2  0  0  0  0
 16 11  1  0  0  0  0
 16 40  1  0  0  0  0
 17 18  1  0  0  0  0
 17 19  1  0  0  0  0
 17 20  1  0  0  0  0
 21 22  1  0  0  0  0
 22 23  2  0  0  0  0
 22 25  1  0  0  0  0
 23 24  1  0  0  0  0
 23 41  1  0  0  0  0
 24  7  2  0  0  0  0
 25 42  1  0  0  0  0
 25 43  1  0  0  0  0
 25 44  1  0  0  0  0
 27 28  1  0  0  0  0
 27 45  1  1  0  0  0
 27 26  1  0  0  0  0
 28 29  1  0  0  0  0
 28 46  1  0  0  0  0
 28 47  1  0  0  0  0
 29 30  1  0  0  0  0
 30 31  1  0  0  0  0
 30 48  1  0  0  0  0
 30 49  1  0  0  0  0
 31 27  1  0  0  0  0
 31 50  1  0  0  0  0
 31 51  1  0  0  0  0
 33 52  1  0  0  0  0
 33 53  1  0  0  0  0
 33 54  1  0  0  0  0
M  END
>  <Mol_ID>
6803

>  <Formula>
C22H21F3N4O3S

>  <MolWeight>
478.4873496

>  <Cat>
E0357

>  <Name>
Eliapixant

>  <Synonyms>
BAY 1817080

>  <Target>
P2 Receptor

>  <Form>
Free base

>  <CAS>
1948229-21-7

>  <URL>
http://www.selleckchem.com/products/eliapixant.html

$$$$
