Eliglustat (Tartrate).cdx
 OpenBabel08302520003D

 65 67  0  0  0  0  0  0  0  0999 V2000
   -6.3114    2.0044    1.0248 C   0  0  0  0  0  0  0  0  0  0  0  0
   -5.2045    1.1329    1.1523 C   0  0  0  0  0  0  0  0  0  0  0  0
   -5.2275    0.2117    2.2064 C   0  0  0  0  0  0  0  0  0  0  0  0
   -6.3061    0.1729    3.1024 C   0  0  0  0  0  0  0  0  0  0  0  0
   -7.3698    1.0713    2.9753 C   0  0  0  0  0  0  0  0  0  0  0  0
   -7.3744    1.9874    1.9323 C   0  0  0  0  0  0  0  0  0  0  0  0
   -6.2617   -0.7976    4.0720 O   0  0  0  0  0  0  0  0  0  0  0  0
   -7.5621   -1.0225    4.6301 C   0  0  0  0  0  0  0  0  0  0  0  0
   -8.2200    0.2985    4.9932 C   0  0  0  0  0  0  0  0  0  0  0  0
   -8.4460    1.0977    3.8254 O   0  0  0  0  0  0  0  0  0  0  0  0
   -4.1203    1.1594    0.0760 C   0  0  2  0  0  0  0  0  0  0  0  0
   -2.6868    0.5720    0.3553 C   0  0  1  0  0  0  0  0  0  0  0  0
   -3.9270    2.5270   -0.3565 O   0  0  0  0  0  0  0  0  0  0  0  0
   -1.9924    1.3260    1.5342 C   0  0  0  0  0  0  0  0  0  0  0  0
   -2.6230   -0.8967    0.4826 N   0  0  0  0  0  0  0  0  0  0  0  0
   -2.7846   -1.6920   -0.6364 C   0  0  0  0  0  0  0  0  0  0  0  0
   -3.1215   -1.2451   -1.7291 O   0  0  0  0  0  0  0  0  0  0  0  0
   -2.5009   -3.1728   -0.4515 C   0  0  0  0  0  0  0  0  0  0  0  0
   -3.5423   -3.9254    0.3691 C   0  0  0  0  0  0  0  0  0  0  0  0
   -4.9956   -3.7866   -0.0993 C   0  0  0  0  0  0  0  0  0  0  0  0
   -5.2900   -4.3570   -1.4919 C   0  0  0  0  0  0  0  0  0  0  0  0
   -6.7809   -4.2025   -1.8240 C   0  0  0  0  0  0  0  0  0  0  0  0
   -7.1235   -4.6890   -3.2327 C   0  0  0  0  0  0  0  0  0  0  0  0
   -8.6023   -4.4945   -3.5412 C   0  0  0  0  0  0  0  0  0  0  0  0
   -0.5082    1.2001    1.6199 N   0  0  0  0  0  0  0  0  0  0  0  0
   -0.0079    1.9345    2.8060 C   0  0  0  0  0  0  0  0  0  0  0  0
    0.1060    3.3828    2.3604 C   0  0  0  0  0  0  0  0  0  0  0  0
    0.6326    3.2507    0.9469 C   0  0  0  0  0  0  0  0  0  0  0  0
    0.1824    1.8626    0.4875 C   0  0  0  0  0  0  0  0  0  0  0  0
   -6.3672    2.7048    0.1922 H   0  0  0  0  0  0  0  0  0  0  0  0
   -4.4354   -0.5201    2.3295 H   0  0  0  0  0  0  0  0  0  0  0  0
   -8.2051    2.6747    1.8138 H   0  0  0  0  0  0  0  0  0  0  0  0
   -7.4368   -1.6403    5.5253 H   0  0  0  0  0  0  0  0  0  0  0  0
   -8.1622   -1.5861    3.9053 H   0  0  0  0  0  0  0  0  0  0  0  0
   -9.1938    0.1176    5.4636 H   0  0  0  0  0  0  0  0  0  0  0  0
   -7.6037    0.8732    5.6928 H   0  0  0  0  0  0  0  0  0  0  0  0
   -4.5440    0.6339   -0.7871 H   0  0  0  0  0  0  0  0  0  0  0  0
   -2.1178    0.7976   -0.5543 H   0  0  0  0  0  0  0  0  0  0  0  0
   -4.0828    3.1060    0.4087 H   0  0  0  0  0  0  0  0  0  0  0  0
   -2.2652    2.3847    1.4965 H   0  0  0  0  0  0  0  0  0  0  0  0
   -2.4028    0.9264    2.4695 H   0  0  0  0  0  0  0  0  0  0  0  0
   -2.0707   -1.2657    1.2479 H   0  0  0  0  0  0  0  0  0  0  0  0
   -2.4087   -3.6256   -1.4463 H   0  0  0  0  0  0  0  0  0  0  0  0
   -1.5162   -3.2810    0.0202 H   0  0  0  0  0  0  0  0  0  0  0  0
   -3.2746   -4.9932    0.3760 H   0  0  0  0  0  0  0  0  0  0  0  0
   -3.4873   -3.5913    1.4107 H   0  0  0  0  0  0  0  0  0  0  0  0
   -5.6318   -4.3062    0.6289 H   0  0  0  0  0  0  0  0  0  0  0  0
   -5.2891   -2.7303   -0.0659 H   0  0  0  0  0  0  0  0  0  0  0  0
   -4.6915   -3.8386   -2.2490 H   0  0  0  0  0  0  0  0  0  0  0  0
   -5.0143   -5.4184   -1.5279 H   0  0  0  0  0  0  0  0  0  0  0  0
   -7.3767   -4.7628   -1.0925 H   0  0  0  0  0  0  0  0  0  0  0  0
   -7.0655   -3.1476   -1.7285 H   0  0  0  0  0  0  0  0  0  0  0  0
   -6.5299   -4.1390   -3.9717 H   0  0  0  0  0  0  0  0  0  0  0  0
   -6.8713   -5.7506   -3.3355 H   0  0  0  0  0  0  0  0  0  0  0  0
   -8.8857   -3.4398   -3.4613 H   0  0  0  0  0  0  0  0  0  0  0  0
   -8.8269   -4.8281   -4.5594 H   0  0  0  0  0  0  0  0  0  0  0  0
   -9.2278   -5.0697   -2.8507 H   0  0  0  0  0  0  0  0  0  0  0  0
    0.9891    1.5520    3.0608 H   0  0  0  0  0  0  0  0  0  0  0  0
   -0.6363    1.8149    3.6941 H   0  0  0  0  0  0  0  0  0  0  0  0
   -0.8742    3.8744    2.3533 H   0  0  0  0  0  0  0  0  0  0  0  0
    0.7679    3.9764    2.9975 H   0  0  0  0  0  0  0  0  0  0  0  0
    0.2530    4.0477    0.2995 H   0  0  0  0  0  0  0  0  0  0  0  0
    1.7277    3.3097    0.9487 H   0  0  0  0  0  0  0  0  0  0  0  0
   -0.4123    1.9379   -0.4261 H   0  0  0  0  0  0  0  0  0  0  0  0
    1.0686    1.2697    0.2287 H   0  0  0  0  0  0  0  0  0  0  0  0
  1  2  2  0  0  0  0
  1 30  1  0  0  0  0
  2  3  1  0  0  0  0
  3  4  2  0  0  0  0
  3 31  1  0  0  0  0
  4  5  1  0  0  0  0
  4  7  1  0  0  0  0
  5  6  2  0  0  0  0
  6  1  1  0  0  0  0
  6 32  1  0  0  0  0
  7  8  1  0  0  0  0
  8  9  1  0  0  0  0
  8 33  1  0  0  0  0
  8 34  1  0  0  0  0
  9 10  1  0  0  0  0
  9 35  1  0  0  0  0
  9 36  1  0  0  0  0
 10  5  1  0  0  0  0
 11 13  1  0  0  0  0
 11 37  1  6  0  0  0
 11 12  1  0  0  0  0
 11  2  1  0  0  0  0
 12 14  1  0  0  0  0
 12 15  1  0  0  0  0
 12 38  1  6  0  0  0
 13 39  1  0  0  0  0
 14 25  1  0  0  0  0
 14 40  1  0  0  0  0
 14 41  1  0  0  0  0
 15 16  1  0  0  0  0
 15 42  1  0  0  0  0
 16 17  2  0  0  0  0
 16 18  1  0  0  0  0
 18 19  1  0  0  0  0
 18 43  1  0  0  0  0
 18 44  1  0  0  0  0
 19 20  1  0  0  0  0
 19 45  1  0  0  0  0
 19 46  1  0  0  0  0
 20 21  1  0  0  0  0
 20 47  1  0  0  0  0
 20 48  1  0  0  0  0
 21 22  1  0  0  0  0
 21 49  1  0  0  0  0
 21 50  1  0  0  0  0
 22 23  1  0  0  0  0
 22 51  1  0  0  0  0
 22 52  1  0  0  0  0
 23 24  1  0  0  0  0
 23 53  1  0  0  0  0
 23 54  1  0  0  0  0
 24 55  1  0  0  0  0
 24 56  1  0  0  0  0
 24 57  1  0  0  0  0
 25 26  1  0  0  0  0
 26 27  1  0  0  0  0
 26 58  1  0  0  0  0
 26 59  1  0  0  0  0
 27 28  1  0  0  0  0
 27 60  1  0  0  0  0
 27 61  1  0  0  0  0
 28 29  1  0  0  0  0
 28 62  1  0  0  0  0
 28 63  1  0  0  0  0
 29 25  1  0  0  0  0
 29 64  1  0  0  0  0
 29 65  1  0  0  0  0
M  END
>  <Mol_ID>
2665

>  <Formula>
C23H36N2O4

>  <MolWeight>
404.54294

>  <Cat>
S7852

>  <Name>
Eliglustat

>  <Synonyms>
GENZ-112638

>  <Target>
Glucosylceramide Synthase

>  <Form>
Tartrate

>  <CAS>
491833-29-5

>  <URL>
http://selleckchem.com/products/eliglustat.html

$$$$
