ELN484228
 OpenBabel08302521243D

 27 28  0  0  0  0  0  0  0  0999 V2000
    1.2723   -0.3866    0.3674 C   0  0  0  0  0  0  0  0  0  0  0  0
    0.7436   -0.0407    1.6145 C   0  0  0  0  0  0  0  0  0  0  0  0
   -0.6405    0.0630    1.7679 C   0  0  0  0  0  0  0  0  0  0  0  0
   -1.4861   -0.1677    0.6799 C   0  0  0  0  0  0  0  0  0  0  0  0
   -0.9513   -0.4716   -0.5725 C   0  0  0  0  0  0  0  0  0  0  0  0
    0.4293   -0.5664   -0.7370 C   0  0  0  0  0  0  0  0  0  0  0  0
    3.0314   -0.5830    0.1686 S   0  0  0  0  0  0  0  0  0  0  0  0
    3.3582   -0.2909   -1.2135 O   0  0  0  0  0  0  0  0  0  0  0  0
    3.6774    0.1193    1.2548 O   0  0  0  0  0  0  0  0  0  0  0  0
    3.2906   -2.2244    0.4529 N   0  0  0  0  0  0  0  0  0  0  0  0
    2.6369   -3.1966   -0.3385 C   0  0  0  0  0  0  0  0  0  0  0  0
    3.2422   -3.6447   -1.5129 C   0  0  0  0  0  0  0  0  0  0  0  0
    2.5745   -4.5550   -2.3339 C   0  0  0  0  0  0  0  0  0  0  0  0
    1.3041   -4.9956   -1.9786 C   0  0  0  0  0  0  0  0  0  0  0  0
    0.7024   -4.5702   -0.7989 C   0  0  0  0  0  0  0  0  0  0  0  0
    1.3795   -3.6811    0.0365 C   0  0  0  0  0  0  0  0  0  0  0  0
    0.6468   -5.8363   -2.7872 F   0  0  0  0  0  0  0  0  0  0  0  0
    1.3941    0.1458    2.4653 H   0  0  0  0  0  0  0  0  0  0  0  0
   -1.0640    0.3231    2.7349 H   0  0  0  0  0  0  0  0  0  0  0  0
   -2.5644   -0.0998    0.8064 H   0  0  0  0  0  0  0  0  0  0  0  0
   -1.6123   -0.6378   -1.4205 H   0  0  0  0  0  0  0  0  0  0  0  0
    0.8419   -0.8064   -1.7164 H   0  0  0  0  0  0  0  0  0  0  0  0
    3.6544   -2.4654    1.3690 H   0  0  0  0  0  0  0  0  0  0  0  0
    4.2270   -3.2816   -1.7945 H   0  0  0  0  0  0  0  0  0  0  0  0
    3.0307   -4.9103   -3.2522 H   0  0  0  0  0  0  0  0  0  0  0  0
   -0.2925   -4.9232   -0.5454 H   0  0  0  0  0  0  0  0  0  0  0  0
    0.9016   -3.3430    0.9524 H   0  0  0  0  0  0  0  0  0  0  0  0
  1  2  2  0  0  0  0
  1  6  1  0  0  0  0
  1  7  1  0  0  0  0
  2  3  1  0  0  0  0
  2 18  1  0  0  0  0
  3  4  2  0  0  0  0
  3 19  1  0  0  0  0
  4  5  1  0  0  0  0
  4 20  1  0  0  0  0
  5  6  2  0  0  0  0
  5 21  1  0  0  0  0
  6 22  1  0  0  0  0
  7  8  2  0  0  0  0
  7  9  2  0  0  0  0
  7 10  1  0  0  0  0
 10 11  1  0  0  0  0
 10 23  1  0  0  0  0
 11 12  2  0  0  0  0
 11 16  1  0  0  0  0
 12 13  1  0  0  0  0
 12 24  1  0  0  0  0
 13 14  2  0  0  0  0
 13 25  1  0  0  0  0
 14 15  1  0  0  0  0
 14 17  1  0  0  0  0
 15 16  2  0  0  0  0
 15 26  1  0  0  0  0
 16 27  1  0  0  0  0
M  END
>  <Mol_ID>
4940

>  <Formula>
C12H10FNO2S

>  <MolWeight>
251.2767032

>  <Cat>
S6798

>  <Name>
ELN484228

>  <Synonyms>
N/A

>  <Target>
Others

>  <Form>
Free Base

>  <CAS>
312-63-0

>  <URL>
http://www.selleckchem.com/products/eln484228.html

$$$$
