Elraglusib
 OpenBabel08302521263D

 43 48  0  0  0  0  0  0  0  0999 V2000
    5.4794    0.9865    2.3382 F   0  0  0  0  0  0  0  0  0  0  0  0
    4.1361   -2.0356   -5.6716 O   0  0  0  0  0  0  0  0  0  0  0  0
    2.3038   -1.7798   -7.2162 O   0  0  0  0  0  0  0  0  0  0  0  0
    0.6779    0.4984   -0.1138 O   0  0  0  0  0  0  0  0  0  0  0  0
    1.8642   -6.1394   -1.1825 O   0  0  0  0  0  0  0  0  0  0  0  0
    3.2436   -3.2657    2.0020 O   0  0  0  0  0  0  0  0  0  0  0  0
   -0.7757   -3.2903   -3.6247 N   0  0  0  0  0  0  0  0  0  0  0  0
    2.7885   -4.9488    0.5361 N   0  0  0  0  0  0  0  0  0  0  0  0
    0.8888   -3.5088   -2.1755 C   0  0  0  0  0  0  0  0  0  0  0  0
    1.4399   -3.0623   -3.4060 C   0  0  0  0  0  0  0  0  0  0  0  0
    0.3709   -2.9203   -4.3092 C   0  0  0  0  0  0  0  0  0  0  0  0
    1.6026   -3.7469   -0.9783 C   0  0  0  0  0  0  0  0  0  0  0  0
    2.0208   -2.8683   -0.0493 C   0  0  0  0  0  0  0  0  0  0  0  0
   -0.4659   -3.6593   -2.3388 C   0  0  0  0  0  0  0  0  0  0  0  0
    2.7591   -2.7676   -3.8159 C   0  0  0  0  0  0  0  0  0  0  0  0
    0.5721   -2.4788   -5.6352 C   0  0  0  0  0  0  0  0  0  0  0  0
    1.7891   -1.4630    0.0478 C   0  0  0  0  0  0  0  0  0  0  0  0
    2.9338   -2.3492   -5.1162 C   0  0  0  0  0  0  0  0  0  0  0  0
    1.8857   -2.2075   -5.9902 C   0  0  0  0  0  0  0  0  0  0  0  0
    2.0800   -5.0918   -0.5970 C   0  0  0  0  0  0  0  0  0  0  0  0
    2.7627   -3.6674    0.9592 C   0  0  0  0  0  0  0  0  0  0  0  0
    2.5989   -0.4350    0.6309 C   0  0  0  0  0  0  0  0  0  0  0  0
   -2.1230   -3.2918   -4.1506 C   0  0  0  0  0  0  0  0  0  0  0  0
    1.8500    0.7369    0.5271 C   0  0  0  0  0  0  0  0  0  0  0  0
    0.6513   -0.8240   -0.4076 C   0  0  0  0  0  0  0  0  0  0  0  0
    3.7282   -1.6737   -7.0042 C   0  0  0  0  0  0  0  0  0  0  0  0
    3.8658   -0.3427    1.2423 C   0  0  0  0  0  0  0  0  0  0  0  0
    2.2452    1.9810    1.0186 C   0  0  0  0  0  0  0  0  0  0  0  0
    4.2826    0.8957    1.7422 C   0  0  0  0  0  0  0  0  0  0  0  0
    3.4915    2.0364    1.6443 C   0  0  0  0  0  0  0  0  0  0  0  0
    3.2013   -5.7095    1.0487 H   0  0  0  0  0  0  0  0  0  0  0  0
   -1.2353   -3.9854   -1.6492 H   0  0  0  0  0  0  0  0  0  0  0  0
    3.6061   -2.8717   -3.1482 H   0  0  0  0  0  0  0  0  0  0  0  0
   -0.2409   -2.3618   -6.3416 H   0  0  0  0  0  0  0  0  0  0  0  0
   -2.3845   -2.2735   -4.4501 H   0  0  0  0  0  0  0  0  0  0  0  0
   -2.1691   -3.9797   -4.9975 H   0  0  0  0  0  0  0  0  0  0  0  0
   -2.8146   -3.6273   -3.3701 H   0  0  0  0  0  0  0  0  0  0  0  0
   -0.2453   -1.1510   -0.9153 H   0  0  0  0  0  0  0  0  0  0  0  0
    4.0404   -0.6399   -7.1921 H   0  0  0  0  0  0  0  0  0  0  0  0
    4.2439   -2.3295   -7.7158 H   0  0  0  0  0  0  0  0  0  0  0  0
    4.5182   -1.2024    1.3504 H   0  0  0  0  0  0  0  0  0  0  0  0
    1.6078    2.8517    0.9231 H   0  0  0  0  0  0  0  0  0  0  0  0
    3.8535    2.9728    2.0590 H   0  0  0  0  0  0  0  0  0  0  0  0
  1 29  1  0  0  0  0
  2 18  1  0  0  0  0
  2 26  1  0  0  0  0
  3 19  1  0  0  0  0
  3 26  1  0  0  0  0
  4 24  1  0  0  0  0
  4 25  1  0  0  0  0
  5 20  2  0  0  0  0
  6 21  2  0  0  0  0
  7 11  1  0  0  0  0
  7 14  1  0  0  0  0
  7 23  1  0  0  0  0
  8 20  1  0  0  0  0
  8 21  1  0  0  0  0
  8 31  1  0  0  0  0
  9 10  1  0  0  0  0
  9 12  1  0  0  0  0
  9 14  2  0  0  0  0
 10 11  2  0  0  0  0
 10 15  1  0  0  0  0
 11 16  1  0  0  0  0
 12 13  2  0  0  0  0
 12 20  1  0  0  0  0
 13 17  1  0  0  0  0
 13 21  1  0  0  0  0
 14 32  1  0  0  0  0
 15 18  2  0  0  0  0
 15 33  1  0  0  0  0
 16 19  2  0  0  0  0
 16 34  1  0  0  0  0
 17 22  1  0  0  0  0
 17 25  2  0  0  0  0
 18 19  1  0  0  0  0
 22 24  2  0  0  0  0
 22 27  1  0  0  0  0
 23 35  1  0  0  0  0
 23 36  1  0  0  0  0
 23 37  1  0  0  0  0
 24 28  1  0  0  0  0
 25 38  1  0  0  0  0
 26 39  1  0  0  0  0
 26 40  1  0  0  0  0
 27 29  2  0  0  0  0
 27 41  1  0  0  0  0
 28 30  2  0  0  0  0
 28 42  1  0  0  0  0
 29 30  1  0  0  0  0
 30 43  1  0  0  0  0
M  END
>  <Mol_ID>
5239

>  <Formula>
C22H13FN2O5

>  <MolWeight>
404.3474232

>  <Cat>
S9602

>  <Name>
Elraglusib

>  <Synonyms>
9-ing-41

>  <Target>
Apoptosis related,GSK-3

>  <Form>
free base

>  <CAS>
1034895-42-5

>  <URL>
http://www.selleckchem.com/products/9-ing-41.html

$$$$
