Emapunil (AC 5216)
 OpenBabel08302521233D

 53 56  0  0  0  0  0  0  0  0999 V2000
    1.2932   -0.9541   -0.0036 N   0  0  0  0  0  0  0  0  0  0  0  0
    0.0588   -0.5172    0.5054 C   0  0  0  0  0  0  0  0  0  0  0  0
    1.8353    0.0614   -0.8115 C   0  0  0  0  0  0  0  0  0  0  0  0
   -0.0610    0.8208    0.1717 C   0  0  0  0  0  0  0  0  0  0  0  0
    1.0295    1.1965   -0.6069 N   0  0  0  0  0  0  0  0  0  0  0  0
   -0.9036   -1.2348    1.0998 N   0  0  0  0  0  0  0  0  0  0  0  0
    1.9331   -2.2311    0.2144 C   0  0  0  0  0  0  0  0  0  0  0  0
   -2.0499   -0.5369    1.3257 C   0  0  0  0  0  0  0  0  0  0  0  0
    3.3405   -2.0629    0.8718 C   0  0  0  0  0  0  0  0  0  0  0  0
   -2.2003    0.8042    1.1273 N   0  0  0  0  0  0  0  0  0  0  0  0
   -1.1851    1.4756    0.5574 C   0  0  0  0  0  0  0  0  0  0  0  0
    4.0750   -3.2151    1.1905 N   0  0  0  0  0  0  0  0  0  0  0  0
    2.7973   -0.0241   -1.5555 O   0  0  0  0  0  0  0  0  0  0  0  0
    3.7976   -0.9413    1.1162 O   0  0  0  0  0  0  0  0  0  0  0  0
    5.3490   -3.0492    1.9234 C   0  0  0  0  0  0  0  0  0  0  0  0
   -3.3019   -1.2941    1.5744 C   0  0  0  0  0  0  0  0  0  0  0  0
    1.3962    2.5297   -0.9802 C   0  0  0  0  0  0  0  0  0  0  0  0
    6.5975   -3.5549    1.2249 C   0  0  0  0  0  0  0  0  0  0  0  0
    3.6182   -4.5837    0.9260 C   0  0  0  0  0  0  0  0  0  0  0  0
   -3.2980   -2.6784    1.8196 C   0  0  0  0  0  0  0  0  0  0  0  0
   -4.5675   -0.6685    1.4854 C   0  0  0  0  0  0  0  0  0  0  0  0
    6.7875   -3.4002   -0.1572 C   0  0  0  0  0  0  0  0  0  0  0  0
    7.6417   -4.1160    1.9844 C   0  0  0  0  0  0  0  0  0  0  0  0
    3.1492   -5.3195    2.1743 C   0  0  0  0  0  0  0  0  0  0  0  0
   -4.4909   -3.3996    1.9601 C   0  0  0  0  0  0  0  0  0  0  0  0
   -5.7616   -1.3856    1.6214 C   0  0  0  0  0  0  0  0  0  0  0  0
    7.9697   -3.8507   -0.7623 C   0  0  0  0  0  0  0  0  0  0  0  0
    8.8186   -4.5608    1.3744 C   0  0  0  0  0  0  0  0  0  0  0  0
    8.9786   -4.4408   -0.0021 C   0  0  0  0  0  0  0  0  0  0  0  0
   -5.7209   -2.7544    1.8586 C   0  0  0  0  0  0  0  0  0  0  0  0
    1.3148   -2.8425    0.8781 H   0  0  0  0  0  0  0  0  0  0  0  0
    2.0525   -2.7116   -0.7609 H   0  0  0  0  0  0  0  0  0  0  0  0
   -1.3630    2.5255    0.3576 H   0  0  0  0  0  0  0  0  0  0  0  0
    5.5209   -1.9998    2.1877 H   0  0  0  0  0  0  0  0  0  0  0  0
    5.2292   -3.5811    2.8749 H   0  0  0  0  0  0  0  0  0  0  0  0
    2.1528    2.8743   -0.2680 H   0  0  0  0  0  0  0  0  0  0  0  0
    1.8442    2.5234   -1.9772 H   0  0  0  0  0  0  0  0  0  0  0  0
    0.5390    3.2057   -0.9595 H   0  0  0  0  0  0  0  0  0  0  0  0
    2.8025   -4.5734    0.2002 H   0  0  0  0  0  0  0  0  0  0  0  0
    4.4388   -5.1365    0.4582 H   0  0  0  0  0  0  0  0  0  0  0  0
   -2.3534   -3.2155    1.8811 H   0  0  0  0  0  0  0  0  0  0  0  0
   -4.6350    0.3990    1.2754 H   0  0  0  0  0  0  0  0  0  0  0  0
    6.0304   -2.9273   -0.7625 H   0  0  0  0  0  0  0  0  0  0  0  0
    7.5545   -4.1965    3.0660 H   0  0  0  0  0  0  0  0  0  0  0  0
    3.9590   -5.4439    2.9003 H   0  0  0  0  0  0  0  0  0  0  0  0
    2.3321   -4.7850    2.6697 H   0  0  0  0  0  0  0  0  0  0  0  0
    2.7900   -6.3194    1.9070 H   0  0  0  0  0  0  0  0  0  0  0  0
   -4.4568   -4.4720    2.1337 H   0  0  0  0  0  0  0  0  0  0  0  0
   -6.7166   -0.8750    1.5242 H   0  0  0  0  0  0  0  0  0  0  0  0
    8.1054   -3.7335   -1.8384 H   0  0  0  0  0  0  0  0  0  0  0  0
    9.6162   -4.9904    1.9750 H   0  0  0  0  0  0  0  0  0  0  0  0
    9.8885   -4.7895   -0.4805 H   0  0  0  0  0  0  0  0  0  0  0  0
   -6.6444   -3.3184    1.9553 H   0  0  0  0  0  0  0  0  0  0  0  0
  2  1  1  0  0  0  0
  3  1  1  0  0  0  0
  4  2  2  0  0  0  0
  4  5  1  0  0  0  0
  5  3  1  0  0  0  0
  6  2  1  0  0  0  0
  7  1  1  0  0  0  0
  7 31  1  0  0  0  0
  7 32  1  0  0  0  0
  8  6  2  0  0  0  0
  9  7  1  0  0  0  0
 10  8  1  0  0  0  0
 11  4  1  0  0  0  0
 11 10  2  0  0  0  0
 11 33  1  0  0  0  0
 12  9  1  0  0  0  0
 13  3  2  0  0  0  0
 14  9  2  0  0  0  0
 15 12  1  0  0  0  0
 15 34  1  0  0  0  0
 15 35  1  0  0  0  0
 16  8  1  0  0  0  0
 17  5  1  0  0  0  0
 17 36  1  0  0  0  0
 17 37  1  0  0  0  0
 17 38  1  0  0  0  0
 18 15  1  0  0  0  0
 19 12  1  0  0  0  0
 19 39  1  0  0  0  0
 19 40  1  0  0  0  0
 20 16  2  0  0  0  0
 20 41  1  0  0  0  0
 21 16  1  0  0  0  0
 21 42  1  0  0  0  0
 22 18  2  0  0  0  0
 22 43  1  0  0  0  0
 23 18  1  0  0  0  0
 23 44  1  0  0  0  0
 24 19  1  0  0  0  0
 24 45  1  0  0  0  0
 24 46  1  0  0  0  0
 24 47  1  0  0  0  0
 25 20  1  0  0  0  0
 25 30  2  0  0  0  0
 25 48  1  0  0  0  0
 26 21  2  0  0  0  0
 26 49  1  0  0  0  0
 27 22  1  0  0  0  0
 27 50  1  0  0  0  0
 28 23  2  0  0  0  0
 28 51  1  0  0  0  0
 29 27  2  0  0  0  0
 29 28  1  0  0  0  0
 29 52  1  0  0  0  0
 30 26  1  0  0  0  0
 30 53  1  0  0  0  0
M  END
>  <Mol_ID>
4896

>  <Formula>
C23H23N5O2

>  <MolWeight>
401.46102

>  <Cat>
S2592

>  <Name>
Emapunil (AC 5216)

>  <Synonyms>
18 kiloDalton Translocator Protein, XBD173

>  <Target>
Mitochondrial Metabolism

>  <Form>
Free Base

>  <CAS>
226954-04-7

>  <URL>
http://www.selleckchem.com/products/emapunil.html

$$$$
