Emodinanthrone
 OpenBabel08302521453D

 31 33  0  0  0  0  0  0  0  0999 V2000
    0.9408    0.0883    0.0193 O   0  0  0  0  0  0  0  0  0  0  0  0
    0.8899   -2.6070    0.0263 O   0  0  0  0  0  0  0  0  0  0  0  0
    5.2151   -4.9484    0.0332 C   0  0  0  0  0  0  0  0  0  0  0  0
    0.9042    2.6464    0.0355 O   0  0  0  0  0  0  0  0  0  0  0  0
    5.1383    4.8079    0.0430 O   0  0  0  0  0  0  0  0  0  0  0  0
    4.3086   -1.2668    0.0357 C   0  0  0  0  0  0  0  0  0  0  0  0
    2.9062   -1.2876    0.0339 C   0  0  0  0  0  0  0  0  0  0  0  0
    5.1112   -0.0047    0.0012 C   0  0  0  0  0  0  0  0  0  0  0  0
    5.0332   -2.4685    0.0437 C   0  0  0  0  0  0  0  0  0  0  0  0
    2.1664    0.0125    0.0281 C   0  0  0  0  0  0  0  0  0  0  0  0
    2.2546   -2.5314    0.0339 C   0  0  0  0  0  0  0  0  0  0  0  0
    4.3295    1.2648    0.0338 C   0  0  0  0  0  0  0  0  0  0  0  0
    4.3853   -3.7009    0.0411 C   0  0  0  0  0  0  0  0  0  0  0  0
    2.9302    1.2886    0.0354 C   0  0  0  0  0  0  0  0  0  0  0  0
    2.9888   -3.7272    0.0364 C   0  0  0  0  0  0  0  0  0  0  0  0
    5.0500    2.4693    0.0398 C   0  0  0  0  0  0  0  0  0  0  0  0
    2.2701    2.5292    0.0385 C   0  0  0  0  0  0  0  0  0  0  0  0
    4.3775    3.6800    0.0432 C   0  0  0  0  0  0  0  0  0  0  0  0
    2.9893    3.7253    0.0409 C   0  0  0  0  0  0  0  0  0  0  0  0
    0.6026   -3.5328    0.0160 H   0  0  0  0  0  0  0  0  0  0  0  0
    5.8480   -4.9669   -0.8609 H   0  0  0  0  0  0  0  0  0  0  0  0
    5.8569   -4.9750    0.9205 H   0  0  0  0  0  0  0  0  0  0  0  0
    4.5950   -5.8484    0.0316 H   0  0  0  0  0  0  0  0  0  0  0  0
    0.5325    1.7326    0.0288 H   0  0  0  0  0  0  0  0  0  0  0  0
    4.5508    5.5781    0.0352 H   0  0  0  0  0  0  0  0  0  0  0  0
    5.7056   -0.0100   -0.9218 H   0  0  0  0  0  0  0  0  0  0  0  0
    5.7972   -0.0092    0.8581 H   0  0  0  0  0  0  0  0  0  0  0  0
    6.1228   -2.4356    0.0438 H   0  0  0  0  0  0  0  0  0  0  0  0
    2.4754   -4.6855    0.0310 H   0  0  0  0  0  0  0  0  0  0  0  0
    6.1353    2.4592    0.0373 H   0  0  0  0  0  0  0  0  0  0  0  0
    2.4530    4.6682    0.0388 H   0  0  0  0  0  0  0  0  0  0  0  0
  1 10  2  0  0  0  0
  2 11  1  0  0  0  0
  2 20  1  0  0  0  0
  3 13  1  0  0  0  0
  3 21  1  0  0  0  0
  3 22  1  0  0  0  0
  3 23  1  0  0  0  0
  4 17  1  0  0  0  0
  4 24  1  0  0  0  0
  5 18  1  0  0  0  0
  5 25  1  0  0  0  0
  6  7  2  0  0  0  0
  6  8  1  0  0  0  0
  6  9  1  0  0  0  0
  7 10  1  0  0  0  0
  7 11  1  0  0  0  0
  8 12  1  0  0  0  0
  8 26  1  0  0  0  0
  8 27  1  0  0  0  0
  9 13  2  0  0  0  0
  9 28  1  0  0  0  0
 10 14  1  0  0  0  0
 11 15  2  0  0  0  0
 12 14  2  0  0  0  0
 12 16  1  0  0  0  0
 13 15  1  0  0  0  0
 14 17  1  0  0  0  0
 15 29  1  0  0  0  0
 16 18  2  0  0  0  0
 16 30  1  0  0  0  0
 17 19  2  0  0  0  0
 18 19  1  0  0  0  0
 19 31  1  0  0  0  0
M  END
>  <Mol_ID>
9612

>  <Formula>
C15H12O4

>  <MolWeight>
256.25338

>  <Cat>
E2192

>  <Name>
Emodinanthrone

>  <Synonyms>
1,3,8-trihydroxy-6-methylanthrone

>  <Target>
Antibiotics

>  <Form>
free base

>  <CAS>
491-60-1

>  <URL>
https://www.selleckchem.com/products/emodinanthrone.html

$$$$
