EMPA
 OpenBabel08302521323D

 58 60  0  0  0  0  0  0  0  0999 V2000
   -0.2896   -0.5640   -1.2049 N   0  0  0  0  0  0  0  0  0  0  0  0
    0.4619    0.5609   -1.0673 C   0  0  0  0  0  0  0  0  0  0  0  0
    0.5781    1.2902    0.1110 C   0  0  0  0  0  0  0  0  0  0  0  0
   -0.1210    0.8206    1.2230 C   0  0  0  0  0  0  0  0  0  0  0  0
   -0.8880   -0.3377    1.1228 C   0  0  0  0  0  0  0  0  0  0  0  0
   -0.9485   -0.9859   -0.1021 C   0  0  0  0  0  0  0  0  0  0  0  0
    1.2956    2.5265    0.2342 N   0  0  0  0  0  0  0  0  0  0  0  0
   -1.7289   -2.1232   -0.1346 O   0  0  0  0  0  0  0  0  0  0  0  0
   -1.8415   -2.7027   -1.4291 C   0  0  0  0  0  0  0  0  0  0  0  0
    0.4227    3.9676    0.0348 S   0  0  0  0  0  0  0  0  0  0  0  0
    2.7646    2.5735    0.0323 C   0  0  0  0  0  0  0  0  0  0  0  0
    3.5892    1.7302    1.0049 C   0  0  0  0  0  0  0  0  0  0  0  0
    4.9857    1.8577    0.9598 N   0  0  0  0  0  0  0  0  0  0  0  0
    3.0542    0.9378    1.7864 O   0  0  0  0  0  0  0  0  0  0  0  0
    5.7756    0.9928    1.8417 C   0  0  0  0  0  0  0  0  0  0  0  0
    5.7068    2.9311    0.2665 C   0  0  0  0  0  0  0  0  0  0  0  0
    6.0803    4.0701    1.2070 C   0  0  0  0  0  0  0  0  0  0  0  0
    6.0738   -0.3585    1.2532 C   0  0  0  0  0  0  0  0  0  0  0  0
    0.6359    4.3820   -1.7060 C   0  0  0  0  0  0  0  0  0  0  0  0
   -0.9838    3.7361    0.2949 O   0  0  0  0  0  0  0  0  0  0  0  0
    1.1289    4.9931    0.7820 O   0  0  0  0  0  0  0  0  0  0  0  0
    1.7428    5.2021   -2.0115 C   0  0  0  0  0  0  0  0  0  0  0  0
    1.9707    5.6479   -3.3124 C   0  0  0  0  0  0  0  0  0  0  0  0
    1.0852    5.2969   -4.3212 C   0  0  0  0  0  0  0  0  0  0  0  0
   -0.0260    4.5054   -4.0274 C   0  0  0  0  0  0  0  0  0  0  0  0
   -0.2796    4.0393   -2.7200 C   0  0  0  0  0  0  0  0  0  0  0  0
    5.2212   -1.4479    1.4543 C   0  0  0  0  0  0  0  0  0  0  0  0
    5.5643   -2.7013    0.9570 C   0  0  0  0  0  0  0  0  0  0  0  0
    6.7525   -2.8263    0.2585 C   0  0  0  0  0  0  0  0  0  0  0  0
    7.5918   -1.7957    0.0178 N   0  0  0  0  0  0  0  0  0  0  0  0
    7.2331   -0.5898    0.5180 C   0  0  0  0  0  0  0  0  0  0  0  0
   -1.5147    3.2070   -2.5189 C   0  0  0  0  0  0  0  0  0  0  0  0
    0.9571    0.8829   -1.9793 H   0  0  0  0  0  0  0  0  0  0  0  0
   -0.0664    1.3508    2.1679 H   0  0  0  0  0  0  0  0  0  0  0  0
   -1.4314   -0.7203    1.9781 H   0  0  0  0  0  0  0  0  0  0  0  0
   -2.3705   -2.0320   -2.1143 H   0  0  0  0  0  0  0  0  0  0  0  0
   -0.8627   -2.9877   -1.8295 H   0  0  0  0  0  0  0  0  0  0  0  0
   -2.4364   -3.6165   -1.3322 H   0  0  0  0  0  0  0  0  0  0  0  0
    3.0047    2.2662   -0.9912 H   0  0  0  0  0  0  0  0  0  0  0  0
    3.0985    3.6056    0.1744 H   0  0  0  0  0  0  0  0  0  0  0  0
    6.7197    1.4902    2.0925 H   0  0  0  0  0  0  0  0  0  0  0  0
    5.2506    0.8687    2.7973 H   0  0  0  0  0  0  0  0  0  0  0  0
    6.6085    2.5036   -0.1851 H   0  0  0  0  0  0  0  0  0  0  0  0
    5.1040    3.3315   -0.5521 H   0  0  0  0  0  0  0  0  0  0  0  0
    6.7780    3.7361    1.9856 H   0  0  0  0  0  0  0  0  0  0  0  0
    6.5715    4.8788    0.6563 H   0  0  0  0  0  0  0  0  0  0  0  0
    5.1995    4.4799    1.7112 H   0  0  0  0  0  0  0  0  0  0  0  0
    2.4281    5.5274   -1.2307 H   0  0  0  0  0  0  0  0  0  0  0  0
    2.8241    6.2844   -3.5324 H   0  0  0  0  0  0  0  0  0  0  0  0
    1.2454    5.6532   -5.3365 H   0  0  0  0  0  0  0  0  0  0  0  0
   -0.7135    4.2645   -4.8380 H   0  0  0  0  0  0  0  0  0  0  0  0
    4.2950   -1.3272    2.0131 H   0  0  0  0  0  0  0  0  0  0  0  0
    4.9230   -3.5604    1.1209 H   0  0  0  0  0  0  0  0  0  0  0  0
    7.0715   -3.7871   -0.1343 H   0  0  0  0  0  0  0  0  0  0  0  0
    7.9427    0.2058    0.3157 H   0  0  0  0  0  0  0  0  0  0  0  0
   -1.2498    2.1831   -2.2583 H   0  0  0  0  0  0  0  0  0  0  0  0
   -2.1752    3.6357   -1.7637 H   0  0  0  0  0  0  0  0  0  0  0  0
   -2.1073    3.1499   -3.4399 H   0  0  0  0  0  0  0  0  0  0  0  0
  1  2  2  0  0  0  0
  2  3  1  0  0  0  0
  2 33  1  0  0  0  0
  3  4  2  0  0  0  0
  3  7  1  0  0  0  0
  4  5  1  0  0  0  0
  4 34  1  0  0  0  0
  5  6  2  0  0  0  0
  5 35  1  0  0  0  0
  6  1  1  0  0  0  0
  6  8  1  0  0  0  0
  7 10  1  0  0  0  0
  7 11  1  0  0  0  0
  8  9  1  0  0  0  0
  9 36  1  0  0  0  0
  9 37  1  0  0  0  0
  9 38  1  0  0  0  0
 10 19  1  0  0  0  0
 10 20  2  0  0  0  0
 10 21  2  0  0  0  0
 11 12  1  0  0  0  0
 11 39  1  0  0  0  0
 11 40  1  0  0  0  0
 12 13  1  0  0  0  0
 12 14  2  0  0  0  0
 13 15  1  0  0  0  0
 13 16  1  0  0  0  0
 15 18  1  0  0  0  0
 15 41  1  0  0  0  0
 15 42  1  0  0  0  0
 16 17  1  0  0  0  0
 16 43  1  0  0  0  0
 16 44  1  0  0  0  0
 17 45  1  0  0  0  0
 17 46  1  0  0  0  0
 17 47  1  0  0  0  0
 18 27  2  0  0  0  0
 19 22  2  0  0  0  0
 22 23  1  0  0  0  0
 22 48  1  0  0  0  0
 23 24  2  0  0  0  0
 23 49  1  0  0  0  0
 24 25  1  0  0  0  0
 24 50  1  0  0  0  0
 25 26  2  0  0  0  0
 25 51  1  0  0  0  0
 26 19  1  0  0  0  0
 26 32  1  0  0  0  0
 27 28  1  0  0  0  0
 27 52  1  0  0  0  0
 28 29  2  0  0  0  0
 28 53  1  0  0  0  0
 29 30  1  0  0  0  0
 29 54  1  0  0  0  0
 30 31  2  0  0  0  0
 31 18  1  0  0  0  0
 31 55  1  0  0  0  0
 32 56  1  0  0  0  0
 32 57  1  0  0  0  0
 32 58  1  0  0  0  0
M  END
>  <Mol_ID>
6125

>  <Formula>
C23H26N4O4S

>  <MolWeight>
454.54194

>  <Cat>
E0107

>  <Name>
EMPA

>  <Synonyms>
N/A

>  <Target>
OX Receptor

>  <Form>
free base

>  <CAS>
680590-49-2

>  <URL>
http://www.selleckchem.com/products/empa.html

$$$$
