Emtricitabine.cdx
 OpenBabel08302522063D

 26 27  0  0  0  0  0  0  0  0999 V2000
    3.9532    3.4575    1.1485 N   0  0  0  0  0  0  0  0  0  0  0  0
    4.0852    4.0374   -0.0050 C   0  0  0  0  0  0  0  0  0  0  0  0
    3.8501    3.3120   -1.2730 C   0  0  0  0  0  0  0  0  0  0  0  0
    3.4982    2.0355   -1.1852 C   0  0  0  0  0  0  0  0  0  0  0  0
    3.3902    1.4031    0.0432 N   0  0  0  0  0  0  0  0  0  0  0  0
    3.5444    2.1431    1.2286 C   0  0  0  0  0  0  0  0  0  0  0  0
    3.3218    1.6381    2.3263 O   0  0  0  0  0  0  0  0  0  0  0  0
    3.9902    3.9778   -2.4288 F   0  0  0  0  0  0  0  0  0  0  0  0
    4.4474    5.3571   -0.0165 N   0  0  0  0  0  0  0  0  0  0  0  0
    2.8877    0.0158    0.0831 C   0  0  1  0  0  0  0  0  0  0  0  0
    3.3335   -0.6463   -1.1246 O   0  0  0  0  0  0  0  0  0  0  0  0
    3.1119   -2.0563   -1.0349 C   0  0  2  0  0  0  0  0  0  0  0  0
    2.9558   -2.5345    0.7033 S   0  0  0  0  0  0  0  0  0  0  0  0
    3.3424   -0.8631    1.2561 C   0  0  0  0  0  0  0  0  0  0  0  0
    4.2907   -2.7879   -1.6972 C   0  0  0  0  0  0  0  0  0  0  0  0
    4.1536   -4.2055   -1.6473 O   0  0  0  0  0  0  0  0  0  0  0  0
    3.2906    1.4642   -2.0830 H   0  0  0  0  0  0  0  0  0  0  0  0
    4.8427    5.7522   -0.8609 H   0  0  0  0  0  0  0  0  0  0  0  0
    4.8244    5.7063    0.8574 H   0  0  0  0  0  0  0  0  0  0  0  0
    1.7904    0.0792    0.0551 H   0  0  0  0  0  0  0  0  0  0  0  0
    2.1786   -2.3010   -1.5525 H   0  0  0  0  0  0  0  0  0  0  0  0
    4.4229   -0.7996    1.4146 H   0  0  0  0  0  0  0  0  0  0  0  0
    2.8171   -0.6529    2.1903 H   0  0  0  0  0  0  0  0  0  0  0  0
    4.3640   -2.4942   -2.7503 H   0  0  0  0  0  0  0  0  0  0  0  0
    5.2465   -2.5096   -1.2370 H   0  0  0  0  0  0  0  0  0  0  0  0
    4.1516   -4.4466   -0.7012 H   0  0  0  0  0  0  0  0  0  0  0  0
  1  2  2  0  0  0  0
  2  3  1  0  0  0  0
  2  9  1  0  0  0  0
  3  4  2  0  0  0  0
  3  8  1  0  0  0  0
  4  5  1  0  0  0  0
  4 17  1  0  0  0  0
  5  6  1  0  0  0  0
  6  1  1  0  0  0  0
  6  7  2  0  0  0  0
  9 18  1  0  0  0  0
  9 19  1  0  0  0  0
 10 11  1  0  0  0  0
 10 20  1  6  0  0  0
 10  5  1  0  0  0  0
 11 12  1  0  0  0  0
 12 13  1  0  0  0  0
 12 21  1  6  0  0  0
 12 15  1  0  0  0  0
 13 14  1  0  0  0  0
 14 10  1  0  0  0  0
 14 22  1  0  0  0  0
 14 23  1  0  0  0  0
 15 16  1  0  0  0  0
 15 24  1  0  0  0  0
 15 25  1  0  0  0  0
 16 26  1  0  0  0  0
M  END
>  <Mol_ID>
1383

>  <Formula>
C8H10FN3O3S

>  <MolWeight>
247.2467032

>  <Cat>
S1704

>  <Name>
Emtricitabine (BW 1592)

>  <Synonyms>
FTC, BW1592

>  <Target>
HBV,HIV,Reverse Transcriptase

>  <Form>
free base

>  <CAS>
143491-57-0

>  <URL>
http://selleckchem.com/products/Emtricitabine.html

$$$$
