EN4
 OpenBabel08302521303D

 55 57  0  0  0  0  0  0  0  0999 V2000
    1.3617   -0.3065   -0.0273 C   0  0  0  0  0  0  0  0  0  0  0  0
    0.4041   -1.3220    0.0257 C   0  0  0  0  0  0  0  0  0  0  0  0
   -0.9516   -0.9994    0.0539 C   0  0  0  0  0  0  0  0  0  0  0  0
   -1.3505    0.3386    0.0795 C   0  0  0  0  0  0  0  0  0  0  0  0
   -0.3921    1.3596    0.1096 C   0  0  0  0  0  0  0  0  0  0  0  0
    0.9686    1.0393    0.0122 C   0  0  0  0  0  0  0  0  0  0  0  0
    1.8339    2.0840   -0.2457 O   0  0  0  0  0  0  0  0  0  0  0  0
   -0.8522    2.6945    0.2063 N   0  0  0  0  0  0  0  0  0  0  0  0
   -0.4855    3.5125    1.2748 C   0  0  0  0  0  0  0  0  0  0  0  0
   -1.2896    4.7701    1.4573 C   0  0  0  0  0  0  0  0  0  0  0  0
   -2.5864    4.9212    0.9462 C   0  0  0  0  0  0  0  0  0  0  0  0
   -3.3632    6.0337    1.2907 C   0  0  0  0  0  0  0  0  0  0  0  0
   -2.8583    7.0252    2.1411 C   0  0  0  0  0  0  0  0  0  0  0  0
   -1.5524    6.8920    2.6285 C   0  0  0  0  0  0  0  0  0  0  0  0
   -0.7733    5.7781    2.2850 C   0  0  0  0  0  0  0  0  0  0  0  0
    3.1006    2.0587    0.2692 C   0  0  0  0  0  0  0  0  0  0  0  0
    4.0930    2.7054   -0.4762 C   0  0  0  0  0  0  0  0  0  0  0  0
    5.4128    2.7251   -0.0168 C   0  0  0  0  0  0  0  0  0  0  0  0
    5.7485    2.0858    1.1827 C   0  0  0  0  0  0  0  0  0  0  0  0
    4.7424    1.4940    1.9463 C   0  0  0  0  0  0  0  0  0  0  0  0
    3.4208    1.5006    1.5035 C   0  0  0  0  0  0  0  0  0  0  0  0
    7.0117    1.9755    1.7030 O   0  0  0  0  0  0  0  0  0  0  0  0
    8.0645    2.5488    0.9293 C   0  0  0  0  0  0  0  0  0  0  0  0
    9.3968    2.2623    1.5984 C   0  0  0  0  0  0  0  0  0  0  0  0
    0.3591    3.2375    2.1179 O   0  0  0  0  0  0  0  0  0  0  0  0
   -3.7238    8.1863    2.5547 C   0  0  0  0  0  0  0  0  0  0  0  0
   -4.4869    7.8971    3.7464 N   0  0  0  0  0  0  0  0  0  0  0  0
   -5.3339    8.8473    4.2595 C   0  0  0  0  0  0  0  0  0  0  0  0
   -6.0685    8.3922    5.4660 C   0  0  0  0  0  0  0  0  0  0  0  0
   -5.4829    9.9610    3.7741 O   0  0  0  0  0  0  0  0  0  0  0  0
   -6.9578    9.2065    6.0561 C   0  0  0  0  0  0  0  0  0  0  0  0
    2.4100   -0.5798   -0.1113 H   0  0  0  0  0  0  0  0  0  0  0  0
    0.7160   -2.3640    0.0197 H   0  0  0  0  0  0  0  0  0  0  0  0
   -1.6974   -1.7905    0.0655 H   0  0  0  0  0  0  0  0  0  0  0  0
   -2.4102    0.5715    0.1311 H   0  0  0  0  0  0  0  0  0  0  0  0
   -1.7093    2.8901   -0.2722 H   0  0  0  0  0  0  0  0  0  0  0  0
   -3.0516    4.1704    0.3188 H   0  0  0  0  0  0  0  0  0  0  0  0
   -4.3803    6.1076    0.9094 H   0  0  0  0  0  0  0  0  0  0  0  0
   -1.1367    7.6447    3.2960 H   0  0  0  0  0  0  0  0  0  0  0  0
    0.2332    5.6876    2.6923 H   0  0  0  0  0  0  0  0  0  0  0  0
    3.8376    3.1934   -1.4139 H   0  0  0  0  0  0  0  0  0  0  0  0
    6.1497    3.2471   -0.6179 H   0  0  0  0  0  0  0  0  0  0  0  0
    4.9810    1.0276    2.8973 H   0  0  0  0  0  0  0  0  0  0  0  0
    2.6426    1.0653    2.1274 H   0  0  0  0  0  0  0  0  0  0  0  0
    8.0803    2.1146   -0.0773 H   0  0  0  0  0  0  0  0  0  0  0  0
    7.9258    3.6338    0.8721 H   0  0  0  0  0  0  0  0  0  0  0  0
    9.5840    1.1850    1.6559 H   0  0  0  0  0  0  0  0  0  0  0  0
   10.2106    2.7288    1.0350 H   0  0  0  0  0  0  0  0  0  0  0  0
    9.4102    2.6479    2.6226 H   0  0  0  0  0  0  0  0  0  0  0  0
   -3.1123    9.0782    2.7369 H   0  0  0  0  0  0  0  0  0  0  0  0
   -4.4263    8.4433    1.7527 H   0  0  0  0  0  0  0  0  0  0  0  0
   -4.4041    6.9849    4.1746 H   0  0  0  0  0  0  0  0  0  0  0  0
   -5.8781    7.4014    5.8568 H   0  0  0  0  0  0  0  0  0  0  0  0
   -7.5025    8.8902    6.9439 H   0  0  0  0  0  0  0  0  0  0  0  0
   -7.1475   10.2047    5.6821 H   0  0  0  0  0  0  0  0  0  0  0  0
  1  2  2  0  0  0  0
  1 32  1  0  0  0  0
  2  3  1  0  0  0  0
  2 33  1  0  0  0  0
  3  4  2  0  0  0  0
  3 34  1  0  0  0  0
  4  5  1  0  0  0  0
  4 35  1  0  0  0  0
  5  6  2  0  0  0  0
  5  8  1  0  0  0  0
  6  1  1  0  0  0  0
  6  7  1  0  0  0  0
  7 16  1  0  0  0  0
  8  9  1  0  0  0  0
  8 36  1  0  0  0  0
  9 10  1  0  0  0  0
  9 25  2  0  0  0  0
 10 11  2  0  0  0  0
 11 12  1  0  0  0  0
 11 37  1  0  0  0  0
 12 13  2  0  0  0  0
 12 38  1  0  0  0  0
 13 14  1  0  0  0  0
 13 26  1  0  0  0  0
 14 15  2  0  0  0  0
 14 39  1  0  0  0  0
 15 10  1  0  0  0  0
 15 40  1  0  0  0  0
 16 17  2  0  0  0  0
 17 18  1  0  0  0  0
 17 41  1  0  0  0  0
 18 19  2  0  0  0  0
 18 42  1  0  0  0  0
 19 20  1  0  0  0  0
 19 22  1  0  0  0  0
 20 21  2  0  0  0  0
 20 43  1  0  0  0  0
 21 16  1  0  0  0  0
 21 44  1  0  0  0  0
 22 23  1  0  0  0  0
 23 24  1  0  0  0  0
 23 45  1  0  0  0  0
 23 46  1  0  0  0  0
 24 47  1  0  0  0  0
 24 48  1  0  0  0  0
 24 49  1  0  0  0  0
 26 27  1  0  0  0  0
 26 50  1  0  0  0  0
 26 51  1  0  0  0  0
 27 28  1  0  0  0  0
 27 52  1  0  0  0  0
 28 29  1  0  0  0  0
 28 30  2  0  0  0  0
 29 31  2  0  0  0  0
 29 53  1  0  0  0  0
 31 54  1  0  0  0  0
 31 55  1  0  0  0  0
M  END
>  <Mol_ID>
5681

>  <Formula>
C25H24N2O4

>  <MolWeight>
416.46906

>  <Cat>
S9807

>  <Name>
EN4

>  <Synonyms>
N/A

>  <Target>
Myc

>  <Form>
Free Base

>  <CAS>
1197824-15-9

>  <URL>
http://www.selleckchem.com/products/en4.html

$$$$
