EN450
 OpenBabel08302521353D

 31 31  0  0  0  0  0  0  0  0999 V2000
    1.0042    0.0667    0.1562 S   0  0  0  0  0  0  0  0  0  0  0  0
    0.6116    0.2404   -1.4950 N   0  0  0  0  0  0  0  0  0  0  0  0
    0.5373   -1.2323    0.5915 O   0  0  0  0  0  0  0  0  0  0  0  0
    0.6059    1.2690    0.8546 O   0  0  0  0  0  0  0  0  0  0  0  0
    0.8779    1.5630   -2.0885 C   0  0  0  0  0  0  0  0  0  0  0  0
    0.9890   -0.8797   -2.3736 C   0  0  0  0  0  0  0  0  0  0  0  0
    5.6729    2.3710    0.3534 N   0  0  0  0  0  0  0  0  0  0  0  0
    5.2138    3.6227   -0.0250 C   0  0  0  0  0  0  0  0  0  0  0  0
    6.1888    4.7242    0.2146 C   0  0  0  0  0  0  0  0  0  0  0  0
    4.1387    3.8602   -0.5560 O   0  0  0  0  0  0  0  0  0  0  0  0
    5.8357    5.9736   -0.1183 C   0  0  0  0  0  0  0  0  0  0  0  0
    2.7846    0.0075    0.1496 C   0  0  0  0  0  0  0  0  0  0  0  0
    3.5079    1.2014    0.2071 C   0  0  0  0  0  0  0  0  0  0  0  0
    3.4405   -1.2236    0.1809 C   0  0  0  0  0  0  0  0  0  0  0  0
    4.9025    1.1836    0.2906 C   0  0  0  0  0  0  0  0  0  0  0  0
    4.8306   -1.2507    0.2739 C   0  0  0  0  0  0  0  0  0  0  0  0
    5.5581   -0.0548    0.3459 C   0  0  0  0  0  0  0  0  0  0  0  0
    1.9508    1.7502   -2.1687 H   0  0  0  0  0  0  0  0  0  0  0  0
    0.4451    1.6134   -3.0926 H   0  0  0  0  0  0  0  0  0  0  0  0
    0.4039    2.3539   -1.5002 H   0  0  0  0  0  0  0  0  0  0  0  0
    2.0757   -0.9506   -2.4711 H   0  0  0  0  0  0  0  0  0  0  0  0
    0.5910   -1.8252   -1.9945 H   0  0  0  0  0  0  0  0  0  0  0  0
    0.5695   -0.7314   -3.3732 H   0  0  0  0  0  0  0  0  0  0  0  0
    6.6404    2.2755    0.6259 H   0  0  0  0  0  0  0  0  0  0  0  0
    7.1527    4.5097    0.6523 H   0  0  0  0  0  0  0  0  0  0  0  0
    6.5049    6.8162    0.0321 H   0  0  0  0  0  0  0  0  0  0  0  0
    4.8628    6.1938   -0.5502 H   0  0  0  0  0  0  0  0  0  0  0  0
    2.9556    2.1364    0.2210 H   0  0  0  0  0  0  0  0  0  0  0  0
    2.8763   -2.1535    0.1494 H   0  0  0  0  0  0  0  0  0  0  0  0
    5.3472   -2.2083    0.3024 H   0  0  0  0  0  0  0  0  0  0  0  0
    6.6405   -0.1116    0.4243 H   0  0  0  0  0  0  0  0  0  0  0  0
  1  2  1  0  0  0  0
  1  3  2  0  0  0  0
  1  4  2  0  0  0  0
  1 12  1  0  0  0  0
  2  5  1  0  0  0  0
  2  6  1  0  0  0  0
  5 18  1  0  0  0  0
  5 19  1  0  0  0  0
  5 20  1  0  0  0  0
  6 21  1  0  0  0  0
  6 22  1  0  0  0  0
  6 23  1  0  0  0  0
  7  8  1  0  0  0  0
  7 15  1  0  0  0  0
  7 24  1  0  0  0  0
  8  9  1  0  0  0  0
  8 10  2  0  0  0  0
  9 11  2  0  0  0  0
  9 25  1  0  0  0  0
 11 26  1  0  0  0  0
 11 27  1  0  0  0  0
 12 13  2  0  0  0  0
 12 14  1  0  0  0  0
 13 15  1  0  0  0  0
 13 28  1  0  0  0  0
 14 16  2  0  0  0  0
 14 29  1  0  0  0  0
 15 17  2  0  0  0  0
 16 17  1  0  0  0  0
 16 30  1  0  0  0  0
 17 31  1  0  0  0  0
M  END
>  <Mol_ID>
6950

>  <Formula>
C11H13ClN2O3S

>  <MolWeight>
288.75052

>  <Cat>
E1575

>  <Name>
EN450

>  <Target>
NF-¦ÊB

>  <Form>
free base

>  <CAS>
793719-01-4

>  <URL>
https://www.selleckchem.com/products/en450.html

$$$$
