ENDOMETRIN (progesterone).cdx
 OpenBabel08302520433D

 53 56  0  0  0  0  0  0  0  0999 V2000
   -3.7172   -1.3394   -0.0643 C   0  0  0  0  0  0  0  0  0  0  0  0
   -4.1568    0.0231    0.4028 C   0  0  0  0  0  0  0  0  0  0  0  0
   -3.2125    1.1508    0.2215 C   0  0  0  0  0  0  0  0  0  0  0  0
   -1.9537    0.9541   -0.2092 C   0  0  0  0  0  0  0  0  0  0  0  0
   -1.3349   -0.4360   -0.4197 C   0  0  2  0  0  0  0  0  0  0  0  0
   -2.2341   -1.5314    0.2239 C   0  0  0  0  0  0  0  0  0  0  0  0
   -1.0825    2.1457   -0.5406 C   0  0  0  0  0  0  0  0  0  0  0  0
    0.3179    2.0613    0.0631 C   0  0  0  0  0  0  0  0  0  0  0  0
    0.9826    0.7118   -0.2348 C   0  0  2  0  0  0  0  0  0  0  0  0
    0.0815   -0.4562    0.2755 C   0  0  2  0  0  0  0  0  0  0  0  0
    2.3804    0.5980    0.3857 C   0  0  1  0  0  0  0  0  0  0  0  0
    3.0699   -0.7523    0.0611 C   0  0  2  0  0  0  0  0  0  0  0  0
    2.2351   -1.8421    0.7437 C   0  0  0  0  0  0  0  0  0  0  0  0
    0.7814   -1.8448    0.2385 C   0  0  0  0  0  0  0  0  0  0  0  0
    3.4334    1.6360   -0.0034 C   0  0  0  0  0  0  0  0  0  0  0  0
    4.7704    0.9788    0.3645 C   0  0  0  0  0  0  0  0  0  0  0  0
    4.4640   -0.4964    0.7190 C   0  0  2  0  0  0  0  0  0  0  0  0
   -5.2849    0.2400    0.8359 O   0  0  0  0  0  0  0  0  0  0  0  0
   -1.2393   -0.7112   -1.9402 C   0  0  0  0  0  0  0  0  0  0  0  0
    3.1403   -1.0270   -1.4660 C   0  0  0  0  0  0  0  0  0  0  0  0
    5.6359   -1.4354    0.3835 C   0  0  0  0  0  0  0  0  0  0  0  0
    6.9409   -1.2495    1.1347 C   0  0  0  0  0  0  0  0  0  0  0  0
    5.5080   -2.3813   -0.3891 O   0  0  0  0  0  0  0  0  0  0  0  0
   -4.2955   -2.0995    0.4712 H   0  0  0  0  0  0  0  0  0  0  0  0
   -3.9434   -1.4329   -1.1312 H   0  0  0  0  0  0  0  0  0  0  0  0
   -3.6315    2.1364    0.3937 H   0  0  0  0  0  0  0  0  0  0  0  0
   -2.0963   -1.5257    1.3142 H   0  0  0  0  0  0  0  0  0  0  0  0
   -1.9353   -2.5277   -0.1233 H   0  0  0  0  0  0  0  0  0  0  0  0
   -0.9992    2.2183   -1.6324 H   0  0  0  0  0  0  0  0  0  0  0  0
   -1.5490    3.0819   -0.2100 H   0  0  0  0  0  0  0  0  0  0  0  0
    0.9228    2.8737   -0.3555 H   0  0  0  0  0  0  0  0  0  0  0  0
    0.2663    2.2277    1.1472 H   0  0  0  0  0  0  0  0  0  0  0  0
    1.0796    0.6599   -1.3226 H   0  0  0  0  0  0  0  0  0  0  0  0
   -0.0895   -0.2555    1.3468 H   0  0  0  0  0  0  0  0  0  0  0  0
    2.2554    0.6773    1.4791 H   0  0  0  0  0  0  0  0  0  0  0  0
    2.2270   -1.6857    1.8302 H   0  0  0  0  0  0  0  0  0  0  0  0
    2.6828   -2.8292    0.5794 H   0  0  0  0  0  0  0  0  0  0  0  0
    0.2177   -2.5511    0.8603 H   0  0  0  0  0  0  0  0  0  0  0  0
    0.7637   -2.2571   -0.7734 H   0  0  0  0  0  0  0  0  0  0  0  0
    3.3924    1.8531   -1.0786 H   0  0  0  0  0  0  0  0  0  0  0  0
    3.2889    2.5765    0.5310 H   0  0  0  0  0  0  0  0  0  0  0  0
    5.4818    1.0711   -0.4639 H   0  0  0  0  0  0  0  0  0  0  0  0
    5.2125    1.4808    1.2306 H   0  0  0  0  0  0  0  0  0  0  0  0
    4.3396   -0.5651    1.8127 H   0  0  0  0  0  0  0  0  0  0  0  0
   -0.6156    0.0189   -2.4644 H   0  0  0  0  0  0  0  0  0  0  0  0
   -0.8234   -1.7020   -2.1469 H   0  0  0  0  0  0  0  0  0  0  0  0
   -2.2238   -0.6730   -2.4197 H   0  0  0  0  0  0  0  0  0  0  0  0
    3.8441   -0.3691   -1.9817 H   0  0  0  0  0  0  0  0  0  0  0  0
    3.4281   -2.0635   -1.6699 H   0  0  0  0  0  0  0  0  0  0  0  0
    2.1750   -0.9048   -1.9661 H   0  0  0  0  0  0  0  0  0  0  0  0
    6.9620   -1.9210    1.9959 H   0  0  0  0  0  0  0  0  0  0  0  0
    7.7669   -1.5050    0.4649 H   0  0  0  0  0  0  0  0  0  0  0  0
    7.0862   -0.2269    1.4702 H   0  0  0  0  0  0  0  0  0  0  0  0
  1  2  1  0  0  0  0
  1 24  1  0  0  0  0
  1 25  1  0  0  0  0
  2  3  1  0  0  0  0
  2 18  2  0  0  0  0
  3  4  2  0  0  0  0
  3 26  1  0  0  0  0
  4  5  1  0  0  0  0
  4  7  1  0  0  0  0
  5  6  1  0  0  0  0
  5 19  1  6  0  0  0
  6  1  1  0  0  0  0
  6 27  1  0  0  0  0
  6 28  1  0  0  0  0
  7  8  1  0  0  0  0
  7 29  1  0  0  0  0
  7 30  1  0  0  0  0
  8 31  1  0  0  0  0
  8 32  1  0  0  0  0
  9  8  1  0  0  0  0
  9 10  1  0  0  0  0
  9 11  1  0  0  0  0
  9 33  1  6  0  0  0
 10  5  1  0  0  0  0
 10 14  1  0  0  0  0
 10 34  1  1  0  0  0
 11 12  1  0  0  0  0
 11 15  1  0  0  0  0
 11 35  1  1  0  0  0
 12 13  1  0  0  0  0
 12 20  1  6  0  0  0
 13 14  1  0  0  0  0
 13 36  1  0  0  0  0
 13 37  1  0  0  0  0
 14 38  1  0  0  0  0
 14 39  1  0  0  0  0
 15 16  1  0  0  0  0
 15 40  1  0  0  0  0
 15 41  1  0  0  0  0
 16 17  1  0  0  0  0
 16 42  1  0  0  0  0
 16 43  1  0  0  0  0
 17 12  1  0  0  0  0
 17 44  1  1  0  0  0
 17 21  1  0  0  0  0
 19 45  1  0  0  0  0
 19 46  1  0  0  0  0
 19 47  1  0  0  0  0
 20 48  1  0  0  0  0
 20 49  1  0  0  0  0
 20 50  1  0  0  0  0
 21 22  1  0  0  0  0
 21 23  2  0  0  0  0
 22 51  1  0  0  0  0
 22 52  1  0  0  0  0
 22 53  1  0  0  0  0
M  END
>  <Mol_ID>
402

>  <Formula>
C21H30O2

>  <MolWeight>
314.4617

>  <Cat>
S1705

>  <Name>
Progesterone (NSC 9704)

>  <Synonyms>
NSC 64377, Pregn-4-ene-3,20-dione,NSC 9704

>  <Target>
Estrogen/progestogen Receptor

>  <Form>
free base

>  <CAS>
57-83-0

>  <URL>
http://selleckchem.com/products/Progesterone(Prometrium).html

$$$$
