ENMD-2076.cdx
 OpenBabel08302521443D

 53 56  0  0  0  0  0  0  0  0999 V2000
    0.0488    1.2026   -0.0409 C   0  0  0  0  0  0  0  0  0  0  0  0
    1.2378    0.5708    0.0365 N   0  0  0  0  0  0  0  0  0  0  0  0
    1.1833   -0.7655    0.0910 C   0  0  0  0  0  0  0  0  0  0  0  0
   -0.0142   -1.4401   -0.0138 C   0  0  0  0  0  0  0  0  0  0  0  0
   -1.1840   -0.7201   -0.1098 C   0  0  0  0  0  0  0  0  0  0  0  0
   -1.1634    0.6145   -0.0975 N   0  0  0  0  0  0  0  0  0  0  0  0
    2.3838   -1.5010    0.2153 N   0  0  0  0  0  0  0  0  0  0  0  0
    0.1017    2.6672   -0.0715 C   0  0  0  0  0  0  0  0  0  0  0  0
   -0.9755    3.4648   -0.1986 C   0  0  0  0  0  0  0  0  0  0  0  0
   -0.9353    4.9333   -0.2544 C   0  0  0  0  0  0  0  0  0  0  0  0
    0.1529    5.6410   -0.7843 C   0  0  0  0  0  0  0  0  0  0  0  0
    0.1276    7.0365   -0.8621 C   0  0  0  0  0  0  0  0  0  0  0  0
   -0.9896    7.7410   -0.4205 C   0  0  0  0  0  0  0  0  0  0  0  0
   -2.0832    7.0523    0.0968 C   0  0  0  0  0  0  0  0  0  0  0  0
   -2.0566    5.6565    0.1755 C   0  0  0  0  0  0  0  0  0  0  0  0
    2.1334   -4.4072    2.0267 N   0  0  0  0  0  0  0  0  0  0  0  0
    1.7217   -3.1563    1.8060 N   0  0  0  0  0  0  0  0  0  0  0  0
    2.4931   -2.7090    0.8123 C   0  0  0  0  0  0  0  0  0  0  0  0
    3.4164   -3.7036    0.4046 C   0  0  0  0  0  0  0  0  0  0  0  0
    3.1529   -4.7966    1.2067 C   0  0  0  0  0  0  0  0  0  0  0  0
    3.7321   -6.1533    1.2867 C   0  0  0  0  0  0  0  0  0  0  0  0
   -2.3697   -1.4277   -0.1329 N   0  0  0  0  0  0  0  0  0  0  0  0
   -3.6009   -0.7973    0.3375 C   0  0  0  0  0  0  0  0  0  0  0  0
   -4.5255   -1.9302    0.8584 C   0  0  0  0  0  0  0  0  0  0  0  0
   -4.8006   -2.9739   -0.1649 N   0  0  0  0  0  0  0  0  0  0  0  0
   -3.5225   -3.5079   -0.6972 C   0  0  0  0  0  0  0  0  0  0  0  0
   -2.5819   -2.3980   -1.2132 C   0  0  0  0  0  0  0  0  0  0  0  0
   -5.5997   -4.0537    0.4094 C   0  0  0  0  0  0  0  0  0  0  0  0
   -0.0519   -2.5190    0.0411 H   0  0  0  0  0  0  0  0  0  0  0  0
    3.1576   -0.8497    0.2903 H   0  0  0  0  0  0  0  0  0  0  0  0
    1.1049    3.0765    0.0164 H   0  0  0  0  0  0  0  0  0  0  0  0
   -1.9669    3.0200   -0.2662 H   0  0  0  0  0  0  0  0  0  0  0  0
    1.0281    5.1162   -1.1581 H   0  0  0  0  0  0  0  0  0  0  0  0
    0.9795    7.5705   -1.2752 H   0  0  0  0  0  0  0  0  0  0  0  0
   -1.0098    8.8259   -0.4863 H   0  0  0  0  0  0  0  0  0  0  0  0
   -2.9592    7.5979    0.4366 H   0  0  0  0  0  0  0  0  0  0  0  0
   -2.9241    5.1378    0.5800 H   0  0  0  0  0  0  0  0  0  0  0  0
    1.6598   -4.9454    2.7422 H   0  0  0  0  0  0  0  0  0  0  0  0
    4.1356   -3.6476   -0.3981 H   0  0  0  0  0  0  0  0  0  0  0  0
    4.1189   -6.3402    2.2940 H   0  0  0  0  0  0  0  0  0  0  0  0
    2.9734   -6.9114    1.0659 H   0  0  0  0  0  0  0  0  0  0  0  0
    4.5549   -6.2756    0.5768 H   0  0  0  0  0  0  0  0  0  0  0  0
   -4.0890   -0.2442   -0.4733 H   0  0  0  0  0  0  0  0  0  0  0  0
   -3.4065   -0.1023    1.1620 H   0  0  0  0  0  0  0  0  0  0  0  0
   -5.4680   -1.4853    1.1947 H   0  0  0  0  0  0  0  0  0  0  0  0
   -4.0459   -2.3908    1.7346 H   0  0  0  0  0  0  0  0  0  0  0  0
   -2.9948   -4.0720    0.0844 H   0  0  0  0  0  0  0  0  0  0  0  0
   -3.7283   -4.2010   -1.5211 H   0  0  0  0  0  0  0  0  0  0  0  0
   -3.0253   -1.8968   -2.0836 H   0  0  0  0  0  0  0  0  0  0  0  0
   -1.6494   -2.8641   -1.5535 H   0  0  0  0  0  0  0  0  0  0  0  0
   -5.8322   -4.8041   -0.3545 H   0  0  0  0  0  0  0  0  0  0  0  0
   -5.0883   -4.5553    1.2390 H   0  0  0  0  0  0  0  0  0  0  0  0
   -6.5566   -3.6687    0.7765 H   0  0  0  0  0  0  0  0  0  0  0  0
  1  2  2  0  0  0  0
  1  6  1  0  0  0  0
  1  8  1  0  0  0  0
  2  3  1  0  0  0  0
  3  4  2  0  0  0  0
  3  7  1  0  0  0  0
  4  5  1  0  0  0  0
  4 29  1  0  0  0  0
  5  6  2  0  0  0  0
  5 22  1  0  0  0  0
  7 18  1  0  0  0  0
  7 30  1  0  0  0  0
  8  9  2  0  0  0  0
  8 31  1  0  0  0  0
  9 10  1  0  0  0  0
  9 32  1  0  0  0  0
 10 11  2  0  0  0  0
 10 15  1  0  0  0  0
 11 12  1  0  0  0  0
 11 33  1  0  0  0  0
 12 13  2  0  0  0  0
 12 34  1  0  0  0  0
 13 14  1  0  0  0  0
 13 35  1  0  0  0  0
 14 15  2  0  0  0  0
 14 36  1  0  0  0  0
 15 37  1  0  0  0  0
 16 17  1  0  0  0  0
 16 20  1  0  0  0  0
 16 38  1  0  0  0  0
 17 18  2  0  0  0  0
 18 19  1  0  0  0  0
 19 20  2  0  0  0  0
 19 39  1  0  0  0  0
 20 21  1  0  0  0  0
 21 40  1  0  0  0  0
 21 41  1  0  0  0  0
 21 42  1  0  0  0  0
 22 23  1  0  0  0  0
 22 27  1  0  0  0  0
 23 24  1  0  0  0  0
 23 43  1  0  0  0  0
 23 44  1  0  0  0  0
 24 25  1  0  0  0  0
 24 45  1  0  0  0  0
 24 46  1  0  0  0  0
 25 26  1  0  0  0  0
 25 28  1  0  0  0  0
 26 27  1  0  0  0  0
 26 47  1  0  0  0  0
 26 48  1  0  0  0  0
 27 49  1  0  0  0  0
 27 50  1  0  0  0  0
 28 51  1  0  0  0  0
 28 52  1  0  0  0  0
 28 53  1  0  0  0  0
M  END
>  <Mol_ID>
106

>  <Formula>
C21H25N7

>  <MolWeight>
375.4701

>  <Cat>
S1181

>  <Name>
ENMD-2076

>  <Synonyms>
N/A

>  <Target>
Apoptosis related,Aurora Kinase,CSF-1R,FGFR,FLT3,PDGFR,Src,VEGFR

>  <Form>
Tartaric Acid

>  <CAS>
934353-76-1

>  <URL>
http://selleckchem.com/products/enmd-2076.html

$$$$
