Enpp-1-IN-1
 OpenBabel08302521243D

 41 43  0  0  0  0  0  0  0  0999 V2000
    4.4397   -2.8024   -0.2040 S   0  0  0  0  0  0  0  0  0  0  0  0
    5.2166   -3.8871   -0.7406 O   0  0  0  0  0  0  0  0  0  0  0  0
    4.8740   -1.9964    0.9057 O   0  0  0  0  0  0  0  0  0  0  0  0
    2.9438   -3.4294    0.1730 N   0  0  0  0  0  0  0  0  0  0  0  0
    3.9880   -1.8150   -1.4635 N   0  0  0  0  0  0  0  0  0  0  0  0
    3.1961   -0.6365   -1.0776 C   0  0  0  0  0  0  0  0  0  0  0  0
    2.7624    0.1646   -2.2813 C   0  0  0  0  0  0  0  0  0  0  0  0
    1.9710   -0.4003   -3.2910 C   0  0  0  0  0  0  0  0  0  0  0  0
    1.5894    0.3515   -4.4126 C   0  0  0  0  0  0  0  0  0  0  0  0
    2.0549    1.6587   -4.5911 C   0  0  0  0  0  0  0  0  0  0  0  0
    2.7914    2.2304   -3.5328 C   0  0  0  0  0  0  0  0  0  0  0  0
    3.1338    1.5038   -2.3941 C   0  0  0  0  0  0  0  0  0  0  0  0
    2.8137    4.1986   -7.8681 N   0  0  0  0  0  0  0  0  0  0  0  0
    2.0933    4.6194   -6.8120 C   0  0  0  0  0  0  0  0  0  0  0  0
    1.6597    3.7855   -5.8035 C   0  0  0  0  0  0  0  0  0  0  0  0
    1.9859    2.4230   -5.8669 C   0  0  0  0  0  0  0  0  0  0  0  0
    2.5682    1.9267   -7.0734 C   0  0  0  0  0  0  0  0  0  0  0  0
    2.7522    0.5580   -7.3906 C   0  0  0  0  0  0  0  0  0  0  0  0
    3.4383    0.1461   -8.5304 C   0  0  0  0  0  0  0  0  0  0  0  0
    4.0151    1.0948   -9.3560 C   0  0  0  0  0  0  0  0  0  0  0  0
    3.7946    2.4480   -9.0853 C   0  0  0  0  0  0  0  0  0  0  0  0
    3.0363    2.8805   -8.0024 C   0  0  0  0  0  0  0  0  0  0  0  0
    4.7998    0.8282  -10.4432 O   0  0  0  0  0  0  0  0  0  0  0  0
    5.0189   -0.5456  -10.7473 C   0  0  0  0  0  0  0  0  0  0  0  0
    2.6991   -4.1202   -0.5271 H   0  0  0  0  0  0  0  0  0  0  0  0
    2.9783   -3.8471    1.1028 H   0  0  0  0  0  0  0  0  0  0  0  0
    4.8198   -1.5466   -1.9933 H   0  0  0  0  0  0  0  0  0  0  0  0
    2.2935   -0.9325   -0.5312 H   0  0  0  0  0  0  0  0  0  0  0  0
    3.7996   -0.0031   -0.4219 H   0  0  0  0  0  0  0  0  0  0  0  0
    1.6711   -1.4450   -3.2207 H   0  0  0  0  0  0  0  0  0  0  0  0
    0.9675   -0.1263   -5.1655 H   0  0  0  0  0  0  0  0  0  0  0  0
    3.1635    3.2510   -3.6120 H   0  0  0  0  0  0  0  0  0  0  0  0
    3.7277    1.9882   -1.6217 H   0  0  0  0  0  0  0  0  0  0  0  0
    1.9218    5.6912   -6.7653 H   0  0  0  0  0  0  0  0  0  0  0  0
    1.1679    4.2093   -4.9329 H   0  0  0  0  0  0  0  0  0  0  0  0
    2.3390   -0.2272   -6.7702 H   0  0  0  0  0  0  0  0  0  0  0  0
    3.5165   -0.9187   -8.7202 H   0  0  0  0  0  0  0  0  0  0  0  0
    4.2375    3.1959   -9.7394 H   0  0  0  0  0  0  0  0  0  0  0  0
    5.4578   -1.0852   -9.9003 H   0  0  0  0  0  0  0  0  0  0  0  0
    4.0868   -1.0187  -11.0739 H   0  0  0  0  0  0  0  0  0  0  0  0
    5.7325   -0.5988  -11.5742 H   0  0  0  0  0  0  0  0  0  0  0  0
  1  2  2  0  0  0  0
  1  3  2  0  0  0  0
  1  4  1  0  0  0  0
  1  5  1  0  0  0  0
  4 25  1  0  0  0  0
  4 26  1  0  0  0  0
  5  6  1  0  0  0  0
  5 27  1  0  0  0  0
  6  7  1  0  0  0  0
  6 28  1  0  0  0  0
  6 29  1  0  0  0  0
  7  8  2  0  0  0  0
  7 12  1  0  0  0  0
  8  9  1  0  0  0  0
  8 30  1  0  0  0  0
  9 10  2  0  0  0  0
  9 31  1  0  0  0  0
 10 11  1  0  0  0  0
 10 16  1  0  0  0  0
 11 12  2  0  0  0  0
 11 32  1  0  0  0  0
 12 33  1  0  0  0  0
 13 14  2  0  0  0  0
 13 22  1  0  0  0  0
 14 15  1  0  0  0  0
 14 34  1  0  0  0  0
 15 16  2  0  0  0  0
 15 35  1  0  0  0  0
 16 17  1  0  0  0  0
 17 18  1  0  0  0  0
 17 22  2  0  0  0  0
 18 19  2  0  0  0  0
 18 36  1  0  0  0  0
 19 20  1  0  0  0  0
 19 37  1  0  0  0  0
 20 21  2  0  0  0  0
 20 23  1  0  0  0  0
 21 22  1  0  0  0  0
 21 38  1  0  0  0  0
 23 24  1  0  0  0  0
 24 39  1  0  0  0  0
 24 40  1  0  0  0  0
 24 41  1  0  0  0  0
M  END
>  <Mol_ID>
5075

>  <Formula>
C17H17N3O3S

>  <MolWeight>
343.40018

>  <Cat>
S0501

>  <Name>
Enpp-1-IN-1

>  <Synonyms>
UUN28589, MV 658

>  <Target>
PDE

>  <Form>
free base

>  <CAS>
2289728-58-9

>  <URL>
http://www.selleckchem.com/products/enpp-1-in-1.html

$$$$
