Enrofloxacin.cdx
 OpenBabel08302521393D

 48 51  0  0  0  0  0  0  0  0999 V2000
    1.2320    1.3618   -0.0208 N   0  0  0  0  0  0  0  0  0  0  0  0
    2.4302    0.6636    0.0416 C   0  0  0  0  0  0  0  0  0  0  0  0
    2.5796   -0.6672    0.1103 C   0  0  0  0  0  0  0  0  0  0  0  0
    1.3395   -1.4787    0.0877 C   0  0  0  0  0  0  0  0  0  0  0  0
    0.0414   -0.7605    0.1222 C   0  0  0  0  0  0  0  0  0  0  0  0
   -1.1365   -1.5063    0.1610 C   0  0  0  0  0  0  0  0  0  0  0  0
   -2.3608   -0.8507    0.1685 C   0  0  0  0  0  0  0  0  0  0  0  0
   -2.4579    0.5526    0.1611 C   0  0  0  0  0  0  0  0  0  0  0  0
   -1.2428    1.2699    0.1546 C   0  0  0  0  0  0  0  0  0  0  0  0
    0.0115    0.6450    0.0901 C   0  0  0  0  0  0  0  0  0  0  0  0
    3.9125   -1.2846    0.2016 C   0  0  0  0  0  0  0  0  0  0  0  0
    4.1802   -2.4006    0.6014 O   0  0  0  0  0  0  0  0  0  0  0  0
    4.9057   -0.4682   -0.2130 O   0  0  0  0  0  0  0  0  0  0  0  0
    1.3547   -2.7016    0.0164 O   0  0  0  0  0  0  0  0  0  0  0  0
   -3.4631   -1.6165    0.1997 F   0  0  0  0  0  0  0  0  0  0  0  0
   -3.6581    1.2553    0.0539 N   0  0  0  0  0  0  0  0  0  0  0  0
   -4.8687    0.5570   -0.4147 C   0  0  0  0  0  0  0  0  0  0  0  0
   -5.8788    1.5814   -0.9848 C   0  0  0  0  0  0  0  0  0  0  0  0
   -6.2302    2.7083   -0.0883 N   0  0  0  0  0  0  0  0  0  0  0  0
   -4.9725    3.3248    0.4020 C   0  0  0  0  0  0  0  0  0  0  0  0
   -3.9332    2.3467    1.0065 C   0  0  0  0  0  0  0  0  0  0  0  0
   -7.0995    2.3192    1.0287 C   0  0  0  0  0  0  0  0  0  0  0  0
   -8.4942    1.8996    0.5740 C   0  0  0  0  0  0  0  0  0  0  0  0
    1.3443    2.7988   -0.3564 C   0  0  0  0  0  0  0  0  0  0  0  0
    0.4718    3.6688   -1.2256 C   0  0  0  0  0  0  0  0  0  0  0  0
    1.7317    3.1114   -1.7921 C   0  0  0  0  0  0  0  0  0  0  0  0
    3.2998    1.3174    0.0333 H   0  0  0  0  0  0  0  0  0  0  0  0
   -1.1146   -2.5927    0.1652 H   0  0  0  0  0  0  0  0  0  0  0  0
   -1.2888    2.3521    0.1505 H   0  0  0  0  0  0  0  0  0  0  0  0
    5.7030   -1.0375   -0.1124 H   0  0  0  0  0  0  0  0  0  0  0  0
   -4.6238   -0.1364   -1.2285 H   0  0  0  0  0  0  0  0  0  0  0  0
   -5.3217   -0.0149    0.4038 H   0  0  0  0  0  0  0  0  0  0  0  0
   -5.4377    2.0165   -1.8924 H   0  0  0  0  0  0  0  0  0  0  0  0
   -6.7740    1.0559   -1.3325 H   0  0  0  0  0  0  0  0  0  0  0  0
   -4.5029    3.8341   -0.4506 H   0  0  0  0  0  0  0  0  0  0  0  0
   -5.1963    4.1164    1.1275 H   0  0  0  0  0  0  0  0  0  0  0  0
   -4.3049    1.9269    1.9493 H   0  0  0  0  0  0  0  0  0  0  0  0
   -3.0360    2.9259    1.2483 H   0  0  0  0  0  0  0  0  0  0  0  0
   -6.6590    1.5252    1.6415 H   0  0  0  0  0  0  0  0  0  0  0  0
   -7.2342    3.1886    1.6848 H   0  0  0  0  0  0  0  0  0  0  0  0
   -8.4806    0.9499    0.0315 H   0  0  0  0  0  0  0  0  0  0  0  0
   -9.1451    1.7681    1.4447 H   0  0  0  0  0  0  0  0  0  0  0  0
   -8.9472    2.6615   -0.0695 H   0  0  0  0  0  0  0  0  0  0  0  0
    1.8600    3.3409    0.4354 H   0  0  0  0  0  0  0  0  0  0  0  0
   -0.4579    3.3029   -1.6389 H   0  0  0  0  0  0  0  0  0  0  0  0
    0.4608    4.7362   -1.0236 H   0  0  0  0  0  0  0  0  0  0  0  0
    2.5816    3.7603   -1.9511 H   0  0  0  0  0  0  0  0  0  0  0  0
    1.6175    2.3297   -2.5373 H   0  0  0  0  0  0  0  0  0  0  0  0
  1  2  1  0  0  0  0
  1 10  1  0  0  0  0
  1 24  1  0  0  0  0
  2  3  2  0  0  0  0
  2 27  1  0  0  0  0
  3  4  1  0  0  0  0
  3 11  1  0  0  0  0
  4  5  1  0  0  0  0
  4 14  2  0  0  0  0
  5  6  1  0  0  0  0
  5 10  2  0  0  0  0
  6  7  2  0  0  0  0
  6 28  1  0  0  0  0
  7  8  1  0  0  0  0
  7 15  1  0  0  0  0
  8  9  2  0  0  0  0
  8 16  1  0  0  0  0
  9 10  1  0  0  0  0
  9 29  1  0  0  0  0
 11 12  2  0  0  0  0
 11 13  1  0  0  0  0
 13 30  1  0  0  0  0
 16 17  1  0  0  0  0
 16 21  1  0  0  0  0
 17 18  1  0  0  0  0
 17 31  1  0  0  0  0
 17 32  1  0  0  0  0
 18 19  1  0  0  0  0
 18 33  1  0  0  0  0
 18 34  1  0  0  0  0
 19 20  1  0  0  0  0
 19 22  1  0  0  0  0
 20 21  1  0  0  0  0
 20 35  1  0  0  0  0
 20 36  1  0  0  0  0
 21 37  1  0  0  0  0
 21 38  1  0  0  0  0
 22 23  1  0  0  0  0
 22 39  1  0  0  0  0
 22 40  1  0  0  0  0
 23 41  1  0  0  0  0
 23 42  1  0  0  0  0
 23 43  1  0  0  0  0
 24 25  1  0  0  0  0
 24 26  1  0  0  0  0
 24 44  1  0  0  0  0
 25 26  1  0  0  0  0
 25 45  1  0  0  0  0
 25 46  1  0  0  0  0
 26 47  1  0  0  0  0
 26 48  1  0  0  0  0
M  END
>  <Mol_ID>
8196

>  <Formula>
C19H22FN3O3

>  <MolWeight>
359.3946832

>  <Cat>
S3059

>  <Name>
Enrofloxacin

>  <Synonyms>
BAY-Vp2674, PD160788

>  <Target>
Antibiotics

>  <Form>
free base

>  <CAS>
93106-60-6

>  <URL>
http://selleckchem.com/products/enrofloxacin.html

$$$$
