Entadamide-A-¦Â-D-glucopyranoside
 OpenBabel08302521493D

 42 42  0  0  1  0  0  0  0  0999 V2000
    3.2995    1.2382    0.4095 O   0  0  0  0  0  0  0  0  0  0  0  0
    3.1816    1.8423    1.7011 C   0  0  0  0  0  0  0  0  0  0  0  0
    3.9956    3.1539    1.7664 C   0  0  0  0  0  0  0  0  0  0  0  0
    3.5051    4.2417    0.9224 N   0  0  0  0  0  0  0  0  0  0  0  0
    2.7255    5.2838    1.3802 C   0  0  0  0  0  0  0  0  0  0  0  0
    2.5571    6.3563    0.3634 C   0  0  0  0  0  0  0  0  0  0  0  0
    2.2358    5.3435    2.4990 O   0  0  0  0  0  0  0  0  0  0  0  0
    1.6636    7.3515    0.4806 C   0  0  0  0  0  0  0  0  0  0  0  0
    1.5399    8.5299   -0.7971 S   0  0  0  0  0  0  0  0  0  0  0  0
    0.0992    9.5076   -0.3144 C   0  0  0  0  0  0  0  0  0  0  0  0
    1.5635    0.4201   -1.9683 O   0  0  0  0  0  0  0  0  0  0  0  0
    2.9234   -3.3241    1.8489 C   0  0  0  0  0  0  0  0  0  0  0  0
    2.4025   -2.9342    3.1190 O   0  0  0  0  0  0  0  0  0  0  0  0
    3.2436   -2.0513   -2.8859 O   0  0  0  0  0  0  0  0  0  0  0  0
    2.5368   -4.1040   -0.8826 O   0  0  0  0  0  0  0  0  0  0  0  0
    2.5430    0.0167    0.2430 C   0  0  2  0  0  0  0  0  0  0  0  0
    3.0739   -1.0275    1.0653 O   0  0  0  0  0  0  0  0  0  0  0  0
    2.6051   -0.3095   -1.2810 C   0  0  1  0  0  0  0  0  0  0  0  0
    2.4939   -2.3150    0.7739 C   0  0  1  0  0  0  0  0  0  0  0  0
    2.5052   -1.7967   -1.6709 C   0  0  2  0  0  0  0  0  0  0  0  0
    2.9825   -2.7736   -0.5965 C   0  0  2  0  0  0  0  0  0  0  0  0
    2.1289    2.0306    1.9361 H   0  0  0  0  0  0  0  0  0  0  0  0
    3.6032    1.1494    2.4384 H   0  0  0  0  0  0  0  0  0  0  0  0
    4.0355    3.5077    2.8018 H   0  0  0  0  0  0  0  0  0  0  0  0
    5.0222    2.9624    1.4318 H   0  0  0  0  0  0  0  0  0  0  0  0
    3.8549    4.2639   -0.0270 H   0  0  0  0  0  0  0  0  0  0  0  0
    3.2116    6.3152   -0.4993 H   0  0  0  0  0  0  0  0  0  0  0  0
    1.0071    7.4229    1.3446 H   0  0  0  0  0  0  0  0  0  0  0  0
   -0.7245    8.8747    0.0251 H   0  0  0  0  0  0  0  0  0  0  0  0
    0.3640   10.2200    0.4714 H   0  0  0  0  0  0  0  0  0  0  0  0
   -0.2463   10.0768   -1.1845 H   0  0  0  0  0  0  0  0  0  0  0  0
    0.6935    0.0571   -1.6967 H   0  0  0  0  0  0  0  0  0  0  0  0
    2.5397   -4.3271    1.6329 H   0  0  0  0  0  0  0  0  0  0  0  0
    4.0135   -3.3802    1.9314 H   0  0  0  0  0  0  0  0  0  0  0  0
    2.7463   -2.0384    3.2867 H   0  0  0  0  0  0  0  0  0  0  0  0
    4.1952   -2.0627   -2.6708 H   0  0  0  0  0  0  0  0  0  0  0  0
    1.7850   -4.0730   -1.5016 H   0  0  0  0  0  0  0  0  0  0  0  0
    1.5057    0.2139    0.5440 H   0  0  0  0  0  0  0  0  0  0  0  0
    3.5341    0.1022   -1.6924 H   0  0  0  0  0  0  0  0  0  0  0  0
    1.3984   -2.2333    0.8043 H   0  0  0  0  0  0  0  0  0  0  0  0
    1.4685   -2.0296   -1.9392 H   0  0  0  0  0  0  0  0  0  0  0  0
    4.0792   -2.8103   -0.5993 H   0  0  0  0  0  0  0  0  0  0  0  0
  1  2  1  0  0  0  0
  2  3  1  0  0  0  0
  2 22  1  0  0  0  0
  2 23  1  0  0  0  0
  3  4  1  0  0  0  0
  3 24  1  0  0  0  0
  3 25  1  0  0  0  0
  4  5  1  0  0  0  0
  4 26  1  0  0  0  0
  5  6  1  0  0  0  0
  5  7  2  0  0  0  0
  6  8  2  0  0  0  0
  6 27  1  0  0  0  0
  8  9  1  0  0  0  0
  8 28  1  0  0  0  0
  9 10  1  0  0  0  0
 10 29  1  0  0  0  0
 10 30  1  0  0  0  0
 10 31  1  0  0  0  0
 11 32  1  0  0  0  0
 12 13  1  0  0  0  0
 12 33  1  0  0  0  0
 12 34  1  0  0  0  0
 13 35  1  0  0  0  0
 14 36  1  0  0  0  0
 15 37  1  0  0  0  0
 16 17  1  0  0  0  0
 16 18  1  0  0  0  0
 16 38  1  1  0  0  0
 16  1  1  0  0  0  0
 17 19  1  0  0  0  0
 18 11  1  0  0  0  0
 18 20  1  0  0  0  0
 18 39  1  6  0  0  0
 19 12  1  0  0  0  0
 19 21  1  0  0  0  0
 19 40  1  6  0  0  0
 20 14  1  0  0  0  0
 20 21  1  0  0  0  0
 20 41  1  6  0  0  0
 21 15  1  0  0  0  0
 21 42  1  1  0  0  0
M  END
>  <Mol_ID>
9803

>  <Formula>
C12H21NO7S

>  <MolWeight>
323.36264

>  <Cat>
E2337

>  <Name>
Entadamide-A-¦Â-D-glucopyranoside

>  <Synonyms>
Entadamide A glucoside

>  <Target>
analgesic, anti-inflammatory, antioxidant

>  <Form>
Free Base

>  <CAS>
138916-58-2

>  <URL>
https://www.selleckchem.com/products/entadamide-a-beta-d-glucopyranoside.html

$$$$
