EP4-IN-1
 OpenBabel08302521373D

 57 63  0  0  0  0  0  0  0  0999 V2000
    0.9545    1.4742    0.1744 N   0  0  0  0  0  0  0  0  0  0  0  0
    0.5745    0.8417    1.3567 C   0  0  0  0  0  0  0  0  0  0  0  0
   -0.5271    0.3249    1.3147 O   0  0  0  0  0  0  0  0  0  0  0  0
    1.8778    6.7369    1.5086 C   0  0  0  0  0  0  0  0  0  0  0  0
    2.9766    7.2317    2.1382 O   0  0  0  0  0  0  0  0  0  0  0  0
    0.8102    7.3400    1.5531 O   0  0  0  0  0  0  0  0  0  0  0  0
   -1.1004   -1.1911    3.5164 C   0  0  0  0  0  0  0  0  0  0  0  0
    2.2141    3.5812    0.2557 C   0  0  3  0  0  0  0  0  0  0  0  0
    1.8302    4.0913    1.7305 C   0  0  0  0  0  0  0  0  0  0  0  0
    1.1619    4.6818   -0.1702 C   0  0  0  0  0  0  0  0  0  0  0  0
    3.2698    4.7638    0.0167 C   0  0  0  0  0  0  0  0  0  0  0  0
    2.0742    5.3848    0.8824 C   0  0  3  0  0  0  0  0  0  0  0  0
    2.1653    2.1427   -0.2224 C   0  0  0  0  0  0  0  0  0  0  0  0
    2.7475    1.7951   -1.5936 C   0  0  0  0  0  0  0  0  0  0  0  0
    3.3890    1.2368   -0.3773 C   0  0  0  0  0  0  0  0  0  0  0  0
    1.3978    0.8516    2.6313 C   0  0  0  0  0  0  0  0  0  0  0  0
    0.9477    0.3439    3.8848 C   0  0  0  0  0  0  0  0  0  0  0  0
    2.6657    1.4623    2.6875 C   0  0  0  0  0  0  0  0  0  0  0  0
   -0.1008   -0.4713    4.3038 N   0  0  0  0  0  0  0  0  0  0  0  0
    1.6336    0.6846    5.0822 C   0  0  0  0  0  0  0  0  0  0  0  0
    3.3270    1.8269    3.8496 C   0  0  0  0  0  0  0  0  0  0  0  0
   -0.0849   -0.6148    5.6818 C   0  0  0  0  0  0  0  0  0  0  0  0
    0.9621    0.1101    6.1795 C   0  0  0  0  0  0  0  0  0  0  0  0
    2.7810    1.4909    5.0624 C   0  0  0  0  0  0  0  0  0  0  0  0
   -2.3666   -0.4020    3.4150 C   0  0  0  0  0  0  0  0  0  0  0  0
   -2.7441    0.8461    3.8618 C   0  0  0  0  0  0  0  0  0  0  0  0
   -3.3930   -0.9906    2.7361 O   0  0  0  0  0  0  0  0  0  0  0  0
   -4.0761    1.0479    3.4312 C   0  0  0  0  0  0  0  0  0  0  0  0
   -4.4257   -0.1010    2.7335 C   0  0  0  0  0  0  0  0  0  0  0  0
   -5.0168    2.0836    3.5514 C   0  0  0  0  0  0  0  0  0  0  0  0
   -5.6632   -0.2915    2.1237 C   0  0  0  0  0  0  0  0  0  0  0  0
   -6.2730    1.9198    2.9531 C   0  0  0  0  0  0  0  0  0  0  0  0
   -6.5877    0.7522    2.2494 C   0  0  0  0  0  0  0  0  0  0  0  0
    0.2204    1.4114   -0.5267 H   0  0  0  0  0  0  0  0  0  0  0  0
    3.7421    6.6287    2.1172 H   0  0  0  0  0  0  0  0  0  0  0  0
   -0.6672   -1.4817    2.5599 H   0  0  0  0  0  0  0  0  0  0  0  0
   -1.3080   -2.1298    4.0401 H   0  0  0  0  0  0  0  0  0  0  0  0
    0.8300    3.9074    2.1264 H   0  0  0  0  0  0  0  0  0  0  0  0
    2.5865    4.0174    2.5170 H   0  0  0  0  0  0  0  0  0  0  0  0
    1.2017    5.0469   -1.2011 H   0  0  0  0  0  0  0  0  0  0  0  0
    0.1146    4.5044    0.0995 H   0  0  0  0  0  0  0  0  0  0  0  0
    3.4234    5.1416   -0.9966 H   0  0  0  0  0  0  0  0  0  0  0  0
    4.2232    4.6544    0.5409 H   0  0  0  0  0  0  0  0  0  0  0  0
    2.2151    1.0947   -2.2279 H   0  0  0  0  0  0  0  0  0  0  0  0
    3.3336    2.5234   -2.1378 H   0  0  0  0  0  0  0  0  0  0  0  0
    4.3645    1.6005   -0.0825 H   0  0  0  0  0  0  0  0  0  0  0  0
    3.2493    0.1745   -0.1706 H   0  0  0  0  0  0  0  0  0  0  0  0
    3.1689    1.7987    1.8069 H   0  0  0  0  0  0  0  0  0  0  0  0
    4.2323    2.4245    3.7905 H   0  0  0  0  0  0  0  0  0  0  0  0
   -0.8177   -1.2216    6.1848 H   0  0  0  0  0  0  0  0  0  0  0  0
    1.2377    0.1990    7.2233 H   0  0  0  0  0  0  0  0  0  0  0  0
    3.2626    1.8077    5.9816 H   0  0  0  0  0  0  0  0  0  0  0  0
   -2.1289    1.5360    4.4222 H   0  0  0  0  0  0  0  0  0  0  0  0
   -4.7753    2.9936    4.0914 H   0  0  0  0  0  0  0  0  0  0  0  0
   -5.8893   -1.1984    1.5780 H   0  0  0  0  0  0  0  0  0  0  0  0
   -7.0097    2.7147    3.0360 H   0  0  0  0  0  0  0  0  0  0  0  0
   -7.5675    0.6559    1.7876 H   0  0  0  0  0  0  0  0  0  0  0  0
  1  2  1  0  0  0  0
  1 13  1  0  0  0  0
  1 34  1  0  0  0  0
  2  3  2  0  0  0  0
  2 16  1  0  0  0  0
  4  5  1  0  0  0  0
  4  6  2  0  0  0  0
  4 12  1  0  0  0  0
  5 35  1  0  0  0  0
  7 19  1  0  0  0  0
  7 25  1  0  0  0  0
  7 36  1  0  0  0  0
  7 37  1  0  0  0  0
  8  9  1  0  0  0  0
  8 10  1  0  0  0  0
  8 11  1  0  0  0  0
  8 13  1  0  0  0  0
  9 12  1  0  0  0  0
  9 38  1  0  0  0  0
  9 39  1  0  0  0  0
 10 12  1  0  0  0  0
 10 40  1  0  0  0  0
 10 41  1  0  0  0  0
 11 12  1  0  0  0  0
 11 42  1  0  0  0  0
 11 43  1  0  0  0  0
 13 14  1  0  0  0  0
 13 15  1  0  0  0  0
 14 15  1  0  0  0  0
 14 44  1  0  0  0  0
 14 45  1  0  0  0  0
 15 46  1  0  0  0  0
 15 47  1  0  0  0  0
 16 17  1  0  0  0  0
 16 18  2  0  0  0  0
 17 19  1  0  0  0  0
 17 20  2  0  0  0  0
 18 21  1  0  0  0  0
 18 48  1  0  0  0  0
 19 22  1  0  0  0  0
 20 23  1  0  0  0  0
 20 24  1  0  0  0  0
 21 24  2  0  0  0  0
 21 49  1  0  0  0  0
 22 23  2  0  0  0  0
 22 50  1  0  0  0  0
 23 51  1  0  0  0  0
 24 52  1  0  0  0  0
 25 26  2  0  0  0  0
 25 27  1  0  0  0  0
 26 28  1  0  0  0  0
 26 53  1  0  0  0  0
 27 29  1  0  0  0  0
 28 29  2  0  0  0  0
 28 30  1  0  0  0  0
 29 31  1  0  0  0  0
 30 32  2  0  0  0  0
 30 54  1  0  0  0  0
 31 33  2  0  0  0  0
 31 55  1  0  0  0  0
 32 33  1  0  0  0  0
 32 56  1  0  0  0  0
 33 57  1  0  0  0  0
M  END
>  <Mol_ID>
7549

>  <Formula>
C27H24N2O4

>  <MolWeight>
440.49046

>  <Cat>
E1477

>  <Name>
EP4-IN-1

>  <Target>
Prostaglandin Receptor

>  <Form>
free base

>  <CAS>
2455480-28-9

>  <URL>
https://www.selleckchem.com/products/kf-0210.html

$$$$
