EPI-001.cdx
 OpenBabel08302519593D

 54 55  0  0  0  0  0  0  0  0999 V2000
    1.4520   -0.3045    0.7720 C   0  0  0  0  0  0  0  0  0  0  0  0
    0.7378   -1.2610    0.0218 C   0  0  0  0  0  0  0  0  0  0  0  0
   -0.4629   -0.8228   -0.5667 C   0  0  0  0  0  0  0  0  0  0  0  0
   -0.9133    0.5005   -0.4451 C   0  0  0  0  0  0  0  0  0  0  0  0
   -0.1893    1.4303    0.2947 C   0  0  0  0  0  0  0  0  0  0  0  0
    1.0010    1.0215    0.8922 C   0  0  0  0  0  0  0  0  0  0  0  0
    1.2219   -2.7361   -0.1192 C   0  0  0  0  0  0  0  0  0  0  0  0
    0.7014   -3.6783    0.9998 C   0  0  0  0  0  0  0  0  0  0  0  0
   -0.1082   -3.2307    2.0591 C   0  0  0  0  0  0  0  0  0  0  0  0
   -0.5743   -4.1097    3.0555 C   0  0  0  0  0  0  0  0  0  0  0  0
   -0.2558   -5.4602    3.0172 C   0  0  0  0  0  0  0  0  0  0  0  0
    0.5544   -5.9263    1.9906 C   0  0  0  0  0  0  0  0  0  0  0  0
    1.0225   -5.0512    0.9950 C   0  0  0  0  0  0  0  0  0  0  0  0
   -0.5455    2.7379    0.5050 O   0  0  0  0  0  0  0  0  0  0  0  0
   -1.8972    3.0851    0.1624 C   0  0  0  0  0  0  0  0  0  0  0  0
   -2.2461    4.5079    0.6348 C   0  0  3  0  0  0  0  0  0  0  0  0
   -1.9902    4.7348    2.1295 C   0  0  0  0  0  0  0  0  0  0  0  0
   -1.5015    5.4720   -0.1197 O   0  0  0  0  0  0  0  0  0  0  0  0
   -0.5938    4.6857    2.4221 O   0  0  0  0  0  0  0  0  0  0  0  0
   -0.6632   -6.4140    3.9163 O   0  0  0  0  0  0  0  0  0  0  0  0
   -1.7406   -6.0452    4.7873 C   0  0  0  0  0  0  0  0  0  0  0  0
   -2.2744   -7.2857    5.5228 C   0  0  3  0  0  0  0  0  0  0  0  0
    0.7731   -3.3067   -1.4980 C   0  0  0  0  0  0  0  0  0  0  0  0
    2.7766   -2.7882   -0.1448 C   0  0  0  0  0  0  0  0  0  0  0  0
   -2.7448   -8.3827    4.5779 C   0  0  0  0  0  0  0  0  0  0  0  0
   -1.2714   -7.8273    6.3843 O   0  0  0  0  0  0  0  0  0  0  0  0
    2.3697   -0.5673    1.2923 H   0  0  0  0  0  0  0  0  0  0  0  0
   -1.0901   -1.5051   -1.1353 H   0  0  0  0  0  0  0  0  0  0  0  0
   -1.8362    0.7646   -0.9509 H   0  0  0  0  0  0  0  0  0  0  0  0
    1.5890    1.7324    1.4700 H   0  0  0  0  0  0  0  0  0  0  0  0
   -0.3982   -2.1854    2.1386 H   0  0  0  0  0  0  0  0  0  0  0  0
   -1.1857   -3.6898    3.8475 H   0  0  0  0  0  0  0  0  0  0  0  0
    0.8295   -6.9783    1.9458 H   0  0  0  0  0  0  0  0  0  0  0  0
    1.6474   -5.4743    0.2094 H   0  0  0  0  0  0  0  0  0  0  0  0
   -2.0156    3.0371   -0.9266 H   0  0  0  0  0  0  0  0  0  0  0  0
   -2.5860    2.3851    0.6512 H   0  0  0  0  0  0  0  0  0  0  0  0
   -3.3056    4.6876    0.4213 H   0  0  0  0  0  0  0  0  0  0  0  0
   -2.3320    5.7350    2.4151 H   0  0  0  0  0  0  0  0  0  0  0  0
   -2.5148    3.9986    2.7460 H   0  0  0  0  0  0  0  0  0  0  0  0
   -0.6928    5.6583    0.3982 H   0  0  0  0  0  0  0  0  0  0  0  0
   -0.2535    3.8456    2.0533 H   0  0  0  0  0  0  0  0  0  0  0  0
   -1.3662   -5.3270    5.5263 H   0  0  0  0  0  0  0  0  0  0  0  0
   -2.5602   -5.6030    4.2085 H   0  0  0  0  0  0  0  0  0  0  0  0
   -3.1106   -6.9808    6.1615 H   0  0  0  0  0  0  0  0  0  0  0  0
    1.0936   -2.6528   -2.3188 H   0  0  0  0  0  0  0  0  0  0  0  0
    1.2011   -4.2959   -1.6975 H   0  0  0  0  0  0  0  0  0  0  0  0
   -0.3137   -3.4289   -1.5644 H   0  0  0  0  0  0  0  0  0  0  0  0
    3.1785   -2.1418   -0.9354 H   0  0  0  0  0  0  0  0  0  0  0  0
    3.2228   -2.4786    0.8061 H   0  0  0  0  0  0  0  0  0  0  0  0
    3.1523   -3.7992   -0.3427 H   0  0  0  0  0  0  0  0  0  0  0  0
   -1.9247   -8.7570    3.9562 H   0  0  0  0  0  0  0  0  0  0  0  0
   -3.1169   -9.2406    5.1497 H   0  0  0  0  0  0  0  0  0  0  0  0
   -3.5478   -8.0261    3.9255 H   0  0  0  0  0  0  0  0  0  0  0  0
   -0.5200   -8.0787    5.8159 H   0  0  0  0  0  0  0  0  0  0  0  0
  1  2  2  0  0  0  0
  1 27  1  0  0  0  0
  2  3  1  0  0  0  0
  2  7  1  0  0  0  0
  3  4  2  0  0  0  0
  3 28  1  0  0  0  0
  4  5  1  0  0  0  0
  4 29  1  0  0  0  0
  5  6  2  0  0  0  0
  5 14  1  0  0  0  0
  6  1  1  0  0  0  0
  6 30  1  0  0  0  0
  7  8  1  0  0  0  0
  7 23  1  0  0  0  0
  7 24  1  0  0  0  0
  8  9  2  0  0  0  0
  9 10  1  0  0  0  0
  9 31  1  0  0  0  0
 10 11  2  0  0  0  0
 10 32  1  0  0  0  0
 11 12  1  0  0  0  0
 11 20  1  0  0  0  0
 12 13  2  0  0  0  0
 12 33  1  0  0  0  0
 13  8  1  0  0  0  0
 13 34  1  0  0  0  0
 14 15  1  0  0  0  0
 15 16  1  0  0  0  0
 15 35  1  0  0  0  0
 15 36  1  0  0  0  0
 16 17  1  0  0  0  0
 16 18  1  0  0  0  0
 16 37  1  0  0  0  0
 17 19  1  0  0  0  0
 17 38  1  0  0  0  0
 17 39  1  0  0  0  0
 18 40  1  0  0  0  0
 19 41  1  0  0  0  0
 20 21  1  0  0  0  0
 21 22  1  0  0  0  0
 21 42  1  0  0  0  0
 21 43  1  0  0  0  0
 22 25  1  0  0  0  0
 22 26  1  0  0  0  0
 22 44  1  0  0  0  0
 23 45  1  0  0  0  0
 23 46  1  0  0  0  0
 23 47  1  0  0  0  0
 24 48  1  0  0  0  0
 24 49  1  0  0  0  0
 24 50  1  0  0  0  0
 25 51  1  0  0  0  0
 25 52  1  0  0  0  0
 25 53  1  0  0  0  0
 26 54  1  0  0  0  0
M  END
>  <Mol_ID>
2632

>  <Formula>
C21H27ClO5

>  <MolWeight>
394.88908

>  <Cat>
S7955

>  <Name>
EPI-001

>  <Synonyms>
N/A

>  <Target>
Androgen Receptor,PPAR

>  <Form>
free base

>  <CAS>
227947-06-0

>  <URL>
http://selleckchem.com/products/epi-001.html

$$$$
