Epiberberine chloride
 OpenBabel08302521473D

 43 47  0  0  0  0  0  0  0  0999 V2000
    0.8325    0.2187    0.0488 O   0  0  0  0  0  0  0  0  0  0  0  0
   -0.2968   -0.5969    0.2406 C   0  0  0  0  0  0  0  0  0  0  0  0
    2.4860   -2.6121    0.6916 O   0  0  0  0  0  0  0  0  0  0  0  0
    1.1951   -3.1514    0.6068 C   0  0  0  0  0  0  0  0  0  0  0  0
    5.0194    2.2764   -0.5046 C   0  0  0  0  0  0  0  0  0  0  0  0
    4.2726    1.0540   -0.2064 C   0  0  0  0  0  0  0  0  0  0  0  0
    6.2557    2.0856   -1.0447 N   0  3  0  0  0  0  0  0  0  0  0  0
    4.5825    3.5805   -0.2041 C   0  0  0  0  0  0  0  0  0  0  0  0
    4.9495   -0.1339    0.0559 C   0  0  0  0  0  0  0  0  0  0  0  0
    2.8822    1.0083   -0.1651 C   0  0  0  0  0  0  0  0  0  0  0  0
    6.9973    3.1312   -1.4429 C   0  0  0  0  0  0  0  0  0  0  0  0
    6.9022    0.7493   -1.1155 C   0  0  0  0  0  0  0  0  0  0  0  0
    5.4547    4.6610   -0.3721 C   0  0  0  0  0  0  0  0  0  0  0  0
    4.2364   -1.2932    0.3557 C   0  0  0  0  0  0  0  0  0  0  0  0
    6.4501   -0.1241    0.0414 C   0  0  0  0  0  0  0  0  0  0  0  0
    2.1283   -0.1574    0.1104 C   0  0  0  0  0  0  0  0  0  0  0  0
    6.6707    4.4024   -1.0233 C   0  0  0  0  0  0  0  0  0  0  0  0
    5.2441    5.9415    0.1980 C   0  0  0  0  0  0  0  0  0  0  0  0
    2.8234   -1.3379    0.3758 C   0  0  0  0  0  0  0  0  0  0  0  0
    7.6527    5.3563   -1.0145 C   0  0  0  0  0  0  0  0  0  0  0  0
    6.2969    6.8679    0.2693 C   0  0  0  0  0  0  0  0  0  0  0  0
    7.5017    6.5179   -0.3026 C   0  0  0  0  0  0  0  0  0  0  0  0
    8.9418    5.1447   -1.4102 O   0  0  0  0  0  0  0  0  0  0  0  0
    8.7068    7.1244   -0.1019 O   0  0  0  0  0  0  0  0  0  0  0  0
    9.5933    6.0601   -0.5121 C   0  0  0  0  0  0  0  0  0  0  0  0
   -0.3872   -1.3379   -0.5536 H   0  0  0  0  0  0  0  0  0  0  0  0
   -0.3198   -1.0119    1.2471 H   0  0  0  0  0  0  0  0  0  0  0  0
   -1.1829    0.0431    0.1552 H   0  0  0  0  0  0  0  0  0  0  0  0
    0.5843   -2.7989    1.4374 H   0  0  0  0  0  0  0  0  0  0  0  0
    0.7497   -2.9946   -0.3760 H   0  0  0  0  0  0  0  0  0  0  0  0
    1.2835   -4.2349    0.7354 H   0  0  0  0  0  0  0  0  0  0  0  0
    3.6302    3.7373    0.3039 H   0  0  0  0  0  0  0  0  0  0  0  0
    2.3124    1.9239   -0.3601 H   0  0  0  0  0  0  0  0  0  0  0  0
    7.9353    2.9115   -1.9458 H   0  0  0  0  0  0  0  0  0  0  0  0
    7.9867    0.8965   -1.0392 H   0  0  0  0  0  0  0  0  0  0  0  0
    6.6603    0.3327   -2.0970 H   0  0  0  0  0  0  0  0  0  0  0  0
    4.7896   -2.2097    0.5672 H   0  0  0  0  0  0  0  0  0  0  0  0
    6.8172    0.2747    0.9967 H   0  0  0  0  0  0  0  0  0  0  0  0
    6.8631   -1.1301   -0.0813 H   0  0  0  0  0  0  0  0  0  0  0  0
    4.3084    6.1775    0.7050 H   0  0  0  0  0  0  0  0  0  0  0  0
    6.1970    7.7851    0.8422 H   0  0  0  0  0  0  0  0  0  0  0  0
    9.8968    5.4741    0.3699 H   0  0  0  0  0  0  0  0  0  0  0  0
   10.4879    6.4660   -0.9888 H   0  0  0  0  0  0  0  0  0  0  0  0
  1  2  1  0  0  0  0
  1 16  1  0  0  0  0
  2 26  1  0  0  0  0
  2 27  1  0  0  0  0
  2 28  1  0  0  0  0
  3  4  1  0  0  0  0
  3 19  1  0  0  0  0
  4 29  1  0  0  0  0
  4 30  1  0  0  0  0
  4 31  1  0  0  0  0
  5  6  1  0  0  0  0
  5  7  1  0  0  0  0
  5  8  2  0  0  0  0
  6  9  2  0  0  0  0
  6 10  1  0  0  0  0
  7 11  2  0  0  0  0
  7 12  1  0  0  0  0
  8 13  1  0  0  0  0
  8 32  1  0  0  0  0
  9 14  1  0  0  0  0
  9 15  1  0  0  0  0
 10 16  2  0  0  0  0
 10 33  1  0  0  0  0
 11 17  1  0  0  0  0
 11 34  1  0  0  0  0
 12 15  1  0  0  0  0
 12 35  1  0  0  0  0
 12 36  1  0  0  0  0
 13 17  2  0  0  0  0
 13 18  1  0  0  0  0
 14 19  2  0  0  0  0
 14 37  1  0  0  0  0
 15 38  1  0  0  0  0
 15 39  1  0  0  0  0
 16 19  1  0  0  0  0
 17 20  1  0  0  0  0
 18 21  2  0  0  0  0
 18 40  1  0  0  0  0
 20 22  2  0  0  0  0
 20 23  1  0  0  0  0
 21 22  1  0  0  0  0
 21 41  1  0  0  0  0
 22 24  1  0  0  0  0
 23 25  1  0  0  0  0
 24 25  1  0  0  0  0
 25 42  1  0  0  0  0
 25 43  1  0  0  0  0
M  CHG  1   7   1
M  END
>  <Mol_ID>
9770

>  <Formula>
C20H18ClNO4

>  <MolWeight>
371.81422

>  <Cat>
E2276

>  <Name>
Epiberberine chloride

>  <Synonyms>
ND559X5J59

>  <Target>
AChE, BChE, BACE1, ONOO?

>  <Form>
chloride salt

>  <CAS>
889665-86-5

>  <URL>
https://www.selleckchem.com/products/epiberberine-chloride.html

$$$$
