Epibrassinolide
 OpenBabel08302521273D

 82 85  0  0  0  0  0  0  0  0999 V2000
    3.2930    4.7396    1.1206 O   0  0  0  0  0  0  0  0  0  0  0  0
    4.1028    0.3392   -2.0443 O   0  0  0  0  0  0  0  0  0  0  0  0
   -1.2473   -1.5221    2.4056 O   0  0  0  0  0  0  0  0  0  0  0  0
    4.9910    2.4233   -3.1390 O   0  0  0  0  0  0  0  0  0  0  0  0
    5.4835    5.1653    0.8975 O   0  0  0  0  0  0  0  0  0  0  0  0
   -3.4723   -0.8169    3.8225 O   0  0  0  0  0  0  0  0  0  0  0  0
    0.0719    0.8856    1.0047 C   0  0  1  0  0  0  0  0  0  0  0  0
    0.4836    2.2675    0.4538 C   0  0  2  0  0  0  0  0  0  0  0  0
    1.8562    2.7212    0.9835 C   0  0  1  0  0  0  0  0  0  0  0  0
    2.8665    1.6119    0.4746 C   0  0  1  0  0  0  0  0  0  0  0  0
   -1.2696    0.7609    0.2595 C   0  0  2  0  0  0  0  0  0  0  0  0
    4.3816    1.9247    0.6122 C   0  0  2  0  0  0  0  0  0  0  0  0
    1.0905   -0.1603    0.5642 C   0  0  0  0  0  0  0  0  0  0  0  0
   -0.7884    3.1255    0.5637 C   0  0  0  0  0  0  0  0  0  0  0  0
    2.4743    0.2315    1.0509 C   0  0  0  0  0  0  0  0  0  0  0  0
   -1.9482    2.1004    0.6141 C   0  0  0  0  0  0  0  0  0  0  0  0
   -1.9861   -0.6100    0.2717 C   0  0  1  0  0  0  0  0  0  0  0  0
    4.6192    3.2163   -0.2339 C   0  0  2  0  0  0  0  0  0  0  0  0
   -0.0324    0.9204    2.5527 C   0  0  0  0  0  0  0  0  0  0  0  0
    2.1055    4.1704    0.5559 C   0  0  0  0  0  0  0  0  0  0  0  0
    5.2873    0.7624    0.0563 C   0  0  0  0  0  0  0  0  0  0  0  0
    4.7600    2.0676    2.1076 C   0  0  0  0  0  0  0  0  0  0  0  0
    5.9228    3.1649   -1.0356 C   0  0  0  0  0  0  0  0  0  0  0  0
    5.3685    0.6927   -1.4681 C   0  0  2  0  0  0  0  0  0  0  0  0
   -2.4137   -1.2212    1.6315 C   0  0  2  0  0  0  0  0  0  0  0  0
    5.8562    2.0302   -2.0656 C   0  0  1  0  0  0  0  0  0  0  0  0
    4.5189    4.4661    0.6118 C   0  0  0  0  0  0  0  0  0  0  0  0
   -3.0501   -0.6284   -0.8433 C   0  0  0  0  0  0  0  0  0  0  0  0
   -3.4187   -0.3793    2.4601 C   0  0  1  0  0  0  0  0  0  0  0  0
   -4.8319   -0.3767    1.8436 C   0  0  1  0  0  0  0  0  0  0  0  0
   -5.4031   -1.8092    1.6425 C   0  0  0  0  0  0  0  0  0  0  0  0
   -5.7426    0.6034    2.5741 C   0  0  0  0  0  0  0  0  0  0  0  0
   -6.7283   -1.8025    0.8875 C   0  0  0  0  0  0  0  0  0  0  0  0
   -5.4846   -2.6646    2.9092 C   0  0  0  0  0  0  0  0  0  0  0  0
    3.8833   -0.5603   -1.7364 H   0  0  0  0  0  0  0  0  0  0  0  0
   -0.7395   -2.1996    1.9344 H   0  0  0  0  0  0  0  0  0  0  0  0
    4.2853    1.7424   -3.1649 H   0  0  0  0  0  0  0  0  0  0  0  0
   -3.7398   -0.0552    4.3638 H   0  0  0  0  0  0  0  0  0  0  0  0
    0.6293    2.1697   -0.6357 H   0  0  0  0  0  0  0  0  0  0  0  0
    1.8916    2.7186    2.0769 H   0  0  0  0  0  0  0  0  0  0  0  0
    2.6814    1.5369   -0.6042 H   0  0  0  0  0  0  0  0  0  0  0  0
   -1.0337    0.8718   -0.8141 H   0  0  0  0  0  0  0  0  0  0  0  0
    1.1049   -0.2391   -0.5316 H   0  0  0  0  0  0  0  0  0  0  0  0
    0.8449   -1.1595    0.9335 H   0  0  0  0  0  0  0  0  0  0  0  0
   -0.7954    3.7769    1.4412 H   0  0  0  0  0  0  0  0  0  0  0  0
   -0.8925    3.7544   -0.3295 H   0  0  0  0  0  0  0  0  0  0  0  0
    3.1333   -0.5753    0.7290 H   0  0  0  0  0  0  0  0  0  0  0  0
    2.5183    0.2454    2.1459 H   0  0  0  0  0  0  0  0  0  0  0  0
   -2.7635    2.3628   -0.0641 H   0  0  0  0  0  0  0  0  0  0  0  0
   -2.3487    2.1418    1.6262 H   0  0  0  0  0  0  0  0  0  0  0  0
   -1.2302   -1.3181   -0.0995 H   0  0  0  0  0  0  0  0  0  0  0  0
    3.8534    3.3157   -1.0128 H   0  0  0  0  0  0  0  0  0  0  0  0
    0.4150    1.8012    3.0135 H   0  0  0  0  0  0  0  0  0  0  0  0
   -1.0567    0.9143    2.9246 H   0  0  0  0  0  0  0  0  0  0  0  0
    0.4638    0.0595    3.0225 H   0  0  0  0  0  0  0  0  0  0  0  0
    1.2946    4.7970    0.9462 H   0  0  0  0  0  0  0  0  0  0  0  0
    2.0901    4.3069   -0.5289 H   0  0  0  0  0  0  0  0  0  0  0  0
    6.3094    0.8957    0.4353 H   0  0  0  0  0  0  0  0  0  0  0  0
    4.9912   -0.2123    0.4518 H   0  0  0  0  0  0  0  0  0  0  0  0
    5.7960    2.4046    2.2179 H   0  0  0  0  0  0  0  0  0  0  0  0
    4.1231    2.7746    2.6466 H   0  0  0  0  0  0  0  0  0  0  0  0
    4.6741    1.1076    2.6307 H   0  0  0  0  0  0  0  0  0  0  0  0
    6.0750    4.1196   -1.5525 H   0  0  0  0  0  0  0  0  0  0  0  0
    6.7754    3.0235   -0.3617 H   0  0  0  0  0  0  0  0  0  0  0  0
    6.0654   -0.1018   -1.7571 H   0  0  0  0  0  0  0  0  0  0  0  0
   -2.8261   -2.2140    1.4471 H   0  0  0  0  0  0  0  0  0  0  0  0
    6.8540    1.8925   -2.4918 H   0  0  0  0  0  0  0  0  0  0  0  0
   -3.6341   -1.5486   -0.8204 H   0  0  0  0  0  0  0  0  0  0  0  0
   -3.7129    0.2369   -0.8139 H   0  0  0  0  0  0  0  0  0  0  0  0
   -2.5555   -0.5875   -1.8207 H   0  0  0  0  0  0  0  0  0  0  0  0
   -3.0682    0.6427    2.5300 H   0  0  0  0  0  0  0  0  0  0  0  0
   -4.7511    0.0644    0.8510 H   0  0  0  0  0  0  0  0  0  0  0  0
   -4.7302   -2.3533    0.9727 H   0  0  0  0  0  0  0  0  0  0  0  0
   -6.0084    0.2677    3.5826 H   0  0  0  0  0  0  0  0  0  0  0  0
   -5.2559    1.5835    2.6614 H   0  0  0  0  0  0  0  0  0  0  0  0
   -6.6675    0.7759    2.0103 H   0  0  0  0  0  0  0  0  0  0  0  0
   -7.5074   -1.2620    1.4277 H   0  0  0  0  0  0  0  0  0  0  0  0
   -7.0758   -2.8274    0.7211 H   0  0  0  0  0  0  0  0  0  0  0  0
   -6.5932   -1.3390   -0.0964 H   0  0  0  0  0  0  0  0  0  0  0  0
   -6.1574   -2.2205    3.6535 H   0  0  0  0  0  0  0  0  0  0  0  0
   -4.5078   -2.8138    3.3656 H   0  0  0  0  0  0  0  0  0  0  0  0
   -5.8508   -3.6685    2.6698 H   0  0  0  0  0  0  0  0  0  0  0  0
  1 20  1  0  0  0  0
  1 27  1  0  0  0  0
  2 35  1  0  0  0  0
  3 36  1  0  0  0  0
  4 37  1  0  0  0  0
  5 27  2  0  0  0  0
  6 38  1  0  0  0  0
  7  8  1  0  0  0  0
  7 11  1  0  0  0  0
  7 13  1  0  0  0  0
  7 19  1  1  0  0  0
  8  9  1  0  0  0  0
  8 14  1  0  0  0  0
  8 39  1  6  0  0  0
  9 10  1  0  0  0  0
  9 20  1  0  0  0  0
  9 40  1  1  0  0  0
 10 12  1  0  0  0  0
 10 15  1  0  0  0  0
 10 41  1  6  0  0  0
 11 16  1  0  0  0  0
 11 17  1  0  0  0  0
 11 42  1  6  0  0  0
 12 18  1  0  0  0  0
 12 21  1  0  0  0  0
 12 22  1  1  0  0  0
 13 15  1  0  0  0  0
 13 43  1  0  0  0  0
 13 44  1  0  0  0  0
 14 16  1  0  0  0  0
 14 45  1  0  0  0  0
 14 46  1  0  0  0  0
 15 47  1  0  0  0  0
 15 48  1  0  0  0  0
 16 49  1  0  0  0  0
 16 50  1  0  0  0  0
 17 25  1  0  0  0  0
 17 28  1  0  0  0  0
 17 51  1  6  0  0  0
 18 23  1  0  0  0  0
 18 27  1  0  0  0  0
 18 52  1  6  0  0  0
 19 53  1  0  0  0  0
 19 54  1  0  0  0  0
 19 55  1  0  0  0  0
 20 56  1  0  0  0  0
 20 57  1  0  0  0  0
 21 24  1  0  0  0  0
 21 58  1  0  0  0  0
 21 59  1  0  0  0  0
 22 60  1  0  0  0  0
 22 61  1  0  0  0  0
 22 62  1  0  0  0  0
 23 26  1  0  0  0  0
 23 63  1  0  0  0  0
 23 64  1  0  0  0  0
 24  2  1  0  0  0  0
 24 26  1  0  0  0  0
 24 65  1  6  0  0  0
 25  3  1  0  0  0  0
 25 29  1  0  0  0  0
 25 66  1  6  0  0  0
 26  4  1  0  0  0  0
 26 67  1  6  0  0  0
 28 68  1  0  0  0  0
 28 69  1  0  0  0  0
 28 70  1  0  0  0  0
 29  6  1  0  0  0  0
 29 30  1  0  0  0  0
 29 71  1  1  0  0  0
 30 31  1  0  0  0  0
 30 32  1  0  0  0  0
 30 72  1  6  0  0  0
 31 33  1  0  0  0  0
 31 34  1  0  0  0  0
 31 73  1  0  0  0  0
 32 74  1  0  0  0  0
 32 75  1  0  0  0  0
 32 76  1  0  0  0  0
 33 77  1  0  0  0  0
 33 78  1  0  0  0  0
 33 79  1  0  0  0  0
 34 80  1  0  0  0  0
 34 81  1  0  0  0  0
 34 82  1  0  0  0  0
M  END
>  <Mol_ID>
5282

>  <Formula>
C28H48O6

>  <MolWeight>
480.67712

>  <Cat>
S8870

>  <Name>
Epibrassinolide

>  <Synonyms>
N/A

>  <Target>
Others

>  <Form>
Free Base

>  <CAS>
78821-43-9

>  <URL>
https://www.selleckchem.com/products/epibrassinolide.html

$$$$
