EPIVIR (lamivudine).cdx
 OpenBabel08302520433D

 26 27  0  0  0  0  0  0  0  0999 V2000
   -3.6120    3.0459    0.7336 N   0  0  0  0  0  0  0  0  0  0  0  0
   -4.0141    4.0381   -0.0048 C   0  0  0  0  0  0  0  0  0  0  0  0
   -3.0962    4.8301   -0.8438 C   0  0  0  0  0  0  0  0  0  0  0  0
   -1.8152    4.4729   -0.8076 C   0  0  0  0  0  0  0  0  0  0  0  0
   -1.3905    3.3934   -0.0630 N   0  0  0  0  0  0  0  0  0  0  0  0
   -2.2878    2.6644    0.7257 C   0  0  0  0  0  0  0  0  0  0  0  0
   -5.3387    4.3559    0.0191 N   0  0  0  0  0  0  0  0  0  0  0  0
   -1.9049    1.7034    1.3919 O   0  0  0  0  0  0  0  0  0  0  0  0
   -0.0110    2.9104   -0.1668 C   0  0  1  0  0  0  0  0  0  0  0  0
    0.4942    3.2273   -1.4813 O   0  0  0  0  0  0  0  0  0  0  0  0
    1.9064    2.9970   -1.5165 C   0  0  2  0  0  0  0  0  0  0  0  0
    2.5674    3.0655    0.1765 S   0  0  0  0  0  0  0  0  0  0  0  0
    0.9553    3.5238    0.8506 C   0  0  0  0  0  0  0  0  0  0  0  0
    2.5617    4.0747   -2.3952 C   0  0  0  0  0  0  0  0  0  0  0  0
    3.9733    3.9149   -2.5055 O   0  0  0  0  0  0  0  0  0  0  0  0
   -3.4731    5.6329   -1.4629 H   0  0  0  0  0  0  0  0  0  0  0  0
   -1.0761    4.9995   -1.4002 H   0  0  0  0  0  0  0  0  0  0  0  0
   -5.6169    5.3077   -0.1906 H   0  0  0  0  0  0  0  0  0  0  0  0
   -5.8416    3.9291    0.7920 H   0  0  0  0  0  0  0  0  0  0  0  0
   -0.0150    1.8164   -0.0688 H   0  0  0  0  0  0  0  0  0  0  0  0
    2.0906    2.0018   -1.9346 H   0  0  0  0  0  0  0  0  0  0  0  0
    0.9081    4.6175    0.8560 H   0  0  0  0  0  0  0  0  0  0  0  0
    0.8190    3.1530    1.8695 H   0  0  0  0  0  0  0  0  0  0  0  0
    2.1395    4.0368   -3.4055 H   0  0  0  0  0  0  0  0  0  0  0  0
    2.3507    5.0822   -2.0162 H   0  0  0  0  0  0  0  0  0  0  0  0
    4.3352    4.0212   -1.6054 H   0  0  0  0  0  0  0  0  0  0  0  0
  1  2  2  0  0  0  0
  2  3  1  0  0  0  0
  2  7  1  0  0  0  0
  3  4  2  0  0  0  0
  3 16  1  0  0  0  0
  4  5  1  0  0  0  0
  4 17  1  0  0  0  0
  5  6  1  0  0  0  0
  6  1  1  0  0  0  0
  6  8  2  0  0  0  0
  7 18  1  0  0  0  0
  7 19  1  0  0  0  0
  9 10  1  0  0  0  0
  9 13  1  0  0  0  0
  9 20  1  1  0  0  0
  9  5  1  0  0  0  0
 10 11  1  0  0  0  0
 11 12  1  0  0  0  0
 11 21  1  6  0  0  0
 11 14  1  0  0  0  0
 12 13  1  0  0  0  0
 13 22  1  0  0  0  0
 13 23  1  0  0  0  0
 14 15  1  0  0  0  0
 14 24  1  0  0  0  0
 14 25  1  0  0  0  0
 15 26  1  0  0  0  0
M  END
>  <Mol_ID>
403

>  <Formula>
C8H11N3O3S

>  <MolWeight>
229.25624

>  <Cat>
S1706

>  <Name>
Lamivudine (BCH-189)

>  <Synonyms>
GR109714X, BCH-189

>  <Target>
COVID-19,Reverse Transcriptase

>  <Form>
free base

>  <CAS>
134678-17-4

>  <URL>
http://selleckchem.com/products/Lamivudine(Epivir).html

$$$$
