EPLERENONE (eplerenone).cdx
 OpenBabel08302521403D

 60 65  0  0  0  0  0  0  0  0999 V2000
   -0.9011   -3.8794    1.1595 C   0  0  0  0  0  0  0  0  0  0  0  0
   -2.1872   -3.5121    0.4673 C   0  0  0  0  0  0  0  0  0  0  0  0
   -2.3431   -2.1252    0.0335 C   0  0  0  0  0  0  0  0  0  0  0  0
   -1.3676   -1.2290    0.1998 C   0  0  0  0  0  0  0  0  0  0  0  0
    0.1237   -1.5752    0.5919 C   0  0  2  0  0  0  0  0  0  0  0  0
   -0.1218   -2.6128    1.7326 C   0  0  0  0  0  0  0  0  0  0  0  0
   -1.9342    0.1835    0.3189 C   0  0  0  0  0  0  0  0  0  0  0  0
   -1.1914    1.2310    1.1231 C   0  0  2  0  0  0  0  0  0  0  0  0
    0.2734    1.2604    0.7555 C   0  0  3  0  0  0  0  0  0  0  0  0
    0.9980   -0.1547    0.7430 C   0  0  3  0  0  0  0  0  0  0  0  0
    0.6532    2.3594   -0.3694 C   0  0  3  0  0  0  0  0  0  0  0  0
    1.9385    2.0067   -1.1363 C   0  0  3  0  0  0  0  0  0  0  0  0
    3.0137    1.4609   -0.0794 C   0  0  0  0  0  0  0  0  0  0  0  0
    2.5629    0.2309    0.6459 C   0  0  3  0  0  0  0  0  0  0  0  0
   -0.3410    2.7671   -1.5148 C   0  0  0  0  0  0  0  0  0  0  0  0
    0.2904    2.3552   -2.8706 C   0  0  0  0  0  0  0  0  0  0  0  0
    1.2462    1.2276   -2.4302 C   0  0  3  0  0  0  0  0  0  0  0  0
   -3.1055   -4.3032    0.2708 O   0  0  0  0  0  0  0  0  0  0  0  0
    1.0789   -2.5419   -0.3321 C   0  0  0  0  0  0  0  0  0  0  0  0
    2.6833    3.2843   -1.6654 C   0  0  0  0  0  0  0  0  0  0  0  0
    1.9174   -0.3881   -0.3542 O   0  0  0  0  0  0  0  0  0  0  0  0
   -1.3862    1.2324    2.6370 C   0  0  0  0  0  0  0  0  0  0  0  0
   -1.8075    0.0266    3.1095 O   0  0  0  0  0  0  0  0  0  0  0  0
   -1.2078    2.2138    3.3260 O   0  0  0  0  0  0  0  0  0  0  0  0
   -2.0516    0.0047    4.5182 C   0  0  0  0  0  0  0  0  0  0  0  0
    0.2281    0.0638   -2.3892 C   0  0  0  0  0  0  0  0  0  0  0  0
    0.6198   -0.9343   -3.4320 C   0  0  0  0  0  0  0  0  0  0  0  0
    1.9232   -0.4039   -3.9127 C   0  0  0  0  0  0  0  0  0  0  0  0
    2.1918    0.8443   -3.4210 O   0  0  0  0  0  0  0  0  0  0  0  0
    2.6455   -1.0082   -4.6942 O   0  0  0  0  0  0  0  0  0  0  0  0
   -0.3538   -4.4470    0.4026 H   0  0  0  0  0  0  0  0  0  0  0  0
   -1.1154   -4.5993    1.9473 H   0  0  0  0  0  0  0  0  0  0  0  0
   -3.3641   -1.8440   -0.2084 H   0  0  0  0  0  0  0  0  0  0  0  0
    0.8188   -2.9663    2.1681 H   0  0  0  0  0  0  0  0  0  0  0  0
   -0.7134   -2.1892    2.5488 H   0  0  0  0  0  0  0  0  0  0  0  0
   -2.0966    0.5529   -0.6965 H   0  0  0  0  0  0  0  0  0  0  0  0
   -2.9438    0.1354    0.7564 H   0  0  0  0  0  0  0  0  0  0  0  0
   -1.6481    2.1981    0.8512 H   0  0  0  0  0  0  0  0  0  0  0  0
    0.7577    1.7092    1.6386 H   0  0  0  0  0  0  0  0  0  0  0  0
    0.8221    3.2880    0.1984 H   0  0  0  0  0  0  0  0  0  0  0  0
    3.2006    2.2353    0.6793 H   0  0  0  0  0  0  0  0  0  0  0  0
    3.9680    1.2663   -0.5826 H   0  0  0  0  0  0  0  0  0  0  0  0
    3.3049   -0.2795    1.2378 H   0  0  0  0  0  0  0  0  0  0  0  0
   -0.4984    3.8518   -1.5211 H   0  0  0  0  0  0  0  0  0  0  0  0
   -1.3271    2.3196   -1.4018 H   0  0  0  0  0  0  0  0  0  0  0  0
    0.8068    3.1624   -3.3938 H   0  0  0  0  0  0  0  0  0  0  0  0
   -0.4708    2.0464   -3.6002 H   0  0  0  0  0  0  0  0  0  0  0  0
    0.6734   -3.4705   -0.7021 H   0  0  0  0  0  0  0  0  0  0  0  0
    1.4842   -2.1144   -1.2466 H   0  0  0  0  0  0  0  0  0  0  0  0
    1.9810   -2.7799    0.2654 H   0  0  0  0  0  0  0  0  0  0  0  0
    3.4803    2.9948   -2.3599 H   0  0  0  0  0  0  0  0  0  0  0  0
    2.0466    4.0156   -2.1660 H   0  0  0  0  0  0  0  0  0  0  0  0
    3.1449    3.8470   -0.8455 H   0  0  0  0  0  0  0  0  0  0  0  0
   -1.2091    0.4578    5.0843 H   0  0  0  0  0  0  0  0  0  0  0  0
   -2.9930    0.5178    4.7302 H   0  0  0  0  0  0  0  0  0  0  0  0
   -2.1429   -1.0435    4.8404 H   0  0  0  0  0  0  0  0  0  0  0  0
    0.1357   -0.4076   -1.4466 H   0  0  0  0  0  0  0  0  0  0  0  0
   -0.8181    0.3391   -2.5806 H   0  0  0  0  0  0  0  0  0  0  0  0
    0.7165   -1.9426   -3.0271 H   0  0  0  0  0  0  0  0  0  0  0  0
   -0.1159   -0.9724   -4.2387 H   0  0  0  0  0  0  0  0  0  0  0  0
  1  2  1  0  0  0  0
  1 31  1  0  0  0  0
  1 32  1  0  0  0  0
  2  3  1  0  0  0  0
  2 18  2  0  0  0  0
  3  4  2  0  0  0  0
  3 33  1  0  0  0  0
  4  5  1  0  0  0  0
  4  7  1  0  0  0  0
  5  6  1  0  0  0  0
  5 19  1  6  0  0  0
  6  1  1  0  0  0  0
  6 34  1  0  0  0  0
  6 35  1  0  0  0  0
  7  8  1  0  0  0  0
  7 36  1  0  0  0  0
  7 37  1  0  0  0  0
  8 38  1  6  0  0  0
  8 22  1  0  0  0  0
  9  8  1  0  0  0  0
  9 10  1  0  0  0  0
  9 11  1  0  0  0  0
  9 39  1  0  0  0  0
 10  5  1  0  0  0  0
 10 21  1  0  0  0  0
 11 12  1  0  0  0  0
 11 15  1  0  0  0  0
 11 40  1  0  0  0  0
 12 13  1  0  0  0  0
 12 20  1  0  0  0  0
 13 41  1  0  0  0  0
 13 42  1  0  0  0  0
 14 13  1  0  0  0  0
 14 10  1  0  0  0  0
 14 21  1  0  0  0  0
 14 43  1  0  0  0  0
 15 16  1  0  0  0  0
 15 44  1  0  0  0  0
 15 45  1  0  0  0  0
 16 46  1  0  0  0  0
 16 47  1  0  0  0  0
 17 16  1  0  0  0  0
 17 12  1  0  0  0  0
 17 26  1  0  0  0  0
 17 29  1  0  0  0  0
 19 48  1  0  0  0  0
 19 49  1  0  0  0  0
 19 50  1  0  0  0  0
 20 51  1  0  0  0  0
 20 52  1  0  0  0  0
 20 53  1  0  0  0  0
 22 23  1  0  0  0  0
 22 24  2  0  0  0  0
 23 25  1  0  0  0  0
 25 54  1  0  0  0  0
 25 55  1  0  0  0  0
 25 56  1  0  0  0  0
 26 27  1  0  0  0  0
 26 57  1  0  0  0  0
 26 58  1  0  0  0  0
 27 28  1  0  0  0  0
 27 59  1  0  0  0  0
 27 60  1  0  0  0  0
 28 29  1  0  0  0  0
 28 30  2  0  0  0  0
M  END
>  <Mol_ID>
8229

>  <Formula>
C24H30O6

>  <MolWeight>
414.4914

>  <Cat>
S1707

>  <Name>
Eplerenone (CGP 30083)

>  <Synonyms>
CGP 30083, SC-66110

>  <Target>
Mineralocorticoid Receptor

>  <Form>
free base

>  <CAS>
107724-20-9

>  <URL>
http://selleckchem.com/products/Eplerenone(Inspra).html

$$$$
