Epothilone A.cdx
 OpenBabel08302519513D

 73 75  0  0  0  0  0  0  0  0999 V2000
   -2.5079    3.1614    0.0250 O   0  0  0  0  0  0  0  0  0  0  0  0
   -2.4564    1.8722   -0.6007 C   0  0  2  0  0  0  0  0  0  0  0  0
   -2.7083    0.7538    0.3734 C   0  0  0  0  0  0  0  0  0  0  0  0
   -3.1155   -0.5522   -0.3529 C   0  0  0  0  0  0  0  0  0  0  0  0
   -0.0811    3.0482    0.2399 C   0  0  0  0  0  0  0  0  0  0  0  0
   -1.2787    2.8805   -0.6628 C   0  0  2  0  0  0  0  0  0  0  0  0
   -2.8767   -1.8307    0.4802 C   0  0  0  0  0  0  0  0  0  0  0  0
   -1.8966   -2.8144   -0.2320 C   0  0  1  0  0  0  0  0  0  0  0  0
    2.3343    2.6358    0.4892 O   0  0  0  0  0  0  0  0  0  0  0  0
    1.2688    2.8044   -0.4897 C   0  0  2  0  0  0  0  0  0  0  0  0
   -0.7788   -3.4410    0.6738 C   0  0  1  0  0  0  0  0  0  0  0  0
    0.6163   -3.6367   -0.0205 C   0  0  2  0  0  0  0  0  0  0  0  0
    2.6641    0.2860    0.1346 C   0  0  0  0  0  0  0  0  0  0  0  0
    3.2635    1.6375    0.3921 C   0  0  0  0  0  0  0  0  0  0  0  0
    1.2902   -2.2707   -0.2537 C   0  0  0  0  0  0  0  0  0  0  0  0
    2.7652   -2.1588   -0.7719 C   0  0  0  0  0  0  0  0  0  0  0  0
    3.5629   -0.8847   -0.2273 C   0  0  1  0  0  0  0  0  0  0  0  0
    1.7284    3.9243   -1.4143 C   0  0  0  0  0  0  0  0  0  0  0  0
    2.1921    5.1979   -0.7521 C   0  0  0  0  0  0  0  0  0  0  0  0
    1.7808    3.7439   -2.7548 C   0  0  0  0  0  0  0  0  0  0  0  0
    2.2300    4.6833   -3.7351 C   0  0  0  0  0  0  0  0  0  0  0  0
    3.2150    5.5957   -3.4257 N   0  0  0  0  0  0  0  0  0  0  0  0
    3.4471    6.3751   -4.4591 C   0  0  0  0  0  0  0  0  0  0  0  0
    2.5133    6.0354   -5.8624 S   0  0  0  0  0  0  0  0  0  0  0  0
    1.7462    4.7492   -5.0233 C   0  0  0  0  0  0  0  0  0  0  0  0
    4.4242    7.4970   -4.4599 C   0  0  0  0  0  0  0  0  0  0  0  0
    4.4343    1.8182    0.7136 O   0  0  0  0  0  0  0  0  0  0  0  0
   -2.7166   -3.9101   -0.9367 C   0  0  0  0  0  0  0  0  0  0  0  0
   -0.5640   -2.6798    1.8684 O   0  0  0  0  0  0  0  0  0  0  0  0
    0.4872   -4.4367   -1.3099 C   0  0  0  0  0  0  0  0  0  0  0  0
    0.5952   -1.2577   -0.0993 O   0  0  0  0  0  0  0  0  0  0  0  0
    4.4724   -0.4473   -1.2470 O   0  0  0  0  0  0  0  0  0  0  0  0
    3.6163   -3.3838   -0.3981 C   0  0  0  0  0  0  0  0  0  0  0  0
    2.6389   -2.0610   -2.3145 C   0  0  0  0  0  0  0  0  0  0  0  0
   -3.0602    1.7675   -1.4977 H   0  0  0  0  0  0  0  0  0  0  0  0
   -1.8399    0.5919    1.0144 H   0  0  0  0  0  0  0  0  0  0  0  0
   -3.5514    1.0319    1.0222 H   0  0  0  0  0  0  0  0  0  0  0  0
   -4.1831   -0.4953   -0.6061 H   0  0  0  0  0  0  0  0  0  0  0  0
   -2.5931   -0.6074   -1.3154 H   0  0  0  0  0  0  0  0  0  0  0  0
   -0.1561    2.3934    1.1147 H   0  0  0  0  0  0  0  0  0  0  0  0
   -0.0930    4.0740    0.6326 H   0  0  0  0  0  0  0  0  0  0  0  0
   -1.1410    3.4011   -1.6043 H   0  0  0  0  0  0  0  0  0  0  0  0
   -2.5458   -1.5597    1.4827 H   0  0  0  0  0  0  0  0  0  0  0  0
   -3.8436   -2.3343    0.6302 H   0  0  0  0  0  0  0  0  0  0  0  0
   -1.3928   -2.2635   -1.0324 H   0  0  0  0  0  0  0  0  0  0  0  0
    1.1256    1.9132   -1.0974 H   0  0  0  0  0  0  0  0  0  0  0  0
   -1.1182   -4.4255    1.0157 H   0  0  0  0  0  0  0  0  0  0  0  0
    1.2528   -4.1760    0.6936 H   0  0  0  0  0  0  0  0  0  0  0  0
    2.0095    0.3899   -0.7320 H   0  0  0  0  0  0  0  0  0  0  0  0
    2.1053    0.0499    1.0431 H   0  0  0  0  0  0  0  0  0  0  0  0
    4.1628   -1.1436    0.6528 H   0  0  0  0  0  0  0  0  0  0  0  0
    3.2738    5.3138   -0.8543 H   0  0  0  0  0  0  0  0  0  0  0  0
    1.6859    6.0705   -1.1829 H   0  0  0  0  0  0  0  0  0  0  0  0
    1.9755    5.2041    0.3214 H   0  0  0  0  0  0  0  0  0  0  0  0
    1.4445    2.7900   -3.1569 H   0  0  0  0  0  0  0  0  0  0  0  0
    0.9832    4.1482   -5.4958 H   0  0  0  0  0  0  0  0  0  0  0  0
    5.1697    7.3698   -5.2509 H   0  0  0  0  0  0  0  0  0  0  0  0
    3.9133    8.4540   -4.6064 H   0  0  0  0  0  0  0  0  0  0  0  0
    4.9538    7.5431   -3.5024 H   0  0  0  0  0  0  0  0  0  0  0  0
   -3.5197   -3.4704   -1.5392 H   0  0  0  0  0  0  0  0  0  0  0  0
   -2.1123   -4.5104   -1.6207 H   0  0  0  0  0  0  0  0  0  0  0  0
   -3.1720   -4.5944   -0.2128 H   0  0  0  0  0  0  0  0  0  0  0  0
   -0.3546   -1.7676    1.5778 H   0  0  0  0  0  0  0  0  0  0  0  0
   -0.0062   -3.8572   -2.0961 H   0  0  0  0  0  0  0  0  0  0  0  0
    1.4469   -4.7486   -1.7144 H   0  0  0  0  0  0  0  0  0  0  0  0
   -0.0797   -5.3617   -1.1308 H   0  0  0  0  0  0  0  0  0  0  0  0
    5.2164   -1.0728   -1.2881 H   0  0  0  0  0  0  0  0  0  0  0  0
    3.2139   -4.3225   -0.7791 H   0  0  0  0  0  0  0  0  0  0  0  0
    4.6334   -3.2980   -0.7962 H   0  0  0  0  0  0  0  0  0  0  0  0
    3.6898   -3.4860    0.6909 H   0  0  0  0  0  0  0  0  0  0  0  0
    2.1789   -1.1098   -2.6067 H   0  0  0  0  0  0  0  0  0  0  0  0
    3.6115   -2.1370   -2.8105 H   0  0  0  0  0  0  0  0  0  0  0  0
    2.0124   -2.8482   -2.7365 H   0  0  0  0  0  0  0  0  0  0  0  0
  2  1  1  0  0  0  0
  2  3  1  0  0  0  0
  2 35  1  6  0  0  0
  3  4  1  0  0  0  0
  3 36  1  0  0  0  0
  3 37  1  0  0  0  0
  4  7  1  0  0  0  0
  4 38  1  0  0  0  0
  4 39  1  0  0  0  0
  5 40  1  0  0  0  0
  5 41  1  0  0  0  0
  6  5  1  0  0  0  0
  6  1  1  0  0  0  0
  6  2  1  0  0  0  0
  6 42  1  6  0  0  0
  7  8  1  0  0  0  0
  7 43  1  0  0  0  0
  7 44  1  0  0  0  0
  8 11  1  0  0  0  0
  8 28  1  0  0  0  0
  8 45  1  6  0  0  0
  9 10  1  0  0  0  0
 10  5  1  0  0  0  0
 10 18  1  0  0  0  0
 10 46  1  6  0  0  0
 11 12  1  0  0  0  0
 11 29  1  0  0  0  0
 11 47  1  1  0  0  0
 12 15  1  0  0  0  0
 12 48  1  1  0  0  0
 12 30  1  0  0  0  0
 13 14  1  0  0  0  0
 13 49  1  0  0  0  0
 13 50  1  0  0  0  0
 14  9  1  0  0  0  0
 14 27  2  0  0  0  0
 15 16  1  0  0  0  0
 15 31  2  0  0  0  0
 16 17  1  0  0  0  0
 16 33  1  0  0  0  0
 16 34  1  0  0  0  0
 17 13  1  0  0  0  0
 17 51  1  1  0  0  0
 17 32  1  0  0  0  0
 18 19  1  0  0  0  0
 18 20  2  0  0  0  0
 19 52  1  0  0  0  0
 19 53  1  0  0  0  0
 19 54  1  0  0  0  0
 20 21  1  0  0  0  0
 20 55  1  0  0  0  0
 21 22  1  0  0  0  0
 22 23  2  0  0  0  0
 23 24  1  0  0  0  0
 23 26  1  0  0  0  0
 24 25  1  0  0  0  0
 25 21  2  0  0  0  0
 25 56  1  0  0  0  0
 26 57  1  0  0  0  0
 26 58  1  0  0  0  0
 26 59  1  0  0  0  0
 28 60  1  0  0  0  0
 28 61  1  0  0  0  0
 28 62  1  0  0  0  0
 29 63  1  0  0  0  0
 30 64  1  0  0  0  0
 30 65  1  0  0  0  0
 30 66  1  0  0  0  0
 32 67  1  0  0  0  0
 33 68  1  0  0  0  0
 33 69  1  0  0  0  0
 33 70  1  0  0  0  0
 34 71  1  0  0  0  0
 34 72  1  0  0  0  0
 34 73  1  0  0  0  0
M  END
>  <Mol_ID>
194

>  <Formula>
C26H39NO6S

>  <MolWeight>
493.65596

>  <Cat>
S1297

>  <Name>
Epothilone A

>  <Synonyms>
N/A

>  <Target>
Microtubule Associated

>  <Form>
free base

>  <CAS>
152044-53-6

>  <URL>
http://selleckchem.com/products/Epothilone-A.html

$$$$
