Epoxymicheliolide
 OpenBabel08302521463D

 39 42  0  0  1  0  0  0  0  0999 V2000
    2.0628    0.7281    0.2640 C   0  0  0  0  0  0  0  0  0  0  0  0
    8.4784    0.6916    0.8123 C   0  0  0  0  0  0  0  0  0  0  0  0
    6.9342    1.0531   -0.9271 O   0  0  0  0  0  0  0  0  0  0  0  0
    5.3818   -5.1122    1.4795 C   0  0  0  0  0  0  0  0  0  0  0  0
    8.1211   -4.2160    1.9815 O   0  0  0  0  0  0  0  0  0  0  0  0
    4.6766    0.4482    0.6319 C   0  0  2  0  0  0  0  0  0  0  0  0
    5.9836   -0.2707    0.9660 C   0  0  3  0  0  0  0  0  0  0  0  0
    3.2882   -0.1463    0.2796 C   0  0  3  0  0  0  0  0  0  0  0  0
    4.2424    0.2300   -0.7187 O   0  0  0  0  0  0  0  0  0  0  0  0
    4.8880    1.9379    0.8925 C   0  0  0  0  0  0  0  0  0  0  0  0
    6.2578   -1.6776    0.4186 C   0  0  3  0  0  0  0  0  0  0  0  0
    7.0062    0.8432    0.4914 C   0  0  3  0  0  0  0  0  0  0  0  0
    2.9956   -1.6101    0.1692 C   0  0  0  0  0  0  0  0  0  0  0  0
    6.3942    2.0877    1.1504 C   0  0  0  0  0  0  0  0  0  0  0  0
    5.1889   -2.7792    0.4828 C   0  0  3  0  0  0  0  0  0  0  0  0
    7.4071   -2.2098    1.1381 O   0  0  0  0  0  0  0  0  0  0  0  0
    3.8350   -2.4517    1.1072 C   0  0  0  0  0  0  0  0  0  0  0  0
    5.8764   -3.9052    1.1734 C   0  0  0  0  0  0  0  0  0  0  0  0
    7.2608   -3.5167    1.4851 C   0  0  0  0  0  0  0  0  0  0  0  0
    1.5894    0.6963   -0.7239 H   0  0  0  0  0  0  0  0  0  0  0  0
    1.3342    0.3698    0.9991 H   0  0  0  0  0  0  0  0  0  0  0  0
    2.2778    1.7724    0.5030 H   0  0  0  0  0  0  0  0  0  0  0  0
    8.8790   -0.2546    0.4352 H   0  0  0  0  0  0  0  0  0  0  0  0
    9.0552    1.4738    0.2912 H   0  0  0  0  0  0  0  0  0  0  0  0
    8.6963    0.7738    1.8822 H   0  0  0  0  0  0  0  0  0  0  0  0
    7.1523    0.2281   -1.3872 H   0  0  0  0  0  0  0  0  0  0  0  0
    5.9851   -5.8587    1.9870 H   0  0  0  0  0  0  0  0  0  0  0  0
    4.3599   -5.3963    1.2300 H   0  0  0  0  0  0  0  0  0  0  0  0
    6.0494   -0.3300    2.0637 H   0  0  0  0  0  0  0  0  0  0  0  0
    4.5998    2.5372    0.0214 H   0  0  0  0  0  0  0  0  0  0  0  0
    4.3122    2.2864    1.7558 H   0  0  0  0  0  0  0  0  0  0  0  0
    6.5963   -1.5981   -0.6189 H   0  0  0  0  0  0  0  0  0  0  0  0
    1.9387   -1.7930    0.3978 H   0  0  0  0  0  0  0  0  0  0  0  0
    3.1216   -1.9399   -0.8714 H   0  0  0  0  0  0  0  0  0  0  0  0
    6.5837    2.0917    2.2311 H   0  0  0  0  0  0  0  0  0  0  0  0
    6.7689    3.0300    0.7346 H   0  0  0  0  0  0  0  0  0  0  0  0
    5.0139   -3.1065   -0.5521 H   0  0  0  0  0  0  0  0  0  0  0  0
    3.9402   -1.9845    2.0931 H   0  0  0  0  0  0  0  0  0  0  0  0
    3.2736   -3.3812    1.2670 H   0  0  0  0  0  0  0  0  0  0  0  0
  1 20  1  0  0  0  0
  1 21  1  0  0  0  0
  1 22  1  0  0  0  0
  2 23  1  0  0  0  0
  2 24  1  0  0  0  0
  2 25  1  0  0  0  0
  3 26  1  0  0  0  0
  4 18  2  0  0  0  0
  4 27  1  0  0  0  0
  4 28  1  0  0  0  0
  5 19  2  0  0  0  0
  6  7  1  0  0  0  0
  6  8  1  0  0  0  0
  6  9  1  6  0  0  0
  6 10  1  0  0  0  0
  7 11  1  0  0  0  0
  7 12  1  0  0  0  0
  7 29  1  0  0  0  0
  8  1  1  0  0  0  0
  8  9  1  0  0  0  0
  8 13  1  0  0  0  0
 10 14  1  0  0  0  0
 10 30  1  0  0  0  0
 10 31  1  0  0  0  0
 11 15  1  0  0  0  0
 11 16  1  0  0  0  0
 11 32  1  0  0  0  0
 12  2  1  0  0  0  0
 12  3  1  0  0  0  0
 12 14  1  0  0  0  0
 13 17  1  0  0  0  0
 13 33  1  0  0  0  0
 13 34  1  0  0  0  0
 14 35  1  0  0  0  0
 14 36  1  0  0  0  0
 15 17  1  0  0  0  0
 15 18  1  0  0  0  0
 15 37  1  0  0  0  0
 16 19  1  0  0  0  0
 17 38  1  0  0  0  0
 17 39  1  0  0  0  0
 18 19  1  0  0  0  0
M  END
>  <Mol_ID>
9615

>  <Formula>
C15H20O4

>  <MolWeight>
264.3169

>  <Cat>
E2197

>  <Name>
Epoxymicheliolide

>  <Synonyms>
NA

>  <Target>
IKK¦Â kinase

>  <Form>
Free Base

>  <CAS>
1343403-10-0

>  <URL>
https://www.selleckchem.com/products/epoxymicheliolide.html

$$$$
