Eprodisate (disodium).cdx
 OpenBabel08302521383D

 17 16  0  0  0  0  0  0  0  0999 V2000
    1.0787    0.1260    0.1871 C   0  0  0  0  0  0  0  0  0  0  0  0
    0.3807    1.4525   -0.1079 C   0  0  0  0  0  0  0  0  0  0  0  0
    0.9233    2.0356   -1.4120 C   0  0  0  0  0  0  0  0  0  0  0  0
    0.5640   -0.6755    1.6944 S   0  0  0  0  0  0  0  0  0  0  0  0
    1.3993   -1.8794    1.7222 O   0  0  0  0  0  0  0  0  0  0  0  0
    0.8807    0.2887    2.7459 O   0  0  0  0  0  0  0  0  0  0  0  0
   -0.8579   -0.9427    1.4995 O   0  5  0  0  0  0  0  0  0  0  0  0
    0.1557    3.5575   -1.9344 S   0  0  0  0  0  0  0  0  0  0  0  0
    0.3994    4.4875   -0.8348 O   0  0  0  0  0  0  0  0  0  0  0  0
    0.8850    3.8825   -3.1627 O   0  0  0  0  0  0  0  0  0  0  0  0
   -1.2451    3.2020   -2.1527 O   0  5  0  0  0  0  0  0  0  0  0  0
    2.1614    0.2743    0.2676 H   0  0  0  0  0  0  0  0  0  0  0  0
    0.8953   -0.5899   -0.6225 H   0  0  0  0  0  0  0  0  0  0  0  0
   -0.7021    1.3015   -0.1797 H   0  0  0  0  0  0  0  0  0  0  0  0
    0.5458    2.1571    0.7150 H   0  0  0  0  0  0  0  0  0  0  0  0
    1.9949    2.2445   -1.3160 H   0  0  0  0  0  0  0  0  0  0  0  0
    0.7899    1.3237   -2.2344 H   0  0  0  0  0  0  0  0  0  0  0  0
  1  2  1  0  0  0  0
  1  4  1  0  0  0  0
  1 12  1  0  0  0  0
  1 13  1  0  0  0  0
  2  3  1  0  0  0  0
  2 14  1  0  0  0  0
  2 15  1  0  0  0  0
  3  8  1  0  0  0  0
  3 16  1  0  0  0  0
  3 17  1  0  0  0  0
  4  5  2  0  0  0  0
  4  6  2  0  0  0  0
  4  7  1  0  0  0  0
  8  9  2  0  0  0  0
  8 10  2  0  0  0  0
  8 11  1  0  0  0  0
M  CHG  2   7  -1  11  -1
M  END
>  <Mol_ID>
7764

>  <Formula>
C3H6Na2O6S2

>  <MolWeight>
248.18568

>  <Cat>
S4567

>  <Name>
Eprodisate disodium

>  <Synonyms>
NC-503

>  <Target>
Others

>  <Form>
sodium

>  <CAS>
36589-58-9

>  <URL>
http://selleckchem.com/products/eprodisate-disodium.html

$$$$
