Eprobemide
 OpenBabel08302521233D

 38 39  0  0  0  0  0  0  0  0999 V2000
    3.8196    2.5558    1.7020 C   0  0  0  0  0  0  0  0  0  0  0  0
    5.0133    1.8942    2.2827 C   0  0  0  0  0  0  0  0  0  0  0  0
    2.7705    1.8310    1.1323 C   0  0  0  0  0  0  0  0  0  0  0  0
    3.7759    3.9559    1.6825 C   0  0  0  0  0  0  0  0  0  0  0  0
    5.6112    0.8225    1.6655 N   0  0  0  0  0  0  0  0  0  0  0  0
    5.5234    2.3598    3.2991 O   0  0  0  0  0  0  0  0  0  0  0  0
    1.7779    2.4857    0.4016 C   0  0  0  0  0  0  0  0  0  0  0  0
    2.7457    4.6142    1.0065 C   0  0  0  0  0  0  0  0  0  0  0  0
    5.3689    0.1867    0.3738 C   0  0  0  0  0  0  0  0  0  0  0  0
    1.7726    3.8770    0.3313 C   0  0  0  0  0  0  0  0  0  0  0  0
    6.0596    0.8356   -0.8288 C   0  0  0  0  0  0  0  0  0  0  0  0
    5.7865    2.3370   -0.9710 C   0  0  0  0  0  0  0  0  0  0  0  0
    6.3842    2.9502   -2.1710 N   0  0  0  0  0  0  0  0  0  0  0  0
    6.1973    4.4250   -2.1403 C   0  0  0  0  0  0  0  0  0  0  0  0
    5.7971    2.4608   -3.4384 C   0  0  0  0  0  0  0  0  0  0  0  0
    4.7538    4.8851   -2.4282 C   0  0  0  0  0  0  0  0  0  0  0  0
    4.3481    2.9192   -3.6688 C   0  0  0  0  0  0  0  0  0  0  0  0
    4.2548    4.3485   -3.6604 O   0  0  0  0  0  0  0  0  0  0  0  0
    2.7235    0.7516    1.2322 H   0  0  0  0  0  0  0  0  0  0  0  0
    4.5567    4.5342    2.1720 H   0  0  0  0  0  0  0  0  0  0  0  0
    6.4526    0.5375    2.1544 H   0  0  0  0  0  0  0  0  0  0  0  0
    1.0162    1.9084   -0.1158 H   0  0  0  0  0  0  0  0  0  0  0  0
    2.7155    5.7010    0.9841 H   0  0  0  0  0  0  0  0  0  0  0  0
    5.7368   -0.8425    0.4713 H   0  0  0  0  0  0  0  0  0  0  0  0
    4.3039    0.1010    0.1713 H   0  0  0  0  0  0  0  0  0  0  0  0
    1.0020    4.3867   -0.2415 H   0  0  0  0  0  0  0  0  0  0  0  0
    7.1399    0.6632   -0.7687 H   0  0  0  0  0  0  0  0  0  0  0  0
    5.6994    0.2985   -1.7133 H   0  0  0  0  0  0  0  0  0  0  0  0
    4.7099    2.5130   -0.9413 H   0  0  0  0  0  0  0  0  0  0  0  0
    6.2275    2.8309   -0.0971 H   0  0  0  0  0  0  0  0  0  0  0  0
    6.8567    4.8531   -2.9069 H   0  0  0  0  0  0  0  0  0  0  0  0
    6.5404    4.8370   -1.1831 H   0  0  0  0  0  0  0  0  0  0  0  0
    6.4162    2.8546   -4.2554 H   0  0  0  0  0  0  0  0  0  0  0  0
    5.8690    1.3725   -3.5190 H   0  0  0  0  0  0  0  0  0  0  0  0
    4.0728    4.6075   -1.6186 H   0  0  0  0  0  0  0  0  0  0  0  0
    4.7291    5.9757   -2.5145 H   0  0  0  0  0  0  0  0  0  0  0  0
    4.0067    2.5735   -4.6492 H   0  0  0  0  0  0  0  0  0  0  0  0
    3.6613    2.5040   -2.9220 H   0  0  0  0  0  0  0  0  0  0  0  0
  1  2  1  0  0  0  0
  1  3  2  0  0  0  0
  1  4  1  0  0  0  0
  2  5  1  0  0  0  0
  2  6  2  0  0  0  0
  3  7  1  0  0  0  0
  3 19  1  0  0  0  0
  4  8  2  0  0  0  0
  4 20  1  0  0  0  0
  5  9  1  0  0  0  0
  5 21  1  0  0  0  0
  7 10  2  0  0  0  0
  7 22  1  0  0  0  0
  8 10  1  0  0  0  0
  8 23  1  0  0  0  0
  9 11  1  0  0  0  0
  9 24  1  0  0  0  0
  9 25  1  0  0  0  0
 10 26  1  0  0  0  0
 11 12  1  0  0  0  0
 11 27  1  0  0  0  0
 11 28  1  0  0  0  0
 12 13  1  0  0  0  0
 12 29  1  0  0  0  0
 12 30  1  0  0  0  0
 13 14  1  0  0  0  0
 13 15  1  0  0  0  0
 14 16  1  0  0  0  0
 14 31  1  0  0  0  0
 14 32  1  0  0  0  0
 15 17  1  0  0  0  0
 15 33  1  0  0  0  0
 15 34  1  0  0  0  0
 16 18  1  0  0  0  0
 16 35  1  0  0  0  0
 16 36  1  0  0  0  0
 17 18  1  0  0  0  0
 17 37  1  0  0  0  0
 17 38  1  0  0  0  0
M  END
>  <Mol_ID>
4874

>  <Formula>
C14H19ClN2O2

>  <MolWeight>
282.76586

>  <Cat>
S2419

>  <Name>
Eprobemide

>  <Synonyms>
Befol, LIS 630

>  <Target>
MAO

>  <Form>
Free Base

>  <CAS>
87940-60-1

>  <URL>
http://www.selleck.cn/products/eprobemide.html

$$$$
