Eptapirone
 OpenBabel08302521353D

 48 50  0  0  0  0  0  0  0  0999 V2000
    0.9887   -0.2782   -2.3018 N   0  0  0  0  0  0  0  0  0  0  0  0
    0.3361   -1.3026   -2.9425 N   0  0  0  0  0  0  0  0  0  0  0  0
    0.9576   -2.3082   -3.6895 C   0  0  0  0  0  0  0  0  0  0  0  0
    2.3079   -2.1273   -3.9361 N   0  0  0  0  0  0  0  0  0  0  0  0
    3.0398   -1.1284   -3.3412 C   0  0  0  0  0  0  0  0  0  0  0  0
    2.2696   -0.1990   -2.4683 C   0  0  0  0  0  0  0  0  0  0  0  0
    0.3372   -3.2847   -4.1142 O   0  0  0  0  0  0  0  0  0  0  0  0
    4.2430   -0.9361   -3.4594 O   0  0  0  0  0  0  0  0  0  0  0  0
   -1.1162   -1.3270   -2.7849 C   0  0  0  0  0  0  0  0  0  0  0  0
   -1.5557   -2.1443   -1.5733 C   0  0  0  0  0  0  0  0  0  0  0  0
   -3.0803   -2.1156   -1.4295 C   0  0  0  0  0  0  0  0  0  0  0  0
   -3.5344   -2.9086   -0.1987 C   0  0  0  0  0  0  0  0  0  0  0  0
   -4.9959   -2.9413   -0.0125 N   0  0  0  0  0  0  0  0  0  0  0  0
   -5.6081   -1.6027    0.1811 C   0  0  0  0  0  0  0  0  0  0  0  0
   -5.2167   -0.8851    1.4945 C   0  0  0  0  0  0  0  0  0  0  0  0
   -5.4397   -1.7609    2.6402 N   0  0  0  0  0  0  0  0  0  0  0  0
   -4.9499   -3.1334    2.5469 C   0  0  0  0  0  0  0  0  0  0  0  0
   -5.3427   -3.7589    1.1825 C   0  0  0  0  0  0  0  0  0  0  0  0
   -6.2479   -1.3807    3.6790 C   0  0  0  0  0  0  0  0  0  0  0  0
   -6.9083   -0.2125    3.6017 N   0  0  0  0  0  0  0  0  0  0  0  0
   -7.6953    0.1368    4.6370 C   0  0  0  0  0  0  0  0  0  0  0  0
   -7.8430   -0.6218    5.7656 C   0  0  0  0  0  0  0  0  0  0  0  0
   -7.1303   -1.7920    5.7701 C   0  0  0  0  0  0  0  0  0  0  0  0
   -6.3447   -2.1864    4.7507 N   0  0  0  0  0  0  0  0  0  0  0  0
    2.9991   -3.0399   -4.8237 C   0  0  0  0  0  0  0  0  0  0  0  0
    2.8611    0.5854   -1.9761 H   0  0  0  0  0  0  0  0  0  0  0  0
   -1.4657   -0.2909   -2.6996 H   0  0  0  0  0  0  0  0  0  0  0  0
   -1.5627   -1.7420   -3.6962 H   0  0  0  0  0  0  0  0  0  0  0  0
   -1.2066   -3.1792   -1.6692 H   0  0  0  0  0  0  0  0  0  0  0  0
   -1.0908   -1.7361   -0.6671 H   0  0  0  0  0  0  0  0  0  0  0  0
   -3.3916   -1.0688   -1.3480 H   0  0  0  0  0  0  0  0  0  0  0  0
   -3.5478   -2.5289   -2.3315 H   0  0  0  0  0  0  0  0  0  0  0  0
   -3.1866   -3.9424   -0.3268 H   0  0  0  0  0  0  0  0  0  0  0  0
   -3.0198   -2.5135    0.6839 H   0  0  0  0  0  0  0  0  0  0  0  0
   -5.4030   -0.9515   -0.6747 H   0  0  0  0  0  0  0  0  0  0  0  0
   -6.6992   -1.7330    0.1728 H   0  0  0  0  0  0  0  0  0  0  0  0
   -4.1556   -0.6102    1.4625 H   0  0  0  0  0  0  0  0  0  0  0  0
   -5.7712    0.0573    1.5467 H   0  0  0  0  0  0  0  0  0  0  0  0
   -3.8597   -3.1285    2.6603 H   0  0  0  0  0  0  0  0  0  0  0  0
   -5.3357   -3.7894    3.3353 H   0  0  0  0  0  0  0  0  0  0  0  0
   -6.4301   -3.9165    1.1753 H   0  0  0  0  0  0  0  0  0  0  0  0
   -4.9008   -4.7589    1.0942 H   0  0  0  0  0  0  0  0  0  0  0  0
   -8.2170    1.0818    4.5211 H   0  0  0  0  0  0  0  0  0  0  0  0
   -8.4739   -0.3248    6.5905 H   0  0  0  0  0  0  0  0  0  0  0  0
   -7.1651   -2.4724    6.6151 H   0  0  0  0  0  0  0  0  0  0  0  0
    3.5983   -2.4632   -5.5353 H   0  0  0  0  0  0  0  0  0  0  0  0
    3.6731   -3.6653   -4.2300 H   0  0  0  0  0  0  0  0  0  0  0  0
    2.3079   -3.6769   -5.3813 H   0  0  0  0  0  0  0  0  0  0  0  0
  1  2  1  0  0  0  0
  1  6  2  0  0  0  0
  2  3  1  0  0  0  0
  2  9  1  0  0  0  0
  3  4  1  0  0  0  0
  3  7  2  0  0  0  0
  4  5  1  0  0  0  0
  4 25  1  0  0  0  0
  5  6  1  0  0  0  0
  5  8  2  0  0  0  0
  6 26  1  0  0  0  0
  9 10  1  0  0  0  0
  9 27  1  0  0  0  0
  9 28  1  0  0  0  0
 10 11  1  0  0  0  0
 10 29  1  0  0  0  0
 10 30  1  0  0  0  0
 11 12  1  0  0  0  0
 11 31  1  0  0  0  0
 11 32  1  0  0  0  0
 12 13  1  0  0  0  0
 12 33  1  0  0  0  0
 12 34  1  0  0  0  0
 13 14  1  0  0  0  0
 13 18  1  0  0  0  0
 14 15  1  0  0  0  0
 14 35  1  0  0  0  0
 14 36  1  0  0  0  0
 15 16  1  0  0  0  0
 15 37  1  0  0  0  0
 15 38  1  0  0  0  0
 16 17  1  0  0  0  0
 16 19  1  0  0  0  0
 17 18  1  0  0  0  0
 17 39  1  0  0  0  0
 17 40  1  0  0  0  0
 18 41  1  0  0  0  0
 18 42  1  0  0  0  0
 19 20  2  0  0  0  0
 19 24  1  0  0  0  0
 20 21  1  0  0  0  0
 21 22  2  0  0  0  0
 21 43  1  0  0  0  0
 22 23  1  0  0  0  0
 22 44  1  0  0  0  0
 23 24  2  0  0  0  0
 23 45  1  0  0  0  0
 25 46  1  0  0  0  0
 25 47  1  0  0  0  0
 25 48  1  0  0  0  0
M  END
>  <Mol_ID>
6618

>  <Formula>
C16H23N7O2

>  <MolWeight>
345.39952

>  <Cat>
S0113

>  <Name>
Eptapirone

>  <Synonyms>
F 11440

>  <Target>
5-HT Receptor

>  <Form>
Free base

>  <CAS>
179756-58-2

>  <URL>
http://www.selleckchem.com/products/eptapirone.html

$$$$
