EQUIPIN (homatropine methylbromide).cdx
 OpenBabel08302522043D

 46 47  0  0  0  0  0  0  0  0999 V2000
    5.1394    0.0271    0.5634 Br  0  5  0  0  0  0  0  0  0  0  0  0
    0.2824    1.1553    0.4436 C   0  0  2  0  0  0  0  0  0  0  0  0
    1.2102    0.7239   -0.6982 C   0  0  0  0  0  0  0  0  0  0  0  0
    1.1724   -0.7958   -0.7060 C   0  0  0  0  0  0  0  0  0  0  0  0
    0.2046   -1.1853    0.4174 C   0  0  1  0  0  0  0  0  0  0  0  0
    0.2865   -0.0267    1.4205 N   0  3  0  0  0  0  0  0  0  0  0  0
   -1.2145   -1.2784   -0.1518 C   0  0  0  0  0  0  0  0  0  0  0  0
   -1.1294    1.3609   -0.1087 C   0  0  0  0  0  0  0  0  0  0  0  0
   -1.9002    0.0712   -0.4493 C   0  0  1  0  0  0  0  0  0  0  0  0
    1.6217   -0.0746    2.2033 C   0  0  0  0  0  0  0  0  0  0  0  0
   -0.7806   -0.0104    2.5045 C   0  0  0  0  0  0  0  0  0  0  0  0
   -2.3505    0.1662   -1.8210 O   0  0  0  0  0  0  0  0  0  0  0  0
   -3.5051   -0.5184   -2.0930 C   0  0  0  0  0  0  0  0  0  0  0  0
   -4.2263    0.0201   -3.3253 C   0  0  3  0  0  0  0  0  0  0  0  0
   -3.7963   -0.6346   -4.6221 C   0  0  0  0  0  0  0  0  0  0  0  0
   -5.6385   -0.1418   -3.1123 O   0  0  0  0  0  0  0  0  0  0  0  0
   -3.9657   -1.3886   -1.3624 O   0  0  0  0  0  0  0  0  0  0  0  0
   -4.6928   -1.3589   -5.4236 C   0  0  0  0  0  0  0  0  0  0  0  0
   -4.2832   -1.9149   -6.6383 C   0  0  0  0  0  0  0  0  0  0  0  0
   -2.9705   -1.7504   -7.0682 C   0  0  0  0  0  0  0  0  0  0  0  0
   -2.0657   -1.0385   -6.2882 C   0  0  0  0  0  0  0  0  0  0  0  0
   -2.4741   -0.4809   -5.0722 C   0  0  0  0  0  0  0  0  0  0  0  0
    0.6454    2.0512    0.9593 H   0  0  0  0  0  0  0  0  0  0  0  0
    0.9050    1.1342   -1.6676 H   0  0  0  0  0  0  0  0  0  0  0  0
    2.2276    1.0838   -0.5244 H   0  0  0  0  0  0  0  0  0  0  0  0
    0.8625   -1.1838   -1.6825 H   0  0  0  0  0  0  0  0  0  0  0  0
    2.1696   -1.2068   -0.5187 H   0  0  0  0  0  0  0  0  0  0  0  0
    0.5018   -2.1142    0.9177 H   0  0  0  0  0  0  0  0  0  0  0  0
   -1.8284   -1.8120    0.5862 H   0  0  0  0  0  0  0  0  0  0  0  0
   -1.2155   -1.9240   -1.0386 H   0  0  0  0  0  0  0  0  0  0  0  0
   -1.0934    2.0329   -0.9769 H   0  0  0  0  0  0  0  0  0  0  0  0
   -1.7068    1.9153    0.6440 H   0  0  0  0  0  0  0  0  0  0  0  0
   -2.8116    0.1114    0.1657 H   0  0  0  0  0  0  0  0  0  0  0  0
    1.6946    0.8408    2.7993 H   0  0  0  0  0  0  0  0  0  0  0  0
    1.5984   -0.9539    2.8548 H   0  0  0  0  0  0  0  0  0  0  0  0
    2.4405   -0.1473    1.5068 H   0  0  0  0  0  0  0  0  0  0  0  0
   -1.7801    0.0637    2.0814 H   0  0  0  0  0  0  0  0  0  0  0  0
   -0.7045   -0.9410    3.0745 H   0  0  0  0  0  0  0  0  0  0  0  0
   -0.6044    0.8566    3.1488 H   0  0  0  0  0  0  0  0  0  0  0  0
   -4.0615    1.1019   -3.3907 H   0  0  0  0  0  0  0  0  0  0  0  0
   -5.7445   -1.0076   -2.6703 H   0  0  0  0  0  0  0  0  0  0  0  0
   -5.7331   -1.4835   -5.1254 H   0  0  0  0  0  0  0  0  0  0  0  0
   -4.9937   -2.4627   -7.2500 H   0  0  0  0  0  0  0  0  0  0  0  0
   -2.6553   -2.1716   -8.0226 H   0  0  0  0  0  0  0  0  0  0  0  0
   -1.0420   -0.9051   -6.6291 H   0  0  0  0  0  0  0  0  0  0  0  0
   -1.7504    0.0889   -4.4953 H   0  0  0  0  0  0  0  0  0  0  0  0
  2  3  1  0  0  0  0
  2  6  1  0  0  0  0
  2  8  1  0  0  0  0
  2 23  1  1  0  0  0
  3  4  1  0  0  0  0
  3 24  1  0  0  0  0
  3 25  1  0  0  0  0
  4 26  1  0  0  0  0
  4 27  1  0  0  0  0
  5  4  1  0  0  0  0
  5  6  1  0  0  0  0
  5  7  1  0  0  0  0
  5 28  1  1  0  0  0
  6 10  1  0  0  0  0
  6 11  1  0  0  0  0
  7  9  1  0  0  0  0
  7 29  1  0  0  0  0
  7 30  1  0  0  0  0
  8  9  1  0  0  0  0
  8 31  1  0  0  0  0
  8 32  1  0  0  0  0
  9 33  1  1  0  0  0
  9 12  1  0  0  0  0
 10 34  1  0  0  0  0
 10 35  1  0  0  0  0
 10 36  1  0  0  0  0
 11 37  1  0  0  0  0
 11 38  1  0  0  0  0
 11 39  1  0  0  0  0
 12 13  1  0  0  0  0
 13 14  1  0  0  0  0
 13 17  2  0  0  0  0
 14 15  1  0  0  0  0
 14 16  1  0  0  0  0
 14 40  1  0  0  0  0
 15 18  2  0  0  0  0
 16 41  1  0  0  0  0
 18 19  1  0  0  0  0
 18 42  1  0  0  0  0
 19 20  2  0  0  0  0
 19 43  1  0  0  0  0
 20 21  1  0  0  0  0
 20 44  1  0  0  0  0
 21 22  2  0  0  0  0
 21 45  1  0  0  0  0
 22 15  1  0  0  0  0
 22 46  1  0  0  0  0
M  CHG  2   1  -1   6   1
M  END
>  <Mol_ID>
1247

>  <Formula>
C17H24BrNO3

>  <MolWeight>
370.28136

>  <Cat>
S4024

>  <Name>
Homatropine Methylbromide

>  <Synonyms>
N/A

>  <Target>
AChR

>  <Form>
quaternary-N bromide salt

>  <CAS>
80-49-9

>  <URL>
http://selleckchem.com/products/homatropine-methylbromide.html

$$$$
