Equol.cdx
 OpenBabel08302521593D

 32 34  0  0  0  0  0  0  0  0999 V2000
   -2.3305    0.6775   -0.3436 C   0  0  0  0  0  0  0  0  0  0  0  0
   -2.3793   -0.6452    0.4439 C   0  0  1  0  0  0  0  0  0  0  0  0
   -1.2444   -1.5063   -0.1400 C   0  0  0  0  0  0  0  0  0  0  0  0
    0.0471   -0.7306   -0.1639 C   0  0  0  0  0  0  0  0  0  0  0  0
    0.0278    0.6708   -0.1361 C   0  0  0  0  0  0  0  0  0  0  0  0
   -1.1214    1.4153   -0.1287 O   0  0  0  0  0  0  0  0  0  0  0  0
    1.2184    1.3882   -0.0520 C   0  0  0  0  0  0  0  0  0  0  0  0
    2.4297    0.7091   -0.0311 C   0  0  0  0  0  0  0  0  0  0  0  0
    2.4716   -0.6799   -0.0938 C   0  0  0  0  0  0  0  0  0  0  0  0
    1.2785   -1.4015   -0.1639 C   0  0  0  0  0  0  0  0  0  0  0  0
    3.5715    1.4508    0.0550 O   0  0  0  0  0  0  0  0  0  0  0  0
   -2.3471   -0.4036    1.9572 C   0  0  0  0  0  0  0  0  0  0  0  0
   -3.3642    0.3619    2.5568 C   0  0  0  0  0  0  0  0  0  0  0  0
   -3.3019    0.7086    3.9098 C   0  0  0  0  0  0  0  0  0  0  0  0
   -2.2311    0.2827    4.6817 C   0  0  0  0  0  0  0  0  0  0  0  0
   -1.2442   -0.5234    4.1342 C   0  0  0  0  0  0  0  0  0  0  0  0
   -1.3102   -0.8716    2.7847 C   0  0  0  0  0  0  0  0  0  0  0  0
   -2.1720    0.6871    5.9819 O   0  0  0  0  0  0  0  0  0  0  0  0
   -2.4279    0.4908   -1.4218 H   0  0  0  0  0  0  0  0  0  0  0  0
   -3.1639    1.3345   -0.0732 H   0  0  0  0  0  0  0  0  0  0  0  0
   -3.3272   -1.1574    0.2288 H   0  0  0  0  0  0  0  0  0  0  0  0
   -1.1385   -2.4424    0.4215 H   0  0  0  0  0  0  0  0  0  0  0  0
   -1.4863   -1.7806   -1.1747 H   0  0  0  0  0  0  0  0  0  0  0  0
    1.1981    2.4721    0.0085 H   0  0  0  0  0  0  0  0  0  0  0  0
    3.4155   -1.2154   -0.0773 H   0  0  0  0  0  0  0  0  0  0  0  0
    1.3109   -2.4877   -0.1896 H   0  0  0  0  0  0  0  0  0  0  0  0
    4.3338    0.8499    0.0588 H   0  0  0  0  0  0  0  0  0  0  0  0
   -4.2031    0.7275    1.9688 H   0  0  0  0  0  0  0  0  0  0  0  0
   -4.0735    1.3325    4.3516 H   0  0  0  0  0  0  0  0  0  0  0  0
   -0.4075   -0.8760    4.7291 H   0  0  0  0  0  0  0  0  0  0  0  0
   -0.5053   -1.4868    2.3929 H   0  0  0  0  0  0  0  0  0  0  0  0
   -1.2977    0.4495    6.3320 H   0  0  0  0  0  0  0  0  0  0  0  0
  1  2  1  0  0  0  0
  1  6  1  0  0  0  0
  1 19  1  0  0  0  0
  1 20  1  0  0  0  0
  2  3  1  0  0  0  0
  2 12  1  0  0  0  0
  2 21  1  6  0  0  0
  3  4  1  0  0  0  0
  3 22  1  0  0  0  0
  3 23  1  0  0  0  0
  4  5  2  0  0  0  0
  4 10  1  0  0  0  0
  5  6  1  0  0  0  0
  5  7  1  0  0  0  0
  7  8  2  0  0  0  0
  7 24  1  0  0  0  0
  8  9  1  0  0  0  0
  8 11  1  0  0  0  0
  9 10  2  0  0  0  0
  9 25  1  0  0  0  0
 10 26  1  0  0  0  0
 11 27  1  0  0  0  0
 12 13  2  0  0  0  0
 12 17  1  0  0  0  0
 13 14  1  0  0  0  0
 13 28  1  0  0  0  0
 14 15  2  0  0  0  0
 14 29  1  0  0  0  0
 15 16  1  0  0  0  0
 15 18  1  0  0  0  0
 16 17  2  0  0  0  0
 16 30  1  0  0  0  0
 17 31  1  0  0  0  0
 18 32  1  0  0  0  0
M  END
>  <Mol_ID>
1020

>  <Formula>
C15H14O3

>  <MolWeight>
242.26986

>  <Cat>
S2450

>  <Name>
Equol

>  <Synonyms>
N/A

>  <Target>
Estrogen/progestogen Receptor

>  <Form>
free base

>  <CAS>
531-95-3

>  <URL>
http://selleckchem.com/products/equol.html

$$$$
