(¡À)-Equol
 OpenBabel08302520403D

 32 34  0  0  0  0  0  0  0  0999 V2000
    0.0036   -0.6629   -0.0109 C   0  0  0  0  0  0  0  0  0  0  0  0
   -1.1547   -1.3945   -0.0406 O   0  0  0  0  0  0  0  0  0  0  0  0
    0.0339    0.7367    0.0295 C   0  0  0  0  0  0  0  0  0  0  0  0
   -1.2354    1.5384    0.0707 C   0  0  0  0  0  0  0  0  0  0  0  0
   -2.4399    0.6796   -0.3397 C   0  0  3  0  0  0  0  0  0  0  0  0
    1.1911   -1.3941   -0.0620 C   0  0  0  0  0  0  0  0  0  0  0  0
   -3.7537    1.3801   -0.0503 C   0  0  0  0  0  0  0  0  0  0  0  0
   -2.3239   -0.6730    0.3682 C   0  0  0  0  0  0  0  0  0  0  0  0
    1.2698    1.3965    0.0636 C   0  0  0  0  0  0  0  0  0  0  0  0
   -4.6534    1.6683   -1.0886 C   0  0  0  0  0  0  0  0  0  0  0  0
   -4.0877    1.7725    1.2559 C   0  0  0  0  0  0  0  0  0  0  0  0
    2.4085   -0.7208   -0.0376 C   0  0  0  0  0  0  0  0  0  0  0  0
   -6.1233    2.7805    0.4651 C   0  0  0  0  0  0  0  0  0  0  0  0
    2.4562    0.6660    0.0282 C   0  0  0  0  0  0  0  0  0  0  0  0
   -5.2656    2.4731    1.5146 C   0  0  0  0  0  0  0  0  0  0  0  0
   -5.8341    2.3703   -0.8296 C   0  0  0  0  0  0  0  0  0  0  0  0
    3.5952   -1.3917   -0.0756 O   0  0  0  0  0  0  0  0  0  0  0  0
   -7.2632    3.4981    0.6695 O   0  0  0  0  0  0  0  0  0  0  0  0
   -1.1589    2.4054   -0.5974 H   0  0  0  0  0  0  0  0  0  0  0  0
   -1.3446    1.9251    1.0919 H   0  0  0  0  0  0  0  0  0  0  0  0
   -2.3575    0.4961   -1.4212 H   0  0  0  0  0  0  0  0  0  0  0  0
    1.1457   -2.4768   -0.1115 H   0  0  0  0  0  0  0  0  0  0  0  0
   -2.3088   -0.5726    1.4617 H   0  0  0  0  0  0  0  0  0  0  0  0
   -3.1873   -1.3015    0.1215 H   0  0  0  0  0  0  0  0  0  0  0  0
    1.3134    2.4820    0.1140 H   0  0  0  0  0  0  0  0  0  0  0  0
   -4.4440    1.3603   -2.1110 H   0  0  0  0  0  0  0  0  0  0  0  0
   -3.4202    1.5487    2.0859 H   0  0  0  0  0  0  0  0  0  0  0  0
    3.4145    1.1763    0.0484 H   0  0  0  0  0  0  0  0  0  0  0  0
   -5.4924    2.7660    2.5340 H   0  0  0  0  0  0  0  0  0  0  0  0
   -6.5203    2.6073   -1.6383 H   0  0  0  0  0  0  0  0  0  0  0  0
    3.4084   -2.3459   -0.1196 H   0  0  0  0  0  0  0  0  0  0  0  0
   -7.2665    3.8131    1.5882 H   0  0  0  0  0  0  0  0  0  0  0  0
  2  1  1  0  0  0  0
  3  1  2  0  0  0  0
  4  3  1  0  0  0  0
  4 19  1  0  0  0  0
  4 20  1  0  0  0  0
  5  4  1  0  0  0  0
  5  8  1  0  0  0  0
  5 21  1  0  0  0  0
  6  1  1  0  0  0  0
  6 22  1  0  0  0  0
  7  5  1  0  0  0  0
  8  2  1  0  0  0  0
  8 23  1  0  0  0  0
  8 24  1  0  0  0  0
  9  3  1  0  0  0  0
  9 25  1  0  0  0  0
 10  7  2  0  0  0  0
 10 26  1  0  0  0  0
 11  7  1  0  0  0  0
 11 27  1  0  0  0  0
 12  6  2  0  0  0  0
 13 15  1  0  0  0  0
 13 16  2  0  0  0  0
 14 12  1  0  0  0  0
 14  9  2  0  0  0  0
 14 28  1  0  0  0  0
 15 11  2  0  0  0  0
 15 29  1  0  0  0  0
 16 10  1  0  0  0  0
 16 30  1  0  0  0  0
 17 12  1  0  0  0  0
 17 31  1  0  0  0  0
 18 13  1  0  0  0  0
 18 32  1  0  0  0  0
M  END
>  <Mol_ID>
3852

>  <Formula>
C15H14O3

>  <MolWeight>
242.26986

>  <Cat>
S6601

>  <Name>
(¡À)-Equol

>  <Synonyms>
N/A

>  <Target>
Estrogen/progestogen Receptor

>  <Form>
free base

>  <CAS>
94105-90-5

>  <URL>
https://www.selleckchem.com/products/equol-1.html

$$$$
