ER-000444793
 OpenBabel08302521353D

 45 48  0  0  0  0  0  0  0  0999 V2000
    2.9172   -1.0809   -0.7433 O   0  0  0  0  0  0  0  0  0  0  0  0
   -1.7655    1.5605    1.5703 O   0  0  0  0  0  0  0  0  0  0  0  0
    2.9975    0.1863    1.1819 N   0  0  0  0  0  0  0  0  0  0  0  0
   -1.9553   -0.1428    0.0832 N   0  0  0  0  0  0  0  0  0  0  0  0
    5.1849    0.8406    0.1711 C   0  0  0  0  0  0  0  0  0  0  0  0
    4.6177    1.5152   -1.0651 C   0  0  0  0  0  0  0  0  0  0  0  0
    4.4062    0.3107    1.2206 C   0  0  0  0  0  0  0  0  0  0  0  0
   -0.0141   -1.4740   -0.5042 C   0  0  0  0  0  0  0  0  0  0  0  0
    0.8310   -0.5182    0.2632 C   0  0  0  0  0  0  0  0  0  0  0  0
   -1.3916   -1.2116   -0.6217 C   0  0  0  0  0  0  0  0  0  0  0  0
    4.3586    3.0134   -0.9988 C   0  0  0  0  0  0  0  0  0  0  0  0
    2.3392   -0.4911    0.1665 C   0  0  0  0  0  0  0  0  0  0  0  0
    6.5903    0.8122    0.3041 C   0  0  0  0  0  0  0  0  0  0  0  0
    5.0308   -0.1349    2.3957 C   0  0  0  0  0  0  0  0  0  0  0  0
    0.2240    0.4896    0.9195 C   0  0  0  0  0  0  0  0  0  0  0  0
    0.4797   -2.6203   -1.1433 C   0  0  0  0  0  0  0  0  0  0  0  0
   -2.2268   -2.0082   -1.4093 C   0  0  0  0  0  0  0  0  0  0  0  0
   -1.2410    0.6766    0.8999 C   0  0  0  0  0  0  0  0  0  0  0  0
    7.2023    0.3063    1.4505 C   0  0  0  0  0  0  0  0  0  0  0  0
    6.4213   -0.1559    2.5023 C   0  0  0  0  0  0  0  0  0  0  0  0
    5.0875    3.8952   -0.1896 C   0  0  0  0  0  0  0  0  0  0  0  0
    3.4073    3.5582   -1.8808 C   0  0  0  0  0  0  0  0  0  0  0  0
   -0.3546   -3.4259   -1.9309 C   0  0  0  0  0  0  0  0  0  0  0  0
   -1.7013   -3.1093   -2.0787 C   0  0  0  0  0  0  0  0  0  0  0  0
    4.8624    5.2759   -0.2523 C   0  0  0  0  0  0  0  0  0  0  0  0
    3.1832    4.9344   -1.9435 C   0  0  0  0  0  0  0  0  0  0  0  0
    3.9127    5.7949   -1.1292 C   0  0  0  0  0  0  0  0  0  0  0  0
    2.5325    0.1738    2.0807 H   0  0  0  0  0  0  0  0  0  0  0  0
   -2.9511    0.0276    0.0404 H   0  0  0  0  0  0  0  0  0  0  0  0
    5.3039    1.3392   -1.9050 H   0  0  0  0  0  0  0  0  0  0  0  0
    3.6880    1.0319   -1.3650 H   0  0  0  0  0  0  0  0  0  0  0  0
    7.2190    1.2042   -0.4944 H   0  0  0  0  0  0  0  0  0  0  0  0
    4.4430   -0.5337    3.2185 H   0  0  0  0  0  0  0  0  0  0  0  0
    0.7477    1.2774    1.4468 H   0  0  0  0  0  0  0  0  0  0  0  0
    1.5237   -2.9108   -1.0592 H   0  0  0  0  0  0  0  0  0  0  0  0
   -3.2838   -1.7786   -1.5125 H   0  0  0  0  0  0  0  0  0  0  0  0
    8.2865    0.2829    1.5231 H   0  0  0  0  0  0  0  0  0  0  0  0
    6.8929   -0.5522    3.3974 H   0  0  0  0  0  0  0  0  0  0  0  0
    5.8488    3.5291    0.4944 H   0  0  0  0  0  0  0  0  0  0  0  0
    2.8405    2.9049   -2.5441 H   0  0  0  0  0  0  0  0  0  0  0  0
    0.0589   -4.2944   -2.4389 H   0  0  0  0  0  0  0  0  0  0  0  0
   -2.3409   -3.7243   -2.7078 H   0  0  0  0  0  0  0  0  0  0  0  0
    5.4388    5.9479    0.3786 H   0  0  0  0  0  0  0  0  0  0  0  0
    2.4471    5.3343   -2.6368 H   0  0  0  0  0  0  0  0  0  0  0  0
    3.7470    6.8677   -1.1828 H   0  0  0  0  0  0  0  0  0  0  0  0
  1 12  2  0  0  0  0
  2 18  2  0  0  0  0
  3  7  1  0  0  0  0
  3 12  1  0  0  0  0
  3 28  1  0  0  0  0
  4 10  1  0  0  0  0
  4 18  1  0  0  0  0
  4 29  1  0  0  0  0
  5  6  1  0  0  0  0
  5  7  1  0  0  0  0
  5 13  2  0  0  0  0
  6 11  1  0  0  0  0
  6 30  1  0  0  0  0
  6 31  1  0  0  0  0
  7 14  2  0  0  0  0
  8  9  1  0  0  0  0
  8 10  2  0  0  0  0
  8 16  1  0  0  0  0
  9 12  1  0  0  0  0
  9 15  2  0  0  0  0
 10 17  1  0  0  0  0
 11 21  2  0  0  0  0
 11 22  1  0  0  0  0
 13 19  1  0  0  0  0
 13 32  1  0  0  0  0
 14 20  1  0  0  0  0
 14 33  1  0  0  0  0
 15 18  1  0  0  0  0
 15 34  1  0  0  0  0
 16 23  2  0  0  0  0
 16 35  1  0  0  0  0
 17 24  2  0  0  0  0
 17 36  1  0  0  0  0
 19 20  2  0  0  0  0
 19 37  1  0  0  0  0
 20 38  1  0  0  0  0
 21 25  1  0  0  0  0
 21 39  1  0  0  0  0
 22 26  2  0  0  0  0
 22 40  1  0  0  0  0
 23 24  1  0  0  0  0
 23 41  1  0  0  0  0
 24 42  1  0  0  0  0
 25 27  2  0  0  0  0
 25 43  1  0  0  0  0
 26 27  1  0  0  0  0
 26 44  1  0  0  0  0
 27 45  1  0  0  0  0
M  END
>  <Mol_ID>
6687

>  <Formula>
C23H18N2O2

>  <MolWeight>
354.40122

>  <Cat>
S6036

>  <Name>
ER-000444793

>  <Synonyms>
N/A

>  <Target>
Mitochondrial Metabolism

>  <Form>
Free base

>  <CAS>
792957-74-5

>  <URL>
http://www.selleckchem.com/products/er-000444793.html

$$$$
