ErbB2 inhibitor
 OpenBabel08302521323D

 50 53  0  0  0  0  0  0  0  0999 V2000
    0.7937   -0.1424   -0.0068 N   0  0  0  0  0  0  0  0  0  0  0  0
    3.4456   -4.1882    0.4480 O   0  0  0  0  0  0  0  0  0  0  0  0
    4.2489   -5.3044    0.7058 C   0  0  0  0  0  0  0  0  0  0  0  0
    1.9947   -6.2284   -1.7756 O   0  0  0  0  0  0  0  0  0  0  0  0
    2.9626   -7.1119   -1.2749 C   0  0  0  0  0  0  0  0  0  0  0  0
   -2.0820    3.7301    2.8168 O   0  0  0  0  0  0  0  0  0  0  0  0
   -1.2855    4.6092    3.6275 C   0  0  0  0  0  0  0  0  0  0  0  0
    0.8332   -2.3060   -1.0971 C   0  0  0  0  0  0  0  0  0  0  0  0
    0.2209   -3.1421   -2.0140 C   0  0  0  0  0  0  0  0  0  0  0  0
    0.2680   -1.0358   -0.9671 C   0  0  0  0  0  0  0  0  0  0  0  0
    1.9181   -2.7905   -0.3352 C   0  0  0  0  0  0  0  0  0  0  0  0
    0.7291   -4.4256   -2.1319 C   0  0  0  0  0  0  0  0  0  0  0  0
   -0.8374   -2.7664   -2.7476 N   0  0  0  0  0  0  0  0  0  0  0  0
   -0.7923   -0.6384   -1.6943 N   0  0  0  0  0  0  0  0  0  0  0  0
    2.4307   -4.0992   -0.4474 C   0  0  0  0  0  0  0  0  0  0  0  0
    1.8219   -4.9445   -1.3749 C   0  0  0  0  0  0  0  0  0  0  0  0
   -1.2981   -1.5269   -2.5476 C   0  0  0  0  0  0  0  0  0  0  0  0
    0.0629    0.8467    0.6668 C   0  0  0  0  0  0  0  0  0  0  0  0
   -1.2999    0.6851    0.9719 C   0  0  0  0  0  0  0  0  0  0  0  0
    0.7132    1.9880    1.1237 C   0  0  0  0  0  0  0  0  0  0  0  0
   -2.0048    1.6599    1.6801 C   0  0  0  0  0  0  0  0  0  0  0  0
    0.0128    2.9705    1.8140 C   0  0  0  0  0  0  0  0  0  0  0  0
   -1.3533    2.8092    2.1129 C   0  0  0  0  0  0  0  0  0  0  0  0
   -2.0784    5.2463    4.7416 C   0  0  0  0  0  0  0  0  0  0  0  0
   -1.4417    5.4958    5.9686 C   0  0  0  0  0  0  0  0  0  0  0  0
   -3.4131    5.6285    4.5813 C   0  0  0  0  0  0  0  0  0  0  0  0
   -2.1440    6.0556    7.0338 C   0  0  0  0  0  0  0  0  0  0  0  0
   -4.1194    6.1783    5.6539 C   0  0  0  0  0  0  0  0  0  0  0  0
   -3.4883    6.3827    6.8809 C   0  0  0  0  0  0  0  0  0  0  0  0
    1.7441    0.1166   -0.2426 H   0  0  0  0  0  0  0  0  0  0  0  0
    3.6641   -6.1398    1.0861 H   0  0  0  0  0  0  0  0  0  0  0  0
    4.8756   -5.5440   -0.1533 H   0  0  0  0  0  0  0  0  0  0  0  0
    4.9366   -5.0281    1.5136 H   0  0  0  0  0  0  0  0  0  0  0  0
    3.9669   -6.7455   -1.4760 H   0  0  0  0  0  0  0  0  0  0  0  0
    2.7703   -7.3503   -0.2294 H   0  0  0  0  0  0  0  0  0  0  0  0
    2.8666   -8.0542   -1.8246 H   0  0  0  0  0  0  0  0  0  0  0  0
   -0.4854    4.0256    4.1036 H   0  0  0  0  0  0  0  0  0  0  0  0
   -0.8462    5.4013    3.0091 H   0  0  0  0  0  0  0  0  0  0  0  0
    2.3701   -2.1307    0.4079 H   0  0  0  0  0  0  0  0  0  0  0  0
    0.2400   -5.0836   -2.8502 H   0  0  0  0  0  0  0  0  0  0  0  0
   -2.1640   -1.2141   -3.1163 H   0  0  0  0  0  0  0  0  0  0  0  0
   -1.8212   -0.2149    0.6527 H   0  0  0  0  0  0  0  0  0  0  0  0
    1.7717    2.1425    0.9317 H   0  0  0  0  0  0  0  0  0  0  0  0
   -3.0595    1.4964    1.8973 H   0  0  0  0  0  0  0  0  0  0  0  0
    0.5564    3.8558    2.1101 H   0  0  0  0  0  0  0  0  0  0  0  0
   -0.3931    5.2388    6.1067 H   0  0  0  0  0  0  0  0  0  0  0  0
   -3.9164    5.4838    3.6276 H   0  0  0  0  0  0  0  0  0  0  0  0
   -1.6447    6.2241    7.9844 H   0  0  0  0  0  0  0  0  0  0  0  0
   -5.1678    6.4374    5.5351 H   0  0  0  0  0  0  0  0  0  0  0  0
   -4.0440    6.7969    7.7173 H   0  0  0  0  0  0  0  0  0  0  0  0
  1 10  1  0  0  0  0
  1 18  1  0  0  0  0
  1 30  1  0  0  0  0
  2  3  1  0  0  0  0
  2 15  1  0  0  0  0
  3 31  1  0  0  0  0
  3 32  1  0  0  0  0
  3 33  1  0  0  0  0
  4  5  1  0  0  0  0
  4 16  1  0  0  0  0
  5 34  1  0  0  0  0
  5 35  1  0  0  0  0
  5 36  1  0  0  0  0
  6  7  1  0  0  0  0
  6 23  1  0  0  0  0
  7 24  1  0  0  0  0
  7 37  1  0  0  0  0
  7 38  1  0  0  0  0
  8  9  1  0  0  0  0
  8 10  1  0  0  0  0
  8 11  2  0  0  0  0
  9 12  2  0  0  0  0
  9 13  1  0  0  0  0
 10 14  2  0  0  0  0
 11 15  1  0  0  0  0
 11 39  1  0  0  0  0
 12 16  1  0  0  0  0
 12 40  1  0  0  0  0
 13 17  2  0  0  0  0
 14 17  1  0  0  0  0
 15 16  2  0  0  0  0
 17 41  1  0  0  0  0
 18 19  2  0  0  0  0
 18 20  1  0  0  0  0
 19 21  1  0  0  0  0
 19 42  1  0  0  0  0
 20 22  2  0  0  0  0
 20 43  1  0  0  0  0
 21 23  2  0  0  0  0
 21 44  1  0  0  0  0
 22 23  1  0  0  0  0
 22 45  1  0  0  0  0
 24 25  2  0  0  0  0
 24 26  1  0  0  0  0
 25 27  1  0  0  0  0
 25 46  1  0  0  0  0
 26 28  2  0  0  0  0
 26 47  1  0  0  0  0
 27 29  2  0  0  0  0
 27 48  1  0  0  0  0
 28 29  1  0  0  0  0
 28 49  1  0  0  0  0
 29 50  1  0  0  0  0
M  END
>  <Mol_ID>
6254

>  <Formula>
C23H21N3O3

>  <MolWeight>
387.43114

>  <Cat>
E0344

>  <Name>
ErbB2 inhibitor

>  <Synonyms>
N/A

>  <Target>
EGFR

>  <Form>
free base

>  <CAS>
179248-61-4

>  <URL>
http://www.selleckchem.com/products/erbb2-inhibitor.html

$$$$
