Erdosteine.cdx
 OpenBabel08302521443D

 26 26  0  0  0  0  0  0  0  0999 V2000
   -2.3076   -0.4394    0.6144 S   0  0  0  0  0  0  0  0  0  0  0  0
   -0.7253   -0.2565   -0.1465 C   0  0  0  0  0  0  0  0  0  0  0  0
   -0.0449   -1.6052   -0.3431 C   0  0  3  0  0  0  0  0  0  0  0  0
   -0.7973   -2.5789    0.5638 C   0  0  0  0  0  0  0  0  0  0  0  0
   -2.2730   -2.2455    0.4703 C   0  0  0  0  0  0  0  0  0  0  0  0
   -0.3383    0.8040   -0.6130 O   0  0  0  0  0  0  0  0  0  0  0  0
   -0.0962   -1.9606   -1.7618 N   0  0  0  0  0  0  0  0  0  0  0  0
    0.5244   -3.0951   -2.2324 C   0  0  0  0  0  0  0  0  0  0  0  0
    0.4391   -3.2963   -3.7343 C   0  0  0  0  0  0  0  0  0  0  0  0
    1.8437   -2.5206   -4.5895 S   0  0  0  0  0  0  0  0  0  0  0  0
    3.2146   -3.4904   -3.8494 C   0  0  0  0  0  0  0  0  0  0  0  0
    4.5540   -3.1240   -4.4619 C   0  0  0  0  0  0  0  0  0  0  0  0
    4.4857   -2.6379   -5.7239 O   0  0  0  0  0  0  0  0  0  0  0  0
    1.1011   -3.8956   -1.5013 O   0  0  0  0  0  0  0  0  0  0  0  0
    5.6227   -3.3110   -3.8983 O   0  0  0  0  0  0  0  0  0  0  0  0
    1.0058   -1.5339   -0.0431 H   0  0  0  0  0  0  0  0  0  0  0  0
   -0.6246   -3.6278    0.3077 H   0  0  0  0  0  0  0  0  0  0  0  0
   -0.4561   -2.4517    1.6031 H   0  0  0  0  0  0  0  0  0  0  0  0
   -2.6869   -2.5447   -0.4978 H   0  0  0  0  0  0  0  0  0  0  0  0
   -2.8538   -2.7172    1.2673 H   0  0  0  0  0  0  0  0  0  0  0  0
   -0.2191   -1.1938   -2.4233 H   0  0  0  0  0  0  0  0  0  0  0  0
    0.4007   -4.3673   -3.9531 H   0  0  0  0  0  0  0  0  0  0  0  0
   -0.4899   -2.8546   -4.1106 H   0  0  0  0  0  0  0  0  0  0  0  0
    3.2699   -3.2769   -2.7809 H   0  0  0  0  0  0  0  0  0  0  0  0
    3.0436   -4.5579   -4.0232 H   0  0  0  0  0  0  0  0  0  0  0  0
    3.5510   -2.5073   -5.9932 H   0  0  0  0  0  0  0  0  0  0  0  0
  1  2  1  0  0  0  0
  2  3  1  0  0  0  0
  2  6  2  0  0  0  0
  3  4  1  0  0  0  0
  3  7  1  0  0  0  0
  3 16  1  0  0  0  0
  4  5  1  0  0  0  0
  4 17  1  0  0  0  0
  4 18  1  0  0  0  0
  5  1  1  0  0  0  0
  5 19  1  0  0  0  0
  5 20  1  0  0  0  0
  7  8  1  0  0  0  0
  7 21  1  0  0  0  0
  8  9  1  0  0  0  0
  8 14  2  0  0  0  0
  9 10  1  0  0  0  0
  9 22  1  0  0  0  0
  9 23  1  0  0  0  0
 10 11  1  0  0  0  0
 11 12  1  0  0  0  0
 11 24  1  0  0  0  0
 11 25  1  0  0  0  0
 12 13  1  0  0  0  0
 12 15  2  0  0  0  0
 13 26  1  0  0  0  0
M  END
>  <Mol_ID>
897

>  <Formula>
C8H11NO4S2

>  <MolWeight>
249.30724

>  <Cat>
S1825

>  <Name>
Erdosteine

>  <Synonyms>
KW-9144,RV 144

>  <Target>
NF-¦ÊB

>  <Form>
free base

>  <CAS>
84611-23-4

>  <URL>
http://selleckchem.com/products/erdosteine.html

$$$$
