ERG240
 OpenBabel08302521333D

 22 21  0  0  0  0  0  0  0  0999 V2000
    0.9262   -0.0598    0.0181 C   0  0  3  0  0  0  0  0  0  0  0  0
    0.2621    1.3324    0.0890 C   0  0  0  0  0  0  0  0  0  0  0  0
    0.6376   -0.7281   -1.3324 C   0  0  0  0  0  0  0  0  0  0  0  0
    0.4655   -0.9644    1.1607 C   0  0  0  0  0  0  0  0  0  0  0  0
    0.5057    2.0619    1.4098 C   0  0  0  0  0  0  0  0  0  0  0  0
    1.2280   -2.0950   -1.5808 C   0  0  0  0  0  0  0  0  0  0  0  0
   -0.0625   -0.1876   -2.1918 O   0  0  0  0  0  0  0  0  0  0  0  0
   -0.0715    3.4565    1.4248 C   0  0  0  0  0  0  0  0  0  0  0  0
   -1.4180    3.4915    1.3234 O   0  0  0  0  0  0  0  0  0  0  0  0
    0.5992    4.4656    1.5757 O   0  0  0  0  0  0  0  0  0  0  0  0
    2.0145    0.0687    0.0760 H   0  0  0  0  0  0  0  0  0  0  0  0
    0.6325    1.9546   -0.7372 H   0  0  0  0  0  0  0  0  0  0  0  0
   -0.8171    1.2287   -0.0819 H   0  0  0  0  0  0  0  0  0  0  0  0
    0.8337   -1.9884    1.0500 H   0  0  0  0  0  0  0  0  0  0  0  0
    0.8364   -0.6009    2.1242 H   0  0  0  0  0  0  0  0  0  0  0  0
   -0.6281   -1.0101    1.2066 H   0  0  0  0  0  0  0  0  0  0  0  0
    0.0792    1.5235    2.2613 H   0  0  0  0  0  0  0  0  0  0  0  0
    1.5847    2.1472    1.5879 H   0  0  0  0  0  0  0  0  0  0  0  0
    0.5849   -2.8580   -1.1353 H   0  0  0  0  0  0  0  0  0  0  0  0
    1.3012   -2.2740   -2.6572 H   0  0  0  0  0  0  0  0  0  0  0  0
    2.2326   -2.1559   -1.1555 H   0  0  0  0  0  0  0  0  0  0  0  0
   -1.8408    2.6175    1.2341 H   0  0  0  0  0  0  0  0  0  0  0  0
  1  2  1  0  0  0  0
  1  3  1  0  0  0  0
  1  4  1  0  0  0  0
  1 11  1  0  0  0  0
  2  5  1  0  0  0  0
  2 12  1  0  0  0  0
  2 13  1  0  0  0  0
  3  6  1  0  0  0  0
  3  7  2  0  0  0  0
  4 14  1  0  0  0  0
  4 15  1  0  0  0  0
  4 16  1  0  0  0  0
  5  8  1  0  0  0  0
  5 17  1  0  0  0  0
  5 18  1  0  0  0  0
  6 19  1  0  0  0  0
  6 20  1  0  0  0  0
  6 21  1  0  0  0  0
  8  9  1  0  0  0  0
  8 10  2  0  0  0  0
  9 22  1  0  0  0  0
M  END
>  <Mol_ID>
6384

>  <Formula>
C7H12NaO3

>  <MolWeight>
167.15815

>  <Cat>
E1017

>  <Name>
ERG240

>  <Target>
Transferase

>  <Form>
free base

>  <CAS>
1415683-79-2

>  <URL>
http://www.selleckchem.com/products/erg240.html

$$$$
