Eriocalyxin B
 OpenBabel08302522062D

 49 53  0  0  1  0  0  0  0  0999 V2000
    5.1071    5.3710    0.0000 O   0  0  0  0  0  0  0  0  0  0  0  0
    6.9270    4.5891    0.0000 O   0  0  0  0  0  0  0  0  0  0  0  0
    5.3772    4.6040    0.0000 O   0  0  0  0  0  0  0  0  0  0  0  0
    8.9838    2.2544    0.0000 C   0  0  0  0  0  0  0  0  0  0  0  0
    0.0000    2.2122    0.0000 O   0  0  0  0  0  0  0  0  0  0  0  0
    5.0159    4.0690    0.0000 C   0  0  0  0  0  0  0  0  0  0  0  0
    4.1160    5.6277    0.0000 C   0  0  0  0  0  0  0  0  0  0  0  0
    5.1027    2.8143    0.0000 C   0  0  1  0  0  0  0  0  0  0  0  0
    3.9257    1.6314    0.0000 C   0  0  2  0  0  0  0  0  0  0  0  0
    4.2074    4.2984    0.0000 C   0  0  2  0  0  0  0  0  0  0  0  0
    6.1335    2.2670    0.0000 C   0  0  0  0  0  0  0  0  0  0  0  0
    6.5657    3.2365    0.0000 C   0  0  0  0  0  0  0  0  0  0  0  0
    2.4248    2.2122    0.0000 C   0  0  2  0  0  0  0  0  0  0  0  0
    4.3194    0.2394    0.0000 C   0  0  0  0  0  0  0  0  0  0  0  0
    4.1094    4.0102    0.0000 C   0  0  3  0  0  0  0  0  0  0  0  0
    2.8274    4.8307    0.0000 O   0  0  0  0  0  0  0  0  0  0  0  0
    6.6820    1.0189    0.0000 C   0  0  3  0  0  0  0  0  0  0  0  0
    7.5859    2.1799    0.0000 C   0  0  0  0  0  0  0  0  0  0  0  0
    3.6372    2.9122    0.0000 C   0  0  2  0  0  0  0  0  0  0  0  0
    1.6696    3.5558    0.0000 C   0  0  0  0  0  0  0  0  0  0  0  0
    1.2124    2.9122    0.0000 C   0  0  0  0  0  0  0  0  0  0  0  0
    5.7148    0.0000    0.0000 C   0  0  0  0  0  0  0  0  0  0  0  0
    3.6372    4.3122    0.0000 C   0  0  0  0  0  0  0  0  0  0  0  0
    1.2124    4.3122    0.0000 C   0  0  0  0  0  0  0  0  0  0  0  0
    2.4248    5.0121    0.0000 C   0  0  0  0  0  0  0  0  0  0  0  0
    6.0624    5.2027    0.0000 H   0  0  0  0  0  0  0  0  0  0  0  0
    6.1727    4.0490    0.0000 H   0  0  0  0  0  0  0  0  0  0  0  0
    9.5466    1.3894    0.0000 H   0  0  0  0  0  0  0  0  0  0  0  0
    9.4515    3.1743    0.0000 H   0  0  0  0  0  0  0  0  0  0  0  0
    5.3818    3.0635    0.0000 H   0  0  0  0  0  0  0  0  0  0  0  0
    5.7037    4.8886    0.0000 H   0  0  0  0  0  0  0  0  0  0  0  0
    6.0696    3.8831    0.0000 H   0  0  0  0  0  0  0  0  0  0  0  0
    5.1697    5.8135    0.0000 H   0  0  0  0  0  0  0  0  0  0  0  0
    3.4282    6.4474    0.0000 H   0  0  0  0  0  0  0  0  0  0  0  0
    4.4820    6.6332    0.0000 H   0  0  0  0  0  0  0  0  0  0  0  0
    4.9615    1.3629    0.0000 H   0  0  0  0  0  0  0  0  0  0  0  0
    6.9176    2.9951    0.0000 H   0  0  0  0  0  0  0  0  0  0  0  0
    7.1813    2.0500    0.0000 H   0  0  0  0  0  0  0  0  0  0  0  0
    3.6038   -0.5561    0.0000 H   0  0  0  0  0  0  0  0  0  0  0  0
    4.6703   -0.7714    0.0000 H   0  0  0  0  0  0  0  0  0  0  0  0
    4.8232    4.8073    0.0000 H   0  0  0  0  0  0  0  0  0  0  0  0
    6.8141    2.0807    0.0000 H   0  0  0  0  0  0  0  0  0  0  0  0
    2.7105    3.4472    0.0000 H   0  0  0  0  0  0  0  0  0  0  0  0
    0.6064    3.6760    0.0000 H   0  0  0  0  0  0  0  0  0  0  0  0
    1.2922    4.5570    0.0000 H   0  0  0  0  0  0  0  0  0  0  0  0
    6.0522   -1.0154    0.0000 H   0  0  0  0  0  0  0  0  0  0  0  0
    6.7592   -0.2328    0.0000 H   0  0  0  0  0  0  0  0  0  0  0  0
    0.3187    4.8282    0.0000 H   0  0  0  0  0  0  0  0  0  0  0  0
    2.4248    6.0441    0.0000 H   0  0  0  0  0  0  0  0  0  0  0  0
  1 26  1  0  0  0  0
  2 12  2  0  0  0  0
  3 27  1  0  0  0  0
  4 18  2  0  0  0  0
  4 28  1  0  0  0  0
  4 29  1  0  0  0  0
  5 21  2  0  0  0  0
  6 23  1  0  0  0  0
  6 30  1  0  0  0  0
  6 31  1  0  0  0  0
  6 32  1  0  0  0  0
  7 23  1  0  0  0  0
  7 33  1  0  0  0  0
  7 34  1  0  0  0  0
  7 35  1  0  0  0  0
  8  9  1  0  0  0  0
  8 10  1  0  0  0  0
  8 11  1  0  0  0  0
  8 12  1  6  0  0  0
  9 13  1  0  0  0  0
  9 14  1  0  0  0  0
  9 36  1  6  0  0  0
 10  1  1  6  0  0  0
 10 15  1  0  0  0  0
 10 16  1  0  0  0  0
 11 37  1  0  0  0  0
 11 38  1  0  0  0  0
 12 18  1  0  0  0  0
 13 19  1  0  0  0  0
 13 20  1  0  0  0  0
 13 21  1  6  0  0  0
 14 22  1  0  0  0  0
 14 39  1  0  0  0  0
 14 40  1  0  0  0  0
 15  3  1  0  0  0  0
 15 19  1  0  0  0  0
 15 41  1  0  0  0  0
 16 20  1  0  0  0  0
 17 11  1  0  0  0  0
 17 18  1  0  0  0  0
 17 22  1  0  0  0  0
 17 42  1  0  0  0  0
 19 23  1  0  0  0  0
 19 43  1  6  0  0  0
 20 44  1  0  0  0  0
 20 45  1  0  0  0  0
 21 24  1  0  0  0  0
 22 46  1  0  0  0  0
 22 47  1  0  0  0  0
 23 25  1  0  0  0  0
 24 25  2  0  0  0  0
 24 48  1  0  0  0  0
 25 49  1  0  0  0  0
M  END
>  <Mol_ID>
10055

>  <Formula>
C20H24O5

>  <MolWeight>
344.40156

>  <Cat>
E5621

>  <Name>
Eriocalyxin B

>  <Synonyms>
N/A

>  <Target>
FABP, PPAR

>  <Form>
free base

>  <CAS>
84745-95-9

>  <URL>
https://www.selleckchem.com/products/eriocalyxin-b.html

$$$$
