ERK5-IN-2
 OpenBabel08302521243D

 35 37  0  0  0  0  0  0  0  0999 V2000
   -1.8966    0.5724   -1.0245 Br  0  0  0  0  0  0  0  0  0  0  0  0
    3.0879    0.9505    0.7783 F   0  0  0  0  0  0  0  0  0  0  0  0
   -0.4447    2.4061    1.0248 O   0  0  0  0  0  0  0  0  0  0  0  0
    4.8677    6.2247   -0.8424 O   0  0  0  0  0  0  0  0  0  0  0  0
    2.6409    5.1786    0.3901 N   0  0  0  0  0  0  0  0  0  0  0  0
    4.9373    4.4931   -2.3788 N   0  0  0  0  0  0  0  0  0  0  0  0
    7.1114    4.7419   -5.3561 N   0  0  0  0  0  0  0  0  0  0  0  0
    1.5595    3.2435    0.1269 C   0  0  0  0  0  0  0  0  0  0  0  0
    3.2917    4.5326   -0.6404 C   0  0  0  0  0  0  0  0  0  0  0  0
    2.6264    3.3289   -0.8257 C   0  0  0  0  0  0  0  0  0  0  0  0
    1.5934    4.4295    0.8368 C   0  0  0  0  0  0  0  0  0  0  0  0
    0.5833    2.1817    0.3919 C   0  0  0  0  0  0  0  0  0  0  0  0
    0.8520    0.7945   -0.0553 C   0  0  0  0  0  0  0  0  0  0  0  0
    4.4385    5.1570   -1.2725 C   0  0  0  0  0  0  0  0  0  0  0  0
   -0.1364   -0.0232   -0.6184 C   0  0  0  0  0  0  0  0  0  0  0  0
    2.1191    0.2432    0.1817 C   0  0  0  0  0  0  0  0  0  0  0  0
    6.0048    4.9298   -3.1955 C   0  0  0  0  0  0  0  0  0  0  0  0
    0.1546   -1.3562   -0.9503 C   0  0  0  0  0  0  0  0  0  0  0  0
    2.4134   -1.0722   -0.1722 C   0  0  0  0  0  0  0  0  0  0  0  0
    1.4301   -1.8774   -0.7365 C   0  0  0  0  0  0  0  0  0  0  0  0
    6.8999    5.9361   -2.8377 C   0  0  0  0  0  0  0  0  0  0  0  0
    6.1809    4.3508   -4.4511 C   0  0  0  0  0  0  0  0  0  0  0  0
    7.8674    6.3642   -3.7456 C   0  0  0  0  0  0  0  0  0  0  0  0
    7.9220    5.7560   -4.9861 C   0  0  0  0  0  0  0  0  0  0  0  0
    2.9232    6.0853    0.7480 H   0  0  0  0  0  0  0  0  0  0  0  0
    4.4039    3.7030   -2.7128 H   0  0  0  0  0  0  0  0  0  0  0  0
    2.8875    2.5698   -1.5501 H   0  0  0  0  0  0  0  0  0  0  0  0
    0.9651    4.7818    1.6457 H   0  0  0  0  0  0  0  0  0  0  0  0
   -0.6129   -2.0015   -1.3763 H   0  0  0  0  0  0  0  0  0  0  0  0
    3.4110   -1.4638    0.0123 H   0  0  0  0  0  0  0  0  0  0  0  0
    1.6503   -2.9102   -0.9963 H   0  0  0  0  0  0  0  0  0  0  0  0
    6.8753    6.4062   -1.8602 H   0  0  0  0  0  0  0  0  0  0  0  0
    5.5424    3.5443   -4.7996 H   0  0  0  0  0  0  0  0  0  0  0  0
    8.5544    7.1631   -3.4856 H   0  0  0  0  0  0  0  0  0  0  0  0
    8.6390    6.0788   -5.7357 H   0  0  0  0  0  0  0  0  0  0  0  0
  1 15  1  0  0  0  0
  2 16  1  0  0  0  0
  3 12  2  0  0  0  0
  4 14  2  0  0  0  0
  5  9  1  0  0  0  0
  5 11  1  0  0  0  0
  5 25  1  0  0  0  0
  6 14  1  0  0  0  0
  6 17  1  0  0  0  0
  6 26  1  0  0  0  0
  7 22  2  0  0  0  0
  7 24  1  0  0  0  0
  8 10  1  0  0  0  0
  8 11  2  0  0  0  0
  8 12  1  0  0  0  0
  9 10  2  0  0  0  0
  9 14  1  0  0  0  0
 10 27  1  0  0  0  0
 11 28  1  0  0  0  0
 12 13  1  0  0  0  0
 13 15  2  0  0  0  0
 13 16  1  0  0  0  0
 15 18  1  0  0  0  0
 16 19  2  0  0  0  0
 17 21  2  0  0  0  0
 17 22  1  0  0  0  0
 18 20  2  0  0  0  0
 18 29  1  0  0  0  0
 19 20  1  0  0  0  0
 19 30  1  0  0  0  0
 20 31  1  0  0  0  0
 21 23  1  0  0  0  0
 21 32  1  0  0  0  0
 22 33  1  0  0  0  0
 23 24  2  0  0  0  0
 23 34  1  0  0  0  0
 24 35  1  0  0  0  0
M  END
>  <Mol_ID>
4933

>  <Formula>
C17H11BrFN3O2

>  <MolWeight>
388.1905432

>  <Cat>
S6786

>  <Name>
ERK5-IN-2

>  <Synonyms>
N/A

>  <Target>
ERK

>  <Form>
Free Base

>  <CAS>
1888305-96-1

>  <URL>
http://www.selleckchem.com/products/erk5-in-2.html

$$$$
