Erythorbic Acid
 OpenBabel08302521363D

 20 20  0  0  1  0  0  0  0  0999 V2000
    0.8827    0.0490   -0.0652 C   0  0  1  0  0  0  0  0  0  0  0  0
    0.2970   -0.0972   -1.4778 C   0  0  0  0  0  0  0  0  0  0  0  0
    0.4233   -1.0739    0.7165 O   0  0  0  0  0  0  0  0  0  0  0  0
   -1.1274   -0.1333   -1.4240 O   0  0  0  0  0  0  0  0  0  0  0  0
    2.7544    2.5096   -0.4825 O   0  0  0  0  0  0  0  0  0  0  0  0
    4.4526    1.4437   -2.7953 O   0  0  0  0  0  0  0  0  0  0  0  0
    4.2290   -1.5023   -2.5310 O   0  0  0  0  0  0  0  0  0  0  0  0
    2.4237    0.1045   -0.0478 C   0  0  2  0  0  0  0  0  0  0  0  0
    3.0211    1.2166   -0.8311 C   0  0  0  0  0  0  0  0  0  0  0  0
    2.9434   -1.0761   -0.6860 O   0  0  0  0  0  0  0  0  0  0  0  0
    3.7665    0.7582   -1.8374 C   0  0  0  0  0  0  0  0  0  0  0  0
    3.7080   -0.7189   -1.7616 C   0  0  0  0  0  0  0  0  0  0  0  0
    0.4679    0.9431    0.4142 H   0  0  0  0  0  0  0  0  0  0  0  0
    0.5852    0.7391   -2.1201 H   0  0  0  0  0  0  0  0  0  0  0  0
    0.6217   -1.0316   -1.9462 H   0  0  0  0  0  0  0  0  0  0  0  0
    0.8937   -1.8640    0.3882 H   0  0  0  0  0  0  0  0  0  0  0  0
   -1.3559   -0.8250   -0.7737 H   0  0  0  0  0  0  0  0  0  0  0  0
    3.1619    3.1303   -1.1084 H   0  0  0  0  0  0  0  0  0  0  0  0
    4.3978    2.3950   -2.6306 H   0  0  0  0  0  0  0  0  0  0  0  0
    2.7935    0.1018    0.9836 H   0  0  0  0  0  0  0  0  0  0  0  0
  1  2  1  0  0  0  0
  1  3  1  0  0  0  0
  1 13  1  1  0  0  0
  2  4  1  0  0  0  0
  2 14  1  0  0  0  0
  2 15  1  0  0  0  0
  3 16  1  0  0  0  0
  4 17  1  0  0  0  0
  5  9  1  0  0  0  0
  5 18  1  0  0  0  0
  6 11  1  0  0  0  0
  6 19  1  0  0  0  0
  7 12  2  0  0  0  0
  8  1  1  0  0  0  0
  8  9  1  0  0  0  0
  8 10  1  0  0  0  0
  8 20  1  1  0  0  0
  9 11  2  0  0  0  0
 10 12  1  0  0  0  0
 11 12  1  0  0  0  0
M  END
>  <Mol_ID>
7334

>  <Formula>
C6H8O6

>  <MolWeight>
176.12412

>  <Cat>
E4379

>  <Name>
Erythorbic Acid

>  <Synonyms>
Erythorbic Acid

>  <Target>
Others

>  <Form>
free base

>  <CAS>
89-65-6

>  <URL>
https://www.selleckchem.com/products/erythorbic-acid.html

$$$$
