Erythritol.cdx
 OpenBabel08302522053D

 18 17  0  0  0  0  0  0  0  0999 V2000
    0.8437    0.0653    0.1085 C   0  0  1  0  0  0  0  0  0  0  0  0
    0.5260    0.2180   -1.3836 C   0  0  2  0  0  0  0  0  0  0  0  0
    0.3614    1.2298    0.9811 C   0  0  0  0  0  0  0  0  0  0  0  0
    0.2085   -1.1279    0.6100 O   0  0  0  0  0  0  0  0  0  0  0  0
    1.1950    1.4397   -2.0184 C   0  0  0  0  0  0  0  0  0  0  0  0
   -0.8983    0.3134   -1.5627 O   0  0  0  0  0  0  0  0  0  0  0  0
    0.7625    0.9920    2.3325 O   0  0  0  0  0  0  0  0  0  0  0  0
    0.8401    1.4953   -3.4016 O   0  0  0  0  0  0  0  0  0  0  0  0
    1.9204   -0.0782    0.2518 H   0  0  0  0  0  0  0  0  0  0  0  0
    0.8257   -0.6910   -1.9184 H   0  0  0  0  0  0  0  0  0  0  0  0
    0.7908    2.1839    0.6726 H   0  0  0  0  0  0  0  0  0  0  0  0
   -0.7320    1.3078    0.9754 H   0  0  0  0  0  0  0  0  0  0  0  0
   -0.7261   -1.0634    0.3208 H   0  0  0  0  0  0  0  0  0  0  0  0
    0.8319    2.3682   -1.5717 H   0  0  0  0  0  0  0  0  0  0  0  0
    2.2851    1.4026   -1.9271 H   0  0  0  0  0  0  0  0  0  0  0  0
   -1.0225    0.6174   -2.4832 H   0  0  0  0  0  0  0  0  0  0  0  0
    0.6236    0.0345    2.4833 H   0  0  0  0  0  0  0  0  0  0  0  0
    1.4291    0.8876   -3.8818 H   0  0  0  0  0  0  0  0  0  0  0  0
  1  4  1  0  0  0  0
  1  9  1  1  0  0  0
  1  3  1  0  0  0  0
  1  2  1  0  0  0  0
  2 10  1  6  0  0  0
  2  6  1  0  0  0  0
  2  5  1  0  0  0  0
  3  7  1  0  0  0  0
  3 11  1  0  0  0  0
  3 12  1  0  0  0  0
  4 13  1  0  0  0  0
  5  8  1  0  0  0  0
  5 14  1  0  0  0  0
  5 15  1  0  0  0  0
  6 16  1  0  0  0  0
  7 17  1  0  0  0  0
  8 18  1  0  0  0  0
M  END
>  <Mol_ID>
1349

>  <Formula>
C4H10O4

>  <MolWeight>
122.1198

>  <Cat>
S4224

>  <Name>
Erythritol

>  <Synonyms>
meso-Erythritol

>  <Target>
Others

>  <Form>
free base

>  <CAS>
149-32-6

>  <URL>
http://selleckchem.com/products/erythritol.html

$$$$
