Esaxerenone (CS-3150)
 OpenBabel08302521323D

 53 55  0  0  0  0  0  0  0  0999 V2000
   -6.7747   -5.5859    2.5752 S   0  0  0  0  0  0  0  0  0  0  0  0
    5.2853   -6.9353    2.2452 F   0  0  0  0  0  0  0  0  0  0  0  0
    7.1064   -8.0830    2.0388 F   0  0  0  0  0  0  0  0  0  0  0  0
    7.0741   -6.0032    1.4384 F   0  0  0  0  0  0  0  0  0  0  0  0
    4.0039   -3.5782   -1.2255 O   0  0  0  0  0  0  0  0  0  0  0  0
   -0.7851   -7.6842    0.0383 O   0  0  0  0  0  0  0  0  0  0  0  0
   -7.4813   -5.8383    1.3337 O   0  0  0  0  0  0  0  0  0  0  0  0
   -7.0236   -4.3819    3.3400 O   0  0  0  0  0  0  0  0  0  0  0  0
    3.3068   -5.8050    0.7430 N   0  0  0  0  0  0  0  0  0  0  0  0
   -0.8889   -5.8907    1.4941 N   0  0  0  0  0  0  0  0  0  0  0  0
    3.4603   -6.9590   -0.0167 C   0  0  0  0  0  0  0  0  0  0  0  0
    2.1506   -7.4619   -0.1641 C   0  0  0  0  0  0  0  0  0  0  0  0
    1.2445   -6.6588    0.6284 C   0  0  0  0  0  0  0  0  0  0  0  0
    2.0431   -5.7545    1.2933 C   0  0  0  0  0  0  0  0  0  0  0  0
    4.7275   -7.4518   -0.6402 C   0  0  0  0  0  0  0  0  0  0  0  0
    4.2524   -4.7127    0.9404 C   0  0  0  0  0  0  0  0  0  0  0  0
    1.6691   -8.6185   -0.9941 C   0  0  0  0  0  0  0  0  0  0  0  0
    5.9912   -7.5503   -0.0111 C   0  0  0  0  0  0  0  0  0  0  0  0
   -0.2235   -6.8013    0.6848 C   0  0  0  0  0  0  0  0  0  0  0  0
    3.8634   -3.4441    0.1871 C   0  0  0  0  0  0  0  0  0  0  0  0
    4.6424   -7.9255   -1.9712 C   0  0  0  0  0  0  0  0  0  0  0  0
    7.0954   -8.0665   -0.7447 C   0  0  0  0  0  0  0  0  0  0  0  0
    6.3284   -7.1541    1.4120 C   0  0  0  0  0  0  0  0  0  0  0  0
    5.7152   -8.5277   -2.6358 C   0  0  0  0  0  0  0  0  0  0  0  0
   -2.2897   -5.8004    1.6749 C   0  0  0  0  0  0  0  0  0  0  0  0
    6.9543   -8.5801   -2.0279 C   0  0  0  0  0  0  0  0  0  0  0  0
   -5.0368   -5.6469    2.2215 C   0  0  0  0  0  0  0  0  0  0  0  0
   -3.2174   -6.5041    0.8967 C   0  0  0  0  0  0  0  0  0  0  0  0
   -2.7672   -4.9611    2.6910 C   0  0  0  0  0  0  0  0  0  0  0  0
   -4.5865   -6.4314    1.1640 C   0  0  0  0  0  0  0  0  0  0  0  0
   -4.1383   -4.8855    2.9704 C   0  0  0  0  0  0  0  0  0  0  0  0
   -7.0284   -6.9794    3.6480 C   0  0  0  0  0  0  0  0  0  0  0  0
    4.3112   -4.4773   -1.4385 H   0  0  0  0  0  0  0  0  0  0  0  0
   -0.3178   -5.2811    2.0589 H   0  0  0  0  0  0  0  0  0  0  0  0
    1.8107   -4.9978    2.0301 H   0  0  0  0  0  0  0  0  0  0  0  0
    4.3024   -4.5270    2.0198 H   0  0  0  0  0  0  0  0  0  0  0  0
    5.2296   -5.0232    0.5857 H   0  0  0  0  0  0  0  0  0  0  0  0
    1.0572   -9.2957   -0.3903 H   0  0  0  0  0  0  0  0  0  0  0  0
    1.0582   -8.2449   -1.8256 H   0  0  0  0  0  0  0  0  0  0  0  0
    2.4685   -9.2306   -1.4098 H   0  0  0  0  0  0  0  0  0  0  0  0
    2.8363   -3.1360    0.4051 H   0  0  0  0  0  0  0  0  0  0  0  0
    4.5293   -2.6316    0.4945 H   0  0  0  0  0  0  0  0  0  0  0  0
    3.7056   -7.8580   -2.5214 H   0  0  0  0  0  0  0  0  0  0  0  0
    8.0850   -8.0940   -0.2847 H   0  0  0  0  0  0  0  0  0  0  0  0
    5.5732   -8.9517   -3.6271 H   0  0  0  0  0  0  0  0  0  0  0  0
    7.8040   -9.0220   -2.5420 H   0  0  0  0  0  0  0  0  0  0  0  0
   -2.9122   -7.1178    0.0545 H   0  0  0  0  0  0  0  0  0  0  0  0
   -2.0819   -4.3671    3.2908 H   0  0  0  0  0  0  0  0  0  0  0  0
   -5.2808   -6.9906    0.5398 H   0  0  0  0  0  0  0  0  0  0  0  0
   -4.4899   -4.2375    3.7709 H   0  0  0  0  0  0  0  0  0  0  0  0
   -8.0819   -6.9997    3.9333 H   0  0  0  0  0  0  0  0  0  0  0  0
   -6.7697   -7.8958    3.1146 H   0  0  0  0  0  0  0  0  0  0  0  0
   -6.4061   -6.8598    4.5376 H   0  0  0  0  0  0  0  0  0  0  0  0
  1  7  2  0  0  0  0
  1  8  2  0  0  0  0
  1 27  1  0  0  0  0
  1 32  1  0  0  0  0
  2 23  1  0  0  0  0
  3 23  1  0  0  0  0
  4 23  1  0  0  0  0
  5 20  1  0  0  0  0
  5 33  1  0  0  0  0
  6 19  2  0  0  0  0
  9 11  1  0  0  0  0
  9 14  1  0  0  0  0
  9 16  1  0  0  0  0
 10 19  1  0  0  0  0
 10 25  1  0  0  0  0
 10 34  1  0  0  0  0
 11 12  2  0  0  0  0
 11 15  1  0  0  0  0
 12 13  1  0  0  0  0
 12 17  1  0  0  0  0
 13 14  2  0  0  0  0
 13 19  1  0  0  0  0
 14 35  1  0  0  0  0
 15 18  2  0  0  0  0
 15 21  1  0  0  0  0
 16 20  1  0  0  0  0
 16 36  1  0  0  0  0
 16 37  1  0  0  0  0
 17 38  1  0  0  0  0
 17 39  1  0  0  0  0
 17 40  1  0  0  0  0
 18 22  1  0  0  0  0
 18 23  1  0  0  0  0
 20 41  1  0  0  0  0
 20 42  1  0  0  0  0
 21 24  2  0  0  0  0
 21 43  1  0  0  0  0
 22 26  2  0  0  0  0
 22 44  1  0  0  0  0
 24 26  1  0  0  0  0
 24 45  1  0  0  0  0
 25 28  2  0  0  0  0
 25 29  1  0  0  0  0
 26 46  1  0  0  0  0
 27 30  2  0  0  0  0
 27 31  1  0  0  0  0
 28 30  1  0  0  0  0
 28 47  1  0  0  0  0
 29 31  2  0  0  0  0
 29 48  1  0  0  0  0
 30 49  1  0  0  0  0
 31 50  1  0  0  0  0
 32 51  1  0  0  0  0
 32 52  1  0  0  0  0
 32 53  1  0  0  0  0
M  END
>  <Mol_ID>
6323

>  <Formula>
C22H21F3N2O4S

>  <MolWeight>
466.4733496

>  <Cat>
E0704

>  <Name>
Esaxerenone (CS-3150)

>  <Target>
Mineralocorticoid Receptor

>  <Form>
free base

>  <CAS>
1632006-28-0

>  <URL>
http://www.selleckchem.com/products/esaxerenone.html

$$$$
