estradiol.cdx
 OpenBabel08302520433D

 44 47  0  0  0  0  0  0  0  0999 V2000
    3.8717    1.4775    0.0791 C   0  0  0  0  0  0  0  0  0  0  0  0
    4.4747    0.2680   -0.2269 C   0  0  0  0  0  0  0  0  0  0  0  0
    3.7370   -0.9081   -0.2319 C   0  0  0  0  0  0  0  0  0  0  0  0
    2.3616   -0.8898    0.0619 C   0  0  0  0  0  0  0  0  0  0  0  0
    1.7243    0.3371    0.3445 C   0  0  0  0  0  0  0  0  0  0  0  0
    2.5062    1.5057    0.3719 C   0  0  0  0  0  0  0  0  0  0  0  0
    1.6113   -2.2005    0.0030 C   0  0  0  0  0  0  0  0  0  0  0  0
    0.1555   -2.1298    0.4619 C   0  0  0  0  0  0  0  0  0  0  0  0
   -0.5017   -0.8273   -0.0064 C   0  0  2  0  0  0  0  0  0  0  0  0
    0.2337    0.3673    0.6763 C   0  0  2  0  0  0  0  0  0  0  0  0
   -1.9895   -0.7666    0.3449 C   0  0  1  0  0  0  0  0  0  0  0  0
   -2.6492    0.5466   -0.1244 C   0  0  2  0  0  0  0  0  0  0  0  0
   -1.9810    1.7051    0.6220 C   0  0  0  0  0  0  0  0  0  0  0  0
   -0.4619    1.7242    0.3911 C   0  0  0  0  0  0  0  0  0  0  0  0
   -2.9319   -1.8422   -0.1933 C   0  0  0  0  0  0  0  0  0  0  0  0
   -4.3317   -1.2090   -0.0709 C   0  0  0  0  0  0  0  0  0  0  0  0
   -4.1023    0.2672    0.3070 C   0  0  2  0  0  0  0  0  0  0  0  0
    5.8020    0.1935   -0.5310 O   0  0  0  0  0  0  0  0  0  0  0  0
   -2.5629    0.7976   -1.6514 C   0  0  0  0  0  0  0  0  0  0  0  0
   -5.0562    1.1302   -0.2806 O   0  0  0  0  0  0  0  0  0  0  0  0
    4.4367    2.4029    0.0960 H   0  0  0  0  0  0  0  0  0  0  0  0
    4.2350   -1.8433   -0.4739 H   0  0  0  0  0  0  0  0  0  0  0  0
    2.0678    2.4700    0.6191 H   0  0  0  0  0  0  0  0  0  0  0  0
    1.6336   -2.5514   -1.0370 H   0  0  0  0  0  0  0  0  0  0  0  0
    2.1342   -2.9480    0.6113 H   0  0  0  0  0  0  0  0  0  0  0  0
   -0.3799   -3.0057    0.0772 H   0  0  0  0  0  0  0  0  0  0  0  0
    0.1130   -2.1939    1.5573 H   0  0  0  0  0  0  0  0  0  0  0  0
   -0.3801   -0.7654   -1.0957 H   0  0  0  0  0  0  0  0  0  0  0  0
    0.1754    0.2173    1.7654 H   0  0  0  0  0  0  0  0  0  0  0  0
   -2.0597   -0.8221    1.4444 H   0  0  0  0  0  0  0  0  0  0  0  0
   -2.1652    1.6127    1.7006 H   0  0  0  0  0  0  0  0  0  0  0  0
   -2.4136    2.6650    0.3167 H   0  0  0  0  0  0  0  0  0  0  0  0
   -0.0477    2.4999    1.0467 H   0  0  0  0  0  0  0  0  0  0  0  0
   -0.2455    2.0461   -0.6342 H   0  0  0  0  0  0  0  0  0  0  0  0
   -2.7132   -2.0814   -1.2396 H   0  0  0  0  0  0  0  0  0  0  0  0
   -2.8662   -2.7732    0.3790 H   0  0  0  0  0  0  0  0  0  0  0  0
   -4.8946   -1.3189   -1.0040 H   0  0  0  0  0  0  0  0  0  0  0  0
   -4.9150   -1.7062    0.7127 H   0  0  0  0  0  0  0  0  0  0  0  0
   -4.2011    0.3735    1.3945 H   0  0  0  0  0  0  0  0  0  0  0  0
    6.1742    1.0903   -0.5010 H   0  0  0  0  0  0  0  0  0  0  0  0
   -3.0264   -0.0046   -2.2339 H   0  0  0  0  0  0  0  0  0  0  0  0
   -3.0737    1.7297   -1.9195 H   0  0  0  0  0  0  0  0  0  0  0  0
   -1.5338    0.8913   -2.0081 H   0  0  0  0  0  0  0  0  0  0  0  0
   -5.1019    0.9417   -1.2327 H   0  0  0  0  0  0  0  0  0  0  0  0
  1  2  2  0  0  0  0
  1 21  1  0  0  0  0
  2  3  1  0  0  0  0
  2 18  1  0  0  0  0
  3  4  2  0  0  0  0
  3 22  1  0  0  0  0
  4  5  1  0  0  0  0
  4  7  1  0  0  0  0
  5  6  2  0  0  0  0
  6  1  1  0  0  0  0
  6 23  1  0  0  0  0
  7  8  1  0  0  0  0
  7 24  1  0  0  0  0
  7 25  1  0  0  0  0
  8 26  1  0  0  0  0
  8 27  1  0  0  0  0
  9  8  1  0  0  0  0
  9 10  1  0  0  0  0
  9 11  1  0  0  0  0
  9 28  1  6  0  0  0
 10  5  1  0  0  0  0
 10 14  1  0  0  0  0
 10 29  1  1  0  0  0
 11 12  1  0  0  0  0
 11 15  1  0  0  0  0
 11 30  1  1  0  0  0
 12 13  1  0  0  0  0
 12 19  1  6  0  0  0
 13 14  1  0  0  0  0
 13 31  1  0  0  0  0
 13 32  1  0  0  0  0
 14 33  1  0  0  0  0
 14 34  1  0  0  0  0
 15 16  1  0  0  0  0
 15 35  1  0  0  0  0
 15 36  1  0  0  0  0
 16 17  1  0  0  0  0
 16 37  1  0  0  0  0
 16 38  1  0  0  0  0
 17 12  1  0  0  0  0
 17 20  1  0  0  0  0
 17 39  1  1  0  0  0
 18 40  1  0  0  0  0
 19 41  1  0  0  0  0
 19 42  1  0  0  0  0
 19 43  1  0  0  0  0
 20 44  1  0  0  0  0
M  END
>  <Mol_ID>
404

>  <Formula>
C18H24O2

>  <MolWeight>
272.38196

>  <Cat>
S1709

>  <Name>
Estradiol

>  <Synonyms>
17¦Â-estradiol, ¦Â-Estradiol, E2, 17¦Â-Oestradiol

>  <Target>
Estrogen/progestogen Receptor,Interleukins

>  <Form>
free base

>  <CAS>
50-28-2

>  <URL>
http://selleckchem.com/products/Estradiol.html

$$$$
