Estriol.cdx
 OpenBabel08302521423D

 45 48  0  0  0  0  0  0  0  0999 V2000
    0.4823    4.0659    1.1856 C   0  0  0  0  0  0  0  0  0  0  0  0
    0.7123    3.5265   -0.0752 C   0  0  0  0  0  0  0  0  0  0  0  0
    0.7420    4.3277   -1.2013 C   0  0  0  0  0  0  0  0  0  0  0  0
    0.4274    5.6855   -1.0905 C   0  0  0  0  0  0  0  0  0  0  0  0
    0.0242    6.2089    0.1668 C   0  0  0  0  0  0  0  0  0  0  0  0
    0.1404    5.4128    1.3074 C   0  0  0  0  0  0  0  0  0  0  0  0
    0.5681    6.5715   -2.3105 C   0  0  0  0  0  0  0  0  0  0  0  0
    0.2573    8.0631   -2.1063 C   0  0  0  0  0  0  0  0  0  0  0  0
    0.3835    8.5063   -0.6307 C   0  0  2  0  0  0  0  0  0  0  0  0
   -0.5915    7.5894    0.1440 C   0  0  2  0  0  0  0  0  0  0  0  0
   -0.0596    9.9394   -0.4359 C   0  0  1  0  0  0  0  0  0  0  0  0
   -0.0761   10.4620    1.0241 C   0  0  2  0  0  0  0  0  0  0  0  0
   -0.6649    9.4279    1.9994 C   0  0  0  0  0  0  0  0  0  0  0  0
   -1.3137    8.2010    1.3651 C   0  0  0  0  0  0  0  0  0  0  0  0
    0.6091   11.0775   -1.1885 C   0  0  0  0  0  0  0  0  0  0  0  0
   -0.1657   12.2783   -0.6065 C   0  0  2  0  0  0  0  0  0  0  0  0
   -0.8776   11.7491    0.6953 C   0  0  2  0  0  0  0  0  0  0  0  0
    0.8955    2.1839   -0.2374 O   0  0  0  0  0  0  0  0  0  0  0  0
    1.2853   10.8842    1.6466 C   0  0  0  0  0  0  0  0  0  0  0  0
   -0.8859   12.7266    1.7205 O   0  0  0  0  0  0  0  0  0  0  0  0
   -1.1488   12.7446   -1.5416 O   0  0  0  0  0  0  0  0  0  0  0  0
    0.5514    3.4488    2.0770 H   0  0  0  0  0  0  0  0  0  0  0  0
    0.9843    3.8923   -2.1674 H   0  0  0  0  0  0  0  0  0  0  0  0
   -0.0533    5.8188    2.2950 H   0  0  0  0  0  0  0  0  0  0  0  0
    1.6067    6.4960   -2.6576 H   0  0  0  0  0  0  0  0  0  0  0  0
   -0.0671    6.1817   -3.1184 H   0  0  0  0  0  0  0  0  0  0  0  0
    0.8867    8.6703   -2.7667 H   0  0  0  0  0  0  0  0  0  0  0  0
   -0.7733    8.2418   -2.4471 H   0  0  0  0  0  0  0  0  0  0  0  0
    1.4177    8.3816   -0.2912 H   0  0  0  0  0  0  0  0  0  0  0  0
   -1.4640    7.4129   -0.5121 H   0  0  0  0  0  0  0  0  0  0  0  0
   -1.0998    9.9252   -0.8032 H   0  0  0  0  0  0  0  0  0  0  0  0
   -1.3704    9.9080    2.6873 H   0  0  0  0  0  0  0  0  0  0  0  0
    0.1349    9.0203    2.6372 H   0  0  0  0  0  0  0  0  0  0  0  0
   -1.5192    7.4502    2.1359 H   0  0  0  0  0  0  0  0  0  0  0  0
   -2.3081    8.5284    1.0281 H   0  0  0  0  0  0  0  0  0  0  0  0
    0.5235   10.9846   -2.2780 H   0  0  0  0  0  0  0  0  0  0  0  0
    1.6714   11.1353   -0.9429 H   0  0  0  0  0  0  0  0  0  0  0  0
    0.5009   13.1198   -0.3992 H   0  0  0  0  0  0  0  0  0  0  0  0
   -1.9294   11.5081    0.4765 H   0  0  0  0  0  0  0  0  0  0  0  0
    0.3909    1.7399    0.4648 H   0  0  0  0  0  0  0  0  0  0  0  0
    1.1971   10.9786    2.7367 H   0  0  0  0  0  0  0  0  0  0  0  0
    2.0681   10.1478    1.4360 H   0  0  0  0  0  0  0  0  0  0  0  0
    1.6373   11.8620    1.3033 H   0  0  0  0  0  0  0  0  0  0  0  0
   -1.3048   13.5212    1.3318 H   0  0  0  0  0  0  0  0  0  0  0  0
   -1.4253   11.9881   -2.0904 H   0  0  0  0  0  0  0  0  0  0  0  0
  1  2  2  0  0  0  0
  1 22  1  0  0  0  0
  2  3  1  0  0  0  0
  2 18  1  0  0  0  0
  3  4  2  0  0  0  0
  3 23  1  0  0  0  0
  4  5  1  0  0  0  0
  4  7  1  0  0  0  0
  5  6  2  0  0  0  0
  6  1  1  0  0  0  0
  6 24  1  0  0  0  0
  7  8  1  0  0  0  0
  7 25  1  0  0  0  0
  7 26  1  0  0  0  0
  8 27  1  0  0  0  0
  8 28  1  0  0  0  0
  9  8  1  0  0  0  0
  9 10  1  0  0  0  0
  9 11  1  0  0  0  0
  9 29  1  1  0  0  0
 10  5  1  0  0  0  0
 10 14  1  0  0  0  0
 10 30  1  6  0  0  0
 11 12  1  0  0  0  0
 11 15  1  0  0  0  0
 11 31  1  6  0  0  0
 12 13  1  0  0  0  0
 12 19  1  1  0  0  0
 13 14  1  0  0  0  0
 13 32  1  0  0  0  0
 13 33  1  0  0  0  0
 14 34  1  0  0  0  0
 14 35  1  0  0  0  0
 15 16  1  0  0  0  0
 15 36  1  0  0  0  0
 15 37  1  0  0  0  0
 16 17  1  0  0  0  0
 16 38  1  1  0  0  0
 16 21  1  0  0  0  0
 17 12  1  0  0  0  0
 17 39  1  6  0  0  0
 17 20  1  0  0  0  0
 18 40  1  0  0  0  0
 19 41  1  0  0  0  0
 19 42  1  0  0  0  0
 19 43  1  0  0  0  0
 20 44  1  0  0  0  0
 21 45  1  0  0  0  0
M  END
>  <Mol_ID>
743

>  <Formula>
C18H24O3

>  <MolWeight>
288.38136

>  <Cat>
S2466

>  <Name>
Estriol

>  <Synonyms>
NSC-12169

>  <Target>
Estrogen/progestogen Receptor

>  <Form>
free base

>  <CAS>
50-27-1

>  <URL>
http://selleckchem.com/products/Estriol(Oestriol).html

$$$$
