ETC-1002.cdx
 OpenBabel08302520003D

 60 59  0  0  0  0  0  0  0  0999 V2000
    1.0216    1.8981   -1.4072 O   0  0  0  0  0  0  0  0  0  0  0  0
    0.3531    1.2501   -2.3809 C   0  0  0  0  0  0  0  0  0  0  0  0
    1.1965    0.5326   -3.4538 C   0  0  0  0  0  0  0  0  0  0  0  0
   -0.8719    1.2451   -2.3870 O   0  0  0  0  0  0  0  0  0  0  0  0
    0.7427   -0.9530   -3.4205 C   0  0  0  0  0  0  0  0  0  0  0  0
    0.8532    1.2080   -4.7940 C   0  0  0  0  0  0  0  0  0  0  0  0
    2.7146    0.6222   -3.2437 C   0  0  0  0  0  0  0  0  0  0  0  0
    1.4479   -1.9126   -4.3927 C   0  0  0  0  0  0  0  0  0  0  0  0
    1.0195   -3.3743   -4.2027 C   0  0  0  0  0  0  0  0  0  0  0  0
   -0.4714   -3.5672   -4.4483 C   0  0  0  0  0  0  0  0  0  0  0  0
   -0.9041   -5.0265   -4.3375 C   0  0  0  0  0  0  0  0  0  0  0  0
   -2.4084   -5.1942   -4.5923 C   0  0  0  0  0  0  0  0  0  0  0  0
   -2.7962   -4.7597   -6.0093 C   0  0  0  0  0  0  0  0  0  0  0  0
   -2.7874   -6.5602   -4.4255 O   0  0  0  0  0  0  0  0  0  0  0  0
   -4.2910   -4.8973   -6.2634 C   0  0  0  0  0  0  0  0  0  0  0  0
   -4.6460   -4.3904   -7.6610 C   0  0  0  0  0  0  0  0  0  0  0  0
   -6.1358   -4.5318   -7.9776 C   0  0  0  0  0  0  0  0  0  0  0  0
   -7.0140   -3.7284   -7.0094 C   0  0  0  0  0  0  0  0  0  0  0  0
   -8.5350   -3.7556   -7.2822 C   0  0  0  0  0  0  0  0  0  0  0  0
   -9.2181   -2.8149   -6.2766 C   0  0  0  0  0  0  0  0  0  0  0  0
   -8.8176   -3.2462   -8.7145 C   0  0  0  0  0  0  0  0  0  0  0  0
   -9.1512   -5.1566   -7.1338 C   0  0  0  0  0  0  0  0  0  0  0  0
   -9.0202   -3.1449   -4.9742 O   0  0  0  0  0  0  0  0  0  0  0  0
   -9.8875   -1.8396   -6.5797 O   0  0  0  0  0  0  0  0  0  0  0  0
    1.9914    1.8699   -1.4399 H   0  0  0  0  0  0  0  0  0  0  0  0
    0.8749   -1.3382   -2.4001 H   0  0  0  0  0  0  0  0  0  0  0  0
   -0.3364   -0.9815   -3.6145 H   0  0  0  0  0  0  0  0  0  0  0  0
    1.2948    2.2112   -4.8436 H   0  0  0  0  0  0  0  0  0  0  0  0
    1.2313    0.6415   -5.6497 H   0  0  0  0  0  0  0  0  0  0  0  0
   -0.2279    1.3305   -4.9261 H   0  0  0  0  0  0  0  0  0  0  0  0
    3.0535    1.6622   -3.1817 H   0  0  0  0  0  0  0  0  0  0  0  0
    3.0183    0.1108   -2.3232 H   0  0  0  0  0  0  0  0  0  0  0  0
    3.2643    0.1704   -4.0763 H   0  0  0  0  0  0  0  0  0  0  0  0
    1.2445   -1.6131   -5.4274 H   0  0  0  0  0  0  0  0  0  0  0  0
    2.5321   -1.8732   -4.2529 H   0  0  0  0  0  0  0  0  0  0  0  0
    1.5844   -3.9953   -4.9093 H   0  0  0  0  0  0  0  0  0  0  0  0
    1.2838   -3.7144   -3.1951 H   0  0  0  0  0  0  0  0  0  0  0  0
   -1.0579   -2.9861   -3.7292 H   0  0  0  0  0  0  0  0  0  0  0  0
   -0.6922   -3.1736   -5.4449 H   0  0  0  0  0  0  0  0  0  0  0  0
   -0.3385   -5.6525   -5.0383 H   0  0  0  0  0  0  0  0  0  0  0  0
   -0.6657   -5.4063   -3.3355 H   0  0  0  0  0  0  0  0  0  0  0  0
   -2.9697   -4.6066   -3.8551 H   0  0  0  0  0  0  0  0  0  0  0  0
   -2.5285   -3.7123   -6.1778 H   0  0  0  0  0  0  0  0  0  0  0  0
   -2.2498   -5.3656   -6.7421 H   0  0  0  0  0  0  0  0  0  0  0  0
   -2.0752   -7.0327   -3.9645 H   0  0  0  0  0  0  0  0  0  0  0  0
   -4.6072   -5.9407   -6.1583 H   0  0  0  0  0  0  0  0  0  0  0  0
   -4.8154   -4.3135   -5.4999 H   0  0  0  0  0  0  0  0  0  0  0  0
   -4.3479   -3.3393   -7.7644 H   0  0  0  0  0  0  0  0  0  0  0  0
   -4.0731   -4.9541   -8.4082 H   0  0  0  0  0  0  0  0  0  0  0  0
   -6.2862   -4.1883   -9.0062 H   0  0  0  0  0  0  0  0  0  0  0  0
   -6.4038   -5.5928   -7.9465 H   0  0  0  0  0  0  0  0  0  0  0  0
   -6.8370   -4.0965   -5.9946 H   0  0  0  0  0  0  0  0  0  0  0  0
   -6.6697   -2.6847   -7.0133 H   0  0  0  0  0  0  0  0  0  0  0  0
   -8.4387   -3.9431   -9.4709 H   0  0  0  0  0  0  0  0  0  0  0  0
   -9.8906   -3.1337   -8.8879 H   0  0  0  0  0  0  0  0  0  0  0  0
   -8.3516   -2.2670   -8.8821 H   0  0  0  0  0  0  0  0  0  0  0  0
   -8.5923   -5.9137   -7.6910 H   0  0  0  0  0  0  0  0  0  0  0  0
   -9.1997   -5.4837   -6.0898 H   0  0  0  0  0  0  0  0  0  0  0  0
  -10.1802   -5.1676   -7.5136 H   0  0  0  0  0  0  0  0  0  0  0  0
   -8.4731   -3.9333   -4.8194 H   0  0  0  0  0  0  0  0  0  0  0  0
  1  2  1  0  0  0  0
  1 25  1  0  0  0  0
  2  3  1  0  0  0  0
  2  4  2  0  0  0  0
  3  5  1  0  0  0  0
  3  6  1  0  0  0  0
  3  7  1  0  0  0  0
  5  8  1  0  0  0  0
  5 26  1  0  0  0  0
  5 27  1  0  0  0  0
  6 28  1  0  0  0  0
  6 29  1  0  0  0  0
  6 30  1  0  0  0  0
  7 31  1  0  0  0  0
  7 32  1  0  0  0  0
  7 33  1  0  0  0  0
  8  9  1  0  0  0  0
  8 34  1  0  0  0  0
  8 35  1  0  0  0  0
  9 10  1  0  0  0  0
  9 36  1  0  0  0  0
  9 37  1  0  0  0  0
 10 11  1  0  0  0  0
 10 38  1  0  0  0  0
 10 39  1  0  0  0  0
 11 12  1  0  0  0  0
 11 40  1  0  0  0  0
 11 41  1  0  0  0  0
 12 13  1  0  0  0  0
 12 14  1  0  0  0  0
 12 42  1  0  0  0  0
 13 15  1  0  0  0  0
 13 43  1  0  0  0  0
 13 44  1  0  0  0  0
 14 45  1  0  0  0  0
 15 16  1  0  0  0  0
 15 46  1  0  0  0  0
 15 47  1  0  0  0  0
 16 17  1  0  0  0  0
 16 48  1  0  0  0  0
 16 49  1  0  0  0  0
 17 18  1  0  0  0  0
 17 50  1  0  0  0  0
 17 51  1  0  0  0  0
 18 19  1  0  0  0  0
 18 52  1  0  0  0  0
 18 53  1  0  0  0  0
 19 20  1  0  0  0  0
 19 21  1  0  0  0  0
 19 22  1  0  0  0  0
 20 23  1  0  0  0  0
 20 24  2  0  0  0  0
 21 54  1  0  0  0  0
 21 55  1  0  0  0  0
 21 56  1  0  0  0  0
 22 57  1  0  0  0  0
 22 58  1  0  0  0  0
 22 59  1  0  0  0  0
 23 60  1  0  0  0  0
M  END
>  <Mol_ID>
2667

>  <Formula>
C19H36O5

>  <MolWeight>
344.48614

>  <Cat>
S7953

>  <Name>
ETC-1002

>  <Synonyms>
Bempedoic acid, ESP-55016

>  <Target>
AMPK,ATP-citrate lyase,LDL

>  <Form>
free base

>  <CAS>
738606-46-7

>  <URL>
http://selleckchem.com/products/etc-1002.html

$$$$
