Ethanolamine hydrochloride
 OpenBabel08302520383D

 11 10  0  0  0  0  0  0  0  0999 V2000
    1.0379   -0.0643   -0.0083 C   0  0  0  0  0  0  0  0  0  0  0  0
    0.5701   -0.7327   -1.3058 C   0  0  0  0  0  0  0  0  0  0  0  0
    0.6225   -0.8283    1.1716 N   0  0  0  0  0  0  0  0  0  0  0  0
    1.0715   -2.0665   -1.3865 O   0  0  0  0  0  0  0  0  0  0  0  0
    0.6471    0.9562    0.0561 H   0  0  0  0  0  0  0  0  0  0  0  0
    2.1316   -0.0083   -0.0006 H   0  0  0  0  0  0  0  0  0  0  0  0
   -0.5228   -0.7794   -1.3491 H   0  0  0  0  0  0  0  0  0  0  0  0
    0.9254   -0.1748   -2.1776 H   0  0  0  0  0  0  0  0  0  0  0  0
   -0.3963   -0.8240    1.2255 H   0  0  0  0  0  0  0  0  0  0  0  0
    0.8555   -1.8107    1.0009 H   0  0  0  0  0  0  0  0  0  0  0  0
    2.0418   -2.0128   -1.3343 H   0  0  0  0  0  0  0  0  0  0  0  0
  1  2  1  0  0  0  0
  1  3  1  0  0  0  0
  1  5  1  0  0  0  0
  1  6  1  0  0  0  0
  2  4  1  0  0  0  0
  2  7  1  0  0  0  0
  2  8  1  0  0  0  0
  3  9  1  0  0  0  0
  3 10  1  0  0  0  0
  4 11  1  0  0  0  0
M  END
>  <Mol_ID>
3491

>  <Formula>
C2H8ClNO

>  <MolWeight>
97.54402

>  <Cat>
S6210

>  <Name>
Ethanolamine hydrochloride

>  <Synonyms>
2-Aminoethanol hydrochloride

>  <Target>
Others

>  <Form>
hydrochloride

>  <CAS>
2002-24-6

>  <URL>
http://www.selleck.cn/products/ethanolamine-hydrochloride.html

$$$$
