Ethacrynic Acid
 OpenBabel08302520323D

 31 31  0  0  0  0  0  0  0  0999 V2000
    1.3990   -0.1213   -0.0140 C   0  0  0  0  0  0  0  0  0  0  0  0
    0.5967   -1.2540    0.1999 C   0  0  0  0  0  0  0  0  0  0  0  0
    2.8760   -0.3032    0.0844 C   0  0  0  0  0  0  0  0  0  0  0  0
    0.7745    1.1131   -0.2157 C   0  0  0  0  0  0  0  0  0  0  0  0
   -0.8002   -1.1659    0.1955 C   0  0  0  0  0  0  0  0  0  0  0  0
    3.8600    0.5969   -0.6088 C   0  0  0  0  0  0  0  0  0  0  0  0
    3.2961   -1.2272    0.7811 O   0  0  0  0  0  0  0  0  0  0  0  0
   -0.6257    1.1969   -0.2411 C   0  0  0  0  0  0  0  0  0  0  0  0
   -1.4148    0.0640   -0.0214 C   0  0  0  0  0  0  0  0  0  0  0  0
    5.2350    0.6571    0.0241 C   0  0  0  0  0  0  0  0  0  0  0  0
    3.5952    1.2688   -1.7417 C   0  0  0  0  0  0  0  0  0  0  0  0
   -2.7678    0.2512   -0.1133 O   0  0  0  0  0  0  0  0  0  0  0  0
    6.1578   -0.4592   -0.4538 C   0  0  0  0  0  0  0  0  0  0  0  0
   -3.5887   -0.5624    0.7304 C   0  0  0  0  0  0  0  0  0  0  0  0
   -4.1313   -1.8000    0.0258 C   0  0  0  0  0  0  0  0  0  0  0  0
   -3.7926   -1.8671   -1.2844 O   0  0  0  0  0  0  0  0  0  0  0  0
   -4.8089   -2.6584    0.5752 O   0  0  0  0  0  0  0  0  0  0  0  0
    1.0633   -2.2224    0.3799 H   0  0  0  0  0  0  0  0  0  0  0  0
    1.3516    2.0258   -0.3346 H   0  0  0  0  0  0  0  0  0  0  0  0
   -1.3669   -2.0791    0.3515 H   0  0  0  0  0  0  0  0  0  0  0  0
   -1.1017    2.1605   -0.4112 H   0  0  0  0  0  0  0  0  0  0  0  0
    5.7083    1.6209   -0.2032 H   0  0  0  0  0  0  0  0  0  0  0  0
    5.1501    0.6219    1.1173 H   0  0  0  0  0  0  0  0  0  0  0  0
    2.6466    1.2058   -2.2641 H   0  0  0  0  0  0  0  0  0  0  0  0
    4.3589    1.8850   -2.2092 H   0  0  0  0  0  0  0  0  0  0  0  0
    6.2661   -0.4479   -1.5436 H   0  0  0  0  0  0  0  0  0  0  0  0
    7.1548   -0.3358   -0.0172 H   0  0  0  0  0  0  0  0  0  0  0  0
    5.7862   -1.4458   -0.1595 H   0  0  0  0  0  0  0  0  0  0  0  0
   -3.0732   -0.8533    1.6529 H   0  0  0  0  0  0  0  0  0  0  0  0
   -4.4557    0.0480    1.0041 H   0  0  0  0  0  0  0  0  0  0  0  0
   -3.2535   -1.0884   -1.5418 H   0  0  0  0  0  0  0  0  0  0  0  0
  1  2  2  0  0  0  0
  1  3  1  0  0  0  0
  1  4  1  0  0  0  0
  2  5  1  0  0  0  0
  2 18  1  0  0  0  0
  3  6  1  0  0  0  0
  3  7  2  0  0  0  0
  4  8  2  0  0  0  0
  4 19  1  0  0  0  0
  5  9  2  0  0  0  0
  5 20  1  0  0  0  0
  6 10  1  0  0  0  0
  6 11  2  0  0  0  0
  8  9  1  0  0  0  0
  8 21  1  0  0  0  0
  9 12  1  0  0  0  0
 10 13  1  0  0  0  0
 10 22  1  0  0  0  0
 10 23  1  0  0  0  0
 11 24  1  0  0  0  0
 11 25  1  0  0  0  0
 12 14  1  0  0  0  0
 13 26  1  0  0  0  0
 13 27  1  0  0  0  0
 13 28  1  0  0  0  0
 14 15  1  0  0  0  0
 14 29  1  0  0  0  0
 14 30  1  0  0  0  0
 15 16  1  0  0  0  0
 15 17  2  0  0  0  0
 16 31  1  0  0  0  0
M  END
>  <Mol_ID>
3349

>  <Formula>
C13H12Cl2O4

>  <MolWeight>
303.13798

>  <Cat>
S5561

>  <Name>
Ethacrynic Acid

>  <Synonyms>
N/A

>  <Target>
Others

>  <Form>
Free Base

>  <CAS>
58-54-8

>  <URL>
http://www.selleckchem.com/products/ethacrynic-acid.html

$$$$
