Ethamsylate.cdx
 OpenBabel08302522043D

 34 33  0  0  0  0  0  0  0  0999 V2000
   -0.7670   -1.0182    0.6276 C   0  0  0  0  0  0  0  0  0  0  0  0
   -1.4824    0.3100   -0.3975 C   0  0  0  0  0  0  0  0  0  0  0  0
    1.0268   -1.1253    0.9230 C   0  0  0  0  0  0  0  0  0  0  0  0
   -1.5816   -2.5825    0.5444 S   0  0  0  0  0  0  0  0  0  0  0  0
   -0.3880    1.5798   -1.1203 C   0  0  0  0  0  0  0  0  0  0  0  0
   -2.8159    0.3670   -0.6881 O   0  0  0  0  0  0  0  0  0  0  0  0
    2.1103    0.1224    0.1594 C   0  0  0  0  0  0  0  0  0  0  0  0
   -2.0636   -2.8882    2.0496 O   0  0  0  0  0  0  0  0  0  0  0  0
   -2.7711   -2.4124   -0.2691 O   0  0  0  0  0  0  0  0  0  0  0  0
   -0.5903   -3.5949    0.2540 O   0  0  0  0  0  0  0  0  0  0  0  0
    1.4324    1.4211   -0.9162 C   0  0  0  0  0  0  0  0  0  0  0  0
    3.4611   -0.0621    0.1885 O   0  0  0  0  0  0  0  0  0  0  0  0
    0.3915   -0.3603   -0.9154 N   0  0  0  0  0  0  0  0  0  0  0  0
    0.2378    0.9114    0.7247 C   0  0  0  0  0  0  0  0  0  0  0  0
    0.0616   -0.3541   -2.4295 C   0  0  0  0  0  0  0  0  0  0  0  0
    0.9046    2.4442    1.1504 C   0  0  0  0  0  0  0  0  0  0  0  0
    0.4738   -1.6909   -3.0551 C   0  0  0  0  0  0  0  0  0  0  0  0
    1.4434   -2.0065    1.3968 H   0  0  0  0  0  0  0  0  0  0  0  0
   -0.8043    2.3438   -1.7722 H   0  0  0  0  0  0  0  0  0  0  0  0
   -3.1898   -0.5147   -0.4825 H   0  0  0  0  0  0  0  0  0  0  0  0
   -1.7008   -3.7689    2.2869 H   0  0  0  0  0  0  0  0  0  0  0  0
    2.1038    2.0931   -1.4451 H   0  0  0  0  0  0  0  0  0  0  0  0
    3.6149   -0.9763    0.4909 H   0  0  0  0  0  0  0  0  0  0  0  0
    1.1732   -1.0156   -0.9400 H   0  0  0  0  0  0  0  0  0  0  0  0
   -0.7936    1.2144    1.0647 H   0  0  0  0  0  0  0  0  0  0  0  0
    0.4692    0.4701    1.7332 H   0  0  0  0  0  0  0  0  0  0  0  0
   -1.0069   -0.2497   -2.6466 H   0  0  0  0  0  0  0  0  0  0  0  0
    0.6262    0.4069   -2.9811 H   0  0  0  0  0  0  0  0  0  0  0  0
    0.8208    3.2239    0.3812 H   0  0  0  0  0  0  0  0  0  0  0  0
    0.3172    2.8291    1.9944 H   0  0  0  0  0  0  0  0  0  0  0  0
    1.9403    2.3503    1.4969 H   0  0  0  0  0  0  0  0  0  0  0  0
   -0.0321   -2.5350   -2.5771 H   0  0  0  0  0  0  0  0  0  0  0  0
    0.2013   -1.6908   -4.1166 H   0  0  0  0  0  0  0  0  0  0  0  0
    1.5564   -1.8441   -2.9910 H   0  0  0  0  0  0  0  0  0  0  0  0
  1  2  2  0  0  0  0
  1  3  1  0  0  0  0
  1  4  1  0  0  0  0
  2  5  1  0  0  0  0
  2  6  1  0  0  0  0
  3  7  2  0  0  0  0
  3 18  1  0  0  0  0
  4  8  1  0  0  0  0
  4  9  2  0  0  0  0
  4 10  2  0  0  0  0
  5 11  2  0  0  0  0
  5 19  1  0  0  0  0
  6 20  1  0  0  0  0
  7 12  1  0  0  0  0
  7 11  1  0  0  0  0
  8 21  1  0  0  0  0
 11 22  1  0  0  0  0
 12 23  1  0  0  0  0
 13 14  1  0  0  0  0
 13 15  1  0  0  0  0
 13 24  1  0  0  0  0
 14 16  1  0  0  0  0
 14 25  1  0  0  0  0
 14 26  1  0  0  0  0
 15 17  1  0  0  0  0
 15 27  1  0  0  0  0
 15 28  1  0  0  0  0
 16 29  1  0  0  0  0
 16 30  1  0  0  0  0
 16 31  1  0  0  0  0
 17 32  1  0  0  0  0
 17 33  1  0  0  0  0
 17 34  1  0  0  0  0
M  END
>  <Mol_ID>
1285

>  <Formula>
C10H17NO5S

>  <MolWeight>
263.31068

>  <Cat>
S4152

>  <Name>
Ethamsylate

>  <Synonyms>
Etamsylate

>  <Target>
Prostaglandin Receptor

>  <Form>
Diethylamine

>  <CAS>
2624-44-4

>  <URL>
http://selleckchem.com/products/ethamsylate.html

$$$$
