Ethacrynate Sodium
 OpenBabel08302520393D

 30 30  0  0  0  0  0  0  0  0999 V2000
   -0.1263   -0.0861    2.0285 C   0  0  0  0  0  0  0  0  0  0  0  0
    0.3727    0.5234    0.7029 C   0  0  0  0  0  0  0  0  0  0  0  0
   -0.4172    1.6789    0.3538 O   0  0  0  0  0  0  0  0  0  0  0  0
    0.1588    2.5563   -0.5238 C   0  0  0  0  0  0  0  0  0  0  0  0
    1.1921    2.2522   -1.4041 C   0  0  0  0  0  0  0  0  0  0  0  0
    1.7284    3.2507   -2.2265 C   0  0  0  0  0  0  0  0  0  0  0  0
    1.2282    4.5625   -2.1919 C   0  0  0  0  0  0  0  0  0  0  0  0
    0.1764    4.8585   -1.3190 C   0  0  0  0  0  0  0  0  0  0  0  0
   -0.3617    3.8533   -0.5036 C   0  0  0  0  0  0  0  0  0  0  0  0
    1.9307    5.5815   -3.0252 C   0  0  0  0  0  0  0  0  0  0  0  0
    1.2546    6.8205   -3.5460 C   0  0  0  0  0  0  0  0  0  0  0  0
    2.1823    7.9763   -3.8655 C   0  0  0  0  0  0  0  0  0  0  0  0
    2.7620    7.8969   -5.2740 C   0  0  0  0  0  0  0  0  0  0  0  0
   -0.0648    6.9097   -3.7793 C   0  0  0  0  0  0  0  0  0  0  0  0
    3.1210    5.4024   -3.2873 O   0  0  0  0  0  0  0  0  0  0  0  0
   -0.0130    0.6469    3.0517 O   0  0  0  0  0  0  0  0  0  0  0  0
   -0.5303   -1.2853    1.9480 O   0  5  0  0  0  0  0  0  0  0  0  0
    1.4252    0.7939    0.8552 H   0  0  0  0  0  0  0  0  0  0  0  0
    0.2934   -0.2187   -0.1009 H   0  0  0  0  0  0  0  0  0  0  0  0
    1.6081    1.2514   -1.4596 H   0  0  0  0  0  0  0  0  0  0  0  0
    2.5619    3.0004   -2.8793 H   0  0  0  0  0  0  0  0  0  0  0  0
   -0.2177    5.8647   -1.2226 H   0  0  0  0  0  0  0  0  0  0  0  0
   -1.1711    4.0821    0.1876 H   0  0  0  0  0  0  0  0  0  0  0  0
    1.6391    8.9246   -3.7658 H   0  0  0  0  0  0  0  0  0  0  0  0
    2.9957    8.0230   -3.1328 H   0  0  0  0  0  0  0  0  0  0  0  0
    1.9706    7.8482   -6.0296 H   0  0  0  0  0  0  0  0  0  0  0  0
    3.3677    8.7855   -5.4803 H   0  0  0  0  0  0  0  0  0  0  0  0
    3.4049    7.0198   -5.3983 H   0  0  0  0  0  0  0  0  0  0  0  0
   -0.7553    6.0898   -3.6176 H   0  0  0  0  0  0  0  0  0  0  0  0
   -0.4917    7.8252   -4.1824 H   0  0  0  0  0  0  0  0  0  0  0  0
  1  2  1  0  0  0  0
  1 16  2  0  0  0  0
  1 17  1  0  0  0  0
  2  3  1  0  0  0  0
  2 18  1  0  0  0  0
  2 19  1  0  0  0  0
  3  4  1  0  0  0  0
  4  5  2  0  0  0  0
  4  9  1  0  0  0  0
  5  6  1  0  0  0  0
  5 20  1  0  0  0  0
  6  7  2  0  0  0  0
  6 21  1  0  0  0  0
  7  8  1  0  0  0  0
  7 10  1  0  0  0  0
  8  9  2  0  0  0  0
  8 22  1  0  0  0  0
  9 23  1  0  0  0  0
 10 11  1  0  0  0  0
 10 15  2  0  0  0  0
 11 12  1  0  0  0  0
 11 14  2  0  0  0  0
 12 13  1  0  0  0  0
 12 24  1  0  0  0  0
 12 25  1  0  0  0  0
 13 26  1  0  0  0  0
 13 27  1  0  0  0  0
 13 28  1  0  0  0  0
 14 29  1  0  0  0  0
 14 30  1  0  0  0  0
M  CHG  1  17  -1
M  END
>  <Mol_ID>
3704

>  <Formula>
C13H11Cl2NaO4

>  <MolWeight>
325.11981

>  <Cat>
S5847

>  <Name>
Ethacrynate Sodium

>  <Synonyms>
ethacrynic acid sodium

>  <Target>
Proton Pump

>  <Form>
Sodium

>  <CAS>
6500-81-8

>  <URL>
http://www.selleck.cn/products/ethacrynate-sodium.html

$$$$
