Ethambutol Hydrochloride.cdx
 OpenBabel08302522043D

 38 37  0  0  0  0  0  0  0  0999 V2000
    1.3164   -0.1051   -0.3584 C   0  0  1  0  0  0  0  0  0  0  0  0
    0.8207   -1.4089    0.1732 N   0  0  0  0  0  0  0  0  0  0  0  0
    2.1189   -0.2574   -1.6665 C   0  0  0  0  0  0  0  0  0  0  0  0
    0.0980    0.8328   -0.5430 C   0  0  0  0  0  0  0  0  0  0  0  0
    1.9067   -2.3429    0.5160 C   0  0  0  0  0  0  0  0  0  0  0  0
    2.5221    1.0606   -2.3170 C   0  0  0  0  0  0  0  0  0  0  0  0
   -0.6181    0.9500    0.6847 O   0  0  0  0  0  0  0  0  0  0  0  0
    1.4176   -3.6682    1.1598 C   0  0  0  0  0  0  0  0  0  0  0  0
    0.3630   -4.4182    0.4579 N   0  0  0  0  0  0  0  0  0  0  0  0
    0.7117   -4.9011   -0.8939 C   0  0  1  0  0  0  0  0  0  0  0  0
    1.8638   -5.9340   -0.9446 C   0  0  0  0  0  0  0  0  0  0  0  0
   -0.5757   -5.4575   -1.5559 C   0  0  0  0  0  0  0  0  0  0  0  0
    1.7258   -7.1851   -0.0858 C   0  0  0  0  0  0  0  0  0  0  0  0
   -1.2291   -6.4167   -0.7291 O   0  0  0  0  0  0  0  0  0  0  0  0
    1.9572    0.3439    0.4122 H   0  0  0  0  0  0  0  0  0  0  0  0
    0.2225   -1.8474   -0.5297 H   0  0  0  0  0  0  0  0  0  0  0  0
    3.0434   -0.8093   -1.4614 H   0  0  0  0  0  0  0  0  0  0  0  0
    1.5477   -0.8484   -2.3927 H   0  0  0  0  0  0  0  0  0  0  0  0
    0.4038    1.8404   -0.8382 H   0  0  0  0  0  0  0  0  0  0  0  0
   -0.5895    0.4436   -1.2996 H   0  0  0  0  0  0  0  0  0  0  0  0
    2.4851   -2.5997   -0.3768 H   0  0  0  0  0  0  0  0  0  0  0  0
    2.5906   -1.8592    1.2249 H   0  0  0  0  0  0  0  0  0  0  0  0
    2.9371    1.7603   -1.5847 H   0  0  0  0  0  0  0  0  0  0  0  0
    3.2839    0.8813   -3.0831 H   0  0  0  0  0  0  0  0  0  0  0  0
    1.6690    1.5353   -2.8117 H   0  0  0  0  0  0  0  0  0  0  0  0
   -0.5299    0.0779    1.1143 H   0  0  0  0  0  0  0  0  0  0  0  0
    2.2808   -4.3170    1.3438 H   0  0  0  0  0  0  0  0  0  0  0  0
    1.0174   -3.4266    2.1532 H   0  0  0  0  0  0  0  0  0  0  0  0
   -0.4571   -3.8114    0.4018 H   0  0  0  0  0  0  0  0  0  0  0  0
    1.0190   -4.0515   -1.5124 H   0  0  0  0  0  0  0  0  0  0  0  0
    1.9853   -6.2575   -1.9883 H   0  0  0  0  0  0  0  0  0  0  0  0
    2.8044   -5.4394   -0.6792 H   0  0  0  0  0  0  0  0  0  0  0  0
   -1.2882   -4.6443   -1.7305 H   0  0  0  0  0  0  0  0  0  0  0  0
   -0.3585   -5.9245   -2.5226 H   0  0  0  0  0  0  0  0  0  0  0  0
    0.7955   -7.7247   -0.2739 H   0  0  0  0  0  0  0  0  0  0  0  0
    2.5435   -7.8788   -0.3154 H   0  0  0  0  0  0  0  0  0  0  0  0
    1.7855   -6.9464    0.9798 H   0  0  0  0  0  0  0  0  0  0  0  0
   -0.9639   -6.1935    0.1870 H   0  0  0  0  0  0  0  0  0  0  0  0
  1  4  1  0  0  0  0
  1 15  1  1  0  0  0
  1  3  1  0  0  0  0
  1  2  1  0  0  0  0
  2  5  1  0  0  0  0
  2 16  1  0  0  0  0
  3  6  1  0  0  0  0
  3 17  1  0  0  0  0
  3 18  1  0  0  0  0
  4  7  1  0  0  0  0
  4 19  1  0  0  0  0
  4 20  1  0  0  0  0
  5  8  1  0  0  0  0
  5 21  1  0  0  0  0
  5 22  1  0  0  0  0
  6 23  1  0  0  0  0
  6 24  1  0  0  0  0
  6 25  1  0  0  0  0
  7 26  1  0  0  0  0
  8  9  1  0  0  0  0
  8 27  1  0  0  0  0
  8 28  1  0  0  0  0
  9 29  1  0  0  0  0
 10  9  1  0  0  0  0
 10 11  1  0  0  0  0
 10 12  1  0  0  0  0
 10 30  1  6  0  0  0
 11 13  1  0  0  0  0
 11 31  1  0  0  0  0
 11 32  1  0  0  0  0
 12 14  1  0  0  0  0
 12 33  1  0  0  0  0
 12 34  1  0  0  0  0
 13 35  1  0  0  0  0
 13 36  1  0  0  0  0
 13 37  1  0  0  0  0
 14 38  1  0  0  0  0
M  END
>  <Mol_ID>
1246

>  <Formula>
C10H26Cl2N2O2

>  <MolWeight>
277.23164

>  <Cat>
S4004

>  <Name>
Ethambutol 2HCl

>  <Synonyms>
CL40881

>  <Target>
Bacterial

>  <Form>
Dihydrochloride

>  <CAS>
1070-11-7

>  <URL>
http://selleckchem.com/products/ethambutol-hcl.html

$$$$
