ethoxzolamide.cdx
 OpenBabel08302519573D

 26 27  0  0  0  0  0  0  0  0999 V2000
    2.5603   -0.5294   -0.1128 C   0  0  0  0  0  0  0  0  0  0  0  0
    2.3510    0.8432   -0.0009 C   0  0  0  0  0  0  0  0  0  0  0  0
    1.0471    1.3554    0.0301 C   0  0  0  0  0  0  0  0  0  0  0  0
   -0.0347    0.4527    0.0023 C   0  0  0  0  0  0  0  0  0  0  0  0
    0.1625   -0.9279   -0.0666 C   0  0  0  0  0  0  0  0  0  0  0  0
    1.4792   -1.4191   -0.1350 C   0  0  0  0  0  0  0  0  0  0  0  0
   -1.7311    0.7725    0.0363 S   0  0  0  0  0  0  0  0  0  0  0  0
   -2.0348   -0.9059   -0.0421 C   0  0  0  0  0  0  0  0  0  0  0  0
   -0.9860   -1.7022   -0.0682 N   0  0  0  0  0  0  0  0  0  0  0  0
   -3.7293   -1.4380   -0.0586 S   0  0  0  0  0  0  0  0  0  0  0  0
   -4.2834   -1.0751    1.2263 O   0  0  0  0  0  0  0  0  0  0  0  0
   -4.3042   -0.9808   -1.3051 O   0  0  0  0  0  0  0  0  0  0  0  0
   -3.7788   -3.1280   -0.0990 N   0  0  0  0  0  0  0  0  0  0  0  0
    3.3555    1.7791    0.0461 O   0  0  0  0  0  0  0  0  0  0  0  0
    4.5828    1.3281    0.6292 C   0  0  0  0  0  0  0  0  0  0  0  0
    5.5585    2.4894    0.7114 C   0  0  0  0  0  0  0  0  0  0  0  0
    3.5564   -0.9495   -0.2033 H   0  0  0  0  0  0  0  0  0  0  0  0
    0.8767    2.4265    0.0873 H   0  0  0  0  0  0  0  0  0  0  0  0
    1.6481   -2.4886   -0.2140 H   0  0  0  0  0  0  0  0  0  0  0  0
   -3.5190   -3.5060    0.8116 H   0  0  0  0  0  0  0  0  0  0  0  0
   -4.7037   -3.4329   -0.4003 H   0  0  0  0  0  0  0  0  0  0  0  0
    4.3954    0.9418    1.6384 H   0  0  0  0  0  0  0  0  0  0  0  0
    5.0423    0.5506    0.0105 H   0  0  0  0  0  0  0  0  0  0  0  0
    5.1465    3.3107    1.3057 H   0  0  0  0  0  0  0  0  0  0  0  0
    6.5012    2.1652    1.1638 H   0  0  0  0  0  0  0  0  0  0  0  0
    5.7702    2.8861   -0.2869 H   0  0  0  0  0  0  0  0  0  0  0  0
  1  2  2  0  0  0  0
  1 17  1  0  0  0  0
  2  3  1  0  0  0  0
  2 14  1  0  0  0  0
  3  4  2  0  0  0  0
  3 18  1  0  0  0  0
  4  5  1  0  0  0  0
  4  7  1  0  0  0  0
  5  6  2  0  0  0  0
  6  1  1  0  0  0  0
  6 19  1  0  0  0  0
  7  8  1  0  0  0  0
  8  9  2  0  0  0  0
  8 10  1  0  0  0  0
  9  5  1  0  0  0  0
 10 11  2  0  0  0  0
 10 12  2  0  0  0  0
 10 13  1  0  0  0  0
 13 20  1  0  0  0  0
 13 21  1  0  0  0  0
 14 15  1  0  0  0  0
 15 16  1  0  0  0  0
 15 22  1  0  0  0  0
 15 23  1  0  0  0  0
 16 24  1  0  0  0  0
 16 25  1  0  0  0  0
 16 26  1  0  0  0  0
M  END
>  <Mol_ID>
2288

>  <Formula>
C9H10N2O3S2

>  <MolWeight>
258.3173

>  <Cat>
S4326

>  <Name>
Ethoxzolamide

>  <Synonyms>
N/A

>  <Target>
Carbonic Anhydrase

>  <Form>
Free Base

>  <CAS>
452-35-7

>  <URL>
http://www.selleckchem.com/products/ethoxzolamide.html

$$$$
