Ethoxysanguinarine
 OpenBabel08302521463D

 47 52  0  0  0  0  0  0  0  0999 V2000
    0.9512   -0.1170   -0.0184 O   0  0  0  0  0  0  0  0  0  0  0  0
    0.2644    0.9358    0.6468 C   0  0  0  0  0  0  0  0  0  0  0  0
   -1.2187    0.8315    0.3547 C   0  0  0  0  0  0  0  0  0  0  0  0
    4.2411   -0.3039   -1.5912 C   0  0  0  0  0  0  0  0  0  0  0  0
    2.9404   -0.4256    1.3391 C   0  0  0  0  0  0  0  0  0  0  0  0
    3.2848   -1.7810    1.5329 C   0  0  0  0  0  0  0  0  0  0  0  0
    3.0501    0.4431    2.4133 C   0  0  0  0  0  0  0  0  0  0  0  0
    2.3783    0.0257    0.0134 C   0  0  3  0  0  0  0  0  0  0  0  0
    3.0974   -2.7057    0.3919 C   0  0  0  0  0  0  0  0  0  0  0  0
    3.7514   -2.1841    2.8103 C   0  0  0  0  0  0  0  0  0  0  0  0
    3.4634    0.0183    3.6520 C   0  0  0  0  0  0  0  0  0  0  0  0
    2.7390    1.7713    2.4093 O   0  0  0  0  0  0  0  0  0  0  0  0
    2.9315   -0.7508   -1.1134 N   0  0  0  0  0  0  0  0  0  0  0  0
    2.8919   -2.1655   -0.9100 C   0  0  0  0  0  0  0  0  0  0  0  0
    3.0515   -4.0988    0.5535 C   0  0  0  0  0  0  0  0  0  0  0  0
    3.8319   -1.2850    3.8815 C   0  0  0  0  0  0  0  0  0  0  0  0
    3.4428    1.0115    4.5815 O   0  0  0  0  0  0  0  0  0  0  0  0
    2.9245    2.1047    3.8003 C   0  0  0  0  0  0  0  0  0  0  0  0
    2.5872   -3.0254   -2.0096 C   0  0  0  0  0  0  0  0  0  0  0  0
    2.7642   -4.9475   -0.5164 C   0  0  0  0  0  0  0  0  0  0  0  0
    2.5010   -4.4337   -1.7870 C   0  0  0  0  0  0  0  0  0  0  0  0
    2.2982   -2.5370   -3.3040 C   0  0  0  0  0  0  0  0  0  0  0  0
    2.1126   -5.3029   -2.8213 C   0  0  0  0  0  0  0  0  0  0  0  0
    1.9040   -3.4177   -4.2874 C   0  0  0  0  0  0  0  0  0  0  0  0
    1.8043   -4.7631   -4.0485 C   0  0  0  0  0  0  0  0  0  0  0  0
    1.5443   -3.0864   -5.5562 O   0  0  0  0  0  0  0  0  0  0  0  0
    1.3505   -5.4518   -5.1303 O   0  0  0  0  0  0  0  0  0  0  0  0
    1.1392   -4.3732   -6.0643 C   0  0  0  0  0  0  0  0  0  0  0  0
    0.4063    0.8476    1.7273 H   0  0  0  0  0  0  0  0  0  0  0  0
    0.6347    1.9089    0.3069 H   0  0  0  0  0  0  0  0  0  0  0  0
   -1.6298   -0.0901    0.7803 H   0  0  0  0  0  0  0  0  0  0  0  0
   -1.7535    1.6828    0.7877 H   0  0  0  0  0  0  0  0  0  0  0  0
   -1.4053    0.8036   -0.7226 H   0  0  0  0  0  0  0  0  0  0  0  0
    5.0264   -0.4486   -0.8413 H   0  0  0  0  0  0  0  0  0  0  0  0
    4.5382   -0.8221   -2.5101 H   0  0  0  0  0  0  0  0  0  0  0  0
    4.2006    0.7636   -1.8370 H   0  0  0  0  0  0  0  0  0  0  0  0
    2.6316    1.0788   -0.1633 H   0  0  0  0  0  0  0  0  0  0  0  0
    4.0513   -3.2124    2.9948 H   0  0  0  0  0  0  0  0  0  0  0  0
    3.1893   -4.5574    1.5284 H   0  0  0  0  0  0  0  0  0  0  0  0
    4.1585   -1.6100    4.8626 H   0  0  0  0  0  0  0  0  0  0  0  0
    3.6208    2.9461    3.8674 H   0  0  0  0  0  0  0  0  0  0  0  0
    1.9584    2.4122    4.2182 H   0  0  0  0  0  0  0  0  0  0  0  0
    2.7074   -6.0187   -0.3315 H   0  0  0  0  0  0  0  0  0  0  0  0
    2.3365   -1.4745   -3.5220 H   0  0  0  0  0  0  0  0  0  0  0  0
    2.0125   -6.3719   -2.6611 H   0  0  0  0  0  0  0  0  0  0  0  0
    0.0722   -4.3274   -6.3161 H   0  0  0  0  0  0  0  0  0  0  0  0
    1.7061   -4.5854   -6.9770 H   0  0  0  0  0  0  0  0  0  0  0  0
  1  2  1  0  0  0  0
  1  8  1  0  0  0  0
  2  3  1  0  0  0  0
  2 29  1  0  0  0  0
  2 30  1  0  0  0  0
  3 31  1  0  0  0  0
  3 32  1  0  0  0  0
  3 33  1  0  0  0  0
  4 13  1  0  0  0  0
  4 34  1  0  0  0  0
  4 35  1  0  0  0  0
  4 36  1  0  0  0  0
  5  6  2  0  0  0  0
  5  7  1  0  0  0  0
  5  8  1  0  0  0  0
  6  9  1  0  0  0  0
  6 10  1  0  0  0  0
  7 11  2  0  0  0  0
  7 12  1  0  0  0  0
  8 13  1  0  0  0  0
  8 37  1  0  0  0  0
  9 14  2  0  0  0  0
  9 15  1  0  0  0  0
 10 16  2  0  0  0  0
 10 38  1  0  0  0  0
 11 16  1  0  0  0  0
 11 17  1  0  0  0  0
 12 18  1  0  0  0  0
 13 14  1  0  0  0  0
 14 19  1  0  0  0  0
 15 20  2  0  0  0  0
 15 39  1  0  0  0  0
 16 40  1  0  0  0  0
 17 18  1  0  0  0  0
 18 41  1  0  0  0  0
 18 42  1  0  0  0  0
 19 21  2  0  0  0  0
 19 22  1  0  0  0  0
 20 21  1  0  0  0  0
 20 43  1  0  0  0  0
 21 23  1  0  0  0  0
 22 24  2  0  0  0  0
 22 44  1  0  0  0  0
 23 25  2  0  0  0  0
 23 45  1  0  0  0  0
 24 25  1  0  0  0  0
 24 26  1  0  0  0  0
 25 27  1  0  0  0  0
 26 28  1  0  0  0  0
 27 28  1  0  0  0  0
 28 46  1  0  0  0  0
 28 47  1  0  0  0  0
M  END
>  <Mol_ID>
9663

>  <Formula>
C22H19NO5

>  <MolWeight>
377.38996

>  <Cat>
E0584

>  <Name>
Ethoxysanguinarine

>  <Synonyms>
NA

>  <Target>
PI3K/Akt/mTOR

>  <Form>
Free Base

>  <CAS>
28342-31-6

>  <URL>
https://www.selleckchem.com/products/ethoxysanguinarine.html

$$$$
