Ethoxyacetic acid
 OpenBabel08302521363D

 15 14  0  0  0  0  0  0  0  0999 V2000
    0.9762    0.1198   -0.0884 C   0  0  0  0  0  0  0  0  0  0  0  0
    0.1079    0.2945    1.1494 C   0  0  0  0  0  0  0  0  0  0  0  0
    0.3463   -0.8073   -0.9873 O   0  0  0  0  0  0  0  0  0  0  0  0
   -1.0058   -0.4821    1.1051 O   0  0  0  0  0  0  0  0  0  0  0  0
    0.3709    1.0357    2.0831 O   0  0  0  0  0  0  0  0  0  0  0  0
    1.1598   -1.0192   -2.1456 C   0  0  0  0  0  0  0  0  0  0  0  0
    0.4842   -2.0304   -3.0514 C   0  0  0  0  0  0  0  0  0  0  0  0
    1.9451   -0.2769    0.2284 H   0  0  0  0  0  0  0  0  0  0  0  0
    1.0798    1.0930   -0.5787 H   0  0  0  0  0  0  0  0  0  0  0  0
   -0.9862   -0.9796    0.2541 H   0  0  0  0  0  0  0  0  0  0  0  0
    1.2926   -0.0726   -2.6799 H   0  0  0  0  0  0  0  0  0  0  0  0
    2.1404   -1.3997   -1.8387 H   0  0  0  0  0  0  0  0  0  0  0  0
   -0.4815   -1.6532   -3.4029 H   0  0  0  0  0  0  0  0  0  0  0  0
    1.1111   -2.2504   -3.9207 H   0  0  0  0  0  0  0  0  0  0  0  0
    0.2871   -2.9642   -2.5139 H   0  0  0  0  0  0  0  0  0  0  0  0
  1  2  1  0  0  0  0
  1  3  1  0  0  0  0
  1  8  1  0  0  0  0
  1  9  1  0  0  0  0
  2  4  1  0  0  0  0
  2  5  2  0  0  0  0
  3  6  1  0  0  0  0
  4 10  1  0  0  0  0
  6  7  1  0  0  0  0
  6 11  1  0  0  0  0
  6 12  1  0  0  0  0
  7 13  1  0  0  0  0
  7 14  1  0  0  0  0
  7 15  1  0  0  0  0
M  END
>  <Mol_ID>
7225

>  <Formula>
C4H8O3

>  <MolWeight>
104.10452

>  <Cat>
E4232

>  <Name>
Ethoxyacetic acid

>  <Form>
Free base

>  <CAS>
627-03-2

>  <URL>
https://www.selleckchem.com/products/ethoxyacetic-acid.html

$$$$
