ETHYL OCTANOATE
 OpenBabel08302521363D

 32 31  0  0  0  0  0  0  0  0999 V2000
    1.7085   -0.9082   -1.7707 C   0  0  0  0  0  0  0  0  0  0  0  0
    0.4301   -0.7100   -0.9518 C   0  0  0  0  0  0  0  0  0  0  0  0
    2.3554   -2.1170   -1.5693 O   0  0  0  0  0  0  0  0  0  0  0  0
    2.1287   -0.0687   -2.5112 O   0  0  0  0  0  0  0  0  0  0  0  0
   -0.3319   -1.9727   -0.5254 C   0  0  0  0  0  0  0  0  0  0  0  0
    3.6477   -2.4498   -2.2260 C   0  0  0  0  0  0  0  0  0  0  0  0
   -1.5981   -1.6509    0.2995 C   0  0  0  0  0  0  0  0  0  0  0  0
    3.5028   -2.9771   -3.6524 C   0  0  0  0  0  0  0  0  0  0  0  0
   -2.3489   -2.9419    0.6881 C   0  0  0  0  0  0  0  0  0  0  0  0
   -3.6226   -2.7249    1.5129 C   0  0  0  0  0  0  0  0  0  0  0  0
   -4.6586   -1.8669    0.7950 C   0  0  0  0  0  0  0  0  0  0  0  0
   -5.9134   -1.6672    1.6305 C   0  0  0  0  0  0  0  0  0  0  0  0
    0.6285   -0.0296   -0.1104 H   0  0  0  0  0  0  0  0  0  0  0  0
   -0.2396   -0.1462   -1.6104 H   0  0  0  0  0  0  0  0  0  0  0  0
   -0.6398   -2.4996   -1.4318 H   0  0  0  0  0  0  0  0  0  0  0  0
    0.3102   -2.6328    0.0492 H   0  0  0  0  0  0  0  0  0  0  0  0
    4.3939   -1.6427   -2.1604 H   0  0  0  0  0  0  0  0  0  0  0  0
    4.0600   -3.2717   -1.6262 H   0  0  0  0  0  0  0  0  0  0  0  0
   -1.3311   -1.0831    1.1984 H   0  0  0  0  0  0  0  0  0  0  0  0
   -2.2449   -0.9984   -0.2968 H   0  0  0  0  0  0  0  0  0  0  0  0
    2.7431   -2.4380   -4.2229 H   0  0  0  0  0  0  0  0  0  0  0  0
    4.4566   -2.9286   -4.1902 H   0  0  0  0  0  0  0  0  0  0  0  0
    3.2077   -4.0335   -3.6366 H   0  0  0  0  0  0  0  0  0  0  0  0
   -2.5979   -3.5073   -0.2190 H   0  0  0  0  0  0  0  0  0  0  0  0
   -1.7012   -3.5914    1.2862 H   0  0  0  0  0  0  0  0  0  0  0  0
   -4.0559   -3.7094    1.7333 H   0  0  0  0  0  0  0  0  0  0  0  0
   -3.3599   -2.2758    2.4785 H   0  0  0  0  0  0  0  0  0  0  0  0
   -4.2265   -0.8869    0.5747 H   0  0  0  0  0  0  0  0  0  0  0  0
   -4.9245   -2.3276   -0.1634 H   0  0  0  0  0  0  0  0  0  0  0  0
   -5.6707   -1.2129    2.5967 H   0  0  0  0  0  0  0  0  0  0  0  0
   -6.6077   -1.0033    1.1066 H   0  0  0  0  0  0  0  0  0  0  0  0
   -6.4330   -2.6124    1.8170 H   0  0  0  0  0  0  0  0  0  0  0  0
  1  2  1  0  0  0  0
  1  3  1  0  0  0  0
  1  4  2  0  0  0  0
  2  5  1  0  0  0  0
  2 13  1  0  0  0  0
  2 14  1  0  0  0  0
  3  6  1  0  0  0  0
  5  7  1  0  0  0  0
  5 15  1  0  0  0  0
  5 16  1  0  0  0  0
  6  8  1  0  0  0  0
  6 17  1  0  0  0  0
  6 18  1  0  0  0  0
  7  9  1  0  0  0  0
  7 19  1  0  0  0  0
  7 20  1  0  0  0  0
  8 21  1  0  0  0  0
  8 22  1  0  0  0  0
  8 23  1  0  0  0  0
  9 10  1  0  0  0  0
  9 24  1  0  0  0  0
  9 25  1  0  0  0  0
 10 11  1  0  0  0  0
 10 26  1  0  0  0  0
 10 27  1  0  0  0  0
 11 12  1  0  0  0  0
 11 28  1  0  0  0  0
 11 29  1  0  0  0  0
 12 30  1  0  0  0  0
 12 31  1  0  0  0  0
 12 32  1  0  0  0  0
M  END
>  <Mol_ID>
7288

>  <Formula>
C10H20O2

>  <MolWeight>
172.2646

>  <Cat>
E4316

>  <Name>
ETHYL OCTANOATE

>  <Synonyms>
ETHYL OCTANOATE

>  <Target>
Others

>  <Form>
free base

>  <CAS>
106-32-1

>  <URL>
https://www.selleckchem.com/products/ethyl-octanoate.html

$$$$
