Ethyl 3-hydroxybutyrate
 OpenBabel08302521363D

 21 20  0  0  0  0  0  0  0  0999 V2000
    0.9396    0.0190    0.1267 C   0  0  0  0  0  0  0  0  0  0  0  0
    0.4842   -0.1558   -1.3008 C   0  0  0  0  0  0  0  0  0  0  0  0
    0.3955   -0.9109    1.2089 C   0  0  3  0  0  0  0  0  0  0  0  0
   -0.4715   -1.1094   -1.4719 O   0  0  0  0  0  0  0  0  0  0  0  0
    0.9554    0.5145   -2.2137 O   0  0  0  0  0  0  0  0  0  0  0  0
   -1.0952   -0.7791    1.4885 C   0  0  0  0  0  0  0  0  0  0  0  0
    0.7328   -2.2676    0.9428 O   0  0  0  0  0  0  0  0  0  0  0  0
   -0.8576   -1.3467   -2.8383 C   0  0  0  0  0  0  0  0  0  0  0  0
   -1.8702   -0.3240   -3.3266 C   0  0  0  0  0  0  0  0  0  0  0  0
    0.7255    1.0564    0.4064 H   0  0  0  0  0  0  0  0  0  0  0  0
    2.0286   -0.1131    0.0967 H   0  0  0  0  0  0  0  0  0  0  0  0
    0.9181   -0.6510    2.1371 H   0  0  0  0  0  0  0  0  0  0  0  0
   -1.7077   -1.2014    0.6872 H   0  0  0  0  0  0  0  0  0  0  0  0
   -1.3516   -1.3436    2.3925 H   0  0  0  0  0  0  0  0  0  0  0  0
   -1.3823    0.2650    1.6457 H   0  0  0  0  0  0  0  0  0  0  0  0
    0.1904   -2.5638    0.1874 H   0  0  0  0  0  0  0  0  0  0  0  0
    0.0274   -1.3661   -3.4840 H   0  0  0  0  0  0  0  0  0  0  0  0
   -1.3005   -2.3478   -2.8801 H   0  0  0  0  0  0  0  0  0  0  0  0
   -1.5899    0.6975   -3.0526 H   0  0  0  0  0  0  0  0  0  0  0  0
   -1.9742   -0.3799   -4.4152 H   0  0  0  0  0  0  0  0  0  0  0  0
   -2.8524   -0.5157   -2.8820 H   0  0  0  0  0  0  0  0  0  0  0  0
  1  2  1  0  0  0  0
  1  3  1  0  0  0  0
  1 10  1  0  0  0  0
  1 11  1  0  0  0  0
  2  4  1  0  0  0  0
  2  5  2  0  0  0  0
  3  6  1  0  0  0  0
  3  7  1  0  0  0  0
  3 12  1  0  0  0  0
  4  8  1  0  0  0  0
  6 13  1  0  0  0  0
  6 14  1  0  0  0  0
  6 15  1  0  0  0  0
  7 16  1  0  0  0  0
  8  9  1  0  0  0  0
  8 17  1  0  0  0  0
  8 18  1  0  0  0  0
  9 19  1  0  0  0  0
  9 20  1  0  0  0  0
  9 21  1  0  0  0  0
M  END
>  <Mol_ID>
7182

>  <Formula>
C6H12O3

>  <MolWeight>
132.15768

>  <Cat>
E4182

>  <Name>
Ethyl 3-hydroxybutyrate

>  <Synonyms>
Ethyl 3-hydroxybutyrate

>  <Target>
Others

>  <Form>
free base

>  <CAS>
5405-41-4

>  <URL>
https://www.selleckchem.com/products/ethyl-3-hydroxybutyrate.html

$$$$
