Ethyl cinnamate
 OpenBabel08302521363D

 25 25  0  0  0  0  0  0  0  0999 V2000
    0.8857    0.2015   -0.1504 C   0  0  0  0  0  0  0  0  0  0  0  0
    0.1632    0.6109    0.9059 C   0  0  0  0  0  0  0  0  0  0  0  0
   -1.2901    0.4886    1.1670 C   0  0  0  0  0  0  0  0  0  0  0  0
   -1.9158   -0.2555    0.2333 O   0  0  0  0  0  0  0  0  0  0  0  0
   -1.8102    1.0060    2.1446 O   0  0  0  0  0  0  0  0  0  0  0  0
   -3.3263   -0.4437    0.3862 C   0  0  0  0  0  0  0  0  0  0  0  0
   -3.6000   -1.6133    1.3116 C   0  0  0  0  0  0  0  0  0  0  0  0
    0.3860   -0.4847   -1.3424 C   0  0  0  0  0  0  0  0  0  0  0  0
   -0.0215    0.2545   -2.4581 C   0  0  0  0  0  0  0  0  0  0  0  0
    0.2920   -1.8805   -1.3668 C   0  0  0  0  0  0  0  0  0  0  0  0
   -0.5159   -0.3978   -3.5892 C   0  0  0  0  0  0  0  0  0  0  0  0
   -0.2047   -2.5303   -2.4984 C   0  0  0  0  0  0  0  0  0  0  0  0
   -0.6060   -1.7892   -3.6093 C   0  0  0  0  0  0  0  0  0  0  0  0
    1.9566    0.3918   -0.1626 H   0  0  0  0  0  0  0  0  0  0  0  0
    0.6787    1.1264    1.7122 H   0  0  0  0  0  0  0  0  0  0  0  0
   -3.8145    0.4733    0.7344 H   0  0  0  0  0  0  0  0  0  0  0  0
   -3.7223   -0.6651   -0.6103 H   0  0  0  0  0  0  0  0  0  0  0  0
   -3.2944   -1.3789    2.3362 H   0  0  0  0  0  0  0  0  0  0  0  0
   -4.6647   -1.8626    1.3157 H   0  0  0  0  0  0  0  0  0  0  0  0
   -3.0289   -2.4949    1.0019 H   0  0  0  0  0  0  0  0  0  0  0  0
    0.0326    1.3403   -2.4495 H   0  0  0  0  0  0  0  0  0  0  0  0
    0.5878   -2.4673   -0.5009 H   0  0  0  0  0  0  0  0  0  0  0  0
   -0.8361    0.1802   -4.4521 H   0  0  0  0  0  0  0  0  0  0  0  0
   -0.2846   -3.6140   -2.5099 H   0  0  0  0  0  0  0  0  0  0  0  0
   -0.9939   -2.2959   -4.4892 H   0  0  0  0  0  0  0  0  0  0  0  0
  1  2  2  3  0  0  0
  1  8  1  0  0  0  0
  1 14  1  0  0  0  0
  2  3  1  0  0  0  0
  2 15  1  0  0  0  0
  3  4  1  0  0  0  0
  3  5  2  0  0  0  0
  4  6  1  0  0  0  0
  6  7  1  0  0  0  0
  6 16  1  0  0  0  0
  6 17  1  0  0  0  0
  7 18  1  0  0  0  0
  7 19  1  0  0  0  0
  7 20  1  0  0  0  0
  8  9  2  0  0  0  0
  8 10  1  0  0  0  0
  9 11  1  0  0  0  0
  9 21  1  0  0  0  0
 10 12  2  0  0  0  0
 10 22  1  0  0  0  0
 11 13  2  0  0  0  0
 11 23  1  0  0  0  0
 12 13  1  0  0  0  0
 12 24  1  0  0  0  0
 13 25  1  0  0  0  0
M  END
>  <Mol_ID>
7248

>  <Formula>
C11H12O2

>  <MolWeight>
176.21178

>  <Cat>
E4259

>  <Name>
Ethyl cinnamate

>  <Synonyms>
Ethyl cinnamate

>  <Target>
ROS;NO Synthase;Calcium Channel

>  <Form>
free base

>  <CAS>
103-36-6

>  <URL>
https://www.selleckchem.com/products/ethyl-cinnamate.html

$$$$
