Ethylparaben.cdx
 OpenBabel08302519503D

 22 22  0  0  0  0  0  0  0  0999 V2000
    0.2028   -1.3576    0.0775 C   0  0  0  0  0  0  0  0  0  0  0  0
    0.9738   -0.2108   -0.0821 C   0  0  0  0  0  0  0  0  0  0  0  0
    0.3765    1.0234   -0.3136 C   0  0  0  0  0  0  0  0  0  0  0  0
   -1.0161    1.1178   -0.3792 C   0  0  0  0  0  0  0  0  0  0  0  0
   -1.8103   -0.0270   -0.2134 C   0  0  0  0  0  0  0  0  0  0  0  0
   -1.1908   -1.2656    0.0112 C   0  0  0  0  0  0  0  0  0  0  0  0
    2.3345   -0.2582   -0.0186 O   0  0  0  0  0  0  0  0  0  0  0  0
   -3.2935    0.1154   -0.2957 C   0  0  0  0  0  0  0  0  0  0  0  0
   -3.8997   -1.0755   -0.0527 O   0  0  0  0  0  0  0  0  0  0  0  0
   -3.8560    1.1686   -0.5551 O   0  0  0  0  0  0  0  0  0  0  0  0
   -5.3268   -1.0962   -0.2062 C   0  0  0  0  0  0  0  0  0  0  0  0
   -6.0174   -0.7536    1.1009 C   0  0  0  0  0  0  0  0  0  0  0  0
    0.6619   -2.3258    0.2507 H   0  0  0  0  0  0  0  0  0  0  0  0
    0.9929    1.9090   -0.4408 H   0  0  0  0  0  0  0  0  0  0  0  0
   -1.4764    2.0860   -0.5668 H   0  0  0  0  0  0  0  0  0  0  0  0
   -1.7820   -2.1693    0.1339 H   0  0  0  0  0  0  0  0  0  0  0  0
    2.6093   -1.1710    0.1693 H   0  0  0  0  0  0  0  0  0  0  0  0
   -5.6476   -0.4274   -1.0125 H   0  0  0  0  0  0  0  0  0  0  0  0
   -5.6002   -2.1132   -0.5069 H   0  0  0  0  0  0  0  0  0  0  0  0
   -5.6292    0.1755    1.5291 H   0  0  0  0  0  0  0  0  0  0  0  0
   -7.0962   -0.6507    0.9492 H   0  0  0  0  0  0  0  0  0  0  0  0
   -5.8489   -1.5432    1.8408 H   0  0  0  0  0  0  0  0  0  0  0  0
  1  2  2  0  0  0  0
  1 13  1  0  0  0  0
  2  3  1  0  0  0  0
  2  7  1  0  0  0  0
  3  4  2  0  0  0  0
  3 14  1  0  0  0  0
  4  5  1  0  0  0  0
  4 15  1  0  0  0  0
  5  6  2  0  0  0  0
  5  8  1  0  0  0  0
  6  1  1  0  0  0  0
  6 16  1  0  0  0  0
  7 17  1  0  0  0  0
  8  9  1  0  0  0  0
  8 10  2  0  0  0  0
  9 11  1  0  0  0  0
 11 12  1  0  0  0  0
 11 18  1  0  0  0  0
 11 19  1  0  0  0  0
 12 20  1  0  0  0  0
 12 21  1  0  0  0  0
 12 22  1  0  0  0  0
M  END
>  <Mol_ID>
1489

>  <Formula>
C9H10O3

>  <MolWeight>
166.1739

>  <Cat>
S4525

>  <Name>
Ethylparaben

>  <Synonyms>
Ethyl parahydroxybenzoate, Ethyl 4-hydroxybenzoate

>  <Target>
Fungal

>  <Form>
free base

>  <CAS>
120-47-8

>  <URL>
http://selleckchem.com/products/ethylparaben.html

$$$$
