ETHYL 3,5-DIHYDROXYBENZOATE
 OpenBabel08302521373D

 23 23  0  0  0  0  0  0  0  0999 V2000
    1.0558   -0.0110    0.3177 C   0  0  0  0  0  0  0  0  0  0  0  0
    0.5389   -1.2545    0.4832 O   0  0  0  0  0  0  0  0  0  0  0  0
    0.4070    1.0098    0.1536 O   0  0  0  0  0  0  0  0  0  0  0  0
   -0.8840   -1.3444    0.2908 C   0  0  0  0  0  0  0  0  0  0  0  0
   -1.6478   -1.0059    1.5591 C   0  0  0  0  0  0  0  0  0  0  0  0
    5.2555    2.4289   -0.0964 O   0  0  0  0  0  0  0  0  0  0  0  0
    5.4715   -2.2440    0.4331 O   0  0  0  0  0  0  0  0  0  0  0  0
    2.5469   -0.0235    0.3112 C   0  0  0  0  0  0  0  0  0  0  0  0
    3.1993    1.2051    0.1340 C   0  0  0  0  0  0  0  0  0  0  0  0
    3.3001   -1.2001    0.4307 C   0  0  0  0  0  0  0  0  0  0  0  0
    4.5896    1.2514    0.0748 C   0  0  0  0  0  0  0  0  0  0  0  0
    4.6920   -1.1273    0.3522 C   0  0  0  0  0  0  0  0  0  0  0  0
    5.3412    0.0898    0.1795 C   0  0  0  0  0  0  0  0  0  0  0  0
   -1.1999   -0.7031   -0.5410 H   0  0  0  0  0  0  0  0  0  0  0  0
   -1.1072   -2.3747   -0.0061 H   0  0  0  0  0  0  0  0  0  0  0  0
   -1.3055   -0.0660    2.0016 H   0  0  0  0  0  0  0  0  0  0  0  0
   -2.7194   -0.9258    1.3500 H   0  0  0  0  0  0  0  0  0  0  0  0
   -1.5040   -1.7870    2.3122 H   0  0  0  0  0  0  0  0  0  0  0  0
    4.6147    3.1593   -0.1002 H   0  0  0  0  0  0  0  0  0  0  0  0
    4.9032   -3.0313    0.4178 H   0  0  0  0  0  0  0  0  0  0  0  0
    2.6164    2.1175    0.0299 H   0  0  0  0  0  0  0  0  0  0  0  0
    2.8099   -2.1571    0.5770 H   0  0  0  0  0  0  0  0  0  0  0  0
    6.4253    0.1313    0.1198 H   0  0  0  0  0  0  0  0  0  0  0  0
  1  2  1  0  0  0  0
  1  3  2  0  0  0  0
  1  8  1  0  0  0  0
  2  4  1  0  0  0  0
  4  5  1  0  0  0  0
  4 14  1  0  0  0  0
  4 15  1  0  0  0  0
  5 16  1  0  0  0  0
  5 17  1  0  0  0  0
  5 18  1  0  0  0  0
  6 11  1  0  0  0  0
  6 19  1  0  0  0  0
  7 12  1  0  0  0  0
  7 20  1  0  0  0  0
  8  9  2  0  0  0  0
  8 10  1  0  0  0  0
  9 11  1  0  0  0  0
  9 21  1  0  0  0  0
 10 12  2  0  0  0  0
 10 22  1  0  0  0  0
 11 13  2  0  0  0  0
 12 13  1  0  0  0  0
 13 23  1  0  0  0  0
M  END
>  <Mol_ID>
7350

>  <Formula>
C9H10O4

>  <MolWeight>
182.1733

>  <Cat>
E4397

>  <Name>
ETHYL 3,5-DIHYDROXYBENZOATE

>  <Synonyms>
ETHYL 3,5-DIHYDROXYBENZOATE

>  <Target>
Others

>  <Form>
free base

>  <CAS>
4142-98-7

>  <URL>
https://www.selleckchem.com/products/ethyl-3-5-dihydroxybenzoate.html

$$$$
