Ethylvanillin
 OpenBabel08302520323D

 22 22  0  0  0  0  0  0  0  0999 V2000
    0.8662   -0.0602    0.0052 C   0  0  0  0  0  0  0  0  0  0  0  0
    0.1033   -1.2248   -0.0772 C   0  0  0  0  0  0  0  0  0  0  0  0
    0.2118    1.1767    0.0293 C   0  0  0  0  0  0  0  0  0  0  0  0
    2.2379   -0.0121    0.0388 O   0  0  0  0  0  0  0  0  0  0  0  0
   -1.2956   -1.1372   -0.0868 C   0  0  0  0  0  0  0  0  0  0  0  0
   -1.1767    1.2693    0.0137 C   0  0  0  0  0  0  0  0  0  0  0  0
    0.9327    2.3373    0.0851 O   0  0  0  0  0  0  0  0  0  0  0  0
    2.8690   -1.1563    0.6241 C   0  0  0  0  0  0  0  0  0  0  0  0
   -1.9396    0.1033   -0.0370 C   0  0  0  0  0  0  0  0  0  0  0  0
   -2.1059   -2.3713   -0.1398 C   0  0  0  0  0  0  0  0  0  0  0  0
    4.3643   -0.9035    0.6902 C   0  0  0  0  0  0  0  0  0  0  0  0
   -1.5949   -3.4822   -0.1786 O   0  0  0  0  0  0  0  0  0  0  0  0
    0.5638   -2.2035   -0.1489 H   0  0  0  0  0  0  0  0  0  0  0  0
   -1.6560    2.2436    0.0467 H   0  0  0  0  0  0  0  0  0  0  0  0
    1.8689    2.0572    0.0638 H   0  0  0  0  0  0  0  0  0  0  0  0
    2.4826   -1.3180    1.6379 H   0  0  0  0  0  0  0  0  0  0  0  0
    2.7012   -2.0468    0.0111 H   0  0  0  0  0  0  0  0  0  0  0  0
   -3.0238    0.1755   -0.0406 H   0  0  0  0  0  0  0  0  0  0  0  0
   -3.2021   -2.2428   -0.1355 H   0  0  0  0  0  0  0  0  0  0  0  0
    4.5857   -0.0186    1.2951 H   0  0  0  0  0  0  0  0  0  0  0  0
    4.8820   -1.7652    1.1224 H   0  0  0  0  0  0  0  0  0  0  0  0
    4.7673   -0.7177   -0.3111 H   0  0  0  0  0  0  0  0  0  0  0  0
  1  2  2  0  0  0  0
  1  3  1  0  0  0  0
  1  4  1  0  0  0  0
  2  5  1  0  0  0  0
  2 13  1  0  0  0  0
  3  6  2  0  0  0  0
  3  7  1  0  0  0  0
  4  8  1  0  0  0  0
  5  9  2  0  0  0  0
  5 10  1  0  0  0  0
  6  9  1  0  0  0  0
  6 14  1  0  0  0  0
  7 15  1  0  0  0  0
  8 11  1  0  0  0  0
  8 16  1  0  0  0  0
  8 17  1  0  0  0  0
  9 18  1  0  0  0  0
 10 12  2  0  0  0  0
 10 19  1  0  0  0  0
 11 20  1  0  0  0  0
 11 21  1  0  0  0  0
 11 22  1  0  0  0  0
M  END
>  <Mol_ID>
3336

>  <Formula>
C9H10O3

>  <MolWeight>
166.1739

>  <Cat>
S4568

>  <Name>
Ethylvanillin

>  <Synonyms>
Ethylprotal, Bourbonal, Rhodiarome

>  <Target>
Others

>  <Form>
Free Base

>  <CAS>
121-32-4

>  <URL>
http://www.selleckchem.com/products/ethylvanillin.html

$$$$
