Ethynodiol diacetate.cdx
 OpenBabel08302521432D

 60 63  0  0  0  0  0  0  0  0999 V2000
    2.4165    4.1903    0.0000 C   0  0  0  0  0  0  0  0  0  0  0  0
    2.4165    2.7903    0.0000 C   0  0  1  0  0  0  0  0  0  0  0  0
    3.6289    2.0903    0.0000 C   0  0  0  0  0  0  0  0  0  0  0  0
    4.8413    2.7903    0.0000 C   0  0  0  0  0  0  0  0  0  0  0  0
    4.8413    4.1903    0.0000 C   0  0  2  0  0  0  0  0  0  0  0  0
    3.6289    4.8903    0.0000 C   0  0  0  0  0  0  0  0  0  0  0  0
    6.0538    2.0903    0.0000 C   0  0  0  0  0  0  0  0  0  0  0  0
    7.2662    2.7903    0.0000 C   0  0  0  0  0  0  0  0  0  0  0  0
    7.2662    4.1903    0.0000 C   0  0  2  0  0  0  0  0  0  0  0  0
    6.0538    4.8903    0.0000 C   0  0  2  0  0  0  0  0  0  0  0  0
    8.4786    4.8903    0.0000 C   0  0  1  0  0  0  0  0  0  0  0  0
    8.4786    6.2903    0.0000 C   0  0  2  0  0  0  0  0  0  0  0  0
    7.2662    6.9903    0.0000 C   0  0  0  0  0  0  0  0  0  0  0  0
    6.0538    6.2903    0.0000 C   0  0  0  0  0  0  0  0  0  0  0  0
    9.8101    4.4577    0.0000 C   0  0  0  0  0  0  0  0  0  0  0  0
   10.6330    5.5903    0.0000 C   0  0  0  0  0  0  0  0  0  0  0  0
    9.8101    6.7229    0.0000 C   0  0  1  0  0  0  0  0  0  0  0  0
    1.2082    2.0927    0.0000 O   0  0  0  0  0  0  0  0  0  0  0  0
    8.4786    7.6903    0.0000 C   0  0  0  0  0  0  0  0  0  0  0  0
   10.1322    8.6351    0.0000 C   0  0  0  0  0  0  0  0  0  0  0  0
   11.3446    9.3351    0.0000 C   0  0  0  0  0  0  0  0  0  0  0  0
   11.1683    7.0420    0.0000 O   0  0  0  0  0  0  0  0  0  0  0  0
   12.1237    6.0253    0.0000 C   0  0  0  0  0  0  0  0  0  0  0  0
   11.7209    4.6895    0.0000 O   0  0  0  0  0  0  0  0  0  0  0  0
   13.4818    6.3443    0.0000 C   0  0  0  0  0  0  0  0  0  0  0  0
    1.2082    0.6976    0.0000 C   0  0  0  0  0  0  0  0  0  0  0  0
    2.4165    0.0000    0.0000 O   0  0  0  0  0  0  0  0  0  0  0  0
    0.0000    0.0000    0.0000 C   0  0  0  0  0  0  0  0  0  0  0  0
    1.4898    4.7253    0.0000 H   0  0  0  0  0  0  0  0  0  0  0  0
    2.4165    5.2603    0.0000 H   0  0  0  0  0  0  0  0  0  0  0  0
    1.4899    3.3253    0.0000 H   0  0  0  0  0  0  0  0  0  0  0  0
    3.6289    1.0583    0.0000 H   0  0  0  0  0  0  0  0  0  0  0  0
    3.9146    3.6553    0.0000 H   0  0  0  0  0  0  0  0  0  0  0  0
    3.6289    5.9603    0.0000 H   0  0  0  0  0  0  0  0  0  0  0  0
    2.7022    5.4253    0.0000 H   0  0  0  0  0  0  0  0  0  0  0  0
    6.0538    1.0203    0.0000 H   0  0  0  0  0  0  0  0  0  0  0  0
    6.9805    1.5553    0.0000 H   0  0  0  0  0  0  0  0  0  0  0  0
    8.1929    2.2553    0.0000 H   0  0  0  0  0  0  0  0  0  0  0  0
    8.1928    3.3253    0.0000 H   0  0  0  0  0  0  0  0  0  0  0  0
    6.3395    3.6553    0.0000 H   0  0  0  0  0  0  0  0  0  0  0  0
    6.9805    5.4253    0.0000 H   0  0  0  0  0  0  0  0  0  0  0  0
    8.5905    3.8262    0.0000 H   0  0  0  0  0  0  0  0  0  0  0  0
    7.2662    8.0603    0.0000 H   0  0  0  0  0  0  0  0  0  0  0  0
    6.3395    7.5253    0.0000 H   0  0  0  0  0  0  0  0  0  0  0  0
    5.1271    6.8253    0.0000 H   0  0  0  0  0  0  0  0  0  0  0  0
    6.0538    7.3603    0.0000 H   0  0  0  0  0  0  0  0  0  0  0  0
   10.1408    3.4401    0.0000 H   0  0  0  0  0  0  0  0  0  0  0  0
   10.8669    4.2903    0.0000 H   0  0  0  0  0  0  0  0  0  0  0  0
   11.7030    5.5903    0.0000 H   0  0  0  0  0  0  0  0  0  0  0  0
   11.1188    6.5437    0.0000 H   0  0  0  0  0  0  0  0  0  0  0  0
    9.4052    8.2253    0.0000 H   0  0  0  0  0  0  0  0  0  0  0  0
    7.5520    8.2253    0.0000 H   0  0  0  0  0  0  0  0  0  0  0  0
    8.4786    8.7603    0.0000 H   0  0  0  0  0  0  0  0  0  0  0  0
   12.2054    9.8321    0.0000 H   0  0  0  0  0  0  0  0  0  0  0  0
   14.2145    5.5645    0.0000 H   0  0  0  0  0  0  0  0  0  0  0  0
   13.7907    7.3687    0.0000 H   0  0  0  0  0  0  0  0  0  0  0  0
   14.5235    6.5890    0.0000 H   0  0  0  0  0  0  0  0  0  0  0  0
   -0.9267    0.5350    0.0000 H   0  0  0  0  0  0  0  0  0  0  0  0
    0.0000   -1.0700    0.0000 H   0  0  0  0  0  0  0  0  0  0  0  0
   -0.9266   -0.5350    0.0000 H   0  0  0  0  0  0  0  0  0  0  0  0
  1  2  1  0  0  0  0
  1 29  1  0  0  0  0
  1 30  1  0  0  0  0
  2  3  1  0  0  0  0
  2 18  1  0  0  0  0
  2 31  1  6  0  0  0
  3  4  2  0  0  0  0
  3 32  1  0  0  0  0
  4  5  1  0  0  0  0
  4  7  1  0  0  0  0
  5  6  1  0  0  0  0
  5 33  1  1  0  0  0
  6  1  1  0  0  0  0
  6 34  1  0  0  0  0
  6 35  1  0  0  0  0
  7  8  1  0  0  0  0
  7 36  1  0  0  0  0
  7 37  1  0  0  0  0
  8 38  1  0  0  0  0
  8 39  1  0  0  0  0
  9  8  1  0  0  0  0
  9 10  1  0  0  0  0
  9 11  1  0  0  0  0
  9 40  1  1  0  0  0
 10  5  1  0  0  0  0
 10 14  1  0  0  0  0
 10 41  1  6  0  0  0
 11 12  1  0  0  0  0
 11 15  1  0  0  0  0
 11 42  1  6  0  0  0
 12 13  1  0  0  0  0
 12 19  1  1  0  0  0
 13 14  1  0  0  0  0
 13 43  1  0  0  0  0
 13 44  1  0  0  0  0
 14 45  1  0  0  0  0
 14 46  1  0  0  0  0
 15 16  1  0  0  0  0
 15 47  1  0  0  0  0
 15 48  1  0  0  0  0
 16 17  1  0  0  0  0
 16 49  1  0  0  0  0
 16 50  1  0  0  0  0
 17 12  1  0  0  0  0
 17 20  1  6  0  0  0
 17 22  1  0  0  0  0
 18 26  1  0  0  0  0
 19 51  1  0  0  0  0
 19 52  1  0  0  0  0
 19 53  1  0  0  0  0
 20 21  3  0  0  0  0
 21 54  1  0  0  0  0
 22 23  1  0  0  0  0
 23 24  2  0  0  0  0
 23 25  1  0  0  0  0
 25 55  1  0  0  0  0
 25 56  1  0  0  0  0
 25 57  1  0  0  0  0
 26 27  2  0  0  0  0
 26 28  1  0  0  0  0
 28 58  1  0  0  0  0
 28 59  1  0  0  0  0
 28 60  1  0  0  0  0
M  END
>  <Mol_ID>
612

>  <Formula>
C24H32O4

>  <MolWeight>
384.50848

>  <Cat>
S3160

>  <Name>
Ethynodiol diacetate

>  <Synonyms>
8080 CB,Ethynodiol acetate

>  <Target>
Estrogen/progestogen Receptor

>  <Form>
free base

>  <CAS>
297-76-7

>  <URL>
http://selleckchem.com/products/ethynodiol-diacetate.html

$$$$
