Ethyl maltol
 OpenBabel08302520393D

 18 18  0  0  0  0  0  0  0  0999 V2000
   -0.6190   -1.3109    0.0265 C   0  0  0  0  0  0  0  0  0  0  0  0
    0.5826   -0.7133    0.0774 C   0  0  0  0  0  0  0  0  0  0  0  0
   -1.8085   -0.5915   -0.0411 O   0  0  0  0  0  0  0  0  0  0  0  0
   -0.7958   -2.8062    0.0056 C   0  0  0  0  0  0  0  0  0  0  0  0
    0.6486    0.7717    0.0570 C   0  0  0  0  0  0  0  0  0  0  0  0
    1.7750   -1.4103    0.1347 O   0  0  0  0  0  0  0  0  0  0  0  0
   -1.7529    0.7830   -0.0205 C   0  0  0  0  0  0  0  0  0  0  0  0
   -1.6247   -3.3156    1.1765 C   0  0  0  0  0  0  0  0  0  0  0  0
   -0.6273    1.5011    0.0225 C   0  0  0  0  0  0  0  0  0  0  0  0
    1.7319    1.3448    0.0694 O   0  0  0  0  0  0  0  0  0  0  0  0
   -1.2765   -3.0950   -0.9364 H   0  0  0  0  0  0  0  0  0  0  0  0
    0.1739   -3.3167    0.0248 H   0  0  0  0  0  0  0  0  0  0  0  0
    2.4708   -0.7193    0.1235 H   0  0  0  0  0  0  0  0  0  0  0  0
   -2.7440    1.2123   -0.0453 H   0  0  0  0  0  0  0  0  0  0  0  0
   -2.6292   -2.8802    1.1792 H   0  0  0  0  0  0  0  0  0  0  0  0
   -1.7324   -4.4035    1.1141 H   0  0  0  0  0  0  0  0  0  0  0  0
   -1.1448   -3.0771    2.1312 H   0  0  0  0  0  0  0  0  0  0  0  0
   -0.6031    2.5811    0.0332 H   0  0  0  0  0  0  0  0  0  0  0  0
  1  2  2  0  0  0  0
  1  3  1  0  0  0  0
  1  4  1  0  0  0  0
  2  5  1  0  0  0  0
  2  6  1  0  0  0  0
  3  7  1  0  0  0  0
  4  8  1  0  0  0  0
  4 11  1  0  0  0  0
  4 12  1  0  0  0  0
  5  9  1  0  0  0  0
  5 10  2  0  0  0  0
  6 13  1  0  0  0  0
  7  9  2  0  0  0  0
  7 14  1  0  0  0  0
  8 15  1  0  0  0  0
  8 16  1  0  0  0  0
  8 17  1  0  0  0  0
  9 18  1  0  0  0  0
M  END
>  <Mol_ID>
3667

>  <Formula>
C7H8O3

>  <MolWeight>
140.13662

>  <Cat>
S6335

>  <Name>
Ethyl maltol

>  <Synonyms>
2-Ethyl-3-hydroxy-4H-pyran-4-one, 2-Ethyl pyromeconic acid

>  <Target>
Others

>  <Form>
free base

>  <CAS>
4940-11-8

>  <URL>
http://www.selleck.cn/products/ethyl-maltol.html

$$$$
