Ethyl potassium malonate
 OpenBabel08302521383D

 16 15  0  0  0  0  0  0  0  0999 V2000
    0.9961   -0.0867    0.2040 C   0  0  0  0  0  0  0  0  0  0  0  0
    0.5528    1.2024   -0.3973 C   0  0  0  0  0  0  0  0  0  0  0  0
    1.5174   -1.0347   -0.8458 C   0  0  0  0  0  0  0  0  0  0  0  0
   -0.2401    1.0323   -1.4929 O   0  0  0  0  0  0  0  0  0  0  0  0
    0.7607    2.2927    0.1342 O   0  0  0  0  0  0  0  0  0  0  0  0
    2.4496   -0.5947   -1.5757 O   0  0  0  0  0  0  0  0  0  0  0  0
    1.0033   -2.1908   -0.8220 O   0  5  0  0  0  0  0  0  0  0  0  0
   -0.6667    2.2374   -2.1374 C   0  0  0  0  0  0  0  0  0  0  0  0
   -1.9871    2.7062   -1.5548 C   0  0  0  0  0  0  0  0  0  0  0  0
    0.1620   -0.5176    0.7666 H   0  0  0  0  0  0  0  0  0  0  0  0
    1.8129    0.1168    0.9058 H   0  0  0  0  0  0  0  0  0  0  0  0
    0.0981    3.0194   -2.0653 H   0  0  0  0  0  0  0  0  0  0  0  0
   -0.7914    2.0149   -3.2025 H   0  0  0  0  0  0  0  0  0  0  0  0
   -1.9464    2.7593   -0.4624 H   0  0  0  0  0  0  0  0  0  0  0  0
   -2.2550    3.6913   -1.9474 H   0  0  0  0  0  0  0  0  0  0  0  0
   -2.7864    2.0026   -1.8100 H   0  0  0  0  0  0  0  0  0  0  0  0
  1  2  1  0  0  0  0
  1  3  1  0  0  0  0
  1 10  1  0  0  0  0
  1 11  1  0  0  0  0
  2  4  1  0  0  0  0
  2  5  2  0  0  0  0
  3  6  2  0  0  0  0
  3  7  1  0  0  0  0
  4  8  1  0  0  0  0
  8  9  1  0  0  0  0
  8 12  1  0  0  0  0
  8 13  1  0  0  0  0
  9 14  1  0  0  0  0
  9 15  1  0  0  0  0
  9 16  1  0  0  0  0
M  CHG  1   7  -1
M  END
>  <Mol_ID>
7914

>  <Formula>
C5H7KO4

>  <MolWeight>
170.20498

>  <Cat>
S6222

>  <Name>
Ethyl potassium malonate

>  <Synonyms>
Potassium 3-ethoxy-3-oxopropanoate, Malonic Acid Monoethyl Ester Potassium Salt

>  <Target>
Dehydrogenase

>  <Form>
free base

>  <CAS>
6148-64-7

>  <URL>
http://www.selleck.cn/products/ethyl-potassium-malonate.html

$$$$
