Ethyl pyruvate
 OpenBabel08302520393D

 16 15  0  0  0  0  0  0  0  0999 V2000
    1.0888    0.0517   -0.0493 C   0  0  0  0  0  0  0  0  0  0  0  0
    0.2418    1.0169    0.3592 O   0  0  0  0  0  0  0  0  0  0  0  0
    0.3299   -1.2553   -0.3210 C   0  0  0  0  0  0  0  0  0  0  0  0
    2.2959    0.1434   -0.1939 O   0  0  0  0  0  0  0  0  0  0  0  0
    0.8328    2.2945    0.6293 C   0  0  0  0  0  0  0  0  0  0  0  0
    1.1602   -2.4212   -0.7758 C   0  0  0  0  0  0  0  0  0  0  0  0
   -0.8897   -1.3147   -0.2184 O   0  0  0  0  0  0  0  0  0  0  0  0
    1.3409    2.3498    2.0585 C   0  0  0  0  0  0  0  0  0  0  0  0
    1.6318    2.5202   -0.0864 H   0  0  0  0  0  0  0  0  0  0  0  0
    0.0513    3.0481    0.4866 H   0  0  0  0  0  0  0  0  0  0  0  0
    0.7466   -3.3408   -0.3508 H   0  0  0  0  0  0  0  0  0  0  0  0
    1.1426   -2.4762   -1.8665 H   0  0  0  0  0  0  0  0  0  0  0  0
    2.1930   -2.3342   -0.4301 H   0  0  0  0  0  0  0  0  0  0  0  0
    2.1044    1.5868    2.2349 H   0  0  0  0  0  0  0  0  0  0  0  0
    1.7708    3.3313    2.2781 H   0  0  0  0  0  0  0  0  0  0  0  0
    0.5260    2.1566    2.7632 H   0  0  0  0  0  0  0  0  0  0  0  0
  1  2  1  0  0  0  0
  1  3  1  0  0  0  0
  1  4  2  0  0  0  0
  2  5  1  0  0  0  0
  3  6  1  0  0  0  0
  3  7  2  0  0  0  0
  5  8  1  0  0  0  0
  5  9  1  0  0  0  0
  5 10  1  0  0  0  0
  6 11  1  0  0  0  0
  6 12  1  0  0  0  0
  6 13  1  0  0  0  0
  8 14  1  0  0  0  0
  8 15  1  0  0  0  0
  8 16  1  0  0  0  0
M  END
>  <Mol_ID>
3604

>  <Formula>
C5H8O3

>  <MolWeight>
116.11522

>  <Cat>
S6243

>  <Name>
Ethyl pyruvate

>  <Synonyms>
CTI-01

>  <Target>
Anti-infection,Immunology & Inflammation related

>  <Form>
free base

>  <CAS>
617-35-6

>  <URL>
http://www.selleck.cn/products/ethyl-pyruvate.html

$$$$
