Etidronate.cdx
 OpenBabel08302520433D

 19 18  0  0  0  0  0  0  0  0999 V2000
    0.8186   -0.1224   -0.1138 C   0  0  0  0  0  0  0  0  0  0  0  0
    0.5785    1.2905   -0.6401 C   0  0  0  0  0  0  0  0  0  0  0  0
    0.0532   -1.3531   -1.2155 P   0  0  0  0  0  0  0  0  0  0  0  0
   -1.4304   -1.4415   -1.2787 O   0  0  0  0  0  0  0  0  0  0  0  0
    0.7463   -1.1107   -2.6510 O   0  0  0  0  0  0  0  0  0  0  0  0
    0.7723   -2.7437   -0.8629 O   0  0  0  0  0  0  0  0  0  0  0  0
    0.3956   -0.2451    1.6547 P   0  0  0  0  0  0  0  0  0  0  0  0
    0.3174   -1.6119    2.2458 O   0  0  0  0  0  0  0  0  0  0  0  0
    1.5180    0.6482    2.3930 O   0  0  0  0  0  0  0  0  0  0  0  0
   -0.8931    0.6669    1.9075 O   0  0  0  0  0  0  0  0  0  0  0  0
    2.2619   -0.3757   -0.2005 O   0  0  0  0  0  0  0  0  0  0  0  0
    1.0066    1.4208   -1.6391 H   0  0  0  0  0  0  0  0  0  0  0  0
   -0.4952    1.4974   -0.7005 H   0  0  0  0  0  0  0  0  0  0  0  0
    1.0381    2.0394    0.0105 H   0  0  0  0  0  0  0  0  0  0  0  0
    1.6451   -0.7235   -2.6025 H   0  0  0  0  0  0  0  0  0  0  0  0
    0.3407   -3.4809   -1.3438 H   0  0  0  0  0  0  0  0  0  0  0  0
    2.4219    0.4761    2.0616 H   0  0  0  0  0  0  0  0  0  0  0  0
   -1.1852    0.6291    2.8393 H   0  0  0  0  0  0  0  0  0  0  0  0
    2.3575   -1.3460   -0.0603 H   0  0  0  0  0  0  0  0  0  0  0  0
  1  2  1  0  0  0  0
  1  3  1  0  0  0  0
  1  7  1  0  0  0  0
  1 11  1  0  0  0  0
  2 12  1  0  0  0  0
  2 13  1  0  0  0  0
  2 14  1  0  0  0  0
  3  4  2  0  0  0  0
  3  5  1  0  0  0  0
  3  6  1  0  0  0  0
  5 15  1  0  0  0  0
  6 16  1  0  0  0  0
  7  8  2  0  0  0  0
  7  9  1  0  0  0  0
  7 10  1  0  0  0  0
  9 17  1  0  0  0  0
 10 18  1  0  0  0  0
 11 19  1  0  0  0  0
M  END
>  <Mol_ID>
4029

>  <Formula>
C2H8O7P2

>  <MolWeight>
206.028242

>  <Cat>
S1857

>  <Name>
Etidronate

>  <Synonyms>
N/A

>  <Target>
phosphatase

>  <Form>
free base

>  <CAS>
2809-21-4

>  <URL>
http://selleckchem.com/products/etidronate-didronel.html

$$$$
