Etodolac.cdx
 OpenBabel08302519523D

 42 44  0  0  0  0  0  0  0  0999 V2000
    3.0533   -1.1380   -0.1276 C   0  0  0  0  0  0  0  0  0  0  0  0
    1.7029   -1.4958   -0.0872 C   0  0  0  0  0  0  0  0  0  0  0  0
    0.7272   -0.4878   -0.0049 C   0  0  0  0  0  0  0  0  0  0  0  0
    1.1327    0.8503    0.0292 C   0  0  0  0  0  0  0  0  0  0  0  0
    2.4843    1.2418   -0.0298 C   0  0  0  0  0  0  0  0  0  0  0  0
    3.4305    0.2017   -0.1003 C   0  0  0  0  0  0  0  0  0  0  0  0
   -0.6946   -0.4955    0.0327 C   0  0  0  0  0  0  0  0  0  0  0  0
   -1.1250    0.8110    0.1121 C   0  0  0  0  0  0  0  0  0  0  0  0
   -0.0156    1.6143    0.1189 N   0  0  0  0  0  0  0  0  0  0  0  0
   -1.6455   -1.6258   -0.0552 C   0  0  0  0  0  0  0  0  0  0  0  0
   -3.1038   -1.1424    0.0393 C   0  0  0  0  0  0  0  0  0  0  0  0
   -3.3268    0.1897   -0.4444 O   0  0  0  0  0  0  0  0  0  0  0  0
   -2.5643    1.2596    0.1782 C   0  0  2  0  0  0  0  0  0  0  0  0
    2.9468    2.6769   -0.0100 C   0  0  0  0  0  0  0  0  0  0  0  0
    3.1978    3.1716    1.4054 C   0  0  0  0  0  0  0  0  0  0  0  0
   -2.8015    2.4956   -0.7083 C   0  0  0  0  0  0  0  0  0  0  0  0
   -3.0091    1.4598    1.6518 C   0  0  0  0  0  0  0  0  0  0  0  0
   -2.2817    2.5650    2.4136 C   0  0  0  0  0  0  0  0  0  0  0  0
   -4.2493    2.9052   -0.7240 C   0  0  0  0  0  0  0  0  0  0  0  0
   -4.7996    3.6076    0.1072 O   0  0  0  0  0  0  0  0  0  0  0  0
   -4.9305    2.4224   -1.7750 O   0  0  0  0  0  0  0  0  0  0  0  0
    3.8106   -1.9145   -0.1893 H   0  0  0  0  0  0  0  0  0  0  0  0
    1.4134   -2.5413   -0.1195 H   0  0  0  0  0  0  0  0  0  0  0  0
    4.4920    0.4430   -0.1399 H   0  0  0  0  0  0  0  0  0  0  0  0
   -0.0165    2.6228    0.1728 H   0  0  0  0  0  0  0  0  0  0  0  0
   -1.4558   -2.3620    0.7343 H   0  0  0  0  0  0  0  0  0  0  0  0
   -1.4940   -2.1374   -1.0135 H   0  0  0  0  0  0  0  0  0  0  0  0
   -3.4856   -1.2277    1.0609 H   0  0  0  0  0  0  0  0  0  0  0  0
   -3.7270   -1.8071   -0.5717 H   0  0  0  0  0  0  0  0  0  0  0  0
    3.8628    2.7784   -0.6062 H   0  0  0  0  0  0  0  0  0  0  0  0
    2.1978    3.3135   -0.4952 H   0  0  0  0  0  0  0  0  0  0  0  0
    3.9843    2.5880    1.8958 H   0  0  0  0  0  0  0  0  0  0  0  0
    3.5147    4.2192    1.3885 H   0  0  0  0  0  0  0  0  0  0  0  0
    2.2933    3.0995    2.0185 H   0  0  0  0  0  0  0  0  0  0  0  0
   -2.2168    3.3627   -0.3881 H   0  0  0  0  0  0  0  0  0  0  0  0
   -2.4993    2.2954   -1.7444 H   0  0  0  0  0  0  0  0  0  0  0  0
   -4.0884    1.6526    1.6849 H   0  0  0  0  0  0  0  0  0  0  0  0
   -2.8797    0.5315    2.2223 H   0  0  0  0  0  0  0  0  0  0  0  0
   -2.2317    3.5001    1.8508 H   0  0  0  0  0  0  0  0  0  0  0  0
   -2.8009    2.7743    3.3548 H   0  0  0  0  0  0  0  0  0  0  0  0
   -1.2616    2.2596    2.6685 H   0  0  0  0  0  0  0  0  0  0  0  0
   -5.8586    2.6956   -1.6232 H   0  0  0  0  0  0  0  0  0  0  0  0
  1  2  2  0  0  0  0
  1 22  1  0  0  0  0
  2  3  1  0  0  0  0
  2 23  1  0  0  0  0
  3  4  2  0  0  0  0
  3  7  1  0  0  0  0
  4  5  1  0  0  0  0
  5  6  2  0  0  0  0
  5 14  1  0  0  0  0
  6  1  1  0  0  0  0
  6 24  1  0  0  0  0
  7  8  2  0  0  0  0
  7 10  1  0  0  0  0
  8  9  1  0  0  0  0
  9  4  1  0  0  0  0
  9 25  1  0  0  0  0
 10 11  1  0  0  0  0
 10 26  1  0  0  0  0
 10 27  1  0  0  0  0
 11 12  1  0  0  0  0
 11 28  1  0  0  0  0
 11 29  1  0  0  0  0
 12 13  1  0  0  0  0
 13  8  1  0  0  0  0
 13 16  1  6  0  0  0
 13 17  1  0  0  0  0
 14 15  1  0  0  0  0
 14 30  1  0  0  0  0
 14 31  1  0  0  0  0
 15 32  1  0  0  0  0
 15 33  1  0  0  0  0
 15 34  1  0  0  0  0
 16 19  1  0  0  0  0
 16 35  1  0  0  0  0
 16 36  1  0  0  0  0
 17 18  1  0  0  0  0
 17 37  1  0  0  0  0
 17 38  1  0  0  0  0
 18 39  1  0  0  0  0
 18 40  1  0  0  0  0
 18 41  1  0  0  0  0
 19 20  2  0  0  0  0
 19 21  1  0  0  0  0
 21 42  1  0  0  0  0
M  END
>  <Mol_ID>
206

>  <Formula>
C17H21NO3

>  <MolWeight>
287.35354

>  <Cat>
S1328

>  <Name>
Etodolac

>  <Synonyms>
AY-24236

>  <Target>
COX

>  <Form>
free base

>  <CAS>
41340-25-4

>  <URL>
http://selleckchem.com/products/Etodolac.html

$$$$
