Etofenamate
 OpenBabel08302521233D

 44 45  0  0  0  0  0  0  0  0999 V2000
    1.3977   -0.1185   -0.3576 C   0  0  0  0  0  0  0  0  0  0  0  0
    0.4445   -1.1097   -0.6853 C   0  0  0  0  0  0  0  0  0  0  0  0
    2.7624   -0.4292   -0.1059 N   0  0  0  0  0  0  0  0  0  0  0  0
    0.9277    1.1923   -0.1449 C   0  0  0  0  0  0  0  0  0  0  0  0
   -0.9114   -0.7602   -0.8517 C   0  0  0  0  0  0  0  0  0  0  0  0
    0.8471   -2.5270   -0.9176 C   0  0  0  0  0  0  0  0  0  0  0  0
    3.8978    0.3922   -0.3149 C   0  0  0  0  0  0  0  0  0  0  0  0
   -0.4237    1.5219   -0.2906 C   0  0  0  0  0  0  0  0  0  0  0  0
   -1.3437    0.5459   -0.6470 C   0  0  0  0  0  0  0  0  0  0  0  0
   -0.2358   -3.3152   -0.7124 O   0  0  0  0  0  0  0  0  0  0  0  0
    1.9696   -2.8868   -1.2353 O   0  0  0  0  0  0  0  0  0  0  0  0
    3.9830    1.3113   -1.3688 C   0  0  0  0  0  0  0  0  0  0  0  0
    5.0297    0.1848    0.4834 C   0  0  0  0  0  0  0  0  0  0  0  0
   -0.1966   -4.6691   -1.1899 C   0  0  0  0  0  0  0  0  0  0  0  0
    5.1659    2.0331   -1.6124 C   0  0  0  0  0  0  0  0  0  0  0  0
    6.2072    0.9028    0.2636 C   0  0  0  0  0  0  0  0  0  0  0  0
   -1.0422   -4.7526   -2.4647 C   0  0  0  0  0  0  0  0  0  0  0  0
    6.2759    1.8222   -0.7809 C   0  0  0  0  0  0  0  0  0  0  0  0
    5.2649    3.0001   -2.7653 C   0  0  0  0  0  0  0  0  0  0  0  0
   -0.4986   -4.0026   -3.5561 O   0  0  0  0  0  0  0  0  0  0  0  0
    4.1147    3.1158   -3.4858 F   0  0  0  0  0  0  0  0  0  0  0  0
    5.5801    4.2630   -2.3633 F   0  0  0  0  0  0  0  0  0  0  0  0
    6.2291    2.6436   -3.6597 F   0  0  0  0  0  0  0  0  0  0  0  0
    0.6362   -4.6265   -4.1523 C   0  0  0  0  0  0  0  0  0  0  0  0
    1.0059   -3.8980   -5.4403 C   0  0  0  0  0  0  0  0  0  0  0  0
    2.2076   -4.4266   -5.9895 O   0  0  0  0  0  0  0  0  0  0  0  0
    2.9824   -1.3847   -0.4116 H   0  0  0  0  0  0  0  0  0  0  0  0
    1.6161    1.9764    0.1630 H   0  0  0  0  0  0  0  0  0  0  0  0
   -1.6467   -1.5062   -1.1468 H   0  0  0  0  0  0  0  0  0  0  0  0
   -0.7563    2.5422   -0.1162 H   0  0  0  0  0  0  0  0  0  0  0  0
   -2.3960    0.7929   -0.7592 H   0  0  0  0  0  0  0  0  0  0  0  0
    3.1283    1.4549   -2.0276 H   0  0  0  0  0  0  0  0  0  0  0  0
    4.9919   -0.5368    1.2966 H   0  0  0  0  0  0  0  0  0  0  0  0
    0.8268   -5.0218   -1.3401 H   0  0  0  0  0  0  0  0  0  0  0  0
   -0.6584   -5.2878   -0.4139 H   0  0  0  0  0  0  0  0  0  0  0  0
    7.0721    0.7357    0.9012 H   0  0  0  0  0  0  0  0  0  0  0  0
   -1.1992   -5.7925   -2.7685 H   0  0  0  0  0  0  0  0  0  0  0  0
   -2.0277   -4.3151   -2.2660 H   0  0  0  0  0  0  0  0  0  0  0  0
    7.2033    2.3663   -0.9563 H   0  0  0  0  0  0  0  0  0  0  0  0
    1.4853   -4.6035   -3.4621 H   0  0  0  0  0  0  0  0  0  0  0  0
    0.4197   -5.6769   -4.3807 H   0  0  0  0  0  0  0  0  0  0  0  0
    0.2075   -4.0137   -6.1811 H   0  0  0  0  0  0  0  0  0  0  0  0
    1.1310   -2.8235   -5.2699 H   0  0  0  0  0  0  0  0  0  0  0  0
    2.9327   -4.1555   -5.3992 H   0  0  0  0  0  0  0  0  0  0  0  0
  1  2  2  0  0  0  0
  1  3  1  0  0  0  0
  1  4  1  0  0  0  0
  2  5  1  0  0  0  0
  2  6  1  0  0  0  0
  3  7  1  0  0  0  0
  3 27  1  0  0  0  0
  4  8  2  0  0  0  0
  4 28  1  0  0  0  0
  5  9  2  0  0  0  0
  5 29  1  0  0  0  0
  6 10  1  0  0  0  0
  6 11  2  0  0  0  0
  7 12  2  0  0  0  0
  7 13  1  0  0  0  0
  8  9  1  0  0  0  0
  8 30  1  0  0  0  0
  9 31  1  0  0  0  0
 10 14  1  0  0  0  0
 12 15  1  0  0  0  0
 12 32  1  0  0  0  0
 13 16  2  0  0  0  0
 13 33  1  0  0  0  0
 14 17  1  0  0  0  0
 14 34  1  0  0  0  0
 14 35  1  0  0  0  0
 15 18  2  0  0  0  0
 15 19  1  0  0  0  0
 16 18  1  0  0  0  0
 16 36  1  0  0  0  0
 17 20  1  0  0  0  0
 17 37  1  0  0  0  0
 17 38  1  0  0  0  0
 18 39  1  0  0  0  0
 19 21  1  0  0  0  0
 19 22  1  0  0  0  0
 19 23  1  0  0  0  0
 20 24  1  0  0  0  0
 24 25  1  0  0  0  0
 24 40  1  0  0  0  0
 24 41  1  0  0  0  0
 25 26  1  0  0  0  0
 25 42  1  0  0  0  0
 25 43  1  0  0  0  0
 26 44  1  0  0  0  0
M  END
>  <Mol_ID>
4787

>  <Formula>
C18H18F3NO4

>  <MolWeight>
369.3350296

>  <Cat>
S6742

>  <Name>
Etofenamate

>  <Synonyms>
N/A

>  <Target>
Immunology & Inflammation related

>  <Form>
Free Base

>  <CAS>
30544-47-9

>  <URL>
http://www.selleck.cn/products/etofenamate.html

$$$$
