Etofibrate.cdx
 OpenBabel08302522063D

 43 44  0  0  0  0  0  0  0  0999 V2000
    2.1151    4.6094    0.4273 C   0  0  0  0  0  0  0  0  0  0  0  0
    1.7969    5.5518   -0.5433 C   0  0  0  0  0  0  0  0  0  0  0  0
    0.4643    5.7121   -0.9297 C   0  0  0  0  0  0  0  0  0  0  0  0
   -0.5582    4.9186   -0.3690 C   0  0  0  0  0  0  0  0  0  0  0  0
   -0.2416    3.9460    0.5658 C   0  0  0  0  0  0  0  0  0  0  0  0
    1.0973    3.8154    0.9696 C   0  0  0  0  0  0  0  0  0  0  0  0
   -1.0546    2.9897    1.0700 O   0  0  0  0  0  0  0  0  0  0  0  0
   -2.4607    2.9716    1.3131 C   0  0  0  0  0  0  0  0  0  0  0  0
   -3.5720    2.9528    0.1809 C   0  0  0  0  0  0  0  0  0  0  0  0
   -4.5808    2.0908    0.5244 O   0  0  0  0  0  0  0  0  0  0  0  0
   -3.6252    3.7014   -0.7859 O   0  0  0  0  0  0  0  0  0  0  0  0
   -2.5586    1.6375    2.1065 C   0  0  0  0  0  0  0  0  0  0  0  0
   -2.8683    4.0954    2.2841 C   0  0  0  0  0  0  0  0  0  0  0  0
   -5.9001    2.1955   -0.0550 C   0  0  0  0  0  0  0  0  0  0  0  0
   -6.0766    1.4138   -1.3519 C   0  0  0  0  0  0  0  0  0  0  0  0
   -5.4374    0.1326   -1.3311 O   0  0  0  0  0  0  0  0  0  0  0  0
   -5.9379   -0.8560   -0.5563 C   0  0  0  0  0  0  0  0  0  0  0  0
   -4.9463   -1.9495   -0.6650 C   0  0  0  0  0  0  0  0  0  0  0  0
   -6.9117   -0.8196    0.1662 O   0  0  0  0  0  0  0  0  0  0  0  0
   -4.2329   -2.1715   -1.8495 C   0  0  0  0  0  0  0  0  0  0  0  0
   -3.1328   -3.0191   -1.8341 C   0  0  0  0  0  0  0  0  0  0  0  0
   -2.8070   -3.6397   -0.6392 C   0  0  0  0  0  0  0  0  0  0  0  0
   -3.5267   -3.5090    0.5007 N   0  0  0  0  0  0  0  0  0  0  0  0
   -4.5887   -2.6646    0.4639 C   0  0  0  0  0  0  0  0  0  0  0  0
    3.1453    4.4740    0.7453 H   0  0  0  0  0  0  0  0  0  0  0  0
    2.5848    6.1488   -1.0042 H   0  0  0  0  0  0  0  0  0  0  0  0
    0.2228    6.4429   -1.6993 H   0  0  0  0  0  0  0  0  0  0  0  0
   -1.5719    5.0580   -0.7213 H   0  0  0  0  0  0  0  0  0  0  0  0
    1.3662    3.0672    1.7127 H   0  0  0  0  0  0  0  0  0  0  0  0
   -1.9131    1.6622    2.9933 H   0  0  0  0  0  0  0  0  0  0  0  0
   -3.5679    1.3956    2.4523 H   0  0  0  0  0  0  0  0  0  0  0  0
   -2.1996    0.8065    1.4854 H   0  0  0  0  0  0  0  0  0  0  0  0
   -2.2690    4.0727    3.2011 H   0  0  0  0  0  0  0  0  0  0  0  0
   -2.7291    5.0827    1.8325 H   0  0  0  0  0  0  0  0  0  0  0  0
   -3.9255    4.0113    2.5676 H   0  0  0  0  0  0  0  0  0  0  0  0
   -6.5807    1.7838    0.6983 H   0  0  0  0  0  0  0  0  0  0  0  0
   -6.1815    3.2446   -0.1935 H   0  0  0  0  0  0  0  0  0  0  0  0
   -7.1355    1.2997   -1.6149 H   0  0  0  0  0  0  0  0  0  0  0  0
   -5.5985    1.9599   -2.1691 H   0  0  0  0  0  0  0  0  0  0  0  0
   -4.4967   -1.6479   -2.7648 H   0  0  0  0  0  0  0  0  0  0  0  0
   -2.5214   -3.1546   -2.7194 H   0  0  0  0  0  0  0  0  0  0  0  0
   -1.9228   -4.2671   -0.5619 H   0  0  0  0  0  0  0  0  0  0  0  0
   -5.1186   -2.5474    1.4048 H   0  0  0  0  0  0  0  0  0  0  0  0
  1  2  2  0  0  0  0
  1 25  1  0  0  0  0
  2  3  1  0  0  0  0
  2 26  1  0  0  0  0
  3  4  2  0  0  0  0
  3 27  1  0  0  0  0
  4  5  1  0  0  0  0
  4 28  1  0  0  0  0
  5  6  2  0  0  0  0
  5  7  1  0  0  0  0
  6  1  1  0  0  0  0
  6 29  1  0  0  0  0
  7  8  1  0  0  0  0
  8  9  1  0  0  0  0
  8 12  1  0  0  0  0
  8 13  1  0  0  0  0
  9 10  1  0  0  0  0
  9 11  2  0  0  0  0
 10 14  1  0  0  0  0
 12 30  1  0  0  0  0
 12 31  1  0  0  0  0
 12 32  1  0  0  0  0
 13 33  1  0  0  0  0
 13 34  1  0  0  0  0
 13 35  1  0  0  0  0
 14 15  1  0  0  0  0
 14 36  1  0  0  0  0
 14 37  1  0  0  0  0
 15 16  1  0  0  0  0
 15 38  1  0  0  0  0
 15 39  1  0  0  0  0
 16 17  1  0  0  0  0
 17 18  1  0  0  0  0
 17 19  2  0  0  0  0
 18 20  2  0  0  0  0
 20 21  1  0  0  0  0
 20 40  1  0  0  0  0
 21 22  2  0  0  0  0
 21 41  1  0  0  0  0
 22 23  1  0  0  0  0
 22 42  1  0  0  0  0
 23 24  2  0  0  0  0
 24 18  1  0  0  0  0
 24 43  1  0  0  0  0
M  END
>  <Mol_ID>
1402

>  <Formula>
C18H18ClNO5

>  <MolWeight>
363.79222

>  <Cat>
S4264

>  <Name>
Etofibrate

>  <Synonyms>
N/A

>  <Target>
Others

>  <Form>
free base

>  <CAS>
31637-97-5

>  <URL>
http://selleckchem.com/products/etofibrate.html

$$$$
