Etosalamide
 OpenBabel08302521253D

 30 30  0  0  0  0  0  0  0  0999 V2000
    0.1542   -0.3043    0.5133 C   0  0  0  0  0  0  0  0  0  0  0  0
   -0.2790   -0.8319   -0.8211 C   0  0  0  0  0  0  0  0  0  0  0  0
    0.2709   -1.9491   -1.4892 C   0  0  0  0  0  0  0  0  0  0  0  0
   -0.2961   -2.3391   -2.7168 C   0  0  0  0  0  0  0  0  0  0  0  0
   -1.3641   -1.6389   -3.2833 C   0  0  0  0  0  0  0  0  0  0  0  0
   -1.8912   -0.5338   -2.6353 C   0  0  0  0  0  0  0  0  0  0  0  0
   -1.3542   -0.1358   -1.4127 C   0  0  0  0  0  0  0  0  0  0  0  0
   -0.3440    0.7049    1.0048 O   0  0  0  0  0  0  0  0  0  0  0  0
    1.1111   -0.9837    1.2037 N   0  0  0  0  0  0  0  0  0  0  0  0
    1.3670   -2.5881   -0.9421 O   0  0  0  0  0  0  0  0  0  0  0  0
    1.6807   -3.8930   -1.4617 C   0  0  0  0  0  0  0  0  0  0  0  0
    3.0024   -4.4208   -0.8967 C   0  0  0  0  0  0  0  0  0  0  0  0
    4.1480   -3.9995   -1.6440 O   0  0  0  0  0  0  0  0  0  0  0  0
    4.4838   -2.6167   -1.5705 C   0  0  0  0  0  0  0  0  0  0  0  0
    4.8130   -2.1672   -0.1589 C   0  0  0  0  0  0  0  0  0  0  0  0
    0.0709   -3.1836   -3.2879 H   0  0  0  0  0  0  0  0  0  0  0  0
   -1.7743   -1.9589   -4.2386 H   0  0  0  0  0  0  0  0  0  0  0  0
   -2.7146    0.0210   -3.0769 H   0  0  0  0  0  0  0  0  0  0  0  0
   -1.7865    0.7292   -0.9119 H   0  0  0  0  0  0  0  0  0  0  0  0
    1.5617   -1.8038    0.8144 H   0  0  0  0  0  0  0  0  0  0  0  0
    1.3911   -0.6280    2.1062 H   0  0  0  0  0  0  0  0  0  0  0  0
    0.8736   -4.5710   -1.1601 H   0  0  0  0  0  0  0  0  0  0  0  0
    1.7858   -3.8735   -2.5498 H   0  0  0  0  0  0  0  0  0  0  0  0
    3.1293   -4.1920    0.1646 H   0  0  0  0  0  0  0  0  0  0  0  0
    2.9935   -5.5121   -0.9972 H   0  0  0  0  0  0  0  0  0  0  0  0
    5.3759   -2.4856   -2.1936 H   0  0  0  0  0  0  0  0  0  0  0  0
    3.6961   -2.0029   -2.0181 H   0  0  0  0  0  0  0  0  0  0  0  0
    5.4483   -2.9008    0.3476 H   0  0  0  0  0  0  0  0  0  0  0  0
    5.3208   -1.1989   -0.1691 H   0  0  0  0  0  0  0  0  0  0  0  0
    3.9021   -2.0589    0.4364 H   0  0  0  0  0  0  0  0  0  0  0  0
  1  2  1  0  0  0  0
  1  8  2  0  0  0  0
  1  9  1  0  0  0  0
  2  3  2  0  0  0  0
  2  7  1  0  0  0  0
  3  4  1  0  0  0  0
  3 10  1  0  0  0  0
  4  5  2  0  0  0  0
  4 16  1  0  0  0  0
  5  6  1  0  0  0  0
  5 17  1  0  0  0  0
  6  7  2  0  0  0  0
  6 18  1  0  0  0  0
  7 19  1  0  0  0  0
  9 20  1  0  0  0  0
  9 21  1  0  0  0  0
 10 11  1  0  0  0  0
 11 12  1  0  0  0  0
 11 22  1  0  0  0  0
 11 23  1  0  0  0  0
 12 13  1  0  0  0  0
 12 24  1  0  0  0  0
 12 25  1  0  0  0  0
 13 14  1  0  0  0  0
 14 15  1  0  0  0  0
 14 26  1  0  0  0  0
 14 27  1  0  0  0  0
 15 28  1  0  0  0  0
 15 29  1  0  0  0  0
 15 30  1  0  0  0  0
M  END
>  <Mol_ID>
5187

>  <Formula>
C11H15NO3

>  <MolWeight>
209.2417

>  <Cat>
S6802

>  <Name>
Etosalamide

>  <Synonyms>
Ethosalamide

>  <Target>
Anti-infection

>  <Form>
free base

>  <CAS>
15302-15-5

>  <URL>
http://www.selleckchem.com/products/etosalamide.html

$$$$
