Eupatorin
 OpenBabel08302521503D

 41 43  0  0  0  0  0  0  0  0999 V2000
    1.2851    2.2455   -0.0417 O   0  0  0  0  0  0  0  0  0  0  0  0
   -1.2932    2.3077   -0.0100 O   0  0  0  0  0  0  0  0  0  0  0  0
    3.2939   -2.2907   -0.0260 O   0  0  0  0  0  0  0  0  0  0  0  0
    4.6650   -1.9160   -0.0475 C   0  0  0  0  0  0  0  0  0  0  0  0
    3.7609    0.5176   -0.0059 O   0  0  0  0  0  0  0  0  0  0  0  0
    4.1622    1.8688   -0.0031 C   0  0  0  0  0  0  0  0  0  0  0  0
   -6.1452   -2.9347   -2.4745 O   0  0  0  0  0  0  0  0  0  0  0  0
   -7.5383   -3.4638    0.0911 O   0  0  0  0  0  0  0  0  0  0  0  0
   -8.2560   -3.8297   -1.0788 C   0  0  0  0  0  0  0  0  0  0  0  0
   -0.1101   -1.1071    0.0045 C   0  0  0  0  0  0  0  0  0  0  0  0
    0.0153    0.2796    0.0003 C   0  0  0  0  0  0  0  0  0  0  0  0
   -1.3215   -1.7649    0.0070 O   0  0  0  0  0  0  0  0  0  0  0  0
    1.0334   -1.9031   -0.0024 C   0  0  0  0  0  0  0  0  0  0  0  0
    1.2996    0.8793   -0.0046 C   0  0  0  0  0  0  0  0  0  0  0  0
   -1.2344    1.0847    0.0021 C   0  0  0  0  0  0  0  0  0  0  0  0
   -2.4681   -0.9959    0.0199 C   0  0  0  0  0  0  0  0  0  0  0  0
    2.3148   -1.3250   -0.0079 C   0  0  0  0  0  0  0  0  0  0  0  0
    2.4648    0.0873   -0.0027 C   0  0  0  0  0  0  0  0  0  0  0  0
   -2.4961    0.3390    0.0172 C   0  0  0  0  0  0  0  0  0  0  0  0
   -3.7366   -1.7243    0.0029 C   0  0  0  0  0  0  0  0  0  0  0  0
   -4.3347   -2.0562   -1.2187 C   0  0  0  0  0  0  0  0  0  0  0  0
   -4.4199   -1.9901    1.1923 C   0  0  0  0  0  0  0  0  0  0  0  0
   -5.6037   -2.6460   -1.2520 C   0  0  0  0  0  0  0  0  0  0  0  0
   -5.6858   -2.5794    1.1534 C   0  0  0  0  0  0  0  0  0  0  0  0
   -6.2959   -2.9112   -0.0642 C   0  0  0  0  0  0  0  0  0  0  0  0
    2.1299    2.6566    0.1545 H   0  0  0  0  0  0  0  0  0  0  0  0
    4.9117   -1.3552   -0.9536 H   0  0  0  0  0  0  0  0  0  0  0  0
    4.9423   -1.3782    0.8640 H   0  0  0  0  0  0  0  0  0  0  0  0
    5.2611   -2.8336   -0.0694 H   0  0  0  0  0  0  0  0  0  0  0  0
    3.8081    2.3886   -0.8980 H   0  0  0  0  0  0  0  0  0  0  0  0
    3.8527    2.3647    0.9247 H   0  0  0  0  0  0  0  0  0  0  0  0
    5.2529    1.8954   -0.0225 H   0  0  0  0  0  0  0  0  0  0  0  0
   -5.5154   -2.6917   -3.1723 H   0  0  0  0  0  0  0  0  0  0  0  0
   -8.4804   -2.9544   -1.6972 H   0  0  0  0  0  0  0  0  0  0  0  0
   -7.7293   -4.6079   -1.6403 H   0  0  0  0  0  0  0  0  0  0  0  0
   -9.2139   -4.2543   -0.7629 H   0  0  0  0  0  0  0  0  0  0  0  0
    0.9348   -2.9862   -0.0058 H   0  0  0  0  0  0  0  0  0  0  0  0
   -3.4096    0.9225    0.0163 H   0  0  0  0  0  0  0  0  0  0  0  0
   -3.8103   -1.8266   -2.1430 H   0  0  0  0  0  0  0  0  0  0  0  0
   -3.9853   -1.7224    2.1530 H   0  0  0  0  0  0  0  0  0  0  0  0
   -6.2153   -2.7704    2.0855 H   0  0  0  0  0  0  0  0  0  0  0  0
  1 14  1  0  0  0  0
  1 26  1  0  0  0  0
  2 15  2  0  0  0  0
  3  4  1  0  0  0  0
  3 17  1  0  0  0  0
  4 27  1  0  0  0  0
  4 28  1  0  0  0  0
  4 29  1  0  0  0  0
  5  6  1  0  0  0  0
  5 18  1  0  0  0  0
  6 30  1  0  0  0  0
  6 31  1  0  0  0  0
  6 32  1  0  0  0  0
  7 23  1  0  0  0  0
  7 33  1  0  0  0  0
  8  9  1  0  0  0  0
  8 25  1  0  0  0  0
  9 34  1  0  0  0  0
  9 35  1  0  0  0  0
  9 36  1  0  0  0  0
 10 11  2  0  0  0  0
 10 12  1  0  0  0  0
 10 13  1  0  0  0  0
 11 14  1  0  0  0  0
 11 15  1  0  0  0  0
 12 16  1  0  0  0  0
 13 17  2  0  0  0  0
 13 37  1  0  0  0  0
 14 18  2  0  0  0  0
 15 19  1  0  0  0  0
 16 19  2  0  0  0  0
 16 20  1  0  0  0  0
 17 18  1  0  0  0  0
 19 38  1  0  0  0  0
 20 21  2  0  0  0  0
 20 22  1  0  0  0  0
 21 23  1  0  0  0  0
 21 39  1  0  0  0  0
 22 24  2  0  0  0  0
 22 40  1  0  0  0  0
 23 25  2  0  0  0  0
 24 25  1  0  0  0  0
 24 41  1  0  0  0  0
M  END
>  <Mol_ID>
9915

>  <Formula>
C18H16O7

>  <MolWeight>
344.31544

>  <Cat>
E5089

>  <Name>
Eupatorin

>  <Synonyms>
N/A

>  <Target>
PARP, Caspase, ROS

>  <Form>
free base

>  <CAS>
855-96-9

>  <URL>
https://www.selleckchem.com/products/eupatorin.html

$$$$
