Euquinine
 OpenBabel08302521323D

 57 60  0  0  0  0  0  0  0  0999 V2000
   -2.7767   -0.1668    1.5207 C   0  0  1  0  0  0  0  0  0  0  0  0
   -2.5440    0.1048   -0.0148 C   0  0  1  0  0  0  0  0  0  0  0  0
   -2.1127   -1.4669    1.9898 C   0  0  0  0  0  0  0  0  0  0  0  0
   -2.5511    0.9241    2.4458 O   0  0  0  0  0  0  0  0  0  0  0  0
   -3.2245   -0.9208   -0.8872 N   0  0  3  0  0  0  0  0  0  0  0  0
   -2.9416    1.5271   -0.4763 C   0  0  0  0  0  0  0  0  0  0  0  0
   -2.8389   -2.6908    2.1231 C   0  0  0  0  0  0  0  0  0  0  0  0
   -0.7214   -1.5073    2.1512 C   0  0  0  0  0  0  0  0  0  0  0  0
   -1.4849    1.7423    2.4014 C   0  0  0  0  0  0  0  0  0  0  0  0
   -2.6667   -0.8176   -2.2577 C   0  0  0  0  0  0  0  0  0  0  0  0
   -4.6811   -0.6731   -0.9789 C   0  0  0  0  0  0  0  0  0  0  0  0
   -3.6691    1.4520   -1.8341 C   0  0  1  0  0  0  0  0  0  0  0  0
   -2.0927   -3.8778    2.3030 C   0  0  0  0  0  0  0  0  0  0  0  0
   -4.2506   -2.8117    2.0692 C   0  0  0  0  0  0  0  0  0  0  0  0
   -0.1063   -2.7189    2.3967 C   0  0  0  0  0  0  0  0  0  0  0  0
   -1.6336    2.6356    3.4081 O   0  0  0  0  0  0  0  0  0  0  0  0
   -0.5575    1.6953    1.6068 O   0  0  0  0  0  0  0  0  0  0  0  0
   -2.8626    0.6003   -2.8523 C   0  0  1  0  0  0  0  0  0  0  0  0
   -4.9915    0.7151   -1.5543 C   0  0  0  0  0  0  0  0  0  0  0  0
   -2.7502   -5.1017    2.3112 C   0  0  0  0  0  0  0  0  0  0  0  0
   -0.7609   -3.8926    2.4530 N   0  0  0  0  0  0  0  0  0  0  0  0
   -4.8951   -4.0501    2.0741 C   0  0  0  0  0  0  0  0  0  0  0  0
   -0.5849    3.5889    3.6203 C   0  0  0  0  0  0  0  0  0  0  0  0
   -1.5322    1.2109   -3.2267 C   0  0  0  0  0  0  0  0  0  0  0  0
   -4.1386   -5.2046    2.1854 C   0  0  0  0  0  0  0  0  0  0  0  0
   -6.2569   -3.9926    1.9843 O   0  0  0  0  0  0  0  0  0  0  0  0
    0.4534    3.0056    4.5601 C   0  0  0  0  0  0  0  0  0  0  0  0
   -1.1790    1.5574   -4.4714 C   0  0  0  0  0  0  0  0  0  0  0  0
   -6.8880   -5.1265    1.4016 C   0  0  0  0  0  0  0  0  0  0  0  0
   -3.8551   -0.2737    1.6348 H   0  0  0  0  0  0  0  0  0  0  0  0
   -1.4631    0.0021   -0.1857 H   0  0  0  0  0  0  0  0  0  0  0  0
   -3.5954    2.0140    0.2567 H   0  0  0  0  0  0  0  0  0  0  0  0
   -2.0482    2.1542   -0.5708 H   0  0  0  0  0  0  0  0  0  0  0  0
   -0.1003   -0.6262    2.0514 H   0  0  0  0  0  0  0  0  0  0  0  0
   -3.1668   -1.5545   -2.9044 H   0  0  0  0  0  0  0  0  0  0  0  0
   -1.6127   -1.1239   -2.2500 H   0  0  0  0  0  0  0  0  0  0  0  0
   -5.1442   -1.4459   -1.6063 H   0  0  0  0  0  0  0  0  0  0  0  0
   -5.1614   -0.7862   -0.0030 H   0  0  0  0  0  0  0  0  0  0  0  0
   -3.8684    2.4562   -2.2236 H   0  0  0  0  0  0  0  0  0  0  0  0
   -4.8889   -1.9360    2.0184 H   0  0  0  0  0  0  0  0  0  0  0  0
    0.9699   -2.7812    2.5322 H   0  0  0  0  0  0  0  0  0  0  0  0
   -3.4740    0.5028   -3.7594 H   0  0  0  0  0  0  0  0  0  0  0  0
   -5.5828    0.6220   -2.4722 H   0  0  0  0  0  0  0  0  0  0  0  0
   -5.5954    1.2841   -0.8366 H   0  0  0  0  0  0  0  0  0  0  0  0
   -2.1568   -6.0087    2.4090 H   0  0  0  0  0  0  0  0  0  0  0  0
   -0.1391    3.9231    2.6771 H   0  0  0  0  0  0  0  0  0  0  0  0
   -1.0469    4.4642    4.0902 H   0  0  0  0  0  0  0  0  0  0  0  0
   -0.7989    1.3340   -2.4315 H   0  0  0  0  0  0  0  0  0  0  0  0
   -4.5924   -6.1894    2.1997 H   0  0  0  0  0  0  0  0  0  0  0  0
    1.0526    2.2468    4.0474 H   0  0  0  0  0  0  0  0  0  0  0  0
    1.1258    3.7846    4.9311 H   0  0  0  0  0  0  0  0  0  0  0  0
   -0.0250    2.5140    5.4141 H   0  0  0  0  0  0  0  0  0  0  0  0
   -0.1890    1.9583   -4.6709 H   0  0  0  0  0  0  0  0  0  0  0  0
   -1.8501    1.4405   -5.3162 H   0  0  0  0  0  0  0  0  0  0  0  0
   -6.3259   -5.5202    0.5477 H   0  0  0  0  0  0  0  0  0  0  0  0
   -7.0506   -5.9024    2.1555 H   0  0  0  0  0  0  0  0  0  0  0  0
   -7.8650   -4.8029    1.0294 H   0  0  0  0  0  0  0  0  0  0  0  0
  1  3  1  0  0  0  0
  1  4  1  0  0  0  0
  1 30  1  1  0  0  0
  2  5  1  0  0  0  0
  2  6  1  0  0  0  0
  2  1  1  0  0  0  0
  2 31  1  6  0  0  0
  3  7  1  0  0  0  0
  3  8  2  0  0  0  0
  4  9  1  0  0  0  0
  5 10  1  0  0  0  0
  5 11  1  0  0  0  0
  6 32  1  0  0  0  0
  6 33  1  0  0  0  0
  7 13  2  0  0  0  0
  7 14  1  0  0  0  0
  8 15  1  0  0  0  0
  8 34  1  0  0  0  0
  9 16  1  0  0  0  0
  9 17  2  0  0  0  0
 10 18  1  0  0  0  0
 10 35  1  0  0  0  0
 10 36  1  0  0  0  0
 11 19  1  0  0  0  0
 11 37  1  0  0  0  0
 11 38  1  0  0  0  0
 12  6  1  0  0  0  0
 12 18  1  0  0  0  0
 12 19  1  0  0  0  0
 12 39  1  6  0  0  0
 13 20  1  0  0  0  0
 13 21  1  0  0  0  0
 14 22  2  0  0  0  0
 14 40  1  0  0  0  0
 15 21  2  0  0  0  0
 15 41  1  0  0  0  0
 16 23  1  0  0  0  0
 18 42  1  6  0  0  0
 18 24  1  0  0  0  0
 19 43  1  0  0  0  0
 19 44  1  0  0  0  0
 20 25  2  0  0  0  0
 20 45  1  0  0  0  0
 22 26  1  0  0  0  0
 22 25  1  0  0  0  0
 23 27  1  0  0  0  0
 23 46  1  0  0  0  0
 23 47  1  0  0  0  0
 24 28  2  0  0  0  0
 24 48  1  0  0  0  0
 25 49  1  0  0  0  0
 26 29  1  0  0  0  0
 27 50  1  0  0  0  0
 27 51  1  0  0  0  0
 27 52  1  0  0  0  0
 28 53  1  0  0  0  0
 28 54  1  0  0  0  0
 29 55  1  0  0  0  0
 29 56  1  0  0  0  0
 29 57  1  0  0  0  0
M  END
>  <Mol_ID>
6186

>  <Formula>
C23H28N2O4

>  <MolWeight>
396.47942

>  <Cat>
S0846

>  <Name>
Euquinine

>  <Synonyms>
N/A

>  <Target>
Anti-infection

>  <Form>
free base

>  <CAS>
83-75-0

>  <URL>
http://www.selleckchem.com/products/euquinine.html

$$$$
