Eurycomanone
 OpenBabel08302521572D

 53 57  0  0  1  0  0  0  0  0999 V2000
    7.0788    7.2437    0.0000 O   0  0  0  0  0  0  0  0  0  0  0  0
    2.3579    4.4468    0.0000 C   0  0  0  0  0  0  0  0  0  0  0  0
    2.1966    6.0786    0.0000 O   0  0  0  0  0  0  0  0  0  0  0  0
    6.3812    8.4544    0.0000 C   0  0  0  0  0  0  0  0  0  0  0  0
    8.4887    7.1955    0.0000 O   0  0  0  0  0  0  0  0  0  0  0  0
    1.4000    4.8498    0.0000 O   0  0  0  0  0  0  0  0  0  0  0  0
    3.5614    8.5010    0.0000 O   0  0  0  0  0  0  0  0  0  0  0  0
    9.8106    4.7320    0.0000 O   0  0  0  0  0  0  0  0  0  0  0  0
    4.2001    0.0000    0.0000 C   0  0  0  0  0  0  0  0  0  0  0  0
    0.0000    2.4248    0.0000 O   0  0  0  0  0  0  0  0  0  0  0  0
    5.6052    4.8536    0.0000 C   0  0  2  0  0  0  0  0  0  0  0  0
    4.2120    4.8388    0.0000 C   0  0  3  0  0  0  0  0  0  0  0  0
    6.3626    6.0407    0.0000 C   0  0  3  0  0  0  0  0  0  0  0  0
    6.2943    3.6212    0.0000 C   0  0  3  0  0  0  0  0  0  0  0  0
    5.8935    6.2539    0.0000 C   0  0  0  0  0  0  0  0  0  0  0  0
    3.5001    3.6373    0.0000 C   0  0  3  0  0  0  0  0  0  0  0  0
    3.5964    6.0585    0.0000 C   0  0  3  0  0  0  0  0  0  0  0  0
    5.6647    7.2517    0.0000 C   0  0  0  0  0  0  0  0  0  0  0  0
    7.7529    6.0043    0.0000 C   0  0  3  0  0  0  0  0  0  0  0  0
    5.5982    2.4149    0.0000 C   0  0  0  0  0  0  0  0  0  0  0  0
    7.6837    3.5790    0.0000 O   0  0  0  0  0  0  0  0  0  0  0  0
    4.6976    6.9758    0.0000 O   0  0  0  0  0  0  0  0  0  0  0  0
    4.2001    2.4248    0.0000 C   0  0  3  0  0  0  0  0  0  0  0  0
    2.1001    3.6373    0.0000 C   0  0  3  0  0  0  0  0  0  0  0  0
    4.2621    7.2890    0.0000 C   0  0  3  0  0  0  0  0  0  0  0  0
    8.4111    4.7719    0.0000 C   0  0  0  0  0  0  0  0  0  0  0  0
    3.5001    1.2125    0.0000 C   0  0  0  0  0  0  0  0  0  0  0  0
    1.4000    2.4248    0.0000 C   0  0  0  0  0  0  0  0  0  0  0  0
    2.1001    1.2125    0.0000 C   0  0  0  0  0  0  0  0  0  0  0  0
    8.0487    7.2307    0.0000 H   0  0  0  0  0  0  0  0  0  0  0  0
    2.4572    5.5122    0.0000 H   0  0  0  0  0  0  0  0  0  0  0  0
    1.3856    4.0001    0.0000 H   0  0  0  0  0  0  0  0  0  0  0  0
    1.4849    5.0655    0.0000 H   0  0  0  0  0  0  0  0  0  0  0  0
    1.7237    6.9255    0.0000 H   0  0  0  0  0  0  0  0  0  0  0  0
    7.4131    8.4403    0.0000 H   0  0  0  0  0  0  0  0  0  0  0  0
    5.8775    9.3551    0.0000 H   0  0  0  0  0  0  0  0  0  0  0  0
    9.4583    7.1667    0.0000 H   0  0  0  0  0  0  0  0  0  0  0  0
    1.8850    5.6899    0.0000 H   0  0  0  0  0  0  0  0  0  0  0  0
    4.0459    9.3413    0.0000 H   0  0  0  0  0  0  0  0  0  0  0  0
    3.6651   -0.9266    0.0000 H   0  0  0  0  0  0  0  0  0  0  0  0
    5.2701   -0.0000    0.0000 H   0  0  0  0  0  0  0  0  0  0  0  0
    4.7351   -0.9267    0.0000 H   0  0  0  0  0  0  0  0  0  0  0  0
    4.7467    3.9120    0.0000 H   0  0  0  0  0  0  0  0  0  0  0  0
    5.2243    3.6284    0.0000 H   0  0  0  0  0  0  0  0  0  0  0  0
    6.8738    6.6827    0.0000 H   0  0  0  0  0  0  0  0  0  0  0  0
    5.9634    7.3216    0.0000 H   0  0  0  0  0  0  0  0  0  0  0  0
    7.2440    6.9455    0.0000 H   0  0  0  0  0  0  0  0  0  0  0  0
    6.1300    1.4864    0.0000 H   0  0  0  0  0  0  0  0  0  0  0  0
    5.0583    1.4911    0.0000 H   0  0  0  0  0  0  0  0  0  0  0  0
    4.7384    3.3495    0.0000 H   0  0  0  0  0  0  0  0  0  0  0  0
    2.6351    4.5640    0.0000 H   0  0  0  0  0  0  0  0  0  0  0  0
    4.7976    6.3626    0.0000 H   0  0  0  0  0  0  0  0  0  0  0  0
    1.5841    0.3187    0.0000 H   0  0  0  0  0  0  0  0  0  0  0  0
  1 30  1  0  0  0  0
  2 31  1  0  0  0  0
  2 32  1  0  0  0  0
  2 33  1  0  0  0  0
  3 34  1  0  0  0  0
  4 18  2  0  0  0  0
  4 35  1  0  0  0  0
  4 36  1  0  0  0  0
  5 37  1  0  0  0  0
  6 38  1  0  0  0  0
  7 39  1  0  0  0  0
  8 26  2  0  0  0  0
  9 27  1  0  0  0  0
  9 40  1  0  0  0  0
  9 41  1  0  0  0  0
  9 42  1  0  0  0  0
 10 28  2  0  0  0  0
 11 12  1  0  0  0  0
 11 13  1  0  0  0  0
 11 14  1  0  0  0  0
 11 15  1  1  0  0  0
 12 16  1  0  0  0  0
 12 17  1  0  0  0  0
 12 43  1  0  0  0  0
 13  1  1  0  0  0  0
 13 18  1  0  0  0  0
 13 19  1  0  0  0  0
 14 20  1  0  0  0  0
 14 21  1  0  0  0  0
 14 44  1  0  0  0  0
 15 22  1  0  0  0  0
 15 45  1  0  0  0  0
 15 46  1  0  0  0  0
 16  2  1  0  0  0  0
 16 23  1  0  0  0  0
 16 24  1  0  0  0  0
 17  3  1  0  0  0  0
 17 22  1  0  0  0  0
 17 25  1  0  0  0  0
 18 25  1  0  0  0  0
 19  5  1  0  0  0  0
 19 26  1  0  0  0  0
 19 47  1  0  0  0  0
 20 48  1  0  0  0  0
 20 49  1  0  0  0  0
 21 26  1  0  0  0  0
 23 20  1  0  0  0  0
 23 27  1  0  0  0  0
 23 50  1  0  0  0  0
 24  6  1  0  0  0  0
 24 28  1  0  0  0  0
 24 51  1  0  0  0  0
 25  7  1  0  0  0  0
 25 52  1  0  0  0  0
 27 29  2  0  0  0  0
 28 29  1  0  0  0  0
 29 53  1  0  0  0  0
M  END
>  <Mol_ID>
10084

>  <Formula>
C20H24O9

>  <MolWeight>
408.39916

>  <Cat>
S0336

>  <Name>
Eurycomanone

>  <Synonyms>
Pasakbumin A

>  <Target>
PDE

>  <Form>
free base

>  <CAS>
84633-29-4

>  <URL>
https://www.selleckchem.com/products/eurycomanone.html

$$$$
