Evatanepag
 OpenBabel08302521353D

 61 63  0  0  0  0  0  0  0  0999 V2000
    1.2780    0.3766    0.6278 S   0  0  0  0  0  0  0  0  0  0  0  0
    0.3950   -0.3188    1.5463 O   0  0  0  0  0  0  0  0  0  0  0  0
    2.5046    0.9590    1.1158 O   0  0  0  0  0  0  0  0  0  0  0  0
   -4.6814    3.0009    3.1355 O   0  0  0  0  0  0  0  0  0  0  0  0
   -3.7705    5.1539    1.3679 O   0  0  0  0  0  0  0  0  0  0  0  0
   -5.7827    5.2182    0.3914 O   0  0  0  0  0  0  0  0  0  0  0  0
    0.3946    1.5860   -0.1527 N   0  0  0  0  0  0  0  0  0  0  0  0
    1.3017   -2.9825   -1.5374 N   0  0  0  0  0  0  0  0  0  0  0  0
    5.8821    5.3305   -0.4371 C   0  0  0  0  0  0  0  0  0  0  0  0
    4.5771    4.5742   -0.7491 C   0  0  0  0  0  0  0  0  0  0  0  0
    0.9210    2.2771   -1.3536 C   0  0  0  0  0  0  0  0  0  0  0  0
    2.1788    3.0829   -1.1541 C   0  0  0  0  0  0  0  0  0  0  0  0
    7.0807    4.8941   -1.3108 C   0  0  0  0  0  0  0  0  0  0  0  0
    5.6830    6.8452   -0.6525 C   0  0  0  0  0  0  0  0  0  0  0  0
    6.2835    5.0834    1.0352 C   0  0  0  0  0  0  0  0  0  0  0  0
    4.4836    3.5992   -1.7546 C   0  0  0  0  0  0  0  0  0  0  0  0
    3.4156    4.8256    0.0052 C   0  0  0  0  0  0  0  0  0  0  0  0
   -1.0710    1.6292    0.0249 C   0  0  0  0  0  0  0  0  0  0  0  0
    3.3032    2.8704   -1.9586 C   0  0  0  0  0  0  0  0  0  0  0  0
    2.2373    4.0950   -0.1922 C   0  0  0  0  0  0  0  0  0  0  0  0
   -1.5560    2.0396    1.4085 C   0  0  0  0  0  0  0  0  0  0  0  0
    1.7257   -0.8104   -0.5870 C   0  0  0  0  0  0  0  0  0  0  0  0
   -2.9373    2.1280    1.6485 C   0  0  0  0  0  0  0  0  0  0  0  0
   -0.6811    2.3728    2.4571 C   0  0  0  0  0  0  0  0  0  0  0  0
    2.9972   -0.7876   -1.1591 C   0  0  0  0  0  0  0  0  0  0  0  0
    0.9278   -1.9247   -0.7767 C   0  0  0  0  0  0  0  0  0  0  0  0
   -3.4058    2.5887    2.8824 C   0  0  0  0  0  0  0  0  0  0  0  0
   -1.1566    2.6982    3.7253 C   0  0  0  0  0  0  0  0  0  0  0  0
   -2.5218    2.8066    3.9376 C   0  0  0  0  0  0  0  0  0  0  0  0
    3.4126   -1.8715   -1.9247 C   0  0  0  0  0  0  0  0  0  0  0  0
    2.5396   -2.9371   -2.0809 C   0  0  0  0  0  0  0  0  0  0  0  0
   -5.4506    3.4807    2.0463 C   0  0  0  0  0  0  0  0  0  0  0  0
   -5.0297    4.6969    1.2029 C   0  0  0  0  0  0  0  0  0  0  0  0
   -3.2479    4.6903    2.0486 H   0  0  0  0  0  0  0  0  0  0  0  0
    1.0470    1.5415   -2.1572 H   0  0  0  0  0  0  0  0  0  0  0  0
    0.1753    2.9855   -1.7393 H   0  0  0  0  0  0  0  0  0  0  0  0
    6.9071    5.1121   -2.3710 H   0  0  0  0  0  0  0  0  0  0  0  0
    7.9964    5.4227   -1.0189 H   0  0  0  0  0  0  0  0  0  0  0  0
    7.2847    3.8216   -1.2113 H   0  0  0  0  0  0  0  0  0  0  0  0
    4.9295    7.2629    0.0240 H   0  0  0  0  0  0  0  0  0  0  0  0
    6.6155    7.3941   -0.4713 H   0  0  0  0  0  0  0  0  0  0  0  0
    5.3638    7.0614   -1.6783 H   0  0  0  0  0  0  0  0  0  0  0  0
    5.5265    5.4470    1.7386 H   0  0  0  0  0  0  0  0  0  0  0  0
    6.4286    4.0145    1.2313 H   0  0  0  0  0  0  0  0  0  0  0  0
    7.2196    5.5983    1.2819 H   0  0  0  0  0  0  0  0  0  0  0  0
    5.3292    3.3692   -2.3971 H   0  0  0  0  0  0  0  0  0  0  0  0
    3.4173    5.5873    0.7821 H   0  0  0  0  0  0  0  0  0  0  0  0
   -1.5001    2.3693   -0.6641 H   0  0  0  0  0  0  0  0  0  0  0  0
   -1.5031    0.6624   -0.2604 H   0  0  0  0  0  0  0  0  0  0  0  0
    3.2838    2.1233   -2.7491 H   0  0  0  0  0  0  0  0  0  0  0  0
    1.3708    4.3123    0.4286 H   0  0  0  0  0  0  0  0  0  0  0  0
   -3.6298    1.8813    0.8482 H   0  0  0  0  0  0  0  0  0  0  0  0
    0.3971    2.3595    2.3203 H   0  0  0  0  0  0  0  0  0  0  0  0
    3.6833    0.0323   -0.9595 H   0  0  0  0  0  0  0  0  0  0  0  0
   -0.0364   -2.0365   -0.2862 H   0  0  0  0  0  0  0  0  0  0  0  0
   -0.4553    2.8927    4.5327 H   0  0  0  0  0  0  0  0  0  0  0  0
   -2.8926    3.1216    4.9099 H   0  0  0  0  0  0  0  0  0  0  0  0
    4.4073   -1.9014   -2.3559 H   0  0  0  0  0  0  0  0  0  0  0  0
    2.8298   -3.8190   -2.6456 H   0  0  0  0  0  0  0  0  0  0  0  0
   -5.6803    2.6548    1.3634 H   0  0  0  0  0  0  0  0  0  0  0  0
   -6.4033    3.7846    2.4970 H   0  0  0  0  0  0  0  0  0  0  0  0
  1  2  2  0  0  0  0
  1  3  2  0  0  0  0
  1  7  1  0  0  0  0
  1 22  1  0  0  0  0
  4 27  1  0  0  0  0
  4 32  1  0  0  0  0
  5 33  1  0  0  0  0
  5 34  1  0  0  0  0
  6 33  2  0  0  0  0
  7 11  1  0  0  0  0
  7 18  1  0  0  0  0
  8 26  2  0  0  0  0
  8 31  1  0  0  0  0
  9 10  1  0  0  0  0
  9 13  1  0  0  0  0
  9 14  1  0  0  0  0
  9 15  1  0  0  0  0
 10 16  2  0  0  0  0
 10 17  1  0  0  0  0
 11 12  1  0  0  0  0
 11 35  1  0  0  0  0
 11 36  1  0  0  0  0
 12 19  2  0  0  0  0
 12 20  1  0  0  0  0
 13 37  1  0  0  0  0
 13 38  1  0  0  0  0
 13 39  1  0  0  0  0
 14 40  1  0  0  0  0
 14 41  1  0  0  0  0
 14 42  1  0  0  0  0
 15 43  1  0  0  0  0
 15 44  1  0  0  0  0
 15 45  1  0  0  0  0
 16 19  1  0  0  0  0
 16 46  1  0  0  0  0
 17 20  2  0  0  0  0
 17 47  1  0  0  0  0
 18 21  1  0  0  0  0
 18 48  1  0  0  0  0
 18 49  1  0  0  0  0
 19 50  1  0  0  0  0
 20 51  1  0  0  0  0
 21 23  2  0  0  0  0
 21 24  1  0  0  0  0
 22 25  2  0  0  0  0
 22 26  1  0  0  0  0
 23 27  1  0  0  0  0
 23 52  1  0  0  0  0
 24 28  2  0  0  0  0
 24 53  1  0  0  0  0
 25 30  1  0  0  0  0
 25 54  1  0  0  0  0
 26 55  1  0  0  0  0
 27 29  2  0  0  0  0
 28 29  1  0  0  0  0
 28 56  1  0  0  0  0
 29 57  1  0  0  0  0
 30 31  2  0  0  0  0
 30 58  1  0  0  0  0
 31 59  1  0  0  0  0
 32 33  1  0  0  0  0
 32 60  1  0  0  0  0
 32 61  1  0  0  0  0
M  END
>  <Mol_ID>
6787

>  <Formula>
C25H28N2O5S

>  <MolWeight>
468.56522

>  <Cat>
E0053

>  <Name>
Evatanepag

>  <Synonyms>
CP-533536 free acid

>  <Target>
Prostaglandin Receptor

>  <Form>
Free base

>  <CAS>
223488-57-1

>  <URL>
http://www.selleckchem.com/products/evatanepag.html

$$$$
