Evodine
 OpenBabel08302521223D

 43 45  0  0  0  0  0  0  0  0999 V2000
    1.2733    0.1204    0.2151 C   0  0  0  0  0  0  0  0  0  0  0  0
    0.5021    0.9433   -0.8376 C   0  0  3  0  0  0  0  0  0  0  0  0
   -0.5439    0.2348   -1.6813 C   0  0  0  0  0  0  0  0  0  0  0  0
   -0.8842   -1.0632   -1.5759 C   0  0  0  0  0  0  0  0  0  0  0  0
   -0.1156    2.0589   -0.2008 O   0  0  0  0  0  0  0  0  0  0  0  0
   -1.1970    1.0925   -2.7329 C   0  0  0  0  0  0  0  0  0  0  0  0
    0.3987   -0.4163    1.2305 O   0  0  0  0  0  0  0  0  0  0  0  0
   -0.6960   -4.7516    2.8817 N   0  0  0  0  0  0  0  0  0  0  0  0
   -0.2995   -5.9863    3.1903 C   0  0  0  0  0  0  0  0  0  0  0  0
    0.9959   -6.4663    3.1856 C   0  0  0  0  0  0  0  0  0  0  0  0
    2.0368   -5.5822    2.8500 C   0  0  0  0  0  0  0  0  0  0  0  0
    1.6633   -4.2308    2.5475 C   0  0  0  0  0  0  0  0  0  0  0  0
    2.5714   -3.1890    2.2559 C   0  0  0  0  0  0  0  0  0  0  0  0
    2.1629   -1.9091    1.8942 C   0  0  0  0  0  0  0  0  0  0  0  0
    0.8155   -1.6130    1.7660 C   0  0  0  0  0  0  0  0  0  0  0  0
   -0.1247   -2.5791    2.1634 C   0  0  0  0  0  0  0  0  0  0  0  0
    0.2727   -3.8865    2.5457 C   0  0  0  0  0  0  0  0  0  0  0  0
   -1.1620   -6.9760    3.5617 O   0  0  0  0  0  0  0  0  0  0  0  0
    0.9085   -7.8405    3.5503 C   0  0  0  0  0  0  0  0  0  0  0  0
   -0.4223   -8.0940    3.7784 C   0  0  0  0  0  0  0  0  0  0  0  0
   -1.4943   -2.3799    2.1057 O   0  0  0  0  0  0  0  0  0  0  0  0
   -1.9811   -1.0826    2.4253 C   0  0  0  0  0  0  0  0  0  0  0  0
    3.2572   -6.1823    2.8797 O   0  0  0  0  0  0  0  0  0  0  0  0
    4.4473   -5.5648    2.4396 C   0  0  0  0  0  0  0  0  0  0  0  0
    1.9823    0.7842    0.7286 H   0  0  0  0  0  0  0  0  0  0  0  0
    1.8258   -0.6678   -0.3097 H   0  0  0  0  0  0  0  0  0  0  0  0
    1.2545    1.3486   -1.5253 H   0  0  0  0  0  0  0  0  0  0  0  0
   -1.6433   -1.5048   -2.2166 H   0  0  0  0  0  0  0  0  0  0  0  0
   -0.4436   -1.7357   -0.8492 H   0  0  0  0  0  0  0  0  0  0  0  0
   -0.7456    1.6824    0.4347 H   0  0  0  0  0  0  0  0  0  0  0  0
   -1.8476    1.8388   -2.2667 H   0  0  0  0  0  0  0  0  0  0  0  0
   -0.4374    1.6099   -3.3280 H   0  0  0  0  0  0  0  0  0  0  0  0
   -1.8059    0.5012   -3.4252 H   0  0  0  0  0  0  0  0  0  0  0  0
    3.6416   -3.3265    2.2855 H   0  0  0  0  0  0  0  0  0  0  0  0
    2.9298   -1.1694    1.6823 H   0  0  0  0  0  0  0  0  0  0  0  0
    1.7230   -8.5453    3.6368 H   0  0  0  0  0  0  0  0  0  0  0  0
   -0.9780   -8.9710    4.0818 H   0  0  0  0  0  0  0  0  0  0  0  0
   -1.4146   -0.6044    3.2314 H   0  0  0  0  0  0  0  0  0  0  0  0
   -2.0059   -0.4562    1.5292 H   0  0  0  0  0  0  0  0  0  0  0  0
   -3.0164   -1.1877    2.7671 H   0  0  0  0  0  0  0  0  0  0  0  0
    4.3599   -5.1829    1.4181 H   0  0  0  0  0  0  0  0  0  0  0  0
    4.7650   -4.8007    3.1542 H   0  0  0  0  0  0  0  0  0  0  0  0
    5.2339   -6.3260    2.4302 H   0  0  0  0  0  0  0  0  0  0  0  0
  1  2  1  0  0  0  0
  1  7  1  0  0  0  0
  1 25  1  0  0  0  0
  1 26  1  0  0  0  0
  2  3  1  0  0  0  0
  2  5  1  0  0  0  0
  2 27  1  0  0  0  0
  3  4  2  0  0  0  0
  3  6  1  0  0  0  0
  4 28  1  0  0  0  0
  4 29  1  0  0  0  0
  5 30  1  0  0  0  0
  6 31  1  0  0  0  0
  6 32  1  0  0  0  0
  6 33  1  0  0  0  0
  7 15  1  0  0  0  0
  8  9  2  0  0  0  0
  8 17  1  0  0  0  0
  9 10  1  0  0  0  0
  9 18  1  0  0  0  0
 10 11  2  0  0  0  0
 10 19  1  0  0  0  0
 11 12  1  0  0  0  0
 11 23  1  0  0  0  0
 12 13  1  0  0  0  0
 12 17  2  0  0  0  0
 13 14  2  0  0  0  0
 13 34  1  0  0  0  0
 14 15  1  0  0  0  0
 14 35  1  0  0  0  0
 15 16  2  0  0  0  0
 16 17  1  0  0  0  0
 16 21  1  0  0  0  0
 18 20  1  0  0  0  0
 19 20  2  0  0  0  0
 19 36  1  0  0  0  0
 20 37  1  0  0  0  0
 21 22  1  0  0  0  0
 22 38  1  0  0  0  0
 22 39  1  0  0  0  0
 22 40  1  0  0  0  0
 23 24  1  0  0  0  0
 24 41  1  0  0  0  0
 24 42  1  0  0  0  0
 24 43  1  0  0  0  0
M  END
>  <Mol_ID>
4656

>  <Formula>
C18H19NO5

>  <MolWeight>
329.34716

>  <Cat>
S9563

>  <Name>
Evodine

>  <Synonyms>
N/A

>  <Target>
P-gp

>  <Form>
Free Base

>  <CAS>
6989-38-4

>  <URL>
http://www.selleckchem.com/products/evodine.html

$$$$
