EW-7197.cdx
 OpenBabel08302519583D

 48 52  0  0  0  0  0  0  0  0999 V2000
   -0.4243   -1.1566   -0.0382 C   0  0  0  0  0  0  0  0  0  0  0  0
    0.9316   -0.8841   -0.0225 C   0  0  0  0  0  0  0  0  0  0  0  0
    0.9762    0.4920    0.0726 N   0  0  0  0  0  0  0  0  0  0  0  0
   -0.3126    0.9752    0.0453 C   0  0  0  0  0  0  0  0  0  0  0  0
   -1.1812   -0.0150   -0.0224 N   0  0  0  0  0  0  0  0  0  0  0  0
   -0.6293    2.4430    0.0514 C   0  0  0  0  0  0  0  0  0  0  0  0
   -0.4708    3.0531   -1.2697 N   0  0  0  0  0  0  0  0  0  0  0  0
   -0.9779    4.3430   -1.5063 C   0  0  0  0  0  0  0  0  0  0  0  0
    2.1189   -1.7248   -0.0426 C   0  0  0  0  0  0  0  0  0  0  0  0
   -1.0591   -2.4314   -0.0138 C   0  0  0  0  0  0  0  0  0  0  0  0
   -1.3771   -3.0684    1.2682 C   0  0  0  0  0  0  0  0  0  0  0  0
   -1.9255   -4.2970    1.3431 C   0  0  0  0  0  0  0  0  0  0  0  0
   -2.2052   -5.0103    0.1473 C   0  0  0  0  0  0  0  0  0  0  0  0
   -1.9169   -4.3801   -1.0654 N   0  0  0  0  0  0  0  0  0  0  0  0
   -1.3618   -3.1077   -1.1411 C   0  0  0  0  0  0  0  0  0  0  0  0
    2.1621   -2.9279   -0.7373 C   0  0  0  0  0  0  0  0  0  0  0  0
    3.2977   -3.7216   -0.6411 C   0  0  0  0  0  0  0  0  0  0  0  0
    4.3608   -3.2844    0.1337 C   0  0  0  0  0  0  0  0  0  0  0  0
    4.2622   -2.0504    0.7731 C   0  0  0  0  0  0  0  0  0  0  0  0
    3.1602   -1.2591    0.6857 N   0  0  0  0  0  0  0  0  0  0  0  0
   -1.0045    4.7930   -2.8378 C   0  0  0  0  0  0  0  0  0  0  0  0
   -1.4012    6.0949   -3.1662 C   0  0  0  0  0  0  0  0  0  0  0  0
   -1.7696    6.9865   -2.1644 C   0  0  0  0  0  0  0  0  0  0  0  0
   -1.7367    6.5726   -0.8347 C   0  0  0  0  0  0  0  0  0  0  0  0
   -1.3322    5.2749   -0.5163 C   0  0  0  0  0  0  0  0  0  0  0  0
   -1.3049    4.9397    0.7830 F   0  0  0  0  0  0  0  0  0  0  0  0
    5.3947   -1.5523    1.6213 C   0  0  0  0  0  0  0  0  0  0  0  0
   -2.7010   -6.2072   -0.0713 N   0  0  0  0  0  0  0  0  0  0  0  0
   -2.6973   -6.2888   -1.4313 C   0  0  0  0  0  0  0  0  0  0  0  0
   -2.2264   -5.2237   -2.0816 N   0  0  0  0  0  0  0  0  0  0  0  0
    1.8238    1.0427    0.1276 H   0  0  0  0  0  0  0  0  0  0  0  0
   -1.6654    2.5532    0.3992 H   0  0  0  0  0  0  0  0  0  0  0  0
    0.0279    2.9424    0.7730 H   0  0  0  0  0  0  0  0  0  0  0  0
   -0.7583    2.4092   -2.0042 H   0  0  0  0  0  0  0  0  0  0  0  0
   -1.1613   -2.5076    2.1739 H   0  0  0  0  0  0  0  0  0  0  0  0
   -2.1599   -4.7587    2.2953 H   0  0  0  0  0  0  0  0  0  0  0  0
   -1.1701   -2.7318   -2.1366 H   0  0  0  0  0  0  0  0  0  0  0  0
    1.3382   -3.2611   -1.3538 H   0  0  0  0  0  0  0  0  0  0  0  0
    3.3447   -4.6739   -1.1601 H   0  0  0  0  0  0  0  0  0  0  0  0
    5.2502   -3.8991    0.2321 H   0  0  0  0  0  0  0  0  0  0  0  0
   -0.7004    4.1245   -3.6414 H   0  0  0  0  0  0  0  0  0  0  0  0
   -1.4086    6.4116   -4.2065 H   0  0  0  0  0  0  0  0  0  0  0  0
   -2.0699    8.0011   -2.4158 H   0  0  0  0  0  0  0  0  0  0  0  0
   -2.0134    7.2562   -0.0378 H   0  0  0  0  0  0  0  0  0  0  0  0
    5.7556   -0.5945    1.2364 H   0  0  0  0  0  0  0  0  0  0  0  0
    5.0570   -1.4229    2.6522 H   0  0  0  0  0  0  0  0  0  0  0  0
    6.2357   -2.2566    1.6250 H   0  0  0  0  0  0  0  0  0  0  0  0
   -3.0490   -7.1599   -1.9699 H   0  0  0  0  0  0  0  0  0  0  0  0
  1  2  2  0  0  0  0
  1 10  1  0  0  0  0
  2  3  1  0  0  0  0
  2  9  1  0  0  0  0
  3  4  1  0  0  0  0
  3 31  1  0  0  0  0
  4  5  2  0  0  0  0
  4  6  1  0  0  0  0
  5  1  1  0  0  0  0
  6  7  1  0  0  0  0
  6 32  1  0  0  0  0
  6 33  1  0  0  0  0
  7  8  1  0  0  0  0
  7 34  1  0  0  0  0
  8 21  2  0  0  0  0
  9 16  2  0  0  0  0
 10 11  1  0  0  0  0
 11 12  2  0  0  0  0
 11 35  1  0  0  0  0
 12 13  1  0  0  0  0
 12 36  1  0  0  0  0
 13 14  1  0  0  0  0
 13 28  2  0  0  0  0
 14 15  1  0  0  0  0
 15 10  2  0  0  0  0
 15 37  1  0  0  0  0
 16 17  1  0  0  0  0
 16 38  1  0  0  0  0
 17 18  2  0  0  0  0
 17 39  1  0  0  0  0
 18 19  1  0  0  0  0
 18 40  1  0  0  0  0
 19 20  2  0  0  0  0
 19 27  1  0  0  0  0
 20  9  1  0  0  0  0
 21 22  1  0  0  0  0
 21 41  1  0  0  0  0
 22 23  2  0  0  0  0
 22 42  1  0  0  0  0
 23 24  1  0  0  0  0
 23 43  1  0  0  0  0
 24 25  2  0  0  0  0
 24 44  1  0  0  0  0
 25  8  1  0  0  0  0
 25 26  1  0  0  0  0
 27 45  1  0  0  0  0
 27 46  1  0  0  0  0
 27 47  1  0  0  0  0
 28 29  1  0  0  0  0
 29 30  2  0  0  0  0
 29 48  1  0  0  0  0
 30 14  1  0  0  0  0
M  END
>  <Mol_ID>
2489

>  <Formula>
C22H18FN7

>  <MolWeight>
399.4236232

>  <Cat>
S7530

>  <Name>
Vactosertib (TEW-7197)

>  <Synonyms>
EW-7197

>  <Target>
TGF-beta/Smad

>  <Form>
free base

>  <CAS>
1352608-82-2

>  <URL>
http://selleckchem.com/products/ew-7197.html

$$$$
