EX527.cdx
 OpenBabel08302520143D

 30 32  0  0  0  0  0  0  0  0999 V2000
   -0.0036   -1.6235   -0.0130 N   0  0  0  0  0  0  0  0  0  0  0  0
    1.1074   -0.8285   -0.0922 C   0  0  0  0  0  0  0  0  0  0  0  0
    0.6983    0.4882   -0.1168 C   0  0  0  0  0  0  0  0  0  0  0  0
   -0.7225    0.4957   -0.0721 C   0  0  0  0  0  0  0  0  0  0  0  0
   -1.1363   -0.8384   -0.0111 C   0  0  0  0  0  0  0  0  0  0  0  0
    2.5245   -1.3264   -0.0873 C   0  0  3  0  0  0  0  0  0  0  0  0
    3.5246   -0.1452   -0.1780 C   0  0  0  0  0  0  0  0  0  0  0  0
    3.0101    1.1621    0.4579 C   0  0  0  0  0  0  0  0  0  0  0  0
    1.6740    1.6123   -0.1589 C   0  0  0  0  0  0  0  0  0  0  0  0
   -1.7029    1.5073   -0.0645 C   0  0  0  0  0  0  0  0  0  0  0  0
   -3.0553    1.1530    0.0007 C   0  0  0  0  0  0  0  0  0  0  0  0
   -3.4380   -0.1857    0.0572 C   0  0  0  0  0  0  0  0  0  0  0  0
   -2.4849   -1.2081    0.0524 C   0  0  0  0  0  0  0  0  0  0  0  0
    2.7219   -2.3104   -1.2429 C   0  0  0  0  0  0  0  0  0  0  0  0
    3.0695   -3.4767   -1.0756 O   0  0  0  0  0  0  0  0  0  0  0  0
    2.4782   -1.8331   -2.5009 N   0  0  0  0  0  0  0  0  0  0  0  0
   -0.0050   -2.6342    0.0422 H   0  0  0  0  0  0  0  0  0  0  0  0
    2.6958   -1.8653    0.8530 H   0  0  0  0  0  0  0  0  0  0  0  0
    3.7921    0.0647   -1.2208 H   0  0  0  0  0  0  0  0  0  0  0  0
    4.4616   -0.4397    0.3124 H   0  0  0  0  0  0  0  0  0  0  0  0
    2.8841    1.0098    1.5378 H   0  0  0  0  0  0  0  0  0  0  0  0
    3.7575    1.9535    0.3309 H   0  0  0  0  0  0  0  0  0  0  0  0
    1.2905    2.4843    0.3811 H   0  0  0  0  0  0  0  0  0  0  0  0
    1.8323    1.9091   -1.2028 H   0  0  0  0  0  0  0  0  0  0  0  0
   -1.4151    2.5532   -0.1022 H   0  0  0  0  0  0  0  0  0  0  0  0
   -3.8138    1.9321    0.0115 H   0  0  0  0  0  0  0  0  0  0  0  0
   -4.4940   -0.4400    0.1101 H   0  0  0  0  0  0  0  0  0  0  0  0
   -2.7863   -2.2491    0.1034 H   0  0  0  0  0  0  0  0  0  0  0  0
    1.9153   -1.0010   -2.6263 H   0  0  0  0  0  0  0  0  0  0  0  0
    2.4956   -2.5069   -3.2555 H   0  0  0  0  0  0  0  0  0  0  0  0
  1  2  1  0  0  0  0
  1 17  1  0  0  0  0
  2  3  2  0  0  0  0
  2  6  1  0  0  0  0
  3  4  1  0  0  0  0
  4  5  2  0  0  0  0
  4 10  1  0  0  0  0
  5  1  1  0  0  0  0
  6  7  1  0  0  0  0
  6 14  1  0  0  0  0
  6 18  1  0  0  0  0
  7  8  1  0  0  0  0
  7 19  1  0  0  0  0
  7 20  1  0  0  0  0
  8  9  1  0  0  0  0
  8 21  1  0  0  0  0
  8 22  1  0  0  0  0
  9  3  1  0  0  0  0
  9 23  1  0  0  0  0
  9 24  1  0  0  0  0
 10 11  2  0  0  0  0
 10 25  1  0  0  0  0
 11 12  1  0  0  0  0
 11 26  1  0  0  0  0
 12 13  2  0  0  0  0
 12 27  1  0  0  0  0
 13  5  1  0  0  0  0
 13 28  1  0  0  0  0
 14 15  2  0  0  0  0
 14 16  1  0  0  0  0
 16 29  1  0  0  0  0
 16 30  1  0  0  0  0
M  END
>  <Mol_ID>
321

>  <Formula>
C13H13ClN2O

>  <MolWeight>
248.70812

>  <Cat>
S1541

>  <Name>
Selisistat (EX 527)

>  <Synonyms>
SEN0014196

>  <Target>
Sirtuin

>  <Form>
free base

>  <CAS>
49843-98-3

>  <URL>
http://selleckchem.com/products/EX-527.html

$$$$
