Exemestane.cdx
 OpenBabel08302521463D

 46 49  0  0  0  0  0  0  0  0999 V2000
    4.5076    0.9788   -1.0059 C   0  0  0  0  0  0  0  0  0  0  0  0
    3.6324    0.6886   -2.1547 C   0  0  0  0  0  0  0  0  0  0  0  0
    2.3850    0.2502   -1.9542 C   0  0  0  0  0  0  0  0  0  0  0  0
    3.8570    1.0679    0.3151 C   0  0  0  0  0  0  0  0  0  0  0  0
    2.5841    0.6773    0.5296 C   0  0  0  0  0  0  0  0  0  0  0  0
    1.9558    0.9911    1.8157 C   0  0  0  0  0  0  0  0  0  0  0  0
    0.5639    1.5528    1.7628 C   0  0  0  0  0  0  0  0  0  0  0  0
   -0.3625    0.8939    0.7425 C   0  0  1  0  0  0  0  0  0  0  0  0
   -1.5544    1.8090    0.4278 C   0  0  2  0  0  0  0  0  0  0  0  0
   -2.3272    2.5834    1.4850 C   0  0  0  0  0  0  0  0  0  0  0  0
   -3.3826    3.2766    0.6072 C   0  0  0  0  0  0  0  0  0  0  0  0
   -3.6565    2.2301   -0.4651 C   0  0  0  0  0  0  0  0  0  0  0  0
   -2.6357    1.0967   -0.4089 C   0  0  2  0  0  0  0  0  0  0  0  0
   -3.2943   -0.1162    0.2694 C   0  0  0  0  0  0  0  0  0  0  0  0
   -2.0147    0.7201   -1.7551 C   0  0  0  0  0  0  0  0  0  0  0  0
   -0.7018   -0.0730   -1.5766 C   0  0  0  0  0  0  0  0  0  0  0  0
    0.3156    0.6564   -0.6436 C   0  0  2  0  0  0  0  0  0  0  0  0
    1.7370    0.0203   -0.5812 C   0  0  1  0  0  0  0  0  0  0  0  0
    1.6885   -1.5062   -0.3682 C   0  0  0  0  0  0  0  0  0  0  0  0
    5.7013    1.1949   -1.1561 O   0  0  0  0  0  0  0  0  0  0  0  0
   -4.5688    2.3024   -1.2736 O   0  0  0  0  0  0  0  0  0  0  0  0
    2.6029    0.9257    2.9946 C   0  0  0  0  0  0  0  0  0  0  0  0
    4.0494    0.8441   -3.1403 H   0  0  0  0  0  0  0  0  0  0  0  0
    1.7921    0.0453   -2.8416 H   0  0  0  0  0  0  0  0  0  0  0  0
    4.4808    1.5331    1.0743 H   0  0  0  0  0  0  0  0  0  0  0  0
    0.6489    2.6252    1.5470 H   0  0  0  0  0  0  0  0  0  0  0  0
    0.0885    1.4731    2.7509 H   0  0  0  0  0  0  0  0  0  0  0  0
   -0.6998   -0.0650    1.1571 H   0  0  0  0  0  0  0  0  0  0  0  0
   -1.1282    2.6170   -0.1943 H   0  0  0  0  0  0  0  0  0  0  0  0
   -2.7943    1.9320    2.2289 H   0  0  0  0  0  0  0  0  0  0  0  0
   -1.7098    3.3179    2.0113 H   0  0  0  0  0  0  0  0  0  0  0  0
   -2.9513    4.1572    0.1155 H   0  0  0  0  0  0  0  0  0  0  0  0
   -4.2802    3.5480    1.1625 H   0  0  0  0  0  0  0  0  0  0  0  0
   -3.3836    0.0065    1.3530 H   0  0  0  0  0  0  0  0  0  0  0  0
   -2.7357   -1.0420    0.1027 H   0  0  0  0  0  0  0  0  0  0  0  0
   -4.3071   -0.2786   -0.1172 H   0  0  0  0  0  0  0  0  0  0  0  0
   -2.7220    0.1406   -2.3606 H   0  0  0  0  0  0  0  0  0  0  0  0
   -1.7956    1.6287   -2.3321 H   0  0  0  0  0  0  0  0  0  0  0  0
   -0.9283   -1.0663   -1.1713 H   0  0  0  0  0  0  0  0  0  0  0  0
   -0.2814   -0.2429   -2.5713 H   0  0  0  0  0  0  0  0  0  0  0  0
    0.4728    1.6514   -1.0908 H   0  0  0  0  0  0  0  0  0  0  0  0
    1.3849   -2.0323   -1.2831 H   0  0  0  0  0  0  0  0  0  0  0  0
    2.6724   -1.9068   -0.0926 H   0  0  0  0  0  0  0  0  0  0  0  0
    0.9847   -1.7889    0.4208 H   0  0  0  0  0  0  0  0  0  0  0  0
    3.6342    0.6008    3.0849 H   0  0  0  0  0  0  0  0  0  0  0  0
    2.1288    1.2615    3.9138 H   0  0  0  0  0  0  0  0  0  0  0  0
  1  2  1  0  0  0  0
  1  4  1  0  0  0  0
  1 20  2  0  0  0  0
  2  3  2  0  0  0  0
  2 23  1  0  0  0  0
  3 18  1  0  0  0  0
  3 24  1  0  0  0  0
  4  5  2  0  0  0  0
  4 25  1  0  0  0  0
  5  6  1  0  0  0  0
  5 18  1  0  0  0  0
  6  7  1  0  0  0  0
  6 22  2  0  0  0  0
  7 26  1  0  0  0  0
  7 27  1  0  0  0  0
  8  7  1  0  0  0  0
  8  9  1  0  0  0  0
  8 17  1  0  0  0  0
  8 28  1  1  0  0  0
  9 10  1  0  0  0  0
  9 13  1  0  0  0  0
  9 29  1  6  0  0  0
 10 11  1  0  0  0  0
 10 30  1  0  0  0  0
 10 31  1  0  0  0  0
 11 12  1  0  0  0  0
 11 32  1  0  0  0  0
 11 33  1  0  0  0  0
 12 13  1  0  0  0  0
 12 21  2  0  0  0  0
 13 14  1  1  0  0  0
 13 15  1  0  0  0  0
 14 34  1  0  0  0  0
 14 35  1  0  0  0  0
 14 36  1  0  0  0  0
 15 16  1  0  0  0  0
 15 37  1  0  0  0  0
 15 38  1  0  0  0  0
 16 39  1  0  0  0  0
 16 40  1  0  0  0  0
 17 16  1  0  0  0  0
 17 18  1  0  0  0  0
 17 41  1  6  0  0  0
 18 19  1  1  0  0  0
 19 42  1  0  0  0  0
 19 43  1  0  0  0  0
 19 44  1  0  0  0  0
 22 45  1  0  0  0  0
 22 46  1  0  0  0  0
M  END
>  <Mol_ID>
114

>  <Formula>
C20H24O2

>  <MolWeight>
296.40336

>  <Cat>
S1196

>  <Name>
Exemestane (FCE 24304)

>  <Synonyms>
Aromasin,FCE24304, PNU155971,EXE

>  <Target>
Aromatase

>  <Form>
free base

>  <CAS>
107868-30-4

>  <URL>
http://selleckchem.com/products/Exemestane.html

$$$$
