EXJADE (deferasirox).cdx
 OpenBabel08302520433D

 43 46  0  0  0  0  0  0  0  0999 V2000
    1.1243   -0.2301    0.1078 C   0  0  0  0  0  0  0  0  0  0  0  0
    0.3157   -1.3676    0.1319 C   0  0  0  0  0  0  0  0  0  0  0  0
   -1.0490   -1.2737   -0.1715 C   0  0  0  0  0  0  0  0  0  0  0  0
   -1.5780   -0.0506   -0.5932 C   0  0  0  0  0  0  0  0  0  0  0  0
   -0.7604    1.0979   -0.6019 C   0  0  0  0  0  0  0  0  0  0  0  0
    0.5954    1.0211   -0.2372 C   0  0  0  0  0  0  0  0  0  0  0  0
   -1.8950   -2.3950    0.0557 N   0  0  0  0  0  0  0  0  0  0  0  0
   -1.7945   -3.3480    1.0605 C   0  0  0  0  0  0  0  0  0  0  0  0
   -2.5886   -4.3538    0.7613 N   0  0  0  0  0  0  0  0  0  0  0  0
   -3.3327   -3.9014   -0.3008 C   0  0  0  0  0  0  0  0  0  0  0  0
   -2.9759   -2.6764   -0.7379 N   0  0  0  0  0  0  0  0  0  0  0  0
    1.5387    2.1817   -0.1483 C   0  0  0  0  0  0  0  0  0  0  0  0
    1.0615    3.3786   -0.5299 O   0  0  0  0  0  0  0  0  0  0  0  0
    2.6837    2.0513    0.2643 O   0  0  0  0  0  0  0  0  0  0  0  0
   -4.4231   -4.7271   -0.8256 C   0  0  0  0  0  0  0  0  0  0  0  0
   -1.0066   -3.2886    2.2978 C   0  0  0  0  0  0  0  0  0  0  0  0
   -0.7733   -2.0772    2.9705 C   0  0  0  0  0  0  0  0  0  0  0  0
    0.0027   -2.0381    4.1305 C   0  0  0  0  0  0  0  0  0  0  0  0
    0.5102   -3.2179    4.6680 C   0  0  0  0  0  0  0  0  0  0  0  0
    0.2445   -4.4360    4.0458 C   0  0  0  0  0  0  0  0  0  0  0  0
   -0.5075   -4.4677    2.8738 C   0  0  0  0  0  0  0  0  0  0  0  0
   -4.7359   -5.9286   -0.1548 C   0  0  0  0  0  0  0  0  0  0  0  0
   -5.7673   -6.7627   -0.5937 C   0  0  0  0  0  0  0  0  0  0  0  0
   -6.5105   -6.4064   -1.7125 C   0  0  0  0  0  0  0  0  0  0  0  0
   -6.2187   -5.2224   -2.3919 C   0  0  0  0  0  0  0  0  0  0  0  0
   -5.1786   -4.3920   -1.9551 C   0  0  0  0  0  0  0  0  0  0  0  0
   -0.7309   -5.7042    2.3251 O   0  0  0  0  0  0  0  0  0  0  0  0
   -4.9557   -3.2634   -2.6960 O   0  0  0  0  0  0  0  0  0  0  0  0
    2.1731   -0.3265    0.3900 H   0  0  0  0  0  0  0  0  0  0  0  0
    0.7778   -2.3131    0.4124 H   0  0  0  0  0  0  0  0  0  0  0  0
   -2.6357    0.0466   -0.8353 H   0  0  0  0  0  0  0  0  0  0  0  0
   -1.2346    2.0379   -0.8641 H   0  0  0  0  0  0  0  0  0  0  0  0
    0.1633    3.4138   -0.8889 H   0  0  0  0  0  0  0  0  0  0  0  0
   -1.1832   -1.1389    2.6042 H   0  0  0  0  0  0  0  0  0  0  0  0
    0.2049   -1.0862    4.6160 H   0  0  0  0  0  0  0  0  0  0  0  0
    1.1016   -3.1905    5.5789 H   0  0  0  0  0  0  0  0  0  0  0  0
    0.6156   -5.3621    4.4756 H   0  0  0  0  0  0  0  0  0  0  0  0
   -4.1769   -6.2275    0.7287 H   0  0  0  0  0  0  0  0  0  0  0  0
   -5.9828   -7.6867   -0.0614 H   0  0  0  0  0  0  0  0  0  0  0  0
   -7.3150   -7.0500   -2.0595 H   0  0  0  0  0  0  0  0  0  0  0  0
   -6.8026   -4.9458   -3.2668 H   0  0  0  0  0  0  0  0  0  0  0  0
   -1.4232   -5.6037    1.6387 H   0  0  0  0  0  0  0  0  0  0  0  0
   -4.2017   -2.7894   -2.2901 H   0  0  0  0  0  0  0  0  0  0  0  0
  1  2  2  0  0  0  0
  1 29  1  0  0  0  0
  2  3  1  0  0  0  0
  2 30  1  0  0  0  0
  3  4  2  0  0  0  0
  3  7  1  0  0  0  0
  4  5  1  0  0  0  0
  4 31  1  0  0  0  0
  5  6  2  0  0  0  0
  5 32  1  0  0  0  0
  6  1  1  0  0  0  0
  6 12  1  0  0  0  0
  7  8  1  0  0  0  0
  8  9  2  0  0  0  0
  8 16  1  0  0  0  0
  9 10  1  0  0  0  0
 10 11  2  0  0  0  0
 10 15  1  0  0  0  0
 11  7  1  0  0  0  0
 12 13  1  0  0  0  0
 12 14  2  0  0  0  0
 13 33  1  0  0  0  0
 15 22  2  0  0  0  0
 16 17  2  0  0  0  0
 17 18  1  0  0  0  0
 17 34  1  0  0  0  0
 18 19  2  0  0  0  0
 18 35  1  0  0  0  0
 19 20  1  0  0  0  0
 19 36  1  0  0  0  0
 20 21  2  0  0  0  0
 20 37  1  0  0  0  0
 21 16  1  0  0  0  0
 21 27  1  0  0  0  0
 22 23  1  0  0  0  0
 22 38  1  0  0  0  0
 23 24  2  0  0  0  0
 23 39  1  0  0  0  0
 24 25  1  0  0  0  0
 24 40  1  0  0  0  0
 25 26  2  0  0  0  0
 25 41  1  0  0  0  0
 26 15  1  0  0  0  0
 26 28  1  0  0  0  0
 27 42  1  0  0  0  0
 28 43  1  0  0  0  0
M  END
>  <Mol_ID>
405

>  <Formula>
C21H15N3O4

>  <MolWeight>
373.3615

>  <Cat>
S1712

>  <Name>
Deferasirox (ICL-670)

>  <Synonyms>
CGP-72670, ICL-670

>  <Target>
Ferroptosis,P450 (e.g. CYP17)

>  <Form>
free base

>  <CAS>
201530-41-8

>  <URL>
http://selleckchem.com/products/Deferasirox(Exjade).html

$$$$
