Exo1
 OpenBabel08302521243D

 32 33  0  0  0  0  0  0  0  0999 V2000
   -6.6993   -4.5320    1.3112 F   0  0  0  0  0  0  0  0  0  0  0  0
   -1.5307    2.4296   -3.1811 O   0  0  0  0  0  0  0  0  0  0  0  0
   -6.2252    1.6205    0.2825 O   0  0  0  0  0  0  0  0  0  0  0  0
   -2.1071    0.6113   -1.8944 O   0  0  0  0  0  0  0  0  0  0  0  0
   -4.0009    1.1532   -0.1012 N   0  0  0  0  0  0  0  0  0  0  0  0
   -3.5302    2.4877   -0.1870 C   0  0  0  0  0  0  0  0  0  0  0  0
   -2.5168    2.8326   -1.1037 C   0  0  0  0  0  0  0  0  0  0  0  0
   -5.6111   -0.6340    0.4479 C   0  0  0  0  0  0  0  0  0  0  0  0
   -4.0379    3.4769    0.6670 C   0  0  0  0  0  0  0  0  0  0  0  0
   -5.3021    0.8090    0.2090 C   0  0  0  0  0  0  0  0  0  0  0  0
   -2.0287    4.1488   -1.1385 C   0  0  0  0  0  0  0  0  0  0  0  0
   -3.5376    4.7798    0.6331 C   0  0  0  0  0  0  0  0  0  0  0  0
   -2.5303    5.1150   -0.2667 C   0  0  0  0  0  0  0  0  0  0  0  0
   -4.7130   -1.6869    0.2181 C   0  0  0  0  0  0  0  0  0  0  0  0
   -6.8831   -0.9306    0.9731 C   0  0  0  0  0  0  0  0  0  0  0  0
   -2.0188    1.8183   -2.0738 C   0  0  0  0  0  0  0  0  0  0  0  0
   -5.0875   -3.0058    0.5101 C   0  0  0  0  0  0  0  0  0  0  0  0
   -7.2518   -2.2433    1.2672 C   0  0  0  0  0  0  0  0  0  0  0  0
   -6.3496   -3.2706    1.0316 C   0  0  0  0  0  0  0  0  0  0  0  0
   -1.0967    1.5469   -4.2180 C   0  0  0  0  0  0  0  0  0  0  0  0
   -3.3976    0.4496   -0.5250 H   0  0  0  0  0  0  0  0  0  0  0  0
   -4.8128    3.2425    1.3951 H   0  0  0  0  0  0  0  0  0  0  0  0
   -1.2557    4.4378   -1.8479 H   0  0  0  0  0  0  0  0  0  0  0  0
   -3.9347    5.5291    1.3128 H   0  0  0  0  0  0  0  0  0  0  0  0
   -2.1436    6.1307   -0.2937 H   0  0  0  0  0  0  0  0  0  0  0  0
   -3.7189   -1.5225   -0.1885 H   0  0  0  0  0  0  0  0  0  0  0  0
   -7.5940   -0.1275    1.1652 H   0  0  0  0  0  0  0  0  0  0  0  0
   -4.4009   -3.8290    0.3342 H   0  0  0  0  0  0  0  0  0  0  0  0
   -8.2317   -2.4647    1.6775 H   0  0  0  0  0  0  0  0  0  0  0  0
   -0.5118    0.7122   -3.8195 H   0  0  0  0  0  0  0  0  0  0  0  0
   -1.9626    1.1805   -4.7775 H   0  0  0  0  0  0  0  0  0  0  0  0
   -0.4584    2.1175   -4.8982 H   0  0  0  0  0  0  0  0  0  0  0  0
  1 19  1  0  0  0  0
  2 16  1  0  0  0  0
  2 20  1  0  0  0  0
  3 10  2  0  0  0  0
  4 16  2  0  0  0  0
  5  6  1  0  0  0  0
  5 10  1  0  0  0  0
  5 21  1  0  0  0  0
  6  7  2  0  0  0  0
  6  9  1  0  0  0  0
  7 11  1  0  0  0  0
  7 16  1  0  0  0  0
  8 10  1  0  0  0  0
  8 14  2  0  0  0  0
  8 15  1  0  0  0  0
  9 12  2  0  0  0  0
  9 22  1  0  0  0  0
 11 13  2  0  0  0  0
 11 23  1  0  0  0  0
 12 13  1  0  0  0  0
 12 24  1  0  0  0  0
 13 25  1  0  0  0  0
 14 17  1  0  0  0  0
 14 26  1  0  0  0  0
 15 18  2  0  0  0  0
 15 27  1  0  0  0  0
 17 19  2  0  0  0  0
 17 28  1  0  0  0  0
 18 19  1  0  0  0  0
 18 29  1  0  0  0  0
 20 30  1  0  0  0  0
 20 31  1  0  0  0  0
 20 32  1  0  0  0  0
M  END
>  <Mol_ID>
4942

>  <Formula>
C15H12FNO3

>  <MolWeight>
273.2590832

>  <Cat>
S6800

>  <Name>
Exo1

>  <Synonyms>
2-(4-Fluorobenzoylamino)-benzoic acid methyl ester

>  <Target>
Others

>  <Form>
Free Base

>  <CAS>
75541-83-2

>  <URL>
http://www.selleckchem.com/products/exo1.html

$$$$
