(E£¬Z)-10-hydroxydec-2-enoic acid
 OpenBabel08302521373D

 31 30  0  0  0  0  0  0  0  0999 V2000
    1.0270    0.0170   -0.1694 C   0  0  0  0  0  0  0  0  0  0  0  0
    0.5220    0.0683    1.2774 C   0  0  0  0  0  0  0  0  0  0  0  0
    0.4723   -1.2249   -0.8776 C   0  0  0  0  0  0  0  0  0  0  0  0
    1.0543    1.2462    2.0970 C   0  0  0  0  0  0  0  0  0  0  0  0
    0.9115   -1.3385   -2.3094 C   0  0  0  0  0  0  0  0  0  0  0  0
    0.6980    2.6433    1.5798 C   0  0  0  0  0  0  0  0  0  0  0  0
    1.6074   -2.3802   -2.7948 C   0  0  0  0  0  0  0  0  0  0  0  0
   -0.8052    2.9138    1.5147 C   0  0  0  0  0  0  0  0  0  0  0  0
    1.9213   -2.4591   -4.2379 C   0  0  0  0  0  0  0  0  0  0  0  0
   -1.0937    4.3472    1.0824 C   0  0  0  0  0  0  0  0  0  0  0  0
    2.6408   -3.5581   -4.5389 O   0  0  0  0  0  0  0  0  0  0  0  0
    1.5635   -1.6449   -5.0708 O   0  0  0  0  0  0  0  0  0  0  0  0
   -2.4976    4.5613    1.0274 O   0  0  0  0  0  0  0  0  0  0  0  0
    2.1237   -0.0061   -0.1776 H   0  0  0  0  0  0  0  0  0  0  0  0
    0.7160    0.9172   -0.7115 H   0  0  0  0  0  0  0  0  0  0  0  0
   -0.5738    0.0735    1.2875 H   0  0  0  0  0  0  0  0  0  0  0  0
    0.8268   -0.8552    1.7873 H   0  0  0  0  0  0  0  0  0  0  0  0
    0.7612   -2.1231   -0.3180 H   0  0  0  0  0  0  0  0  0  0  0  0
   -0.6241   -1.1876   -0.8666 H   0  0  0  0  0  0  0  0  0  0  0  0
    0.6787    1.1464    3.1235 H   0  0  0  0  0  0  0  0  0  0  0  0
    2.1466    1.1702    2.1618 H   0  0  0  0  0  0  0  0  0  0  0  0
    0.5918   -0.5428   -2.9824 H   0  0  0  0  0  0  0  0  0  0  0  0
    1.1580    3.3782    2.2550 H   0  0  0  0  0  0  0  0  0  0  0  0
    1.1487    2.8062    0.5959 H   0  0  0  0  0  0  0  0  0  0  0  0
    1.9225   -3.1860   -2.1468 H   0  0  0  0  0  0  0  0  0  0  0  0
   -1.2927    2.2261    0.8145 H   0  0  0  0  0  0  0  0  0  0  0  0
   -1.2693    2.7311    2.4919 H   0  0  0  0  0  0  0  0  0  0  0  0
   -0.6723    5.0621    1.7960 H   0  0  0  0  0  0  0  0  0  0  0  0
   -0.6711    4.5590    0.0950 H   0  0  0  0  0  0  0  0  0  0  0  0
    2.8679   -4.1322   -3.7864 H   0  0  0  0  0  0  0  0  0  0  0  0
   -2.8551    3.9797    0.3349 H   0  0  0  0  0  0  0  0  0  0  0  0
  1  2  1  0  0  0  0
  1  3  1  0  0  0  0
  1 14  1  0  0  0  0
  1 15  1  0  0  0  0
  2  4  1  0  0  0  0
  2 16  1  0  0  0  0
  2 17  1  0  0  0  0
  3  5  1  0  0  0  0
  3 18  1  0  0  0  0
  3 19  1  0  0  0  0
  4  6  1  0  0  0  0
  4 20  1  0  0  0  0
  4 21  1  0  0  0  0
  5  7  2  3  0  0  0
  5 22  1  0  0  0  0
  6  8  1  0  0  0  0
  6 23  1  0  0  0  0
  6 24  1  0  0  0  0
  7  9  1  0  0  0  0
  7 25  1  0  0  0  0
  8 10  1  0  0  0  0
  8 26  1  0  0  0  0
  8 27  1  0  0  0  0
  9 11  1  0  0  0  0
  9 12  2  0  0  0  0
 10 13  1  0  0  0  0
 10 28  1  0  0  0  0
 10 29  1  0  0  0  0
 11 30  1  0  0  0  0
 13 31  1  0  0  0  0
M  END
>  <Mol_ID>
7377

>  <Formula>
C10H18O3

>  <MolWeight>
186.24812

>  <Cat>
E4433

>  <Name>
(E£¬Z)-10-hydroxydec-2-enoic acid

>  <Synonyms>
Queen Bee Acid; (E)-10-Hydroxy-2-decenoic acid

>  <Target>
Others

>  <Form>
Free base

>  <CAS>
765-01-5

>  <URL>
https://www.selleckchem.com/products/royal-jelly-acid.html

$$$$
