EZETIMIBE (ezetimibe).cdx
 OpenBabel08302520403D

 51 54  0  0  0  0  0  0  0  0999 V2000
    0.4155    0.9753    6.3569 C   0  0  0  0  0  0  0  0  0  0  0  0
    1.7498    0.6038    6.4630 C   0  0  0  0  0  0  0  0  0  0  0  0
    2.3924   -0.0422    5.4157 C   0  0  0  0  0  0  0  0  0  0  0  0
    1.6942   -0.3058    4.2338 C   0  0  0  0  0  0  0  0  0  0  0  0
    0.3506    0.0868    4.0865 C   0  0  0  0  0  0  0  0  0  0  0  0
   -0.2830    0.7173    5.1739 C   0  0  0  0  0  0  0  0  0  0  0  0
    2.4266    0.8816    7.5854 F   0  0  0  0  0  0  0  0  0  0  0  0
   -0.3516   -0.1095    2.7492 C   0  0  2  0  0  0  0  0  0  0  0  0
   -0.7954    1.2357    2.1515 C   0  0  0  0  0  0  0  0  0  0  0  0
   -1.3692    1.1290    0.7273 C   0  0  0  0  0  0  0  0  0  0  0  0
   -1.7960    2.5118    0.2175 C   0  0  1  0  0  0  0  0  0  0  0  0
   -0.6599    3.5440    0.0820 C   0  0  0  0  0  0  0  0  0  0  0  0
   -0.9687    3.7873   -1.2167 N   0  0  0  0  0  0  0  0  0  0  0  0
   -1.9729    2.7138   -1.3332 C   0  0  2  0  0  0  0  0  0  0  0  0
   -1.4814   -0.9656    2.8803 O   0  0  0  0  0  0  0  0  0  0  0  0
    0.1976    3.9726    0.8204 O   0  0  0  0  0  0  0  0  0  0  0  0
   -0.1919    4.3788   -2.2193 C   0  0  0  0  0  0  0  0  0  0  0  0
    1.1388    4.7427   -1.9656 C   0  0  0  0  0  0  0  0  0  0  0  0
    1.9318    5.3001   -2.9695 C   0  0  0  0  0  0  0  0  0  0  0  0
    1.3849    5.5277   -4.2225 C   0  0  0  0  0  0  0  0  0  0  0  0
    0.0614    5.2017   -4.4908 C   0  0  0  0  0  0  0  0  0  0  0  0
   -0.7250    4.6151   -3.4927 C   0  0  0  0  0  0  0  0  0  0  0  0
    2.1435    6.0674   -5.1852 F   0  0  0  0  0  0  0  0  0  0  0  0
   -3.4182    3.0876   -1.8920 C   0  0  0  0  0  0  0  0  0  0  0  0
   -4.1382    2.1811   -2.7032 C   0  0  0  0  0  0  0  0  0  0  0  0
   -5.3849    2.4953   -3.2535 C   0  0  0  0  0  0  0  0  0  0  0  0
   -5.9529    3.7330   -2.9957 C   0  0  0  0  0  0  0  0  0  0  0  0
   -5.2943    4.6527   -2.1940 C   0  0  0  0  0  0  0  0  0  0  0  0
   -4.0416    4.3300   -1.6517 C   0  0  0  0  0  0  0  0  0  0  0  0
   -7.1596    4.0878   -3.5208 O   0  0  0  0  0  0  0  0  0  0  0  0
   -0.0670    1.4802    7.1875 H   0  0  0  0  0  0  0  0  0  0  0  0
    3.4365   -0.3217    5.5189 H   0  0  0  0  0  0  0  0  0  0  0  0
    2.2163   -0.8014    3.4174 H   0  0  0  0  0  0  0  0  0  0  0  0
   -1.3188    1.0388    5.1039 H   0  0  0  0  0  0  0  0  0  0  0  0
    0.3343   -0.6001    2.0482 H   0  0  0  0  0  0  0  0  0  0  0  0
   -1.5562    1.7009    2.7904 H   0  0  0  0  0  0  0  0  0  0  0  0
    0.0709    1.9060    2.1501 H   0  0  0  0  0  0  0  0  0  0  0  0
   -0.6166    0.6883    0.0628 H   0  0  0  0  0  0  0  0  0  0  0  0
   -2.2383    0.4613    0.7232 H   0  0  0  0  0  0  0  0  0  0  0  0
   -2.6276    2.9123    0.8137 H   0  0  0  0  0  0  0  0  0  0  0  0
   -1.5410    1.8802   -1.9096 H   0  0  0  0  0  0  0  0  0  0  0  0
   -1.9605   -0.7091    3.6843 H   0  0  0  0  0  0  0  0  0  0  0  0
    1.5970    4.5684   -0.9951 H   0  0  0  0  0  0  0  0  0  0  0  0
    2.9692    5.5509   -2.7747 H   0  0  0  0  0  0  0  0  0  0  0  0
   -0.3510    5.4094   -5.4731 H   0  0  0  0  0  0  0  0  0  0  0  0
   -1.7619    4.3881   -3.7221 H   0  0  0  0  0  0  0  0  0  0  0  0
   -3.7043    1.2063   -2.9228 H   0  0  0  0  0  0  0  0  0  0  0  0
   -5.8897    1.7631   -3.8801 H   0  0  0  0  0  0  0  0  0  0  0  0
   -5.7398    5.6210   -1.9988 H   0  0  0  0  0  0  0  0  0  0  0  0
   -3.5349    5.0784   -1.0448 H   0  0  0  0  0  0  0  0  0  0  0  0
   -7.4815    3.3650   -4.0817 H   0  0  0  0  0  0  0  0  0  0  0  0
  1  2  2  0  0  0  0
  1 31  1  0  0  0  0
  2  3  1  0  0  0  0
  2  7  1  0  0  0  0
  3  4  2  0  0  0  0
  3 32  1  0  0  0  0
  4  5  1  0  0  0  0
  4 33  1  0  0  0  0
  5  6  2  0  0  0  0
  6  1  1  0  0  0  0
  6 34  1  0  0  0  0
  8 15  1  0  0  0  0
  8 35  1  6  0  0  0
  8  9  1  0  0  0  0
  8  5  1  0  0  0  0
  9 10  1  0  0  0  0
  9 36  1  0  0  0  0
  9 37  1  0  0  0  0
 10 38  1  0  0  0  0
 10 39  1  0  0  0  0
 11 12  1  0  0  0  0
 11 10  1  0  0  0  0
 11 40  1  1  0  0  0
 12 13  1  0  0  0  0
 12 16  2  0  0  0  0
 13 14  1  0  0  0  0
 13 17  1  0  0  0  0
 14 11  1  0  0  0  0
 14 41  1  6  0  0  0
 14 24  1  0  0  0  0
 15 42  1  0  0  0  0
 17 18  2  0  0  0  0
 18 19  1  0  0  0  0
 18 43  1  0  0  0  0
 19 20  2  0  0  0  0
 19 44  1  0  0  0  0
 20 21  1  0  0  0  0
 20 23  1  0  0  0  0
 21 22  2  0  0  0  0
 21 45  1  0  0  0  0
 22 17  1  0  0  0  0
 22 46  1  0  0  0  0
 24 25  2  0  0  0  0
 25 26  1  0  0  0  0
 25 47  1  0  0  0  0
 26 27  2  0  0  0  0
 26 48  1  0  0  0  0
 27 28  1  0  0  0  0
 27 30  1  0  0  0  0
 28 29  2  0  0  0  0
 28 49  1  0  0  0  0
 29 24  1  0  0  0  0
 29 50  1  0  0  0  0
 30 51  1  0  0  0  0
M  END
>  <Mol_ID>
378

>  <Formula>
C24H21F2NO3

>  <MolWeight>
409.4252464

>  <Cat>
S1655

>  <Name>
Ezetimibe (SCH-58235)

>  <Synonyms>
SCH-58235

>  <Target>
LDL

>  <Form>
free base

>  <CAS>
163222-33-1

>  <URL>
http://selleckchem.com/products/Ezetimibe(Zetia).html

$$$$
