EZM0414
 OpenBabel08302521353D

 58 61  0  0  0  0  0  0  0  0999 V2000
   -2.3708    4.5478   -7.8219 F   0  0  0  0  0  0  0  0  0  0  0  0
   -2.4018    5.8705   -7.5989 C   0  0  0  0  0  0  0  0  0  0  0  0
   -1.7110    6.4263   -6.5067 C   0  0  0  0  0  0  0  0  0  0  0  0
   -3.1722    6.6638   -8.4479 C   0  0  0  0  0  0  0  0  0  0  0  0
   -1.7584    7.8100   -6.3024 C   0  0  0  0  0  0  0  0  0  0  0  0
   -0.9430    5.8473   -5.4464 C   0  0  0  0  0  0  0  0  0  0  0  0
   -3.2420    8.0399   -8.2242 C   0  0  0  0  0  0  0  0  0  0  0  0
   -0.9411    8.0371   -5.1872 N   0  0  0  0  0  0  0  0  0  0  0  0
   -2.5297    8.6564   -7.1556 C   0  0  0  0  0  0  0  0  0  0  0  0
   -0.5418    6.8368   -4.5539 C   0  0  0  0  0  0  0  0  0  0  0  0
   -2.6949   10.1593   -7.0550 C   0  0  0  0  0  0  0  0  0  0  0  0
    0.1775    6.7394   -3.2459 C   0  0  0  0  0  0  0  0  0  0  0  0
    0.3035    5.4607   -2.6416 N   0  0  0  0  0  0  0  0  0  0  0  0
    0.5969    7.7449   -2.6862 O   0  0  0  0  0  0  0  0  0  0  0  0
    1.0603    5.1459   -1.3716 C   0  0  1  0  0  0  0  0  0  0  0  0
    0.5476    5.6962   -0.0283 C   0  0  0  0  0  0  0  0  0  0  0  0
    1.3643    3.6465   -1.1152 C   0  0  0  0  0  0  0  0  0  0  0  0
   -0.6602    4.9927    0.6469 C   0  0  2  0  0  0  0  0  0  0  0  0
    0.2808    2.8240   -0.3969 C   0  0  0  0  0  0  0  0  0  0  0  0
   -0.3640    3.4940    0.8224 C   0  0  0  0  0  0  0  0  0  0  0  0
   -2.0084    5.1877    0.0522 N   0  0  0  0  0  0  0  0  0  0  0  0
   -2.1937    6.4925   -0.6047 C   0  0  0  0  0  0  0  0  0  0  0  0
   -3.0674    5.1692    1.1014 C   0  0  0  0  0  0  0  0  0  0  0  0
   -1.9951    7.7255    0.2881 C   0  0  0  0  0  0  0  0  0  0  0  0
   -2.9571    6.3027    2.1517 C   0  0  0  0  0  0  0  0  0  0  0  0
   -2.2396    7.5140    1.7175 N   0  0  0  0  0  0  0  0  0  0  0  0
   -1.8201    8.3998    2.6990 C   0  0  0  0  0  0  0  0  0  0  0  0
   -1.0527    9.6345    2.2796 C   0  0  0  0  0  0  0  0  0  0  0  0
   -2.0217    8.1904    3.8974 O   0  0  0  0  0  0  0  0  0  0  0  0
   -3.7198    6.2109   -9.2576 H   0  0  0  0  0  0  0  0  0  0  0  0
   -0.7568    4.7955   -5.3375 H   0  0  0  0  0  0  0  0  0  0  0  0
   -3.8700    8.6271   -8.8855 H   0  0  0  0  0  0  0  0  0  0  0  0
   -0.7009    8.9541   -4.8411 H   0  0  0  0  0  0  0  0  0  0  0  0
   -2.8634   10.4601   -6.0219 H   0  0  0  0  0  0  0  0  0  0  0  0
   -1.8172   10.6670   -7.4649 H   0  0  0  0  0  0  0  0  0  0  0  0
   -3.5675   10.5002   -7.6308 H   0  0  0  0  0  0  0  0  0  0  0  0
   -0.0033    4.6712   -3.1841 H   0  0  0  0  0  0  0  0  0  0  0  0
    2.0313    5.6319   -1.5356 H   0  0  0  0  0  0  0  0  0  0  0  0
    1.3734    5.5617    0.6943 H   0  0  0  0  0  0  0  0  0  0  0  0
    0.4428    6.7752   -0.0742 H   0  0  0  0  0  0  0  0  0  0  0  0
    1.6686    3.1382   -2.0318 H   0  0  0  0  0  0  0  0  0  0  0  0
    2.2445    3.6146   -0.4490 H   0  0  0  0  0  0  0  0  0  0  0  0
   -0.6687    5.3912    1.6698 H   0  0  0  0  0  0  0  0  0  0  0  0
    0.7374    1.8867   -0.0454 H   0  0  0  0  0  0  0  0  0  0  0  0
   -0.4996    2.5355   -1.1079 H   0  0  0  0  0  0  0  0  0  0  0  0
    0.3104    3.3719    1.6842 H   0  0  0  0  0  0  0  0  0  0  0  0
   -1.2582    2.9281    1.1035 H   0  0  0  0  0  0  0  0  0  0  0  0
   -1.5708    6.5702   -1.4882 H   0  0  0  0  0  0  0  0  0  0  0  0
   -3.2098    6.5261   -1.0217 H   0  0  0  0  0  0  0  0  0  0  0  0
   -4.0424    5.2680    0.6009 H   0  0  0  0  0  0  0  0  0  0  0  0
   -3.1238    4.1953    1.6016 H   0  0  0  0  0  0  0  0  0  0  0  0
   -0.9721    8.0924    0.1770 H   0  0  0  0  0  0  0  0  0  0  0  0
   -2.6472    8.5352   -0.0517 H   0  0  0  0  0  0  0  0  0  0  0  0
   -2.4414    5.9074    3.0362 H   0  0  0  0  0  0  0  0  0  0  0  0
   -3.9559    6.6124    2.4796 H   0  0  0  0  0  0  0  0  0  0  0  0
   -1.4204   10.4844    2.8717 H   0  0  0  0  0  0  0  0  0  0  0  0
    0.0061    9.4861    2.4817 H   0  0  0  0  0  0  0  0  0  0  0  0
   -1.1893    9.9065    1.2330 H   0  0  0  0  0  0  0  0  0  0  0  0
  1  2  1  0  0  0  0
  2  3  2  0  0  0  0
  2  4  1  0  0  0  0
  3  5  1  0  0  0  0
  3  6  1  0  0  0  0
  4  7  2  0  0  0  0
  4 30  1  0  0  0  0
  5  8  1  0  0  0  0
  5  9  2  0  0  0  0
  6 10  2  0  0  0  0
  6 31  1  0  0  0  0
  7  9  1  0  0  0  0
  7 32  1  0  0  0  0
  8 10  1  0  0  0  0
  8 33  1  0  0  0  0
  9 11  1  0  0  0  0
 10 12  1  0  0  0  0
 11 34  1  0  0  0  0
 11 35  1  0  0  0  0
 11 36  1  0  0  0  0
 12 13  1  0  0  0  0
 12 14  2  0  0  0  0
 13 37  1  0  0  0  0
 15 16  1  0  0  0  0
 15 17  1  0  0  0  0
 15 38  1  6  0  0  0
 15 13  1  0  0  0  0
 16 39  1  0  0  0  0
 16 40  1  0  0  0  0
 17 19  1  0  0  0  0
 17 41  1  0  0  0  0
 17 42  1  0  0  0  0
 18 16  1  0  0  0  0
 18 20  1  0  0  0  0
 18 43  1  1  0  0  0
 18 21  1  0  0  0  0
 19 20  1  0  0  0  0
 19 44  1  0  0  0  0
 19 45  1  0  0  0  0
 20 46  1  0  0  0  0
 20 47  1  0  0  0  0
 21 22  1  0  0  0  0
 21 23  1  0  0  0  0
 22 24  1  0  0  0  0
 22 48  1  0  0  0  0
 22 49  1  0  0  0  0
 23 25  1  0  0  0  0
 23 50  1  0  0  0  0
 23 51  1  0  0  0  0
 24 26  1  0  0  0  0
 24 52  1  0  0  0  0
 24 53  1  0  0  0  0
 25 26  1  0  0  0  0
 25 54  1  0  0  0  0
 25 55  1  0  0  0  0
 26 27  1  0  0  0  0
 27 28  1  0  0  0  0
 27 29  2  0  0  0  0
 28 56  1  0  0  0  0
 28 57  1  0  0  0  0
 28 58  1  0  0  0  0
M  END
>  <Mol_ID>
6832

>  <Formula>
C22H29FN4O2

>  <MolWeight>
400.4896632

>  <Cat>
E1179

>  <Name>
EZM0414

>  <Target>
SETD

>  <Form>
Free base

>  <CAS>
2411748-50-8

>  <URL>
http://www.selleckchem.com/products/ezm0414.html

$$$$
