Fabomotizole?hydrochloride
 OpenBabel08302521233D

 42 44  0  0  0  0  0  0  0  0999 V2000
    1.0929   -0.0013    0.9796 S   0  0  0  0  0  0  0  0  0  0  0  0
    2.8132   -6.0190    0.0501 O   0  0  0  0  0  0  0  0  0  0  0  0
    7.9971   -1.3323    3.4388 O   0  0  0  0  0  0  0  0  0  0  0  0
    0.6087   -4.0824    0.3268 N   0  0  0  0  0  0  0  0  0  0  0  0
    3.6807   -0.9032    1.2188 N   0  0  0  0  0  0  0  0  0  0  0  0
    3.1712    0.9545    2.3186 N   0  0  0  0  0  0  0  0  0  0  0  0
    0.8083   -5.2456    1.2263 C   0  0  0  0  0  0  0  0  0  0  0  0
    1.2556   -4.4089   -0.9647 C   0  0  0  0  0  0  0  0  0  0  0  0
    1.1180   -2.8381    0.9539 C   0  0  0  0  0  0  0  0  0  0  0  0
    2.2769   -5.6941    1.3384 C   0  0  0  0  0  0  0  0  0  0  0  0
    2.7078   -4.9027   -0.8432 C   0  0  0  0  0  0  0  0  0  0  0  0
    0.8749   -1.5799    0.0998 C   0  0  0  0  0  0  0  0  0  0  0  0
    2.7426   -0.0235    1.4721 C   0  0  0  0  0  0  0  0  0  0  0  0
    4.7231   -0.5510    2.0557 C   0  0  0  0  0  0  0  0  0  0  0  0
    4.4031    0.5880    2.7885 C   0  0  0  0  0  0  0  0  0  0  0  0
    5.9654   -1.1706    2.2765 C   0  0  0  0  0  0  0  0  0  0  0  0
    5.2234    1.1257    3.7778 C   0  0  0  0  0  0  0  0  0  0  0  0
    6.8168   -0.6499    3.2643 C   0  0  0  0  0  0  0  0  0  0  0  0
    6.4305    0.4578    4.0203 C   0  0  0  0  0  0  0  0  0  0  0  0
    9.0446   -0.6119    4.0922 C   0  0  0  0  0  0  0  0  0  0  0  0
   10.3102   -1.4495    4.0680 C   0  0  0  0  0  0  0  0  0  0  0  0
    2.6192    1.7426    2.6200 H   0  0  0  0  0  0  0  0  0  0  0  0
    0.2250   -6.0812    0.8155 H   0  0  0  0  0  0  0  0  0  0  0  0
    0.3913   -5.0424    2.2190 H   0  0  0  0  0  0  0  0  0  0  0  0
    0.6623   -5.2117   -1.4238 H   0  0  0  0  0  0  0  0  0  0  0  0
    1.1964   -3.5707   -1.6659 H   0  0  0  0  0  0  0  0  0  0  0  0
    2.1822   -2.9282    1.1864 H   0  0  0  0  0  0  0  0  0  0  0  0
    0.5915   -2.7134    1.9093 H   0  0  0  0  0  0  0  0  0  0  0  0
    2.9046   -4.9296    1.8105 H   0  0  0  0  0  0  0  0  0  0  0  0
    2.3413   -6.5927    1.9591 H   0  0  0  0  0  0  0  0  0  0  0  0
    3.0586   -5.2403   -1.8240 H   0  0  0  0  0  0  0  0  0  0  0  0
    3.3798   -4.1044   -0.5089 H   0  0  0  0  0  0  0  0  0  0  0  0
   -0.1624   -1.5826   -0.2483 H   0  0  0  0  0  0  0  0  0  0  0  0
    1.5201   -1.5687   -0.7821 H   0  0  0  0  0  0  0  0  0  0  0  0
    6.2465   -2.0464    1.7029 H   0  0  0  0  0  0  0  0  0  0  0  0
    4.9297    1.9868    4.3660 H   0  0  0  0  0  0  0  0  0  0  0  0
    7.0434    0.8292    4.8364 H   0  0  0  0  0  0  0  0  0  0  0  0
    9.2311    0.3343    3.5699 H   0  0  0  0  0  0  0  0  0  0  0  0
    8.7835   -0.4181    5.1379 H   0  0  0  0  0  0  0  0  0  0  0  0
   10.5953   -1.6975    3.0414 H   0  0  0  0  0  0  0  0  0  0  0  0
   11.1354   -0.9108    4.5449 H   0  0  0  0  0  0  0  0  0  0  0  0
   10.1565   -2.3945    4.5991 H   0  0  0  0  0  0  0  0  0  0  0  0
  1 12  1  0  0  0  0
  1 13  1  0  0  0  0
  2 10  1  0  0  0  0
  2 11  1  0  0  0  0
  3 18  1  0  0  0  0
  3 20  1  0  0  0  0
  4  7  1  0  0  0  0
  4  8  1  0  0  0  0
  4  9  1  0  0  0  0
  5 13  2  0  0  0  0
  5 14  1  0  0  0  0
  6 15  1  0  0  0  0
  6 22  1  0  0  0  0
  7 10  1  0  0  0  0
  7 23  1  0  0  0  0
  7 24  1  0  0  0  0
  8 11  1  0  0  0  0
  8 25  1  0  0  0  0
  8 26  1  0  0  0  0
  9 12  1  0  0  0  0
  9 27  1  0  0  0  0
  9 28  1  0  0  0  0
 10 29  1  0  0  0  0
 10 30  1  0  0  0  0
 11 31  1  0  0  0  0
 11 32  1  0  0  0  0
 12 33  1  0  0  0  0
 12 34  1  0  0  0  0
 13  6  1  0  0  0  0
 14 15  2  0  0  0  0
 14 16  1  0  0  0  0
 15 17  1  0  0  0  0
 16 18  2  0  0  0  0
 16 35  1  0  0  0  0
 17 19  2  0  0  0  0
 17 36  1  0  0  0  0
 18 19  1  0  0  0  0
 19 37  1  0  0  0  0
 20 21  1  0  0  0  0
 20 38  1  0  0  0  0
 20 39  1  0  0  0  0
 21 40  1  0  0  0  0
 21 41  1  0  0  0  0
 21 42  1  0  0  0  0
M  END
>  <Mol_ID>
4882

>  <Formula>
C15H22ClN3O2S

>  <MolWeight>
343.87208

>  <Cat>
S2474

>  <Name>
Fabomotizole?hydrochloride

>  <Synonyms>
Fabomotizole, CM346 hydrochloride, CM346, Afobazol, Afobazole, Afobazole hydrochloride

>  <Target>
Others

>  <Form>
hydrochloride

>  <CAS>
173352-39-1

>  <URL>
https://www.selleckchem.com/products/fabomotizole-hydrochloride.html

$$$$
