Falnidamol
 OpenBabel08302521353D

 46 49  0  0  0  0  0  0  0  0999 V2000
    2.5132   -0.2844    0.3758 C   0  0  0  0  0  0  0  0  0  0  0  0
    1.4280   -1.0253    0.4630 N   0  0  0  0  0  0  0  0  0  0  0  0
    0.2328   -0.3993    0.3474 C   0  0  0  0  0  0  0  0  0  0  0  0
    0.0812    0.9882    0.2349 C   0  0  0  0  0  0  0  0  0  0  0  0
    1.2945    1.6490    0.1958 C   0  0  0  0  0  0  0  0  0  0  0  0
    2.5028    1.0667    0.2159 N   0  0  0  0  0  0  0  0  0  0  0  0
   -2.1860    0.8293    0.0730 C   0  0  0  0  0  0  0  0  0  0  0  0
   -1.1079    1.6228    0.1141 N   0  0  0  0  0  0  0  0  0  0  0  0
   -0.9663   -1.0993    0.2328 C   0  0  0  0  0  0  0  0  0  0  0  0
   -2.1711   -0.5015    0.1243 N   0  0  0  0  0  0  0  0  0  0  0  0
    3.7447   -0.8530    0.2833 N   0  0  0  0  0  0  0  0  0  0  0  0
   -0.8946   -2.5243    0.2102 N   0  0  0  0  0  0  0  0  0  0  0  0
    5.7830   -1.7050    3.1731 N   0  0  0  0  0  0  0  0  0  0  0  0
    4.5294   -2.4874    3.2815 C   0  0  0  0  0  0  0  0  0  0  0  0
    3.8004   -2.9117    1.9535 C   0  0  0  0  0  0  0  0  0  0  0  0
    4.1974   -2.2235    0.6428 C   0  0  0  0  0  0  0  0  0  0  0  0
    5.7057   -2.0809    0.8087 C   0  0  0  0  0  0  0  0  0  0  0  0
    5.8893   -1.0127    1.9011 C   0  0  0  0  0  0  0  0  0  0  0  0
    5.9568   -0.7642    4.2806 C   0  0  0  0  0  0  0  0  0  0  0  0
   -1.8771   -3.5324    0.3319 C   0  0  0  0  0  0  0  0  0  0  0  0
   -3.1788   -3.2898    0.7889 C   0  0  0  0  0  0  0  0  0  0  0  0
   -4.0240   -4.3418    1.1647 C   0  0  0  0  0  0  0  0  0  0  0  0
   -3.5758   -5.6502    1.0725 C   0  0  0  0  0  0  0  0  0  0  0  0
   -2.3205   -5.9294    0.5556 C   0  0  0  0  0  0  0  0  0  0  0  0
   -1.4789   -4.8746    0.1835 C   0  0  0  0  0  0  0  0  0  0  0  0
   -4.3433   -6.6495    1.5287 F   0  0  0  0  0  0  0  0  0  0  0  0
    1.2930    2.7343    0.0944 H   0  0  0  0  0  0  0  0  0  0  0  0
   -3.1550    1.3055   -0.0265 H   0  0  0  0  0  0  0  0  0  0  0  0
    4.3817   -0.1908   -0.1652 H   0  0  0  0  0  0  0  0  0  0  0  0
   -0.0594   -2.8136   -0.2927 H   0  0  0  0  0  0  0  0  0  0  0  0
    4.8162   -3.4164    3.7952 H   0  0  0  0  0  0  0  0  0  0  0  0
    3.7985   -2.0062    3.9385 H   0  0  0  0  0  0  0  0  0  0  0  0
    4.1080   -3.9544    1.8105 H   0  0  0  0  0  0  0  0  0  0  0  0
    2.7119   -2.9836    2.1052 H   0  0  0  0  0  0  0  0  0  0  0  0
    3.9595   -2.8864   -0.1978 H   0  0  0  0  0  0  0  0  0  0  0  0
    6.1481   -3.0411    1.1357 H   0  0  0  0  0  0  0  0  0  0  0  0
    6.2148   -1.8343   -0.1335 H   0  0  0  0  0  0  0  0  0  0  0  0
    5.1105   -0.2320    1.9051 H   0  0  0  0  0  0  0  0  0  0  0  0
    6.8262   -0.4838    1.7547 H   0  0  0  0  0  0  0  0  0  0  0  0
    6.6593    0.0377    4.0165 H   0  0  0  0  0  0  0  0  0  0  0  0
    5.0205   -0.2786    4.5781 H   0  0  0  0  0  0  0  0  0  0  0  0
    6.3846   -1.2781    5.1457 H   0  0  0  0  0  0  0  0  0  0  0  0
   -3.5491   -2.2770    0.9150 H   0  0  0  0  0  0  0  0  0  0  0  0
   -5.0070   -4.1393    1.5789 H   0  0  0  0  0  0  0  0  0  0  0  0
   -1.9827   -6.9593    0.4963 H   0  0  0  0  0  0  0  0  0  0  0  0
   -0.4810   -5.1151   -0.1744 H   0  0  0  0  0  0  0  0  0  0  0  0
  1  2  2  0  0  0  0
  1  6  1  0  0  0  0
  1 11  1  0  0  0  0
  2  3  1  0  0  0  0
  3  4  2  0  0  0  0
  4  5  1  0  0  0  0
  5  6  2  0  0  0  0
  5 27  1  0  0  0  0
  7  8  2  0  0  0  0
  7 10  1  0  0  0  0
  7 28  1  0  0  0  0
  8  4  1  0  0  0  0
  9 10  2  0  0  0  0
  9  3  1  0  0  0  0
  9 12  1  0  0  0  0
 11 16  1  0  0  0  0
 11 29  1  0  0  0  0
 12 20  1  0  0  0  0
 12 30  1  0  0  0  0
 13 14  1  0  0  0  0
 13 18  1  0  0  0  0
 13 19  1  0  0  0  0
 14 15  1  0  0  0  0
 14 31  1  0  0  0  0
 14 32  1  0  0  0  0
 15 16  1  0  0  0  0
 15 33  1  0  0  0  0
 15 34  1  0  0  0  0
 16 17  1  0  0  0  0
 16 35  1  0  0  0  0
 17 18  1  0  0  0  0
 17 36  1  0  0  0  0
 17 37  1  0  0  0  0
 18 38  1  0  0  0  0
 18 39  1  0  0  0  0
 19 40  1  0  0  0  0
 19 41  1  0  0  0  0
 19 42  1  0  0  0  0
 20 21  2  0  0  0  0
 20 25  1  0  0  0  0
 21 22  1  0  0  0  0
 21 43  1  0  0  0  0
 22 23  2  0  0  0  0
 22 44  1  0  0  0  0
 23 24  1  0  0  0  0
 23 26  1  0  0  0  0
 24 25  2  0  0  0  0
 24 45  1  0  0  0  0
 25 46  1  0  0  0  0
M  END
>  <Mol_ID>
6852

>  <Formula>
C18H19ClFN7

>  <MolWeight>
387.8417632

>  <Cat>
E2399

>  <Name>
Falnidamol

>  <Synonyms>
BIBX1382

>  <Target>
EGFR,p38 MAPK

>  <Form>
Free base

>  <CAS>
196612-93-8

>  <URL>
http://www.selleckchem.com/products/falnidamol.html

$$$$
