Famciclovir.cdx
 OpenBabel08302521383D

 42 43  0  0  0  0  0  0  0  0999 V2000
    5.7441   -0.4233   -3.1367 N   0  0  0  0  0  0  0  0  0  0  0  0
    4.5588   -0.9817   -3.4422 C   0  0  0  0  0  0  0  0  0  0  0  0
    3.6150   -1.3930   -2.5782 N   0  0  0  0  0  0  0  0  0  0  0  0
    3.9932   -1.2238   -1.2990 C   0  0  0  0  0  0  0  0  0  0  0  0
    5.1854   -0.6827   -0.8478 C   0  0  0  0  0  0  0  0  0  0  0  0
    6.0773   -0.2734   -1.8290 C   0  0  0  0  0  0  0  0  0  0  0  0
    3.2866   -1.5166   -0.1583 N   0  0  0  0  0  0  0  0  0  0  0  0
    4.0633   -1.1417    0.9048 C   0  0  0  0  0  0  0  0  0  0  0  0
    5.2232   -0.6476    0.5231 N   0  0  0  0  0  0  0  0  0  0  0  0
    4.2659   -1.0802   -4.7886 N   0  0  0  0  0  0  0  0  0  0  0  0
    1.9296   -2.0344   -0.1306 C   0  0  0  0  0  0  0  0  0  0  0  0
    1.5628   -2.8944    1.0884 C   0  0  0  0  0  0  0  0  0  0  0  0
    0.0776   -3.3383    1.1609 C   0  0  0  0  0  0  0  0  0  0  0  0
   -0.3617   -4.2358   -0.0115 C   0  0  0  0  0  0  0  0  0  0  0  0
   -0.1689   -4.0674    2.4966 C   0  0  0  0  0  0  0  0  0  0  0  0
   -1.5127   -4.5674    2.6038 O   0  0  0  0  0  0  0  0  0  0  0  0
   -0.2934   -3.5498   -1.2702 O   0  0  0  0  0  0  0  0  0  0  0  0
   -1.3095   -2.6866   -1.5418 C   0  0  0  0  0  0  0  0  0  0  0  0
   -2.2890   -2.4999   -0.8346 O   0  0  0  0  0  0  0  0  0  0  0  0
   -1.0578   -1.9926   -2.8456 C   0  0  0  0  0  0  0  0  0  0  0  0
   -2.4501   -3.6804    3.0359 C   0  0  0  0  0  0  0  0  0  0  0  0
   -3.7865   -4.3472    3.1665 C   0  0  0  0  0  0  0  0  0  0  0  0
   -2.2309   -2.5142    3.3337 O   0  0  0  0  0  0  0  0  0  0  0  0
    7.0344    0.1794   -1.6074 H   0  0  0  0  0  0  0  0  0  0  0  0
    3.7459   -1.2367    1.9349 H   0  0  0  0  0  0  0  0  0  0  0  0
    3.2659   -1.0720   -4.9248 H   0  0  0  0  0  0  0  0  0  0  0  0
    4.8073   -0.3907   -5.2938 H   0  0  0  0  0  0  0  0  0  0  0  0
    1.2691   -1.1626   -0.2002 H   0  0  0  0  0  0  0  0  0  0  0  0
    1.8270   -2.6274   -1.0427 H   0  0  0  0  0  0  0  0  0  0  0  0
    2.2139   -3.7776    1.1148 H   0  0  0  0  0  0  0  0  0  0  0  0
    1.7779   -2.3259    2.0017 H   0  0  0  0  0  0  0  0  0  0  0  0
   -0.5380   -2.4303    1.1459 H   0  0  0  0  0  0  0  0  0  0  0  0
    0.3049   -5.1027   -0.0843 H   0  0  0  0  0  0  0  0  0  0  0  0
   -1.3748   -4.6320    0.1245 H   0  0  0  0  0  0  0  0  0  0  0  0
    0.4908   -4.9382    2.5749 H   0  0  0  0  0  0  0  0  0  0  0  0
    0.0660   -3.4221    3.3538 H   0  0  0  0  0  0  0  0  0  0  0  0
    0.0171   -1.8643   -3.0058 H   0  0  0  0  0  0  0  0  0  0  0  0
   -1.4901   -2.5754   -3.6613 H   0  0  0  0  0  0  0  0  0  0  0  0
   -1.5060   -0.9957   -2.8149 H   0  0  0  0  0  0  0  0  0  0  0  0
   -3.9531   -4.6245    4.2102 H   0  0  0  0  0  0  0  0  0  0  0  0
   -4.5700   -3.6628    2.8283 H   0  0  0  0  0  0  0  0  0  0  0  0
   -3.8356   -5.2437    2.5412 H   0  0  0  0  0  0  0  0  0  0  0  0
  1  2  2  0  0  0  0
  2  3  1  0  0  0  0
  2 10  1  0  0  0  0
  3  4  2  0  0  0  0
  4  5  1  0  0  0  0
  4  7  1  0  0  0  0
  5  6  2  0  0  0  0
  6  1  1  0  0  0  0
  6 24  1  0  0  0  0
  7  8  1  0  0  0  0
  7 11  1  0  0  0  0
  8  9  2  0  0  0  0
  8 25  1  0  0  0  0
  9  5  1  0  0  0  0
 10 26  1  0  0  0  0
 10 27  1  0  0  0  0
 11 12  1  0  0  0  0
 11 28  1  0  0  0  0
 11 29  1  0  0  0  0
 12 13  1  0  0  0  0
 12 30  1  0  0  0  0
 12 31  1  0  0  0  0
 13 14  1  0  0  0  0
 13 15  1  0  0  0  0
 13 32  1  0  0  0  0
 14 17  1  0  0  0  0
 14 33  1  0  0  0  0
 14 34  1  0  0  0  0
 15 16  1  0  0  0  0
 15 35  1  0  0  0  0
 15 36  1  0  0  0  0
 16 21  1  0  0  0  0
 17 18  1  0  0  0  0
 18 19  2  0  0  0  0
 18 20  1  0  0  0  0
 20 37  1  0  0  0  0
 20 38  1  0  0  0  0
 20 39  1  0  0  0  0
 21 22  1  0  0  0  0
 21 23  2  0  0  0  0
 22 40  1  0  0  0  0
 22 41  1  0  0  0  0
 22 42  1  0  0  0  0
M  END
>  <Mol_ID>
744

>  <Formula>
C14H19N5O4

>  <MolWeight>
321.33176

>  <Cat>
S2467

>  <Name>
Famciclovir

>  <Synonyms>
BRL-42810

>  <Target>
Antiviral

>  <Form>
free base

>  <CAS>
104227-87-4

>  <URL>
http://selleckchem.com/products/Famciclovir(Famvir).html

$$$$
