Farnesyl Acetate (mixture of isomers)
 OpenBabel08302520393D

 47 46  0  0  0  0  0  0  0  0999 V2000
    1.0913    0.1621   -0.0086 C   0  0  0  0  0  0  0  0  0  0  0  0
    0.4064    0.3384   -1.1575 C   0  0  0  0  0  0  0  0  0  0  0  0
    0.3997   -0.1062    1.3233 C   0  0  0  0  0  0  0  0  0  0  0  0
    2.5980    0.1593    0.0731 C   0  0  0  0  0  0  0  0  0  0  0  0
    0.9495    0.4998   -2.5484 C   0  0  0  0  0  0  0  0  0  0  0  0
   -1.1402   -0.1413    1.3040 C   0  0  0  0  0  0  0  0  0  0  0  0
    0.0884    1.4662   -3.3777 C   0  0  0  0  0  0  0  0  0  0  0  0
   -1.7009   -0.4364    2.6664 C   0  0  0  0  0  0  0  0  0  0  0  0
    0.5462    1.5469   -4.8213 C   0  0  0  0  0  0  0  0  0  0  0  0
   -2.5744    0.3243    3.3529 C   0  0  0  0  0  0  0  0  0  0  0  0
   -0.2870    1.2187   -5.8256 C   0  0  0  0  0  0  0  0  0  0  0  0
    1.9543    2.0317   -5.0361 C   0  0  0  0  0  0  0  0  0  0  0  0
   -2.9892   -0.0560    4.7459 C   0  0  0  0  0  0  0  0  0  0  0  0
   -3.1789    1.5907    2.8121 C   0  0  0  0  0  0  0  0  0  0  0  0
    0.0538    1.1382   -7.2870 C   0  0  0  0  0  0  0  0  0  0  0  0
   -0.0743    2.4189   -7.9097 O   0  0  0  0  0  0  0  0  0  0  0  0
   -1.3257    2.7466   -8.3203 C   0  0  0  0  0  0  0  0  0  0  0  0
   -1.3050    4.0458   -9.0686 C   0  0  0  0  0  0  0  0  0  0  0  0
   -2.3314    2.0671   -8.1679 O   0  0  0  0  0  0  0  0  0  0  0  0
   -0.6804    0.3138   -1.1316 H   0  0  0  0  0  0  0  0  0  0  0  0
    0.7664   -1.0713    1.6997 H   0  0  0  0  0  0  0  0  0  0  0  0
    0.7251    0.6571    2.0426 H   0  0  0  0  0  0  0  0  0  0  0  0
    3.0697    0.7234   -0.7352 H   0  0  0  0  0  0  0  0  0  0  0  0
    2.9370    0.6228    1.0061 H   0  0  0  0  0  0  0  0  0  0  0  0
    2.9760   -0.8676    0.0455 H   0  0  0  0  0  0  0  0  0  0  0  0
    1.9866    0.8445   -2.5373 H   0  0  0  0  0  0  0  0  0  0  0  0
    0.9384   -0.4888   -3.0239 H   0  0  0  0  0  0  0  0  0  0  0  0
   -1.5187    0.8146    0.9254 H   0  0  0  0  0  0  0  0  0  0  0  0
   -1.4887   -0.9247    0.6198 H   0  0  0  0  0  0  0  0  0  0  0  0
   -0.9586    1.1362   -3.3363 H   0  0  0  0  0  0  0  0  0  0  0  0
    0.1091    2.4694   -2.9326 H   0  0  0  0  0  0  0  0  0  0  0  0
   -1.3419   -1.3618    3.1158 H   0  0  0  0  0  0  0  0  0  0  0  0
   -1.3096    0.9219   -5.5977 H   0  0  0  0  0  0  0  0  0  0  0  0
    2.1817    2.8549   -4.3494 H   0  0  0  0  0  0  0  0  0  0  0  0
    2.6674    1.2222   -4.8576 H   0  0  0  0  0  0  0  0  0  0  0  0
    2.1145    2.4144   -6.0477 H   0  0  0  0  0  0  0  0  0  0  0  0
   -2.7571    0.7596    5.4387 H   0  0  0  0  0  0  0  0  0  0  0  0
   -4.0636   -0.2587    4.7860 H   0  0  0  0  0  0  0  0  0  0  0  0
   -2.4629   -0.9479    5.1027 H   0  0  0  0  0  0  0  0  0  0  0  0
   -2.4056    2.3398    2.6156 H   0  0  0  0  0  0  0  0  0  0  0  0
   -3.7333    1.3934    1.8880 H   0  0  0  0  0  0  0  0  0  0  0  0
   -3.8867    2.0286    3.5242 H   0  0  0  0  0  0  0  0  0  0  0  0
    1.0944    0.8091   -7.4261 H   0  0  0  0  0  0  0  0  0  0  0  0
   -0.5640    0.3864   -7.7902 H   0  0  0  0  0  0  0  0  0  0  0  0
   -1.2053    3.8454  -10.1383 H   0  0  0  0  0  0  0  0  0  0  0  0
   -2.2335    4.5892   -8.8732 H   0  0  0  0  0  0  0  0  0  0  0  0
   -0.4740    4.6729   -8.7328 H   0  0  0  0  0  0  0  0  0  0  0  0
  1  2  2  0  0  0  0
  1  3  1  0  0  0  0
  1  4  1  0  0  0  0
  2  5  1  0  0  0  0
  2 20  1  0  0  0  0
  3  6  1  0  0  0  0
  3 21  1  0  0  0  0
  3 22  1  0  0  0  0
  4 23  1  0  0  0  0
  4 24  1  0  0  0  0
  4 25  1  0  0  0  0
  5  7  1  0  0  0  0
  5 26  1  0  0  0  0
  5 27  1  0  0  0  0
  6  8  1  0  0  0  0
  6 28  1  0  0  0  0
  6 29  1  0  0  0  0
  7  9  1  0  0  0  0
  7 30  1  0  0  0  0
  7 31  1  0  0  0  0
  8 10  2  0  0  0  0
  8 32  1  0  0  0  0
  9 11  2  0  0  0  0
  9 12  1  0  0  0  0
 10 13  1  0  0  0  0
 10 14  1  0  0  0  0
 11 15  1  0  0  0  0
 11 33  1  0  0  0  0
 12 34  1  0  0  0  0
 12 35  1  0  0  0  0
 12 36  1  0  0  0  0
 13 37  1  0  0  0  0
 13 38  1  0  0  0  0
 13 39  1  0  0  0  0
 14 40  1  0  0  0  0
 14 41  1  0  0  0  0
 14 42  1  0  0  0  0
 15 16  1  0  0  0  0
 15 43  1  0  0  0  0
 15 44  1  0  0  0  0
 16 17  1  0  0  0  0
 17 18  1  0  0  0  0
 17 19  2  0  0  0  0
 18 45  1  0  0  0  0
 18 46  1  0  0  0  0
 18 47  1  0  0  0  0
M  END
>  <Mol_ID>
3592

>  <Formula>
C17H28O2

>  <MolWeight>
264.40302

>  <Cat>
S6150

>  <Name>
Farnesyl Acetate (mixture of isomers)

>  <Synonyms>
N/A

>  <Target>
Others

>  <Form>
free base

>  <CAS>
29548-30-9

>  <URL>
http://www.selleck.cn/products/farnesyl-acetate.html

$$$$
