Farrerol
 OpenBabel08302521223D

 38 40  0  0  0  0  0  0  0  0999 V2000
   -0.0497    0.6325    0.0194 C   0  0  0  0  0  0  0  0  0  0  0  0
    0.0288   -0.7634   -0.0530 C   0  0  0  0  0  0  0  0  0  0  0  0
   -1.2534    1.3125    0.0904 O   0  0  0  0  0  0  0  0  0  0  0  0
    1.1386    1.3841    0.0622 C   0  0  0  0  0  0  0  0  0  0  0  0
   -1.2229   -1.5389   -0.0001 C   0  0  0  0  0  0  0  0  0  0  0  0
    1.2699   -1.4190   -0.1125 C   0  0  0  0  0  0  0  0  0  0  0  0
   -2.3851    0.5503   -0.3784 C   0  0  1  0  0  0  0  0  0  0  0  0
    2.3783    0.7082    0.0199 C   0  0  0  0  0  0  0  0  0  0  0  0
    1.0774    2.8869    0.1517 C   0  0  0  0  0  0  0  0  0  0  0  0
   -2.4591   -0.7820    0.3506 C   0  0  0  0  0  0  0  0  0  0  0  0
   -1.2097   -2.7562   -0.1730 O   0  0  0  0  0  0  0  0  0  0  0  0
    2.4660   -0.6944   -0.0649 C   0  0  0  0  0  0  0  0  0  0  0  0
    1.3551   -2.7875   -0.1956 O   0  0  0  0  0  0  0  0  0  0  0  0
   -3.7128    1.2705   -0.1636 C   0  0  0  0  0  0  0  0  0  0  0  0
    3.5137    1.4783    0.0678 O   0  0  0  0  0  0  0  0  0  0  0  0
    3.7935   -1.4067   -0.0871 C   0  0  0  0  0  0  0  0  0  0  0  0
   -4.7857    1.0052   -1.0396 C   0  0  0  0  0  0  0  0  0  0  0  0
   -3.9535    2.0759    0.9591 C   0  0  0  0  0  0  0  0  0  0  0  0
   -6.0678    1.4997   -0.7829 C   0  0  0  0  0  0  0  0  0  0  0  0
   -5.2370    2.5719    1.2149 C   0  0  0  0  0  0  0  0  0  0  0  0
   -6.2862    2.2665    0.3551 C   0  0  0  0  0  0  0  0  0  0  0  0
   -7.5300    2.7251    0.6753 O   0  0  0  0  0  0  0  0  0  0  0  0
   -2.2491    0.4084   -1.4606 H   0  0  0  0  0  0  0  0  0  0  0  0
    0.5525    3.2938   -0.7182 H   0  0  0  0  0  0  0  0  0  0  0  0
    0.5587    3.1890    1.0667 H   0  0  0  0  0  0  0  0  0  0  0  0
    2.0686    3.3514    0.1750 H   0  0  0  0  0  0  0  0  0  0  0  0
   -2.4797   -0.6618    1.4417 H   0  0  0  0  0  0  0  0  0  0  0  0
   -3.3316   -1.3687    0.0405 H   0  0  0  0  0  0  0  0  0  0  0  0
    0.4456   -3.1603   -0.2398 H   0  0  0  0  0  0  0  0  0  0  0  0
    4.3029    0.9194    0.0328 H   0  0  0  0  0  0  0  0  0  0  0  0
    4.3764   -1.0973   -0.9603 H   0  0  0  0  0  0  0  0  0  0  0  0
    4.3557   -1.1821    0.8256 H   0  0  0  0  0  0  0  0  0  0  0  0
    3.6963   -2.4963   -0.1371 H   0  0  0  0  0  0  0  0  0  0  0  0
   -4.6366    0.3780   -1.9164 H   0  0  0  0  0  0  0  0  0  0  0  0
   -3.1532    2.2987    1.6612 H   0  0  0  0  0  0  0  0  0  0  0  0
   -6.8787    1.2610   -1.4647 H   0  0  0  0  0  0  0  0  0  0  0  0
   -5.4242    3.1758    2.0985 H   0  0  0  0  0  0  0  0  0  0  0  0
   -8.1719    2.3539    0.0476 H   0  0  0  0  0  0  0  0  0  0  0  0
  1  2  2  0  0  0  0
  1  3  1  0  0  0  0
  1  4  1  0  0  0  0
  2  5  1  0  0  0  0
  2  6  1  0  0  0  0
  3  7  1  0  0  0  0
  4  8  2  0  0  0  0
  4  9  1  0  0  0  0
  5 10  1  0  0  0  0
  5 11  2  0  0  0  0
  6 12  2  0  0  0  0
  6 13  1  0  0  0  0
  7 10  1  0  0  0  0
  7 23  1  6  0  0  0
  7 14  1  0  0  0  0
  8 15  1  0  0  0  0
  8 12  1  0  0  0  0
  9 24  1  0  0  0  0
  9 25  1  0  0  0  0
  9 26  1  0  0  0  0
 10 27  1  0  0  0  0
 10 28  1  0  0  0  0
 12 16  1  0  0  0  0
 13 29  1  0  0  0  0
 14 17  2  0  0  0  0
 14 18  1  0  0  0  0
 15 30  1  0  0  0  0
 16 31  1  0  0  0  0
 16 32  1  0  0  0  0
 16 33  1  0  0  0  0
 17 19  1  0  0  0  0
 17 34  1  0  0  0  0
 18 20  2  0  0  0  0
 18 35  1  0  0  0  0
 19 21  2  0  0  0  0
 19 36  1  0  0  0  0
 20 21  1  0  0  0  0
 20 37  1  0  0  0  0
 21 22  1  0  0  0  0
 22 38  1  0  0  0  0
M  END
>  <Mol_ID>
4651

>  <Formula>
C17H16O5

>  <MolWeight>
300.30594

>  <Cat>
S9552

>  <Name>
Farrerol

>  <Synonyms>
N/A

>  <Target>
Others

>  <Form>
Free Base

>  <CAS>
24211-30-1

>  <URL>
http://www.selleckchem.com/products/farrerol.html

$$$$
