Farudodstat
 OpenBabel08302521303D

 40 42  0  0  0  0  0  0  0  0999 V2000
    1.2019   -1.1194   -0.1362 C   0  0  0  0  0  0  0  0  0  0  0  0
    0.0242   -1.8856   -0.1367 C   0  0  0  0  0  0  0  0  0  0  0  0
   -1.1867   -1.1758   -0.2033 C   0  0  0  0  0  0  0  0  0  0  0  0
   -1.2142    0.2183   -0.2065 C   0  0  0  0  0  0  0  0  0  0  0  0
   -0.0483    0.9796   -0.0837 C   0  0  0  0  0  0  0  0  0  0  0  0
    1.1604    0.2813   -0.1155 C   0  0  0  0  0  0  0  0  0  0  0  0
    2.3243    0.9508   -0.0901 F   0  0  0  0  0  0  0  0  0  0  0  0
   -0.0649    2.3995   -0.0274 N   0  0  0  0  0  0  0  0  0  0  0  0
   -2.4090    0.8178   -0.3416 F   0  0  0  0  0  0  0  0  0  0  0  0
    0.0320   -3.3661   -0.0324 C   0  0  0  0  0  0  0  0  0  0  0  0
    1.0269   -4.0443    0.7039 C   0  0  0  0  0  0  0  0  0  0  0  0
    0.9965   -5.4337    0.8710 C   0  0  0  0  0  0  0  0  0  0  0  0
   -0.0424   -6.1696    0.3043 C   0  0  0  0  0  0  0  0  0  0  0  0
   -1.0306   -5.5323   -0.4380 C   0  0  0  0  0  0  0  0  0  0  0  0
   -0.9845   -4.1479   -0.6125 C   0  0  0  0  0  0  0  0  0  0  0  0
    1.9034   -6.1784    1.5747 O   0  0  0  0  0  0  0  0  0  0  0  0
    2.9925   -5.4802    2.1646 C   0  0  0  0  0  0  0  0  0  0  0  0
   -1.0123    3.1110    0.7575 C   0  0  0  0  0  0  0  0  0  0  0  0
   -1.5635    2.4659    1.8201 N   0  0  0  0  0  0  0  0  0  0  0  0
   -2.4499    3.1172    2.5994 C   0  0  0  0  0  0  0  0  0  0  0  0
   -2.8057    4.4352    2.4077 C   0  0  0  0  0  0  0  0  0  0  0  0
   -2.2185    5.1220    1.3504 C   0  0  0  0  0  0  0  0  0  0  0  0
   -1.2923    4.4651    0.5240 C   0  0  0  0  0  0  0  0  0  0  0  0
   -0.6973    5.1530   -0.6423 C   0  0  0  0  0  0  0  0  0  0  0  0
   -0.5062    6.4784   -0.4771 O   0  0  0  0  0  0  0  0  0  0  0  0
   -0.4021    4.5597   -1.6689 O   0  0  0  0  0  0  0  0  0  0  0  0
    2.1811   -1.5914   -0.1375 H   0  0  0  0  0  0  0  0  0  0  0  0
   -2.1448   -1.6875   -0.2239 H   0  0  0  0  0  0  0  0  0  0  0  0
   -0.0728    2.7713   -0.9845 H   0  0  0  0  0  0  0  0  0  0  0  0
    1.8131   -3.4634    1.1723 H   0  0  0  0  0  0  0  0  0  0  0  0
   -0.0824   -7.2466    0.4462 H   0  0  0  0  0  0  0  0  0  0  0  0
   -1.8414   -6.1097   -0.8741 H   0  0  0  0  0  0  0  0  0  0  0  0
   -1.7710   -3.6880   -1.2075 H   0  0  0  0  0  0  0  0  0  0  0  0
    3.6167   -5.0070    1.3993 H   0  0  0  0  0  0  0  0  0  0  0  0
    2.6418   -4.7477    2.8990 H   0  0  0  0  0  0  0  0  0  0  0  0
    3.6104   -6.2110    2.6950 H   0  0  0  0  0  0  0  0  0  0  0  0
   -2.8828    2.5219    3.3989 H   0  0  0  0  0  0  0  0  0  0  0  0
   -3.5326    4.9097    3.0583 H   0  0  0  0  0  0  0  0  0  0  0  0
   -2.5234    6.1473    1.1626 H   0  0  0  0  0  0  0  0  0  0  0  0
   -0.6028    6.8120    0.4339 H   0  0  0  0  0  0  0  0  0  0  0  0
  1  2  2  0  0  0  0
  1 27  1  0  0  0  0
  2  3  1  0  0  0  0
  2 10  1  0  0  0  0
  3  4  2  0  0  0  0
  3 28  1  0  0  0  0
  4  5  1  0  0  0  0
  4  9  1  0  0  0  0
  5  6  2  0  0  0  0
  5  8  1  0  0  0  0
  6  1  1  0  0  0  0
  6  7  1  0  0  0  0
  8 18  1  0  0  0  0
  8 29  1  0  0  0  0
 10 11  2  0  0  0  0
 11 12  1  0  0  0  0
 11 30  1  0  0  0  0
 12 13  2  0  0  0  0
 12 16  1  0  0  0  0
 13 14  1  0  0  0  0
 13 31  1  0  0  0  0
 14 15  2  0  0  0  0
 14 32  1  0  0  0  0
 15 10  1  0  0  0  0
 15 33  1  0  0  0  0
 16 17  1  0  0  0  0
 17 34  1  0  0  0  0
 17 35  1  0  0  0  0
 17 36  1  0  0  0  0
 18 19  2  0  0  0  0
 19 20  1  0  0  0  0
 20 21  2  0  0  0  0
 20 37  1  0  0  0  0
 21 22  1  0  0  0  0
 21 38  1  0  0  0  0
 22 23  2  0  0  0  0
 22 39  1  0  0  0  0
 23 18  1  0  0  0  0
 23 24  1  0  0  0  0
 24 25  1  0  0  0  0
 24 26  2  0  0  0  0
 25 40  1  0  0  0  0
M  END
>  <Mol_ID>
5665

>  <Formula>
C19H14F2N2O3

>  <MolWeight>
356.3228664

>  <Cat>
S9721

>  <Name>
Farudodstat

>  <Synonyms>
LAS 186323,ASLAN003

>  <Target>
AP-1,Apoptosis related,Dehydrogenase

>  <Form>
Free Base

>  <CAS>
1035688-66-4

>  <URL>
http://www.selleckchem.com/products/aslan003.html

$$$$
