Fasoracetam (NS 105)
 OpenBabel08302521353D

 30 31  0  0  1  0  0  0  0  0999 V2000
    3.1967    0.1712    1.3309 C   0  0  0  0  0  0  0  0  0  0  0  0
    2.7242   -0.7826    1.9576 O   0  0  0  0  0  0  0  0  0  0  0  0
    0.6234   -1.8548   -1.2868 O   0  0  0  0  0  0  0  0  0  0  0  0
    2.4059    0.7910    0.1514 C   0  0  2  0  0  0  0  0  0  0  0  0
    1.1932    0.0434   -0.0983 N   0  0  0  0  0  0  0  0  0  0  0  0
    3.1214    0.6762   -1.1898 C   0  0  0  0  0  0  0  0  0  0  0  0
    1.3919   -0.9404   -1.0509 C   0  0  0  0  0  0  0  0  0  0  0  0
    2.7346   -0.7132   -1.6919 C   0  0  0  0  0  0  0  0  0  0  0  0
    4.4335    0.7087    1.6618 N   0  0  0  0  0  0  0  0  0  0  0  0
    5.2835   -0.0115    2.6106 C   0  0  0  0  0  0  0  0  0  0  0  0
    4.9395    2.0157    1.2417 C   0  0  0  0  0  0  0  0  0  0  0  0
    5.5625    0.8317    3.8494 C   0  0  0  0  0  0  0  0  0  0  0  0
    5.2357    2.8988    2.4558 C   0  0  0  0  0  0  0  0  0  0  0  0
    6.1446    2.1886    3.4591 C   0  0  0  0  0  0  0  0  0  0  0  0
    2.1251    1.8174    0.4041 H   0  0  0  0  0  0  0  0  0  0  0  0
    0.5058   -0.1501    0.6221 H   0  0  0  0  0  0  0  0  0  0  0  0
    4.2050    0.8045   -1.1519 H   0  0  0  0  0  0  0  0  0  0  0  0
    2.7189    1.4272   -1.8833 H   0  0  0  0  0  0  0  0  0  0  0  0
    3.4340   -1.4749   -1.3315 H   0  0  0  0  0  0  0  0  0  0  0  0
    2.6621   -0.7486   -2.7814 H   0  0  0  0  0  0  0  0  0  0  0  0
    6.2214   -0.2425    2.0908 H   0  0  0  0  0  0  0  0  0  0  0  0
    4.8383   -0.9674    2.9037 H   0  0  0  0  0  0  0  0  0  0  0  0
    4.2290    2.5311    0.5929 H   0  0  0  0  0  0  0  0  0  0  0  0
    5.8564    1.8435    0.6658 H   0  0  0  0  0  0  0  0  0  0  0  0
    6.2572    0.3032    4.5114 H   0  0  0  0  0  0  0  0  0  0  0  0
    4.6306    0.9839    4.4078 H   0  0  0  0  0  0  0  0  0  0  0  0
    4.2928    3.1595    2.9528 H   0  0  0  0  0  0  0  0  0  0  0  0
    5.7012    3.8361    2.1319 H   0  0  0  0  0  0  0  0  0  0  0  0
    6.2738    2.8090    4.3528 H   0  0  0  0  0  0  0  0  0  0  0  0
    7.1390    2.0475    3.0176 H   0  0  0  0  0  0  0  0  0  0  0  0
  1  2  2  0  0  0  0
  1  9  1  0  0  0  0
  3  7  2  0  0  0  0
  4  5  1  0  0  0  0
  4  6  1  0  0  0  0
  4 15  1  1  0  0  0
  4  1  1  0  0  0  0
  5  7  1  0  0  0  0
  5 16  1  0  0  0  0
  6  8  1  0  0  0  0
  6 17  1  0  0  0  0
  6 18  1  0  0  0  0
  7  8  1  0  0  0  0
  8 19  1  0  0  0  0
  8 20  1  0  0  0  0
  9 10  1  0  0  0  0
  9 11  1  0  0  0  0
 10 12  1  0  0  0  0
 10 21  1  0  0  0  0
 10 22  1  0  0  0  0
 11 13  1  0  0  0  0
 11 23  1  0  0  0  0
 11 24  1  0  0  0  0
 12 14  1  0  0  0  0
 12 25  1  0  0  0  0
 12 26  1  0  0  0  0
 13 14  1  0  0  0  0
 13 27  1  0  0  0  0
 13 28  1  0  0  0  0
 14 29  1  0  0  0  0
 14 30  1  0  0  0  0
M  END
>  <Mol_ID>
6984

>  <Formula>
C10H16N2O2

>  <MolWeight>
196.24624

>  <Cat>
E1773

>  <Name>
Fasoracetam (NS 105)

>  <Synonyms>
NS 105

>  <Target>
GluR

>  <Form>
free base

>  <CAS>
110958-19-5

>  <URL>
https://www.selleckchem.com/products/fasoracetam-ns-105.html

$$$$
