Fasudil HCl.cdx
 OpenBabel08302520303D

 37 39  0  0  0  0  0  0  0  0999 V2000
   -1.4014   -1.3481   -0.3959 C   0  0  0  0  0  0  0  0  0  0  0  0
   -0.1542   -0.7047   -0.2988 C   0  0  0  0  0  0  0  0  0  0  0  0
   -0.0598    0.7025   -0.3803 C   0  0  0  0  0  0  0  0  0  0  0  0
   -1.2820    1.4298   -0.4503 C   0  0  0  0  0  0  0  0  0  0  0  0
   -2.5166    0.7736   -0.5865 C   0  0  0  0  0  0  0  0  0  0  0  0
   -2.5711   -0.6152   -0.5731 C   0  0  0  0  0  0  0  0  0  0  0  0
    1.0240   -1.4352   -0.1239 C   0  0  0  0  0  0  0  0  0  0  0  0
    2.2656   -0.9046   -0.0883 N   0  0  0  0  0  0  0  0  0  0  0  0
    2.3468    0.4272   -0.2491 C   0  0  0  0  0  0  0  0  0  0  0  0
    1.2421    1.2534   -0.3856 C   0  0  0  0  0  0  0  0  0  0  0  0
   -1.3230    3.2017   -0.2039 S   0  0  0  0  0  0  0  0  0  0  0  0
   -0.7530    3.3358    1.3749 N   0  0  0  0  0  0  0  0  0  0  0  0
   -0.3736    3.8024   -1.1145 O   0  0  0  0  0  0  0  0  0  0  0  0
   -2.7134    3.6130   -0.2023 O   0  0  0  0  0  0  0  0  0  0  0  0
   -1.6003    2.9271    2.5171 C   0  0  0  0  0  0  0  0  0  0  0  0
   -2.6071    4.0050    2.9514 C   0  0  0  0  0  0  0  0  0  0  0  0
   -2.0483    5.3310    3.2825 N   0  0  0  0  0  0  0  0  0  0  0  0
   -1.5595    6.0228    2.0870 C   0  0  0  0  0  0  0  0  0  0  0  0
   -0.1012    5.7310    1.7504 C   0  0  0  0  0  0  0  0  0  0  0  0
    0.3228    4.2731    1.7161 C   0  0  0  0  0  0  0  0  0  0  0  0
   -1.4642   -2.4331   -0.3459 H   0  0  0  0  0  0  0  0  0  0  0  0
   -3.4430    1.3376   -0.6794 H   0  0  0  0  0  0  0  0  0  0  0  0
   -3.5256   -1.1254   -0.6750 H   0  0  0  0  0  0  0  0  0  0  0  0
    1.0009   -2.5156   -0.0012 H   0  0  0  0  0  0  0  0  0  0  0  0
    3.3537    0.8344   -0.2711 H   0  0  0  0  0  0  0  0  0  0  0  0
    1.4210    2.3128   -0.5319 H   0  0  0  0  0  0  0  0  0  0  0  0
   -0.9533    2.6660    3.3638 H   0  0  0  0  0  0  0  0  0  0  0  0
   -2.1374    2.0046    2.2687 H   0  0  0  0  0  0  0  0  0  0  0  0
   -3.1019    3.6333    3.8579 H   0  0  0  0  0  0  0  0  0  0  0  0
   -3.4041    4.1127    2.2074 H   0  0  0  0  0  0  0  0  0  0  0  0
   -2.8196    5.8872    3.6575 H   0  0  0  0  0  0  0  0  0  0  0  0
   -1.6332    7.1018    2.2740 H   0  0  0  0  0  0  0  0  0  0  0  0
   -2.2064    5.8415    1.2215 H   0  0  0  0  0  0  0  0  0  0  0  0
    0.1193    6.1864    0.7775 H   0  0  0  0  0  0  0  0  0  0  0  0
    0.5448    6.2518    2.4702 H   0  0  0  0  0  0  0  0  0  0  0  0
    1.1649    4.1456    1.0257 H   0  0  0  0  0  0  0  0  0  0  0  0
    0.7346    3.9952    2.6956 H   0  0  0  0  0  0  0  0  0  0  0  0
  1  2  2  0  0  0  0
  1 21  1  0  0  0  0
  2  3  1  0  0  0  0
  2  7  1  0  0  0  0
  3  4  2  0  0  0  0
  4  5  1  0  0  0  0
  4 11  1  0  0  0  0
  5  6  2  0  0  0  0
  5 22  1  0  0  0  0
  6  1  1  0  0  0  0
  6 23  1  0  0  0  0
  7  8  2  0  0  0  0
  7 24  1  0  0  0  0
  8  9  1  0  0  0  0
  9 10  2  0  0  0  0
  9 25  1  0  0  0  0
 10  3  1  0  0  0  0
 10 26  1  0  0  0  0
 11 12  1  0  0  0  0
 11 13  2  0  0  0  0
 11 14  2  0  0  0  0
 12 15  1  0  0  0  0
 15 16  1  0  0  0  0
 15 27  1  0  0  0  0
 15 28  1  0  0  0  0
 16 17  1  0  0  0  0
 16 29  1  0  0  0  0
 16 30  1  0  0  0  0
 17 18  1  0  0  0  0
 17 31  1  0  0  0  0
 18 19  1  0  0  0  0
 18 32  1  0  0  0  0
 18 33  1  0  0  0  0
 19 20  1  0  0  0  0
 19 34  1  0  0  0  0
 19 35  1  0  0  0  0
 20 12  1  0  0  0  0
 20 36  1  0  0  0  0
 20 37  1  0  0  0  0
M  END
>  <Mol_ID>
333

>  <Formula>
C14H18ClN3O2S

>  <MolWeight>
327.82962

>  <Cat>
S1573

>  <Name>
Fasudil (HA-1077) HCl

>  <Synonyms>
AT-877,HA-1077 HCl

>  <Target>
Autophagy,Calcium Channel,MLCK,PKA,PKC,PKG,Rho,ROCK

>  <Form>
Hydrochloride

>  <CAS>
105628-07-7

>  <URL>
http://selleckchem.com/products/Fasudil-HCl(HA-1077).html

$$$$
