FCE28073.cdx
 OpenBabel08302520003D

 50 50  0  0  0  0  0  0  0  0999 V2000
    8.4857    2.2877  -10.1439 C   0  0  0  0  0  0  0  0  0  0  0  0
    9.3603    1.2096  -10.0507 C   0  0  0  0  0  0  0  0  0  0  0  0
    8.9133    0.0127   -9.4991 C   0  0  0  0  0  0  0  0  0  0  0  0
    7.6005   -0.0879   -9.0312 C   0  0  0  0  0  0  0  0  0  0  0  0
    6.7149    1.0042   -9.1103 C   0  0  0  0  0  0  0  0  0  0  0  0
    7.1743    2.1969   -9.6819 C   0  0  0  0  0  0  0  0  0  0  0  0
    8.9217    3.4397  -10.6695 F   0  0  0  0  0  0  0  0  0  0  0  0
    5.3438    0.8891   -8.4769 C   0  0  0  0  0  0  0  0  0  0  0  0
    4.3627    1.6994   -9.1336 O   0  0  0  0  0  0  0  0  0  0  0  0
    3.0639    1.3051   -8.9235 C   0  0  0  0  0  0  0  0  0  0  0  0
    2.6147    0.5677   -7.8250 C   0  0  0  0  0  0  0  0  0  0  0  0
    1.3214    0.0364   -7.8167 C   0  0  0  0  0  0  0  0  0  0  0  0
    0.4669    0.2419   -8.9063 C   0  0  0  0  0  0  0  0  0  0  0  0
    0.8659    1.1277   -9.9180 C   0  0  0  0  0  0  0  0  0  0  0  0
    2.1611    1.6505   -9.9280 C   0  0  0  0  0  0  0  0  0  0  0  0
   -0.7373   -0.6459   -9.1234 C   0  0  0  0  0  0  0  0  0  0  0  0
   -1.6744   -0.7668   -8.0059 N   0  0  0  0  0  0  0  0  0  0  0  0
   -2.3960    0.4969   -7.7013 C   0  0  2  0  0  0  0  0  0  0  0  0
   -3.3756    0.2562   -6.5220 C   0  0  0  0  0  0  0  0  0  0  0  0
   -3.0142   -0.7353   -5.6526 N   0  0  0  0  0  0  0  0  0  0  0  0
   -4.3757    0.9294   -6.3124 O   0  0  0  0  0  0  0  0  0  0  0  0
   -3.1639    1.0715   -8.8905 C   0  0  0  0  0  0  0  0  0  0  0  0
    0.9288   -0.0160   -0.1738 C   0  0  0  0  0  0  0  0  0  0  0  0
    0.3027   -0.3307   -1.8128 S   0  0  0  0  0  0  0  0  0  0  0  0
    0.9672   -1.4823   -2.3785 O   0  0  0  0  0  0  0  0  0  0  0  0
   -1.1312   -0.1840   -1.8308 O   0  0  0  0  0  0  0  0  0  0  0  0
    0.9154    0.9744   -2.5442 O   0  0  0  0  0  0  0  0  0  0  0  0
   10.3815    1.3121  -10.4025 H   0  0  0  0  0  0  0  0  0  0  0  0
    9.5867   -0.8373   -9.4198 H   0  0  0  0  0  0  0  0  0  0  0  0
    7.2730   -1.0281   -8.5893 H   0  0  0  0  0  0  0  0  0  0  0  0
    6.5273    3.0662   -9.7608 H   0  0  0  0  0  0  0  0  0  0  0  0
    5.0498   -0.1686   -8.5090 H   0  0  0  0  0  0  0  0  0  0  0  0
    5.4295    1.2176   -7.4343 H   0  0  0  0  0  0  0  0  0  0  0  0
    3.2683    0.3351   -6.9900 H   0  0  0  0  0  0  0  0  0  0  0  0
    1.0120   -0.6071   -6.9955 H   0  0  0  0  0  0  0  0  0  0  0  0
    0.2026    1.3521  -10.7504 H   0  0  0  0  0  0  0  0  0  0  0  0
    2.4889    2.2613  -10.7654 H   0  0  0  0  0  0  0  0  0  0  0  0
   -1.2583   -0.3770  -10.0486 H   0  0  0  0  0  0  0  0  0  0  0  0
   -0.3306   -1.6469   -9.3203 H   0  0  0  0  0  0  0  0  0  0  0  0
   -2.3745   -1.4620   -8.2735 H   0  0  0  0  0  0  0  0  0  0  0  0
   -1.6758    1.2366   -7.3356 H   0  0  0  0  0  0  0  0  0  0  0  0
   -3.5802   -0.9049   -4.8301 H   0  0  0  0  0  0  0  0  0  0  0  0
   -2.1721   -1.2751   -5.8138 H   0  0  0  0  0  0  0  0  0  0  0  0
   -3.6751    1.9981   -8.6108 H   0  0  0  0  0  0  0  0  0  0  0  0
   -2.5036    1.3223   -9.7258 H   0  0  0  0  0  0  0  0  0  0  0  0
   -3.9241    0.3695   -9.2527 H   0  0  0  0  0  0  0  0  0  0  0  0
    0.5935   -0.8296    0.4758 H   0  0  0  0  0  0  0  0  0  0  0  0
    0.5302    0.9351    0.1806 H   0  0  0  0  0  0  0  0  0  0  0  0
    2.0178    0.0064   -0.2118 H   0  0  0  0  0  0  0  0  0  0  0  0
    0.4467    1.0974   -3.3957 H   0  0  0  0  0  0  0  0  0  0  0  0
  1  2  2  0  0  0  0
  1  7  1  0  0  0  0
  2  3  1  0  0  0  0
  2 28  1  0  0  0  0
  3  4  2  0  0  0  0
  3 29  1  0  0  0  0
  4  5  1  0  0  0  0
  4 30  1  0  0  0  0
  5  6  2  0  0  0  0
  5  8  1  0  0  0  0
  6  1  1  0  0  0  0
  6 31  1  0  0  0  0
  8  9  1  0  0  0  0
  8 32  1  0  0  0  0
  8 33  1  0  0  0  0
  9 10  1  0  0  0  0
 10 11  2  0  0  0  0
 11 12  1  0  0  0  0
 11 34  1  0  0  0  0
 12 13  2  0  0  0  0
 12 35  1  0  0  0  0
 13 14  1  0  0  0  0
 13 16  1  0  0  0  0
 14 15  2  0  0  0  0
 14 36  1  0  0  0  0
 15 10  1  0  0  0  0
 15 37  1  0  0  0  0
 16 17  1  0  0  0  0
 16 38  1  0  0  0  0
 16 39  1  0  0  0  0
 17 40  1  0  0  0  0
 18 22  1  0  0  0  0
 18 41  1  1  0  0  0
 18 19  1  0  0  0  0
 18 17  1  0  0  0  0
 19 20  1  0  0  0  0
 19 21  2  0  0  0  0
 20 42  1  0  0  0  0
 20 43  1  0  0  0  0
 22 44  1  0  0  0  0
 22 45  1  0  0  0  0
 22 46  1  0  0  0  0
 23 24  1  0  0  0  0
 23 47  1  0  0  0  0
 23 48  1  0  0  0  0
 23 49  1  0  0  0  0
 24 25  2  0  0  0  0
 24 26  2  0  0  0  0
 24 27  1  0  0  0  0
 27 50  1  0  0  0  0
M  END
>  <Mol_ID>
276

>  <Formula>
C18H23FN2O5S

>  <MolWeight>
398.4490232

>  <Cat>
S1472

>  <Name>
Safinamide Mesylate

>  <Synonyms>
PNU-151774E,FCE28073

>  <Target>
MAO

>  <Form>
Mesylate

>  <CAS>
202825-46-5

>  <URL>
http://selleckchem.com/products/Safinamide-mesilate.html

$$$$
