FDL169
 OpenBabel08302521223D

 59 63  0  0  0  0  0  0  0  0999 V2000
   -2.4768   -0.7168   -0.0824 C   0  0  0  0  0  0  0  0  0  0  0  0
   -2.4717    0.6550   -0.3173 C   0  0  0  0  0  0  0  0  0  0  0  0
   -1.2682    1.3563   -0.3589 C   0  0  0  0  0  0  0  0  0  0  0  0
   -0.0501    0.7057   -0.1442 C   0  0  0  0  0  0  0  0  0  0  0  0
   -0.0422   -0.6781   -0.0426 C   0  0  0  0  0  0  0  0  0  0  0  0
   -1.2558   -1.3930   -0.0007 C   0  0  0  0  0  0  0  0  0  0  0  0
    1.2527    1.4166   -0.0339 C   0  0  0  0  0  0  0  0  0  0  0  0
    2.3855    0.7807   -0.0306 N   0  0  0  0  0  0  0  0  0  0  0  0
    2.3939   -0.5914   -0.0945 N   0  0  0  0  0  0  0  0  0  0  0  0
    1.2550   -1.3853   -0.0385 C   0  0  0  0  0  0  0  0  0  0  0  0
   -3.6192   -1.4690    0.0273 O   0  0  0  0  0  0  0  0  0  0  0  0
   -4.7509   -0.7609    0.5516 C   0  0  0  0  0  0  0  0  0  0  0  0
   -5.9389   -1.6965    0.6838 C   0  0  0  0  0  0  0  0  0  0  0  0
    1.2783   -2.6140   -0.0043 O   0  0  0  0  0  0  0  0  0  0  0  0
    1.3093    2.9058    0.0991 C   0  0  0  0  0  0  0  0  0  0  0  0
    3.6972   -1.2303   -0.2444 C   0  0  0  0  0  0  0  0  0  0  0  0
    4.0191   -1.4808   -1.7172 C   0  0  0  0  0  0  0  0  0  0  0  0
    3.2798   -1.0821   -2.6015 O   0  0  0  0  0  0  0  0  0  0  0  0
    5.2394   -2.1687   -1.9695 N   0  0  0  0  0  0  0  0  0  0  0  0
    6.2618   -2.4313   -0.9406 C   0  0  0  0  0  0  0  0  0  0  0  0
    5.5760   -2.5168   -3.3193 C   0  0  0  0  0  0  0  0  0  0  0  0
    4.5712   -2.8149   -4.2606 C   0  0  0  0  0  0  0  0  0  0  0  0
    4.8111   -2.7691   -5.6502 C   0  0  0  0  0  0  0  0  0  0  0  0
    6.1010   -2.4418   -6.0626 C   0  0  0  0  0  0  0  0  0  0  0  0
    7.0786   -2.3856   -5.0955 C   0  0  0  0  0  0  0  0  0  0  0  0
    6.8995   -2.4421   -3.7335 C   0  0  0  0  0  0  0  0  0  0  0  0
    6.6603   -2.0621   -7.2738 N   0  0  0  0  0  0  0  0  0  0  0  0
    7.9162   -1.8000   -6.9496 C   0  0  0  0  0  0  0  0  0  0  0  0
    8.2612   -2.1232   -5.6761 O   0  0  0  0  0  0  0  0  0  0  0  0
    8.9926   -1.0450   -7.6117 C   0  0  0  0  0  0  0  0  0  0  0  0
    2.3662    3.5955   -0.5034 C   0  0  0  0  0  0  0  0  0  0  0  0
    2.4055    4.9831   -0.4236 C   0  0  0  0  0  0  0  0  0  0  0  0
    1.4042    5.7012    0.2248 C   0  0  0  0  0  0  0  0  0  0  0  0
    0.3613    5.0201    0.8449 C   0  0  0  0  0  0  0  0  0  0  0  0
    0.3444    3.6257    0.8235 C   0  0  0  0  0  0  0  0  0  0  0  0
    3.4201    5.6474   -0.9914 F   0  0  0  0  0  0  0  0  0  0  0  0
   -3.3840    1.2161   -0.4885 H   0  0  0  0  0  0  0  0  0  0  0  0
   -1.3311    2.4201   -0.5640 H   0  0  0  0  0  0  0  0  0  0  0  0
   -1.2440   -2.4751    0.1018 H   0  0  0  0  0  0  0  0  0  0  0  0
   -4.5038   -0.3471    1.5373 H   0  0  0  0  0  0  0  0  0  0  0  0
   -5.0514    0.0457   -0.1243 H   0  0  0  0  0  0  0  0  0  0  0  0
   -5.7180   -2.5290    1.3577 H   0  0  0  0  0  0  0  0  0  0  0  0
   -6.8065   -1.1513    1.0708 H   0  0  0  0  0  0  0  0  0  0  0  0
   -6.2033   -2.1227   -0.2891 H   0  0  0  0  0  0  0  0  0  0  0  0
    4.4555   -0.5544    0.1833 H   0  0  0  0  0  0  0  0  0  0  0  0
    3.7047   -2.1837    0.2873 H   0  0  0  0  0  0  0  0  0  0  0  0
    6.3676   -3.5161   -0.8449 H   0  0  0  0  0  0  0  0  0  0  0  0
    7.2323   -1.9996   -1.2058 H   0  0  0  0  0  0  0  0  0  0  0  0
    6.0127   -2.0132    0.0319 H   0  0  0  0  0  0  0  0  0  0  0  0
    3.5593   -3.0317   -3.9166 H   0  0  0  0  0  0  0  0  0  0  0  0
    3.9755   -2.8798   -6.3486 H   0  0  0  0  0  0  0  0  0  0  0  0
    7.7510   -2.2050   -3.1075 H   0  0  0  0  0  0  0  0  0  0  0  0
    9.7963   -1.7178   -7.9190 H   0  0  0  0  0  0  0  0  0  0  0  0
    8.6443   -0.4474   -8.4540 H   0  0  0  0  0  0  0  0  0  0  0  0
    9.4196   -0.3511   -6.8719 H   0  0  0  0  0  0  0  0  0  0  0  0
    3.1498    3.0694   -1.0396 H   0  0  0  0  0  0  0  0  0  0  0  0
    1.4495    6.7841    0.2544 H   0  0  0  0  0  0  0  0  0  0  0  0
   -0.4327    5.5649    1.3479 H   0  0  0  0  0  0  0  0  0  0  0  0
   -0.4493    3.1187    1.3652 H   0  0  0  0  0  0  0  0  0  0  0  0
  1  2  2  0  0  0  0
  1 11  1  0  0  0  0
  2  3  1  0  0  0  0
  2 37  1  0  0  0  0
  3  4  2  0  0  0  0
  3 38  1  0  0  0  0
  4  5  1  0  0  0  0
  4  7  1  0  0  0  0
  5  6  2  0  0  0  0
  6  1  1  0  0  0  0
  6 39  1  0  0  0  0
  7  8  2  0  0  0  0
  7 15  1  0  0  0  0
  8  9  1  0  0  0  0
  9 10  1  0  0  0  0
  9 16  1  0  0  0  0
 10  5  1  0  0  0  0
 10 14  2  0  0  0  0
 11 12  1  0  0  0  0
 12 13  1  0  0  0  0
 12 40  1  0  0  0  0
 12 41  1  0  0  0  0
 13 42  1  0  0  0  0
 13 43  1  0  0  0  0
 13 44  1  0  0  0  0
 15 31  2  0  0  0  0
 16 17  1  0  0  0  0
 16 45  1  0  0  0  0
 16 46  1  0  0  0  0
 17 18  2  0  0  0  0
 17 19  1  0  0  0  0
 19 20  1  0  0  0  0
 19 21  1  0  0  0  0
 20 47  1  0  0  0  0
 20 48  1  0  0  0  0
 20 49  1  0  0  0  0
 21 22  2  0  0  0  0
 22 23  1  0  0  0  0
 22 50  1  0  0  0  0
 23 24  2  0  0  0  0
 23 51  1  0  0  0  0
 24 25  1  0  0  0  0
 24 27  1  0  0  0  0
 25 26  2  0  0  0  0
 26 21  1  0  0  0  0
 26 52  1  0  0  0  0
 27 28  2  0  0  0  0
 28 29  1  0  0  0  0
 28 30  1  0  0  0  0
 29 25  1  0  0  0  0
 30 53  1  0  0  0  0
 30 54  1  0  0  0  0
 30 55  1  0  0  0  0
 31 32  1  0  0  0  0
 31 56  1  0  0  0  0
 32 33  2  0  0  0  0
 32 36  1  0  0  0  0
 33 34  1  0  0  0  0
 33 57  1  0  0  0  0
 34 35  2  0  0  0  0
 34 58  1  0  0  0  0
 35 15  1  0  0  0  0
 35 59  1  0  0  0  0
M  END
>  <Mol_ID>
4692

>  <Formula>
C27H23FN4O4

>  <MolWeight>
486.4943232

>  <Cat>
S8795

>  <Name>
FDL169

>  <Synonyms>
N/A

>  <Target>
CFTR

>  <Form>
Free Base

>  <CAS>
1628416-28-3

>  <URL>
http://www.selleck.cn/products/fdl169.html

$$$$
