Felbamate.cdx
 OpenBabel08302522013D

 31 31  0  0  0  0  0  0  0  0999 V2000
   -0.4589    1.0183    0.6353 C   0  0  0  0  0  0  0  0  0  0  0  0
   -1.2134   -0.1316    0.8838 C   0  0  0  0  0  0  0  0  0  0  0  0
   -0.7226   -1.3832    0.5238 C   0  0  0  0  0  0  0  0  0  0  0  0
    0.5190   -1.4853   -0.0968 C   0  0  0  0  0  0  0  0  0  0  0  0
    1.2792   -0.3374   -0.3350 C   0  0  0  0  0  0  0  0  0  0  0  0
    0.8107    0.9330    0.0426 C   0  0  0  0  0  0  0  0  0  0  0  0
    1.6751    2.1628   -0.2379 C   0  0  0  0  0  0  0  0  0  0  0  0
    1.3389    2.7731   -1.6114 C   0  0  0  0  0  0  0  0  0  0  0  0
    1.5748    3.2295    0.8720 C   0  0  0  0  0  0  0  0  0  0  0  0
    2.3907    4.3845    0.6006 O   0  0  0  0  0  0  0  0  0  0  0  0
    1.6876    1.8420   -2.6552 O   0  0  0  0  0  0  0  0  0  0  0  0
    3.6810    4.3025    0.9874 C   0  0  0  0  0  0  0  0  0  0  0  0
    4.3035    5.4783    0.7542 N   0  0  0  0  0  0  0  0  0  0  0  0
    4.2297    3.3326    1.4827 O   0  0  0  0  0  0  0  0  0  0  0  0
    0.6983    1.5116   -3.5102 C   0  0  0  0  0  0  0  0  0  0  0  0
    1.1264    0.5658   -4.3744 N   0  0  0  0  0  0  0  0  0  0  0  0
   -0.4349    1.9662   -3.5331 O   0  0  0  0  0  0  0  0  0  0  0  0
   -0.8918    1.9757    0.9111 H   0  0  0  0  0  0  0  0  0  0  0  0
   -2.1893   -0.0474    1.3554 H   0  0  0  0  0  0  0  0  0  0  0  0
   -1.3106   -2.2756    0.7198 H   0  0  0  0  0  0  0  0  0  0  0  0
    0.8971   -2.4594   -0.3955 H   0  0  0  0  0  0  0  0  0  0  0  0
    2.2440   -0.4406   -0.8279 H   0  0  0  0  0  0  0  0  0  0  0  0
    2.7209    1.8275   -0.2766 H   0  0  0  0  0  0  0  0  0  0  0  0
    0.2870    3.0801   -1.6480 H   0  0  0  0  0  0  0  0  0  0  0  0
    1.9461    3.6670   -1.7905 H   0  0  0  0  0  0  0  0  0  0  0  0
    0.5527    3.6144    0.9516 H   0  0  0  0  0  0  0  0  0  0  0  0
    1.8231    2.8071    1.8545 H   0  0  0  0  0  0  0  0  0  0  0  0
    5.2603    5.5912    1.0535 H   0  0  0  0  0  0  0  0  0  0  0  0
    3.7769    6.2672    0.4119 H   0  0  0  0  0  0  0  0  0  0  0  0
    0.4431    0.1409   -4.9826 H   0  0  0  0  0  0  0  0  0  0  0  0
    2.0252    0.1359   -4.2323 H   0  0  0  0  0  0  0  0  0  0  0  0
  1  2  2  0  0  0  0
  1 18  1  0  0  0  0
  2  3  1  0  0  0  0
  2 19  1  0  0  0  0
  3  4  2  0  0  0  0
  3 20  1  0  0  0  0
  4  5  1  0  0  0  0
  4 21  1  0  0  0  0
  5  6  2  0  0  0  0
  5 22  1  0  0  0  0
  6  1  1  0  0  0  0
  6  7  1  0  0  0  0
  7  8  1  0  0  0  0
  7  9  1  0  0  0  0
  7 23  1  0  0  0  0
  8 11  1  0  0  0  0
  8 24  1  0  0  0  0
  8 25  1  0  0  0  0
  9 10  1  0  0  0  0
  9 26  1  0  0  0  0
  9 27  1  0  0  0  0
 10 12  1  0  0  0  0
 11 15  1  0  0  0  0
 12 13  1  0  0  0  0
 12 14  2  0  0  0  0
 13 28  1  0  0  0  0
 13 29  1  0  0  0  0
 15 16  1  0  0  0  0
 15 17  2  0  0  0  0
 16 30  1  0  0  0  0
 16 31  1  0  0  0  0
M  END
>  <Mol_ID>
1104

>  <Formula>
C11H14N2O4

>  <MolWeight>
238.23986

>  <Cat>
S1330

>  <Name>
Felbamate

>  <Synonyms>
Felbatol, ADD-03055,W-554

>  <Target>
NMDAR

>  <Form>
free base

>  <CAS>
25451-15-4

>  <URL>
http://selleckchem.com/products/Felbamate.html

$$$$
