Felodipine.cdx
 OpenBabel08302519503D

 44 45  0  0  0  0  0  0  0  0999 V2000
   -1.4029   -1.0667    0.3898 C   0  0  0  0  0  0  0  0  0  0  0  0
   -1.4522    0.2840    0.2862 C   0  0  0  0  0  0  0  0  0  0  0  0
   -0.2770    1.0142    0.2997 N   0  0  0  0  0  0  0  0  0  0  0  0
    0.9935    0.4734    0.2464 C   0  0  0  0  0  0  0  0  0  0  0  0
    1.1644   -0.8597    0.4352 C   0  0  0  0  0  0  0  0  0  0  0  0
   -0.0538   -1.7952    0.5686 C   0  0  3  0  0  0  0  0  0  0  0  0
   -2.6807    1.1461    0.1038 C   0  0  0  0  0  0  0  0  0  0  0  0
    2.0568    1.4743   -0.1476 C   0  0  0  0  0  0  0  0  0  0  0  0
    2.4834   -1.5389    0.3337 C   0  0  0  0  0  0  0  0  0  0  0  0
   -2.6467   -1.8828    0.3418 C   0  0  0  0  0  0  0  0  0  0  0  0
    3.4856   -0.7506    0.8010 O   0  0  0  0  0  0  0  0  0  0  0  0
    4.8026   -1.2966    0.6857 C   0  0  0  0  0  0  0  0  0  0  0  0
    2.6209   -2.6715   -0.1051 O   0  0  0  0  0  0  0  0  0  0  0  0
   -0.1010   -2.6487    1.8481 C   0  0  0  0  0  0  0  0  0  0  0  0
   -0.0303   -2.0898    3.1323 C   0  0  0  0  0  0  0  0  0  0  0  0
   -0.3878   -2.8503    4.2529 C   0  0  0  0  0  0  0  0  0  0  0  0
   -0.8184   -4.1695    4.1083 C   0  0  0  0  0  0  0  0  0  0  0  0
   -0.8213   -4.7594    2.8500 C   0  0  0  0  0  0  0  0  0  0  0  0
   -0.4386   -4.0135    1.7354 C   0  0  0  0  0  0  0  0  0  0  0  0
   -2.4383   -3.0669   -0.2873 O   0  0  0  0  0  0  0  0  0  0  0  0
   -3.6189   -3.8409   -0.5455 C   0  0  0  0  0  0  0  0  0  0  0  0
   -4.2164   -4.4817    0.7006 C   0  0  0  0  0  0  0  0  0  0  0  0
   -3.7338   -1.5001    0.7656 O   0  0  0  0  0  0  0  0  0  0  0  0
   -0.3630    2.0105    0.1117 H   0  0  0  0  0  0  0  0  0  0  0  0
    0.0348   -2.4813   -0.2860 H   0  0  0  0  0  0  0  0  0  0  0  0
   -2.7172    1.9100    0.8895 H   0  0  0  0  0  0  0  0  0  0  0  0
   -2.6197    1.6618   -0.8617 H   0  0  0  0  0  0  0  0  0  0  0  0
   -3.6351    0.6244    0.1203 H   0  0  0  0  0  0  0  0  0  0  0  0
    1.6377    2.2048   -0.8532 H   0  0  0  0  0  0  0  0  0  0  0  0
    2.4127    2.0267    0.7268 H   0  0  0  0  0  0  0  0  0  0  0  0
    2.9024    1.0260   -0.6742 H   0  0  0  0  0  0  0  0  0  0  0  0
    4.8337   -2.3498    0.9790 H   0  0  0  0  0  0  0  0  0  0  0  0
    5.1710   -1.1703   -0.3379 H   0  0  0  0  0  0  0  0  0  0  0  0
    5.4591   -0.7345    1.3567 H   0  0  0  0  0  0  0  0  0  0  0  0
    0.2448   -1.0468    3.2698 H   0  0  0  0  0  0  0  0  0  0  0  0
   -0.3726   -2.3997    5.2423 H   0  0  0  0  0  0  0  0  0  0  0  0
   -1.1602   -4.7338    4.9719 H   0  0  0  0  0  0  0  0  0  0  0  0
   -1.1589   -5.7855    2.7257 H   0  0  0  0  0  0  0  0  0  0  0  0
   -0.4853   -4.4858    0.7552 H   0  0  0  0  0  0  0  0  0  0  0  0
   -4.3564   -3.2102   -1.0548 H   0  0  0  0  0  0  0  0  0  0  0  0
   -3.3371   -4.6314   -1.2504 H   0  0  0  0  0  0  0  0  0  0  0  0
   -4.2186   -3.8125    1.5650 H   0  0  0  0  0  0  0  0  0  0  0  0
   -5.2466   -4.7960    0.5030 H   0  0  0  0  0  0  0  0  0  0  0  0
   -3.6453   -5.3701    0.9885 H   0  0  0  0  0  0  0  0  0  0  0  0
  1  2  2  0  0  0  0
  1 10  1  0  0  0  0
  2  3  1  0  0  0  0
  2  7  1  0  0  0  0
  3  4  1  0  0  0  0
  3 24  1  0  0  0  0
  4  5  2  0  0  0  0
  4  8  1  0  0  0  0
  5  6  1  0  0  0  0
  5  9  1  0  0  0  0
  6  1  1  0  0  0  0
  6 14  1  0  0  0  0
  6 25  1  0  0  0  0
  7 26  1  0  0  0  0
  7 27  1  0  0  0  0
  7 28  1  0  0  0  0
  8 29  1  0  0  0  0
  8 30  1  0  0  0  0
  8 31  1  0  0  0  0
  9 11  1  0  0  0  0
  9 13  2  0  0  0  0
 10 20  1  0  0  0  0
 10 23  2  0  0  0  0
 11 12  1  0  0  0  0
 12 32  1  0  0  0  0
 12 33  1  0  0  0  0
 12 34  1  0  0  0  0
 14 15  2  0  0  0  0
 15 16  1  0  0  0  0
 15 35  1  0  0  0  0
 16 17  2  0  0  0  0
 16 36  1  0  0  0  0
 17 18  1  0  0  0  0
 17 37  1  0  0  0  0
 18 19  2  0  0  0  0
 18 38  1  0  0  0  0
 19 14  1  0  0  0  0
 19 39  1  0  0  0  0
 20 21  1  0  0  0  0
 21 22  1  0  0  0  0
 21 40  1  0  0  0  0
 21 41  1  0  0  0  0
 22 42  1  0  0  0  0
 22 43  1  0  0  0  0
 22 44  1  0  0  0  0
M  END
>  <Mol_ID>
168

>  <Formula>
C18H19Cl2NO4

>  <MolWeight>
384.25376

>  <Cat>
S1885

>  <Name>
Felodipine

>  <Synonyms>
CGH-869

>  <Target>
Calcium Channel

>  <Form>
free base

>  <CAS>
72509-76-3

>  <URL>
http://selleckchem.com/products/Felodipine(Plendil).html

$$$$
