FEN1-IN-4
 OpenBabel08302521313D

 29 31  0  0  0  0  0  0  0  0999 V2000
   -0.0605    0.7840   -0.0794 C   0  0  0  0  0  0  0  0  0  0  0  0
   -0.0504   -0.6116   -0.2126 C   0  0  0  0  0  0  0  0  0  0  0  0
    1.1866   -1.3240   -0.1463 N   0  0  0  0  0  0  0  0  0  0  0  0
    2.4024   -0.6498   -0.0709 C   0  0  0  0  0  0  0  0  0  0  0  0
    2.3368    0.7323   -0.1078 N   0  0  0  0  0  0  0  0  0  0  0  0
    1.2155    1.5181    0.0315 C   0  0  0  0  0  0  0  0  0  0  0  0
   -1.2661    1.5043   -0.0572 C   0  0  0  0  0  0  0  0  0  0  0  0
   -2.4777    0.8353   -0.2039 C   0  0  0  0  0  0  0  0  0  0  0  0
   -2.4834   -0.5437   -0.3877 C   0  0  0  0  0  0  0  0  0  0  0  0
   -1.2816   -1.2618   -0.3913 C   0  0  0  0  0  0  0  0  0  0  0  0
    1.2079    2.7306    0.2353 O   0  0  0  0  0  0  0  0  0  0  0  0
    3.4953   -1.2129    0.0441 O   0  0  0  0  0  0  0  0  0  0  0  0
    1.2115   -2.7810   -0.0301 C   0  0  0  0  0  0  0  0  0  0  0  0
    3.5838    1.3984   -0.0032 O   0  0  0  0  0  0  0  0  0  0  0  0
    1.2339   -3.5296   -1.3343 C   0  0  0  0  0  0  0  0  0  0  0  0
    2.3948   -3.4011   -2.2933 C   0  0  0  0  0  0  0  0  0  0  0  0
    1.0362   -2.8984   -2.6928 C   0  0  0  0  0  0  0  0  0  0  0  0
   -1.2590    2.5844    0.0720 H   0  0  0  0  0  0  0  0  0  0  0  0
   -3.4121    1.3910   -0.1860 H   0  0  0  0  0  0  0  0  0  0  0  0
   -3.4274   -1.0665   -0.5274 H   0  0  0  0  0  0  0  0  0  0  0  0
   -1.3434   -2.3337   -0.5560 H   0  0  0  0  0  0  0  0  0  0  0  0
    2.0884   -3.0848    0.5549 H   0  0  0  0  0  0  0  0  0  0  0  0
    0.3547   -3.1092    0.5706 H   0  0  0  0  0  0  0  0  0  0  0  0
    4.2046    0.6445    0.0728 H   0  0  0  0  0  0  0  0  0  0  0  0
    0.8619   -4.5405   -1.1887 H   0  0  0  0  0  0  0  0  0  0  0  0
    3.1710   -2.6704   -2.0980 H   0  0  0  0  0  0  0  0  0  0  0  0
    2.7634   -4.3042   -2.7684 H   0  0  0  0  0  0  0  0  0  0  0  0
    0.4859   -3.4661   -3.4353 H   0  0  0  0  0  0  0  0  0  0  0  0
    0.9122   -1.8269   -2.7863 H   0  0  0  0  0  0  0  0  0  0  0  0
  1  2  2  0  0  0  0
  1  7  1  0  0  0  0
  2  3  1  0  0  0  0
  3  4  1  0  0  0  0
  3 13  1  0  0  0  0
  4  5  1  0  0  0  0
  4 12  2  0  0  0  0
  5  6  1  0  0  0  0
  5 14  1  0  0  0  0
  6  1  1  0  0  0  0
  6 11  2  0  0  0  0
  7  8  2  0  0  0  0
  7 18  1  0  0  0  0
  8  9  1  0  0  0  0
  8 19  1  0  0  0  0
  9 10  2  0  0  0  0
  9 20  1  0  0  0  0
 10  2  1  0  0  0  0
 10 21  1  0  0  0  0
 13 15  1  0  0  0  0
 13 22  1  0  0  0  0
 13 23  1  0  0  0  0
 14 24  1  0  0  0  0
 15 16  1  0  0  0  0
 15 25  1  0  0  0  0
 16 17  1  0  0  0  0
 16 26  1  0  0  0  0
 16 27  1  0  0  0  0
 17 15  1  0  0  0  0
 17 28  1  0  0  0  0
 17 29  1  0  0  0  0
M  END
>  <Mol_ID>
5869

>  <Formula>
C12H12N2O3

>  <MolWeight>
232.23528

>  <Cat>
S3397

>  <Name>
FEN1-IN-4

>  <Synonyms>
FEN1 Inhibitor C2, JUN93587

>  <Target>
FENs

>  <Form>
Free Base

>  <CAS>
1995893-58-7

>  <URL>
http://www.selleckchem.com/products/fen1-in-4.html

$$$$
