Fenbufen.cdx
 OpenBabel08302522063D

 33 34  0  0  0  0  0  0  0  0999 V2000
    1.3285   -0.0428    0.5064 C   0  0  0  0  0  0  0  0  0  0  0  0
    0.4565   -1.1365    0.5253 C   0  0  0  0  0  0  0  0  0  0  0  0
   -0.8474   -1.0512    0.0009 C   0  0  0  0  0  0  0  0  0  0  0  0
   -1.2280    0.1804   -0.5644 C   0  0  0  0  0  0  0  0  0  0  0  0
   -0.3530    1.2718   -0.5991 C   0  0  0  0  0  0  0  0  0  0  0  0
    0.9229    1.1615   -0.0571 C   0  0  0  0  0  0  0  0  0  0  0  0
   -1.7908   -2.1947    0.0733 C   0  0  0  0  0  0  0  0  0  0  0  0
   -1.7611   -3.0916    1.1576 C   0  0  0  0  0  0  0  0  0  0  0  0
   -2.6770   -4.1440    1.2700 C   0  0  0  0  0  0  0  0  0  0  0  0
   -3.6678   -4.3125    0.3035 C   0  0  0  0  0  0  0  0  0  0  0  0
   -3.6993   -3.4588   -0.8021 C   0  0  0  0  0  0  0  0  0  0  0  0
   -2.7690   -2.4188   -0.9135 C   0  0  0  0  0  0  0  0  0  0  0  0
   -4.7155   -5.3619    0.4290 C   0  0  0  0  0  0  0  0  0  0  0  0
   -5.1227   -5.8475    1.8076 C   0  0  0  0  0  0  0  0  0  0  0  0
   -5.2513   -5.8176   -0.5778 O   0  0  0  0  0  0  0  0  0  0  0  0
   -5.7452   -4.7568    2.6671 C   0  0  0  0  0  0  0  0  0  0  0  0
   -6.9599   -4.1212    2.0422 C   0  0  0  0  0  0  0  0  0  0  0  0
   -8.0040   -4.9707    1.8874 O   0  0  0  0  0  0  0  0  0  0  0  0
   -7.0248   -2.9419    1.7362 O   0  0  0  0  0  0  0  0  0  0  0  0
    2.3234   -0.1362    0.9339 H   0  0  0  0  0  0  0  0  0  0  0  0
    0.8190   -2.0657    0.9596 H   0  0  0  0  0  0  0  0  0  0  0  0
   -2.2278    0.3177   -0.9701 H   0  0  0  0  0  0  0  0  0  0  0  0
   -0.6769    2.2103   -1.0412 H   0  0  0  0  0  0  0  0  0  0  0  0
    1.5985    2.0123   -0.0725 H   0  0  0  0  0  0  0  0  0  0  0  0
   -1.0321   -2.9678    1.9561 H   0  0  0  0  0  0  0  0  0  0  0  0
   -2.5965   -4.8041    2.1269 H   0  0  0  0  0  0  0  0  0  0  0  0
   -4.4587   -3.5852   -1.5721 H   0  0  0  0  0  0  0  0  0  0  0  0
   -2.8281   -1.7746   -1.7894 H   0  0  0  0  0  0  0  0  0  0  0  0
   -5.8376   -6.6664    1.6671 H   0  0  0  0  0  0  0  0  0  0  0  0
   -4.2563   -6.2945    2.3073 H   0  0  0  0  0  0  0  0  0  0  0  0
   -6.0308   -5.1545    3.6480 H   0  0  0  0  0  0  0  0  0  0  0  0
   -5.0237   -3.9554    2.8619 H   0  0  0  0  0  0  0  0  0  0  0  0
   -7.8340   -5.8905    2.1555 H   0  0  0  0  0  0  0  0  0  0  0  0
  1  2  2  0  0  0  0
  1 20  1  0  0  0  0
  2  3  1  0  0  0  0
  2 21  1  0  0  0  0
  3  4  2  0  0  0  0
  3  7  1  0  0  0  0
  4  5  1  0  0  0  0
  4 22  1  0  0  0  0
  5  6  2  0  0  0  0
  5 23  1  0  0  0  0
  6  1  1  0  0  0  0
  6 24  1  0  0  0  0
  7  8  2  0  0  0  0
  8  9  1  0  0  0  0
  8 25  1  0  0  0  0
  9 10  2  0  0  0  0
  9 26  1  0  0  0  0
 10 11  1  0  0  0  0
 10 13  1  0  0  0  0
 11 12  2  0  0  0  0
 11 27  1  0  0  0  0
 12  7  1  0  0  0  0
 12 28  1  0  0  0  0
 13 14  1  0  0  0  0
 13 15  2  0  0  0  0
 14 16  1  0  0  0  0
 14 29  1  0  0  0  0
 14 30  1  0  0  0  0
 16 17  1  0  0  0  0
 16 31  1  0  0  0  0
 16 32  1  0  0  0  0
 17 18  1  0  0  0  0
 17 19  2  0  0  0  0
 18 33  1  0  0  0  0
M  END
>  <Mol_ID>
1480

>  <Formula>
C16H14O3

>  <MolWeight>
254.28056

>  <Cat>
S4526

>  <Name>
Fenbufen

>  <Synonyms>
Lederfen, CL-82204

>  <Target>
COX

>  <Form>
free base

>  <CAS>
36330-85-5

>  <URL>
http://selleckchem.com/products/fenbufen.html

$$$$
