Fenofibric acid.cdx
 OpenBabel08302522063D

 37 38  0  0  0  0  0  0  0  0999 V2000
    1.1728    0.0530   -0.1110 C   0  0  0  0  0  0  0  0  0  0  0  0
    1.1060   -0.1401    1.4178 C   0  0  0  0  0  0  0  0  0  0  0  0
    0.6086    1.2967   -0.5593 O   0  0  0  0  0  0  0  0  0  0  0  0
    0.2380   -1.0143   -0.7158 C   0  0  0  0  0  0  0  0  0  0  0  0
    2.5778   -0.2250   -0.6626 C   0  0  0  0  0  0  0  0  0  0  0  0
    0.0290    0.4632    1.9842 O   0  0  0  0  0  0  0  0  0  0  0  0
    1.8942   -0.8055    2.0739 O   0  0  0  0  0  0  0  0  0  0  0  0
    1.0503    2.5144   -0.1324 C   0  0  0  0  0  0  0  0  0  0  0  0
    2.3350    2.8285    0.2967 C   0  0  0  0  0  0  0  0  0  0  0  0
    0.0911    3.5333   -0.1934 C   0  0  0  0  0  0  0  0  0  0  0  0
    2.6548    4.1367    0.6771 C   0  0  0  0  0  0  0  0  0  0  0  0
    0.4009    4.8409    0.1961 C   0  0  0  0  0  0  0  0  0  0  0  0
    1.6856    5.1429    0.6540 C   0  0  0  0  0  0  0  0  0  0  0  0
    2.0859    6.5105    1.0730 C   0  0  0  0  0  0  0  0  0  0  0  0
    1.1432    7.4269    1.7672 C   0  0  0  0  0  0  0  0  0  0  0  0
    3.2315    6.8889    0.8412 O   0  0  0  0  0  0  0  0  0  0  0  0
    1.3213    8.8060    1.6079 C   0  0  0  0  0  0  0  0  0  0  0  0
    0.1241    6.9514    2.6006 C   0  0  0  0  0  0  0  0  0  0  0  0
    0.4580    9.7016    2.2432 C   0  0  0  0  0  0  0  0  0  0  0  0
   -0.7433    7.8490    3.2264 C   0  0  0  0  0  0  0  0  0  0  0  0
   -0.5780    9.2217    3.0431 C   0  0  0  0  0  0  0  0  0  0  0  0
    0.2254   -0.9413   -1.8100 H   0  0  0  0  0  0  0  0  0  0  0  0
    0.5416   -2.0299   -0.4382 H   0  0  0  0  0  0  0  0  0  0  0  0
   -0.7965   -0.8709   -0.3822 H   0  0  0  0  0  0  0  0  0  0  0  0
    3.3662    0.1793   -0.0230 H   0  0  0  0  0  0  0  0  0  0  0  0
    2.7833   -1.3013   -0.7036 H   0  0  0  0  0  0  0  0  0  0  0  0
    2.7035    0.1929   -1.6661 H   0  0  0  0  0  0  0  0  0  0  0  0
   -0.4814    0.9718    1.3210 H   0  0  0  0  0  0  0  0  0  0  0  0
    3.1392    2.1099    0.3263 H   0  0  0  0  0  0  0  0  0  0  0  0
   -0.9122    3.3125   -0.5535 H   0  0  0  0  0  0  0  0  0  0  0  0
    3.6726    4.3686    0.9875 H   0  0  0  0  0  0  0  0  0  0  0  0
   -0.3628    5.6106    0.1171 H   0  0  0  0  0  0  0  0  0  0  0  0
    2.1350    9.1865    0.9936 H   0  0  0  0  0  0  0  0  0  0  0  0
   -0.0023    5.8887    2.7903 H   0  0  0  0  0  0  0  0  0  0  0  0
    0.5999   10.7715    2.1166 H   0  0  0  0  0  0  0  0  0  0  0  0
   -1.5416    7.4794    3.8654 H   0  0  0  0  0  0  0  0  0  0  0  0
   -1.2501    9.9208    3.5353 H   0  0  0  0  0  0  0  0  0  0  0  0
  1  2  1  0  0  0  0
  1  3  1  0  0  0  0
  1  4  1  0  0  0  0
  1  5  1  0  0  0  0
  2  6  1  0  0  0  0
  2  7  2  0  0  0  0
  3  8  1  0  0  0  0
  4 22  1  0  0  0  0
  4 23  1  0  0  0  0
  4 24  1  0  0  0  0
  5 25  1  0  0  0  0
  5 26  1  0  0  0  0
  5 27  1  0  0  0  0
  6 28  1  0  0  0  0
  8  9  2  0  0  0  0
  8 10  1  0  0  0  0
  9 11  1  0  0  0  0
  9 29  1  0  0  0  0
 10 12  2  0  0  0  0
 10 30  1  0  0  0  0
 11 13  2  0  0  0  0
 11 31  1  0  0  0  0
 12 13  1  0  0  0  0
 12 32  1  0  0  0  0
 13 14  1  0  0  0  0
 14 15  1  0  0  0  0
 14 16  2  0  0  0  0
 15 17  2  0  0  0  0
 15 18  1  0  0  0  0
 17 19  1  0  0  0  0
 17 33  1  0  0  0  0
 18 20  2  0  0  0  0
 18 34  1  0  0  0  0
 19 21  2  0  0  0  0
 19 35  1  0  0  0  0
 20 21  1  0  0  0  0
 20 36  1  0  0  0  0
 21 37  1  0  0  0  0
M  END
>  <Mol_ID>
1479

>  <Formula>
C17H15ClO4

>  <MolWeight>
318.7516

>  <Cat>
S4527

>  <Name>
Fenofibric acid

>  <Synonyms>
NSC 281318, Trilipix, FNF acid

>  <Target>
PPAR

>  <Form>
free base

>  <CAS>
42017-89-0

>  <URL>
http://selleckchem.com/products/fenofibric-acid.html

$$$$
