FENOFIBRATE (MICRONIZED) (fenofibrate).cdx
 OpenBabel08302521223D

 46 47  0  0  0  0  0  0  0  0999 V2000
   -4.6290    3.6817    1.5773 C   0  0  0  0  0  0  0  0  0  0  0  0
   -5.1699    2.4667    2.0016 C   0  0  0  0  0  0  0  0  0  0  0  0
   -4.3908    1.3112    1.9765 C   0  0  0  0  0  0  0  0  0  0  0  0
   -3.0688    1.3720    1.5341 C   0  0  0  0  0  0  0  0  0  0  0  0
   -2.5141    2.5914    1.1207 C   0  0  0  0  0  0  0  0  0  0  0  0
   -3.3048    3.7456    1.1313 C   0  0  0  0  0  0  0  0  0  0  0  0
   -1.1191    2.5826    0.6066 C   0  0  0  0  0  0  0  0  0  0  0  0
   -0.2000    3.7436    0.7369 C   0  0  0  0  0  0  0  0  0  0  0  0
   -0.7079    1.5694    0.0428 O   0  0  0  0  0  0  0  0  0  0  0  0
    0.7946    3.9090   -0.2360 C   0  0  0  0  0  0  0  0  0  0  0  0
    1.7094    4.9659   -0.1536 C   0  0  0  0  0  0  0  0  0  0  0  0
    1.6157    5.8909    0.8828 C   0  0  0  0  0  0  0  0  0  0  0  0
    0.6577    5.6938    1.8838 C   0  0  0  0  0  0  0  0  0  0  0  0
   -0.2448    4.6246    1.8198 C   0  0  0  0  0  0  0  0  0  0  0  0
    2.3856    7.0076    1.0402 O   0  0  0  0  0  0  0  0  0  0  0  0
    3.0220    7.6305   -0.0856 C   0  0  0  0  0  0  0  0  0  0  0  0
    4.3402    6.9517   -0.5676 C   0  0  0  0  0  0  0  0  0  0  0  0
    2.0178    7.9222   -1.2198 C   0  0  0  0  0  0  0  0  0  0  0  0
    3.4778    9.0151    0.4270 C   0  0  0  0  0  0  0  0  0  0  0  0
    5.0067    6.4061    0.4902 O   0  0  0  0  0  0  0  0  0  0  0  0
    4.7520    6.9996   -1.7180 O   0  0  0  0  0  0  0  0  0  0  0  0
    6.3754    5.9416    0.3726 C   0  0  0  0  0  0  0  0  0  0  0  0
    6.5776    4.8299   -0.6519 C   0  0  0  0  0  0  0  0  0  0  0  0
    7.3576    7.1013    0.2185 C   0  0  0  0  0  0  0  0  0  0  0  0
   -5.2472    4.5760    1.5810 H   0  0  0  0  0  0  0  0  0  0  0  0
   -6.2021    2.4171    2.3362 H   0  0  0  0  0  0  0  0  0  0  0  0
   -4.8153    0.3606    2.2889 H   0  0  0  0  0  0  0  0  0  0  0  0
   -2.4723    0.4618    1.5009 H   0  0  0  0  0  0  0  0  0  0  0  0
   -2.9197    4.6963    0.7699 H   0  0  0  0  0  0  0  0  0  0  0  0
    0.8620    3.2095   -1.0682 H   0  0  0  0  0  0  0  0  0  0  0  0
    2.4695    5.0365   -0.9247 H   0  0  0  0  0  0  0  0  0  0  0  0
    0.6086    6.3868    2.7213 H   0  0  0  0  0  0  0  0  0  0  0  0
   -0.9601    4.4924    2.6267 H   0  0  0  0  0  0  0  0  0  0  0  0
    1.1497    8.4685   -0.8273 H   0  0  0  0  0  0  0  0  0  0  0  0
    2.4665    8.5195   -2.0199 H   0  0  0  0  0  0  0  0  0  0  0  0
    1.6202    7.0205   -1.6911 H   0  0  0  0  0  0  0  0  0  0  0  0
    2.6183    9.6248    0.7293 H   0  0  0  0  0  0  0  0  0  0  0  0
    4.1207    8.9206    1.3091 H   0  0  0  0  0  0  0  0  0  0  0  0
    4.0344    9.5642   -0.3420 H   0  0  0  0  0  0  0  0  0  0  0  0
    6.5936    5.4853    1.3476 H   0  0  0  0  0  0  0  0  0  0  0  0
    6.2157    5.0908   -1.6478 H   0  0  0  0  0  0  0  0  0  0  0  0
    7.6382    4.5661   -0.7353 H   0  0  0  0  0  0  0  0  0  0  0  0
    6.0362    3.9312   -0.3384 H   0  0  0  0  0  0  0  0  0  0  0  0
    7.5971    7.5085    1.2090 H   0  0  0  0  0  0  0  0  0  0  0  0
    8.3042    6.7788   -0.2280 H   0  0  0  0  0  0  0  0  0  0  0  0
    6.9491    7.9286   -0.3672 H   0  0  0  0  0  0  0  0  0  0  0  0
  1  2  2  0  0  0  0
  1 25  1  0  0  0  0
  2  3  1  0  0  0  0
  2 26  1  0  0  0  0
  3  4  2  0  0  0  0
  3 27  1  0  0  0  0
  4  5  1  0  0  0  0
  4 28  1  0  0  0  0
  5  6  2  0  0  0  0
  5  7  1  0  0  0  0
  6  1  1  0  0  0  0
  6 29  1  0  0  0  0
  7  8  1  0  0  0  0
  7  9  2  0  0  0  0
  8 10  2  0  0  0  0
 10 11  1  0  0  0  0
 10 30  1  0  0  0  0
 11 12  2  0  0  0  0
 11 31  1  0  0  0  0
 12 13  1  0  0  0  0
 12 15  1  0  0  0  0
 13 14  2  0  0  0  0
 13 32  1  0  0  0  0
 14  8  1  0  0  0  0
 14 33  1  0  0  0  0
 15 16  1  0  0  0  0
 16 17  1  0  0  0  0
 16 18  1  0  0  0  0
 16 19  1  0  0  0  0
 17 20  1  0  0  0  0
 17 21  2  0  0  0  0
 18 34  1  0  0  0  0
 18 35  1  0  0  0  0
 18 36  1  0  0  0  0
 19 37  1  0  0  0  0
 19 38  1  0  0  0  0
 19 39  1  0  0  0  0
 20 22  1  0  0  0  0
 22 23  1  0  0  0  0
 22 24  1  0  0  0  0
 22 40  1  0  0  0  0
 23 41  1  0  0  0  0
 23 42  1  0  0  0  0
 23 43  1  0  0  0  0
 24 44  1  0  0  0  0
 24 45  1  0  0  0  0
 24 46  1  0  0  0  0
M  END
>  <Mol_ID>
444

>  <Formula>
C20H21ClO4

>  <MolWeight>
360.83134

>  <Cat>
S1794

>  <Name>
Fenofibrate (NSC-281319)

>  <Synonyms>
NSC-281319

>  <Target>
Autophagy,P450 (e.g. CYP17),PPAR

>  <Form>
free base

>  <CAS>
49562-28-9

>  <URL>
http://selleckchem.com/products/Fenofibrate(Tricor).html

$$$$
