Fenoterol
 OpenBabel08302520343D

 43 44  0  0  0  0  0  0  0  0999 V2000
    1.3254    3.8164    0.2840 C   0  0  0  0  0  0  0  0  0  0  0  0
    1.7760    5.1476    0.1920 C   0  0  0  0  0  0  0  0  0  0  0  0
    2.2847    2.8026    0.4577 C   0  0  0  0  0  0  0  0  0  0  0  0
   -0.1664    3.5127    0.2067 C   0  0  3  0  0  0  0  0  0  0  0  0
    3.1415    5.4350    0.2372 C   0  0  0  0  0  0  0  0  0  0  0  0
    3.6460    3.1116    0.4887 C   0  0  0  0  0  0  0  0  0  0  0  0
   -0.7877    3.9403   -1.1566 C   0  0  0  0  0  0  0  0  0  0  0  0
   -0.4034    2.1107    0.4113 O   0  0  0  0  0  0  0  0  0  0  0  0
    4.0813    4.4235    0.3721 C   0  0  0  0  0  0  0  0  0  0  0  0
    3.6009    6.7165    0.1499 O   0  0  0  0  0  0  0  0  0  0  0  0
    4.5906    2.1383    0.6315 O   0  0  0  0  0  0  0  0  0  0  0  0
   -2.2120    3.5871   -1.2549 N   0  0  0  0  0  0  0  0  0  0  0  0
   -2.8491    3.9489   -2.5367 C   0  0  3  0  0  0  0  0  0  0  0  0
   -2.2470    3.1898   -3.7452 C   0  0  0  0  0  0  0  0  0  0  0  0
   -4.3491    3.6568   -2.3917 C   0  0  0  0  0  0  0  0  0  0  0  0
   -2.8691    3.4592   -5.0982 C   0  0  0  0  0  0  0  0  0  0  0  0
   -2.8985    4.7514   -5.6471 C   0  0  0  0  0  0  0  0  0  0  0  0
   -3.3557    2.3894   -5.8658 C   0  0  0  0  0  0  0  0  0  0  0  0
   -3.4040    4.9658   -6.9335 C   0  0  0  0  0  0  0  0  0  0  0  0
   -3.8569    2.6032   -7.1497 C   0  0  0  0  0  0  0  0  0  0  0  0
   -3.8759    3.8883   -7.6744 C   0  0  0  0  0  0  0  0  0  0  0  0
   -4.3623    4.0472   -8.9386 O   0  0  0  0  0  0  0  0  0  0  0  0
    1.0575    5.9560    0.0849 H   0  0  0  0  0  0  0  0  0  0  0  0
    1.9701    1.7704    0.5800 H   0  0  0  0  0  0  0  0  0  0  0  0
   -0.6676    4.0372    1.0290 H   0  0  0  0  0  0  0  0  0  0  0  0
   -0.6729    5.0202   -1.2995 H   0  0  0  0  0  0  0  0  0  0  0  0
   -0.2257    3.4323   -1.9477 H   0  0  0  0  0  0  0  0  0  0  0  0
   -0.2213    1.6688   -0.4341 H   0  0  0  0  0  0  0  0  0  0  0  0
    5.1411    4.6552    0.3999 H   0  0  0  0  0  0  0  0  0  0  0  0
    2.8455    7.3255    0.1758 H   0  0  0  0  0  0  0  0  0  0  0  0
    4.1460    1.2775    0.6944 H   0  0  0  0  0  0  0  0  0  0  0  0
   -2.3465    2.5978   -1.0389 H   0  0  0  0  0  0  0  0  0  0  0  0
   -2.7385    5.0305   -2.6810 H   0  0  0  0  0  0  0  0  0  0  0  0
   -1.1841    3.4372   -3.8518 H   0  0  0  0  0  0  0  0  0  0  0  0
   -2.2848    2.1120   -3.5369 H   0  0  0  0  0  0  0  0  0  0  0  0
   -4.7529    4.0956   -1.4716 H   0  0  0  0  0  0  0  0  0  0  0  0
   -4.9155    4.0885   -3.2240 H   0  0  0  0  0  0  0  0  0  0  0  0
   -4.5505    2.5797   -2.3674 H   0  0  0  0  0  0  0  0  0  0  0  0
   -2.5116    5.5975   -5.0845 H   0  0  0  0  0  0  0  0  0  0  0  0
   -3.3350    1.3739   -5.4746 H   0  0  0  0  0  0  0  0  0  0  0  0
   -3.4086    5.9720   -7.3415 H   0  0  0  0  0  0  0  0  0  0  0  0
   -4.2196    1.7679   -7.7415 H   0  0  0  0  0  0  0  0  0  0  0  0
   -4.3326    4.9904   -9.1662 H   0  0  0  0  0  0  0  0  0  0  0  0
  1  2  2  0  0  0  0
  1  3  1  0  0  0  0
  1  4  1  0  0  0  0
  2  5  1  0  0  0  0
  2 23  1  0  0  0  0
  3  6  2  0  0  0  0
  3 24  1  0  0  0  0
  4  7  1  0  0  0  0
  4  8  1  0  0  0  0
  4 25  1  0  0  0  0
  5  9  2  0  0  0  0
  5 10  1  0  0  0  0
  6 11  1  0  0  0  0
  6  9  1  0  0  0  0
  7 12  1  0  0  0  0
  7 26  1  0  0  0  0
  7 27  1  0  0  0  0
  8 28  1  0  0  0  0
  9 29  1  0  0  0  0
 10 30  1  0  0  0  0
 11 31  1  0  0  0  0
 12 13  1  0  0  0  0
 12 32  1  0  0  0  0
 13 14  1  0  0  0  0
 13 15  1  0  0  0  0
 13 33  1  0  0  0  0
 14 16  1  0  0  0  0
 14 34  1  0  0  0  0
 14 35  1  0  0  0  0
 15 36  1  0  0  0  0
 15 37  1  0  0  0  0
 15 38  1  0  0  0  0
 16 17  2  0  0  0  0
 16 18  1  0  0  0  0
 17 19  1  0  0  0  0
 17 39  1  0  0  0  0
 18 20  2  0  0  0  0
 18 40  1  0  0  0  0
 19 21  2  0  0  0  0
 19 41  1  0  0  0  0
 20 21  1  0  0  0  0
 20 42  1  0  0  0  0
 21 22  1  0  0  0  0
 22 43  1  0  0  0  0
M  END
>  <Mol_ID>
3410

>  <Formula>
C17H21NO4

>  <MolWeight>
303.35294

>  <Cat>
S5769

>  <Name>
Fenoterol

>  <Synonyms>
Phenoterol

>  <Target>
Adrenergic Receptor

>  <Form>
Free Base

>  <CAS>
13392-18-2

>  <URL>
http://www.selleckchem.com/products/fenoterol.html

$$$$
