Fenoterol hydrobromide
 OpenBabel08302520343D

 45 45  0  0  0  0  0  0  0  0999 V2000
    5.2221    3.3095   -0.8125 C   0  0  0  0  0  0  0  0  0  0  0  0
    6.0529    4.3148   -0.2754 C   0  0  0  0  0  0  0  0  0  0  0  0
    5.7478    2.4673   -1.8132 C   0  0  0  0  0  0  0  0  0  0  0  0
    7.3692    4.4758   -0.7397 C   0  0  0  0  0  0  0  0  0  0  0  0
    7.0656    2.6204   -2.2663 C   0  0  0  0  0  0  0  0  0  0  0  0
    7.8719    3.6239   -1.7279 C   0  0  0  0  0  0  0  0  0  0  0  0
    1.8547    3.6061    1.0972 N   0  0  0  0  0  0  0  0  0  0  0  0
    3.7799    3.0839   -0.3747 C   0  0  3  0  0  0  0  0  0  0  0  0
    3.2840    3.8929    0.8534 C   0  0  0  0  0  0  0  0  0  0  0  0
    0.4526    6.4362    1.2852 C   0  0  0  0  0  0  0  0  0  0  0  0
   -0.7991    8.0478   -0.6715 C   0  0  0  0  0  0  0  0  0  0  0  0
    1.2307    5.7122    2.3801 C   0  0  0  0  0  0  0  0  0  0  0  0
    8.1644    5.4439   -0.2428 O   0  0  0  0  0  0  0  0  0  0  0  0
    7.5701    1.8055   -3.2173 O   0  0  0  0  0  0  0  0  0  0  0  0
   -0.6712    7.2245    1.6112 C   0  0  0  0  0  0  0  0  0  0  0  0
    0.9095    6.4387   -0.0445 C   0  0  0  0  0  0  0  0  0  0  0  0
   -1.2926    8.0209    0.6372 C   0  0  0  0  0  0  0  0  0  0  0  0
    0.2923    7.2432   -1.0125 C   0  0  0  0  0  0  0  0  0  0  0  0
    2.9230    3.2878   -1.4703 O   0  0  0  0  0  0  0  0  0  0  0  0
   -1.3640    8.8678   -1.5842 O   0  0  0  0  0  0  0  0  0  0  0  0
    1.3450    4.1616    2.3688 C   0  0  3  0  0  0  0  0  0  0  0  0
    0.0062    3.5049    2.7444 C   0  0  0  0  0  0  0  0  0  0  0  0
    1.8647   -0.1221    2.7917 Br  0  0  0  0  0  0  0  0  0  0  0  0
    5.6903    4.9883    0.4889 H   0  0  0  0  0  0  0  0  0  0  0  0
    5.1279    1.6859   -2.2388 H   0  0  0  0  0  0  0  0  0  0  0  0
    8.8884    3.7463   -2.0798 H   0  0  0  0  0  0  0  0  0  0  0  0
    1.7613    2.5649    1.1514 H   0  0  0  0  0  0  0  0  0  0  0  0
    3.7020    2.0140   -0.0820 H   0  0  0  0  0  0  0  0  0  0  0  0
    3.8982    3.6079    1.7368 H   0  0  0  0  0  0  0  0  0  0  0  0
    3.4237    4.9752    0.6752 H   0  0  0  0  0  0  0  0  0  0  0  0
    0.8073    5.9923    3.3706 H   0  0  0  0  0  0  0  0  0  0  0  0
    2.2543    6.1354    2.3579 H   0  0  0  0  0  0  0  0  0  0  0  0
    7.8615    6.0643    0.4363 H   0  0  0  0  0  0  0  0  0  0  0  0
    7.0495    1.0914   -3.6124 H   0  0  0  0  0  0  0  0  0  0  0  0
   -1.0505    7.2552    2.6233 H   0  0  0  0  0  0  0  0  0  0  0  0
    1.7640    5.8716   -0.3469 H   0  0  0  0  0  0  0  0  0  0  0  0
   -2.1392    8.6405    0.9050 H   0  0  0  0  0  0  0  0  0  0  0  0
    0.6851    7.2523   -2.0224 H   0  0  0  0  0  0  0  0  0  0  0  0
    2.9742    4.2496   -1.7098 H   0  0  0  0  0  0  0  0  0  0  0  0
   -0.9987    8.9674   -2.4771 H   0  0  0  0  0  0  0  0  0  0  0  0
    2.0431    3.8807    3.1918 H   0  0  0  0  0  0  0  0  0  0  0  0
    0.1328    2.4034    2.8256 H   0  0  0  0  0  0  0  0  0  0  0  0
   -0.3268    3.8632    3.7431 H   0  0  0  0  0  0  0  0  0  0  0  0
   -0.7799    3.7224    1.9940 H   0  0  0  0  0  0  0  0  0  0  0  0
    2.7931    0.4436    1.7181 H   0  0  0  0  0  0  0  0  0  0  0  0
  2  1  2  0  0  0  0
  2 24  1  0  0  0  0
  3  1  1  0  0  0  0
  3 25  1  0  0  0  0
  4  2  1  0  0  0  0
  5  3  2  0  0  0  0
  6  5  1  0  0  0  0
  6  4  2  0  0  0  0
  6 26  1  0  0  0  0
  7  9  1  0  0  0  0
  7 27  1  0  0  0  0
  8  1  1  0  0  0  0
  8 19  1  0  0  0  0
  8 28  1  0  0  0  0
  9  8  1  0  0  0  0
  9 29  1  0  0  0  0
  9 30  1  0  0  0  0
 10 12  1  0  0  0  0
 11 17  2  0  0  0  0
 11 18  1  0  0  0  0
 12 21  1  0  0  0  0
 12 31  1  0  0  0  0
 12 32  1  0  0  0  0
 13  4  1  0  0  0  0
 13 33  1  0  0  0  0
 14  5  1  0  0  0  0
 14 34  1  0  0  0  0
 15 10  2  0  0  0  0
 15 35  1  0  0  0  0
 16 10  1  0  0  0  0
 16 36  1  0  0  0  0
 17 15  1  0  0  0  0
 17 37  1  0  0  0  0
 18 16  2  0  0  0  0
 18 38  1  0  0  0  0
 19 39  1  0  0  0  0
 20 11  1  0  0  0  0
 20 40  1  0  0  0  0
 21  7  1  0  0  0  0
 21 22  1  0  0  0  0
 21 41  1  0  0  0  0
 22 42  1  0  0  0  0
 22 43  1  0  0  0  0
 22 44  1  0  0  0  0
 23 45  1  0  0  0  0
M  END
>  <Mol_ID>
3409

>  <Formula>
C17H22BrNO4

>  <MolWeight>
384.26488

>  <Cat>
S5768

>  <Name>
Fenoterol hydrobromide

>  <Synonyms>
Phenoterol hydrobromide

>  <Target>
Adrenergic Receptor

>  <Form>
hydrobromide

>  <CAS>
1944-12-3

>  <URL>
http://www.selleckchem.com/products/fenoterol-hydrobromide.html

$$$$
