Fenspiride hydrochloride.cdx
 OpenBabel08302522043D

 39 41  0  0  0  0  0  0  0  0999 V2000
    4.3693    2.4409    0.0288 C   0  0  0  0  0  0  0  0  0  0  0  0
    5.6552    1.9255   -0.1327 C   0  0  0  0  0  0  0  0  0  0  0  0
    3.2493    1.6687   -0.3091 C   0  0  0  0  0  0  0  0  0  0  0  0
    3.4346    0.3718   -0.8024 C   0  0  0  0  0  0  0  0  0  0  0  0
    4.7213   -0.1399   -0.9634 C   0  0  0  0  0  0  0  0  0  0  0  0
    5.8322    0.6365   -0.6324 C   0  0  0  0  0  0  0  0  0  0  0  0
    1.8637    2.2483   -0.1714 C   0  0  0  0  0  0  0  0  0  0  0  0
    1.4223    2.9798   -1.4539 C   0  0  0  0  0  0  0  0  0  0  0  0
    0.0433    3.5078   -1.4129 N   0  0  0  0  0  0  0  0  0  0  0  0
   -0.3256    4.1563   -2.6834 C   0  0  0  0  0  0  0  0  0  0  0  0
    0.2373    5.5701   -2.8556 C   0  0  0  0  0  0  0  0  0  0  0  0
   -0.1100    6.4519   -1.6564 C   0  0  0  0  0  0  0  0  0  0  0  0
    0.3643    5.7641   -0.3720 C   0  0  0  0  0  0  0  0  0  0  0  0
   -0.2433    4.3682   -0.2590 C   0  0  0  0  0  0  0  0  0  0  0  0
   -1.5831    6.8487   -1.6100 C   0  0  0  0  0  0  0  0  0  0  0  0
   -1.5202    8.1821   -1.1264 N   0  0  0  0  0  0  0  0  0  0  0  0
   -0.2820    8.7091   -1.3701 C   0  0  0  0  0  0  0  0  0  0  0  0
    0.5697    7.7219   -1.7812 O   0  0  0  0  0  0  0  0  0  0  0  0
    0.0110    9.8859   -1.2692 O   0  0  0  0  0  0  0  0  0  0  0  0
    4.2461    3.4485    0.4177 H   0  0  0  0  0  0  0  0  0  0  0  0
    6.5182    2.5314    0.1305 H   0  0  0  0  0  0  0  0  0  0  0  0
    2.5771   -0.2443   -1.0649 H   0  0  0  0  0  0  0  0  0  0  0  0
    4.8608   -1.1467   -1.3506 H   0  0  0  0  0  0  0  0  0  0  0  0
    6.8328    0.2396   -0.7659 H   0  0  0  0  0  0  0  0  0  0  0  0
    1.1507    1.4532    0.0813 H   0  0  0  0  0  0  0  0  0  0  0  0
    1.8798    2.9315    0.6850 H   0  0  0  0  0  0  0  0  0  0  0  0
    2.1426    3.7737   -1.6856 H   0  0  0  0  0  0  0  0  0  0  0  0
    1.4794    2.2599   -2.2824 H   0  0  0  0  0  0  0  0  0  0  0  0
   -0.0217    3.5354   -3.5357 H   0  0  0  0  0  0  0  0  0  0  0  0
   -1.4203    4.2026   -2.7378 H   0  0  0  0  0  0  0  0  0  0  0  0
    1.3276    5.5346   -2.9853 H   0  0  0  0  0  0  0  0  0  0  0  0
   -0.1430    6.0184   -3.7825 H   0  0  0  0  0  0  0  0  0  0  0  0
    1.4619    5.7068   -0.3645 H   0  0  0  0  0  0  0  0  0  0  0  0
    0.1025    6.3613    0.5097 H   0  0  0  0  0  0  0  0  0  0  0  0
   -1.3320    4.4451   -0.1633 H   0  0  0  0  0  0  0  0  0  0  0  0
    0.0617    3.9061    0.6837 H   0  0  0  0  0  0  0  0  0  0  0  0
   -2.0380    6.8837   -2.6059 H   0  0  0  0  0  0  0  0  0  0  0  0
   -2.2143    6.2453   -0.9545 H   0  0  0  0  0  0  0  0  0  0  0  0
   -2.3022    8.8090   -0.9972 H   0  0  0  0  0  0  0  0  0  0  0  0
  1  2  2  0  0  0  0
  1  3  1  0  0  0  0
  1 20  1  0  0  0  0
  2 21  1  0  0  0  0
  3  4  2  0  0  0  0
  3  7  1  0  0  0  0
  4  5  1  0  0  0  0
  4 22  1  0  0  0  0
  5  6  2  0  0  0  0
  5 23  1  0  0  0  0
  6  2  1  0  0  0  0
  6 24  1  0  0  0  0
  7  8  1  0  0  0  0
  7 25  1  0  0  0  0
  7 26  1  0  0  0  0
  8  9  1  0  0  0  0
  8 27  1  0  0  0  0
  8 28  1  0  0  0  0
  9 10  1  0  0  0  0
 10 11  1  0  0  0  0
 10 29  1  0  0  0  0
 10 30  1  0  0  0  0
 11 12  1  0  0  0  0
 11 31  1  0  0  0  0
 11 32  1  0  0  0  0
 12 13  1  0  0  0  0
 12 15  1  0  0  0  0
 13 14  1  0  0  0  0
 13 33  1  0  0  0  0
 13 34  1  0  0  0  0
 14  9  1  0  0  0  0
 14 35  1  0  0  0  0
 14 36  1  0  0  0  0
 15 16  1  0  0  0  0
 15 37  1  0  0  0  0
 15 38  1  0  0  0  0
 16 17  1  0  0  0  0
 16 39  1  0  0  0  0
 17 18  1  0  0  0  0
 17 19  2  0  0  0  0
 18 12  1  0  0  0  0
M  END
>  <Mol_ID>
1325

>  <Formula>
C15H21ClN2O2

>  <MolWeight>
296.79244

>  <Cat>
S4090

>  <Name>
Fenspiride HCl

>  <Synonyms>
Decaspiride

>  <Target>
PDE

>  <Form>
Hydrochloride

>  <CAS>
5053-08-7

>  <URL>
http://selleckchem.com/products/Fenspiride-hcl.html

$$$$
