FERNISONE (prednisone).cdx
 OpenBabel08302520383D

 52 55  0  0  0  0  0  0  0  0999 V2000
    4.8922   -0.7615    0.8598 C   0  0  0  0  0  0  0  0  0  0  0  0
    5.0136   -2.2118    1.0504 C   0  0  0  0  0  0  0  0  0  0  0  0
    3.7541   -2.9877    0.9439 C   0  0  0  0  0  0  0  0  0  0  0  0
    2.6384   -2.4455    0.4146 C   0  0  0  0  0  0  0  0  0  0  0  0
    2.6686   -1.1014   -0.3134 C   0  0  2  0  0  0  0  0  0  0  0  0
    3.8244   -0.2542    0.2305 C   0  0  0  0  0  0  0  0  0  0  0  0
    1.3367   -3.1279    0.7299 C   0  0  0  0  0  0  0  0  0  0  0  0
    0.0295   -2.5467    0.1990 C   0  0  0  0  0  0  0  0  0  0  0  0
    0.0395   -1.0919   -0.2856 C   0  0  2  0  0  0  0  0  0  0  0  0
    1.3624   -0.3388   -0.0002 C   0  0  2  0  0  0  0  0  0  0  0  0
   -1.0591   -0.2357    0.3836 C   0  0  1  0  0  0  0  0  0  0  0  0
   -1.1799    1.2165   -0.1852 C   0  0  2  0  0  0  0  0  0  0  0  0
    0.1740    1.9338   -0.0674 C   0  0  0  0  0  0  0  0  0  0  0  0
    1.2362    1.0396   -0.6680 C   0  0  0  0  0  0  0  0  0  0  0  0
   -2.5094   -0.6903    0.4244 C   0  0  0  0  0  0  0  0  0  0  0  0
   -3.2079    0.5380    1.0398 C   0  0  0  0  0  0  0  0  0  0  0  0
   -2.3008    1.7684    0.7552 C   0  0  2  0  0  0  0  0  0  0  0  0
    6.0649   -2.7397    1.3787 O   0  0  0  0  0  0  0  0  0  0  0  0
    2.8951   -1.3352   -1.8168 C   0  0  0  0  0  0  0  0  0  0  0  0
    1.9104    1.4144   -1.6213 O   0  0  0  0  0  0  0  0  0  0  0  0
   -1.5994    1.2256   -1.6820 C   0  0  0  0  0  0  0  0  0  0  0  0
   -3.1036    2.9535    0.1873 C   0  0  0  0  0  0  0  0  0  0  0  0
   -1.6767    2.1371    1.9978 O   0  0  0  0  0  0  0  0  0  0  0  0
   -2.9137    4.3141    0.8504 C   0  0  0  0  0  0  0  0  0  0  0  0
   -3.9216    2.8199   -0.7288 O   0  0  0  0  0  0  0  0  0  0  0  0
   -3.6084    5.3498    0.1724 O   0  0  0  0  0  0  0  0  0  0  0  0
    5.6825   -0.1383    1.2628 H   0  0  0  0  0  0  0  0  0  0  0  0
    3.7701   -3.9530    1.4351 H   0  0  0  0  0  0  0  0  0  0  0  0
    3.7761    0.8264    0.1089 H   0  0  0  0  0  0  0  0  0  0  0  0
    1.3885   -4.1888    0.4495 H   0  0  0  0  0  0  0  0  0  0  0  0
    1.2499   -3.1182    1.8272 H   0  0  0  0  0  0  0  0  0  0  0  0
   -0.7221   -2.6862    0.9874 H   0  0  0  0  0  0  0  0  0  0  0  0
   -0.3239   -3.1833   -0.6232 H   0  0  0  0  0  0  0  0  0  0  0  0
   -0.1394   -1.1284   -1.3674 H   0  0  0  0  0  0  0  0  0  0  0  0
    1.3948   -0.1249    1.0817 H   0  0  0  0  0  0  0  0  0  0  0  0
   -0.7538   -0.1672    1.4420 H   0  0  0  0  0  0  0  0  0  0  0  0
    0.1689    2.8995   -0.5835 H   0  0  0  0  0  0  0  0  0  0  0  0
    0.4778    2.1194    0.9673 H   0  0  0  0  0  0  0  0  0  0  0  0
   -2.6695   -1.5779    1.0419 H   0  0  0  0  0  0  0  0  0  0  0  0
   -2.9038   -0.9058   -0.5732 H   0  0  0  0  0  0  0  0  0  0  0  0
   -4.2210    0.6430    0.6399 H   0  0  0  0  0  0  0  0  0  0  0  0
   -3.3016    0.3752    2.1205 H   0  0  0  0  0  0  0  0  0  0  0  0
    1.9667   -1.5710   -2.3459 H   0  0  0  0  0  0  0  0  0  0  0  0
    3.3413   -0.4626   -2.3092 H   0  0  0  0  0  0  0  0  0  0  0  0
    3.5889   -2.1659   -1.9965 H   0  0  0  0  0  0  0  0  0  0  0  0
   -0.9486    0.6024   -2.3030 H   0  0  0  0  0  0  0  0  0  0  0  0
   -2.6220    0.8712   -1.8400 H   0  0  0  0  0  0  0  0  0  0  0  0
   -1.5403    2.2391   -2.0956 H   0  0  0  0  0  0  0  0  0  0  0  0
   -2.3586    2.1993    2.6902 H   0  0  0  0  0  0  0  0  0  0  0  0
   -3.3082    4.2574    1.8689 H   0  0  0  0  0  0  0  0  0  0  0  0
   -1.8520    4.5713    0.8754 H   0  0  0  0  0  0  0  0  0  0  0  0
   -4.3803    4.9308   -0.2574 H   0  0  0  0  0  0  0  0  0  0  0  0
  1  2  1  0  0  0  0
  1 27  1  0  0  0  0
  2  3  1  0  0  0  0
  2 18  2  0  0  0  0
  3  4  2  0  0  0  0
  3 28  1  0  0  0  0
  4  5  1  0  0  0  0
  4  7  1  0  0  0  0
  5  6  1  0  0  0  0
  5 19  1  6  0  0  0
  6  1  2  0  0  0  0
  6 29  1  0  0  0  0
  7  8  1  0  0  0  0
  7 30  1  0  0  0  0
  7 31  1  0  0  0  0
  8 32  1  0  0  0  0
  8 33  1  0  0  0  0
  9  8  1  0  0  0  0
  9 10  1  0  0  0  0
  9 11  1  0  0  0  0
  9 34  1  6  0  0  0
 10  5  1  0  0  0  0
 10 14  1  0  0  0  0
 10 35  1  1  0  0  0
 11 12  1  0  0  0  0
 11 15  1  0  0  0  0
 11 36  1  1  0  0  0
 12 13  1  0  0  0  0
 12 21  1  6  0  0  0
 13 14  1  0  0  0  0
 13 37  1  0  0  0  0
 13 38  1  0  0  0  0
 14 20  2  0  0  0  0
 15 16  1  0  0  0  0
 15 39  1  0  0  0  0
 15 40  1  0  0  0  0
 16 17  1  0  0  0  0
 16 41  1  0  0  0  0
 16 42  1  0  0  0  0
 17 12  1  0  0  0  0
 17 22  1  6  0  0  0
 17 23  1  0  0  0  0
 19 43  1  0  0  0  0
 19 44  1  0  0  0  0
 19 45  1  0  0  0  0
 21 46  1  0  0  0  0
 21 47  1  0  0  0  0
 21 48  1  0  0  0  0
 22 24  1  0  0  0  0
 22 25  2  0  0  0  0
 23 49  1  0  0  0  0
 24 26  1  0  0  0  0
 24 50  1  0  0  0  0
 24 51  1  0  0  0  0
 26 52  1  0  0  0  0
M  END
>  <Mol_ID>
354

>  <Formula>
C21H26O5

>  <MolWeight>
358.42814

>  <Cat>
S1622

>  <Name>
Prednisone (NSC-10023)

>  <Synonyms>
Adasone,NSC-10023

>  <Target>
Glucocorticoid Receptor,Immunology & Inflammation related

>  <Form>
free base

>  <CAS>
53-03-2

>  <URL>
http://selleckchem.com/products/Prednisone.html

$$$$
