Ferrostatin-1 (Fer-1).cdx
 OpenBabel08302519573D

 41 42  0  0  0  0  0  0  0  0999 V2000
    0.8397   -0.0420   -0.0550 C   0  0  0  0  0  0  0  0  0  0  0  0
    0.1469    1.1758   -0.0527 C   0  0  0  0  0  0  0  0  0  0  0  0
   -1.2510    1.2203    0.0716 C   0  0  0  0  0  0  0  0  0  0  0  0
   -1.9864    0.0421    0.2410 C   0  0  0  0  0  0  0  0  0  0  0  0
   -1.3001   -1.1734    0.3144 C   0  0  0  0  0  0  0  0  0  0  0  0
    0.1019   -1.2291    0.2055 C   0  0  0  0  0  0  0  0  0  0  0  0
    2.2451   -0.1102   -0.1843 N   0  0  0  0  0  0  0  0  0  0  0  0
    0.7096   -2.5046    0.0897 N   0  0  0  0  0  0  0  0  0  0  0  0
   -3.4778    0.1184    0.2535 C   0  0  0  0  0  0  0  0  0  0  0  0
    2.9637    0.8508   -1.0485 C   0  0  0  0  0  0  0  0  0  0  0  0
    2.5678    0.6124   -2.5169 C   0  0  0  0  0  0  0  0  0  0  0  0
    3.5039    1.2617   -3.5290 C   0  0  0  0  0  0  0  0  0  0  0  0
    4.9526    0.8940   -3.2655 C   0  0  0  0  0  0  0  0  0  0  0  0
    5.3657    1.3075   -1.8633 C   0  0  0  0  0  0  0  0  0  0  0  0
    4.4760    0.6592   -0.8036 C   0  0  0  0  0  0  0  0  0  0  0  0
   -4.0117   -1.1011    0.5227 O   0  0  0  0  0  0  0  0  0  0  0  0
   -4.1056    1.1343   -0.0065 O   0  0  0  0  0  0  0  0  0  0  0  0
   -5.4161   -1.2361    0.2639 C   0  0  0  0  0  0  0  0  0  0  0  0
   -6.2548   -0.8238    1.4621 C   0  0  0  0  0  0  0  0  0  0  0  0
    0.6744    2.1160   -0.1749 H   0  0  0  0  0  0  0  0  0  0  0  0
   -1.7592    2.1776    0.0057 H   0  0  0  0  0  0  0  0  0  0  0  0
   -1.8527   -2.1013    0.4510 H   0  0  0  0  0  0  0  0  0  0  0  0
    2.4932   -1.0618   -0.4455 H   0  0  0  0  0  0  0  0  0  0  0  0
    0.1622   -3.2422    0.5233 H   0  0  0  0  0  0  0  0  0  0  0  0
    1.6655   -2.5165    0.4275 H   0  0  0  0  0  0  0  0  0  0  0  0
    2.7286    1.8842   -0.7688 H   0  0  0  0  0  0  0  0  0  0  0  0
    2.5256   -0.4655   -2.7196 H   0  0  0  0  0  0  0  0  0  0  0  0
    1.5535    0.9936   -2.6883 H   0  0  0  0  0  0  0  0  0  0  0  0
    3.2200    0.9445   -4.5388 H   0  0  0  0  0  0  0  0  0  0  0  0
    3.3894    2.3518   -3.4929 H   0  0  0  0  0  0  0  0  0  0  0  0
    5.0954   -0.1915   -3.3930 H   0  0  0  0  0  0  0  0  0  0  0  0
    5.6012    1.3841   -4.0056 H   0  0  0  0  0  0  0  0  0  0  0  0
    6.4092    1.0237   -1.6875 H   0  0  0  0  0  0  0  0  0  0  0  0
    5.3159    2.3997   -1.7744 H   0  0  0  0  0  0  0  0  0  0  0  0
    4.7377    1.0767    0.1790 H   0  0  0  0  0  0  0  0  0  0  0  0
    4.7197   -0.4086   -0.7504 H   0  0  0  0  0  0  0  0  0  0  0  0
   -5.6995   -0.6709   -0.6317 H   0  0  0  0  0  0  0  0  0  0  0  0
   -5.5974   -2.2924    0.0413 H   0  0  0  0  0  0  0  0  0  0  0  0
   -5.9685    0.1627    1.8342 H   0  0  0  0  0  0  0  0  0  0  0  0
   -7.3161   -0.8078    1.1919 H   0  0  0  0  0  0  0  0  0  0  0  0
   -6.1220   -1.5341    2.2828 H   0  0  0  0  0  0  0  0  0  0  0  0
  1  2  2  0  0  0  0
  1  7  1  0  0  0  0
  2  3  1  0  0  0  0
  2 20  1  0  0  0  0
  3  4  2  0  0  0  0
  3 21  1  0  0  0  0
  4  5  1  0  0  0  0
  4  9  1  0  0  0  0
  5  6  2  0  0  0  0
  5 22  1  0  0  0  0
  6  1  1  0  0  0  0
  6  8  1  0  0  0  0
  7 10  1  0  0  0  0
  7 23  1  0  0  0  0
  8 24  1  0  0  0  0
  8 25  1  0  0  0  0
  9 16  1  0  0  0  0
  9 17  2  0  0  0  0
 10 11  1  0  0  0  0
 10 26  1  0  0  0  0
 11 12  1  0  0  0  0
 11 27  1  0  0  0  0
 11 28  1  0  0  0  0
 12 13  1  0  0  0  0
 12 29  1  0  0  0  0
 12 30  1  0  0  0  0
 13 14  1  0  0  0  0
 13 31  1  0  0  0  0
 13 32  1  0  0  0  0
 14 15  1  0  0  0  0
 14 33  1  0  0  0  0
 14 34  1  0  0  0  0
 15 10  1  0  0  0  0
 15 35  1  0  0  0  0
 15 36  1  0  0  0  0
 16 18  1  0  0  0  0
 18 19  1  0  0  0  0
 18 37  1  0  0  0  0
 18 38  1  0  0  0  0
 19 39  1  0  0  0  0
 19 40  1  0  0  0  0
 19 41  1  0  0  0  0
M  END
>  <Mol_ID>
2256

>  <Formula>
C15H22N2O2

>  <MolWeight>
262.34738

>  <Cat>
S7243

>  <Name>
Ferrostatin-1 (Fer-1)

>  <Synonyms>
N/A

>  <Target>
Ferroptosis

>  <Form>
free base

>  <CAS>
347174-05-4

>  <URL>
https://www.selleckchem.com/products/ferrostatin-1.html

$$$$
