Fexinidazole
 OpenBabel08302521233D

 32 33  0  0  0  0  0  0  0  0999 V2000
   -0.1864    1.0876    0.0804 C   0  0  0  0  0  0  0  0  0  0  0  0
    0.0947    0.0836   -0.8321 N   0  0  0  0  0  0  0  0  0  0  0  0
   -0.9482    0.6305    1.0607 N   0  0  0  0  0  0  0  0  0  0  0  0
    0.3534    2.4808    0.0158 C   0  0  0  0  0  0  0  0  0  0  0  0
   -0.5713   -1.0359   -0.3953 C   0  0  0  0  0  0  0  0  0  0  0  0
    0.9383    0.2088   -1.9998 C   0  0  0  0  0  0  0  0  0  0  0  0
   -1.2007   -0.6814    0.7691 C   0  0  0  0  0  0  0  0  0  0  0  0
   -0.1031    3.0839   -1.1969 O   0  0  0  0  0  0  0  0  0  0  0  0
   -0.5880   -2.3043   -1.0396 N   0  3  0  0  0  0  0  0  0  0  0  0
    0.3074    4.3760   -1.4010 C   0  0  0  0  0  0  0  0  0  0  0  0
    0.0589   -2.4335   -2.0831 O   0  0  0  0  0  0  0  0  0  0  0  0
   -1.2569   -3.1899   -0.4922 O   0  5  0  0  0  0  0  0  0  0  0  0
    1.0765    5.1310   -0.5150 C   0  0  0  0  0  0  0  0  0  0  0  0
   -0.0934    4.9561   -2.6039 C   0  0  0  0  0  0  0  0  0  0  0  0
    1.4461    6.4423   -0.8290 C   0  0  0  0  0  0  0  0  0  0  0  0
    0.2782    6.2711   -2.9175 C   0  0  0  0  0  0  0  0  0  0  0  0
    1.0555    7.0306   -2.0326 C   0  0  0  0  0  0  0  0  0  0  0  0
    1.4792    8.6985   -2.5184 S   0  0  0  0  0  0  0  0  0  0  0  0
    2.4537    9.3057   -1.1123 C   0  0  0  0  0  0  0  0  0  0  0  0
   -0.0275    3.0388    0.8797 H   0  0  0  0  0  0  0  0  0  0  0  0
    1.4491    2.4441    0.0456 H   0  0  0  0  0  0  0  0  0  0  0  0
    1.7398   -0.5315   -1.9333 H   0  0  0  0  0  0  0  0  0  0  0  0
    0.3241    0.0536   -2.8899 H   0  0  0  0  0  0  0  0  0  0  0  0
    1.3941    1.1986   -2.0456 H   0  0  0  0  0  0  0  0  0  0  0  0
   -1.8178   -1.2943    1.4147 H   0  0  0  0  0  0  0  0  0  0  0  0
    1.4083    4.7406    0.4413 H   0  0  0  0  0  0  0  0  0  0  0  0
   -0.7009    4.3905   -3.3067 H   0  0  0  0  0  0  0  0  0  0  0  0
    2.0448    6.9758   -0.0991 H   0  0  0  0  0  0  0  0  0  0  0  0
   -0.0500    6.6983   -3.8639 H   0  0  0  0  0  0  0  0  0  0  0  0
    1.8670    9.2771   -0.1896 H   0  0  0  0  0  0  0  0  0  0  0  0
    3.3672    8.7161   -0.9918 H   0  0  0  0  0  0  0  0  0  0  0  0
    2.7412   10.3440   -1.2973 H   0  0  0  0  0  0  0  0  0  0  0  0
  1  2  1  0  0  0  0
  1  3  2  0  0  0  0
  1  4  1  0  0  0  0
  2  5  1  0  0  0  0
  2  6  1  0  0  0  0
  3  7  1  0  0  0  0
  4  8  1  0  0  0  0
  4 20  1  0  0  0  0
  4 21  1  0  0  0  0
  5  9  1  0  0  0  0
  5  7  2  0  0  0  0
  6 22  1  0  0  0  0
  6 23  1  0  0  0  0
  6 24  1  0  0  0  0
  7 25  1  0  0  0  0
  8 10  1  0  0  0  0
  9 11  2  0  0  0  0
  9 12  1  0  0  0  0
 10 13  2  0  0  0  0
 10 14  1  0  0  0  0
 13 15  1  0  0  0  0
 13 26  1  0  0  0  0
 14 16  2  0  0  0  0
 14 27  1  0  0  0  0
 15 17  2  0  0  0  0
 15 28  1  0  0  0  0
 16 17  1  0  0  0  0
 16 29  1  0  0  0  0
 17 18  1  0  0  0  0
 18 19  1  0  0  0  0
 19 30  1  0  0  0  0
 19 31  1  0  0  0  0
 19 32  1  0  0  0  0
M  CHG  2   9   1  12  -1
M  END
>  <Mol_ID>
4884

>  <Formula>
C12H13N3O3S

>  <MolWeight>
279.31492

>  <Cat>
S2600

>  <Name>
Fexinidazole

>  <Synonyms>
HOE-239, Fexinidazole Winthrop

>  <Target>
DNA/RNA Synthesis

>  <Form>
Free Base

>  <CAS>
59729-37-2

>  <URL>
http://www.selleck.cn/products/fexinidazole.html

$$$$
