Fezolinetant
 OpenBabel08302521353D

 40 43  0  0  1  0  0  0  0  0999 V2000
    2.8723    0.2145    1.4163 C   0  0  0  0  0  0  0  0  0  0  0  0
    2.3746    1.9374   -1.3210 C   0  0  0  0  0  0  0  0  0  0  0  0
    1.2732    2.1236   -0.8044 O   0  0  0  0  0  0  0  0  0  0  0  0
    7.8115   -4.4583   -4.5362 C   0  0  0  0  0  0  0  0  0  0  0  0
    3.9010    5.7520   -5.1567 F   0  0  0  0  0  0  0  0  0  0  0  0
    4.1616   -1.7441   -1.2454 N   0  0  0  0  0  0  0  0  0  0  0  0
    4.2610   -3.1030   -1.3617 C   0  0  0  0  0  0  0  0  0  0  0  0
    3.1098   -1.5049   -0.3826 C   0  0  0  0  0  0  0  0  0  0  0  0
    4.8975   -0.6798   -1.8974 C   0  0  0  0  0  0  0  0  0  0  0  0
    3.3658   -3.6466   -0.5498 N   0  0  0  0  0  0  0  0  0  0  0  0
    2.5886   -0.1419   -0.0456 C   0  0  2  0  0  0  0  0  0  0  0  0
    2.6486   -2.6568    0.0542 N   0  0  0  0  0  0  0  0  0  0  0  0
    4.6170    0.6745   -1.2250 C   0  0  0  0  0  0  0  0  0  0  0  0
    3.1751    0.8432   -0.9733 N   0  0  0  0  0  0  0  0  0  0  0  0
    5.1284   -3.8862   -2.1898 C   0  0  0  0  0  0  0  0  0  0  0  0
    4.9958   -5.6093   -2.1979 S   0  0  0  0  0  0  0  0  0  0  0  0
    6.0775   -3.4595   -3.0012 N   0  0  0  0  0  0  0  0  0  0  0  0
    6.2283   -5.8065   -3.2916 N   0  0  0  0  0  0  0  0  0  0  0  0
    6.6725   -4.5864   -3.5944 C   0  0  0  0  0  0  0  0  0  0  0  0
    2.8073    2.9226   -2.3520 C   0  0  0  0  0  0  0  0  0  0  0  0
    2.3562    4.2500   -2.2371 C   0  0  0  0  0  0  0  0  0  0  0  0
    3.5600    2.5579   -3.4749 C   0  0  0  0  0  0  0  0  0  0  0  0
    2.7163    5.2044   -3.1913 C   0  0  0  0  0  0  0  0  0  0  0  0
    3.9608    3.5222   -4.4013 C   0  0  0  0  0  0  0  0  0  0  0  0
    3.5347    4.8357   -4.2519 C   0  0  0  0  0  0  0  0  0  0  0  0
    2.3254    1.1169    1.7080 H   0  0  0  0  0  0  0  0  0  0  0  0
    2.5735   -0.5953    2.0908 H   0  0  0  0  0  0  0  0  0  0  0  0
    3.9355    0.4089    1.5947 H   0  0  0  0  0  0  0  0  0  0  0  0
    7.5679   -3.7774   -5.3552 H   0  0  0  0  0  0  0  0  0  0  0  0
    8.6966   -4.0875   -4.0124 H   0  0  0  0  0  0  0  0  0  0  0  0
    8.0695   -5.4303   -4.9762 H   0  0  0  0  0  0  0  0  0  0  0  0
    4.5704   -0.6672   -2.9422 H   0  0  0  0  0  0  0  0  0  0  0  0
    5.9648   -0.9113   -1.8501 H   0  0  0  0  0  0  0  0  0  0  0  0
    1.5008   -0.1657   -0.1857 H   0  0  0  0  0  0  0  0  0  0  0  0
    5.0450    1.5013   -1.7920 H   0  0  0  0  0  0  0  0  0  0  0  0
    5.1186    0.7147   -0.2507 H   0  0  0  0  0  0  0  0  0  0  0  0
    1.7074    4.5388   -1.4108 H   0  0  0  0  0  0  0  0  0  0  0  0
    3.8330    1.5239   -3.6536 H   0  0  0  0  0  0  0  0  0  0  0  0
    2.3605    6.2275   -3.1165 H   0  0  0  0  0  0  0  0  0  0  0  0
    4.5873    3.2530   -5.2458 H   0  0  0  0  0  0  0  0  0  0  0  0
  1 26  1  0  0  0  0
  1 27  1  0  0  0  0
  1 28  1  0  0  0  0
  2  3  2  0  0  0  0
  2 14  1  0  0  0  0
  2 20  1  0  0  0  0
  4 19  1  0  0  0  0
  4 29  1  0  0  0  0
  4 30  1  0  0  0  0
  4 31  1  0  0  0  0
  5 25  1  0  0  0  0
  6  7  1  0  0  0  0
  6  8  1  0  0  0  0
  6  9  1  0  0  0  0
  7 10  2  0  0  0  0
  7 15  1  0  0  0  0
  8 11  1  0  0  0  0
  8 12  2  0  0  0  0
  9 13  1  0  0  0  0
  9 32  1  0  0  0  0
  9 33  1  0  0  0  0
 10 12  1  0  0  0  0
 11 14  1  0  0  0  0
 11 34  1  6  0  0  0
 11  1  1  0  0  0  0
 13 14  1  0  0  0  0
 13 35  1  0  0  0  0
 13 36  1  0  0  0  0
 15 16  1  0  0  0  0
 15 17  2  0  0  0  0
 16 18  1  0  0  0  0
 17 19  1  0  0  0  0
 18 19  2  0  0  0  0
 20 21  2  0  0  0  0
 20 22  1  0  0  0  0
 21 23  1  0  0  0  0
 21 37  1  0  0  0  0
 22 24  2  0  0  0  0
 22 38  1  0  0  0  0
 23 25  2  0  0  0  0
 23 39  1  0  0  0  0
 24 25  1  0  0  0  0
 24 40  1  0  0  0  0
M  END
>  <Mol_ID>
6933

>  <Formula>
C16H15FN6OS

>  <MolWeight>
358.3933032

>  <Cat>
E0109

>  <Name>
Fezolinetant

>  <Synonyms>
ESN-364

>  <Target>
Neurokinin Receptor

>  <Form>
free base

>  <CAS>
1629229-37-3

>  <URL>
https://www.selleckchem.com/products/fezolinetant.html

$$$$
