FG-2216.cdx
 OpenBabel08302519593D

 28 29  0  0  0  0  0  0  0  0999 V2000
   -2.4519    0.5623   -0.0044 C   0  0  0  0  0  0  0  0  0  0  0  0
   -2.3540   -0.8238   -0.0328 C   0  0  0  0  0  0  0  0  0  0  0  0
   -1.0982   -1.4362   -0.0204 C   0  0  0  0  0  0  0  0  0  0  0  0
    0.0760   -0.6668    0.0099 C   0  0  0  0  0  0  0  0  0  0  0  0
   -0.0090    0.7449    0.0332 C   0  0  0  0  0  0  0  0  0  0  0  0
   -1.2932    1.3378    0.0361 C   0  0  0  0  0  0  0  0  0  0  0  0
    1.3505   -1.2376   -0.0012 C   0  0  0  0  0  0  0  0  0  0  0  0
    2.5061   -0.5307   -0.0072 N   0  0  0  0  0  0  0  0  0  0  0  0
    2.3928    0.8333    0.0154 C   0  0  0  0  0  0  0  0  0  0  0  0
    1.1727    1.5039    0.0289 C   0  0  0  0  0  0  0  0  0  0  0  0
    1.0437    2.8688    0.0037 O   0  0  0  0  0  0  0  0  0  0  0  0
    3.7081    1.5581    0.0190 C   0  0  0  0  0  0  0  0  0  0  0  0
    4.8151    0.7518   -0.0932 N   0  0  0  0  0  0  0  0  0  0  0  0
    3.8006    2.7735    0.1456 O   0  0  0  0  0  0  0  0  0  0  0  0
    6.1856    1.2336   -0.1770 C   0  0  0  0  0  0  0  0  0  0  0  0
    6.8101    1.4906    1.1903 C   0  0  0  0  0  0  0  0  0  0  0  0
    6.0448    2.2606    1.9988 O   0  0  0  0  0  0  0  0  0  0  0  0
    7.9370    1.1288    1.5046 O   0  0  0  0  0  0  0  0  0  0  0  0
   -3.4265    1.0454   -0.0206 H   0  0  0  0  0  0  0  0  0  0  0  0
   -3.2545   -1.4316   -0.0682 H   0  0  0  0  0  0  0  0  0  0  0  0
   -1.0447   -2.5212   -0.0417 H   0  0  0  0  0  0  0  0  0  0  0  0
   -1.3942    2.4213    0.0626 H   0  0  0  0  0  0  0  0  0  0  0  0
    1.4757   -2.3117   -0.0207 H   0  0  0  0  0  0  0  0  0  0  0  0
    1.8153    3.2517   -0.4562 H   0  0  0  0  0  0  0  0  0  0  0  0
    4.6395   -0.2535   -0.1029 H   0  0  0  0  0  0  0  0  0  0  0  0
    6.7732    0.4765   -0.7051 H   0  0  0  0  0  0  0  0  0  0  0  0
    6.2154    2.1700   -0.7439 H   0  0  0  0  0  0  0  0  0  0  0  0
    5.2316    2.5751    1.5412 H   0  0  0  0  0  0  0  0  0  0  0  0
  1  2  2  0  0  0  0
  1 19  1  0  0  0  0
  2  3  1  0  0  0  0
  2 20  1  0  0  0  0
  3  4  2  0  0  0  0
  3 21  1  0  0  0  0
  4  5  1  0  0  0  0
  4  7  1  0  0  0  0
  5  6  2  0  0  0  0
  6  1  1  0  0  0  0
  6 22  1  0  0  0  0
  7  8  2  0  0  0  0
  7 23  1  0  0  0  0
  8  9  1  0  0  0  0
  9 10  2  0  0  0  0
  9 12  1  0  0  0  0
 10  5  1  0  0  0  0
 10 11  1  0  0  0  0
 11 24  1  0  0  0  0
 12 13  1  0  0  0  0
 12 14  2  0  0  0  0
 13 15  1  0  0  0  0
 13 25  1  0  0  0  0
 15 16  1  0  0  0  0
 15 26  1  0  0  0  0
 15 27  1  0  0  0  0
 16 17  1  0  0  0  0
 16 18  2  0  0  0  0
 17 28  1  0  0  0  0
M  END
>  <Mol_ID>
2644

>  <Formula>
C12H9ClN2O4

>  <MolWeight>
280.66386

>  <Cat>
S7979

>  <Name>
FG-2216

>  <Synonyms>
N/A

>  <Target>
HIF

>  <Form>
free base

>  <CAS>
223387-75-5

>  <URL>
http://selleckchem.com/products/fg-2216.html

$$$$
