FG-4592.cdx
 OpenBabel08302519593D

 42 44  0  0  0  0  0  0  0  0999 V2000
   -0.0131    0.7680    0.1428 C   0  0  0  0  0  0  0  0  0  0  0  0
    0.0184   -0.6435    0.0527 C   0  0  0  0  0  0  0  0  0  0  0  0
    1.2889   -1.2593   -0.0019 C   0  0  0  0  0  0  0  0  0  0  0  0
    2.4628   -0.5678   -0.0094 N   0  0  0  0  0  0  0  0  0  0  0  0
    2.3856    0.7919    0.0484 C   0  0  0  0  0  0  0  0  0  0  0  0
    1.1869    1.4914    0.1201 C   0  0  0  0  0  0  0  0  0  0  0  0
   -1.2528    1.4258    0.2309 C   0  0  0  0  0  0  0  0  0  0  0  0
   -2.4516    0.7243    0.1940 C   0  0  0  0  0  0  0  0  0  0  0  0
   -2.4388   -0.6508    0.0077 C   0  0  0  0  0  0  0  0  0  0  0  0
   -1.2182   -1.3361   -0.0069 C   0  0  0  0  0  0  0  0  0  0  0  0
    1.4314   -2.7576   -0.0521 C   0  0  0  0  0  0  0  0  0  0  0  0
    3.7158    1.4933    0.0437 C   0  0  0  0  0  0  0  0  0  0  0  0
    1.0934    2.8594    0.1406 O   0  0  0  0  0  0  0  0  0  0  0  0
    4.8104    0.6778   -0.1203 N   0  0  0  0  0  0  0  0  0  0  0  0
    3.8440    2.7046    0.2079 O   0  0  0  0  0  0  0  0  0  0  0  0
    6.1797    1.1659   -0.2113 C   0  0  0  0  0  0  0  0  0  0  0  0
    6.8199    1.3924    1.1520 C   0  0  0  0  0  0  0  0  0  0  0  0
    6.0804    2.1639    1.9831 O   0  0  0  0  0  0  0  0  0  0  0  0
    7.9403    1.0011    1.4434 O   0  0  0  0  0  0  0  0  0  0  0  0
   -3.5780   -1.4160   -0.1478 O   0  0  0  0  0  0  0  0  0  0  0  0
   -4.6625   -0.8506   -0.7861 C   0  0  0  0  0  0  0  0  0  0  0  0
   -4.5506    0.0144   -1.8817 C   0  0  0  0  0  0  0  0  0  0  0  0
   -5.6872    0.6306   -2.4068 C   0  0  0  0  0  0  0  0  0  0  0  0
   -6.9430    0.3286   -1.8856 C   0  0  0  0  0  0  0  0  0  0  0  0
   -7.0653   -0.6034   -0.8536 C   0  0  0  0  0  0  0  0  0  0  0  0
   -5.9258   -1.1939   -0.3036 C   0  0  0  0  0  0  0  0  0  0  0  0
   -1.2947    2.5133    0.3147 H   0  0  0  0  0  0  0  0  0  0  0  0
   -3.3834    1.2778    0.2695 H   0  0  0  0  0  0  0  0  0  0  0  0
   -1.2415   -2.4200   -0.0972 H   0  0  0  0  0  0  0  0  0  0  0  0
    1.0040   -3.2097    0.8475 H   0  0  0  0  0  0  0  0  0  0  0  0
    0.9326   -3.1599   -0.9386 H   0  0  0  0  0  0  0  0  0  0  0  0
    2.4870   -3.0448   -0.1035 H   0  0  0  0  0  0  0  0  0  0  0  0
    1.7508    3.2238   -0.4823 H   0  0  0  0  0  0  0  0  0  0  0  0
    4.6305   -0.3229   -0.1525 H   0  0  0  0  0  0  0  0  0  0  0  0
    6.7574    0.4200   -0.7611 H   0  0  0  0  0  0  0  0  0  0  0  0
    6.1957    2.1122   -0.7740 H   0  0  0  0  0  0  0  0  0  0  0  0
    5.2707    2.4973    1.5504 H   0  0  0  0  0  0  0  0  0  0  0  0
   -3.5803    0.2475   -2.3103 H   0  0  0  0  0  0  0  0  0  0  0  0
   -5.5875    1.3506   -3.2143 H   0  0  0  0  0  0  0  0  0  0  0  0
   -7.8278    0.8141   -2.2896 H   0  0  0  0  0  0  0  0  0  0  0  0
   -8.0495   -0.8593   -0.4698 H   0  0  0  0  0  0  0  0  0  0  0  0
   -6.0239   -1.9058    0.5110 H   0  0  0  0  0  0  0  0  0  0  0  0
  1  2  1  0  0  0  0
  1  7  1  0  0  0  0
  2  3  2  0  0  0  0
  3  4  1  0  0  0  0
  3 11  1  0  0  0  0
  4  5  2  0  0  0  0
  5  6  1  0  0  0  0
  5 12  1  0  0  0  0
  6  1  2  0  0  0  0
  6 13  1  0  0  0  0
  7  8  2  0  0  0  0
  7 27  1  0  0  0  0
  8  9  1  0  0  0  0
  8 28  1  0  0  0  0
  9 10  2  0  0  0  0
  9 20  1  0  0  0  0
 10  2  1  0  0  0  0
 10 29  1  0  0  0  0
 11 30  1  0  0  0  0
 11 31  1  0  0  0  0
 11 32  1  0  0  0  0
 12 14  1  0  0  0  0
 12 15  2  0  0  0  0
 13 33  1  0  0  0  0
 14 16  1  0  0  0  0
 14 34  1  0  0  0  0
 16 17  1  0  0  0  0
 16 35  1  0  0  0  0
 16 36  1  0  0  0  0
 17 18  1  0  0  0  0
 17 19  2  0  0  0  0
 18 37  1  0  0  0  0
 20 21  1  0  0  0  0
 21 22  2  0  0  0  0
 22 23  1  0  0  0  0
 22 38  1  0  0  0  0
 23 24  2  0  0  0  0
 23 39  1  0  0  0  0
 24 25  1  0  0  0  0
 24 40  1  0  0  0  0
 25 26  2  0  0  0  0
 25 41  1  0  0  0  0
 26 21  1  0  0  0  0
 26 42  1  0  0  0  0
M  END
>  <Mol_ID>
270

>  <Formula>
C19H16N2O5

>  <MolWeight>
352.34074

>  <Cat>
S1007

>  <Name>
Roxadustat (FG-4592)

>  <Synonyms>
ASP1517

>  <Target>
Ferroptosis,HIF

>  <Form>
free base

>  <CAS>
808118-40-3

>  <URL>
http://selleckchem.com/products/fg-4592.html

$$$$
