FH535.cdx
 OpenBabel08302519583D

 32 33  0  0  0  0  0  0  0  0999 V2000
    1.4166    2.9957    2.3386 C   0  0  0  0  0  0  0  0  0  0  0  0
    0.9312    1.7368    2.6963 C   0  0  0  0  0  0  0  0  0  0  0  0
   -0.2032    1.2175    2.0677 C   0  0  0  0  0  0  0  0  0  0  0  0
   -0.8574    1.9687    1.0831 C   0  0  0  0  0  0  0  0  0  0  0  0
   -0.3715    3.2311    0.7241 C   0  0  0  0  0  0  0  0  0  0  0  0
    0.7637    3.7428    1.3573 C   0  0  0  0  0  0  0  0  0  0  0  0
   -2.1713    1.2296    0.1304 S   0  0  0  0  0  0  0  0  0  0  0  0
   -3.5658    1.4853    1.0479 N   0  0  0  0  0  0  0  0  0  0  0  0
   -4.2977    2.6964    0.8861 C   0  0  0  0  0  0  0  0  0  0  0  0
   -5.3107    2.8445   -0.0805 C   0  0  0  0  0  0  0  0  0  0  0  0
   -5.9773    4.0814   -0.1819 C   0  0  0  0  0  0  0  0  0  0  0  0
   -5.6639    5.1301    0.6912 C   0  0  0  0  0  0  0  0  0  0  0  0
   -4.6732    4.9669    1.6648 C   0  0  0  0  0  0  0  0  0  0  0  0
   -3.9843    3.7515    1.7468 C   0  0  0  0  0  0  0  0  0  0  0  0
   -5.7126    1.7637   -1.0477 C   0  0  0  0  0  0  0  0  0  0  0  0
   -6.3887    6.4049    0.5923 N   0  3  0  0  0  0  0  0  0  0  0  0
   -7.2476    6.5128   -0.2963 O   0  0  0  0  0  0  0  0  0  0  0  0
   -6.0996    7.2937    1.4036 O   0  5  0  0  0  0  0  0  0  0  0  0
   -2.2818    1.9401   -1.1256 O   0  0  0  0  0  0  0  0  0  0  0  0
   -1.9549   -0.2022    0.1555 O   0  0  0  0  0  0  0  0  0  0  0  0
    2.3169    3.3859    2.8090 H   0  0  0  0  0  0  0  0  0  0  0  0
    1.4582    1.1494    3.4463 H   0  0  0  0  0  0  0  0  0  0  0  0
   -0.5440    0.2170    2.3242 H   0  0  0  0  0  0  0  0  0  0  0  0
   -0.8468    3.8042   -0.0683 H   0  0  0  0  0  0  0  0  0  0  0  0
    1.1591    4.7135    1.0651 H   0  0  0  0  0  0  0  0  0  0  0  0
   -4.1039    0.6211    1.1181 H   0  0  0  0  0  0  0  0  0  0  0  0
   -6.7470    4.2114   -0.9439 H   0  0  0  0  0  0  0  0  0  0  0  0
   -4.4289    5.7626    2.3650 H   0  0  0  0  0  0  0  0  0  0  0  0
   -3.2202    3.6260    2.5099 H   0  0  0  0  0  0  0  0  0  0  0  0
   -6.8055    1.7333   -1.1394 H   0  0  0  0  0  0  0  0  0  0  0  0
   -5.2866    1.9636   -2.0357 H   0  0  0  0  0  0  0  0  0  0  0  0
   -5.3984    0.7697   -0.7208 H   0  0  0  0  0  0  0  0  0  0  0  0
  1  2  2  0  0  0  0
  1 21  1  0  0  0  0
  2  3  1  0  0  0  0
  2 22  1  0  0  0  0
  3  4  2  0  0  0  0
  3 23  1  0  0  0  0
  4  5  1  0  0  0  0
  4  7  1  0  0  0  0
  5  6  2  0  0  0  0
  5 24  1  0  0  0  0
  6  1  1  0  0  0  0
  6 25  1  0  0  0  0
  7  8  1  0  0  0  0
  7 19  2  0  0  0  0
  7 20  2  0  0  0  0
  8  9  1  0  0  0  0
  8 26  1  0  0  0  0
  9 10  2  0  0  0  0
 10 11  1  0  0  0  0
 10 15  1  0  0  0  0
 11 12  2  0  0  0  0
 11 27  1  0  0  0  0
 12 13  1  0  0  0  0
 12 16  1  0  0  0  0
 13 14  2  0  0  0  0
 13 28  1  0  0  0  0
 14  9  1  0  0  0  0
 14 29  1  0  0  0  0
 15 30  1  0  0  0  0
 15 31  1  0  0  0  0
 15 32  1  0  0  0  0
 16 17  2  0  0  0  0
 16 18  1  0  0  0  0
M  CHG  2  16   1  18  -1
M  END
>  <Mol_ID>
2436

>  <Formula>
C13H10Cl2N2O4S

>  <MolWeight>
361.2005

>  <Cat>
S7484

>  <Name>
FH535

>  <Synonyms>
N/A

>  <Target>
PPAR,Wnt/beta-catenin

>  <Form>
free base

>  <CAS>
108409-83-2

>  <URL>
http://selleckchem.com/products/fh535.html

$$$$
