Fialuridine
 OpenBabel08302521353D

 28 29  0  0  1  0  0  0  0  0999 V2000
   -1.7563    0.6389    0.4918 F   0  0  0  0  0  0  0  0  0  0  0  0
   -2.8006   -0.1979   -2.4502 O   0  0  0  0  0  0  0  0  0  0  0  0
    1.6027    1.1988   -0.5474 O   0  0  0  0  0  0  0  0  0  0  0  0
    0.1342   -0.8947    2.2366 C   0  0  0  0  0  0  0  0  0  0  0  0
    0.4244   -2.2169    2.6844 O   0  0  0  0  0  0  0  0  0  0  0  0
   -2.9226   -5.5682    0.4445 I   0  0  0  0  0  0  0  0  0  0  0  0
   -5.0072   -4.0219   -1.5734 O   0  0  0  0  0  0  0  0  0  0  0  0
   -0.5787   -0.8717   -0.9258 C   0  0  1  0  0  0  0  0  0  0  0  0
   -0.7270    0.5622   -0.3977 C   0  0  2  0  0  0  0  0  0  0  0  0
    0.4199   -1.5287   -0.1012 O   0  0  0  0  0  0  0  0  0  0  0  0
    0.5716    0.7798    0.3538 C   0  0  1  0  0  0  0  0  0  0  0  0
    0.8668   -0.6047    0.9185 C   0  0  1  0  0  0  0  0  0  0  0  0
   -1.8092   -1.6718   -0.9716 N   0  0  0  0  0  0  0  0  0  0  0  0
   -2.8550   -1.2179   -1.7686 C   0  0  0  0  0  0  0  0  0  0  0  0
   -1.8822   -2.8986   -0.3408 C   0  0  0  0  0  0  0  0  0  0  0  0
   -3.9726   -2.0180   -1.7869 N   0  0  0  0  0  0  0  0  0  0  0  0
   -2.9163   -3.7312   -0.4500 C   0  0  0  0  0  0  0  0  0  0  0  0
   -4.0583   -3.2955   -1.2956 C   0  0  0  0  0  0  0  0  0  0  0  0
    2.0215    0.4143   -0.9464 H   0  0  0  0  0  0  0  0  0  0  0  0
    0.4668   -0.2036    3.0177 H   0  0  0  0  0  0  0  0  0  0  0  0
   -0.9516   -0.8179    2.1416 H   0  0  0  0  0  0  0  0  0  0  0  0
    0.1292   -2.8239    1.9861 H   0  0  0  0  0  0  0  0  0  0  0  0
   -0.1605   -0.8490   -1.9404 H   0  0  0  0  0  0  0  0  0  0  0  0
   -0.9028    1.2845   -1.1973 H   0  0  0  0  0  0  0  0  0  0  0  0
    0.4859    1.5380    1.1376 H   0  0  0  0  0  0  0  0  0  0  0  0
    1.9395   -0.7812    1.0508 H   0  0  0  0  0  0  0  0  0  0  0  0
   -1.0185   -3.1972    0.2469 H   0  0  0  0  0  0  0  0  0  0  0  0
   -4.7294   -1.7272   -2.3876 H   0  0  0  0  0  0  0  0  0  0  0  0
  2 14  2  0  0  0  0
  3 19  1  0  0  0  0
  4  5  1  0  0  0  0
  4 20  1  0  0  0  0
  4 21  1  0  0  0  0
  5 22  1  0  0  0  0
  6 17  1  0  0  0  0
  7 18  2  0  0  0  0
  8  9  1  0  0  0  0
  8 10  1  0  0  0  0
  8 13  1  0  0  0  0
  8 23  1  6  0  0  0
  9  1  1  0  0  0  0
  9 11  1  0  0  0  0
  9 24  1  6  0  0  0
 10 12  1  0  0  0  0
 11  3  1  0  0  0  0
 11 12  1  0  0  0  0
 11 25  1  1  0  0  0
 12  4  1  0  0  0  0
 12 26  1  1  0  0  0
 13 14  1  0  0  0  0
 13 15  1  0  0  0  0
 14 16  1  0  0  0  0
 15 17  2  0  0  0  0
 15 27  1  0  0  0  0
 16 18  1  0  0  0  0
 16 28  1  0  0  0  0
 17 18  1  0  0  0  0
M  END
>  <Mol_ID>
6969

>  <Formula>
C9H10FIN2O5

>  <MolWeight>
372.0889732

>  <Cat>
E1709

>  <Name>
Fialuridine

>  <Synonyms>
FIAU; DRG-0098; NSC 678514

>  <Target>
CMV

>  <Form>
free base

>  <CAS>
69123-98-4

>  <URL>
https://www.selleckchem.com/products/fialuridine.html

$$$$
