FICZ
 OpenBabel08302521303D

 34 38  0  0  0  0  0  0  0  0999 V2000
   -2.1860    1.6869    0.0120 N   0  0  0  0  0  0  0  0  0  0  0  0
   -1.0151    0.9632    0.0054 C   0  0  0  0  0  0  0  0  0  0  0  0
    0.3174    1.3934    0.0008 C   0  0  0  0  0  0  0  0  0  0  0  0
    1.3658    0.4500   -0.0052 C   0  0  0  0  0  0  0  0  0  0  0  0
    0.9992   -0.8998   -0.0046 C   0  0  0  0  0  0  0  0  0  0  0  0
   -0.3309   -1.3236    0.0004 C   0  0  0  0  0  0  0  0  0  0  0  0
   -1.3658   -0.3805    0.0056 C   0  0  0  0  0  0  0  0  0  0  0  0
   -2.7961   -0.4510    0.0082 C   0  0  0  0  0  0  0  0  0  0  0  0
   -3.7292   -1.5083    0.0094 C   0  0  0  0  0  0  0  0  0  0  0  0
   -5.0988   -1.2172    0.0004 C   0  0  0  0  0  0  0  0  0  0  0  0
   -5.5457    0.1024   -0.0090 C   0  0  0  0  0  0  0  0  0  0  0  0
   -4.6422    1.1680   -0.0052 C   0  0  0  0  0  0  0  0  0  0  0  0
   -3.2784    0.8579    0.0044 C   0  0  0  0  0  0  0  0  0  0  0  0
    2.1513   -1.6468   -0.0094 N   0  0  0  0  0  0  0  0  0  0  0  0
    2.8106    0.4834   -0.0092 C   0  0  0  0  0  0  0  0  0  0  0  0
    3.7941    1.4994   -0.0128 C   0  0  0  0  0  0  0  0  0  0  0  0
    5.1545    1.1675   -0.0041 C   0  0  0  0  0  0  0  0  0  0  0  0
    5.5578   -0.1600    0.0064 C   0  0  0  0  0  0  0  0  0  0  0  0
    4.6168   -1.1906    0.0037 C   0  0  0  0  0  0  0  0  0  0  0  0
    3.2606   -0.8393   -0.0044 C   0  0  0  0  0  0  0  0  0  0  0  0
    0.5776    2.8452    0.0034 C   0  0  0  0  0  0  0  0  0  0  0  0
   -0.3310    3.6738    0.0097 O   0  0  0  0  0  0  0  0  0  0  0  0
   -2.2078    2.7006    0.0157 H   0  0  0  0  0  0  0  0  0  0  0  0
   -0.5736   -2.3832   -0.0006 H   0  0  0  0  0  0  0  0  0  0  0  0
   -3.3917   -2.5403    0.0152 H   0  0  0  0  0  0  0  0  0  0  0  0
   -5.8203   -2.0303   -0.0009 H   0  0  0  0  0  0  0  0  0  0  0  0
   -6.6133    0.3093   -0.0189 H   0  0  0  0  0  0  0  0  0  0  0  0
   -4.9898    2.1960   -0.0116 H   0  0  0  0  0  0  0  0  0  0  0  0
    2.1795   -2.6559   -0.0114 H   0  0  0  0  0  0  0  0  0  0  0  0
    3.5333    2.5507   -0.0208 H   0  0  0  0  0  0  0  0  0  0  0  0
    5.8979    1.9617   -0.0035 H   0  0  0  0  0  0  0  0  0  0  0  0
    6.6189   -0.3995    0.0159 H   0  0  0  0  0  0  0  0  0  0  0  0
    4.9351   -2.2286    0.0097 H   0  0  0  0  0  0  0  0  0  0  0  0
    1.6206    3.1835   -0.0005 H   0  0  0  0  0  0  0  0  0  0  0  0
  1  2  1  0  0  0  0
  1 13  1  0  0  0  0
  1 23  1  0  0  0  0
  2  3  2  0  0  0  0
  2  7  1  0  0  0  0
  3  4  1  0  0  0  0
  3 21  1  0  0  0  0
  4  5  2  0  0  0  0
  4 15  1  0  0  0  0
  5  6  1  0  0  0  0
  5 14  1  0  0  0  0
  6  7  2  0  0  0  0
  6 24  1  0  0  0  0
  7  8  1  0  0  0  0
  8  9  1  0  0  0  0
  8 13  2  0  0  0  0
  9 10  2  0  0  0  0
  9 25  1  0  0  0  0
 10 11  1  0  0  0  0
 10 26  1  0  0  0  0
 11 12  2  0  0  0  0
 11 27  1  0  0  0  0
 12 13  1  0  0  0  0
 12 28  1  0  0  0  0
 14 20  1  0  0  0  0
 14 29  1  0  0  0  0
 15 16  2  0  0  0  0
 15 20  1  0  0  0  0
 16 17  1  0  0  0  0
 16 30  1  0  0  0  0
 17 18  2  0  0  0  0
 17 31  1  0  0  0  0
 18 19  1  0  0  0  0
 18 32  1  0  0  0  0
 19 20  2  0  0  0  0
 19 33  1  0  0  0  0
 21 22  2  0  0  0  0
 21 34  1  0  0  0  0
M  END
>  <Mol_ID>
5559

>  <Formula>
C19H12N2O

>  <MolWeight>
284.31138

>  <Cat>
S9682

>  <Name>
FICZ

>  <Synonyms>
6-Formylindolo[3,2-b]carbazole

>  <Target>
AhR

>  <Form>
Free Base

>  <CAS>
172922-91-7

>  <URL>
https://www.selleckchem.com/products/ficz.html

$$$$
