Filanesib hydrochloride
 OpenBabel08302521383D

 51 53  0  0  0  0  0  0  0  0999 V2000
    0.9166   -0.2099    0.1300 C   0  0  0  0  0  0  0  0  0  0  0  0
    0.2176   -0.4813   -1.2172 C   0  0  0  0  0  0  0  0  0  0  0  0
   -1.3034   -0.6236   -1.0991 C   0  0  0  0  0  0  0  0  0  0  0  0
   -1.6884   -1.7252   -0.2212 N   0  0  0  0  0  0  0  0  0  0  0  0
    2.3586    2.3570   -0.8500 C   0  0  0  0  0  0  0  0  0  0  0  0
    2.9710    3.3730   -1.5747 N   0  0  0  0  0  0  0  0  0  0  0  0
    1.3612    2.5996   -0.1575 O   0  0  0  0  0  0  0  0  0  0  0  0
    2.1371    4.5126   -1.7827 O   0  0  0  0  0  0  0  0  0  0  0  0
    3.9616    3.2879   -2.6340 C   0  0  0  0  0  0  0  0  0  0  0  0
    2.2984    5.4088   -0.6835 C   0  0  0  0  0  0  0  0  0  0  0  0
    6.7428    0.8254   -1.9836 F   0  0  0  0  0  0  0  0  0  0  0  0
    6.2967   -4.1572   -4.1445 F   0  0  0  0  0  0  0  0  0  0  0  0
    2.4591    0.0092    0.0578 C   0  0  2  0  0  0  0  0  0  0  0  0
    2.9032    1.0723   -0.8872 N   0  0  0  0  0  0  0  0  0  0  0  0
    3.2342   -1.5275   -0.7091 S   0  0  0  0  0  0  0  0  0  0  0  0
    4.0009    0.7579   -1.6794 N   0  0  0  0  0  0  0  0  0  0  0  0
    4.2769   -0.5046   -1.6529 C   0  0  0  0  0  0  0  0  0  0  0  0
    3.1255    0.1340    1.4565 C   0  0  0  0  0  0  0  0  0  0  0  0
    2.9453   -0.8796    2.4235 C   0  0  0  0  0  0  0  0  0  0  0  0
    4.0318    1.1653    1.7726 C   0  0  0  0  0  0  0  0  0  0  0  0
    3.6813   -0.8958    3.6117 C   0  0  0  0  0  0  0  0  0  0  0  0
    4.7585    1.1546    2.9684 C   0  0  0  0  0  0  0  0  0  0  0  0
    4.5974    0.1150    3.8779 C   0  0  0  0  0  0  0  0  0  0  0  0
    5.4075   -1.1128   -2.3804 C   0  0  0  0  0  0  0  0  0  0  0  0
    6.5975   -0.3952   -2.5187 C   0  0  0  0  0  0  0  0  0  0  0  0
    5.3066   -2.3914   -2.9406 C   0  0  0  0  0  0  0  0  0  0  0  0
    7.6893   -0.9503   -3.1900 C   0  0  0  0  0  0  0  0  0  0  0  0
    6.3973   -2.9315   -3.6122 C   0  0  0  0  0  0  0  0  0  0  0  0
    7.5882   -2.2275   -3.7401 C   0  0  0  0  0  0  0  0  0  0  0  0
    0.6965   -1.0489    0.8009 H   0  0  0  0  0  0  0  0  0  0  0  0
    0.4337    0.6489    0.6101 H   0  0  0  0  0  0  0  0  0  0  0  0
    0.4313    0.3309   -1.9208 H   0  0  0  0  0  0  0  0  0  0  0  0
    0.6065   -1.4006   -1.6691 H   0  0  0  0  0  0  0  0  0  0  0  0
   -1.7457    0.3074   -0.7302 H   0  0  0  0  0  0  0  0  0  0  0  0
   -1.7159   -0.8102   -2.0976 H   0  0  0  0  0  0  0  0  0  0  0  0
   -2.6816   -1.9200   -0.3461 H   0  0  0  0  0  0  0  0  0  0  0  0
   -1.1942   -2.5747   -0.4882 H   0  0  0  0  0  0  0  0  0  0  0  0
    4.9239    3.0106   -2.1940 H   0  0  0  0  0  0  0  0  0  0  0  0
    3.6572    2.5494   -3.3800 H   0  0  0  0  0  0  0  0  0  0  0  0
    4.0789    4.2602   -3.1237 H   0  0  0  0  0  0  0  0  0  0  0  0
    1.7418    5.0480    0.1862 H   0  0  0  0  0  0  0  0  0  0  0  0
    3.3546    5.5382   -0.4263 H   0  0  0  0  0  0  0  0  0  0  0  0
    1.8867    6.3797   -0.9709 H   0  0  0  0  0  0  0  0  0  0  0  0
    2.2667   -1.7100    2.2374 H   0  0  0  0  0  0  0  0  0  0  0  0
    4.2224    1.9831    1.0822 H   0  0  0  0  0  0  0  0  0  0  0  0
    3.5544   -1.7141    4.3158 H   0  0  0  0  0  0  0  0  0  0  0  0
    5.4697    1.9506    3.1753 H   0  0  0  0  0  0  0  0  0  0  0  0
    5.1892    0.0896    4.7888 H   0  0  0  0  0  0  0  0  0  0  0  0
    4.3953   -2.9781   -2.8776 H   0  0  0  0  0  0  0  0  0  0  0  0
    8.6127   -0.3839   -3.2739 H   0  0  0  0  0  0  0  0  0  0  0  0
    8.4254   -2.6771   -4.2656 H   0  0  0  0  0  0  0  0  0  0  0  0
  1  2  1  0  0  0  0
  1 30  1  0  0  0  0
  1 31  1  0  0  0  0
  2  3  1  0  0  0  0
  2 32  1  0  0  0  0
  2 33  1  0  0  0  0
  3  4  1  0  0  0  0
  3 34  1  0  0  0  0
  3 35  1  0  0  0  0
  4 36  1  0  0  0  0
  4 37  1  0  0  0  0
  5  6  1  0  0  0  0
  5  7  2  0  0  0  0
  5 14  1  0  0  0  0
  6  8  1  0  0  0  0
  6  9  1  0  0  0  0
  8 10  1  0  0  0  0
  9 38  1  0  0  0  0
  9 39  1  0  0  0  0
  9 40  1  0  0  0  0
 10 41  1  0  0  0  0
 10 42  1  0  0  0  0
 10 43  1  0  0  0  0
 11 25  1  0  0  0  0
 12 28  1  0  0  0  0
 13  1  1  1  0  0  0
 13 14  1  0  0  0  0
 13 15  1  0  0  0  0
 13 18  1  0  0  0  0
 14 16  1  0  0  0  0
 15 17  1  0  0  0  0
 16 17  2  0  0  0  0
 17 24  1  0  0  0  0
 18 19  2  0  0  0  0
 18 20  1  0  0  0  0
 19 21  1  0  0  0  0
 19 44  1  0  0  0  0
 20 22  2  0  0  0  0
 20 45  1  0  0  0  0
 21 23  2  0  0  0  0
 21 46  1  0  0  0  0
 22 23  1  0  0  0  0
 22 47  1  0  0  0  0
 23 48  1  0  0  0  0
 24 25  2  0  0  0  0
 24 26  1  0  0  0  0
 25 27  1  0  0  0  0
 26 28  2  0  0  0  0
 26 49  1  0  0  0  0
 27 29  2  0  0  0  0
 27 50  1  0  0  0  0
 28 29  1  0  0  0  0
 29 51  1  0  0  0  0
M  END
>  <Mol_ID>
7681

>  <Formula>
C20H23ClF2N4O2S

>  <MolWeight>
456.9370264

>  <Cat>
S7354

>  <Name>
Filanesib hydrochloride

>  <Synonyms>
ARRY-520 hydrochloride

>  <Target>
Kinesin

>  <Form>
hydrochloride

>  <CAS>
1385020-40-5

>  <URL>
https://www.selleckchem.com/products/filanesib.html

$$$$
