filgotinib.cdx
 OpenBabel08302519583D

 53 57  0  0  0  0  0  0  0  0999 V2000
   -2.0347    0.6942   -0.5301 C   0  0  0  0  0  0  0  0  0  0  0  0
   -1.9938   -0.7584   -0.5058 C   0  0  0  0  0  0  0  0  0  0  0  0
   -0.9305   -1.4256   -0.0266 C   0  0  0  0  0  0  0  0  0  0  0  0
    0.1842   -0.6956    0.4665 C   0  0  0  0  0  0  0  0  0  0  0  0
    0.1516    0.7004    0.4117 N   0  0  0  0  0  0  0  0  0  0  0  0
   -0.9741    1.4020   -0.0831 C   0  0  0  0  0  0  0  0  0  0  0  0
   -1.0398    2.8713   -0.1257 C   0  0  0  0  0  0  0  0  0  0  0  0
   -1.5697    3.5951    0.9499 C   0  0  0  0  0  0  0  0  0  0  0  0
   -1.5937    4.9944    0.9210 C   0  0  0  0  0  0  0  0  0  0  0  0
   -1.0726    5.6934   -0.1768 C   0  0  0  0  0  0  0  0  0  0  0  0
   -0.6108    4.9620   -1.2820 C   0  0  0  0  0  0  0  0  0  0  0  0
   -0.6005    3.5636   -1.2593 C   0  0  0  0  0  0  0  0  0  0  0  0
    1.3007   -1.1033    1.0135 N   0  0  0  0  0  0  0  0  0  0  0  0
    1.9646    0.0496    1.2800 C   0  0  0  0  0  0  0  0  0  0  0  0
    1.3412    1.1680    0.9039 N   0  0  0  0  0  0  0  0  0  0  0  0
    3.1935    0.0753    1.8831 N   0  0  0  0  0  0  0  0  0  0  0  0
    3.7906   -1.0208    2.4523 C   0  0  0  0  0  0  0  0  0  0  0  0
    5.1090   -0.7079    3.0904 C   0  0  0  0  0  0  0  0  0  0  0  0
    3.3474   -2.1586    2.5323 O   0  0  0  0  0  0  0  0  0  0  0  0
    5.9223   -1.7981    3.7573 C   0  0  0  0  0  0  0  0  0  0  0  0
    5.2243   -0.7713    4.5985 C   0  0  0  0  0  0  0  0  0  0  0  0
   -0.8966    7.2006   -0.1298 C   0  0  0  0  0  0  0  0  0  0  0  0
    0.4873    7.5718    0.2022 N   0  0  0  0  0  0  0  0  0  0  0  0
    0.9278    7.2433    1.5662 C   0  0  0  0  0  0  0  0  0  0  0  0
    0.4109    8.1520    2.6678 C   0  0  0  0  0  0  0  0  0  0  0  0
    0.8535    9.8352    2.3434 S   0  0  0  0  0  0  0  0  0  0  0  0
    0.3231   10.0457    0.6669 C   0  0  0  0  0  0  0  0  0  0  0  0
    0.8690    8.9285   -0.2026 C   0  0  0  0  0  0  0  0  0  0  0  0
    0.0160   10.6790    3.1767 O   0  0  0  0  0  0  0  0  0  0  0  0
    2.2967    9.9540    2.3909 O   0  0  0  0  0  0  0  0  0  0  0  0
   -2.9299    1.1720   -0.9171 H   0  0  0  0  0  0  0  0  0  0  0  0
   -2.8562   -1.2990   -0.8897 H   0  0  0  0  0  0  0  0  0  0  0  0
   -0.8894   -2.5069   -0.0070 H   0  0  0  0  0  0  0  0  0  0  0  0
   -1.9438    3.0781    1.8307 H   0  0  0  0  0  0  0  0  0  0  0  0
   -1.9744    5.5348    1.7845 H   0  0  0  0  0  0  0  0  0  0  0  0
   -0.2175    5.4805   -2.1542 H   0  0  0  0  0  0  0  0  0  0  0  0
   -0.2181    3.0220   -2.1216 H   0  0  0  0  0  0  0  0  0  0  0  0
    3.6034    0.9917    1.9582 H   0  0  0  0  0  0  0  0  0  0  0  0
    5.6884    0.0582    2.5856 H   0  0  0  0  0  0  0  0  0  0  0  0
    5.5288   -2.8102    3.7618 H   0  0  0  0  0  0  0  0  0  0  0  0
    7.0023   -1.7497    3.6864 H   0  0  0  0  0  0  0  0  0  0  0  0
    5.8320   -0.0274    5.0988 H   0  0  0  0  0  0  0  0  0  0  0  0
    4.3619   -1.1006    5.1695 H   0  0  0  0  0  0  0  0  0  0  0  0
   -1.1536    7.5798   -1.1289 H   0  0  0  0  0  0  0  0  0  0  0  0
   -1.6205    7.6565    0.5563 H   0  0  0  0  0  0  0  0  0  0  0  0
    2.0252    7.2624    1.5745 H   0  0  0  0  0  0  0  0  0  0  0  0
    0.6753    6.2086    1.8195 H   0  0  0  0  0  0  0  0  0  0  0  0
    0.8563    7.8842    3.6315 H   0  0  0  0  0  0  0  0  0  0  0  0
   -0.6778    8.1031    2.7654 H   0  0  0  0  0  0  0  0  0  0  0  0
   -0.7706   10.0730    0.6600 H   0  0  0  0  0  0  0  0  0  0  0  0
    0.6978   11.0183    0.3312 H   0  0  0  0  0  0  0  0  0  0  0  0
    1.9656    8.9808   -0.2095 H   0  0  0  0  0  0  0  0  0  0  0  0
    0.5713    9.1029   -1.2437 H   0  0  0  0  0  0  0  0  0  0  0  0
  1  2  1  0  0  0  0
  1 31  1  0  0  0  0
  2  3  2  0  0  0  0
  2 32  1  0  0  0  0
  3  4  1  0  0  0  0
  3 33  1  0  0  0  0
  4  5  1  0  0  0  0
  4 13  2  0  0  0  0
  5  6  1  0  0  0  0
  6  1  2  0  0  0  0
  6  7  1  0  0  0  0
  7  8  2  0  0  0  0
  8  9  1  0  0  0  0
  8 34  1  0  0  0  0
  9 10  2  0  0  0  0
  9 35  1  0  0  0  0
 10 11  1  0  0  0  0
 10 22  1  0  0  0  0
 11 12  2  0  0  0  0
 11 36  1  0  0  0  0
 12  7  1  0  0  0  0
 12 37  1  0  0  0  0
 13 14  1  0  0  0  0
 14 15  2  0  0  0  0
 14 16  1  0  0  0  0
 15  5  1  0  0  0  0
 16 17  1  0  0  0  0
 16 38  1  0  0  0  0
 17 18  1  0  0  0  0
 17 19  2  0  0  0  0
 18 20  1  0  0  0  0
 18 39  1  0  0  0  0
 20 21  1  0  0  0  0
 20 40  1  0  0  0  0
 20 41  1  0  0  0  0
 21 18  1  0  0  0  0
 21 42  1  0  0  0  0
 21 43  1  0  0  0  0
 22 23  1  0  0  0  0
 22 44  1  0  0  0  0
 22 45  1  0  0  0  0
 23 24  1  0  0  0  0
 24 25  1  0  0  0  0
 24 46  1  0  0  0  0
 24 47  1  0  0  0  0
 25 26  1  0  0  0  0
 25 48  1  0  0  0  0
 25 49  1  0  0  0  0
 26 27  1  0  0  0  0
 26 29  2  0  0  0  0
 26 30  2  0  0  0  0
 27 28  1  0  0  0  0
 27 50  1  0  0  0  0
 27 51  1  0  0  0  0
 28 23  1  0  0  0  0
 28 52  1  0  0  0  0
 28 53  1  0  0  0  0
M  END
>  <Mol_ID>
2468

>  <Formula>
C21H23N5O3S

>  <MolWeight>
425.50402

>  <Cat>
S7605

>  <Name>
Filgotinib (GLPG0634)

>  <Synonyms>
N/A

>  <Target>
JAK

>  <Form>
free base

>  <CAS>
1206161-97-8

>  <URL>
http://selleckchem.com/products/filgotinib.html

$$$$
