Fingolimod
 OpenBabel08302520143D

 55 55  0  0  0  0  0  0  0  0999 V2000
   -2.7469   -0.6436    1.3885 C   0  0  0  0  0  0  0  0  0  0  0  0
   -3.2865   -0.5238   -0.0601 C   0  0  0  0  0  0  0  0  0  0  0  0
   -4.8148   -0.8373   -0.0572 C   0  0  0  0  0  0  0  0  0  0  0  0
   -2.9634   -1.9554    1.9183 O   0  0  0  0  0  0  0  0  0  0  0  0
   -5.3574   -0.7862   -1.3786 O   0  0  0  0  0  0  0  0  0  0  0  0
   -3.0401    0.9026   -0.6432 C   0  0  0  0  0  0  0  0  0  0  0  0
   -1.5654    1.3284   -0.7157 C   0  0  0  0  0  0  0  0  0  0  0  0
   -1.3128    2.7242   -1.2547 C   0  0  0  0  0  0  0  0  0  0  0  0
   -1.8107    3.8625   -0.6086 C   0  0  0  0  0  0  0  0  0  0  0  0
   -1.4063    5.1457   -1.0042 C   0  0  0  0  0  0  0  0  0  0  0  0
   -0.4825    5.3160   -2.0413 C   0  0  0  0  0  0  0  0  0  0  0  0
   -0.0454    4.1835   -2.7378 C   0  0  0  0  0  0  0  0  0  0  0  0
   -0.4541    2.9029   -2.3476 C   0  0  0  0  0  0  0  0  0  0  0  0
    0.0566    6.6810   -2.4047 C   0  0  0  0  0  0  0  0  0  0  0  0
    0.7595    7.4309   -1.2594 C   0  0  0  0  0  0  0  0  0  0  0  0
    1.9880    6.7040   -0.6952 C   0  0  0  0  0  0  0  0  0  0  0  0
    2.6589    7.5232    0.4158 C   0  0  0  0  0  0  0  0  0  0  0  0
    3.8635    6.7947    1.0209 C   0  0  0  0  0  0  0  0  0  0  0  0
    4.5136    7.6197    2.1379 C   0  0  0  0  0  0  0  0  0  0  0  0
    5.7048    6.8894    2.7628 C   0  0  0  0  0  0  0  0  0  0  0  0
    6.3496    7.7091    3.8708 C   0  0  0  0  0  0  0  0  0  0  0  0
   -2.6175   -1.5363   -0.9192 N   0  0  0  0  0  0  0  0  0  0  0  0
   -3.2583    0.0637    2.0470 H   0  0  0  0  0  0  0  0  0  0  0  0
   -1.6726   -0.4457    1.4517 H   0  0  0  0  0  0  0  0  0  0  0  0
   -5.0118   -1.8437    0.3265 H   0  0  0  0  0  0  0  0  0  0  0  0
   -5.3650   -0.1303    0.5733 H   0  0  0  0  0  0  0  0  0  0  0  0
   -2.2502   -2.5113    1.5538 H   0  0  0  0  0  0  0  0  0  0  0  0
   -5.6004    0.1394   -1.5568 H   0  0  0  0  0  0  0  0  0  0  0  0
   -3.4625    0.9701   -1.6547 H   0  0  0  0  0  0  0  0  0  0  0  0
   -3.5994    1.6249   -0.0344 H   0  0  0  0  0  0  0  0  0  0  0  0
   -1.1078    1.2963    0.2792 H   0  0  0  0  0  0  0  0  0  0  0  0
   -1.0144    0.6051   -1.3287 H   0  0  0  0  0  0  0  0  0  0  0  0
   -2.4845    3.7665    0.2390 H   0  0  0  0  0  0  0  0  0  0  0  0
   -1.7937    6.0095   -0.4692 H   0  0  0  0  0  0  0  0  0  0  0  0
    0.6461    4.2818   -3.5716 H   0  0  0  0  0  0  0  0  0  0  0  0
   -0.0615    2.0424   -2.8848 H   0  0  0  0  0  0  0  0  0  0  0  0
    0.7583    6.5943   -3.2449 H   0  0  0  0  0  0  0  0  0  0  0  0
   -0.7783    7.2916   -2.7723 H   0  0  0  0  0  0  0  0  0  0  0  0
    1.0745    8.4101   -1.6401 H   0  0  0  0  0  0  0  0  0  0  0  0
    0.0475    7.6280   -0.4485 H   0  0  0  0  0  0  0  0  0  0  0  0
    1.6934    5.7290   -0.2914 H   0  0  0  0  0  0  0  0  0  0  0  0
    2.7088    6.5169   -1.5008 H   0  0  0  0  0  0  0  0  0  0  0  0
    2.9812    8.4904    0.0123 H   0  0  0  0  0  0  0  0  0  0  0  0
    1.9271    7.7306    1.2061 H   0  0  0  0  0  0  0  0  0  0  0  0
    3.5440    5.8258    1.4219 H   0  0  0  0  0  0  0  0  0  0  0  0
    4.6040    6.5931    0.2372 H   0  0  0  0  0  0  0  0  0  0  0  0
    4.8458    8.5832    1.7361 H   0  0  0  0  0  0  0  0  0  0  0  0
    3.7695    7.8338    2.9161 H   0  0  0  0  0  0  0  0  0  0  0  0
    5.3770    5.9277    3.1744 H   0  0  0  0  0  0  0  0  0  0  0  0
    6.4559    6.6743    1.9939 H   0  0  0  0  0  0  0  0  0  0  0  0
    5.6309    7.9321    4.6659 H   0  0  0  0  0  0  0  0  0  0  0  0
    7.1852    7.1567    4.3146 H   0  0  0  0  0  0  0  0  0  0  0  0
    6.7381    8.6562    3.4837 H   0  0  0  0  0  0  0  0  0  0  0  0
   -2.8395   -2.4609   -0.5416 H   0  0  0  0  0  0  0  0  0  0  0  0
   -3.1167   -1.5338   -1.8167 H   0  0  0  0  0  0  0  0  0  0  0  0
  1  2  1  0  0  0  0
  1  4  1  0  0  0  0
  1 23  1  0  0  0  0
  1 24  1  0  0  0  0
  2  3  1  0  0  0  0
  2  6  1  0  0  0  0
  2 22  1  0  0  0  0
  3  5  1  0  0  0  0
  3 25  1  0  0  0  0
  3 26  1  0  0  0  0
  4 27  1  0  0  0  0
  5 28  1  0  0  0  0
  6  7  1  0  0  0  0
  6 29  1  0  0  0  0
  6 30  1  0  0  0  0
  7  8  1  0  0  0  0
  7 31  1  0  0  0  0
  7 32  1  0  0  0  0
  8  9  2  0  0  0  0
  8 13  1  0  0  0  0
  9 10  1  0  0  0  0
  9 33  1  0  0  0  0
 10 11  2  0  0  0  0
 10 34  1  0  0  0  0
 11 12  1  0  0  0  0
 11 14  1  0  0  0  0
 12 13  2  0  0  0  0
 12 35  1  0  0  0  0
 13 36  1  0  0  0  0
 14 15  1  0  0  0  0
 14 37  1  0  0  0  0
 14 38  1  0  0  0  0
 15 16  1  0  0  0  0
 15 39  1  0  0  0  0
 15 40  1  0  0  0  0
 16 17  1  0  0  0  0
 16 41  1  0  0  0  0
 16 42  1  0  0  0  0
 17 18  1  0  0  0  0
 17 43  1  0  0  0  0
 17 44  1  0  0  0  0
 18 19  1  0  0  0  0
 18 45  1  0  0  0  0
 18 46  1  0  0  0  0
 19 20  1  0  0  0  0
 19 47  1  0  0  0  0
 19 48  1  0  0  0  0
 20 21  1  0  0  0  0
 20 49  1  0  0  0  0
 20 50  1  0  0  0  0
 21 51  1  0  0  0  0
 21 52  1  0  0  0  0
 21 53  1  0  0  0  0
 22 54  1  0  0  0  0
 22 55  1  0  0  0  0
M  END
>  <Mol_ID>
3195

>  <Formula>
C19H33NO2

>  <MolWeight>
307.47082

>  <Cat>
S5950

>  <Name>
Fingolimod

>  <Synonyms>
FTY-720A, FTY-720

>  <Target>
S1P Receptor

>  <Form>
Free Base

>  <CAS>
162359-55-9

>  <URL>
https://www.selleckchem.com/products/fingolimod.html

$$$$
