FINO2
 OpenBabel08302521353D

 46 47  0  0  0  0  0  0  0  0999 V2000
    1.3361    0.1098   -0.4812 C   0  0  0  0  0  0  0  0  0  0  0  0
    0.5353    1.1327   -1.2634 C   0  0  0  0  0  0  0  0  0  0  0  0
    1.2344    2.3731   -1.2815 O   0  0  0  0  0  0  0  0  0  0  0  0
    0.5924   -1.9775   -1.6903 C   0  0  0  0  0  0  0  0  0  0  0  0
   -1.9198   -1.0698    5.4575 C   0  0  0  0  0  0  0  0  0  0  0  0
   -0.6723   -1.9387    5.6868 C   0  0  0  0  0  0  0  0  0  0  0  0
   -1.7128    0.2450    6.2464 C   0  0  0  0  0  0  0  0  0  0  0  0
   -3.1018   -1.8142    6.1231 C   0  0  0  0  0  0  0  0  0  0  0  0
   -0.3042   -1.6848    1.8202 C   0  0  2  0  0  0  0  0  0  0  0  0
   -0.6541   -1.3251    0.3898 C   0  0  0  0  0  0  0  0  0  0  0  0
    0.9030   -2.4500    1.7033 O   0  0  0  0  0  0  0  0  0  0  0  0
   -1.3366   -2.6287    2.4629 C   0  0  0  0  0  0  0  0  0  0  0  0
   -0.0476   -0.4539    2.7026 C   0  0  0  0  0  0  0  0  0  0  0  0
    0.6880   -1.2804   -0.3305 C   0  0  3  0  0  0  0  0  0  0  0  0
    1.5978   -2.0398    0.4805 O   0  0  0  0  0  0  0  0  0  0  0  0
   -2.5751   -1.9388    3.0245 C   0  0  0  0  0  0  0  0  0  0  0  0
   -1.3245    0.2093    3.2051 C   0  0  0  0  0  0  0  0  0  0  0  0
   -2.2800   -0.7409    3.9507 C   0  0  2  0  0  0  0  0  0  0  0  0
    1.6009    0.5233    0.4974 H   0  0  0  0  0  0  0  0  0  0  0  0
    2.3223   -0.0063   -0.9530 H   0  0  0  0  0  0  0  0  0  0  0  0
    0.4012    0.8179   -2.3032 H   0  0  0  0  0  0  0  0  0  0  0  0
   -0.4477    1.3119   -0.8270 H   0  0  0  0  0  0  0  0  0  0  0  0
    1.3885    2.6470   -0.3601 H   0  0  0  0  0  0  0  0  0  0  0  0
   -0.1524   -1.5040   -2.3375 H   0  0  0  0  0  0  0  0  0  0  0  0
    1.5600   -1.9673   -2.2042 H   0  0  0  0  0  0  0  0  0  0  0  0
    0.3230   -3.0335   -1.5703 H   0  0  0  0  0  0  0  0  0  0  0  0
    0.2399   -1.4793    5.3139 H   0  0  0  0  0  0  0  0  0  0  0  0
   -0.5068   -2.0980    6.7614 H   0  0  0  0  0  0  0  0  0  0  0  0
   -0.7784   -2.9355    5.2534 H   0  0  0  0  0  0  0  0  0  0  0  0
   -2.5960    0.8896    6.1805 H   0  0  0  0  0  0  0  0  0  0  0  0
   -1.5281    0.0450    7.3084 H   0  0  0  0  0  0  0  0  0  0  0  0
   -0.8475    0.8084    5.8841 H   0  0  0  0  0  0  0  0  0  0  0  0
   -4.0429   -1.2723    5.9889 H   0  0  0  0  0  0  0  0  0  0  0  0
   -3.2251   -2.8232    5.7158 H   0  0  0  0  0  0  0  0  0  0  0  0
   -2.9366   -1.9269    7.2018 H   0  0  0  0  0  0  0  0  0  0  0  0
   -1.2687   -2.1238   -0.0462 H   0  0  0  0  0  0  0  0  0  0  0  0
   -1.2499   -0.4144    0.2951 H   0  0  0  0  0  0  0  0  0  0  0  0
   -0.8489   -3.2160    3.2453 H   0  0  0  0  0  0  0  0  0  0  0  0
   -1.6524   -3.3898    1.7364 H   0  0  0  0  0  0  0  0  0  0  0  0
    0.6100   -0.7201    3.5308 H   0  0  0  0  0  0  0  0  0  0  0  0
    0.5225    0.3043    2.1643 H   0  0  0  0  0  0  0  0  0  0  0  0
   -3.2181   -2.6749    3.5163 H   0  0  0  0  0  0  0  0  0  0  0  0
   -3.1618   -1.5684    2.1712 H   0  0  0  0  0  0  0  0  0  0  0  0
   -1.8630    0.6138    2.3360 H   0  0  0  0  0  0  0  0  0  0  0  0
   -1.0761    1.0886    3.8050 H   0  0  0  0  0  0  0  0  0  0  0  0
   -3.2321   -0.1890    4.0150 H   0  0  0  0  0  0  0  0  0  0  0  0
  1  2  1  0  0  0  0
  1 14  1  0  0  0  0
  1 19  1  0  0  0  0
  1 20  1  0  0  0  0
  2  3  1  0  0  0  0
  2 21  1  0  0  0  0
  2 22  1  0  0  0  0
  3 23  1  0  0  0  0
  4 14  1  0  0  0  0
  4 24  1  0  0  0  0
  4 25  1  0  0  0  0
  4 26  1  0  0  0  0
  5  6  1  0  0  0  0
  5  7  1  0  0  0  0
  5  8  1  0  0  0  0
  6 27  1  0  0  0  0
  6 28  1  0  0  0  0
  6 29  1  0  0  0  0
  7 30  1  0  0  0  0
  7 31  1  0  0  0  0
  7 32  1  0  0  0  0
  8 33  1  0  0  0  0
  8 34  1  0  0  0  0
  8 35  1  0  0  0  0
  9 10  1  0  0  0  0
  9 11  1  6  0  0  0
  9 12  1  0  0  0  0
  9 13  1  0  0  0  0
 10 14  1  0  0  0  0
 10 36  1  0  0  0  0
 10 37  1  0  0  0  0
 11 15  1  0  0  0  0
 12 16  1  0  0  0  0
 12 38  1  0  0  0  0
 12 39  1  0  0  0  0
 13 17  1  0  0  0  0
 13 40  1  0  0  0  0
 13 41  1  0  0  0  0
 14 15  1  0  0  0  0
 16 18  1  0  0  0  0
 16 42  1  0  0  0  0
 16 43  1  0  0  0  0
 17 18  1  0  0  0  0
 17 44  1  0  0  0  0
 17 45  1  0  0  0  0
 18 46  1  1  0  0  0
 18  5  1  0  0  0  0
M  END
>  <Mol_ID>
6909

>  <Formula>
C15H28O3

>  <MolWeight>
256.38102

>  <Cat>
E1244

>  <Name>
FINO2

>  <Target>
Peroxidases

>  <Form>
Free base

>  <CAS>
869298-31-7

>  <URL>
https://www.selleckchem.com/products/fino2.html

$$$$
