Fipexide hydrochloride
 OpenBabel08302520403D

 48 51  0  0  0  0  0  0  0  0999 V2000
    6.0833    0.5871   -3.4142 C   0  0  0  0  0  0  0  0  0  0  0  0
    4.8311    0.0221   -3.3494 C   0  0  0  0  0  0  0  0  0  0  0  0
    6.5363    1.4537   -2.4470 C   0  0  0  0  0  0  0  0  0  0  0  0
    6.7825    0.1768   -4.5082 O   0  0  0  0  0  0  0  0  0  0  0  0
    3.9671    0.2744   -2.3028 C   0  0  0  0  0  0  0  0  0  0  0  0
    4.5838   -0.8075   -4.4001 O   0  0  0  0  0  0  0  0  0  0  0  0
    5.6892    1.7157   -1.3627 C   0  0  0  0  0  0  0  0  0  0  0  0
    5.8675   -0.7923   -5.0589 C   0  0  0  0  0  0  0  0  0  0  0  0
    4.4109    1.1104   -1.2652 C   0  0  0  0  0  0  0  0  0  0  0  0
    3.5472    1.3332   -0.0325 C   0  0  0  0  0  0  0  0  0  0  0  0
    4.2638    1.0273    1.2127 N   0  0  0  0  0  0  0  0  0  0  0  0
    4.6107   -0.3987    1.3705 C   0  0  0  0  0  0  0  0  0  0  0  0
    3.5745    1.5154    2.4191 C   0  0  0  0  0  0  0  0  0  0  0  0
    3.4863   -1.3136    1.8856 C   0  0  0  0  0  0  0  0  0  0  0  0
    2.4332    0.6319    2.9674 C   0  0  0  0  0  0  0  0  0  0  0  0
    2.7987   -0.7816    3.0657 N   0  0  0  0  0  0  0  0  0  0  0  0
    2.1297   -1.7072    3.8660 C   0  0  0  0  0  0  0  0  0  0  0  0
    1.3385   -1.2371    5.1060 C   0  0  0  0  0  0  0  0  0  0  0  0
    2.1642   -2.9130    3.5924 O   0  0  0  0  0  0  0  0  0  0  0  0
    2.0863   -1.0735    6.3055 O   0  0  0  0  0  0  0  0  0  0  0  0
    2.1778   -2.1509    7.1456 C   0  0  0  0  0  0  0  0  0  0  0  0
    2.1029   -3.4916    6.7627 C   0  0  0  0  0  0  0  0  0  0  0  0
    2.4217   -1.8550    8.4916 C   0  0  0  0  0  0  0  0  0  0  0  0
    2.2750   -4.5130    7.7013 C   0  0  0  0  0  0  0  0  0  0  0  0
    2.5841   -2.8780    9.4348 C   0  0  0  0  0  0  0  0  0  0  0  0
    2.5178   -4.2097    9.0378 C   0  0  0  0  0  0  0  0  0  0  0  0
    7.5244    1.8966   -2.5074 H   0  0  0  0  0  0  0  0  0  0  0  0
    2.9895   -0.1947   -2.2793 H   0  0  0  0  0  0  0  0  0  0  0  0
    6.0378    2.3692   -0.5635 H   0  0  0  0  0  0  0  0  0  0  0  0
    5.7194   -0.5734   -6.1218 H   0  0  0  0  0  0  0  0  0  0  0  0
    6.3170   -1.7888   -4.9650 H   0  0  0  0  0  0  0  0  0  0  0  0
    3.2676    2.3954   -0.0487 H   0  0  0  0  0  0  0  0  0  0  0  0
    2.6139    0.7625   -0.1061 H   0  0  0  0  0  0  0  0  0  0  0  0
    5.0152   -0.8209    0.4433 H   0  0  0  0  0  0  0  0  0  0  0  0
    5.4397   -0.4460    2.0882 H   0  0  0  0  0  0  0  0  0  0  0  0
    4.3348    1.5992    3.2063 H   0  0  0  0  0  0  0  0  0  0  0  0
    3.2037    2.5361    2.2640 H   0  0  0  0  0  0  0  0  0  0  0  0
    2.7280   -1.4718    1.1095 H   0  0  0  0  0  0  0  0  0  0  0  0
    3.9198   -2.2924    2.1236 H   0  0  0  0  0  0  0  0  0  0  0  0
    1.5595    0.6879    2.3064 H   0  0  0  0  0  0  0  0  0  0  0  0
    2.1355    1.0175    3.9449 H   0  0  0  0  0  0  0  0  0  0  0  0
    0.8657   -0.2748    4.8927 H   0  0  0  0  0  0  0  0  0  0  0  0
    0.4865   -1.9139    5.2537 H   0  0  0  0  0  0  0  0  0  0  0  0
    1.9337   -3.7861    5.7344 H   0  0  0  0  0  0  0  0  0  0  0  0
    2.4805   -0.8185    8.8181 H   0  0  0  0  0  0  0  0  0  0  0  0
    2.2365   -5.5533    7.3756 H   0  0  0  0  0  0  0  0  0  0  0  0
    2.7696   -2.6347   10.4784 H   0  0  0  0  0  0  0  0  0  0  0  0
    2.6644   -5.0098    9.7592 H   0  0  0  0  0  0  0  0  0  0  0  0
  1  2  1  0  0  0  0
  1  3  2  0  0  0  0
  1  4  1  0  0  0  0
  2  5  2  0  0  0  0
  2  6  1  0  0  0  0
  3  7  1  0  0  0  0
  3 27  1  0  0  0  0
  4  8  1  0  0  0  0
  5  9  1  0  0  0  0
  5 28  1  0  0  0  0
  6  8  1  0  0  0  0
  7  9  2  0  0  0  0
  7 29  1  0  0  0  0
  8 30  1  0  0  0  0
  8 31  1  0  0  0  0
  9 10  1  0  0  0  0
 10 11  1  0  0  0  0
 10 32  1  0  0  0  0
 10 33  1  0  0  0  0
 11 12  1  0  0  0  0
 11 13  1  0  0  0  0
 12 14  1  0  0  0  0
 12 34  1  0  0  0  0
 12 35  1  0  0  0  0
 13 15  1  0  0  0  0
 13 36  1  0  0  0  0
 13 37  1  0  0  0  0
 14 16  1  0  0  0  0
 14 38  1  0  0  0  0
 14 39  1  0  0  0  0
 15 16  1  0  0  0  0
 15 40  1  0  0  0  0
 15 41  1  0  0  0  0
 16 17  1  0  0  0  0
 17 18  1  0  0  0  0
 17 19  2  0  0  0  0
 18 20  1  0  0  0  0
 18 42  1  0  0  0  0
 18 43  1  0  0  0  0
 20 21  1  0  0  0  0
 21 22  2  0  0  0  0
 21 23  1  0  0  0  0
 22 24  1  0  0  0  0
 22 44  1  0  0  0  0
 23 25  2  0  0  0  0
 23 45  1  0  0  0  0
 24 26  2  0  0  0  0
 24 46  1  0  0  0  0
 25 26  1  0  0  0  0
 25 47  1  0  0  0  0
 26 48  1  0  0  0  0
M  END
>  <Mol_ID>
3784

>  <Formula>
C20H22Cl2N2O4

>  <MolWeight>
425.30568

>  <Cat>
S6478

>  <Name>
Fipexide hydrochloride

>  <Synonyms>
N/A

>  <Target>
cAMP

>  <Form>
hydrochloride

>  <CAS>
34161-23-4

>  <URL>
http://www.selleck.cn/products/fipexide-hydrochloride.html

$$$$
