FIPI
 OpenBabel08302521253D

 55 59  0  0  0  0  0  0  0  0999 V2000
   -1.5865    0.0129   -0.0487 C   0  0  0  0  0  0  0  0  0  0  0  0
   -0.8243    1.2476    0.4352 C   0  0  0  0  0  0  0  0  0  0  0  0
    0.5768    1.2826   -0.1717 C   0  0  0  0  0  0  0  0  0  0  0  0
    1.3461    0.0727    0.1571 N   0  0  0  0  0  0  0  0  0  0  0  0
    0.6376   -1.1430   -0.2847 C   0  0  0  0  0  0  0  0  0  0  0  0
   -0.7793   -1.2431    0.2905 C   0  0  0  0  0  0  0  0  0  0  0  0
   -2.9431   -0.0198    0.4734 N   0  0  0  0  0  0  0  0  0  0  0  0
   -3.3043   -0.0795    1.8398 C   0  0  0  0  0  0  0  0  0  0  0  0
   -4.6981    0.0578    1.8947 N   0  0  0  0  0  0  0  0  0  0  0  0
   -5.1907    0.2236    0.6068 C   0  0  0  0  0  0  0  0  0  0  0  0
   -4.1158    0.1767   -0.2814 C   0  0  0  0  0  0  0  0  0  0  0  0
   -6.4905    0.4281    0.1999 C   0  0  0  0  0  0  0  0  0  0  0  0
   -6.7024    0.5839   -1.1727 C   0  0  0  0  0  0  0  0  0  0  0  0
   -5.6281    0.5296   -2.0814 C   0  0  0  0  0  0  0  0  0  0  0  0
   -4.3126    0.3277   -1.6379 C   0  0  0  0  0  0  0  0  0  0  0  0
   -2.5776   -0.2073    2.8093 O   0  0  0  0  0  0  0  0  0  0  0  0
    2.7002    0.1116   -0.4439 C   0  0  0  0  0  0  0  0  0  0  0  0
    3.6011    1.2403    0.1051 C   0  0  0  0  0  0  0  0  0  0  0  0
    4.9674    1.1820   -0.3830 N   0  0  0  0  0  0  0  0  0  0  0  0
    5.3077    1.4557   -1.6883 C   0  0  0  0  0  0  0  0  0  0  0  0
    6.7293    1.4009   -1.9475 C   0  0  0  0  0  0  0  0  0  0  0  0
    4.4869    1.7377   -2.5535 O   0  0  0  0  0  0  0  0  0  0  0  0
    7.3175    1.9978   -3.0422 N   0  0  0  0  0  0  0  0  0  0  0  0
    7.7452    0.7570   -1.2595 C   0  0  0  0  0  0  0  0  0  0  0  0
    8.6703    1.7388   -3.0774 C   0  0  0  0  0  0  0  0  0  0  0  0
    8.9596    0.9432   -1.9685 C   0  0  0  0  0  0  0  0  0  0  0  0
   10.2766    0.4896   -1.7751 C   0  0  0  0  0  0  0  0  0  0  0  0
   11.2492    0.8506   -2.7041 C   0  0  0  0  0  0  0  0  0  0  0  0
   10.9521    1.6568   -3.7959 C   0  0  0  0  0  0  0  0  0  0  0  0
    9.6497    2.1256   -4.0030 C   0  0  0  0  0  0  0  0  0  0  0  0
   12.5017    0.4017   -2.5424 F   0  0  0  0  0  0  0  0  0  0  0  0
   -1.6528    0.0684   -1.1413 H   0  0  0  0  0  0  0  0  0  0  0  0
   -1.3671    2.1595    0.1594 H   0  0  0  0  0  0  0  0  0  0  0  0
   -0.7457    1.2499    1.5301 H   0  0  0  0  0  0  0  0  0  0  0  0
    0.5040    1.4107   -1.2595 H   0  0  0  0  0  0  0  0  0  0  0  0
    1.0744    2.1710    0.2303 H   0  0  0  0  0  0  0  0  0  0  0  0
    1.1959   -2.0305    0.0399 H   0  0  0  0  0  0  0  0  0  0  0  0
    0.5851   -1.1788   -1.3813 H   0  0  0  0  0  0  0  0  0  0  0  0
   -0.7222   -1.3906    1.3755 H   0  0  0  0  0  0  0  0  0  0  0  0
   -1.2794   -2.1295   -0.1188 H   0  0  0  0  0  0  0  0  0  0  0  0
   -5.2225    0.0635    2.7524 H   0  0  0  0  0  0  0  0  0  0  0  0
   -7.3117    0.4768    0.9051 H   0  0  0  0  0  0  0  0  0  0  0  0
   -7.7133    0.7505   -1.5459 H   0  0  0  0  0  0  0  0  0  0  0  0
   -5.8230    0.6480   -3.1452 H   0  0  0  0  0  0  0  0  0  0  0  0
   -3.5006    0.2864   -2.3517 H   0  0  0  0  0  0  0  0  0  0  0  0
    3.2084   -0.8392   -0.2274 H   0  0  0  0  0  0  0  0  0  0  0  0
    2.6302    0.1831   -1.5358 H   0  0  0  0  0  0  0  0  0  0  0  0
    3.2084    2.2291   -0.1502 H   0  0  0  0  0  0  0  0  0  0  0  0
    3.6608    1.1650    1.1971 H   0  0  0  0  0  0  0  0  0  0  0  0
    5.7060    1.2408    0.3039 H   0  0  0  0  0  0  0  0  0  0  0  0
    6.8074    2.5333   -3.7327 H   0  0  0  0  0  0  0  0  0  0  0  0
    7.6263    0.1653   -0.3598 H   0  0  0  0  0  0  0  0  0  0  0  0
   10.5373   -0.1429   -0.9336 H   0  0  0  0  0  0  0  0  0  0  0  0
   11.7438    1.9124   -4.4941 H   0  0  0  0  0  0  0  0  0  0  0  0
    9.4130    2.7501   -4.8585 H   0  0  0  0  0  0  0  0  0  0  0  0
  1  2  1  0  0  0  0
  1  7  1  0  0  0  0
  1 32  1  0  0  0  0
  2  3  1  0  0  0  0
  2 33  1  0  0  0  0
  2 34  1  0  0  0  0
  3  4  1  0  0  0  0
  3 35  1  0  0  0  0
  3 36  1  0  0  0  0
  4  5  1  0  0  0  0
  4 17  1  0  0  0  0
  5  6  1  0  0  0  0
  5 37  1  0  0  0  0
  5 38  1  0  0  0  0
  6  1  1  0  0  0  0
  6 39  1  0  0  0  0
  6 40  1  0  0  0  0
  7  8  1  0  0  0  0
  8  9  1  0  0  0  0
  8 16  2  0  0  0  0
  9 10  1  0  0  0  0
  9 41  1  0  0  0  0
 10 11  2  0  0  0  0
 10 12  1  0  0  0  0
 11  7  1  0  0  0  0
 12 13  2  0  0  0  0
 12 42  1  0  0  0  0
 13 14  1  0  0  0  0
 13 43  1  0  0  0  0
 14 15  2  0  0  0  0
 14 44  1  0  0  0  0
 15 11  1  0  0  0  0
 15 45  1  0  0  0  0
 17 18  1  0  0  0  0
 17 46  1  0  0  0  0
 17 47  1  0  0  0  0
 18 19  1  0  0  0  0
 18 48  1  0  0  0  0
 18 49  1  0  0  0  0
 19 20  1  0  0  0  0
 19 50  1  0  0  0  0
 20 21  1  0  0  0  0
 20 22  2  0  0  0  0
 21 23  1  0  0  0  0
 21 24  2  0  0  0  0
 23 25  1  0  0  0  0
 23 51  1  0  0  0  0
 24 26  1  0  0  0  0
 24 52  1  0  0  0  0
 25 26  2  0  0  0  0
 26 27  1  0  0  0  0
 27 28  2  0  0  0  0
 27 53  1  0  0  0  0
 28 29  1  0  0  0  0
 28 31  1  0  0  0  0
 29 30  2  0  0  0  0
 29 54  1  0  0  0  0
 30 25  1  0  0  0  0
 30 55  1  0  0  0  0
M  END
>  <Mol_ID>
5211

>  <Formula>
C23H24FN5O2

>  <MolWeight>
421.4673632

>  <Cat>
S7321

>  <Name>
FIPI

>  <Synonyms>
5-Fluoro-2-indolyl deschlorohalopemide

>  <Target>
Phospholipase (e.g. PLA)

>  <Form>
free base

>  <CAS>
939055-18-2

>  <URL>
http://www.selleckchem.com/products/fipi.html

$$$$
