Firocoxib (ML 1785713)
 OpenBabel08302521323D

 43 45  0  0  0  0  0  0  0  0999 V2000
    0.0411    0.8297    0.2691 O   0  0  0  0  0  0  0  0  0  0  0  0
    1.1336    0.0276    0.4117 C   0  0  0  0  0  0  0  0  0  0  0  0
    0.7295   -1.3750    0.1636 C   0  0  0  0  0  0  0  0  0  0  0  0
   -0.6032   -1.3699    0.0818 C   0  0  0  0  0  0  0  0  0  0  0  0
   -1.1392    0.0237    0.1176 C   0  0  0  0  0  0  0  0  0  0  0  0
    2.2428    0.4207    0.7192 O   0  0  0  0  0  0  0  0  0  0  0  0
   -1.4700   -2.5438   -0.0009 C   0  0  0  0  0  0  0  0  0  0  0  0
   -1.9920   -3.0875    1.1828 C   0  0  0  0  0  0  0  0  0  0  0  0
   -2.8639   -4.1762    1.1437 C   0  0  0  0  0  0  0  0  0  0  0  0
   -3.2145   -4.7283   -0.0890 C   0  0  0  0  0  0  0  0  0  0  0  0
   -2.6678   -4.2259   -1.2755 C   0  0  0  0  0  0  0  0  0  0  0  0
   -1.7965   -3.1322   -1.2277 C   0  0  0  0  0  0  0  0  0  0  0  0
   -4.2999   -6.1351   -0.1368 S   0  0  0  0  0  0  0  0  0  0  0  0
   -4.0166   -6.8623   -1.3637 O   0  0  0  0  0  0  0  0  0  0  0  0
   -4.2164   -6.7959    1.1538 O   0  0  0  0  0  0  0  0  0  0  0  0
   -5.9167   -5.4224   -0.2808 C   0  0  0  0  0  0  0  0  0  0  0  0
   -1.8196    0.4300   -1.1928 C   0  0  0  0  0  0  0  0  0  0  0  0
   -2.0399    0.3254    1.3146 C   0  0  0  0  0  0  0  0  0  0  0  0
    1.5415   -2.4761    0.0738 O   0  0  0  0  0  0  0  0  0  0  0  0
    2.9079   -2.1833   -0.2431 C   0  0  0  0  0  0  0  0  0  0  0  0
    3.5475   -3.3076   -1.0079 C   0  0  0  0  0  0  0  0  0  0  0  0
    2.9139   -3.8164   -2.2801 C   0  0  0  0  0  0  0  0  0  0  0  0
    2.9860   -4.7063   -1.0689 C   0  0  0  0  0  0  0  0  0  0  0  0
   -1.7187   -2.6678    2.1499 H   0  0  0  0  0  0  0  0  0  0  0  0
   -3.2497   -4.5894    2.0734 H   0  0  0  0  0  0  0  0  0  0  0  0
   -2.9047   -4.6831   -2.2337 H   0  0  0  0  0  0  0  0  0  0  0  0
   -1.3735   -2.7490   -2.1537 H   0  0  0  0  0  0  0  0  0  0  0  0
   -6.1062   -4.7842    0.5850 H   0  0  0  0  0  0  0  0  0  0  0  0
   -5.9752   -4.8479   -1.2083 H   0  0  0  0  0  0  0  0  0  0  0  0
   -6.6428   -6.2369   -0.3038 H   0  0  0  0  0  0  0  0  0  0  0  0
   -2.7847   -0.0718   -1.3222 H   0  0  0  0  0  0  0  0  0  0  0  0
   -1.9875    1.5127   -1.2243 H   0  0  0  0  0  0  0  0  0  0  0  0
   -1.1919    0.1920   -2.0602 H   0  0  0  0  0  0  0  0  0  0  0  0
   -2.2841    1.3936    1.3505 H   0  0  0  0  0  0  0  0  0  0  0  0
   -2.9776   -0.2375    1.2763 H   0  0  0  0  0  0  0  0  0  0  0  0
   -1.5313    0.0957    2.2583 H   0  0  0  0  0  0  0  0  0  0  0  0
    2.9975   -1.2909   -0.8738 H   0  0  0  0  0  0  0  0  0  0  0  0
    3.4547   -2.0230    0.6930 H   0  0  0  0  0  0  0  0  0  0  0  0
    4.6274   -3.1972   -1.0151 H   0  0  0  0  0  0  0  0  0  0  0  0
    1.9399   -3.4372   -2.5678 H   0  0  0  0  0  0  0  0  0  0  0  0
    3.5672   -4.0390   -3.1166 H   0  0  0  0  0  0  0  0  0  0  0  0
    3.6891   -5.5316   -1.0904 H   0  0  0  0  0  0  0  0  0  0  0  0
    2.0612   -4.9289   -0.5503 H   0  0  0  0  0  0  0  0  0  0  0  0
  1  2  1  0  0  0  0
  1  5  1  0  0  0  0
  2  3  1  0  0  0  0
  2  6  2  0  0  0  0
  3  4  2  0  0  0  0
  3 19  1  0  0  0  0
  4  5  1  0  0  0  0
  4  7  1  0  0  0  0
  5 17  1  0  0  0  0
  5 18  1  0  0  0  0
  7  8  2  0  0  0  0
  7 12  1  0  0  0  0
  8  9  1  0  0  0  0
  8 24  1  0  0  0  0
  9 10  2  0  0  0  0
  9 25  1  0  0  0  0
 10 11  1  0  0  0  0
 10 13  1  0  0  0  0
 11 12  2  0  0  0  0
 11 26  1  0  0  0  0
 12 27  1  0  0  0  0
 13 14  2  0  0  0  0
 13 15  2  0  0  0  0
 13 16  1  0  0  0  0
 16 28  1  0  0  0  0
 16 29  1  0  0  0  0
 16 30  1  0  0  0  0
 17 31  1  0  0  0  0
 17 32  1  0  0  0  0
 17 33  1  0  0  0  0
 18 34  1  0  0  0  0
 18 35  1  0  0  0  0
 18 36  1  0  0  0  0
 19 20  1  0  0  0  0
 20 21  1  0  0  0  0
 20 37  1  0  0  0  0
 20 38  1  0  0  0  0
 21 22  1  0  0  0  0
 21 23  1  0  0  0  0
 21 39  1  0  0  0  0
 22 23  1  0  0  0  0
 22 40  1  0  0  0  0
 22 41  1  0  0  0  0
 23 42  1  0  0  0  0
 23 43  1  0  0  0  0
M  END
>  <Mol_ID>
6293

>  <Formula>
C17H20O5S

>  <MolWeight>
336.4027

>  <Cat>
E0500

>  <Name>
Firocoxib (ML 1785713)

>  <Synonyms>
ML 1785713

>  <Target>
COX

>  <Form>
free base

>  <CAS>
189954-96-9

>  <URL>
http://www.selleckchem.com/products/firocoxib.html

$$$$
