FK962
 OpenBabel08302521323D

 36 37  0  0  0  0  0  0  0  0999 V2000
    1.0879    0.0296    0.4184 C   0  0  0  0  0  0  0  0  0  0  0  0
    0.3803   -1.0497   -0.0705 N   0  0  0  0  0  0  0  0  0  0  0  0
    0.5596    1.0252    0.8970 O   0  0  0  0  0  0  0  0  0  0  0  0
    6.6924    0.0610   -0.0131 F   0  0  0  0  0  0  0  0  0  0  0  0
   -2.8942   -1.2783   -3.8511 C   0  0  0  0  0  0  0  0  0  0  0  0
   -3.4612   -2.5727   -4.3815 C   0  0  0  0  0  0  0  0  0  0  0  0
   -3.3187   -0.2238   -4.3332 O   0  0  0  0  0  0  0  0  0  0  0  0
    2.5739   -0.0218    0.2975 C   0  0  0  0  0  0  0  0  0  0  0  0
    3.2559    1.2032    0.1788 C   0  0  0  0  0  0  0  0  0  0  0  0
    3.3066   -1.2186    0.3149 C   0  0  0  0  0  0  0  0  0  0  0  0
    4.6464    1.2304    0.0671 C   0  0  0  0  0  0  0  0  0  0  0  0
    4.7011   -1.1837    0.2053 C   0  0  0  0  0  0  0  0  0  0  0  0
    5.3577    0.0367    0.0837 C   0  0  0  0  0  0  0  0  0  0  0  0
   -1.0878   -1.1075   -0.0726 C   0  0  0  0  0  0  0  0  0  0  0  0
   -1.5681   -2.4330   -0.6921 C   0  0  0  0  0  0  0  0  0  0  0  0
   -1.7549    0.0604   -0.8220 C   0  0  0  0  0  0  0  0  0  0  0  0
   -1.3396   -2.4617   -2.2079 C   0  0  0  0  0  0  0  0  0  0  0  0
   -1.4689   -0.0122   -2.3170 C   0  0  0  0  0  0  0  0  0  0  0  0
   -1.9393   -1.2939   -2.8489 N   0  0  0  0  0  0  0  0  0  0  0  0
    0.8855   -1.8683   -0.3691 H   0  0  0  0  0  0  0  0  0  0  0  0
   -4.5481   -2.5424   -4.2547 H   0  0  0  0  0  0  0  0  0  0  0  0
   -3.2276   -2.6419   -5.4474 H   0  0  0  0  0  0  0  0  0  0  0  0
   -3.1060   -3.4755   -3.8976 H   0  0  0  0  0  0  0  0  0  0  0  0
    2.6989    2.1380    0.1660 H   0  0  0  0  0  0  0  0  0  0  0  0
    2.8194   -2.1800    0.4422 H   0  0  0  0  0  0  0  0  0  0  0  0
    5.1770    2.1739   -0.0273 H   0  0  0  0  0  0  0  0  0  0  0  0
    5.2840   -2.1001    0.2280 H   0  0  0  0  0  0  0  0  0  0  0  0
   -1.3962   -1.0712    0.9794 H   0  0  0  0  0  0  0  0  0  0  0  0
   -1.0598   -3.2841   -0.2247 H   0  0  0  0  0  0  0  0  0  0  0  0
   -2.6414   -2.5476   -0.4954 H   0  0  0  0  0  0  0  0  0  0  0  0
   -2.8402    0.0009   -0.6663 H   0  0  0  0  0  0  0  0  0  0  0  0
   -1.4421    1.0333   -0.4329 H   0  0  0  0  0  0  0  0  0  0  0  0
   -0.2666   -2.4364   -2.4313 H   0  0  0  0  0  0  0  0  0  0  0  0
   -1.7149   -3.4052   -2.6063 H   0  0  0  0  0  0  0  0  0  0  0  0
   -1.9455    0.8345   -2.8197 H   0  0  0  0  0  0  0  0  0  0  0  0
   -0.3934    0.0604   -2.5174 H   0  0  0  0  0  0  0  0  0  0  0  0
  1  2  1  0  0  0  0
  1  3  2  0  0  0  0
  1  8  1  0  0  0  0
  2 14  1  0  0  0  0
  2 20  1  0  0  0  0
  4 13  1  0  0  0  0
  5  6  1  0  0  0  0
  5  7  2  0  0  0  0
  5 19  1  0  0  0  0
  6 21  1  0  0  0  0
  6 22  1  0  0  0  0
  6 23  1  0  0  0  0
  8  9  2  0  0  0  0
  8 10  1  0  0  0  0
  9 11  1  0  0  0  0
  9 24  1  0  0  0  0
 10 12  2  0  0  0  0
 10 25  1  0  0  0  0
 11 13  2  0  0  0  0
 11 26  1  0  0  0  0
 12 13  1  0  0  0  0
 12 27  1  0  0  0  0
 14 15  1  0  0  0  0
 14 16  1  0  0  0  0
 14 28  1  0  0  0  0
 15 17  1  0  0  0  0
 15 29  1  0  0  0  0
 15 30  1  0  0  0  0
 16 18  1  0  0  0  0
 16 31  1  0  0  0  0
 16 32  1  0  0  0  0
 17 19  1  0  0  0  0
 17 33  1  0  0  0  0
 17 34  1  0  0  0  0
 18 19  1  0  0  0  0
 18 35  1  0  0  0  0
 18 36  1  0  0  0  0
M  END
>  <Mol_ID>
6170

>  <Formula>
C14H17FN2O2

>  <MolWeight>
264.2953832

>  <Cat>
S0535

>  <Name>
FK962

>  <Synonyms>
N/A

>  <Target>
Calcium Channel,SSTR

>  <Form>
free base

>  <CAS>
283167-06-6

>  <URL>
http://www.selleckchem.com/products/fk962.html

$$$$
