FL-411
 OpenBabel08302521283D

 43 46  0  0  0  0  0  0  0  0999 V2000
    0.1046   -2.0511   -0.0923 S   0  0  0  0  0  0  0  0  0  0  0  0
    1.3781    2.7088    0.0763 O   0  0  0  0  0  0  0  0  0  0  0  0
    9.0032   -1.1797   -0.0780 O   0  0  0  0  0  0  0  0  0  0  0  0
   -3.4186   -0.0814    0.4177 N   0  0  0  0  0  0  0  0  0  0  0  0
    3.0353    1.1480    0.0657 N   0  0  0  0  0  0  0  0  0  0  0  0
    2.6378   -1.1839   -0.0599 N   0  0  0  0  0  0  0  0  0  0  0  0
   -0.6297    0.4145   -0.0629 C   0  0  0  0  0  0  0  0  0  0  0  0
   -1.5520    1.5952   -0.0430 C   0  0  0  0  0  0  0  0  0  0  0  0
   -3.0092    1.1463   -0.3098 C   0  0  0  0  0  0  0  0  0  0  0  0
   -1.1260   -0.8775   -0.0508 C   0  0  0  0  0  0  0  0  0  0  0  0
   -2.5844   -1.2303   -0.0180 C   0  0  0  0  0  0  0  0  0  0  0  0
    0.7916    0.4196   -0.0274 C   0  0  0  0  0  0  0  0  0  0  0  0
    1.3212   -0.8547   -0.0609 C   0  0  0  0  0  0  0  0  0  0  0  0
   -3.3398    0.1035    1.8708 C   0  0  0  0  0  0  0  0  0  0  0  0
    1.7123    1.5281    0.0412 C   0  0  0  0  0  0  0  0  0  0  0  0
    3.4514   -0.1727    0.0082 C   0  0  0  0  0  0  0  0  0  0  0  0
    4.9216   -0.3966    0.0072 C   0  0  0  0  0  0  0  0  0  0  0  0
    5.7998    0.4744    0.6603 C   0  0  0  0  0  0  0  0  0  0  0  0
    5.4203   -1.5256   -0.6501 C   0  0  0  0  0  0  0  0  0  0  0  0
    7.1821    0.2368    0.6483 C   0  0  0  0  0  0  0  0  0  0  0  0
    6.7970   -1.7833   -0.6786 C   0  0  0  0  0  0  0  0  0  0  0  0
    7.6664   -0.8950   -0.0297 C   0  0  0  0  0  0  0  0  0  0  0  0
    8.0901    1.1894    1.3735 C   0  0  0  0  0  0  0  0  0  0  0  0
    7.2785   -3.0095   -1.4016 C   0  0  0  0  0  0  0  0  0  0  0  0
    9.5004   -0.5321    0.4433 H   0  0  0  0  0  0  0  0  0  0  0  0
    3.6863    1.9141    0.0661 H   0  0  0  0  0  0  0  0  0  0  0  0
   -1.2539    2.3300   -0.7973 H   0  0  0  0  0  0  0  0  0  0  0  0
   -1.4880    2.0828    0.9385 H   0  0  0  0  0  0  0  0  0  0  0  0
   -3.1291    0.9587   -1.3844 H   0  0  0  0  0  0  0  0  0  0  0  0
   -3.6979    1.9679   -0.0760 H   0  0  0  0  0  0  0  0  0  0  0  0
   -2.8983   -1.5198   -1.0290 H   0  0  0  0  0  0  0  0  0  0  0  0
   -2.7709   -2.0990    0.6252 H   0  0  0  0  0  0  0  0  0  0  0  0
   -2.3210    0.2657    2.2392 H   0  0  0  0  0  0  0  0  0  0  0  0
   -3.9483    0.9604    2.1805 H   0  0  0  0  0  0  0  0  0  0  0  0
   -3.7408   -0.7747    2.3882 H   0  0  0  0  0  0  0  0  0  0  0  0
    5.4183    1.3278    1.2150 H   0  0  0  0  0  0  0  0  0  0  0  0
    4.7380   -2.2117   -1.1455 H   0  0  0  0  0  0  0  0  0  0  0  0
    8.6254    0.6652    2.1719 H   0  0  0  0  0  0  0  0  0  0  0  0
    8.8088    1.6319    0.6771 H   0  0  0  0  0  0  0  0  0  0  0  0
    7.5305    2.0093    1.8352 H   0  0  0  0  0  0  0  0  0  0  0  0
    6.8251   -3.9040   -0.9615 H   0  0  0  0  0  0  0  0  0  0  0  0
    7.0007   -2.9523   -2.4592 H   0  0  0  0  0  0  0  0  0  0  0  0
    8.3647   -3.1325   -1.3505 H   0  0  0  0  0  0  0  0  0  0  0  0
  1 10  1  0  0  0  0
  1 13  1  0  0  0  0
  2 15  2  0  0  0  0
  3 22  1  0  0  0  0
  3 25  1  0  0  0  0
  4  9  1  0  0  0  0
  4 11  1  0  0  0  0
  4 14  1  0  0  0  0
  5 15  1  0  0  0  0
  5 16  1  0  0  0  0
  5 26  1  0  0  0  0
  6 13  1  0  0  0  0
  6 16  2  0  0  0  0
  7  8  1  0  0  0  0
  7 10  2  0  0  0  0
  7 12  1  0  0  0  0
  8  9  1  0  0  0  0
  8 27  1  0  0  0  0
  8 28  1  0  0  0  0
  9 29  1  0  0  0  0
  9 30  1  0  0  0  0
 10 11  1  0  0  0  0
 11 31  1  0  0  0  0
 11 32  1  0  0  0  0
 12 13  2  0  0  0  0
 12 15  1  0  0  0  0
 14 33  1  0  0  0  0
 14 34  1  0  0  0  0
 14 35  1  0  0  0  0
 16 17  1  0  0  0  0
 17 18  2  0  0  0  0
 17 19  1  0  0  0  0
 18 20  1  0  0  0  0
 18 36  1  0  0  0  0
 19 21  2  0  0  0  0
 19 37  1  0  0  0  0
 20 22  2  0  0  0  0
 20 23  1  0  0  0  0
 21 22  1  0  0  0  0
 21 24  1  0  0  0  0
 23 38  1  0  0  0  0
 23 39  1  0  0  0  0
 23 40  1  0  0  0  0
 24 41  1  0  0  0  0
 24 42  1  0  0  0  0
 24 43  1  0  0  0  0
M  END
>  <Mol_ID>
5413

>  <Formula>
C18H19N3O2S

>  <MolWeight>
341.42736

>  <Cat>
S1027

>  <Name>
FL-411

>  <Synonyms>
BRD4-IN-1

>  <Target>
Autophagy,Epigenetic Reader Domain

>  <Form>
Free Base

>  <CAS>
2118944-88-8

>  <URL>
https://www.selleckchem.com/products/fl-411.html

$$$$
