FLAGYL (metronidazole).cdx
 OpenBabel08302519503D

 21 21  0  0  0  0  0  0  0  0999 V2000
    0.9416   -0.6744    0.0381 N   0  0  0  0  0  0  0  0  0  0  0  0
    2.1827   -1.4325   -0.0044 C   0  0  0  0  0  0  0  0  0  0  0  0
   -0.3547   -1.1305   -0.0201 C   0  0  0  0  0  0  0  0  0  0  0  0
   -1.1585   -0.0199    0.0241 C   0  0  0  0  0  0  0  0  0  0  0  0
   -0.3991    1.1102    0.1271 N   0  0  0  0  0  0  0  0  0  0  0  0
    0.8598    0.7093    0.1613 C   0  0  0  0  0  0  0  0  0  0  0  0
    2.0121    1.6426    0.2995 C   0  0  0  0  0  0  0  0  0  0  0  0
   -0.7846   -2.4852   -0.1109 N   0  3  0  0  0  0  0  0  0  0  0  0
    0.0819   -3.3639   -0.1819 O   0  0  0  0  0  0  0  0  0  0  0  0
   -2.0038   -2.6779   -0.1239 O   0  5  0  0  0  0  0  0  0  0  0  0
    2.7053   -1.6602   -1.4215 C   0  0  0  0  0  0  0  0  0  0  0  0
    2.9915   -0.4275   -2.0761 O   0  0  0  0  0  0  0  0  0  0  0  0
    2.9263   -0.8907    0.5863 H   0  0  0  0  0  0  0  0  0  0  0  0
    2.0408   -2.3804    0.5203 H   0  0  0  0  0  0  0  0  0  0  0  0
   -2.2412    0.0303   -0.0080 H   0  0  0  0  0  0  0  0  0  0  0  0
    2.1434    2.2145   -0.6238 H   0  0  0  0  0  0  0  0  0  0  0  0
    1.8096    2.3498    1.1106 H   0  0  0  0  0  0  0  0  0  0  0  0
    2.9590    1.1519    0.5313 H   0  0  0  0  0  0  0  0  0  0  0  0
    3.6462   -2.2178   -1.3704 H   0  0  0  0  0  0  0  0  0  0  0  0
    2.0077   -2.2357   -2.0380 H   0  0  0  0  0  0  0  0  0  0  0  0
    2.1792   -0.1330   -2.5285 H   0  0  0  0  0  0  0  0  0  0  0  0
  1  2  1  0  0  0  0
  1  3  1  0  0  0  0
  2 11  1  0  0  0  0
  2 13  1  0  0  0  0
  2 14  1  0  0  0  0
  3  4  2  0  0  0  0
  3  8  1  0  0  0  0
  4  5  1  0  0  0  0
  4 15  1  0  0  0  0
  5  6  2  0  0  0  0
  6  1  1  0  0  0  0
  6  7  1  0  0  0  0
  7 16  1  0  0  0  0
  7 17  1  0  0  0  0
  7 18  1  0  0  0  0
  8  9  2  0  0  0  0
  8 10  1  0  0  0  0
 11 12  1  0  0  0  0
 11 19  1  0  0  0  0
 11 20  1  0  0  0  0
 12 21  1  0  0  0  0
M  CHG  2   8   1  10  -1
M  END
>  <Mol_ID>
181

>  <Formula>
C6H9N3O3

>  <MolWeight>
171.15396

>  <Cat>
S1907

>  <Name>
Metronidazole

>  <Synonyms>
N/A

>  <Target>
Antineoplastic and Immunosuppressive Antibiotics,DNA/RNA Synthesis

>  <Form>
free base

>  <CAS>
443-48-1

>  <URL>
http://selleckchem.com/products/Metronidazole(Flagyl).html

$$$$
