Flavokawain C
 OpenBabel08302521593D

 38 39  0  0  0  0  0  0  0  0999 V2000
    2.2029    0.1232    0.0548 O   0  0  0  0  0  0  0  0  0  0  0  0
    3.2252   -0.8465    0.0781 C   0  0  0  0  0  0  0  0  0  0  0  0
    0.7714   -2.7186    0.0305 C   0  0  0  0  0  0  0  0  0  0  0  0
    0.2079   -3.8598    0.8370 C   0  0  0  0  0  0  0  0  0  0  0  0
    1.7025   -2.9476   -0.7306 O   0  0  0  0  0  0  0  0  0  0  0  0
    0.9275   -4.9890    0.9581 C   0  0  0  0  0  0  0  0  0  0  0  0
   -2.1091   -2.3506   -0.0386 O   0  0  0  0  0  0  0  0  0  0  0  0
   -1.7394    2.3998    0.0310 O   0  0  0  0  0  0  0  0  0  0  0  0
   -3.1561    2.5301    0.0067 C   0  0  0  0  0  0  0  0  0  0  0  0
   -1.2831   -9.7847    2.8782 O   0  0  0  0  0  0  0  0  0  0  0  0
    0.8683   -0.1649    0.0569 C   0  0  0  0  0  0  0  0  0  0  0  0
    0.1370   -1.3765    0.0834 C   0  0  0  0  0  0  0  0  0  0  0  0
    0.1553    1.0580    0.0423 C   0  0  0  0  0  0  0  0  0  0  0  0
   -1.2725   -1.2709    0.0664 C   0  0  0  0  0  0  0  0  0  0  0  0
   -1.2318    1.1373    0.0580 C   0  0  0  0  0  0  0  0  0  0  0  0
   -1.9528   -0.0480    0.0818 C   0  0  0  0  0  0  0  0  0  0  0  0
    0.3589   -6.2329    1.4858 C   0  0  0  0  0  0  0  0  0  0  0  0
   -0.0695   -7.2097    0.5757 C   0  0  0  0  0  0  0  0  0  0  0  0
    0.2373   -6.4743    2.8550 C   0  0  0  0  0  0  0  0  0  0  0  0
   -0.6239   -8.4103    1.0262 C   0  0  0  0  0  0  0  0  0  0  0  0
   -0.3145   -7.6773    3.3090 C   0  0  0  0  0  0  0  0  0  0  0  0
   -0.7421   -8.6315    2.3936 C   0  0  0  0  0  0  0  0  0  0  0  0
    3.1271   -1.5246    0.9303 H   0  0  0  0  0  0  0  0  0  0  0  0
    3.3049   -1.3578   -0.8805 H   0  0  0  0  0  0  0  0  0  0  0  0
    4.1706   -0.3041    0.2039 H   0  0  0  0  0  0  0  0  0  0  0  0
   -0.8011   -3.8019    1.2226 H   0  0  0  0  0  0  0  0  0  0  0  0
    1.9444   -5.0618    0.5775 H   0  0  0  0  0  0  0  0  0  0  0  0
   -1.8871   -2.8231   -0.8621 H   0  0  0  0  0  0  0  0  0  0  0  0
   -3.5802    2.0672   -0.8910 H   0  0  0  0  0  0  0  0  0  0  0  0
   -3.6050    2.1158    0.9154 H   0  0  0  0  0  0  0  0  0  0  0  0
   -3.3914    3.5970   -0.0262 H   0  0  0  0  0  0  0  0  0  0  0  0
   -1.5549  -10.3447    2.1333 H   0  0  0  0  0  0  0  0  0  0  0  0
    0.7258    1.9914    0.0109 H   0  0  0  0  0  0  0  0  0  0  0  0
   -3.0356   -0.0526    0.0840 H   0  0  0  0  0  0  0  0  0  0  0  0
    0.0264   -7.0420   -0.4953 H   0  0  0  0  0  0  0  0  0  0  0  0
    0.5755   -5.7368    3.5812 H   0  0  0  0  0  0  0  0  0  0  0  0
   -0.9485   -9.1520    0.3040 H   0  0  0  0  0  0  0  0  0  0  0  0
   -0.4078   -7.8691    4.3752 H   0  0  0  0  0  0  0  0  0  0  0  0
  1  2  1  0  0  0  0
  1 11  1  0  0  0  0
  2 23  1  0  0  0  0
  2 24  1  0  0  0  0
  2 25  1  0  0  0  0
  3  4  1  0  0  0  0
  3  5  2  0  0  0  0
  3 12  1  0  0  0  0
  4  6  2  0  0  0  0
  4 26  1  0  0  0  0
  6 17  1  0  0  0  0
  6 27  1  0  0  0  0
  7 14  1  0  0  0  0
  7 28  1  0  0  0  0
  8  9  1  0  0  0  0
  8 15  1  0  0  0  0
  9 29  1  0  0  0  0
  9 30  1  0  0  0  0
  9 31  1  0  0  0  0
 10 22  1  0  0  0  0
 10 32  1  0  0  0  0
 11 12  2  0  0  0  0
 11 13  1  0  0  0  0
 12 14  1  0  0  0  0
 13 15  2  0  0  0  0
 13 33  1  0  0  0  0
 14 16  2  0  0  0  0
 15 16  1  0  0  0  0
 16 34  1  0  0  0  0
 17 18  2  0  0  0  0
 17 19  1  0  0  0  0
 18 20  1  0  0  0  0
 18 35  1  0  0  0  0
 19 21  2  0  0  0  0
 19 36  1  0  0  0  0
 20 22  2  0  0  0  0
 20 37  1  0  0  0  0
 21 22  1  0  0  0  0
 21 38  1  0  0  0  0
M  END
>  <Mol_ID>
10137

>  <Formula>
C17H16O5

>  <MolWeight>
300.30594

>  <Cat>
S9495

>  <Name>
Flavokawain C

>  <Synonyms>
N/A

>  <Target>
others

>  <Form>
free base

>  <CAS>
37308-75-1

>  <URL>
https://www.selleckchem.com/products/flavokawain-c.html

$$$$
