Flecainide
 OpenBabel08302521323D

 48 49  0  0  0  0  0  0  0  0999 V2000
    0.8825    0.2614   -0.1680 C   0  0  0  0  0  0  0  0  0  0  0  0
    0.1801   -0.9319   -0.7343 C   0  0  0  0  0  0  0  0  0  0  0  0
    0.6840   -2.2360   -0.5761 C   0  0  0  0  0  0  0  0  0  0  0  0
    0.0766   -3.2812   -1.2827 C   0  0  0  0  0  0  0  0  0  0  0  0
   -1.0185   -3.0361   -2.1277 C   0  0  0  0  0  0  0  0  0  0  0  0
   -1.5295   -1.7493   -2.2563 C   0  0  0  0  0  0  0  0  0  0  0  0
   -0.9397   -0.7048   -1.5529 C   0  0  0  0  0  0  0  0  0  0  0  0
    2.1045    0.3189   -0.1544 O   0  0  0  0  0  0  0  0  0  0  0  0
    0.0695    1.3051    0.2197 N   0  0  0  0  0  0  0  0  0  0  0  0
   -2.6177   -1.3951   -3.0012 O   0  0  0  0  0  0  0  0  0  0  0  0
   -2.7722   -2.0722   -4.2547 C   0  0  0  0  0  0  0  0  0  0  0  0
   -3.8760   -1.4247   -5.0912 C   0  0  0  0  0  0  0  0  0  0  0  0
   -4.5401   -0.4540   -4.4300 F   0  0  0  0  0  0  0  0  0  0  0  0
   -3.3706   -0.8754   -6.2202 F   0  0  0  0  0  0  0  0  0  0  0  0
   -4.7916   -2.3499   -5.4721 F   0  0  0  0  0  0  0  0  0  0  0  0
    1.7478   -2.3872    0.2678 O   0  0  0  0  0  0  0  0  0  0  0  0
    2.1219   -3.6831    0.7429 C   0  0  0  0  0  0  0  0  0  0  0  0
    1.2242   -4.2342    1.8481 C   0  0  0  0  0  0  0  0  0  0  0  0
    0.2735   -3.3645    2.2463 F   0  0  0  0  0  0  0  0  0  0  0  0
    0.5952   -5.3588    1.4300 F   0  0  0  0  0  0  0  0  0  0  0  0
    1.9521   -4.5700    2.9407 F   0  0  0  0  0  0  0  0  0  0  0  0
    0.5956    2.6387    0.4964 C   0  0  0  0  0  0  0  0  0  0  0  0
    0.3530    3.3183   -1.8977 N   0  0  0  0  0  0  0  0  0  0  0  0
    1.2760    3.2760   -0.7410 C   0  0  3  0  0  0  0  0  0  0  0  0
    1.7847    4.6935   -0.4589 C   0  0  0  0  0  0  0  0  0  0  0  0
    2.5435    5.2248   -1.6761 C   0  0  0  0  0  0  0  0  0  0  0  0
    1.6989    5.1171   -2.9438 C   0  0  0  0  0  0  0  0  0  0  0  0
    1.0736    3.7314   -3.1043 C   0  0  0  0  0  0  0  0  0  0  0  0
    0.4366   -4.3038   -1.2198 H   0  0  0  0  0  0  0  0  0  0  0  0
   -1.4643   -3.8770   -2.6532 H   0  0  0  0  0  0  0  0  0  0  0  0
   -1.3337    0.2987   -1.6935 H   0  0  0  0  0  0  0  0  0  0  0  0
   -0.9230    1.1544    0.3473 H   0  0  0  0  0  0  0  0  0  0  0  0
   -1.8305   -2.0324   -4.8143 H   0  0  0  0  0  0  0  0  0  0  0  0
   -3.0364   -3.1200   -4.0756 H   0  0  0  0  0  0  0  0  0  0  0  0
    2.2426   -4.3968   -0.0787 H   0  0  0  0  0  0  0  0  0  0  0  0
    3.1279   -3.5598    1.1593 H   0  0  0  0  0  0  0  0  0  0  0  0
   -0.2478    3.2506    0.8310 H   0  0  0  0  0  0  0  0  0  0  0  0
    1.3115    2.5549    1.3233 H   0  0  0  0  0  0  0  0  0  0  0  0
   -0.0096    2.3751   -2.0367 H   0  0  0  0  0  0  0  0  0  0  0  0
    2.1372    2.6488   -1.0079 H   0  0  0  0  0  0  0  0  0  0  0  0
    2.4488    4.6950    0.4138 H   0  0  0  0  0  0  0  0  0  0  0  0
    0.9459    5.3625   -0.2267 H   0  0  0  0  0  0  0  0  0  0  0  0
    2.8432    6.2668   -1.5116 H   0  0  0  0  0  0  0  0  0  0  0  0
    3.4663    4.6448   -1.8065 H   0  0  0  0  0  0  0  0  0  0  0  0
    0.9050    5.8735   -2.9137 H   0  0  0  0  0  0  0  0  0  0  0  0
    2.3197    5.3418   -3.8188 H   0  0  0  0  0  0  0  0  0  0  0  0
    0.3735    3.7486   -3.9467 H   0  0  0  0  0  0  0  0  0  0  0  0
    1.8467    2.9927   -3.3500 H   0  0  0  0  0  0  0  0  0  0  0  0
  1  2  1  0  0  0  0
  1  8  2  0  0  0  0
  1  9  1  0  0  0  0
  2  3  2  0  0  0  0
  2  7  1  0  0  0  0
  3  4  1  0  0  0  0
  3 16  1  0  0  0  0
  4  5  2  0  0  0  0
  4 29  1  0  0  0  0
  5  6  1  0  0  0  0
  5 30  1  0  0  0  0
  6  7  2  0  0  0  0
  6 10  1  0  0  0  0
  7 31  1  0  0  0  0
  9 22  1  0  0  0  0
  9 32  1  0  0  0  0
 10 11  1  0  0  0  0
 11 12  1  0  0  0  0
 11 33  1  0  0  0  0
 11 34  1  0  0  0  0
 12 13  1  0  0  0  0
 12 14  1  0  0  0  0
 12 15  1  0  0  0  0
 16 17  1  0  0  0  0
 17 18  1  0  0  0  0
 17 35  1  0  0  0  0
 17 36  1  0  0  0  0
 18 19  1  0  0  0  0
 18 20  1  0  0  0  0
 18 21  1  0  0  0  0
 22 24  1  0  0  0  0
 22 37  1  0  0  0  0
 22 38  1  0  0  0  0
 23 24  1  0  0  0  0
 23 28  1  0  0  0  0
 23 39  1  0  0  0  0
 24 25  1  0  0  0  0
 24 40  1  0  0  0  0
 25 26  1  0  0  0  0
 25 41  1  0  0  0  0
 25 42  1  0  0  0  0
 26 27  1  0  0  0  0
 26 43  1  0  0  0  0
 26 44  1  0  0  0  0
 27 28  1  0  0  0  0
 27 45  1  0  0  0  0
 27 46  1  0  0  0  0
 28 47  1  0  0  0  0
 28 48  1  0  0  0  0
M  END
>  <Mol_ID>
6300

>  <Formula>
C17H20F6N2O3

>  <MolWeight>
414.3427192

>  <Cat>
E0528

>  <Name>
Flecainide

>  <Target>
Others

>  <Form>
free base

>  <CAS>
54143-55-4

>  <URL>
http://www.selleckchem.com/products/flecainide.html

$$$$
