Flopropione.cdx
 OpenBabel08302522053D

 23 23  0  0  0  0  0  0  0  0999 V2000
   -0.6112    1.3393   -0.0615 C   0  0  0  0  0  0  0  0  0  0  0  0
   -1.3959    0.1742    0.0091 C   0  0  0  0  0  0  0  0  0  0  0  0
    0.7811    1.2005   -0.0714 C   0  0  0  0  0  0  0  0  0  0  0  0
   -1.3055    2.6546   -0.1163 C   0  0  0  0  0  0  0  0  0  0  0  0
   -0.8074   -1.0885    0.0702 C   0  0  0  0  0  0  0  0  0  0  0  0
   -2.7663    0.1986    0.0220 O   0  0  0  0  0  0  0  0  0  0  0  0
    1.3806   -0.0646   -0.0349 C   0  0  0  0  0  0  0  0  0  0  0  0
    1.6032    2.2884   -0.1571 O   0  0  0  0  0  0  0  0  0  0  0  0
   -0.6430    3.9028    0.4279 C   0  0  0  0  0  0  0  0  0  0  0  0
   -2.4556    2.6729   -0.5746 O   0  0  0  0  0  0  0  0  0  0  0  0
    0.5749   -1.1979    0.0367 C   0  0  0  0  0  0  0  0  0  0  0  0
   -1.6862    4.9116    0.8804 C   0  0  0  0  0  0  0  0  0  0  0  0
    1.1075   -2.4543    0.0633 O   0  0  0  0  0  0  0  0  0  0  0  0
   -1.4315   -1.9770    0.1253 H   0  0  0  0  0  0  0  0  0  0  0  0
   -3.0525    1.1027   -0.2421 H   0  0  0  0  0  0  0  0  0  0  0  0
    2.4612   -0.1539   -0.0836 H   0  0  0  0  0  0  0  0  0  0  0  0
    2.0879    2.3476    0.6867 H   0  0  0  0  0  0  0  0  0  0  0  0
   -0.0180    3.6479    1.2896 H   0  0  0  0  0  0  0  0  0  0  0  0
   -0.0216    4.3447   -0.3580 H   0  0  0  0  0  0  0  0  0  0  0  0
   -2.3005    4.4959    1.6886 H   0  0  0  0  0  0  0  0  0  0  0  0
   -1.2108    5.8249    1.2462 H   0  0  0  0  0  0  0  0  0  0  0  0
   -2.3614    5.1838    0.0607 H   0  0  0  0  0  0  0  0  0  0  0  0
    2.0688   -2.4010   -0.0646 H   0  0  0  0  0  0  0  0  0  0  0  0
  1  2  2  0  0  0  0
  1  3  1  0  0  0  0
  1  4  1  0  0  0  0
  2  5  1  0  0  0  0
  2  6  1  0  0  0  0
  3  7  2  0  0  0  0
  3  8  1  0  0  0  0
  4  9  1  0  0  0  0
  4 10  2  0  0  0  0
  5 11  2  0  0  0  0
  5 14  1  0  0  0  0
  6 15  1  0  0  0  0
  7 11  1  0  0  0  0
  7 16  1  0  0  0  0
  8 17  1  0  0  0  0
  9 12  1  0  0  0  0
  9 18  1  0  0  0  0
  9 19  1  0  0  0  0
 11 13  1  0  0  0  0
 12 20  1  0  0  0  0
 12 21  1  0  0  0  0
 12 22  1  0  0  0  0
 13 23  1  0  0  0  0
M  END
>  <Mol_ID>
1366

>  <Formula>
C9H10O4

>  <MolWeight>
182.1733

>  <Cat>
S4249

>  <Name>
Flopropione

>  <Synonyms>
N/A

>  <Target>
5-HT Receptor

>  <Form>
free base

>  <CAS>
2295-58-1

>  <URL>
http://selleckchem.com/products/flopropione.html

$$$$
