Floxuridine.cdx
 OpenBabel08302519513D

 28 29  0  0  0  0  0  0  0  0999 V2000
    1.3830    0.5621   -0.1320 O   0  0  0  0  0  0  0  0  0  0  0  0
    0.1864    1.1165    0.4616 C   0  0  1  0  0  0  0  0  0  0  0  0
   -0.8486   -0.0077    0.5027 C   0  0  2  0  0  0  0  0  0  0  0  0
   -0.0126   -1.2679    0.4828 C   0  0  0  0  0  0  0  0  0  0  0  0
    1.1888   -0.8478   -0.3506 C   0  0  2  0  0  0  0  0  0  0  0  0
    2.4136   -1.5704   -0.0333 N   0  0  0  0  0  0  0  0  0  0  0  0
    0.5338    1.6365    1.8609 C   0  0  0  0  0  0  0  0  0  0  0  0
    1.5299    2.6548    1.7972 O   0  0  0  0  0  0  0  0  0  0  0  0
   -1.6956    0.0193   -0.6464 O   0  0  0  0  0  0  0  0  0  0  0  0
    3.2735   -1.1140    0.9492 C   0  0  0  0  0  0  0  0  0  0  0  0
    4.4330   -1.7182    1.2072 C   0  0  0  0  0  0  0  0  0  0  0  0
    4.8211   -2.9113    0.4400 C   0  0  0  0  0  0  0  0  0  0  0  0
    3.8788   -3.3481   -0.4605 N   0  0  0  0  0  0  0  0  0  0  0  0
    2.6861   -2.7314   -0.7504 C   0  0  0  0  0  0  0  0  0  0  0  0
    1.9334   -3.2033   -1.6022 O   0  0  0  0  0  0  0  0  0  0  0  0
    5.2846   -1.2652    2.1443 F   0  0  0  0  0  0  0  0  0  0  0  0
    5.8999   -3.4761    0.5875 O   0  0  0  0  0  0  0  0  0  0  0  0
   -0.1266    1.9484   -0.1790 H   0  0  0  0  0  0  0  0  0  0  0  0
   -1.5035    0.0453    1.3774 H   0  0  0  0  0  0  0  0  0  0  0  0
    0.2940   -1.5292    1.5021 H   0  0  0  0  0  0  0  0  0  0  0  0
   -0.5259   -2.1315    0.0464 H   0  0  0  0  0  0  0  0  0  0  0  0
    0.9610   -0.9702   -1.4173 H   0  0  0  0  0  0  0  0  0  0  0  0
   -0.3508    2.0682    2.3380 H   0  0  0  0  0  0  0  0  0  0  0  0
    0.9246    0.8410    2.5025 H   0  0  0  0  0  0  0  0  0  0  0  0
    2.3176    2.2589    1.3819 H   0  0  0  0  0  0  0  0  0  0  0  0
   -1.1617    0.1703   -1.4462 H   0  0  0  0  0  0  0  0  0  0  0  0
    2.9913   -0.2248    1.5024 H   0  0  0  0  0  0  0  0  0  0  0  0
    4.1138   -4.1650   -1.0016 H   0  0  0  0  0  0  0  0  0  0  0  0
  1  2  1  0  0  0  0
  2  3  1  0  0  0  0
  2 18  1  6  0  0  0
  2  7  1  0  0  0  0
  3  4  1  0  0  0  0
  3  9  1  0  0  0  0
  3 19  1  1  0  0  0
  4 20  1  0  0  0  0
  4 21  1  0  0  0  0
  5  4  1  0  0  0  0
  5  1  1  0  0  0  0
  5 22  1  6  0  0  0
  5  6  1  0  0  0  0
  6 10  1  0  0  0  0
  7  8  1  0  0  0  0
  7 23  1  0  0  0  0
  7 24  1  0  0  0  0
  8 25  1  0  0  0  0
  9 26  1  0  0  0  0
 10 11  2  0  0  0  0
 10 27  1  0  0  0  0
 11 12  1  0  0  0  0
 11 16  1  0  0  0  0
 12 13  1  0  0  0  0
 12 17  2  0  0  0  0
 13 14  1  0  0  0  0
 13 28  1  0  0  0  0
 14  6  1  0  0  0  0
 14 15  2  0  0  0  0
M  END
>  <Mol_ID>
195

>  <Formula>
C9H11FN2O5

>  <MolWeight>
246.1924432

>  <Cat>
S1299

>  <Name>
Floxuridine (NSC 27640)

>  <Synonyms>
Deoxyfluorouridine, FUDR,NSC 27640

>  <Target>
Apoptosis related,CMV,DNA/RNA Synthesis

>  <Form>
free base

>  <CAS>
50-91-9

>  <URL>
http://selleckchem.com/products/Floxuridine.html

$$$$
