flt-3 inhibitor I(TCS 359).cdx
 OpenBabel08302520403D

 45 47  0  0  0  0  0  0  0  0999 V2000
   -0.1312    0.1125   -0.5853 C   0  0  0  0  0  0  0  0  0  0  0  0
    0.2344   -0.9275    0.2491 C   0  0  0  0  0  0  0  0  0  0  0  0
   -0.9112   -1.7227    0.6743 C   0  0  0  0  0  0  0  0  0  0  0  0
   -2.0725   -1.1820    0.1454 C   0  0  0  0  0  0  0  0  0  0  0  0
   -1.8127    0.2276   -0.7763 S   0  0  0  0  0  0  0  0  0  0  0  0
    1.6791   -1.1418    0.6293 C   0  0  0  0  0  0  0  0  0  0  0  0
    2.5212    0.1229    0.3936 C   0  0  0  0  0  0  0  0  0  0  0  0
    2.2691    0.7119   -0.9978 C   0  0  0  0  0  0  0  0  0  0  0  0
    0.8002    1.1250   -1.1838 C   0  0  0  0  0  0  0  0  0  0  0  0
   -0.8135   -2.8277    1.6352 C   0  0  0  0  0  0  0  0  0  0  0  0
    0.0259   -2.8627    2.5362 O   0  0  0  0  0  0  0  0  0  0  0  0
   -1.6696   -3.8757    1.4988 N   0  0  0  0  0  0  0  0  0  0  0  0
   -3.4225   -1.4916    0.2560 N   0  0  0  0  0  0  0  0  0  0  0  0
   -3.8656   -2.7078   -0.2367 C   0  0  0  0  0  0  0  0  0  0  0  0
   -5.3233   -2.9700   -0.1883 C   0  0  0  0  0  0  0  0  0  0  0  0
   -5.8627   -3.8251   -1.1648 C   0  0  0  0  0  0  0  0  0  0  0  0
   -7.1647   -4.3337   -1.0544 C   0  0  0  0  0  0  0  0  0  0  0  0
   -7.9464   -3.9402    0.0457 C   0  0  0  0  0  0  0  0  0  0  0  0
   -7.4153   -3.0477    0.9924 C   0  0  0  0  0  0  0  0  0  0  0  0
   -6.1134   -2.5556    0.8818 C   0  0  0  0  0  0  0  0  0  0  0  0
   -3.1419   -3.5797   -0.7102 O   0  0  0  0  0  0  0  0  0  0  0  0
   -9.1959   -4.3874    0.3934 O   0  0  0  0  0  0  0  0  0  0  0  0
   -7.6842   -5.2404   -1.9394 O   0  0  0  0  0  0  0  0  0  0  0  0
   -6.8406   -5.7126   -2.9852 C   0  0  0  0  0  0  0  0  0  0  0  0
  -10.0486   -4.8581   -0.6400 C   0  0  0  0  0  0  0  0  0  0  0  0
    2.0827   -1.9686    0.0324 H   0  0  0  0  0  0  0  0  0  0  0  0
    1.7723   -1.4170    1.6838 H   0  0  0  0  0  0  0  0  0  0  0  0
    3.5841   -0.1172    0.5134 H   0  0  0  0  0  0  0  0  0  0  0  0
    2.2755    0.8751    1.1537 H   0  0  0  0  0  0  0  0  0  0  0  0
    2.9148    1.5827   -1.1593 H   0  0  0  0  0  0  0  0  0  0  0  0
    2.5437   -0.0309   -1.7564 H   0  0  0  0  0  0  0  0  0  0  0  0
    0.6359    2.0892   -0.6873 H   0  0  0  0  0  0  0  0  0  0  0  0
    0.5975    1.2645   -2.2520 H   0  0  0  0  0  0  0  0  0  0  0  0
   -2.1323   -4.0278    0.6048 H   0  0  0  0  0  0  0  0  0  0  0  0
   -1.5009   -4.6811    2.0818 H   0  0  0  0  0  0  0  0  0  0  0  0
   -4.0582   -0.7146    0.1038 H   0  0  0  0  0  0  0  0  0  0  0  0
   -5.2121   -4.1188   -1.9839 H   0  0  0  0  0  0  0  0  0  0  0  0
   -8.0216   -2.7678    1.8525 H   0  0  0  0  0  0  0  0  0  0  0  0
   -5.7149   -1.9223    1.6694 H   0  0  0  0  0  0  0  0  0  0  0  0
   -6.6051   -4.9049   -3.6861 H   0  0  0  0  0  0  0  0  0  0  0  0
   -5.9287   -6.1747   -2.5908 H   0  0  0  0  0  0  0  0  0  0  0  0
   -7.3858   -6.4845   -3.5365 H   0  0  0  0  0  0  0  0  0  0  0  0
  -10.1101   -4.1405   -1.4640 H   0  0  0  0  0  0  0  0  0  0  0  0
   -9.7549   -5.8535   -0.9846 H   0  0  0  0  0  0  0  0  0  0  0  0
  -11.0520   -4.9585   -0.2130 H   0  0  0  0  0  0  0  0  0  0  0  0
  1  2  2  0  0  0  0
  1  5  1  0  0  0  0
  1  9  1  0  0  0  0
  2  3  1  0  0  0  0
  2  6  1  0  0  0  0
  3  4  2  0  0  0  0
  3 10  1  0  0  0  0
  4  5  1  0  0  0  0
  4 13  1  0  0  0  0
  6  7  1  0  0  0  0
  6 26  1  0  0  0  0
  6 27  1  0  0  0  0
  7  8  1  0  0  0  0
  7 28  1  0  0  0  0
  7 29  1  0  0  0  0
  8  9  1  0  0  0  0
  8 30  1  0  0  0  0
  8 31  1  0  0  0  0
  9 32  1  0  0  0  0
  9 33  1  0  0  0  0
 10 11  2  0  0  0  0
 10 12  1  0  0  0  0
 12 34  1  0  0  0  0
 12 35  1  0  0  0  0
 13 14  1  0  0  0  0
 13 36  1  0  0  0  0
 14 15  1  0  0  0  0
 14 21  2  0  0  0  0
 15 16  2  0  0  0  0
 15 20  1  0  0  0  0
 16 17  1  0  0  0  0
 16 37  1  0  0  0  0
 17 18  2  0  0  0  0
 17 23  1  0  0  0  0
 18 19  1  0  0  0  0
 18 22  1  0  0  0  0
 19 20  2  0  0  0  0
 19 38  1  0  0  0  0
 20 39  1  0  0  0  0
 22 25  1  0  0  0  0
 23 24  1  0  0  0  0
 24 40  1  0  0  0  0
 24 41  1  0  0  0  0
 24 42  1  0  0  0  0
 25 43  1  0  0  0  0
 25 44  1  0  0  0  0
 25 45  1  0  0  0  0
M  END
>  <Mol_ID>
3873

>  <Formula>
C18H20N2O4S

>  <MolWeight>
360.4274

>  <Cat>
S8023

>  <Name>
TCS 359

>  <Synonyms>
N/A

>  <Target>
FLT3

>  <Form>
free base

>  <CAS>
301305-73-7

>  <URL>
http://selleckchem.com/products/tcs-359.html

$$$$
