Flubendazole.cdx
 OpenBabel08302521393D

 35 37  0  0  0  0  0  0  0  0999 V2000
   -3.1182   -0.6097    1.3862 C   0  0  0  0  0  0  0  0  0  0  0  0
   -3.4772    0.0232    0.0898 C   0  0  0  0  0  0  0  0  0  0  0  0
   -3.1319   -0.5177   -0.9566 O   0  0  0  0  0  0  0  0  0  0  0  0
   -4.2512    1.2932    0.0405 C   0  0  0  0  0  0  0  0  0  0  0  0
   -2.8209    0.1542    2.5253 C   0  0  0  0  0  0  0  0  0  0  0  0
   -2.5390   -0.4815    3.7352 C   0  0  0  0  0  0  0  0  0  0  0  0
   -2.5233   -1.8710    3.7923 C   0  0  0  0  0  0  0  0  0  0  0  0
   -2.7754   -2.6392    2.6606 C   0  0  0  0  0  0  0  0  0  0  0  0
   -3.0704   -2.0082    1.4514 C   0  0  0  0  0  0  0  0  0  0  0  0
   -5.1857    1.6076    1.0454 C   0  0  0  0  0  0  0  0  0  0  0  0
   -5.8076    2.8531    0.9514 C   0  0  0  0  0  0  0  0  0  0  0  0
   -5.5791    3.7385   -0.0927 C   0  0  0  0  0  0  0  0  0  0  0  0
   -4.6935    3.3891   -1.1198 C   0  0  0  0  0  0  0  0  0  0  0  0
   -4.0316    2.1579   -1.0416 C   0  0  0  0  0  0  0  0  0  0  0  0
   -2.2572   -2.4772    4.9559 F   0  0  0  0  0  0  0  0  0  0  0  0
   -6.7124    3.5039    1.7525 N   0  0  0  0  0  0  0  0  0  0  0  0
   -6.9837    4.7274    1.1917 C   0  0  0  0  0  0  0  0  0  0  0  0
   -6.3110    4.8777    0.0755 N   0  0  0  0  0  0  0  0  0  0  0  0
   -7.8510    5.6034    1.7897 N   0  0  0  0  0  0  0  0  0  0  0  0
   -8.1696    6.8413    1.2866 C   0  0  0  0  0  0  0  0  0  0  0  0
   -8.9605    7.5652    1.8821 O   0  0  0  0  0  0  0  0  0  0  0  0
   -7.5578    7.1678    0.1227 O   0  0  0  0  0  0  0  0  0  0  0  0
   -7.8881    8.4428   -0.4158 C   0  0  0  0  0  0  0  0  0  0  0  0
   -2.8021    1.2408    2.4864 H   0  0  0  0  0  0  0  0  0  0  0  0
   -2.3272    0.0954    4.6303 H   0  0  0  0  0  0  0  0  0  0  0  0
   -2.7427   -3.7222    2.7259 H   0  0  0  0  0  0  0  0  0  0  0  0
   -3.2684   -2.6044    0.5625 H   0  0  0  0  0  0  0  0  0  0  0  0
   -5.4118    0.9305    1.8610 H   0  0  0  0  0  0  0  0  0  0  0  0
   -4.5235    4.0703   -1.9468 H   0  0  0  0  0  0  0  0  0  0  0  0
   -3.3345    1.8816   -1.8312 H   0  0  0  0  0  0  0  0  0  0  0  0
   -7.1004    3.1523    2.6138 H   0  0  0  0  0  0  0  0  0  0  0  0
   -8.3127    5.3699    2.6555 H   0  0  0  0  0  0  0  0  0  0  0  0
   -8.9567    8.4974   -0.6420 H   0  0  0  0  0  0  0  0  0  0  0  0
   -7.5902    9.2384    0.2729 H   0  0  0  0  0  0  0  0  0  0  0  0
   -7.3299    8.5646   -1.3486 H   0  0  0  0  0  0  0  0  0  0  0  0
  1  2  1  0  0  0  0
  1  5  2  0  0  0  0
  2  3  2  0  0  0  0
  2  4  1  0  0  0  0
  4 10  2  0  0  0  0
  5  6  1  0  0  0  0
  5 24  1  0  0  0  0
  6  7  2  0  0  0  0
  6 25  1  0  0  0  0
  7  8  1  0  0  0  0
  7 15  1  0  0  0  0
  8  9  2  0  0  0  0
  8 26  1  0  0  0  0
  9  1  1  0  0  0  0
  9 27  1  0  0  0  0
 10 11  1  0  0  0  0
 10 28  1  0  0  0  0
 11 12  2  0  0  0  0
 11 16  1  0  0  0  0
 12 13  1  0  0  0  0
 13 14  2  0  0  0  0
 13 29  1  0  0  0  0
 14  4  1  0  0  0  0
 14 30  1  0  0  0  0
 16 17  1  0  0  0  0
 16 31  1  0  0  0  0
 17 18  2  0  0  0  0
 17 19  1  0  0  0  0
 18 12  1  0  0  0  0
 19 20  1  0  0  0  0
 19 32  1  0  0  0  0
 20 21  2  0  0  0  0
 20 22  1  0  0  0  0
 22 23  1  0  0  0  0
 23 33  1  0  0  0  0
 23 34  1  0  0  0  0
 23 35  1  0  0  0  0
M  END
>  <Mol_ID>
7991

>  <Formula>
C16H12FN3O3

>  <MolWeight>
313.2831832

>  <Cat>
S1837

>  <Name>
Flubendazole

>  <Synonyms>
Flumoxanal, NSC 313680

>  <Target>
Autophagy,Parasite

>  <Form>
free base

>  <CAS>
31430-15-6

>  <URL>
http://selleckchem.com/products/flubendazole-flutelmium.html

$$$$
