Fludara (Fludarabine Phosphate).cdx
 OpenBabel08302522013D

 37 39  0  0  0  0  0  0  0  0999 V2000
    7.1188   -2.5138   -1.7834 N   0  0  0  0  0  0  0  0  0  0  0  0
    6.1227   -3.3860   -2.0277 C   0  0  0  0  0  0  0  0  0  0  0  0
    4.8339   -3.3079   -1.6309 N   0  0  0  0  0  0  0  0  0  0  0  0
    4.6067   -2.2108   -0.8974 C   0  0  0  0  0  0  0  0  0  0  0  0
    5.5290   -1.2218   -0.5919 C   0  0  0  0  0  0  0  0  0  0  0  0
    6.8425   -1.4178   -1.0503 C   0  0  0  0  0  0  0  0  0  0  0  0
    3.4422   -1.8117   -0.3000 N   0  0  0  0  0  0  0  0  0  0  0  0
    3.6825   -0.5712    0.2455 C   0  0  0  0  0  0  0  0  0  0  0  0
    4.9264   -0.1881    0.0966 N   0  0  0  0  0  0  0  0  0  0  0  0
    7.8712   -0.5222   -0.7936 N   0  0  0  0  0  0  0  0  0  0  0  0
    6.4380   -4.4534   -2.7781 F   0  0  0  0  0  0  0  0  0  0  0  0
    2.1908   -2.5277   -0.1519 C   0  0  1  0  0  0  0  0  0  0  0  0
    1.6655   -3.3921   -1.3068 C   0  0  2  0  0  0  0  0  0  0  0  0
    2.2239   -4.7710   -0.9909 C   0  0  1  0  0  0  0  0  0  0  0  0
    2.1989   -4.7754    0.5382 C   0  0  2  0  0  0  0  0  0  0  0  0
    2.3191   -3.4069    0.9851 O   0  0  0  0  0  0  0  0  0  0  0  0
    3.3380   -5.6128    1.1079 C   0  0  0  0  0  0  0  0  0  0  0  0
    1.9280   -2.9072   -2.6139 O   0  0  0  0  0  0  0  0  0  0  0  0
    3.2065   -5.7537    2.5252 O   0  0  0  0  0  0  0  0  0  0  0  0
    4.5215   -6.6777    3.1653 P   0  0  0  0  0  0  0  0  0  0  0  0
    5.3732   -5.4285    3.3637 O   0  0  0  0  0  0  0  0  0  0  0  0
    3.7134   -6.9304    4.5539 O   0  0  0  0  0  0  0  0  0  0  0  0
    5.8365   -7.6018    3.8055 O   0  0  0  0  0  0  0  0  0  0  0  0
    1.4725   -5.8569   -1.5234 O   0  0  0  0  0  0  0  0  0  0  0  0
    2.9116   -0.0010    0.7516 H   0  0  0  0  0  0  0  0  0  0  0  0
    7.5581    0.3986   -0.5068 H   0  0  0  0  0  0  0  0  0  0  0  0
    8.6255   -0.5842   -1.4641 H   0  0  0  0  0  0  0  0  0  0  0  0
    1.4319   -1.7720    0.0951 H   0  0  0  0  0  0  0  0  0  0  0  0
    0.5716   -3.4435   -1.2192 H   0  0  0  0  0  0  0  0  0  0  0  0
    3.2282   -4.9033   -1.3822 H   0  0  0  0  0  0  0  0  0  0  0  0
    1.2419   -5.1550    0.9135 H   0  0  0  0  0  0  0  0  0  0  0  0
    3.3354   -6.6160    0.6677 H   0  0  0  0  0  0  0  0  0  0  0  0
    4.3009   -5.1335    0.8995 H   0  0  0  0  0  0  0  0  0  0  0  0
    2.8920   -2.9398   -2.7639 H   0  0  0  0  0  0  0  0  0  0  0  0
    3.1429   -7.7179    4.5276 H   0  0  0  0  0  0  0  0  0  0  0  0
    6.1264   -7.0500    4.5615 H   0  0  0  0  0  0  0  0  0  0  0  0
    0.6042   -5.5348   -1.8205 H   0  0  0  0  0  0  0  0  0  0  0  0
  1  2  2  0  0  0  0
  2  3  1  0  0  0  0
  2 11  1  0  0  0  0
  3  4  2  0  0  0  0
  4  5  1  0  0  0  0
  4  7  1  0  0  0  0
  5  6  2  0  0  0  0
  6  1  1  0  0  0  0
  6 10  1  0  0  0  0
  7  8  1  0  0  0  0
  8  9  2  0  0  0  0
  8 25  1  0  0  0  0
  9  5  1  0  0  0  0
 10 26  1  0  0  0  0
 10 27  1  0  0  0  0
 12 13  1  0  0  0  0
 12 28  1  1  0  0  0
 12  7  1  0  0  0  0
 13 14  1  0  0  0  0
 13 18  1  0  0  0  0
 13 29  1  1  0  0  0
 14 15  1  0  0  0  0
 14 24  1  0  0  0  0
 14 30  1  6  0  0  0
 15 16  1  0  0  0  0
 15 17  1  0  0  0  0
 15 31  1  1  0  0  0
 16 12  1  0  0  0  0
 17 19  1  0  0  0  0
 17 32  1  0  0  0  0
 17 33  1  0  0  0  0
 18 34  1  0  0  0  0
 19 20  1  0  0  0  0
 20 21  2  0  0  0  0
 20 22  1  0  0  0  0
 20 23  1  0  0  0  0
 22 35  1  0  0  0  0
 23 36  1  0  0  0  0
 24 37  1  0  0  0  0
M  END
>  <Mol_ID>
131

>  <Formula>
C10H13FN5O7P

>  <MolWeight>
365.2116842

>  <Cat>
S1229

>  <Name>
Fludarabine Phosphate

>  <Synonyms>
F-ara-A (NSC 312887) Phosphate

>  <Target>
DNA/RNA Synthesis

>  <Form>
Phosphate

>  <CAS>
75607-67-9

>  <URL>
http://selleckchem.com/products/Fludara.html

$$$$
