Fludarabine.cdx
 OpenBabel08302520013D

 32 34  0  0  0  0  0  0  0  0999 V2000
    1.8719   -0.0198   -0.0186 O   0  0  0  0  0  0  0  0  0  0  0  0
    1.0268    1.1551    0.0657 C   0  0  1  0  0  0  0  0  0  0  0  0
   -0.3834    0.6720    0.3805 C   0  0  2  0  0  0  0  0  0  0  0  0
   -0.3793   -0.6998   -0.2733 C   0  0  1  0  0  0  0  0  0  0  0  0
    1.0388   -1.1989    0.0409 C   0  0  2  0  0  0  0  0  0  0  0  0
    1.1950   -1.8723    1.3258 N   0  0  0  0  0  0  0  0  0  0  0  0
    1.9993   -1.5461    2.3884 C   0  0  0  0  0  0  0  0  0  0  0  0
    1.7193   -2.4979    3.3565 C   0  0  0  0  0  0  0  0  0  0  0  0
    0.8194   -3.4264    2.8892 N   0  0  0  0  0  0  0  0  0  0  0  0
    0.5599   -3.0482    1.6569 C   0  0  0  0  0  0  0  0  0  0  0  0
    2.8685   -0.5307    2.5037 N   0  0  0  0  0  0  0  0  0  0  0  0
    3.4731   -0.5214    3.7090 C   0  0  0  0  0  0  0  0  0  0  0  0
    3.2764   -1.3661    4.7393 N   0  0  0  0  0  0  0  0  0  0  0  0
    2.3818   -2.3626    4.5883 C   0  0  0  0  0  0  0  0  0  0  0  0
    2.1639   -3.2192    5.6587 N   0  0  0  0  0  0  0  0  0  0  0  0
    4.3733    0.4556    3.9058 F   0  0  0  0  0  0  0  0  0  0  0  0
    1.5551    2.1234    1.1221 C   0  0  0  0  0  0  0  0  0  0  0  0
   -1.4465   -1.5472    0.1255 O   0  0  0  0  0  0  0  0  0  0  0  0
    2.8833    2.5173    0.7873 O   0  0  0  0  0  0  0  0  0  0  0  0
   -1.3983    1.5245   -0.1314 O   0  0  0  0  0  0  0  0  0  0  0  0
    1.0746    1.6421   -0.9165 H   0  0  0  0  0  0  0  0  0  0  0  0
   -0.5523    0.5797    1.4595 H   0  0  0  0  0  0  0  0  0  0  0  0
   -0.4790   -0.5728   -1.3592 H   0  0  0  0  0  0  0  0  0  0  0  0
    1.3860   -1.9128   -0.7144 H   0  0  0  0  0  0  0  0  0  0  0  0
   -0.0949   -3.5719    0.9690 H   0  0  0  0  0  0  0  0  0  0  0  0
    1.7546   -4.1083    5.4005 H   0  0  0  0  0  0  0  0  0  0  0  0
    2.9246   -3.2230    6.3228 H   0  0  0  0  0  0  0  0  0  0  0  0
    0.9338    3.0207    1.1805 H   0  0  0  0  0  0  0  0  0  0  0  0
    1.5835    1.6665    2.1155 H   0  0  0  0  0  0  0  0  0  0  0  0
   -1.7455   -1.2895    1.0182 H   0  0  0  0  0  0  0  0  0  0  0  0
    3.4012    1.6893    0.7602 H   0  0  0  0  0  0  0  0  0  0  0  0
   -1.3268    1.5707   -1.0993 H   0  0  0  0  0  0  0  0  0  0  0  0
  1  2  1  0  0  0  0
  2  3  1  0  0  0  0
  2 17  1  0  0  0  0
  2 21  1  6  0  0  0
  3  4  1  0  0  0  0
  3 20  1  0  0  0  0
  3 22  1  1  0  0  0
  4  5  1  0  0  0  0
  4 18  1  0  0  0  0
  4 23  1  6  0  0  0
  5  1  1  0  0  0  0
  5  6  1  0  0  0  0
  5 24  1  6  0  0  0
  6  7  1  0  0  0  0
  7  8  2  0  0  0  0
  7 11  1  0  0  0  0
  8  9  1  0  0  0  0
  9 10  2  0  0  0  0
 10  6  1  0  0  0  0
 10 25  1  0  0  0  0
 11 12  2  0  0  0  0
 12 13  1  0  0  0  0
 12 16  1  0  0  0  0
 13 14  2  0  0  0  0
 14  8  1  0  0  0  0
 14 15  1  0  0  0  0
 15 26  1  0  0  0  0
 15 27  1  0  0  0  0
 17 19  1  0  0  0  0
 17 28  1  0  0  0  0
 17 29  1  0  0  0  0
 18 30  1  0  0  0  0
 19 31  1  0  0  0  0
 20 32  1  0  0  0  0
M  END
>  <Mol_ID>
291

>  <Formula>
C10H12FN5O4

>  <MolWeight>
285.2317832

>  <Cat>
S1491

>  <Name>
Fludarabine (NSC 118218)

>  <Synonyms>
FaraA, Fludarabinum, NSC 118218

>  <Target>
Apoptosis related,DNA/RNA Synthesis,Nucleoside Analog/Antimetabolite,STAT

>  <Form>
Free Base

>  <CAS>
21679-14-1

>  <URL>
http://selleckchem.com/products/Fludarabine(Fludara).html

$$$$
