Flugestone 17-acetate
 OpenBabel08302521422D

 60 63  0  0  0  0  0  0  0  0999 V2000
    7.2625    5.6365    0.0000 C   0  0  0  0  0  0  0  0  0  0  0  0
    7.2625    4.2368    0.0000 C   0  0  1  0  0  0  0  0  0  0  0  0
    8.4697    4.9402    0.0000 C   0  0  1  0  0  0  0  0  0  0  0  0
    7.2625    2.8210    0.0000 C   0  0  2  0  0  0  0  0  0  0  0  0
    6.0517    4.9402    0.0000 C   0  0  0  0  0  0  0  0  0  0  0  0
    9.6839    5.6400    0.0000 O   0  0  0  0  0  0  0  0  0  0  0  0
    8.4697    6.3399    0.0000 C   0  0  0  0  0  0  0  0  0  0  0  0
    9.6804    4.2368    0.0000 C   0  0  0  0  0  0  0  0  0  0  0  0
    6.0517    2.1160    0.0000 C   0  0  1  0  0  0  0  0  0  0  0  0
    9.6804    2.8210    0.0000 C   0  0  0  0  0  0  0  0  0  0  0  0
    4.8428    4.2368    0.0000 C   0  0  1  0  0  0  0  0  0  0  0  0
   10.8945    4.9402    0.0000 C   0  0  0  0  0  0  0  0  0  0  0  0
    9.6839    7.0397    0.0000 C   0  0  0  0  0  0  0  0  0  0  0  0
    7.2590    7.0397    0.0000 O   0  0  0  0  0  0  0  0  0  0  0  0
    4.8428    2.8210    0.0000 C   0  0  1  0  0  0  0  0  0  0  0  0
    6.0517    0.7054    0.0000 C   0  0  0  0  0  0  0  0  0  0  0  0
    3.6303    4.9331    0.0000 O   0  0  0  0  0  0  0  0  0  0  0  0
   12.1123    5.6400    0.0000 C   0  0  0  0  0  0  0  0  0  0  0  0
   10.8945    3.5406    0.0000 O   0  0  0  0  0  0  0  0  0  0  0  0
    4.8428    1.4210    0.0000 F   0  0  0  0  0  0  0  0  0  0  0  0
    3.6339    2.1160    0.0000 C   0  0  2  0  0  0  0  0  0  0  0  0
    4.8428    0.0000    0.0000 C   0  0  0  0  0  0  0  0  0  0  0  0
    3.6339    3.5160    0.0000 C   0  0  0  0  0  0  0  0  0  0  0  0
    3.6339    0.7054    0.0000 C   0  0  0  0  0  0  0  0  0  0  0  0
    2.4250    2.8210    0.0000 C   0  0  0  0  0  0  0  0  0  0  0  0
    2.4250    0.0000    0.0000 C   0  0  0  0  0  0  0  0  0  0  0  0
    1.2160    2.1160    0.0000 C   0  0  0  0  0  0  0  0  0  0  0  0
    1.2160    0.7054    0.0000 C   0  0  0  0  0  0  0  0  0  0  0  0
    0.0000    0.0071    0.0000 O   0  0  0  0  0  0  0  0  0  0  0  0
    8.1891    6.1715    0.0000 H   0  0  0  0  0  0  0  0  0  0  0  0
    6.3359    6.1715    0.0000 H   0  0  0  0  0  0  0  0  0  0  0  0
    7.2625    6.7065    0.0000 H   0  0  0  0  0  0  0  0  0  0  0  0
    8.0191    3.5776    0.0000 H   0  0  0  0  0  0  0  0  0  0  0  0
    6.0513    6.0102    0.0000 H   0  0  0  0  0  0  0  0  0  0  0  0
    5.1241    5.4735    0.0000 H   0  0  0  0  0  0  0  0  0  0  0  0
   10.6078    4.7705    0.0000 H   0  0  0  0  0  0  0  0  0  0  0  0
   10.6067    3.7012    0.0000 H   0  0  0  0  0  0  0  0  0  0  0  0
    6.9793    1.5827    0.0000 H   0  0  0  0  0  0  0  0  0  0  0  0
   10.4370    2.0644    0.0000 H   0  0  0  0  0  0  0  0  0  0  0  0
   10.6690    3.2305    0.0000 H   0  0  0  0  0  0  0  0  0  0  0  0
    4.8398    5.3068    0.0000 H   0  0  0  0  0  0  0  0  0  0  0  0
   10.6101    6.5040    0.0000 H   0  0  0  0  0  0  0  0  0  0  0  0
    9.6847    8.1097    0.0000 H   0  0  0  0  0  0  0  0  0  0  0  0
   10.6109    7.5740    0.0000 H   0  0  0  0  0  0  0  0  0  0  0  0
    6.9796    0.1725    0.0000 H   0  0  0  0  0  0  0  0  0  0  0  0
    6.0554   -0.3646    0.0000 H   0  0  0  0  0  0  0  0  0  0  0  0
    3.6281    5.9031    0.0000 H   0  0  0  0  0  0  0  0  0  0  0  0
   13.0379    5.1031    0.0000 H   0  0  0  0  0  0  0  0  0  0  0  0
   12.1145    6.7100    0.0000 H   0  0  0  0  0  0  0  0  0  0  0  0
   13.0400    6.1731    0.0000 H   0  0  0  0  0  0  0  0  0  0  0  0
    4.8428   -1.0700    0.0000 H   0  0  0  0  0  0  0  0  0  0  0  0
    3.9149   -0.5329    0.0000 H   0  0  0  0  0  0  0  0  0  0  0  0
    4.5605    4.0510    0.0000 H   0  0  0  0  0  0  0  0  0  0  0  0
    2.7073    4.0510    0.0000 H   0  0  0  0  0  0  0  0  0  0  0  0
    3.6339    4.5860    0.0000 H   0  0  0  0  0  0  0  0  0  0  0  0
    2.4250    3.8910    0.0000 H   0  0  0  0  0  0  0  0  0  0  0  0
    1.4972    3.3540    0.0000 H   0  0  0  0  0  0  0  0  0  0  0  0
    2.4250   -1.0320    0.0000 H   0  0  0  0  0  0  0  0  0  0  0  0
    0.2882    2.6490    0.0000 H   0  0  0  0  0  0  0  0  0  0  0  0
    0.2899    1.5800    0.0000 H   0  0  0  0  0  0  0  0  0  0  0  0
  1 30  1  0  0  0  0
  1 31  1  0  0  0  0
  1 32  1  0  0  0  0
  2  1  1  1  0  0  0
  2  3  1  0  0  0  0
  2  4  1  0  0  0  0
  2  5  1  0  0  0  0
  3  6  1  6  0  0  0
  3  7  1  0  0  0  0
  3  8  1  0  0  0  0
  4  9  1  0  0  0  0
  4 10  1  0  0  0  0
  4 33  1  6  0  0  0
  5 11  1  0  0  0  0
  5 34  1  0  0  0  0
  5 35  1  0  0  0  0
  6 12  1  0  0  0  0
  7 13  1  0  0  0  0
  7 14  2  0  0  0  0
  8 10  1  0  0  0  0
  8 36  1  0  0  0  0
  8 37  1  0  0  0  0
  9 15  1  0  0  0  0
  9 16  1  0  0  0  0
  9 38  1  1  0  0  0
 10 39  1  0  0  0  0
 10 40  1  0  0  0  0
 11 15  1  0  0  0  0
 11 17  1  0  0  0  0
 11 41  1  6  0  0  0
 12 18  1  0  0  0  0
 12 19  2  0  0  0  0
 13 42  1  0  0  0  0
 13 43  1  0  0  0  0
 13 44  1  0  0  0  0
 15 20  1  6  0  0  0
 15 21  1  0  0  0  0
 16 22  1  0  0  0  0
 16 45  1  0  0  0  0
 16 46  1  0  0  0  0
 17 47  1  0  0  0  0
 18 48  1  0  0  0  0
 18 49  1  0  0  0  0
 18 50  1  0  0  0  0
 21 23  1  1  0  0  0
 21 24  1  0  0  0  0
 21 25  1  0  0  0  0
 22 24  1  0  0  0  0
 22 51  1  0  0  0  0
 22 52  1  0  0  0  0
 23 53  1  0  0  0  0
 23 54  1  0  0  0  0
 23 55  1  0  0  0  0
 24 26  2  0  0  0  0
 25 27  1  0  0  0  0
 25 56  1  0  0  0  0
 25 57  1  0  0  0  0
 26 28  1  0  0  0  0
 26 58  1  0  0  0  0
 27 28  1  0  0  0  0
 27 59  1  0  0  0  0
 27 60  1  0  0  0  0
 28 29  2  0  0  0  0
M  END
>  <Mol_ID>
6297

>  <Formula>
C23H31FO5

>  <MolWeight>
406.4876432

>  <Cat>
E0514

>  <Name>
Flugestone 17-acetate

>  <Synonyms>
Flurogestone acetate

>  <Target>
Others

>  <Form>
free base

>  <CAS>
2529-45-5

>  <URL>
http://www.selleckchem.com/products/flugestone-17-acetate.html

$$$$
