Flumequine.cdx
 OpenBabel08302521593D

 31 33  0  0  0  0  0  0  0  0999 V2000
   -1.4274   -0.0444   -0.0145 C   0  0  0  0  0  0  0  0  0  0  0  0
   -2.2034    1.2176   -0.0259 C   0  0  0  0  0  0  0  0  0  0  0  0
   -1.4546    2.4952   -0.0630 C   0  0  0  0  0  0  0  0  0  0  0  0
   -0.1133    2.3963   -0.0811 C   0  0  0  0  0  0  0  0  0  0  0  0
    0.6530    1.2309   -0.0467 N   0  0  0  0  0  0  0  0  0  0  0  0
    2.1248    1.2942    0.1063 C   0  0  3  0  0  0  0  0  0  0  0  0
    2.9006   -0.0020   -0.1396 C   0  0  0  0  0  0  0  0  0  0  0  0
    2.1564   -1.3177   -0.0360 C   0  0  0  0  0  0  0  0  0  0  0  0
    0.6667   -1.2294   -0.0187 C   0  0  0  0  0  0  0  0  0  0  0  0
   -0.0124   -0.0060   -0.0199 C   0  0  0  0  0  0  0  0  0  0  0  0
   -2.1389   -1.2515    0.0054 C   0  0  0  0  0  0  0  0  0  0  0  0
   -1.4399   -2.4410    0.0145 C   0  0  0  0  0  0  0  0  0  0  0  0
   -0.0537   -2.4414    0.0018 C   0  0  0  0  0  0  0  0  0  0  0  0
   -2.1453    3.8041   -0.0586 C   0  0  0  0  0  0  0  0  0  0  0  0
   -3.3488    4.0071   -0.0485 O   0  0  0  0  0  0  0  0  0  0  0  0
   -1.3041    4.8528   -0.0522 O   0  0  0  0  0  0  0  0  0  0  0  0
   -3.4300    1.1730   -0.0017 O   0  0  0  0  0  0  0  0  0  0  0  0
    2.4977    1.8903    1.4705 C   0  0  0  0  0  0  0  0  0  0  0  0
   -2.1025   -3.6041    0.0331 F   0  0  0  0  0  0  0  0  0  0  0  0
    0.4988    3.2955   -0.1086 H   0  0  0  0  0  0  0  0  0  0  0  0
    2.4926    2.0068   -0.6471 H   0  0  0  0  0  0  0  0  0  0  0  0
    3.3509    0.0537   -1.1403 H   0  0  0  0  0  0  0  0  0  0  0  0
    3.7708   -0.0571    0.5315 H   0  0  0  0  0  0  0  0  0  0  0  0
    2.4556   -1.9429   -0.8896 H   0  0  0  0  0  0  0  0  0  0  0  0
    2.4828   -1.8496    0.8671 H   0  0  0  0  0  0  0  0  0  0  0  0
   -3.2252   -1.2675    0.0132 H   0  0  0  0  0  0  0  0  0  0  0  0
    0.4653   -3.3970    0.0049 H   0  0  0  0  0  0  0  0  0  0  0  0
   -1.9194    5.6163   -0.0340 H   0  0  0  0  0  0  0  0  0  0  0  0
    3.5847    1.9942    1.5633 H   0  0  0  0  0  0  0  0  0  0  0  0
    2.0743    2.8917    1.5985 H   0  0  0  0  0  0  0  0  0  0  0  0
    2.1366    1.2635    2.2911 H   0  0  0  0  0  0  0  0  0  0  0  0
  1  2  1  0  0  0  0
  1 10  2  0  0  0  0
  1 11  1  0  0  0  0
  2  3  1  0  0  0  0
  2 17  2  0  0  0  0
  3  4  2  0  0  0  0
  3 14  1  0  0  0  0
  4  5  1  0  0  0  0
  4 20  1  0  0  0  0
  5  6  1  0  0  0  0
  5 10  1  0  0  0  0
  6  7  1  0  0  0  0
  6 18  1  0  0  0  0
  6 21  1  0  0  0  0
  7  8  1  0  0  0  0
  7 22  1  0  0  0  0
  7 23  1  0  0  0  0
  8  9  1  0  0  0  0
  8 24  1  0  0  0  0
  8 25  1  0  0  0  0
  9 10  1  0  0  0  0
  9 13  2  0  0  0  0
 11 12  2  0  0  0  0
 11 26  1  0  0  0  0
 12 13  1  0  0  0  0
 12 19  1  0  0  0  0
 13 27  1  0  0  0  0
 14 15  2  0  0  0  0
 14 16  1  0  0  0  0
 16 28  1  0  0  0  0
 18 29  1  0  0  0  0
 18 30  1  0  0  0  0
 18 31  1  0  0  0  0
M  END
>  <Mol_ID>
996

>  <Formula>
C14H12FNO3

>  <MolWeight>
261.2483832

>  <Cat>
S3181

>  <Name>
Flumequine

>  <Synonyms>
R-802

>  <Target>
Topoisomerase

>  <Form>
free base

>  <CAS>
42835-25-6

>  <URL>
http://selleckchem.com/products/flumequine.html

$$$$
