Flumazenil.cdx
 OpenBabel08302519523D

 36 38  0  0  0  0  0  0  0  0999 V2000
   -2.6393    1.6047   -0.2861 C   0  0  0  0  0  0  0  0  0  0  0  0
   -3.2889    0.4157    0.0278 C   0  0  0  0  0  0  0  0  0  0  0  0
   -2.5694   -0.7095    0.3934 C   0  0  0  0  0  0  0  0  0  0  0  0
   -1.1711   -0.6709    0.3985 C   0  0  0  0  0  0  0  0  0  0  0  0
   -0.5038    0.5272    0.0706 C   0  0  0  0  0  0  0  0  0  0  0  0
   -1.2465    1.6774   -0.2401 C   0  0  0  0  0  0  0  0  0  0  0  0
   -0.5093   -1.9310    0.8202 C   0  0  0  0  0  0  0  0  0  0  0  0
    0.5263   -2.4323    0.0449 N   0  0  0  0  0  0  0  0  0  0  0  0
    1.1292   -1.6901   -1.0421 C   0  0  0  0  0  0  0  0  0  0  0  0
    1.7089   -0.4555   -0.4654 C   0  0  0  0  0  0  0  0  0  0  0  0
    0.9023    0.5627   -0.0022 N   0  0  0  0  0  0  0  0  0  0  0  0
   -4.6239    0.3514   -0.0395 F   0  0  0  0  0  0  0  0  0  0  0  0
    3.0143   -0.0203   -0.2843 C   0  0  0  0  0  0  0  0  0  0  0  0
    2.9993    1.2878    0.1821 N   0  0  0  0  0  0  0  0  0  0  0  0
    1.7334    1.6085    0.3158 C   0  0  0  0  0  0  0  0  0  0  0  0
   -0.9727   -2.5183    1.7951 O   0  0  0  0  0  0  0  0  0  0  0  0
    0.7912   -3.8586    0.0941 C   0  0  0  0  0  0  0  0  0  0  0  0
    4.2458   -0.7703   -0.5479 C   0  0  0  0  0  0  0  0  0  0  0  0
    4.2599   -1.8977   -1.0345 O   0  0  0  0  0  0  0  0  0  0  0  0
    5.3623   -0.0754   -0.1851 O   0  0  0  0  0  0  0  0  0  0  0  0
    6.6193   -0.7310   -0.3878 C   0  0  0  0  0  0  0  0  0  0  0  0
    6.9231   -1.6690    0.7661 C   0  0  0  0  0  0  0  0  0  0  0  0
   -3.2316    2.4662   -0.5859 H   0  0  0  0  0  0  0  0  0  0  0  0
   -3.1015   -1.6203    0.6584 H   0  0  0  0  0  0  0  0  0  0  0  0
   -0.7633    2.6120   -0.5212 H   0  0  0  0  0  0  0  0  0  0  0  0
    1.8837   -2.3023   -1.5424 H   0  0  0  0  0  0  0  0  0  0  0  0
    0.3580   -1.4608   -1.7886 H   0  0  0  0  0  0  0  0  0  0  0  0
    1.3701    2.5543    0.6969 H   0  0  0  0  0  0  0  0  0  0  0  0
    0.3806   -4.3085   -0.8174 H   0  0  0  0  0  0  0  0  0  0  0  0
    1.8682   -4.0285    0.1368 H   0  0  0  0  0  0  0  0  0  0  0  0
    0.3117   -4.3349    0.9533 H   0  0  0  0  0  0  0  0  0  0  0  0
    6.6421   -1.2540   -1.3506 H   0  0  0  0  0  0  0  0  0  0  0  0
    7.3831    0.0528   -0.4293 H   0  0  0  0  0  0  0  0  0  0  0  0
    6.1970   -2.4867    0.8103 H   0  0  0  0  0  0  0  0  0  0  0  0
    7.9234   -2.0991    0.6631 H   0  0  0  0  0  0  0  0  0  0  0  0
    6.8628   -1.1375    1.7215 H   0  0  0  0  0  0  0  0  0  0  0  0
  1  2  2  0  0  0  0
  1 23  1  0  0  0  0
  2  3  1  0  0  0  0
  2 12  1  0  0  0  0
  3  4  2  0  0  0  0
  3 24  1  0  0  0  0
  4  5  1  0  0  0  0
  4  7  1  0  0  0  0
  5  6  2  0  0  0  0
  6  1  1  0  0  0  0
  6 25  1  0  0  0  0
  7  8  1  0  0  0  0
  7 16  2  0  0  0  0
  8  9  1  0  0  0  0
  8 17  1  0  0  0  0
  9 10  1  0  0  0  0
  9 26  1  0  0  0  0
  9 27  1  0  0  0  0
 10 11  1  0  0  0  0
 10 13  2  0  0  0  0
 11  5  1  0  0  0  0
 13 14  1  0  0  0  0
 13 18  1  0  0  0  0
 14 15  2  0  0  0  0
 15 11  1  0  0  0  0
 15 28  1  0  0  0  0
 17 29  1  0  0  0  0
 17 30  1  0  0  0  0
 17 31  1  0  0  0  0
 18 19  2  0  0  0  0
 18 20  1  0  0  0  0
 20 21  1  0  0  0  0
 21 22  1  0  0  0  0
 21 32  1  0  0  0  0
 21 33  1  0  0  0  0
 22 34  1  0  0  0  0
 22 35  1  0  0  0  0
 22 36  1  0  0  0  0
M  END
>  <Mol_ID>
208

>  <Formula>
C15H14FN3O3

>  <MolWeight>
303.2883632

>  <Cat>
S1332

>  <Name>
Flumazenil (RO 15-1788)

>  <Synonyms>
RO 15-1788

>  <Target>
GABA Receptor

>  <Form>
free base

>  <CAS>
78755-81-4

>  <URL>
http://selleckchem.com/products/Flumazenil.html

$$$$
