Fluorofurimazine
 OpenBabel08302521353D

 50 54  0  0  0  0  0  0  0  0999 V2000
    0.8250    0.0545    0.0465 C   0  0  0  0  0  0  0  0  0  0  0  0
   -3.3901    4.1184    1.1400 O   0  0  0  0  0  0  0  0  0  0  0  0
   -4.2984    1.3239    1.6664 C   0  0  0  0  0  0  0  0  0  0  0  0
    2.6971    0.3376   -2.0966 F   0  0  0  0  0  0  0  0  0  0  0  0
    1.2564    4.9197   -2.5254 F   0  0  0  0  0  0  0  0  0  0  0  0
    3.1962    6.8115   -3.1206 N   0  0  0  0  0  0  0  0  0  0  0  0
   -0.8929    1.8053    0.6243 C   0  0  0  0  0  0  0  0  0  0  0  0
   -1.2936    3.1292    0.6943 N   0  0  0  0  0  0  0  0  0  0  0  0
    0.3560    1.4782    0.2187 C   0  0  0  0  0  0  0  0  0  0  0  0
   -1.9177    0.9492    0.9761 N   0  0  0  0  0  0  0  0  0  0  0  0
   -0.4026    4.1336    0.4016 C   0  0  0  0  0  0  0  0  0  0  0  0
   -2.6112    3.2014    1.0204 C   0  0  0  0  0  0  0  0  0  0  0  0
    1.2662    2.5098   -0.0225 N   0  0  0  0  0  0  0  0  0  0  0  0
   -2.9371    1.7312    1.2224 C   0  0  0  0  0  0  0  0  0  0  0  0
    0.8640    3.8321    0.0483 C   0  0  0  0  0  0  0  0  0  0  0  0
    0.6092   -0.4974   -1.3438 C   0  0  0  0  0  0  0  0  0  0  0  0
    1.5700   -0.3452   -2.3473 C   0  0  0  0  0  0  0  0  0  0  0  0
   -0.5684   -1.1954   -1.6515 C   0  0  0  0  0  0  0  0  0  0  0  0
    1.3939   -0.9085   -3.6117 C   0  0  0  0  0  0  0  0  0  0  0  0
   -0.7488   -1.7690   -2.9133 C   0  0  0  0  0  0  0  0  0  0  0  0
    0.2368   -1.6346   -3.8907 C   0  0  0  0  0  0  0  0  0  0  0  0
    1.8551    4.8748   -0.2300 C   0  0  0  0  0  0  0  0  0  0  0  0
    2.0212    5.3838   -1.5217 C   0  0  0  0  0  0  0  0  0  0  0  0
    2.6701    5.3635    0.8002 C   0  0  0  0  0  0  0  0  0  0  0  0
    2.9610    6.3891   -1.8001 C   0  0  0  0  0  0  0  0  0  0  0  0
    3.6567    6.3120    0.5255 C   0  0  0  0  0  0  0  0  0  0  0  0
    3.8155    6.8021   -0.7742 C   0  0  0  0  0  0  0  0  0  0  0  0
   -5.1490    1.0694    0.4828 C   0  0  0  0  0  0  0  0  0  0  0  0
   -6.0197    1.8488   -0.2505 C   0  0  0  0  0  0  0  0  0  0  0  0
   -5.1181   -0.1962   -0.0233 O   0  0  0  0  0  0  0  0  0  0  0  0
   -6.5423    1.0123   -1.2669 C   0  0  0  0  0  0  0  0  0  0  0  0
   -5.9598   -0.2198   -1.0873 C   0  0  0  0  0  0  0  0  0  0  0  0
    0.3274   -0.6040    0.7707 H   0  0  0  0  0  0  0  0  0  0  0  0
    1.8910   -0.0201    0.3024 H   0  0  0  0  0  0  0  0  0  0  0  0
   -4.2163    0.4221    2.2827 H   0  0  0  0  0  0  0  0  0  0  0  0
   -4.7328    2.1098    2.2935 H   0  0  0  0  0  0  0  0  0  0  0  0
    3.5764    7.7494   -3.1922 H   0  0  0  0  0  0  0  0  0  0  0  0
    2.3834    6.6696   -3.7183 H   0  0  0  0  0  0  0  0  0  0  0  0
   -0.7797    5.1512    0.4657 H   0  0  0  0  0  0  0  0  0  0  0  0
    2.1316    2.2896   -0.5080 H   0  0  0  0  0  0  0  0  0  0  0  0
   -1.3496   -1.3045   -0.9005 H   0  0  0  0  0  0  0  0  0  0  0  0
    2.1630   -0.7877   -4.3689 H   0  0  0  0  0  0  0  0  0  0  0  0
   -1.6572   -2.3267   -3.1269 H   0  0  0  0  0  0  0  0  0  0  0  0
    0.0993   -2.0931   -4.8676 H   0  0  0  0  0  0  0  0  0  0  0  0
    2.5561    4.9897    1.8157 H   0  0  0  0  0  0  0  0  0  0  0  0
    4.3148    6.6598    1.3185 H   0  0  0  0  0  0  0  0  0  0  0  0
    4.6155    7.5091   -0.9810 H   0  0  0  0  0  0  0  0  0  0  0  0
   -6.2484    2.8916   -0.0741 H   0  0  0  0  0  0  0  0  0  0  0  0
   -7.2546    1.2735   -2.0366 H   0  0  0  0  0  0  0  0  0  0  0  0
   -6.0345   -1.1677   -1.6016 H   0  0  0  0  0  0  0  0  0  0  0  0
  1  9  1  0  0  0  0
  1 16  1  0  0  0  0
  1 33  1  0  0  0  0
  1 34  1  0  0  0  0
  2 12  2  0  0  0  0
  3 14  1  0  0  0  0
  3 28  1  0  0  0  0
  3 35  1  0  0  0  0
  3 36  1  0  0  0  0
  4 17  1  0  0  0  0
  5 23  1  0  0  0  0
  6 25  1  0  0  0  0
  6 37  1  0  0  0  0
  6 38  1  0  0  0  0
  7  8  1  0  0  0  0
  7  9  2  0  0  0  0
  7 10  1  0  0  0  0
  8 11  1  0  0  0  0
  8 12  1  0  0  0  0
  9 13  1  0  0  0  0
 10 14  2  0  0  0  0
 11 15  2  0  0  0  0
 11 39  1  0  0  0  0
 12 14  1  0  0  0  0
 13 15  1  0  0  0  0
 13 40  1  0  0  0  0
 15 22  1  0  0  0  0
 16 17  2  0  0  0  0
 16 18  1  0  0  0  0
 17 19  1  0  0  0  0
 18 20  2  0  0  0  0
 18 41  1  0  0  0  0
 19 21  2  0  0  0  0
 19 42  1  0  0  0  0
 20 21  1  0  0  0  0
 20 43  1  0  0  0  0
 21 44  1  0  0  0  0
 22 23  2  0  0  0  0
 22 24  1  0  0  0  0
 23 25  1  0  0  0  0
 24 26  2  0  0  0  0
 24 45  1  0  0  0  0
 25 27  2  0  0  0  0
 26 27  1  0  0  0  0
 26 46  1  0  0  0  0
 27 47  1  0  0  0  0
 28 29  2  0  0  0  0
 28 30  1  0  0  0  0
 29 31  1  0  0  0  0
 29 48  1  0  0  0  0
 30 32  1  0  0  0  0
 31 32  2  0  0  0  0
 31 49  1  0  0  0  0
 32 50  1  0  0  0  0
M  END
>  <Mol_ID>
6957

>  <Formula>
C24H18F2N4O2

>  <MolWeight>
432.4221264

>  <Cat>
E1620

>  <Name>
Fluorofurimazine

>  <Target>
Others

>  <Form>
free base

>  <CAS>
2412089-96-2

>  <URL>
https://www.selleckchem.com/products/fluorofurimazine.html

$$$$
