Fluorescein-5-isothiocyanate (FITC)
 OpenBabel08302521313D

 39 43  0  0  0  0  0  0  0  0999 V2000
    1.1035   -0.0292   -0.1619 S   0  0  0  0  0  0  0  0  0  0  0  0
    8.0484   -3.7884    1.8137 O   0  0  0  0  0  0  0  0  0  0  0  0
    7.1761   -7.4180    0.5347 O   0  0  0  0  0  0  0  0  0  0  0  0
    8.3515   -1.6181    2.5261 O   0  0  0  0  0  0  0  0  0  0  0  0
    9.5473   -6.8707   -3.4883 O   0  0  0  0  0  0  0  0  0  0  0  0
    4.9465   -8.5223    4.5262 O   0  0  0  0  0  0  0  0  0  0  0  0
    3.8524    0.0636    0.1395 N   0  0  0  0  0  0  0  0  0  0  0  0
    7.0592   -4.5436    1.0591 C   0  0  0  0  0  0  0  0  0  0  0  0
    6.0662   -3.4821    0.6879 C   0  0  0  0  0  0  0  0  0  0  0  0
    7.7571   -5.1435   -0.1454 C   0  0  0  0  0  0  0  0  0  0  0  0
    6.4762   -5.5871    1.9933 C   0  0  0  0  0  0  0  0  0  0  0  0
    6.4581   -2.2777    1.2347 C   0  0  0  0  0  0  0  0  0  0  0  0
    7.7554   -6.5284   -0.3347 C   0  0  0  0  0  0  0  0  0  0  0  0
    6.5816   -6.9443    1.6770 C   0  0  0  0  0  0  0  0  0  0  0  0
    7.7170   -2.4717    1.9414 C   0  0  0  0  0  0  0  0  0  0  0  0
    4.9123   -3.5530   -0.0740 C   0  0  0  0  0  0  0  0  0  0  0  0
    8.4097   -4.3379   -1.1020 C   0  0  0  0  0  0  0  0  0  0  0  0
    5.8271   -5.2291    3.1941 C   0  0  0  0  0  0  0  0  0  0  0  0
    5.7273   -1.1091    1.0793 C   0  0  0  0  0  0  0  0  0  0  0  0
    8.3645   -7.0947   -1.4594 C   0  0  0  0  0  0  0  0  0  0  0  0
    6.0641   -7.9192    2.5370 C   0  0  0  0  0  0  0  0  0  0  0  0
    4.1624   -2.3829   -0.2579 C   0  0  0  0  0  0  0  0  0  0  0  0
    9.0156   -4.9018   -2.2267 C   0  0  0  0  0  0  0  0  0  0  0  0
    5.3029   -6.2003    4.0490 C   0  0  0  0  0  0  0  0  0  0  0  0
    4.5445   -1.1517    0.3286 C   0  0  0  0  0  0  0  0  0  0  0  0
    8.9815   -6.2787   -2.3987 C   0  0  0  0  0  0  0  0  0  0  0  0
    5.4319   -7.5408    3.7145 C   0  0  0  0  0  0  0  0  0  0  0  0
    2.6869   -0.0010    0.0246 C   0  0  0  0  0  0  0  0  0  0  0  0
    9.9291   -6.1818   -4.0570 H   0  0  0  0  0  0  0  0  0  0  0  0
    4.5745   -8.1130    5.3251 H   0  0  0  0  0  0  0  0  0  0  0  0
    4.5984   -4.4865   -0.5334 H   0  0  0  0  0  0  0  0  0  0  0  0
    8.4499   -3.2574   -0.9800 H   0  0  0  0  0  0  0  0  0  0  0  0
    5.7259   -4.1843    3.4798 H   0  0  0  0  0  0  0  0  0  0  0  0
    6.0762   -0.1786    1.5200 H   0  0  0  0  0  0  0  0  0  0  0  0
    8.3575   -8.1722   -1.6018 H   0  0  0  0  0  0  0  0  0  0  0  0
    6.1595   -8.9734    2.2906 H   0  0  0  0  0  0  0  0  0  0  0  0
    3.2753   -2.4414   -0.8859 H   0  0  0  0  0  0  0  0  0  0  0  0
    9.5042   -4.2543   -2.9483 H   0  0  0  0  0  0  0  0  0  0  0  0
    4.8076   -5.8911    4.9643 H   0  0  0  0  0  0  0  0  0  0  0  0
  1 28  2  0  0  0  0
  2  8  1  0  0  0  0
  2 15  1  0  0  0  0
  3 13  1  0  0  0  0
  3 14  1  0  0  0  0
  4 15  2  0  0  0  0
  5 26  1  0  0  0  0
  5 29  1  0  0  0  0
  6 27  1  0  0  0  0
  6 30  1  0  0  0  0
  7 25  1  0  0  0  0
  7 28  2  0  0  0  0
  8  9  1  0  0  0  0
  8 10  1  0  0  0  0
  8 11  1  0  0  0  0
  9 12  2  0  0  0  0
  9 16  1  0  0  0  0
 10 13  2  0  0  0  0
 10 17  1  0  0  0  0
 11 14  2  0  0  0  0
 11 18  1  0  0  0  0
 12 15  1  0  0  0  0
 12 19  1  0  0  0  0
 13 20  1  0  0  0  0
 14 21  1  0  0  0  0
 16 22  2  0  0  0  0
 16 31  1  0  0  0  0
 17 23  2  0  0  0  0
 17 32  1  0  0  0  0
 18 24  2  0  0  0  0
 18 33  1  0  0  0  0
 19 25  2  0  0  0  0
 19 34  1  0  0  0  0
 20 26  2  0  0  0  0
 20 35  1  0  0  0  0
 21 27  2  0  0  0  0
 21 36  1  0  0  0  0
 22 25  1  0  0  0  0
 22 37  1  0  0  0  0
 23 26  1  0  0  0  0
 23 38  1  0  0  0  0
 24 27  1  0  0  0  0
 24 39  1  0  0  0  0
M  END
>  <Mol_ID>
5907

>  <Formula>
C21H11NO5S

>  <MolWeight>
389.38074

>  <Cat>
S6928

>  <Name>
Fluorescein-5-isothiocyanate (FITC)

>  <Synonyms>
Fluorescein isothiocyanate isomer I, 5-FITC

>  <Target>
Dyes

>  <Form>
Free Base

>  <CAS>
3326-32-7

>  <URL>
http://www.selleckchem.com/products/fluorescein-5-isothiocyanate-fitc.html

$$$$
