Fluorofenidone
 OpenBabel08302521313D

 25 26  0  0  0  0  0  0  0  0999 V2000
    2.1583   -0.0600    0.1412 F   0  0  0  0  0  0  0  0  0  0  0  0
   -3.3808    1.8478    1.7342 O   0  0  0  0  0  0  0  0  0  0  0  0
   -1.9114    2.4897    0.0080 N   0  0  0  0  0  0  0  0  0  0  0  0
   -1.2324    1.2324   -0.0143 C   0  0  0  0  0  0  0  0  0  0  0  0
   -1.5272    3.5057   -0.8622 C   0  0  0  0  0  0  0  0  0  0  0  0
   -2.1114    4.7151   -0.8576 C   0  0  0  0  0  0  0  0  0  0  0  0
   -2.9534    2.6796    0.9348 C   0  0  0  0  0  0  0  0  0  0  0  0
   -3.1304    4.9972    0.1267 C   0  0  0  0  0  0  0  0  0  0  0  0
    0.1664    1.1945    0.0312 C   0  0  0  0  0  0  0  0  0  0  0  0
   -1.9469    0.0276   -0.0813 C   0  0  0  0  0  0  0  0  0  0  0  0
   -3.5400    4.0490    0.9764 C   0  0  0  0  0  0  0  0  0  0  0  0
   -1.7692    5.7967   -1.8366 C   0  0  0  0  0  0  0  0  0  0  0  0
    0.8227   -0.0311    0.0396 C   0  0  0  0  0  0  0  0  0  0  0  0
   -1.2732   -1.1971   -0.1142 C   0  0  0  0  0  0  0  0  0  0  0  0
    0.1176   -1.2260   -0.0422 C   0  0  0  0  0  0  0  0  0  0  0  0
   -0.7614    3.2583   -1.5920 H   0  0  0  0  0  0  0  0  0  0  0  0
   -3.5529    5.9965    0.1747 H   0  0  0  0  0  0  0  0  0  0  0  0
    0.7526    2.1026    0.1247 H   0  0  0  0  0  0  0  0  0  0  0  0
   -3.0337    0.0351   -0.1356 H   0  0  0  0  0  0  0  0  0  0  0  0
   -4.2898    4.2285    1.7361 H   0  0  0  0  0  0  0  0  0  0  0  0
   -2.6696    6.1486   -2.3535 H   0  0  0  0  0  0  0  0  0  0  0  0
   -1.3074    6.6477   -1.3250 H   0  0  0  0  0  0  0  0  0  0  0  0
   -1.0702    5.4453   -2.6034 H   0  0  0  0  0  0  0  0  0  0  0  0
   -1.8363   -2.1238   -0.1871 H   0  0  0  0  0  0  0  0  0  0  0  0
    0.6548   -2.1688   -0.0411 H   0  0  0  0  0  0  0  0  0  0  0  0
  1 13  1  0  0  0  0
  2  7  2  0  0  0  0
  3  4  1  0  0  0  0
  3  5  1  0  0  0  0
  3  7  1  0  0  0  0
  4  9  2  0  0  0  0
  4 10  1  0  0  0  0
  5  6  2  0  0  0  0
  5 16  1  0  0  0  0
  6  8  1  0  0  0  0
  6 12  1  0  0  0  0
  7 11  1  0  0  0  0
  8 11  2  0  0  0  0
  8 17  1  0  0  0  0
  9 13  1  0  0  0  0
  9 18  1  0  0  0  0
 10 14  2  0  0  0  0
 10 19  1  0  0  0  0
 11 20  1  0  0  0  0
 12 21  1  0  0  0  0
 12 22  1  0  0  0  0
 12 23  1  0  0  0  0
 13 15  2  0  0  0  0
 14 15  1  0  0  0  0
 14 24  1  0  0  0  0
 15 25  1  0  0  0  0
M  END
>  <Mol_ID>
6066

>  <Formula>
C12H10FNO

>  <MolWeight>
203.2123032

>  <Cat>
E0084

>  <Name>
Fluorofenidone

>  <Synonyms>
AKF-PD

>  <Target>
NADPH-oxidase

>  <Form>
Free Base

>  <CAS>
848353-85-5

>  <URL>
http://www.selleckchem.com/products/fluorofenidone.html

$$$$
