Fluorometholone Acetate.cdx
 OpenBabel08302522053D

 61 64  0  0  0  0  0  0  0  0999 V2000
    0.7323    2.4446   -0.4836 C   0  0  1  0  0  0  0  0  0  0  0  0
    0.6115    1.4135    0.6768 C   0  0  2  0  0  0  0  0  0  0  0  0
    2.2170    2.8839   -0.6386 C   0  0  2  0  0  0  0  0  0  0  0  0
    0.0891    2.1308   -1.8721 C   0  0  2  0  0  0  0  0  0  0  0  0
   -0.7527    0.7206    0.6162 C   0  0  1  0  0  0  0  0  0  0  0  0
    0.9577    2.2088    1.9749 C   0  0  0  0  0  0  0  0  0  0  0  0
    2.9077    3.3319    0.6597 C   0  0  0  0  0  0  0  0  0  0  0  0
    2.2308    4.0605   -1.6191 C   0  0  0  0  0  0  0  0  0  0  0  0
   -1.0947    1.2143   -1.8781 C   0  0  0  0  0  0  0  0  0  0  0  0
   -1.0611    0.1444   -0.8038 C   0  0  2  0  0  0  0  0  0  0  0  0
   -1.0743   -0.5268    1.4838 C   0  0  0  0  0  0  0  0  0  0  0  0
    2.4631    2.6464    1.9605 C   0  0  1  0  0  0  0  0  0  0  0  0
    4.0241    4.0898    0.4927 C   0  0  0  0  0  0  0  0  0  0  0  0
    3.3126    4.8224   -1.7952 C   0  0  0  0  0  0  0  0  0  0  0  0
   -2.4982   -0.4427   -0.5381 C   0  0  1  0  0  0  0  0  0  0  0  0
   -2.1569   -1.3342    0.6710 C   0  0  0  0  0  0  0  0  0  0  0  0
    4.4223    4.5275   -0.8856 C   0  0  0  0  0  0  0  0  0  0  0  0
   -3.3058    0.6467    0.0133 O   0  0  0  0  0  0  0  0  0  0  0  0
   -3.1091   -1.1100   -1.8191 C   0  0  0  0  0  0  0  0  0  0  0  0
    5.5902    4.6261   -1.2496 O   0  0  0  0  0  0  0  0  0  0  0  0
   -4.3020    1.2347   -0.6753 C   0  0  0  0  0  0  0  0  0  0  0  0
   -4.1597   -2.1675   -1.6682 C   0  0  0  0  0  0  0  0  0  0  0  0
   -2.8341   -0.7159   -2.9547 O   0  0  0  0  0  0  0  0  0  0  0  0
   -4.0996    2.7308   -0.7719 C   0  0  0  0  0  0  0  0  0  0  0  0
   -5.2560    0.6584   -1.1322 O   0  0  0  0  0  0  0  0  0  0  0  0
   -0.0019    3.5474   -0.0576 F   0  0  0  0  0  0  0  0  0  0  0  0
    2.8648    3.3638    3.2580 C   0  0  0  0  0  0  0  0  0  0  0  0
    3.1177    1.6671   -1.0704 C   0  0  0  0  0  0  0  0  0  0  0  0
    0.9859    1.6954   -2.8876 O   0  0  0  0  0  0  0  0  0  0  0  0
    0.0150   -0.9328   -1.2044 C   0  0  0  0  0  0  0  0  0  0  0  0
    1.3579    0.6232    0.6009 H   0  0  0  0  0  0  0  0  0  0  0  0
   -0.3057    3.0818   -2.2531 H   0  0  0  0  0  0  0  0  0  0  0  0
   -1.4722    1.5002    0.8988 H   0  0  0  0  0  0  0  0  0  0  0  0
    0.3216    3.0992    2.0803 H   0  0  0  0  0  0  0  0  0  0  0  0
    0.7608    1.5949    2.8637 H   0  0  0  0  0  0  0  0  0  0  0  0
    1.3350    4.3366   -2.1652 H   0  0  0  0  0  0  0  0  0  0  0  0
   -1.9859    1.8253   -1.7924 H   0  0  0  0  0  0  0  0  0  0  0  0
   -1.1488    0.7482   -2.8674 H   0  0  0  0  0  0  0  0  0  0  0  0
   -0.1911   -1.1555    1.6496 H   0  0  0  0  0  0  0  0  0  0  0  0
   -1.4641   -0.2484    2.4675 H   0  0  0  0  0  0  0  0  0  0  0  0
    3.0158    1.6981    1.9753 H   0  0  0  0  0  0  0  0  0  0  0  0
    4.7378    4.3231    1.2770 H   0  0  0  0  0  0  0  0  0  0  0  0
    3.3737    5.6124   -2.5295 H   0  0  0  0  0  0  0  0  0  0  0  0
   -1.7419   -2.3032    0.3574 H   0  0  0  0  0  0  0  0  0  0  0  0
   -3.0321   -1.5436    1.2920 H   0  0  0  0  0  0  0  0  0  0  0  0
   -4.3218   -2.6358   -2.6460 H   0  0  0  0  0  0  0  0  0  0  0  0
   -3.8259   -2.9420   -0.9692 H   0  0  0  0  0  0  0  0  0  0  0  0
   -5.1028   -1.7357   -1.3375 H   0  0  0  0  0  0  0  0  0  0  0  0
   -3.1615    3.0330   -0.2811 H   0  0  0  0  0  0  0  0  0  0  0  0
   -4.9205    3.2565   -0.3046 H   0  0  0  0  0  0  0  0  0  0  0  0
   -4.0203    2.9888   -1.8312 H   0  0  0  0  0  0  0  0  0  0  0  0
    2.0651    3.3463    4.0079 H   0  0  0  0  0  0  0  0  0  0  0  0
    3.7251    2.8495    3.7071 H   0  0  0  0  0  0  0  0  0  0  0  0
    3.1578    4.4090    3.1108 H   0  0  0  0  0  0  0  0  0  0  0  0
    3.1499    0.8927   -0.2938 H   0  0  0  0  0  0  0  0  0  0  0  0
    2.8220    1.1577   -1.9831 H   0  0  0  0  0  0  0  0  0  0  0  0
    4.1622    1.9527   -1.2275 H   0  0  0  0  0  0  0  0  0  0  0  0
    0.5684    1.8473   -3.7542 H   0  0  0  0  0  0  0  0  0  0  0  0
    0.7448   -1.1249   -0.4089 H   0  0  0  0  0  0  0  0  0  0  0  0
    0.6140   -0.6286   -2.0686 H   0  0  0  0  0  0  0  0  0  0  0  0
   -0.4285   -1.8980   -1.4596 H   0  0  0  0  0  0  0  0  0  0  0  0
  1  2  1  0  0  0  0
  1  3  1  0  0  0  0
  1  4  1  0  0  0  0
  1 26  1  1  0  0  0
  2  5  1  0  0  0  0
  2  6  1  0  0  0  0
  2 31  1  6  0  0  0
  3  7  1  0  0  0  0
  3  8  1  0  0  0  0
  3 28  1  6  0  0  0
  4  9  1  0  0  0  0
  4 32  1  6  0  0  0
  4 29  1  0  0  0  0
  5 10  1  0  0  0  0
  5 11  1  0  0  0  0
  5 33  1  1  0  0  0
  6 12  1  0  0  0  0
  6 34  1  0  0  0  0
  6 35  1  0  0  0  0
  7 13  2  0  0  0  0
  7 12  1  0  0  0  0
  8 14  2  0  0  0  0
  8 36  1  0  0  0  0
  9 10  1  0  0  0  0
  9 37  1  0  0  0  0
  9 38  1  0  0  0  0
 10 15  1  0  0  0  0
 10 30  1  6  0  0  0
 11 16  1  0  0  0  0
 11 39  1  0  0  0  0
 11 40  1  0  0  0  0
 12 27  1  0  0  0  0
 12 41  1  1  0  0  0
 13 17  1  0  0  0  0
 13 42  1  0  0  0  0
 14 17  1  0  0  0  0
 14 43  1  0  0  0  0
 15 16  1  0  0  0  0
 15 18  1  1  0  0  0
 15 19  1  0  0  0  0
 16 44  1  0  0  0  0
 16 45  1  0  0  0  0
 17 20  2  0  0  0  0
 18 21  1  0  0  0  0
 19 22  1  0  0  0  0
 19 23  2  0  0  0  0
 21 24  1  0  0  0  0
 21 25  2  0  0  0  0
 22 46  1  0  0  0  0
 22 47  1  0  0  0  0
 22 48  1  0  0  0  0
 24 49  1  0  0  0  0
 24 50  1  0  0  0  0
 24 51  1  0  0  0  0
 27 52  1  0  0  0  0
 27 53  1  0  0  0  0
 27 54  1  0  0  0  0
 28 55  1  0  0  0  0
 28 56  1  0  0  0  0
 28 57  1  0  0  0  0
 29 58  1  0  0  0  0
 30 59  1  0  0  0  0
 30 60  1  0  0  0  0
 30 61  1  0  0  0  0
M  END
>  <Mol_ID>
1351

>  <Formula>
C24H31FO5

>  <MolWeight>
418.4983432

>  <Cat>
S4228

>  <Name>
Fluorometholone Acetate

>  <Synonyms>
NSC 47438,Oxylone acetate

>  <Target>
Glucocorticoid Receptor

>  <Form>
free base

>  <CAS>
3801-06-7

>  <URL>
http://selleckchem.com/products/fluorometholone-acetate.html

$$$$
