Flurbiprofen Axetil
 OpenBabel08302520403D

 43 44  0  0  0  0  0  0  0  0999 V2000
   -0.0667    1.3938   -0.7842 C   0  0  0  0  0  0  0  0  0  0  0  0
    0.5758    2.6809   -1.1287 C   0  0  0  0  0  0  0  0  0  0  0  0
   -1.4419    1.2905   -0.5084 C   0  0  0  0  0  0  0  0  0  0  0  0
    0.6816    0.2049   -0.7243 C   0  0  0  0  0  0  0  0  0  0  0  0
    0.1535    3.8892   -0.5447 C   0  0  0  0  0  0  0  0  0  0  0  0
    1.6389    2.7507   -2.0460 C   0  0  0  0  0  0  0  0  0  0  0  0
   -2.0501    0.0751   -0.2033 C   0  0  0  0  0  0  0  0  0  0  0  0
   -2.2362    2.3715   -0.5556 F   0  0  0  0  0  0  0  0  0  0  0  0
    0.0798   -1.0214   -0.4315 C   0  0  0  0  0  0  0  0  0  0  0  0
    0.7499    5.1085   -0.8732 C   0  0  0  0  0  0  0  0  0  0  0  0
    2.2595    3.9650   -2.3567 C   0  0  0  0  0  0  0  0  0  0  0  0
   -1.2986   -1.1003   -0.1918 C   0  0  0  0  0  0  0  0  0  0  0  0
    1.8099    5.1452   -1.7710 C   0  0  0  0  0  0  0  0  0  0  0  0
   -1.9841   -2.4347    0.0364 C   0  0  3  0  0  0  0  0  0  0  0  0
   -1.6530   -3.4600   -1.0554 C   0  0  0  0  0  0  0  0  0  0  0  0
   -1.6773   -2.9238    1.4509 C   0  0  0  0  0  0  0  0  0  0  0  0
   -1.6048   -2.8434   -2.2694 O   0  0  0  0  0  0  0  0  0  0  0  0
   -1.5275   -4.6602   -0.8682 O   0  0  0  0  0  0  0  0  0  0  0  0
   -1.3068   -3.6043   -3.4494 C   0  0  3  0  0  0  0  0  0  0  0  0
   -0.1989   -4.5069   -3.3470 O   0  0  0  0  0  0  0  0  0  0  0  0
   -2.5533   -4.3525   -3.9095 C   0  0  0  0  0  0  0  0  0  0  0  0
    1.0176   -3.9068   -3.3353 C   0  0  0  0  0  0  0  0  0  0  0  0
    2.1263   -4.9149   -3.3819 C   0  0  0  0  0  0  0  0  0  0  0  0
    1.2182   -2.6991   -3.3168 O   0  0  0  0  0  0  0  0  0  0  0  0
    1.7527    0.2105   -0.9177 H   0  0  0  0  0  0  0  0  0  0  0  0
   -0.6611    3.8970    0.1763 H   0  0  0  0  0  0  0  0  0  0  0  0
    2.0002    1.8536   -2.5468 H   0  0  0  0  0  0  0  0  0  0  0  0
   -3.1168    0.0656   -0.0020 H   0  0  0  0  0  0  0  0  0  0  0  0
    0.6993   -1.9172   -0.4318 H   0  0  0  0  0  0  0  0  0  0  0  0
    0.3888    6.0236   -0.4120 H   0  0  0  0  0  0  0  0  0  0  0  0
    3.0803    3.9888   -3.0647 H   0  0  0  0  0  0  0  0  0  0  0  0
    2.2812    6.0909   -2.0186 H   0  0  0  0  0  0  0  0  0  0  0  0
   -3.0718   -2.2961   -0.0353 H   0  0  0  0  0  0  0  0  0  0  0  0
   -2.0496   -2.2019    2.1907 H   0  0  0  0  0  0  0  0  0  0  0  0
   -2.1555   -3.8855    1.6570 H   0  0  0  0  0  0  0  0  0  0  0  0
   -0.6015   -3.0397    1.6219 H   0  0  0  0  0  0  0  0  0  0  0  0
   -1.0757   -2.8754   -4.2372 H   0  0  0  0  0  0  0  0  0  0  0  0
   -3.2464   -3.6537   -4.3925 H   0  0  0  0  0  0  0  0  0  0  0  0
   -2.3094   -5.1502   -4.6170 H   0  0  0  0  0  0  0  0  0  0  0  0
   -3.0984   -4.7922   -3.0689 H   0  0  0  0  0  0  0  0  0  0  0  0
    2.7365   -4.7291   -4.2705 H   0  0  0  0  0  0  0  0  0  0  0  0
    2.7339   -4.8291   -2.4790 H   0  0  0  0  0  0  0  0  0  0  0  0
    1.7309   -5.9331   -3.4462 H   0  0  0  0  0  0  0  0  0  0  0  0
  1  2  1  0  0  0  0
  1  3  2  0  0  0  0
  1  4  1  0  0  0  0
  2  5  2  0  0  0  0
  2  6  1  0  0  0  0
  3  7  1  0  0  0  0
  3  8  1  0  0  0  0
  4  9  2  0  0  0  0
  4 25  1  0  0  0  0
  5 10  1  0  0  0  0
  5 26  1  0  0  0  0
  6 11  2  0  0  0  0
  6 27  1  0  0  0  0
  7 12  2  0  0  0  0
  7 28  1  0  0  0  0
  9 12  1  0  0  0  0
  9 29  1  0  0  0  0
 10 13  2  0  0  0  0
 10 30  1  0  0  0  0
 11 13  1  0  0  0  0
 11 31  1  0  0  0  0
 12 14  1  0  0  0  0
 13 32  1  0  0  0  0
 14 15  1  0  0  0  0
 14 16  1  0  0  0  0
 14 33  1  0  0  0  0
 15 17  1  0  0  0  0
 15 18  2  0  0  0  0
 16 34  1  0  0  0  0
 16 35  1  0  0  0  0
 16 36  1  0  0  0  0
 17 19  1  0  0  0  0
 19 20  1  0  0  0  0
 19 21  1  0  0  0  0
 19 37  1  0  0  0  0
 20 22  1  0  0  0  0
 21 38  1  0  0  0  0
 21 39  1  0  0  0  0
 21 40  1  0  0  0  0
 22 23  1  0  0  0  0
 22 24  2  0  0  0  0
 23 41  1  0  0  0  0
 23 42  1  0  0  0  0
 23 43  1  0  0  0  0
M  END
>  <Mol_ID>
3770

>  <Formula>
C19H19FO4

>  <MolWeight>
330.3501632

>  <Cat>
S6457

>  <Name>
Flurbiprofen Axetil

>  <Synonyms>
N/A

>  <Target>
COX

>  <Form>
Free Base

>  <CAS>
91503-79-6

>  <URL>
http://www.selleck.cn/products/flurbiprofen-axetil.html

$$$$
