FLUVASTATIN SODIUM.cdx
 OpenBabel08302519503D

 55 57  0  0  0  0  0  0  0  0999 V2000
    0.2075    0.7414   -0.0960 C   0  0  0  0  0  0  0  0  0  0  0  0
    0.2055   -0.6490   -0.0482 C   0  0  0  0  0  0  0  0  0  0  0  0
   -1.0045   -1.3787   -0.0144 C   0  0  0  0  0  0  0  0  0  0  0  0
   -2.2180   -0.6853   -0.0141 C   0  0  0  0  0  0  0  0  0  0  0  0
   -2.2395    0.6992   -0.0695 C   0  0  0  0  0  0  0  0  0  0  0  0
   -1.0398    1.4145   -0.1225 C   0  0  0  0  0  0  0  0  0  0  0  0
    1.5788    1.1796   -0.0920 C   0  0  0  0  0  0  0  0  0  0  0  0
    2.3831    0.0354   -0.0636 C   0  0  0  0  0  0  0  0  0  0  0  0
    1.5391   -1.0709   -0.0553 N   0  0  0  0  0  0  0  0  0  0  0  0
    2.0645    2.5720   -0.0673 C   0  0  0  0  0  0  0  0  0  0  0  0
    1.8875   -2.4985    0.0046 C   0  0  0  0  0  0  0  0  0  0  0  0
    2.7074   -3.0055   -1.1789 C   0  0  0  0  0  0  0  0  0  0  0  0
    2.4645   -2.9159    1.3537 C   0  0  0  0  0  0  0  0  0  0  0  0
    1.3647    3.5506    0.6623 C   0  0  0  0  0  0  0  0  0  0  0  0
    1.7359    4.8982    0.6082 C   0  0  0  0  0  0  0  0  0  0  0  0
    2.8489    5.2727   -0.1304 C   0  0  0  0  0  0  0  0  0  0  0  0
    3.5897    4.3257   -0.8201 C   0  0  0  0  0  0  0  0  0  0  0  0
    3.1823    2.9867   -0.8059 C   0  0  0  0  0  0  0  0  0  0  0  0
    3.2003    6.5641   -0.1814 F   0  0  0  0  0  0  0  0  0  0  0  0
    3.7985   -0.1120    0.0490 C   0  0  0  0  0  0  0  0  0  0  0  0
    4.5951   -0.1311   -1.0366 C   0  0  0  0  0  0  0  0  0  0  0  0
    6.1072   -0.1748   -1.0079 C   0  0  2  0  0  0  0  0  0  0  0  0
    6.7454    0.6837   -2.1153 C   0  0  0  0  0  0  0  0  0  0  0  0
    8.2944    0.7138   -2.0896 C   0  0  2  0  0  0  0  0  0  0  0  0
    8.8747    1.5059   -3.2568 C   0  0  0  0  0  0  0  0  0  0  0  0
    8.5159    2.9869   -3.2399 C   0  0  0  0  0  0  0  0  0  0  0  0
    6.4558   -1.5443   -1.2196 O   0  0  0  0  0  0  0  0  0  0  0  0
    8.8457   -0.6125   -2.1802 O   0  0  0  0  0  0  0  0  0  0  0  0
    8.3111    3.4978   -2.1038 O   0  5  0  0  0  0  0  0  0  0  0  0
    8.4522    3.5277   -4.3802 O   0  0  0  0  0  0  0  0  0  0  0  0
   -1.0277   -2.4613    0.0170 H   0  0  0  0  0  0  0  0  0  0  0  0
   -3.1547   -1.2366    0.0198 H   0  0  0  0  0  0  0  0  0  0  0  0
   -3.1852    1.2341   -0.0682 H   0  0  0  0  0  0  0  0  0  0  0  0
   -1.0807    2.4981   -0.1814 H   0  0  0  0  0  0  0  0  0  0  0  0
    0.9442   -3.0466   -0.0787 H   0  0  0  0  0  0  0  0  0  0  0  0
    3.7455   -2.6747   -1.1428 H   0  0  0  0  0  0  0  0  0  0  0  0
    2.7256   -4.1021   -1.1805 H   0  0  0  0  0  0  0  0  0  0  0  0
    2.2687   -2.6791   -2.1274 H   0  0  0  0  0  0  0  0  0  0  0  0
    1.8237   -2.5749    2.1747 H   0  0  0  0  0  0  0  0  0  0  0  0
    2.5304   -4.0084    1.4179 H   0  0  0  0  0  0  0  0  0  0  0  0
    3.4666   -2.5131    1.5164 H   0  0  0  0  0  0  0  0  0  0  0  0
    0.5098    3.2800    1.2756 H   0  0  0  0  0  0  0  0  0  0  0  0
    1.1629    5.6544    1.1336 H   0  0  0  0  0  0  0  0  0  0  0  0
    4.4718    4.6240   -1.3819 H   0  0  0  0  0  0  0  0  0  0  0  0
    3.7521    2.2881   -1.4066 H   0  0  0  0  0  0  0  0  0  0  0  0
    4.2290   -0.1293    1.0473 H   0  0  0  0  0  0  0  0  0  0  0  0
    4.1500   -0.0896   -2.0295 H   0  0  0  0  0  0  0  0  0  0  0  0
    6.4938    0.1385   -0.0303 H   0  0  0  0  0  0  0  0  0  0  0  0
    6.4351    0.2803   -3.0883 H   0  0  0  0  0  0  0  0  0  0  0  0
    6.3593    1.7065   -2.0429 H   0  0  0  0  0  0  0  0  0  0  0  0
    8.6415    1.1288   -1.1366 H   0  0  0  0  0  0  0  0  0  0  0  0
    9.9702    1.4290   -3.2491 H   0  0  0  0  0  0  0  0  0  0  0  0
    8.5552    1.0558   -4.2059 H   0  0  0  0  0  0  0  0  0  0  0  0
    6.1275   -2.0210   -0.4387 H   0  0  0  0  0  0  0  0  0  0  0  0
    8.1118   -1.2079   -2.4206 H   0  0  0  0  0  0  0  0  0  0  0  0
  1  2  1  0  0  0  0
  1  7  1  0  0  0  0
  2  3  2  0  0  0  0
  3  4  1  0  0  0  0
  3 31  1  0  0  0  0
  4  5  2  0  0  0  0
  4 32  1  0  0  0  0
  5  6  1  0  0  0  0
  5 33  1  0  0  0  0
  6  1  2  0  0  0  0
  6 34  1  0  0  0  0
  7  8  2  0  0  0  0
  7 10  1  0  0  0  0
  8  9  1  0  0  0  0
  8 20  1  0  0  0  0
  9  2  1  0  0  0  0
  9 11  1  0  0  0  0
 10 14  2  0  0  0  0
 11 12  1  0  0  0  0
 11 13  1  0  0  0  0
 11 35  1  0  0  0  0
 12 36  1  0  0  0  0
 12 37  1  0  0  0  0
 12 38  1  0  0  0  0
 13 39  1  0  0  0  0
 13 40  1  0  0  0  0
 13 41  1  0  0  0  0
 14 15  1  0  0  0  0
 14 42  1  0  0  0  0
 15 16  2  0  0  0  0
 15 43  1  0  0  0  0
 16 17  1  0  0  0  0
 16 19  1  0  0  0  0
 17 18  2  0  0  0  0
 17 44  1  0  0  0  0
 18 10  1  0  0  0  0
 18 45  1  0  0  0  0
 20 21  2  0  0  0  0
 20 46  1  0  0  0  0
 21 47  1  0  0  0  0
 22 23  1  0  0  0  0
 22 21  1  0  0  0  0
 22 48  1  1  0  0  0
 22 27  1  0  0  0  0
 23 49  1  0  0  0  0
 23 50  1  0  0  0  0
 24 25  1  0  0  0  0
 24 23  1  0  0  0  0
 24 51  1  1  0  0  0
 24 28  1  0  0  0  0
 25 26  1  0  0  0  0
 25 52  1  0  0  0  0
 25 53  1  0  0  0  0
 26 29  1  0  0  0  0
 26 30  2  0  0  0  0
 27 54  1  0  0  0  0
 28 55  1  0  0  0  0
M  CHG  1  29  -1
M  END
>  <Mol_ID>
183

>  <Formula>
C24H25FNNaO4

>  <MolWeight>
433.4477732

>  <Cat>
S1909

>  <Name>
Fluvastatin (XU-62-320) Sodium

>  <Synonyms>
Vastin,XU-62-320

>  <Target>
HMG-CoA Reductase

>  <Form>
Sodium

>  <CAS>
93957-55-2

>  <URL>
http://selleckchem.com/products/Fluvastatin-Sodium(Lescol).html

$$$$
