Fluzoparib (SHR-3162)
 OpenBabel08302521303D

 50 54  0  0  0  0  0  0  0  0999 V2000
   -2.5231    0.2685   -0.5500 C   0  0  0  0  0  0  0  0  0  0  0  0
   -3.0014   -1.0206   -0.5408 N   0  0  0  0  0  0  0  0  0  0  0  0
   -2.2445   -2.1489   -0.4436 N   0  0  0  0  0  0  0  0  0  0  0  0
   -0.9793   -2.0143   -0.1703 C   0  0  0  0  0  0  0  0  0  0  0  0
   -0.3430   -0.7010    0.0782 C   0  0  0  0  0  0  0  0  0  0  0  0
    0.9658   -0.5502    0.5475 C   0  0  0  0  0  0  0  0  0  0  0  0
    1.5542    0.7155    0.5778 C   0  0  0  0  0  0  0  0  0  0  0  0
    0.8305    1.8329    0.1653 C   0  0  0  0  0  0  0  0  0  0  0  0
   -0.5046    1.6964   -0.2143 C   0  0  0  0  0  0  0  0  0  0  0  0
   -1.0934    0.4278   -0.2358 C   0  0  0  0  0  0  0  0  0  0  0  0
   -3.2406    1.2365   -0.7745 O   0  0  0  0  0  0  0  0  0  0  0  0
   -0.1240   -3.2709   -0.1878 C   0  0  0  0  0  0  0  0  0  0  0  0
    0.5131   -3.5513   -1.5333 C   0  0  0  0  0  0  0  0  0  0  0  0
    1.7712   -3.0267   -1.8918 C   0  0  0  0  0  0  0  0  0  0  0  0
    2.4103   -3.4179   -3.0840 C   0  0  0  0  0  0  0  0  0  0  0  0
    1.7917   -4.3909   -3.8693 C   0  0  0  0  0  0  0  0  0  0  0  0
    0.5093   -4.8403   -3.5847 C   0  0  0  0  0  0  0  0  0  0  0  0
   -0.1369   -4.4103   -2.4307 C   0  0  0  0  0  0  0  0  0  0  0  0
    2.4261   -4.9489   -4.9040 F   0  0  0  0  0  0  0  0  0  0  0  0
    3.7729   -2.8909   -3.3836 C   0  0  0  0  0  0  0  0  0  0  0  0
    4.5012   -2.6603   -2.4204 O   0  0  0  0  0  0  0  0  0  0  0  0
    6.0930   -3.1496   -6.1069 C   0  0  0  0  0  0  0  0  0  0  0  0
    5.6164   -2.3626   -4.9295 C   0  0  0  0  0  0  0  0  0  0  0  0
    5.2223   -3.6263   -7.0403 N   0  0  0  0  0  0  0  0  0  0  0  0
    4.1959   -2.6688   -4.6964 N   0  0  0  0  0  0  0  0  0  0  0  0
    3.3481   -2.5455   -5.8946 C   0  0  0  0  0  0  0  0  0  0  0  0
    3.7799   -3.5227   -6.9871 C   0  0  0  0  0  0  0  0  0  0  0  0
    5.8383   -4.3385   -7.9938 N   0  0  0  0  0  0  0  0  0  0  0  0
    7.1290   -4.2729   -7.6010 C   0  0  0  0  0  0  0  0  0  0  0  0
    7.3129   -3.5160   -6.4441 N   0  0  0  0  0  0  0  0  0  0  0  0
    8.2680   -4.9557   -8.3307 C   0  0  0  0  0  0  0  0  0  0  0  0
    7.8501   -5.6919   -9.4006 F   0  0  0  0  0  0  0  0  0  0  0  0
    9.1768   -4.0650   -8.8158 F   0  0  0  0  0  0  0  0  0  0  0  0
    8.9564   -5.8148   -7.5277 F   0  0  0  0  0  0  0  0  0  0  0  0
   -3.9860   -1.1508   -0.7542 H   0  0  0  0  0  0  0  0  0  0  0  0
    1.5593   -1.3927    0.8878 H   0  0  0  0  0  0  0  0  0  0  0  0
    2.5844    0.8250    0.9110 H   0  0  0  0  0  0  0  0  0  0  0  0
    1.3021    2.8123    0.1572 H   0  0  0  0  0  0  0  0  0  0  0  0
   -1.0822    2.5742   -0.4968 H   0  0  0  0  0  0  0  0  0  0  0  0
    0.6420   -3.2496    0.5925 H   0  0  0  0  0  0  0  0  0  0  0  0
   -0.7654   -4.1205    0.0860 H   0  0  0  0  0  0  0  0  0  0  0  0
    2.2936   -2.3417   -1.2257 H   0  0  0  0  0  0  0  0  0  0  0  0
    0.0360   -5.5580   -4.2488 H   0  0  0  0  0  0  0  0  0  0  0  0
   -1.1316   -4.7923   -2.2042 H   0  0  0  0  0  0  0  0  0  0  0  0
    5.6950   -1.2896   -5.1446 H   0  0  0  0  0  0  0  0  0  0  0  0
    6.2292   -2.5819   -4.0509 H   0  0  0  0  0  0  0  0  0  0  0  0
    2.2857   -2.6430   -5.6676 H   0  0  0  0  0  0  0  0  0  0  0  0
    3.4787   -1.5142   -6.2575 H   0  0  0  0  0  0  0  0  0  0  0  0
    3.4163   -4.5373   -6.8012 H   0  0  0  0  0  0  0  0  0  0  0  0
    3.4206   -3.2019   -7.9695 H   0  0  0  0  0  0  0  0  0  0  0  0
  1  2  1  0  0  0  0
  1 10  1  0  0  0  0
  1 11  2  0  0  0  0
  2  3  1  0  0  0  0
  2 35  1  0  0  0  0
  3  4  2  0  0  0  0
  4  5  1  0  0  0  0
  4 12  1  0  0  0  0
  5  6  1  0  0  0  0
  5 10  2  0  0  0  0
  6  7  2  0  0  0  0
  6 36  1  0  0  0  0
  7  8  1  0  0  0  0
  7 37  1  0  0  0  0
  8  9  2  0  0  0  0
  8 38  1  0  0  0  0
  9 10  1  0  0  0  0
  9 39  1  0  0  0  0
 12 13  1  0  0  0  0
 12 40  1  0  0  0  0
 12 41  1  0  0  0  0
 13 14  2  0  0  0  0
 13 18  1  0  0  0  0
 14 15  1  0  0  0  0
 14 42  1  0  0  0  0
 15 16  2  0  0  0  0
 15 20  1  0  0  0  0
 16 17  1  0  0  0  0
 16 19  1  0  0  0  0
 17 18  2  0  0  0  0
 17 43  1  0  0  0  0
 18 44  1  0  0  0  0
 20 21  2  0  0  0  0
 20 25  1  0  0  0  0
 22 23  1  0  0  0  0
 22 24  1  0  0  0  0
 23 25  1  0  0  0  0
 23 45  1  0  0  0  0
 23 46  1  0  0  0  0
 24 27  1  0  0  0  0
 25 26  1  0  0  0  0
 26 27  1  0  0  0  0
 26 47  1  0  0  0  0
 26 48  1  0  0  0  0
 27 49  1  0  0  0  0
 27 50  1  0  0  0  0
 28 29  2  0  0  0  0
 28 24  1  0  0  0  0
 29 30  1  0  0  0  0
 29 31  1  0  0  0  0
 30 22  2  0  0  0  0
 31 32  1  0  0  0  0
 31 33  1  0  0  0  0
 31 34  1  0  0  0  0
M  END
>  <Mol_ID>
5569

>  <Formula>
C22H16F4N6O2

>  <MolWeight>
472.3950528

>  <Cat>
S9712

>  <Name>
Fluzoparib (SHR-3162)

>  <Synonyms>
HS10160

>  <Target>
PARP

>  <Form>
Free Base

>  <CAS>
1358715-18-0

>  <URL>
https://www.selleckchem.com/products/fluzoparib.html

$$$$
