FM19G11
 OpenBabel08302521353D

 51 53  0  0  0  0  0  0  0  0999 V2000
    2.4757   -0.1141   -0.3926 C   0  0  0  0  0  0  0  0  0  0  0  0
    3.2144   -1.2303   -0.0414 N   0  0  0  0  0  0  0  0  0  0  0  0
    2.9811    0.9613   -0.7120 O   0  0  0  0  0  0  0  0  0  0  0  0
    0.6525   -2.5540   -1.0698 N   0  3  0  0  0  0  0  0  0  0  0  0
    1.4136   -3.1447   -0.2954 O   0  5  0  0  0  0  0  0  0  0  0  0
    0.2622   -2.9824   -2.1623 O   0  0  0  0  0  0  0  0  0  0  0  0
   -3.3041    0.1839   -0.1666 N   0  3  0  0  0  0  0  0  0  0  0  0
   -3.9705   -0.8471   -0.3313 O   0  5  0  0  0  0  0  0  0  0  0  0
   -3.7747    1.3018    0.0754 O   0  0  0  0  0  0  0  0  0  0  0  0
    7.5782    0.8993    1.0972 C   0  0  0  0  0  0  0  0  0  0  0  0
    6.8408    1.6047    1.9916 O   0  0  0  0  0  0  0  0  0  0  0  0
    8.7471    1.1113    0.8154 O   0  0  0  0  0  0  0  0  0  0  0  0
    7.4355    2.8000    2.5145 C   0  0  0  0  0  0  0  0  0  0  0  0
    8.1763    2.6694    3.8511 C   0  0  0  0  0  0  0  0  0  0  0  0
    8.4029    1.5781    4.3730 O   0  0  0  0  0  0  0  0  0  0  0  0
    9.6491    7.4586    6.8600 C   0  0  0  0  0  0  0  0  0  0  0  0
    0.9801   -0.1768   -0.3828 C   0  0  0  0  0  0  0  0  0  0  0  0
    0.1429   -1.2707   -0.6444 C   0  0  0  0  0  0  0  0  0  0  0  0
    0.3542    1.0612   -0.1175 C   0  0  0  0  0  0  0  0  0  0  0  0
   -1.2614   -1.1661   -0.5758 C   0  0  0  0  0  0  0  0  0  0  0  0
   -1.0395    1.1901   -0.0569 C   0  0  0  0  0  0  0  0  0  0  0  0
   -1.8425    0.0669   -0.2658 C   0  0  0  0  0  0  0  0  0  0  0  0
    4.6234   -1.2085   -0.0903 C   0  0  0  0  0  0  0  0  0  0  0  0
    5.3590   -0.2135    0.5679 C   0  0  0  0  0  0  0  0  0  0  0  0
    5.2708   -2.1838   -0.8461 C   0  0  0  0  0  0  0  0  0  0  0  0
    6.7512   -0.1556    0.4296 C   0  0  0  0  0  0  0  0  0  0  0  0
    6.6494   -2.0972   -1.0401 C   0  0  0  0  0  0  0  0  0  0  0  0
    7.3848   -1.0842   -0.4130 C   0  0  0  0  0  0  0  0  0  0  0  0
    8.5951    3.9298    4.5679 C   0  0  0  0  0  0  0  0  0  0  0  0
    8.3548    5.2125    4.0567 C   0  0  0  0  0  0  0  0  0  0  0  0
    9.2191    3.8197    5.8194 C   0  0  0  0  0  0  0  0  0  0  0  0
    8.6948    6.3580    4.7936 C   0  0  0  0  0  0  0  0  0  0  0  0
    9.5678    4.9602    6.5549 C   0  0  0  0  0  0  0  0  0  0  0  0
    9.2915    6.2417    6.0600 C   0  0  0  0  0  0  0  0  0  0  0  0
    2.7907   -2.1533   -0.0855 H   0  0  0  0  0  0  0  0  0  0  0  0
    8.1046    3.2568    1.7767 H   0  0  0  0  0  0  0  0  0  0  0  0
    6.5935    3.4815    2.6741 H   0  0  0  0  0  0  0  0  0  0  0  0
    9.2885    7.3589    7.8896 H   0  0  0  0  0  0  0  0  0  0  0  0
   10.7347    7.6018    6.8742 H   0  0  0  0  0  0  0  0  0  0  0  0
    9.1909    8.3619    6.4427 H   0  0  0  0  0  0  0  0  0  0  0  0
    0.9605    1.9563    0.0418 H   0  0  0  0  0  0  0  0  0  0  0  0
   -1.8835   -2.0398   -0.7735 H   0  0  0  0  0  0  0  0  0  0  0  0
   -1.4679    2.1695    0.1508 H   0  0  0  0  0  0  0  0  0  0  0  0
    4.8388    0.5099    1.1894 H   0  0  0  0  0  0  0  0  0  0  0  0
    4.7062   -2.9570   -1.3610 H   0  0  0  0  0  0  0  0  0  0  0  0
    7.1453   -2.8033   -1.7021 H   0  0  0  0  0  0  0  0  0  0  0  0
    8.4565   -1.0193   -0.5919 H   0  0  0  0  0  0  0  0  0  0  0  0
    7.8923    5.3626    3.0859 H   0  0  0  0  0  0  0  0  0  0  0  0
    9.4322    2.8385    6.2405 H   0  0  0  0  0  0  0  0  0  0  0  0
    8.4899    7.3420    4.3818 H   0  0  0  0  0  0  0  0  0  0  0  0
   10.0487    4.8443    7.5233 H   0  0  0  0  0  0  0  0  0  0  0  0
  1  2  1  0  0  0  0
  1  3  2  0  0  0  0
  1 17  1  0  0  0  0
  2 23  1  0  0  0  0
  2 35  1  0  0  0  0
  4  5  1  0  0  0  0
  4  6  2  0  0  0  0
  4 18  1  0  0  0  0
  7  8  1  0  0  0  0
  7  9  2  0  0  0  0
  7 22  1  0  0  0  0
 10 11  1  0  0  0  0
 10 12  2  0  0  0  0
 10 26  1  0  0  0  0
 11 13  1  0  0  0  0
 13 14  1  0  0  0  0
 13 36  1  0  0  0  0
 13 37  1  0  0  0  0
 14 15  2  0  0  0  0
 14 29  1  0  0  0  0
 16 34  1  0  0  0  0
 16 38  1  0  0  0  0
 16 39  1  0  0  0  0
 16 40  1  0  0  0  0
 17 18  2  0  0  0  0
 17 19  1  0  0  0  0
 18 20  1  0  0  0  0
 19 21  2  0  0  0  0
 19 41  1  0  0  0  0
 20 22  2  0  0  0  0
 20 42  1  0  0  0  0
 21 22  1  0  0  0  0
 21 43  1  0  0  0  0
 23 24  2  0  0  0  0
 23 25  1  0  0  0  0
 24 26  1  0  0  0  0
 24 44  1  0  0  0  0
 25 27  2  0  0  0  0
 25 45  1  0  0  0  0
 26 28  2  0  0  0  0
 27 28  1  0  0  0  0
 27 46  1  0  0  0  0
 28 47  1  0  0  0  0
 29 30  2  0  0  0  0
 29 31  1  0  0  0  0
 30 32  1  0  0  0  0
 30 48  1  0  0  0  0
 31 33  2  0  0  0  0
 31 49  1  0  0  0  0
 32 34  2  0  0  0  0
 32 50  1  0  0  0  0
 33 34  1  0  0  0  0
 33 51  1  0  0  0  0
M  CHG  4   4   1   5  -1   7   1   8  -1
M  END
>  <Mol_ID>
6970

>  <Formula>
C23H17N3O8

>  <MolWeight>
463.39638

>  <Cat>
E1712

>  <Name>
FM19G11

>  <Target>
HIF

>  <Form>
free base

>  <CAS>
329932-55-0

>  <URL>
https://www.selleckchem.com/products/fm19g11.html

$$$$
