FN-1501
 OpenBabel08302521353D

 57 61  0  0  0  0  0  0  0  0999 V2000
   -4.3421    2.6923   -0.7280 N   0  0  0  0  0  0  0  0  0  0  0  0
   -3.0537    3.0833   -0.6834 N   0  0  0  0  0  0  0  0  0  0  0  0
   -2.5263    2.3796    0.3556 C   0  0  0  0  0  0  0  0  0  0  0  0
   -3.6236    1.7027    1.0875 C   0  0  0  0  0  0  0  0  0  0  0  0
   -4.7148    1.8628    0.2809 C   0  0  0  0  0  0  0  0  0  0  0  0
   -1.0254    2.2610    0.4969 C   0  0  0  0  0  0  0  0  0  0  0  0
   -0.5435    1.2827    1.0714 O   0  0  0  0  0  0  0  0  0  0  0  0
   -0.2119    3.3000   -0.0407 N   0  0  0  0  0  0  0  0  0  0  0  0
   -3.6221    0.9524    2.2285 N   0  0  0  0  0  0  0  0  0  0  0  0
   -4.6934   -1.0859    4.9834 C   0  0  0  0  0  0  0  0  0  0  0  0
   -6.0125   -1.0635    5.1551 N   0  0  0  0  0  0  0  0  0  0  0  0
   -6.6087   -0.2797    4.2549 C   0  0  0  0  0  0  0  0  0  0  0  0
   -6.0159    0.4537    3.2185 C   0  0  0  0  0  0  0  0  0  0  0  0
   -4.5817    0.3568    3.1095 C   0  0  0  0  0  0  0  0  0  0  0  0
   -3.9714   -0.4357    4.0491 N   0  0  0  0  0  0  0  0  0  0  0  0
   -7.9654   -0.0963    4.2437 N   0  0  0  0  0  0  0  0  0  0  0  0
   -7.1277    1.1079    2.5967 C   0  0  0  0  0  0  0  0  0  0  0  0
   -8.3035    0.7475    3.2333 C   0  0  0  0  0  0  0  0  0  0  0  0
    1.2241    3.2033   -0.1186 C   0  0  0  0  0  0  0  0  0  0  0  0
    1.8272    2.2314   -0.9276 C   0  0  0  0  0  0  0  0  0  0  0  0
    3.2355    2.0792   -0.9931 C   0  0  0  0  0  0  0  0  0  0  0  0
    4.0959    2.8803   -0.2296 C   0  0  0  0  0  0  0  0  0  0  0  0
    3.4948    3.9011    0.5284 C   0  0  0  0  0  0  0  0  0  0  0  0
    2.0826    4.0901    0.5476 C   0  0  0  0  0  0  0  0  0  0  0  0
    5.6209    2.6730   -0.2574 C   0  0  0  0  0  0  0  0  0  0  0  0
    6.2441    2.9786   -1.5564 N   0  0  0  0  0  0  0  0  0  0  0  0
    5.9999    4.3656   -1.9811 C   0  0  0  0  0  0  0  0  0  0  0  0
    6.4916    4.5619   -3.4288 C   0  0  0  0  0  0  0  0  0  0  0  0
    7.9362    4.3302   -3.6186 N   0  0  0  0  0  0  0  0  0  0  0  0
    8.3029    3.0299   -3.0139 C   0  0  0  0  0  0  0  0  0  0  0  0
    7.7093    2.7433   -1.5974 C   0  0  0  0  0  0  0  0  0  0  0  0
    8.7250    5.4333   -3.0788 C   0  0  0  0  0  0  0  0  0  0  0  0
   -4.9205    3.0030   -1.5024 H   0  0  0  0  0  0  0  0  0  0  0  0
   -5.7019    1.4296    0.2978 H   0  0  0  0  0  0  0  0  0  0  0  0
   -0.6327    4.2224   -0.0269 H   0  0  0  0  0  0  0  0  0  0  0  0
   -2.7159    0.6766    2.6091 H   0  0  0  0  0  0  0  0  0  0  0  0
   -4.1358   -1.7034    5.6792 H   0  0  0  0  0  0  0  0  0  0  0  0
   -8.5950   -0.5360    4.8951 H   0  0  0  0  0  0  0  0  0  0  0  0
   -7.1163    1.7909    1.7640 H   0  0  0  0  0  0  0  0  0  0  0  0
   -9.3386    1.0219    3.0609 H   0  0  0  0  0  0  0  0  0  0  0  0
    1.2097    1.6035   -1.5647 H   0  0  0  0  0  0  0  0  0  0  0  0
    3.6577    1.3242   -1.6549 H   0  0  0  0  0  0  0  0  0  0  0  0
    4.1259    4.5620    1.1222 H   0  0  0  0  0  0  0  0  0  0  0  0
    1.6866    4.9044    1.1483 H   0  0  0  0  0  0  0  0  0  0  0  0
    5.8081    1.6159   -0.0184 H   0  0  0  0  0  0  0  0  0  0  0  0
    6.0968    3.2503    0.5468 H   0  0  0  0  0  0  0  0  0  0  0  0
    4.9322    4.5983   -1.9709 H   0  0  0  0  0  0  0  0  0  0  0  0
    6.4904    5.0731   -1.2992 H   0  0  0  0  0  0  0  0  0  0  0  0
    5.9464    3.8623   -4.0775 H   0  0  0  0  0  0  0  0  0  0  0  0
    6.2138    5.5631   -3.7775 H   0  0  0  0  0  0  0  0  0  0  0  0
    7.9457    2.2445   -3.6940 H   0  0  0  0  0  0  0  0  0  0  0  0
    9.3956    2.9200   -2.9965 H   0  0  0  0  0  0  0  0  0  0  0  0
    8.2289    3.3757   -0.8639 H   0  0  0  0  0  0  0  0  0  0  0  0
    7.9393    1.7015   -1.3420 H   0  0  0  0  0  0  0  0  0  0  0  0
    8.6346    5.5409   -1.9938 H   0  0  0  0  0  0  0  0  0  0  0  0
    9.7843    5.3001   -3.3227 H   0  0  0  0  0  0  0  0  0  0  0  0
    8.4197    6.3799   -3.5410 H   0  0  0  0  0  0  0  0  0  0  0  0
  1  2  1  0  0  0  0
  1  5  1  0  0  0  0
  1 33  1  0  0  0  0
  2  3  2  0  0  0  0
  3  4  1  0  0  0  0
  3  6  1  0  0  0  0
  4  5  2  0  0  0  0
  4  9  1  0  0  0  0
  5 34  1  0  0  0  0
  6  7  2  0  0  0  0
  6  8  1  0  0  0  0
  8 19  1  0  0  0  0
  8 35  1  0  0  0  0
  9 14  1  0  0  0  0
  9 36  1  0  0  0  0
 10 11  2  0  0  0  0
 10 15  1  0  0  0  0
 10 37  1  0  0  0  0
 11 12  1  0  0  0  0
 12 13  2  0  0  0  0
 13 14  1  0  0  0  0
 14 15  2  0  0  0  0
 16 18  1  0  0  0  0
 16 12  1  0  0  0  0
 16 38  1  0  0  0  0
 17 18  2  0  0  0  0
 17 13  1  0  0  0  0
 17 39  1  0  0  0  0
 18 40  1  0  0  0  0
 19 20  2  0  0  0  0
 19 24  1  0  0  0  0
 20 21  1  0  0  0  0
 20 41  1  0  0  0  0
 21 22  2  0  0  0  0
 21 42  1  0  0  0  0
 22 23  1  0  0  0  0
 22 25  1  0  0  0  0
 23 24  2  0  0  0  0
 23 43  1  0  0  0  0
 24 44  1  0  0  0  0
 25 26  1  0  0  0  0
 25 45  1  0  0  0  0
 25 46  1  0  0  0  0
 26 27  1  0  0  0  0
 26 31  1  0  0  0  0
 27 28  1  0  0  0  0
 27 47  1  0  0  0  0
 27 48  1  0  0  0  0
 28 29  1  0  0  0  0
 28 49  1  0  0  0  0
 28 50  1  0  0  0  0
 29 30  1  0  0  0  0
 29 32  1  0  0  0  0
 30 31  1  0  0  0  0
 30 51  1  0  0  0  0
 30 52  1  0  0  0  0
 31 53  1  0  0  0  0
 31 54  1  0  0  0  0
 32 55  1  0  0  0  0
 32 56  1  0  0  0  0
 32 57  1  0  0  0  0
M  END
>  <Mol_ID>
6862

>  <Formula>
C22H25N9O

>  <MolWeight>
431.4936

>  <Cat>
E2658

>  <Name>
FN-1501

>  <Target>
CDK,FLT3

>  <Form>
Free base

>  <CAS>
1429515-59-2

>  <URL>
http://www.selleckchem.com/products/fn-1501.html

$$$$
