FOMEPIZOLE (fomepizole).cdx
 OpenBabel08302520003D

 12 12  0  0  0  0  0  0  0  0999 V2000
    0.8397    0.0112   -0.0021 C   0  0  0  0  0  0  0  0  0  0  0  0
    0.0386    1.1329   -0.0011 C   0  0  0  0  0  0  0  0  0  0  0  0
   -1.2501    0.6860   -0.0019 N   0  0  0  0  0  0  0  0  0  0  0  0
   -1.3497   -0.6524    0.0002 N   0  0  0  0  0  0  0  0  0  0  0  0
   -0.0793   -1.0625   -0.0001 C   0  0  0  0  0  0  0  0  0  0  0  0
    2.3167   -0.0614   -0.0061 C   0  0  0  0  0  0  0  0  0  0  0  0
    0.2675    2.1889   -0.0009 H   0  0  0  0  0  0  0  0  0  0  0  0
   -2.1051    1.2324   -0.0042 H   0  0  0  0  0  0  0  0  0  0  0  0
    0.1269   -2.1254    0.0010 H   0  0  0  0  0  0  0  0  0  0  0  0
    2.6769   -0.6018    0.8752 H   0  0  0  0  0  0  0  0  0  0  0  0
    2.6720   -0.5826   -0.9007 H   0  0  0  0  0  0  0  0  0  0  0  0
    2.7630    0.9382    0.0035 H   0  0  0  0  0  0  0  0  0  0  0  0
  1  2  2  0  0  0  0
  1  6  1  0  0  0  0
  2  3  1  0  0  0  0
  2  7  1  0  0  0  0
  3  4  1  0  0  0  0
  3  8  1  0  0  0  0
  4  5  2  0  0  0  0
  5  1  1  0  0  0  0
  5  9  1  0  0  0  0
  6 10  1  0  0  0  0
  6 11  1  0  0  0  0
  6 12  1  0  0  0  0
M  END
>  <Mol_ID>
2685

>  <Formula>
C4H6N2

>  <MolWeight>
82.10384

>  <Cat>
S1717

>  <Name>
Fomepizole

>  <Synonyms>
4-methylpyrazole, Antizol, Antizol-Vet

>  <Target>
Dehydrogenase

>  <Form>
free base

>  <CAS>
7554-65-6

>  <URL>
http://selleckchem.com/products/Fomepizole(Antizol).html

$$$$
