Formamide deionized
 OpenBabel08302521383D

  6  5  0  0  0  0  0  0  0  0999 V2000
    0.9023   -0.0483   -0.0947 C   0  0  0  0  0  0  0  0  0  0  0  0
    0.2770    0.3191   -1.2439 N   0  0  0  0  0  0  0  0  0  0  0  0
    0.3034   -0.3722    0.9184 O   0  0  0  0  0  0  0  0  0  0  0  0
    2.0011   -0.0232   -0.1732 H   0  0  0  0  0  0  0  0  0  0  0  0
   -0.7343    0.3227   -1.2550 H   0  0  0  0  0  0  0  0  0  0  0  0
    0.7798    0.5858   -2.0778 H   0  0  0  0  0  0  0  0  0  0  0  0
  1  2  1  0  0  0  0
  1  3  2  0  0  0  0
  1  4  1  0  0  0  0
  2  5  1  0  0  0  0
  2  6  1  0  0  0  0
M  END
>  <Mol_ID>
7635

>  <Formula>
CH3NO

>  <MolWeight>
45.04062

>  <Cat>
E2995

>  <Name>
Formamide deionized

>  <Synonyms>
Methanamide, Formimidic acid

>  <Target>
Others

>  <Form>
free base

>  <CAS>
75-12-7

>  <URL>
https://www.selleckchem.com/products/formamide-deionized.html

$$$$
