Formononetin.cdx
 OpenBabel08302521363D

 32 34  0  0  0  0  0  0  0  0999 V2000
   -0.3794    0.5101   -0.0189 C   0  0  0  0  0  0  0  0  0  0  0  0
    0.1017   -0.7982   -0.0404 C   0  0  0  0  0  0  0  0  0  0  0  0
    1.4759   -1.0326   -0.0326 C   0  0  0  0  0  0  0  0  0  0  0  0
    2.3552    0.0468   -0.0030 C   0  0  0  0  0  0  0  0  0  0  0  0
    1.8853    1.3583    0.0234 C   0  0  0  0  0  0  0  0  0  0  0  0
    0.5092    1.5917    0.0149 C   0  0  0  0  0  0  0  0  0  0  0  0
   -1.8335    0.7382   -0.0293 C   0  0  0  0  0  0  0  0  0  0  0  0
   -2.6907   -0.4747   -0.0421 C   0  0  0  0  0  0  0  0  0  0  0  0
   -2.0820   -1.6689   -0.0602 C   0  0  0  0  0  0  0  0  0  0  0  0
   -0.7248   -1.8934   -0.0694 O   0  0  0  0  0  0  0  0  0  0  0  0
    3.6913   -0.2244   -0.0018 O   0  0  0  0  0  0  0  0  0  0  0  0
   -2.2933    1.8740   -0.0217 O   0  0  0  0  0  0  0  0  0  0  0  0
   -4.1528   -0.3773   -0.0188 C   0  0  0  0  0  0  0  0  0  0  0  0
   -4.8353   -0.3408    1.2024 C   0  0  0  0  0  0  0  0  0  0  0  0
   -6.2302   -0.2295    1.2348 C   0  0  0  0  0  0  0  0  0  0  0  0
   -6.9559   -0.1590    0.0456 C   0  0  0  0  0  0  0  0  0  0  0  0
   -6.2744   -0.2012   -1.1735 C   0  0  0  0  0  0  0  0  0  0  0  0
   -4.8812   -0.3100   -1.2100 C   0  0  0  0  0  0  0  0  0  0  0  0
   -8.3150   -0.0492   -0.0615 O   0  0  0  0  0  0  0  0  0  0  0  0
   -9.0501    0.0312    1.1534 C   0  0  0  0  0  0  0  0  0  0  0  0
    1.8621   -2.0476   -0.0504 H   0  0  0  0  0  0  0  0  0  0  0  0
    2.5666    2.2032    0.0510 H   0  0  0  0  0  0  0  0  0  0  0  0
    0.1294    2.6113    0.0349 H   0  0  0  0  0  0  0  0  0  0  0  0
   -2.6105   -2.6154   -0.0665 H   0  0  0  0  0  0  0  0  0  0  0  0
    4.1834    0.6136   -0.0092 H   0  0  0  0  0  0  0  0  0  0  0  0
   -4.2858   -0.3826    2.1404 H   0  0  0  0  0  0  0  0  0  0  0  0
   -6.7146   -0.1928    2.2045 H   0  0  0  0  0  0  0  0  0  0  0  0
   -6.8333   -0.1382   -2.1041 H   0  0  0  0  0  0  0  0  0  0  0  0
   -4.3746   -0.3247   -2.1719 H   0  0  0  0  0  0  0  0  0  0  0  0
   -8.9051   -0.8656    1.7648 H   0  0  0  0  0  0  0  0  0  0  0  0
   -8.7902    0.9370    1.7112 H   0  0  0  0  0  0  0  0  0  0  0  0
  -10.1127    0.0890    0.8984 H   0  0  0  0  0  0  0  0  0  0  0  0
  1  2  1  0  0  0  0
  1  7  1  0  0  0  0
  2  3  2  0  0  0  0
  3  4  1  0  0  0  0
  3 21  1  0  0  0  0
  4  5  2  0  0  0  0
  4 11  1  0  0  0  0
  5  6  1  0  0  0  0
  5 22  1  0  0  0  0
  6  1  2  0  0  0  0
  6 23  1  0  0  0  0
  7  8  1  0  0  0  0
  7 12  2  0  0  0  0
  8  9  2  0  0  0  0
  8 13  1  0  0  0  0
  9 10  1  0  0  0  0
  9 24  1  0  0  0  0
 10  2  1  0  0  0  0
 11 25  1  0  0  0  0
 13 14  2  0  0  0  0
 14 15  1  0  0  0  0
 14 26  1  0  0  0  0
 15 16  2  0  0  0  0
 15 27  1  0  0  0  0
 16 17  1  0  0  0  0
 16 19  1  0  0  0  0
 17 18  2  0  0  0  0
 17 28  1  0  0  0  0
 18 13  1  0  0  0  0
 18 29  1  0  0  0  0
 19 20  1  0  0  0  0
 20 30  1  0  0  0  0
 20 31  1  0  0  0  0
 20 32  1  0  0  0  0
M  END
>  <Mol_ID>
684

>  <Formula>
C16H12O4

>  <MolWeight>
268.26408

>  <Cat>
S2299

>  <Name>
Formononetin

>  <Synonyms>
Formononetol, Biochanin B

>  <Target>
Others

>  <Form>
free base

>  <CAS>
485-72-3

>  <URL>
http://selleckchem.com/products/Formononetin(Formononetol).html

$$$$
