Forskolin.cdx
 OpenBabel08302522092D

 63 65  0  0  0  0  0  0  0  0999 V2000
    0.0000    3.5000    0.0000 C   0  0  0  0  0  0  0  0  0  0  0  0
    0.0000    2.1000    0.0000 C   0  0  0  0  0  0  0  0  0  0  0  0
    1.2124    1.4000    0.0000 C   0  0  0  0  0  0  0  0  0  0  0  0
    2.4249    2.1000    0.0000 C   0  0  1  0  0  0  0  0  0  0  0  0
    2.4249    3.5000    0.0000 C   0  0  2  0  0  0  0  0  0  0  0  0
    1.2124    4.2000    0.0000 C   0  0  1  0  0  0  0  0  0  0  0  0
    3.6373    1.4000    0.0000 C   0  0  1  0  0  0  0  0  0  0  0  0
    4.8497    2.1000    0.0000 C   0  0  1  0  0  0  0  0  0  0  0  0
    4.8497    3.5000    0.0000 C   0  0  2  0  0  0  0  0  0  0  0  0
    3.6373    4.2000    0.0000 C   0  0  2  0  0  0  0  0  0  0  0  0
    6.0622    4.2000    0.0000 O   0  0  0  0  0  0  0  0  0  0  0  0
    6.0622    5.6000    0.0000 C   0  0  2  0  0  0  0  0  0  0  0  0
    4.8497    6.3000    0.0000 C   0  0  0  0  0  0  0  0  0  0  0  0
    3.6373    5.6000    0.0000 C   0  0  0  0  0  0  0  0  0  0  0  0
    1.2124    5.5951    0.0000 O   0  0  0  0  0  0  0  0  0  0  0  0
    3.6373    2.8000    0.0000 O   0  0  0  0  0  0  0  0  0  0  0  0
    2.4291    6.2976    0.0000 O   0  0  0  0  0  0  0  0  0  0  0  0
    7.2704    6.2976    0.0000 C   0  0  0  0  0  0  0  0  0  0  0  0
    8.4786    5.6000    0.0000 C   0  0  0  0  0  0  0  0  0  0  0  0
    1.2124    0.0000    0.0000 C   0  0  0  0  0  0  0  0  0  0  0  0
    0.0000    0.7000    0.0000 C   0  0  0  0  0  0  0  0  0  0  0  0
    2.4249    4.8951    0.0000 C   0  0  0  0  0  0  0  0  0  0  0  0
    4.8497    4.8951    0.0000 C   0  0  0  0  0  0  0  0  0  0  0  0
    3.6373    0.0049    0.0000 O   0  0  0  0  0  0  0  0  0  0  0  0
    6.0580    1.4024    0.0000 O   0  0  0  0  0  0  0  0  0  0  0  0
    6.0622    6.9951    0.0000 C   0  0  0  0  0  0  0  0  0  0  0  0
    7.2662    2.1000    0.0000 C   0  0  0  0  0  0  0  0  0  0  0  0
    8.4744    1.4024    0.0000 C   0  0  0  0  0  0  0  0  0  0  0  0
    7.2662    3.4951    0.0000 O   0  0  0  0  0  0  0  0  0  0  0  0
   -0.9267    4.0350    0.0000 H   0  0  0  0  0  0  0  0  0  0  0  0
   -0.0000    4.5700    0.0000 H   0  0  0  0  0  0  0  0  0  0  0  0
   -0.9267    1.5650    0.0000 H   0  0  0  0  0  0  0  0  0  0  0  0
   -0.0000    1.0300    0.0000 H   0  0  0  0  0  0  0  0  0  0  0  0
    1.4983    2.6350    0.0000 H   0  0  0  0  0  0  0  0  0  0  0  0
    2.1390    4.7350    0.0000 H   0  0  0  0  0  0  0  0  0  0  0  0
    2.7106    0.8650    0.0000 H   0  0  0  0  0  0  0  0  0  0  0  0
    4.8497    1.0300    0.0000 H   0  0  0  0  0  0  0  0  0  0  0  0
    4.8497    7.3700    0.0000 H   0  0  0  0  0  0  0  0  0  0  0  0
    3.9230    6.8350    0.0000 H   0  0  0  0  0  0  0  0  0  0  0  0
    2.0524    6.0801    0.0000 H   0  0  0  0  0  0  0  0  0  0  0  0
    2.7973    2.3150    0.0000 H   0  0  0  0  0  0  0  0  0  0  0  0
    7.2704    7.3296    0.0000 H   0  0  0  0  0  0  0  0  0  0  0  0
    8.4786    4.5680    0.0000 H   0  0  0  0  0  0  0  0  0  0  0  0
    9.3724    6.1160    0.0000 H   0  0  0  0  0  0  0  0  0  0  0  0
    0.2858   -0.5350    0.0000 H   0  0  0  0  0  0  0  0  0  0  0  0
    2.1390   -0.5350    0.0000 H   0  0  0  0  0  0  0  0  0  0  0  0
    1.2124   -1.0700    0.0000 H   0  0  0  0  0  0  0  0  0  0  0  0
   -0.9267    1.2350    0.0000 H   0  0  0  0  0  0  0  0  0  0  0  0
    0.0000   -0.3700    0.0000 H   0  0  0  0  0  0  0  0  0  0  0  0
   -0.9266    0.1650    0.0000 H   0  0  0  0  0  0  0  0  0  0  0  0
    3.3515    5.4301    0.0000 H   0  0  0  0  0  0  0  0  0  0  0  0
    1.4983    5.4301    0.0000 H   0  0  0  0  0  0  0  0  0  0  0  0
    2.4249    5.9651    0.0000 H   0  0  0  0  0  0  0  0  0  0  0  0
    5.7763    5.4301    0.0000 H   0  0  0  0  0  0  0  0  0  0  0  0
    3.9231    5.4301    0.0000 H   0  0  0  0  0  0  0  0  0  0  0  0
    4.8497    5.9651    0.0000 H   0  0  0  0  0  0  0  0  0  0  0  0
    2.7973   -0.4801    0.0000 H   0  0  0  0  0  0  0  0  0  0  0  0
    6.9888    7.5301    0.0000 H   0  0  0  0  0  0  0  0  0  0  0  0
    5.1356    7.5301    0.0000 H   0  0  0  0  0  0  0  0  0  0  0  0
    6.0622    8.0651    0.0000 H   0  0  0  0  0  0  0  0  0  0  0  0
    8.4744    0.3324    0.0000 H   0  0  0  0  0  0  0  0  0  0  0  0
    9.4011    1.9374    0.0000 H   0  0  0  0  0  0  0  0  0  0  0  0
    9.4010    0.8674    0.0000 H   0  0  0  0  0  0  0  0  0  0  0  0
  1  2  1  0  0  0  0
  1 30  1  0  0  0  0
  1 31  1  0  0  0  0
  2  3  1  0  0  0  0
  2 32  1  0  0  0  0
  2 33  1  0  0  0  0
  3 20  1  0  0  0  0
  3 21  1  0  0  0  0
  4  3  1  0  0  0  0
  4  5  1  0  0  0  0
  4  7  1  0  0  0  0
  4 34  1  6  0  0  0
  5  6  1  0  0  0  0
  5 22  1  1  0  0  0
  6  1  1  0  0  0  0
  6 15  1  0  0  0  0
  6 35  1  1  0  0  0
  7  8  1  0  0  0  0
  7 24  1  0  0  0  0
  7 36  1  6  0  0  0
  8  9  1  0  0  0  0
  8 25  1  0  0  0  0
  8 37  1  6  0  0  0
  9 10  1  0  0  0  0
  9 11  1  0  0  0  0
  9 23  1  1  0  0  0
 10  5  1  0  0  0  0
 10 16  1  6  0  0  0
 11 12  1  0  0  0  0
 12 13  1  0  0  0  0
 12 18  1  6  0  0  0
 12 26  1  0  0  0  0
 13 14  1  0  0  0  0
 13 38  1  0  0  0  0
 13 39  1  0  0  0  0
 14 10  1  0  0  0  0
 14 17  2  0  0  0  0
 15 40  1  0  0  0  0
 16 41  1  0  0  0  0
 18 19  2  0  0  0  0
 18 42  1  0  0  0  0
 19 43  1  0  0  0  0
 19 44  1  0  0  0  0
 20 45  1  0  0  0  0
 20 46  1  0  0  0  0
 20 47  1  0  0  0  0
 21 48  1  0  0  0  0
 21 49  1  0  0  0  0
 21 50  1  0  0  0  0
 22 51  1  0  0  0  0
 22 52  1  0  0  0  0
 22 53  1  0  0  0  0
 23 54  1  0  0  0  0
 23 55  1  0  0  0  0
 23 56  1  0  0  0  0
 24 57  1  0  0  0  0
 25 27  1  0  0  0  0
 26 58  1  0  0  0  0
 26 59  1  0  0  0  0
 26 60  1  0  0  0  0
 27 28  1  0  0  0  0
 27 29  2  0  0  0  0
 28 61  1  0  0  0  0
 28 62  1  0  0  0  0
 28 63  1  0  0  0  0
M  END
>  <Mol_ID>
1035

>  <Formula>
C22H34O7

>  <MolWeight>
410.50116

>  <Cat>
S2449

>  <Name>
Colforsin

>  <Synonyms>
Forskolin, HL 362, Coleonol

>  <Target>
Autophagy,cAMP,FXR

>  <Form>
free base

>  <CAS>
66575-29-9

>  <URL>
http://selleckchem.com/products/forskolin.html

$$$$
