Foscarnet Sodium.cdx
 OpenBabel08302521383D

  7  6  0  0  0  0  0  0  0  0999 V2000
    0.9113    0.1006   -0.3082 P   0  0  0  0  0  0  0  0  0  0  0  0
    0.9387    1.1285    1.5888 C   0  0  0  0  0  0  0  0  0  0  0  0
    0.9609    2.4260    1.5952 O   0  0  0  0  0  0  0  0  0  0  0  0
    0.9323    0.4185    2.6755 O   0  5  0  0  0  0  0  0  0  0  0  0
    0.9270    1.2476   -1.3243 O   0  5  0  0  0  0  0  0  0  0  0  0
   -0.3988   -0.6931   -0.2028 O   0  5  0  0  0  0  0  0  0  0  0  0
    2.1930   -0.7395   -0.2150 O   0  0  0  0  0  0  0  0  0  0  0  0
  1  2  1  0  0  0  0
  1  5  1  0  0  0  0
  1  6  1  0  0  0  0
  1  7  2  0  0  0  0
  2  3  2  0  0  0  0
  2  4  1  0  0  0  0
M  CHG  3   4  -1   5  -1   6  -1
M  END
>  <Mol_ID>
7705

>  <Formula>
CNa3O5P

>  <MolWeight>
191.950771

>  <Cat>
S3076

>  <Name>
Foscarnet Sodium

>  <Synonyms>
Phosphonoformate

>  <Target>
Reverse Transcriptase

>  <Form>
Sodium

>  <CAS>
63585-09-1

>  <URL>
http://selleckchem.com/products/foscarnet-sodium.html

$$$$
