Fosfluconazole
 OpenBabel08302520403D

 39 41  0  0  0  0  0  0  0  0999 V2000
    0.8203   -0.1118    0.3235 C   0  0  0  0  0  0  0  0  0  0  0  0
    0.6123   -1.5090   -0.3722 C   0  0  0  0  0  0  0  0  0  0  0  0
   -0.1928    0.1957    1.4566 C   0  0  0  0  0  0  0  0  0  0  0  0
    0.7266    0.9623   -0.8345 C   0  0  0  0  0  0  0  0  0  0  0  0
    0.8616   -2.7402    0.3406 N   0  0  0  0  0  0  0  0  0  0  0  0
   -0.5761   -0.7620    2.4108 C   0  0  0  0  0  0  0  0  0  0  0  0
   -0.7738    1.4690    1.6199 C   0  0  0  0  0  0  0  0  0  0  0  0
   -0.5484    1.1063   -1.5115 N   0  0  0  0  0  0  0  0  0  0  0  0
    2.1053   -3.1141    0.7178 N   0  0  0  0  0  0  0  0  0  0  0  0
   -0.0455   -3.7252    0.6087 C   0  0  0  0  0  0  0  0  0  0  0  0
   -1.6523   -0.5838    3.2735 C   0  0  0  0  0  0  0  0  0  0  0  0
    0.1291   -1.8814    2.5733 F   0  0  0  0  0  0  0  0  0  0  0  0
   -1.8455    1.6771    2.4918 C   0  0  0  0  0  0  0  0  0  0  0  0
   -1.0474    0.1034   -2.2586 N   0  0  0  0  0  0  0  0  0  0  0  0
   -1.2893    2.2371   -1.6720 C   0  0  0  0  0  0  0  0  0  0  0  0
    1.8395   -4.2775    1.3334 C   0  0  0  0  0  0  0  0  0  0  0  0
    0.5435   -4.6975    1.2621 N   0  0  0  0  0  0  0  0  0  0  0  0
   -2.3091    0.6301    3.2673 C   0  0  0  0  0  0  0  0  0  0  0  0
   -2.1080    0.6884   -2.8216 C   0  0  0  0  0  0  0  0  0  0  0  0
   -2.3006    1.9919   -2.4717 N   0  0  0  0  0  0  0  0  0  0  0  0
   -3.3827    0.8038    4.0506 F   0  0  0  0  0  0  0  0  0  0  0  0
    2.0932    0.0216    0.9678 O   0  0  0  0  0  0  0  0  0  0  0  0
    3.4909   -0.1325    0.2077 P   0  0  0  0  0  0  0  0  0  0  0  0
    4.3619    1.0103    0.9054 O   0  0  0  0  0  0  0  0  0  0  0  0
    4.1368   -1.4526    0.8096 O   0  0  0  0  0  0  0  0  0  0  0  0
    3.4835   -0.0322   -1.2753 O   0  0  0  0  0  0  0  0  0  0  0  0
   -0.4285   -1.5914   -0.6993 H   0  0  0  0  0  0  0  0  0  0  0  0
    1.2474   -1.5794   -1.2634 H   0  0  0  0  0  0  0  0  0  0  0  0
    1.0408    1.9506   -0.4769 H   0  0  0  0  0  0  0  0  0  0  0  0
    1.4179    0.7292   -1.6466 H   0  0  0  0  0  0  0  0  0  0  0  0
   -0.4152    2.3406    1.0814 H   0  0  0  0  0  0  0  0  0  0  0  0
   -1.0936   -3.6648    0.3473 H   0  0  0  0  0  0  0  0  0  0  0  0
   -1.9562   -1.3790    3.9422 H   0  0  0  0  0  0  0  0  0  0  0  0
   -2.3228    2.6498    2.5602 H   0  0  0  0  0  0  0  0  0  0  0  0
   -1.0548    3.1863   -1.2115 H   0  0  0  0  0  0  0  0  0  0  0  0
    2.6102   -4.8412    1.8447 H   0  0  0  0  0  0  0  0  0  0  0  0
   -2.7520    0.1536   -3.5089 H   0  0  0  0  0  0  0  0  0  0  0  0
    5.2214    1.1172    0.4607 H   0  0  0  0  0  0  0  0  0  0  0  0
    3.5446   -2.2336    0.6722 H   0  0  0  0  0  0  0  0  0  0  0  0
  1  2  1  0  0  0  0
  1  3  1  0  0  0  0
  1  4  1  0  0  0  0
  1 22  1  0  0  0  0
  2  5  1  0  0  0  0
  2 27  1  0  0  0  0
  2 28  1  0  0  0  0
  3  6  2  0  0  0  0
  3  7  1  0  0  0  0
  4  8  1  0  0  0  0
  4 29  1  0  0  0  0
  4 30  1  0  0  0  0
  5  9  1  0  0  0  0
  5 10  1  0  0  0  0
  6 11  1  0  0  0  0
  6 12  1  0  0  0  0
  7 13  2  0  0  0  0
  7 31  1  0  0  0  0
  8 14  1  0  0  0  0
  8 15  1  0  0  0  0
  9 16  2  0  0  0  0
 10 17  2  0  0  0  0
 10 32  1  0  0  0  0
 11 18  2  0  0  0  0
 11 33  1  0  0  0  0
 13 18  1  0  0  0  0
 13 34  1  0  0  0  0
 14 19  2  0  0  0  0
 15 20  2  0  0  0  0
 15 35  1  0  0  0  0
 16 17  1  0  0  0  0
 16 36  1  0  0  0  0
 18 21  1  0  0  0  0
 19 20  1  0  0  0  0
 19 37  1  0  0  0  0
 22 23  1  0  0  0  0
 23 24  1  0  0  0  0
 23 25  1  0  0  0  0
 23 26  2  0  0  0  0
 24 38  1  0  0  0  0
 25 39  1  0  0  0  0
M  END
>  <Mol_ID>
3776

>  <Formula>
C13H13F2N6O4P

>  <MolWeight>
386.2506874

>  <Cat>
S6467

>  <Name>
Fosfluconazole

>  <Synonyms>
N/A

>  <Target>
Fungal

>  <Form>
Free Base

>  <CAS>
194798-83-9

>  <URL>
http://www.selleck.cn/products/fosfluconazole.html

$$$$
