Fosphenytoin (disodium)
 OpenBabel08302521393D

 38 40  0  0  0  0  0  0  0  0999 V2000
   -0.6912   -1.3844    0.0365 C   0  0  0  0  0  0  0  0  0  0  0  0
   -1.0229   -2.0606   -1.3096 C   0  0  0  0  0  0  0  0  0  0  0  0
   -1.2290   -2.1143    1.2864 C   0  0  0  0  0  0  0  0  0  0  0  0
   -1.0955    0.1290    0.0332 C   0  0  0  0  0  0  0  0  0  0  0  0
    0.7375   -1.2167    0.1624 N   0  0  0  0  0  0  0  0  0  0  0  0
   -2.2103   -1.7569   -2.0013 C   0  0  0  0  0  0  0  0  0  0  0  0
   -0.1553   -3.0082   -1.8917 C   0  0  0  0  0  0  0  0  0  0  0  0
   -1.9980   -3.2883    1.2077 C   0  0  0  0  0  0  0  0  0  0  0  0
   -0.9482   -1.6093    2.5749 C   0  0  0  0  0  0  0  0  0  0  0  0
    0.0467    0.8835   -0.0428 N   0  0  0  0  0  0  0  0  0  0  0  0
   -2.2502    0.5377    0.1292 O   0  0  0  0  0  0  0  0  0  0  0  0
    1.1396    0.0976    0.1203 C   0  0  0  0  0  0  0  0  0  0  0  0
   -2.4730   -2.3023   -3.2593 C   0  0  0  0  0  0  0  0  0  0  0  0
   -0.4188   -3.5517   -3.1514 C   0  0  0  0  0  0  0  0  0  0  0  0
   -2.4556   -3.9358    2.3620 C   0  0  0  0  0  0  0  0  0  0  0  0
   -1.4087   -2.2542    3.7270 C   0  0  0  0  0  0  0  0  0  0  0  0
    0.0821    2.3249   -0.1504 C   0  0  0  0  0  0  0  0  0  0  0  0
    2.3130    0.3827    0.2981 O   0  0  0  0  0  0  0  0  0  0  0  0
   -1.5675   -3.1828   -3.8436 C   0  0  0  0  0  0  0  0  0  0  0  0
   -2.1597   -3.4198    3.6195 C   0  0  0  0  0  0  0  0  0  0  0  0
    0.7410    2.6571   -1.3455 O   0  0  0  0  0  0  0  0  0  0  0  0
    0.8613    4.2711   -1.5720 P   0  0  0  0  0  0  0  0  0  0  0  0
   -0.5908    4.7210   -1.6353 O   0  0  0  0  0  0  0  0  0  0  0  0
    1.6069    4.7574   -0.3423 O   0  5  0  0  0  0  0  0  0  0  0  0
    1.6224    4.3929   -2.8835 O   0  5  0  0  0  0  0  0  0  0  0  0
    1.4302   -1.9453    0.2171 H   0  0  0  0  0  0  0  0  0  0  0  0
   -2.9373   -1.0617   -1.5828 H   0  0  0  0  0  0  0  0  0  0  0  0
    0.7564   -3.3123   -1.3848 H   0  0  0  0  0  0  0  0  0  0  0  0
   -2.2618   -3.7228    0.2465 H   0  0  0  0  0  0  0  0  0  0  0  0
   -0.3642   -0.6960    2.6946 H   0  0  0  0  0  0  0  0  0  0  0  0
   -3.3725   -2.0072   -3.7931 H   0  0  0  0  0  0  0  0  0  0  0  0
    0.2914   -4.2383   -3.6029 H   0  0  0  0  0  0  0  0  0  0  0  0
   -3.0496   -4.8408    2.2708 H   0  0  0  0  0  0  0  0  0  0  0  0
   -1.1822   -1.8363    4.7043 H   0  0  0  0  0  0  0  0  0  0  0  0
   -0.9426    2.7076   -0.1603 H   0  0  0  0  0  0  0  0  0  0  0  0
    0.6177    2.7137    0.7199 H   0  0  0  0  0  0  0  0  0  0  0  0
   -1.7507   -3.5658   -4.8427 H   0  0  0  0  0  0  0  0  0  0  0  0
   -2.5183   -3.9210    4.5140 H   0  0  0  0  0  0  0  0  0  0  0  0
  1  2  1  0  0  0  0
  1  3  1  0  0  0  0
  1  4  1  0  0  0  0
  1  5  1  0  0  0  0
  2  6  2  0  0  0  0
  2  7  1  0  0  0  0
  3  8  2  0  0  0  0
  3  9  1  0  0  0  0
  4 10  1  0  0  0  0
  4 11  2  0  0  0  0
  5 12  1  0  0  0  0
  5 26  1  0  0  0  0
  6 13  1  0  0  0  0
  6 27  1  0  0  0  0
  7 14  2  0  0  0  0
  7 28  1  0  0  0  0
  8 15  1  0  0  0  0
  8 29  1  0  0  0  0
  9 16  2  0  0  0  0
  9 30  1  0  0  0  0
 10 17  1  0  0  0  0
 10 12  1  0  0  0  0
 12 18  2  0  0  0  0
 13 19  2  0  0  0  0
 13 31  1  0  0  0  0
 14 19  1  0  0  0  0
 14 32  1  0  0  0  0
 15 20  2  0  0  0  0
 15 33  1  0  0  0  0
 16 20  1  0  0  0  0
 16 34  1  0  0  0  0
 17 21  1  0  0  0  0
 17 35  1  0  0  0  0
 17 36  1  0  0  0  0
 19 37  1  0  0  0  0
 20 38  1  0  0  0  0
 21 22  1  0  0  0  0
 22 23  2  0  0  0  0
 22 24  1  0  0  0  0
 22 25  1  0  0  0  0
M  CHG  2  24  -1  25  -1
M  END
>  <Mol_ID>
8027

>  <Formula>
C16H13N2Na2O6P

>  <MolWeight>
406.237521

>  <Cat>
S6482

>  <Name>
Fosphenytoin (disodium)

>  <Synonyms>
N/A

>  <Target>
Others

>  <Form>
disodium

>  <CAS>
92134-98-0

>  <URL>
http://www.selleck.cn/products/fosphenytoin.html

$$$$
