FOY251
 OpenBabel08302521313D

 47 47  0  0  0  0  0  0  0  0999 V2000
   -3.9869    2.5375   -0.5241 C   0  0  0  0  0  0  0  0  0  0  0  0
   -4.8831    3.1347   -1.4247 C   0  0  0  0  0  0  0  0  0  0  0  0
   -4.3349    3.7960   -2.5298 C   0  0  0  0  0  0  0  0  0  0  0  0
   -2.9594    4.0719   -2.6038 C   0  0  0  0  0  0  0  0  0  0  0  0
   -2.0980    3.6359   -1.5913 C   0  0  0  0  0  0  0  0  0  0  0  0
   -2.6103    2.7926   -0.5976 C   0  0  0  0  0  0  0  0  0  0  0  0
   -6.2798    3.0432   -1.1840 N   0  0  0  0  0  0  0  0  0  0  0  0
   -7.2128    3.9723   -1.5609 C   0  0  0  0  0  0  0  0  0  0  0  0
   -8.4646    3.6634   -1.1235 N   0  0  0  0  0  0  0  0  0  0  0  0
   -7.0157    5.0585   -2.2198 N   0  0  0  0  0  0  0  0  0  0  0  0
   -0.7285    4.2458   -1.4638 C   0  0  0  0  0  0  0  0  0  0  0  0
   -0.3524    5.1959   -2.1376 O   0  0  0  0  0  0  0  0  0  0  0  0
   -0.0664    3.6530   -0.3952 O   0  0  0  0  0  0  0  0  0  0  0  0
    0.6431    4.3958    0.5819 C   0  0  0  0  0  0  0  0  0  0  0  0
    0.8476    3.7643    1.8095 C   0  0  0  0  0  0  0  0  0  0  0  0
    1.4895    4.4185    2.8639 C   0  0  0  0  0  0  0  0  0  0  0  0
    1.9189    5.7364    2.7026 C   0  0  0  0  0  0  0  0  0  0  0  0
    1.6996    6.3703    1.4674 C   0  0  0  0  0  0  0  0  0  0  0  0
    1.0706    5.7009    0.4116 C   0  0  0  0  0  0  0  0  0  0  0  0
    2.6732    6.4325    3.8152 C   0  0  0  0  0  0  0  0  0  0  0  0
    4.1765    6.2340    3.7860 C   0  0  0  0  0  0  0  0  0  0  0  0
    4.7263    6.0686    2.5631 O   0  0  0  0  0  0  0  0  0  0  0  0
    4.8717    6.2763    4.7939 O   0  0  0  0  0  0  0  0  0  0  0  0
    0.6150    0.1866    1.8831 C   0  0  0  0  0  0  0  0  0  0  0  0
    0.4340   -1.3639    2.7080 S   0  0  0  0  0  0  0  0  0  0  0  0
    1.1894   -0.9273    4.0743 O   0  0  0  0  0  0  0  0  0  0  0  0
   -0.9555   -1.5880    2.9859 O   0  0  0  0  0  0  0  0  0  0  0  0
    1.2916   -2.3268    2.0530 O   0  0  0  0  0  0  0  0  0  0  0  0
   -4.3534    1.9431    0.3093 H   0  0  0  0  0  0  0  0  0  0  0  0
   -4.9858    4.1970   -3.3043 H   0  0  0  0  0  0  0  0  0  0  0  0
   -2.5995    4.7081   -3.4098 H   0  0  0  0  0  0  0  0  0  0  0  0
   -1.9713    2.4063    0.1909 H   0  0  0  0  0  0  0  0  0  0  0  0
   -6.4661    2.7015   -0.2485 H   0  0  0  0  0  0  0  0  0  0  0  0
   -9.2077    4.1959   -1.5664 H   0  0  0  0  0  0  0  0  0  0  0  0
   -8.6816    2.6786   -1.1373 H   0  0  0  0  0  0  0  0  0  0  0  0
   -7.8852    5.5847   -2.2996 H   0  0  0  0  0  0  0  0  0  0  0  0
    0.4820    2.7658    1.9650 H   0  0  0  0  0  0  0  0  0  0  0  0
    1.6479    3.8971    3.8074 H   0  0  0  0  0  0  0  0  0  0  0  0
    2.0373    7.3906    1.2986 H   0  0  0  0  0  0  0  0  0  0  0  0
    0.9245    6.2224   -0.5276 H   0  0  0  0  0  0  0  0  0  0  0  0
    2.4611    7.5080    3.7954 H   0  0  0  0  0  0  0  0  0  0  0  0
    2.3119    6.0558    4.7807 H   0  0  0  0  0  0  0  0  0  0  0  0
    4.0867    6.0420    1.8265 H   0  0  0  0  0  0  0  0  0  0  0  0
    0.2157    0.9395    2.5596 H   0  0  0  0  0  0  0  0  0  0  0  0
    0.0318    0.1539    0.9628 H   0  0  0  0  0  0  0  0  0  0  0  0
    1.6706    0.3690    1.6657 H   0  0  0  0  0  0  0  0  0  0  0  0
    2.1523   -1.0572    3.9593 H   0  0  0  0  0  0  0  0  0  0  0  0
  1  2  2  0  0  0  0
  1 29  1  0  0  0  0
  2  3  1  0  0  0  0
  2  7  1  0  0  0  0
  3  4  2  0  0  0  0
  3 30  1  0  0  0  0
  4  5  1  0  0  0  0
  4 31  1  0  0  0  0
  5  6  2  0  0  0  0
  5 11  1  0  0  0  0
  6  1  1  0  0  0  0
  6 32  1  0  0  0  0
  7  8  1  0  0  0  0
  7 33  1  0  0  0  0
  8  9  1  0  0  0  0
  8 10  2  0  0  0  0
  9 34  1  0  0  0  0
  9 35  1  0  0  0  0
 10 36  1  0  0  0  0
 11 12  2  0  0  0  0
 11 13  1  0  0  0  0
 13 14  1  0  0  0  0
 14 15  2  0  0  0  0
 15 16  1  0  0  0  0
 15 37  1  0  0  0  0
 16 17  2  0  0  0  0
 16 38  1  0  0  0  0
 17 18  1  0  0  0  0
 17 20  1  0  0  0  0
 18 19  2  0  0  0  0
 18 39  1  0  0  0  0
 19 14  1  0  0  0  0
 19 40  1  0  0  0  0
 20 21  1  0  0  0  0
 20 41  1  0  0  0  0
 20 42  1  0  0  0  0
 21 22  1  0  0  0  0
 21 23  2  0  0  0  0
 22 43  1  0  0  0  0
 24 25  1  0  0  0  0
 24 44  1  0  0  0  0
 24 45  1  0  0  0  0
 24 46  1  0  0  0  0
 25 26  1  0  0  0  0
 25 27  2  0  0  0  0
 25 28  2  0  0  0  0
 26 47  1  0  0  0  0
M  END
>  <Mol_ID>
5768

>  <Formula>
C17H19N3O7S

>  <MolWeight>
409.41366

>  <Cat>
S3511

>  <Name>
FOY251

>  <Synonyms>
N/A

>  <Target>
COVID-19,Serine Protease

>  <Form>
Free Base

>  <CAS>
71079-09-9

>  <URL>
http://www.selleckchem.com/products/foy251.html

$$$$
