FPH1 (BRD-6125).cdx
 OpenBabel08302519583D

 40 41  0  0  0  0  0  0  0  0999 V2000
   -0.6786    0.8004    0.8499 C   0  0  0  0  0  0  0  0  0  0  0  0
    0.0231   -0.3837    1.1412 C   0  0  0  0  0  0  0  0  0  0  0  0
    0.4513   -1.2061    0.0829 C   0  0  0  0  0  0  0  0  0  0  0  0
    0.1690   -0.8395   -1.2402 C   0  0  0  0  0  0  0  0  0  0  0  0
   -0.5400    0.3338   -1.5128 C   0  0  0  0  0  0  0  0  0  0  0  0
   -0.9634    1.1517   -0.4688 C   0  0  0  0  0  0  0  0  0  0  0  0
    0.2859   -0.7293    2.5801 C   0  0  0  0  0  0  0  0  0  0  0  0
    1.1236   -2.4490    0.3883 N   0  0  0  0  0  0  0  0  0  0  0  0
    0.3558   -3.6866    0.0482 C   0  0  0  0  0  0  0  0  0  0  0  0
    2.7767   -2.5681    0.0457 S   0  0  0  0  0  0  0  0  0  0  0  0
    3.1981   -3.8466    0.5863 O   0  0  0  0  0  0  0  0  0  0  0  0
    2.9971   -2.2509   -1.3484 O   0  0  0  0  0  0  0  0  0  0  0  0
    3.5131   -1.3083    1.0652 C   0  0  0  0  0  0  0  0  0  0  0  0
   -0.0876   -4.3398    1.3457 C   0  0  0  0  0  0  0  0  0  0  0  0
    0.9260   -5.0063    2.0184 N   0  0  0  0  0  0  0  0  0  0  0  0
   -1.2341   -4.1970    1.7700 O   0  0  0  0  0  0  0  0  0  0  0  0
    0.7031   -5.6480    3.2580 C   0  0  0  0  0  0  0  0  0  0  0  0
   -0.4000   -6.4745    3.4988 C   0  0  0  0  0  0  0  0  0  0  0  0
   -0.5850   -7.0828    4.7412 C   0  0  0  0  0  0  0  0  0  0  0  0
    0.3297   -6.8633    5.7697 C   0  0  0  0  0  0  0  0  0  0  0  0
    1.4406   -6.0498    5.5407 C   0  0  0  0  0  0  0  0  0  0  0  0
    1.6282   -5.4681    4.2867 C   0  0  0  0  0  0  0  0  0  0  0  0
    2.6896   -4.6675    4.0968 F   0  0  0  0  0  0  0  0  0  0  0  0
   -1.2611   -6.7757    2.5153 F   0  0  0  0  0  0  0  0  0  0  0  0
   -1.0233    1.4467    1.6518 H   0  0  0  0  0  0  0  0  0  0  0  0
    0.4843   -1.4654   -2.0709 H   0  0  0  0  0  0  0  0  0  0  0  0
   -0.7720    0.6067   -2.5394 H   0  0  0  0  0  0  0  0  0  0  0  0
   -1.5221    2.0612   -0.6781 H   0  0  0  0  0  0  0  0  0  0  0  0
   -0.1380   -1.7057    2.8285 H   0  0  0  0  0  0  0  0  0  0  0  0
    1.3586   -0.7322    2.7815 H   0  0  0  0  0  0  0  0  0  0  0  0
   -0.1623    0.0071    3.2557 H   0  0  0  0  0  0  0  0  0  0  0  0
   -0.5310   -3.4772   -0.5596 H   0  0  0  0  0  0  0  0  0  0  0  0
    0.9528   -4.4034   -0.5267 H   0  0  0  0  0  0  0  0  0  0  0  0
    3.1172   -0.3300    0.7959 H   0  0  0  0  0  0  0  0  0  0  0  0
    3.3193   -1.5509    2.1124 H   0  0  0  0  0  0  0  0  0  0  0  0
    4.5910   -1.3290    0.8908 H   0  0  0  0  0  0  0  0  0  0  0  0
    1.8786   -4.6905    1.8227 H   0  0  0  0  0  0  0  0  0  0  0  0
   -1.4412   -7.7354    4.8901 H   0  0  0  0  0  0  0  0  0  0  0  0
    0.1816   -7.3282    6.7406 H   0  0  0  0  0  0  0  0  0  0  0  0
    2.1568   -5.8576    6.3336 H   0  0  0  0  0  0  0  0  0  0  0  0
  1  2  2  0  0  0  0
  1 25  1  0  0  0  0
  2  3  1  0  0  0  0
  2  7  1  0  0  0  0
  3  4  2  0  0  0  0
  3  8  1  0  0  0  0
  4  5  1  0  0  0  0
  4 26  1  0  0  0  0
  5  6  2  0  0  0  0
  5 27  1  0  0  0  0
  6  1  1  0  0  0  0
  6 28  1  0  0  0  0
  7 29  1  0  0  0  0
  7 30  1  0  0  0  0
  7 31  1  0  0  0  0
  8  9  1  0  0  0  0
  8 10  1  0  0  0  0
  9 14  1  0  0  0  0
  9 32  1  0  0  0  0
  9 33  1  0  0  0  0
 10 11  2  0  0  0  0
 10 12  2  0  0  0  0
 10 13  1  0  0  0  0
 13 34  1  0  0  0  0
 13 35  1  0  0  0  0
 13 36  1  0  0  0  0
 14 15  1  0  0  0  0
 14 16  2  0  0  0  0
 15 17  1  0  0  0  0
 15 37  1  0  0  0  0
 17 18  2  0  0  0  0
 18 19  1  0  0  0  0
 18 24  1  0  0  0  0
 19 20  2  0  0  0  0
 19 38  1  0  0  0  0
 20 21  1  0  0  0  0
 20 39  1  0  0  0  0
 21 22  2  0  0  0  0
 21 40  1  0  0  0  0
 22 17  1  0  0  0  0
 22 23  1  0  0  0  0
M  END
>  <Mol_ID>
2377

>  <Formula>
C16H15ClF2N2O3S

>  <MolWeight>
388.8167064

>  <Cat>
S7451

>  <Name>
FPH1 (BRD-6125)

>  <Synonyms>
N/A

>  <Target>
Others

>  <Form>
free base

>  <CAS>
708219-39-0

>  <URL>
http://selleckchem.com/products/fph1-brd-6125.html

$$$$
