FPH2 (BRD-9424).cdx
 OpenBabel08302519583D

 39 40  0  0  0  0  0  0  0  0999 V2000
   -0.4742   -0.6483   -4.8072 C   0  0  0  0  0  0  0  0  0  0  0  0
   -0.8845    0.6746   -4.7535 C   0  0  0  0  0  0  0  0  0  0  0  0
   -1.9057    1.0447   -3.8797 C   0  0  0  0  0  0  0  0  0  0  0  0
   -2.5320    0.1087   -3.0382 C   0  0  0  0  0  0  0  0  0  0  0  0
   -2.1909   -1.2467   -3.1790 C   0  0  0  0  0  0  0  0  0  0  0  0
   -1.1309   -1.6041   -4.0310 C   0  0  0  0  0  0  0  0  0  0  0  0
   -2.6884   -2.2942   -2.4485 O   0  0  0  0  0  0  0  0  0  0  0  0
   -3.4915    0.5639   -2.0987 N   0  0  0  0  0  0  0  0  0  0  0  0
   -3.4574    1.7484   -1.3649 C   0  0  0  0  0  0  0  0  0  0  0  0
   -4.7194    2.0585   -0.8692 N   0  0  0  0  0  0  0  0  0  0  0  0
   -4.1047   -2.4015   -2.3913 C   0  0  0  0  0  0  0  0  0  0  0  0
   -5.2431    3.3428   -0.7575 C   0  0  0  0  0  0  0  0  0  0  0  0
   -6.3194    3.7865    0.0637 C   0  0  0  0  0  0  0  0  0  0  0  0
   -6.5708    5.1019   -0.1259 N   0  0  0  0  0  0  0  0  0  0  0  0
   -5.6656    5.4726   -1.0459 N   0  0  0  0  0  0  0  0  0  0  0  0
   -4.8715    4.4525   -1.4787 C   0  0  0  0  0  0  0  0  0  0  0  0
   -5.6080    6.8459   -1.5076 C   0  0  0  0  0  0  0  0  0  0  0  0
   -7.0884    2.9855    1.0241 C   0  0  0  0  0  0  0  0  0  0  0  0
   -8.0696    3.6797    1.6767 N   0  0  0  0  0  0  0  0  0  0  0  0
   -4.5872    7.6666   -0.7411 C   0  0  0  0  0  0  0  0  0  0  0  0
   -6.8849    1.7927    1.2306 O   0  0  0  0  0  0  0  0  0  0  0  0
   -2.0760    2.6509   -1.0188 S   0  0  0  0  0  0  0  0  0  0  0  0
    0.3539   -0.9360   -5.4498 H   0  0  0  0  0  0  0  0  0  0  0  0
   -0.4022    1.4293   -5.3696 H   0  0  0  0  0  0  0  0  0  0  0  0
   -2.2164    2.0867   -3.8741 H   0  0  0  0  0  0  0  0  0  0  0  0
   -0.8028   -2.6399   -4.0776 H   0  0  0  0  0  0  0  0  0  0  0  0
   -4.1860   -0.0948   -1.7958 H   0  0  0  0  0  0  0  0  0  0  0  0
   -5.2285    1.3350   -0.3696 H   0  0  0  0  0  0  0  0  0  0  0  0
   -4.4514   -2.0159   -1.4281 H   0  0  0  0  0  0  0  0  0  0  0  0
   -4.6135   -1.8984   -3.2209 H   0  0  0  0  0  0  0  0  0  0  0  0
   -4.3726   -3.4619   -2.4222 H   0  0  0  0  0  0  0  0  0  0  0  0
   -4.1258    4.6030   -2.2475 H   0  0  0  0  0  0  0  0  0  0  0  0
   -5.3631    6.8275   -2.5746 H   0  0  0  0  0  0  0  0  0  0  0  0
   -6.6101    7.2738   -1.3998 H   0  0  0  0  0  0  0  0  0  0  0  0
   -8.6402    3.2262    2.3721 H   0  0  0  0  0  0  0  0  0  0  0  0
   -8.1918    4.6623    1.4561 H   0  0  0  0  0  0  0  0  0  0  0  0
   -3.5730    7.2910   -0.9076 H   0  0  0  0  0  0  0  0  0  0  0  0
   -4.6189    8.7126   -1.0682 H   0  0  0  0  0  0  0  0  0  0  0  0
   -4.7810    7.6390    0.3366 H   0  0  0  0  0  0  0  0  0  0  0  0
  1  2  2  0  0  0  0
  1 23  1  0  0  0  0
  2  3  1  0  0  0  0
  2 24  1  0  0  0  0
  3  4  2  0  0  0  0
  3 25  1  0  0  0  0
  4  5  1  0  0  0  0
  4  8  1  0  0  0  0
  5  6  2  0  0  0  0
  5  7  1  0  0  0  0
  6  1  1  0  0  0  0
  6 26  1  0  0  0  0
  7 11  1  0  0  0  0
  8  9  1  0  0  0  0
  8 27  1  0  0  0  0
  9 10  1  0  0  0  0
  9 22  2  0  0  0  0
 10 12  1  0  0  0  0
 10 28  1  0  0  0  0
 11 29  1  0  0  0  0
 11 30  1  0  0  0  0
 11 31  1  0  0  0  0
 12 13  1  0  0  0  0
 13 14  2  0  0  0  0
 13 18  1  0  0  0  0
 14 15  1  0  0  0  0
 15 16  1  0  0  0  0
 15 17  1  0  0  0  0
 16 12  2  0  0  0  0
 16 32  1  0  0  0  0
 17 20  1  0  0  0  0
 17 33  1  0  0  0  0
 17 34  1  0  0  0  0
 18 19  1  0  0  0  0
 18 21  2  0  0  0  0
 19 35  1  0  0  0  0
 19 36  1  0  0  0  0
 20 37  1  0  0  0  0
 20 38  1  0  0  0  0
 20 39  1  0  0  0  0
M  END
>  <Mol_ID>
2425

>  <Formula>
C14H16ClN5O2S

>  <MolWeight>
353.82714

>  <Cat>
S7452

>  <Name>
FPH2 (BRD-9424)

>  <Synonyms>
N/A

>  <Target>
Others

>  <Form>
free base

>  <CAS>
957485-64-2

>  <URL>
http://selleckchem.com/products/fph2-brd-9424.html

$$$$
