FPL 62064
 OpenBabel08302521263D

 35 37  0  0  0  0  0  0  0  0999 V2000
    2.4212    2.1760   -1.0191 O   0  0  0  0  0  0  0  0  0  0  0  0
   -4.6563    3.7149   -3.8774 N   0  0  0  0  0  0  0  0  0  0  0  0
   -2.0644    1.4575   -4.2993 N   0  0  0  0  0  0  0  0  0  0  0  0
   -3.3366    3.4476   -3.8494 N   0  0  0  0  0  0  0  0  0  0  0  0
   -3.1997    2.1987   -4.2853 C   0  0  0  0  0  0  0  0  0  0  0  0
   -5.1449    4.9451   -3.3600 C   0  0  0  0  0  0  0  0  0  0  0  0
   -0.8739    1.6619   -3.5613 C   0  0  0  0  0  0  0  0  0  0  0  0
   -5.3613    2.6646   -4.4210 C   0  0  0  0  0  0  0  0  0  0  0  0
   -4.4417    1.6840   -4.7146 C   0  0  0  0  0  0  0  0  0  0  0  0
   -0.0726    0.5550   -3.2476 C   0  0  0  0  0  0  0  0  0  0  0  0
   -0.4951    2.9050   -3.0425 C   0  0  0  0  0  0  0  0  0  0  0  0
   -4.2299    5.9034   -2.8902 C   0  0  0  0  0  0  0  0  0  0  0  0
   -6.5177    5.2150   -3.2935 C   0  0  0  0  0  0  0  0  0  0  0  0
    1.3838    1.9203   -1.8713 C   0  0  0  0  0  0  0  0  0  0  0  0
    1.0436    0.6802   -2.4086 C   0  0  0  0  0  0  0  0  0  0  0  0
    0.6174    3.0336   -2.2052 C   0  0  0  0  0  0  0  0  0  0  0  0
   -4.6817    7.1157   -2.3686 C   0  0  0  0  0  0  0  0  0  0  0  0
   -6.9624    6.4298   -2.7643 C   0  0  0  0  0  0  0  0  0  0  0  0
   -6.0468    7.3773   -2.3055 C   0  0  0  0  0  0  0  0  0  0  0  0
    3.1901    1.0586   -0.5968 C   0  0  0  0  0  0  0  0  0  0  0  0
   -2.1241    0.5180   -4.6721 H   0  0  0  0  0  0  0  0  0  0  0  0
   -6.4340    2.6856   -4.5372 H   0  0  0  0  0  0  0  0  0  0  0  0
   -4.6536    0.7075   -5.1243 H   0  0  0  0  0  0  0  0  0  0  0  0
   -0.3270   -0.4316   -3.6246 H   0  0  0  0  0  0  0  0  0  0  0  0
   -1.0605    3.8010   -3.2687 H   0  0  0  0  0  0  0  0  0  0  0  0
   -3.1564    5.7184   -2.9253 H   0  0  0  0  0  0  0  0  0  0  0  0
   -7.2627    4.5017   -3.6307 H   0  0  0  0  0  0  0  0  0  0  0  0
    1.6131   -0.2156   -2.1829 H   0  0  0  0  0  0  0  0  0  0  0  0
    0.8690    4.0095   -1.7993 H   0  0  0  0  0  0  0  0  0  0  0  0
   -3.9653    7.8502   -2.0083 H   0  0  0  0  0  0  0  0  0  0  0  0
   -8.0273    6.6369   -2.7070 H   0  0  0  0  0  0  0  0  0  0  0  0
   -6.4000    8.3210   -1.8961 H   0  0  0  0  0  0  0  0  0  0  0  0
    3.9480    1.4208    0.1038 H   0  0  0  0  0  0  0  0  0  0  0  0
    2.5703    0.3267   -0.0681 H   0  0  0  0  0  0  0  0  0  0  0  0
    3.7095    0.5999   -1.4441 H   0  0  0  0  0  0  0  0  0  0  0  0
  1 14  1  0  0  0  0
  1 20  1  0  0  0  0
  2  4  1  0  0  0  0
  2  6  1  0  0  0  0
  2  8  1  0  0  0  0
  3  5  1  0  0  0  0
  3  7  1  0  0  0  0
  3 21  1  0  0  0  0
  4  5  2  0  0  0  0
  5  9  1  0  0  0  0
  6 12  2  0  0  0  0
  6 13  1  0  0  0  0
  7 10  2  0  0  0  0
  7 11  1  0  0  0  0
  8  9  2  0  0  0  0
  8 22  1  0  0  0  0
  9 23  1  0  0  0  0
 10 15  1  0  0  0  0
 10 24  1  0  0  0  0
 11 16  2  0  0  0  0
 11 25  1  0  0  0  0
 12 17  1  0  0  0  0
 12 26  1  0  0  0  0
 13 18  2  0  0  0  0
 13 27  1  0  0  0  0
 14 15  2  0  0  0  0
 14 16  1  0  0  0  0
 15 28  1  0  0  0  0
 16 29  1  0  0  0  0
 17 19  2  0  0  0  0
 17 30  1  0  0  0  0
 18 19  1  0  0  0  0
 18 31  1  0  0  0  0
 19 32  1  0  0  0  0
 20 33  1  0  0  0  0
 20 34  1  0  0  0  0
 20 35  1  0  0  0  0
M  END
>  <Mol_ID>
5278

>  <Formula>
C16H15N3O

>  <MolWeight>
265.3098

>  <Cat>
S0759

>  <Name>
FPL 62064

>  <Synonyms>
N/A

>  <Target>
COX,Lipoxygenase

>  <Form>
Free Base

>  <CAS>
103141-09-9

>  <URL>
https://www.selleckchem.com/products/fpl-62064.html

$$$$
