FR054
 OpenBabel08302521353D

 42 43  0  0  0  0  0  0  0  0999 V2000
    3.0024    0.9765    1.1361 O   0  0  0  0  0  0  0  0  0  0  0  0
    2.3422    1.1347    2.3235 C   0  0  0  0  0  0  0  0  0  0  0  0
    3.0560    2.0868    3.2551 C   0  0  0  0  0  0  0  0  0  0  0  0
    1.2943    0.5684    2.6124 O   0  0  0  0  0  0  0  0  0  0  0  0
    2.3461   -0.2589   -2.3624 O   0  0  0  0  0  0  0  0  0  0  0  0
    1.1006    0.0995   -2.7728 C   0  0  0  0  0  0  0  0  0  0  0  0
    0.5545   -0.7592   -3.8936 C   0  0  0  0  0  0  0  0  0  0  0  0
    0.4869    1.0639   -2.3118 O   0  0  0  0  0  0  0  0  0  0  0  0
    1.6796   -4.4829   -1.2001 C   0  0  0  0  0  0  0  0  0  0  0  0
    5.4782    0.7096   -0.2147 C   0  0  0  0  0  0  0  0  0  0  0  0
    6.8865    0.4147   -0.4843 O   0  0  0  0  0  0  0  0  0  0  0  0
    7.5957   -0.2757    0.4652 C   0  0  0  0  0  0  0  0  0  0  0  0
    9.0826   -0.2892    0.1842 C   0  0  0  0  0  0  0  0  0  0  0  0
    7.1079   -0.7774    1.4701 O   0  0  0  0  0  0  0  0  0  0  0  0
    2.7860   -1.3964    0.3902 C   0  0  2  0  0  0  0  0  0  0  0  0
    2.4345    0.0800    0.1142 C   0  0  2  0  0  0  0  0  0  0  0  0
    4.0701   -1.9576   -0.2683 C   0  0  2  0  0  0  0  0  0  0  0  0
    1.6977   -2.2788   -0.1039 N   0  0  0  0  0  0  0  0  0  0  0  0
    3.0050    0.4934   -1.2570 C   0  0  1  0  0  0  0  0  0  0  0  0
    4.6230   -1.2705   -1.3878 O   0  0  0  0  0  0  0  0  0  0  0  0
    3.6819   -3.2602   -0.6885 O   0  0  0  0  0  0  0  0  0  0  0  0
    2.3351   -3.2722   -0.6414 C   0  0  0  0  0  0  0  0  0  0  0  0
    4.5258    0.1585   -1.3239 C   0  0  2  0  0  0  0  0  0  0  0  0
    2.5265    2.1122    4.2150 H   0  0  0  0  0  0  0  0  0  0  0  0
    4.0771    1.7499    3.4576 H   0  0  0  0  0  0  0  0  0  0  0  0
    3.0624    3.1043    2.8584 H   0  0  0  0  0  0  0  0  0  0  0  0
   -0.4648   -1.0754   -3.6505 H   0  0  0  0  0  0  0  0  0  0  0  0
    0.5341   -0.1872   -4.8236 H   0  0  0  0  0  0  0  0  0  0  0  0
    1.1475   -1.6638   -4.0550 H   0  0  0  0  0  0  0  0  0  0  0  0
    1.1829   -5.0289   -0.3938 H   0  0  0  0  0  0  0  0  0  0  0  0
    0.9394   -4.1892   -1.9482 H   0  0  0  0  0  0  0  0  0  0  0  0
    2.4170   -5.1397   -1.6713 H   0  0  0  0  0  0  0  0  0  0  0  0
    5.4045    1.7995   -0.1763 H   0  0  0  0  0  0  0  0  0  0  0  0
    5.2165    0.3237    0.7778 H   0  0  0  0  0  0  0  0  0  0  0  0
    9.5908    0.4297    0.8405 H   0  0  0  0  0  0  0  0  0  0  0  0
    9.4900   -1.2892    0.3696 H   0  0  0  0  0  0  0  0  0  0  0  0
    9.2906   -0.0308   -0.8565 H   0  0  0  0  0  0  0  0  0  0  0  0
    2.8523   -1.5621    1.4713 H   0  0  0  0  0  0  0  0  0  0  0  0
    1.3453    0.2095    0.1229 H   0  0  0  0  0  0  0  0  0  0  0  0
    4.8599   -2.0707    0.4767 H   0  0  0  0  0  0  0  0  0  0  0  0
    2.8454    1.5688   -1.4379 H   0  0  0  0  0  0  0  0  0  0  0  0
    4.9010    0.5208   -2.2834 H   0  0  0  0  0  0  0  0  0  0  0  0
  1  2  1  0  0  0  0
  2  3  1  0  0  0  0
  2  4  2  0  0  0  0
  3 24  1  0  0  0  0
  3 25  1  0  0  0  0
  3 26  1  0  0  0  0
  5  6  1  0  0  0  0
  6  7  1  0  0  0  0
  6  8  2  0  0  0  0
  7 27  1  0  0  0  0
  7 28  1  0  0  0  0
  7 29  1  0  0  0  0
  9 22  1  0  0  0  0
  9 30  1  0  0  0  0
  9 31  1  0  0  0  0
  9 32  1  0  0  0  0
 10 11  1  0  0  0  0
 10 33  1  0  0  0  0
 10 34  1  0  0  0  0
 11 12  1  0  0  0  0
 12 13  1  0  0  0  0
 12 14  2  0  0  0  0
 13 35  1  0  0  0  0
 13 36  1  0  0  0  0
 13 37  1  0  0  0  0
 15 16  1  0  0  0  0
 15 17  1  0  0  0  0
 15 18  1  0  0  0  0
 15 38  1  1  0  0  0
 16 19  1  0  0  0  0
 16 39  1  6  0  0  0
 16  1  1  0  0  0  0
 17 20  1  0  0  0  0
 17 21  1  0  0  0  0
 17 40  1  1  0  0  0
 18 22  2  0  0  0  0
 19 23  1  0  0  0  0
 19 41  1  6  0  0  0
 19  5  1  0  0  0  0
 20 23  1  0  0  0  0
 21 22  1  0  0  0  0
 23 42  1  6  0  0  0
 23 10  1  0  0  0  0
M  END
>  <Mol_ID>
6840

>  <Formula>
C14H19NO8

>  <MolWeight>
329.30256

>  <Cat>
E1275

>  <Name>
FR054

>  <Target>
Others

>  <Form>
Free base

>  <CAS>
35954-65-5

>  <URL>
http://www.selleckchem.com/products/fr054.html

$$$$
