Fraxin
 OpenBabel08302521263D

 44 46  0  0  0  0  0  0  0  0999 V2000
    0.3536    3.7631   -0.6944 C   0  0  0  0  0  0  0  0  0  0  0  0
   -0.4646    4.6198    0.0563 C   0  0  0  0  0  0  0  0  0  0  0  0
    1.7025    4.0482   -0.9213 C   0  0  0  0  0  0  0  0  0  0  0  0
   -0.1861    2.5883   -1.2632 O   0  0  0  0  0  0  0  0  0  0  0  0
   -1.8118    4.4766    0.2795 O   0  0  0  0  0  0  0  0  0  0  0  0
    0.1194    5.7937    0.5803 C   0  0  0  0  0  0  0  0  0  0  0  0
    2.2604    5.2027   -0.3708 C   0  0  0  0  0  0  0  0  0  0  0  0
    2.4916    3.1710   -1.7731 C   0  0  0  0  0  0  0  0  0  0  0  0
    0.5583    1.6770   -1.9918 C   0  0  0  0  0  0  0  0  0  0  0  0
   -2.4351    3.1967    0.1058 C   0  0  2  0  0  0  0  0  0  0  0  0
    1.4805    6.0793    0.3846 C   0  0  0  0  0  0  0  0  0  0  0  0
   -0.6983    6.6777    1.2370 O   0  0  0  0  0  0  0  0  0  0  0  0
    1.9382    2.0682   -2.2957 C   0  0  0  0  0  0  0  0  0  0  0  0
   -2.8339    3.0061   -1.2615 O   0  0  0  0  0  0  0  0  0  0  0  0
   -3.6706    3.1487    1.0390 C   0  0  1  0  0  0  0  0  0  0  0  0
    2.1462    7.2142    0.7681 O   0  0  0  0  0  0  0  0  0  0  0  0
   -3.4332    1.7162   -1.4806 C   0  0  1  0  0  0  0  0  0  0  0  0
   -4.4883    1.8697    0.7851 C   0  0  2  0  0  0  0  0  0  0  0  0
   -3.2874    3.1992    2.4260 O   0  0  0  0  0  0  0  0  0  0  0  0
    1.8755    7.7533    2.0555 C   0  0  0  0  0  0  0  0  0  0  0  0
   -4.7533    1.6384   -0.7091 C   0  0  2  0  0  0  0  0  0  0  0  0
   -3.6768    1.5156   -2.9853 C   0  0  0  0  0  0  0  0  0  0  0  0
   -5.7381    1.8983    1.4926 O   0  0  0  0  0  0  0  0  0  0  0  0
   -5.3959    0.3833   -0.9408 O   0  0  0  0  0  0  0  0  0  0  0  0
   -2.4554    1.5793   -3.7172 O   0  0  0  0  0  0  0  0  0  0  0  0
    0.1047    0.6006   -2.3551 O   0  0  0  0  0  0  0  0  0  0  0  0
    3.3094    5.4370   -0.5323 H   0  0  0  0  0  0  0  0  0  0  0  0
    3.5149    3.4365   -2.0052 H   0  0  0  0  0  0  0  0  0  0  0  0
   -1.7523    2.4025    0.4344 H   0  0  0  0  0  0  0  0  0  0  0  0
   -0.4329    7.5668    0.9496 H   0  0  0  0  0  0  0  0  0  0  0  0
    2.4822    1.4045   -2.9553 H   0  0  0  0  0  0  0  0  0  0  0  0
   -4.3017    4.0291    0.8715 H   0  0  0  0  0  0  0  0  0  0  0  0
   -2.7313    0.9399   -1.1453 H   0  0  0  0  0  0  0  0  0  0  0  0
   -3.9528    1.0072    1.2026 H   0  0  0  0  0  0  0  0  0  0  0  0
   -2.6335    2.5012    2.5991 H   0  0  0  0  0  0  0  0  0  0  0  0
    1.0763    8.4971    1.9914 H   0  0  0  0  0  0  0  0  0  0  0  0
    1.6497    6.9888    2.8046 H   0  0  0  0  0  0  0  0  0  0  0  0
    2.7749    8.2886    2.3814 H   0  0  0  0  0  0  0  0  0  0  0  0
   -5.4402    2.4158   -1.0675 H   0  0  0  0  0  0  0  0  0  0  0  0
   -4.1303    0.5403   -3.1876 H   0  0  0  0  0  0  0  0  0  0  0  0
   -4.3290    2.2982   -3.3840 H   0  0  0  0  0  0  0  0  0  0  0  0
   -6.2038    2.7222    1.2593 H   0  0  0  0  0  0  0  0  0  0  0  0
   -5.2908   -0.1780   -0.1520 H   0  0  0  0  0  0  0  0  0  0  0  0
   -1.9744    2.3523   -3.3733 H   0  0  0  0  0  0  0  0  0  0  0  0
  1  2  2  0  0  0  0
  1  3  1  0  0  0  0
  1  4  1  0  0  0  0
  2  5  1  0  0  0  0
  2  6  1  0  0  0  0
  3  7  2  0  0  0  0
  3  8  1  0  0  0  0
  4  9  1  0  0  0  0
  6 11  2  0  0  0  0
  6 12  1  0  0  0  0
  7 11  1  0  0  0  0
  7 27  1  0  0  0  0
  8 13  2  0  0  0  0
  8 28  1  0  0  0  0
  9 13  1  0  0  0  0
  9 26  2  0  0  0  0
 10 14  1  0  0  0  0
 10 15  1  0  0  0  0
 10 29  1  1  0  0  0
 10  5  1  0  0  0  0
 11 16  1  0  0  0  0
 12 30  1  0  0  0  0
 13 31  1  0  0  0  0
 14 17  1  0  0  0  0
 15 18  1  0  0  0  0
 15 19  1  0  0  0  0
 15 32  1  6  0  0  0
 16 20  1  0  0  0  0
 17 21  1  0  0  0  0
 17 22  1  0  0  0  0
 17 33  1  1  0  0  0
 18 23  1  0  0  0  0
 18 21  1  0  0  0  0
 18 34  1  1  0  0  0
 19 35  1  0  0  0  0
 20 36  1  0  0  0  0
 20 37  1  0  0  0  0
 20 38  1  0  0  0  0
 21 24  1  0  0  0  0
 21 39  1  6  0  0  0
 22 25  1  0  0  0  0
 22 40  1  0  0  0  0
 22 41  1  0  0  0  0
 23 42  1  0  0  0  0
 24 43  1  0  0  0  0
 25 44  1  0  0  0  0
M  END
>  <Mol_ID>
5314

>  <Formula>
C16H18O10

>  <MolWeight>
370.30812

>  <Cat>
S9296

>  <Name>
Fraxin

>  <Synonyms>
Fraxetin-8-O-glucoside

>  <Target>
Immunology & Inflammation related

>  <Form>
Free Base

>  <CAS>
524-30-1

>  <URL>
https://www.selleckchem.com/products/fraxin.html

$$$$
