Fraxinol
 OpenBabel08302521463D

 26 27  0  0  0  0  0  0  0  0999 V2000
    0.8623   -0.0984   -0.0649 O   0  0  0  0  0  0  0  0  0  0  0  0
   -0.0124    1.0185   -0.0409 C   0  0  0  0  0  0  0  0  0  0  0  0
    2.1847    2.5092   -0.0277 O   0  0  0  0  0  0  0  0  0  0  0  0
    5.0416    2.5445    0.1613 O   0  0  0  0  0  0  0  0  0  0  0  0
    4.7469    3.6051   -0.7445 C   0  0  0  0  0  0  0  0  0  0  0  0
    5.2932   -4.4538    0.0083 O   0  0  0  0  0  0  0  0  0  0  0  0
    2.9800   -1.0867   -0.0075 C   0  0  0  0  0  0  0  0  0  0  0  0
    4.3722   -1.0058    0.0522 C   0  0  0  0  0  0  0  0  0  0  0  0
    2.2216    0.1026   -0.0553 C   0  0  0  0  0  0  0  0  0  0  0  0
    2.3779   -2.4171    0.0059 C   0  0  0  0  0  0  0  0  0  0  0  0
    5.0364    0.2163    0.0869 C   0  0  0  0  0  0  0  0  0  0  0  0
    5.1717   -2.1670    0.0872 O   0  0  0  0  0  0  0  0  0  0  0  0
    2.8963    1.3403   -0.0413 C   0  0  0  0  0  0  0  0  0  0  0  0
    3.1456   -3.5108    0.0183 C   0  0  0  0  0  0  0  0  0  0  0  0
    4.3011    1.3980    0.0261 C   0  0  0  0  0  0  0  0  0  0  0  0
    4.6101   -3.4335    0.0263 C   0  0  0  0  0  0  0  0  0  0  0  0
    0.1485    1.6409    0.8448 H   0  0  0  0  0  0  0  0  0  0  0  0
    0.0589    1.5904   -0.9708 H   0  0  0  0  0  0  0  0  0  0  0  0
   -1.0342    0.6326    0.0289 H   0  0  0  0  0  0  0  0  0  0  0  0
    2.6268    3.0786    0.6230 H   0  0  0  0  0  0  0  0  0  0  0  0
    4.4623    3.2491   -1.7394 H   0  0  0  0  0  0  0  0  0  0  0  0
    3.9784    4.2606   -0.3259 H   0  0  0  0  0  0  0  0  0  0  0  0
    5.6516    4.2140   -0.8446 H   0  0  0  0  0  0  0  0  0  0  0  0
    1.2958   -2.5046    0.0111 H   0  0  0  0  0  0  0  0  0  0  0  0
    6.1200    0.2448    0.1620 H   0  0  0  0  0  0  0  0  0  0  0  0
    2.7207   -4.5077    0.0277 H   0  0  0  0  0  0  0  0  0  0  0  0
  1  2  1  0  0  0  0
  1  9  1  0  0  0  0
  2 17  1  0  0  0  0
  2 18  1  0  0  0  0
  2 19  1  0  0  0  0
  3 13  1  0  0  0  0
  3 20  1  0  0  0  0
  4  5  1  0  0  0  0
  4 15  1  0  0  0  0
  5 21  1  0  0  0  0
  5 22  1  0  0  0  0
  5 23  1  0  0  0  0
  6 16  2  0  0  0  0
  7  8  1  0  0  0  0
  7  9  2  0  0  0  0
  7 10  1  0  0  0  0
  8 11  2  0  0  0  0
  8 12  1  0  0  0  0
  9 13  1  0  0  0  0
 10 14  2  0  0  0  0
 10 24  1  0  0  0  0
 11 15  1  0  0  0  0
 11 25  1  0  0  0  0
 12 16  1  0  0  0  0
 13 15  2  0  0  0  0
 14 16  1  0  0  0  0
 14 26  1  0  0  0  0
M  END
>  <Mol_ID>
9672

>  <Formula>
C11H10O5

>  <MolWeight>
222.1941

>  <Cat>
E0659

>  <Name>
Fraxinol

>  <Synonyms>
NA

>  <Target>
tyrosinase

>  <Form>
free base

>  <CAS>
486-28-2

>  <URL>
https://www.selleckchem.com/products/fraxinol.html

$$$$
