Frentizole
 OpenBabel08302521233D

 34 36  0  0  0  0  0  0  0  0999 V2000
    0.5533   -0.2818   -0.2663 N   0  0  0  0  0  0  0  0  0  0  0  0
    0.1795   -0.4658    1.0582 C   0  0  0  0  0  0  0  0  0  0  0  0
    0.9723   -0.9898    1.8354 O   0  0  0  0  0  0  0  0  0  0  0  0
   -1.0986   -0.0657    1.3625 N   0  0  0  0  0  0  0  0  0  0  0  0
   -1.8526   -0.1279    2.5381 C   0  0  0  0  0  0  0  0  0  0  0  0
   -1.3878   -0.6329    3.7460 C   0  0  0  0  0  0  0  0  0  0  0  0
   -2.2305   -0.6314    4.8626 C   0  0  0  0  0  0  0  0  0  0  0  0
   -3.5307   -0.1355    4.7755 C   0  0  0  0  0  0  0  0  0  0  0  0
   -4.0033    0.3608    3.5661 C   0  0  0  0  0  0  0  0  0  0  0  0
   -3.1655    0.3646    2.4532 C   0  0  0  0  0  0  0  0  0  0  0  0
    0.1765    0.2432   -2.8441 S   0  0  0  0  0  0  0  0  0  0  0  0
   -0.2623    0.2980   -1.2037 C   0  0  0  0  0  0  0  0  0  0  0  0
   -1.4031    0.8713   -0.9270 N   0  0  0  0  0  0  0  0  0  0  0  0
   -2.0415    1.2399   -2.0764 C   0  0  0  0  0  0  0  0  0  0  0  0
   -1.3567    0.9624   -3.2604 C   0  0  0  0  0  0  0  0  0  0  0  0
   -3.3094    1.8344   -2.1130 C   0  0  0  0  0  0  0  0  0  0  0  0
   -3.8780    2.1309   -3.3447 C   0  0  0  0  0  0  0  0  0  0  0  0
   -3.2022    1.8526   -4.5321 C   0  0  0  0  0  0  0  0  0  0  0  0
   -1.9273    1.2610   -4.5152 C   0  0  0  0  0  0  0  0  0  0  0  0
   -3.9138    2.2230   -5.6393 O   0  0  0  0  0  0  0  0  0  0  0  0
   -3.3370    1.9805   -6.9107 C   0  0  0  0  0  0  0  0  0  0  0  0
    1.4529   -0.6475   -0.5395 H   0  0  0  0  0  0  0  0  0  0  0  0
   -1.5859    0.3744    0.5879 H   0  0  0  0  0  0  0  0  0  0  0  0
   -0.3802   -1.0219    3.8428 H   0  0  0  0  0  0  0  0  0  0  0  0
   -1.8651   -1.0189    5.8098 H   0  0  0  0  0  0  0  0  0  0  0  0
   -4.1795   -0.1341    5.6479 H   0  0  0  0  0  0  0  0  0  0  0  0
   -5.0187    0.7466    3.4835 H   0  0  0  0  0  0  0  0  0  0  0  0
   -3.5500    0.7542    1.5124 H   0  0  0  0  0  0  0  0  0  0  0  0
   -3.8356    2.0464   -1.1882 H   0  0  0  0  0  0  0  0  0  0  0  0
   -4.8668    2.5832   -3.3755 H   0  0  0  0  0  0  0  0  0  0  0  0
   -1.3832    1.0264   -5.4218 H   0  0  0  0  0  0  0  0  0  0  0  0
   -2.3371    2.4161   -6.9928 H   0  0  0  0  0  0  0  0  0  0  0  0
   -3.3268    0.9086   -7.1292 H   0  0  0  0  0  0  0  0  0  0  0  0
   -3.9729    2.4724   -7.6532 H   0  0  0  0  0  0  0  0  0  0  0  0
  1  2  1  0  0  0  0
  1 12  1  0  0  0  0
  1 22  1  0  0  0  0
  2  3  2  0  0  0  0
  2  4  1  0  0  0  0
  4  5  1  0  0  0  0
  4 23  1  0  0  0  0
  5  6  2  0  0  0  0
  5 10  1  0  0  0  0
  6  7  1  0  0  0  0
  6 24  1  0  0  0  0
  7  8  2  0  0  0  0
  7 25  1  0  0  0  0
  8  9  1  0  0  0  0
  8 26  1  0  0  0  0
  9 10  2  0  0  0  0
  9 27  1  0  0  0  0
 10 28  1  0  0  0  0
 11 12  1  0  0  0  0
 11 15  1  0  0  0  0
 12 13  2  0  0  0  0
 13 14  1  0  0  0  0
 14 15  2  0  0  0  0
 14 16  1  0  0  0  0
 15 19  1  0  0  0  0
 16 17  2  0  0  0  0
 16 29  1  0  0  0  0
 17 18  1  0  0  0  0
 17 30  1  0  0  0  0
 18 19  2  0  0  0  0
 18 20  1  0  0  0  0
 19 31  1  0  0  0  0
 20 21  1  0  0  0  0
 21 32  1  0  0  0  0
 21 33  1  0  0  0  0
 21 34  1  0  0  0  0
M  END
>  <Mol_ID>
4873

>  <Formula>
C15H13N3O2S

>  <MolWeight>
299.34762

>  <Cat>
S2418

>  <Name>
Frentizole

>  <Synonyms>
Frentizol

>  <Target>
Beta Amyloid

>  <Form>
Free Base

>  <CAS>
26130-02-9

>  <URL>
http://www.selleck.cn/products/frentizole.html

$$$$
