FT113
 OpenBabel08302521233D

 50 54  0  0  0  0  0  0  0  0999 V2000
    2.0901    1.9768   -0.8290 F   0  0  0  0  0  0  0  0  0  0  0  0
   10.5387   -8.9390   -4.4270 O   0  0  0  0  0  0  0  0  0  0  0  0
   13.8425   -8.5238   -3.7968 O   0  0  0  0  0  0  0  0  0  0  0  0
   12.4057   -3.9142    0.9131 O   0  0  0  0  0  0  0  0  0  0  0  0
    6.0191   -0.7777   -0.6679 O   0  0  0  0  0  0  0  0  0  0  0  0
   12.3984   -6.9645   -2.9270 N   0  0  0  0  0  0  0  0  0  0  0  0
   11.9675   -4.7051   -1.2091 N   0  0  0  0  0  0  0  0  0  0  0  0
    5.8109   -1.2328    1.5443 N   0  0  0  0  0  0  0  0  0  0  0  0
   11.7658   -8.3433   -4.9082 C   0  0  0  0  0  0  0  0  0  0  0  0
   12.3254   -8.9160   -6.1949 C   0  0  0  0  0  0  0  0  0  0  0  0
   11.6256   -7.5921   -6.2114 C   0  0  0  0  0  0  0  0  0  0  0  0
   12.7538   -7.9537   -3.8354 C   0  0  0  0  0  0  0  0  0  0  0  0
   11.0662   -6.3811   -2.8470 C   0  0  0  0  0  0  0  0  0  0  0  0
   13.2305   -6.7716   -1.7334 C   0  0  0  0  0  0  0  0  0  0  0  0
   11.1081   -4.9213   -2.3845 C   0  0  0  0  0  0  0  0  0  0  0  0
   13.3063   -5.2957   -1.3265 C   0  0  0  0  0  0  0  0  0  0  0  0
   11.6536   -3.9825   -0.0574 C   0  0  0  0  0  0  0  0  0  0  0  0
   10.3426   -3.2868    0.0457 C   0  0  0  0  0  0  0  0  0  0  0  0
    9.8028   -2.5560   -1.0171 C   0  0  0  0  0  0  0  0  0  0  0  0
    9.6483   -3.3461    1.2582 C   0  0  0  0  0  0  0  0  0  0  0  0
    7.8173   -2.0627    0.2905 C   0  0  0  0  0  0  0  0  0  0  0  0
    8.5280   -1.9976   -0.9143 C   0  0  0  0  0  0  0  0  0  0  0  0
    8.3971   -2.7318    1.3799 C   0  0  0  0  0  0  0  0  0  0  0  0
    6.5313   -1.3913    0.4504 C   0  0  0  0  0  0  0  0  0  0  0  0
    4.8999   -0.1490   -0.2119 C   0  0  0  0  0  0  0  0  0  0  0  0
    4.7807   -0.4263    1.1401 C   0  0  0  0  0  0  0  0  0  0  0  0
    4.0274    0.6457   -0.9415 C   0  0  0  0  0  0  0  0  0  0  0  0
    3.7146    0.1275    1.8582 C   0  0  0  0  0  0  0  0  0  0  0  0
    2.9748    1.1878   -0.2044 C   0  0  0  0  0  0  0  0  0  0  0  0
    2.8125    0.9442    1.1624 C   0  0  0  0  0  0  0  0  0  0  0  0
   10.1336   -9.5151   -5.0967 H   0  0  0  0  0  0  0  0  0  0  0  0
   13.4038   -8.9100   -6.3271 H   0  0  0  0  0  0  0  0  0  0  0  0
   11.8447   -9.7874   -6.6182 H   0  0  0  0  0  0  0  0  0  0  0  0
   10.6550   -7.5586   -6.6945 H   0  0  0  0  0  0  0  0  0  0  0  0
   12.2230   -6.7017   -6.3642 H   0  0  0  0  0  0  0  0  0  0  0  0
   10.5513   -6.4263   -3.8095 H   0  0  0  0  0  0  0  0  0  0  0  0
   10.4927   -6.9801   -2.1296 H   0  0  0  0  0  0  0  0  0  0  0  0
   12.7668   -7.3552   -0.9276 H   0  0  0  0  0  0  0  0  0  0  0  0
   14.2387   -7.1676   -1.8880 H   0  0  0  0  0  0  0  0  0  0  0  0
   11.5172   -4.2908   -3.1841 H   0  0  0  0  0  0  0  0  0  0  0  0
   10.0767   -4.6253   -2.2034 H   0  0  0  0  0  0  0  0  0  0  0  0
   13.8370   -4.7247   -2.0983 H   0  0  0  0  0  0  0  0  0  0  0  0
   13.8737   -5.1957   -0.3960 H   0  0  0  0  0  0  0  0  0  0  0  0
   10.3581   -2.4234   -1.9413 H   0  0  0  0  0  0  0  0  0  0  0  0
   10.0829   -3.8602    2.1138 H   0  0  0  0  0  0  0  0  0  0  0  0
    8.1077   -1.4910   -1.7809 H   0  0  0  0  0  0  0  0  0  0  0  0
    7.8779   -2.7703    2.3368 H   0  0  0  0  0  0  0  0  0  0  0  0
    4.1574    0.8413   -1.9967 H   0  0  0  0  0  0  0  0  0  0  0  0
    3.6086   -0.0627    2.9199 H   0  0  0  0  0  0  0  0  0  0  0  0
    1.9778    1.4001    1.6871 H   0  0  0  0  0  0  0  0  0  0  0  0
  1 29  1  0  0  0  0
  2  9  1  0  0  0  0
  2 31  1  0  0  0  0
  3 12  2  0  0  0  0
  4 17  2  0  0  0  0
  5 24  1  0  0  0  0
  5 25  1  0  0  0  0
  6 12  1  0  0  0  0
  6 13  1  0  0  0  0
  6 14  1  0  0  0  0
  7 15  1  0  0  0  0
  7 16  1  0  0  0  0
  7 17  1  0  0  0  0
  8 24  2  0  0  0  0
  8 26  1  0  0  0  0
  9 10  1  0  0  0  0
  9 11  1  0  0  0  0
  9 12  1  0  0  0  0
 10 11  1  0  0  0  0
 10 32  1  0  0  0  0
 10 33  1  0  0  0  0
 11 34  1  0  0  0  0
 11 35  1  0  0  0  0
 13 15  1  0  0  0  0
 13 36  1  0  0  0  0
 13 37  1  0  0  0  0
 14 16  1  0  0  0  0
 14 38  1  0  0  0  0
 14 39  1  0  0  0  0
 15 40  1  0  0  0  0
 15 41  1  0  0  0  0
 16 42  1  0  0  0  0
 16 43  1  0  0  0  0
 17 18  1  0  0  0  0
 18 19  2  0  0  0  0
 18 20  1  0  0  0  0
 19 22  1  0  0  0  0
 19 44  1  0  0  0  0
 20 23  2  0  0  0  0
 20 45  1  0  0  0  0
 21 22  2  0  0  0  0
 21 23  1  0  0  0  0
 21 24  1  0  0  0  0
 22 46  1  0  0  0  0
 23 47  1  0  0  0  0
 25 26  2  0  0  0  0
 25 27  1  0  0  0  0
 26 28  1  0  0  0  0
 27 29  2  0  0  0  0
 27 48  1  0  0  0  0
 28 30  2  0  0  0  0
 28 49  1  0  0  0  0
 29 30  1  0  0  0  0
 30 50  1  0  0  0  0
M  END
>  <Mol_ID>
4840

>  <Formula>
C22H20FN3O4

>  <MolWeight>
409.4103032

>  <Cat>
S6666

>  <Name>
FT113

>  <Synonyms>
N/A

>  <Target>
Fatty Acid Synthase

>  <Form>
Free Base

>  <CAS>
1630808-89-7

>  <URL>
http://www.selleck.cn/products/ft113.html

$$$$
