Ftaxilide
 OpenBabel08302520403D

 35 36  0  0  0  0  0  0  0  0999 V2000
    1.3703   -0.0307    0.5461 C   0  0  0  0  0  0  0  0  0  0  0  0
    0.8631    1.2301    0.9209 C   0  0  0  0  0  0  0  0  0  0  0  0
    2.7958   -0.4476    0.6633 C   0  0  0  0  0  0  0  0  0  0  0  0
    0.4884   -0.9859    0.0106 C   0  0  0  0  0  0  0  0  0  0  0  0
   -0.4933    1.5294    0.6954 C   0  0  0  0  0  0  0  0  0  0  0  0
    1.6814    2.1944    1.6917 C   0  0  0  0  0  0  0  0  0  0  0  0
    3.7485    0.5065    0.3342 N   0  0  0  0  0  0  0  0  0  0  0  0
    3.0396   -1.6231    0.9270 O   0  0  0  0  0  0  0  0  0  0  0  0
   -0.8581   -0.6842   -0.1993 C   0  0  0  0  0  0  0  0  0  0  0  0
   -1.3461    0.5779    0.1215 C   0  0  0  0  0  0  0  0  0  0  0  0
    1.5165    3.4752    1.2813 O   0  0  0  0  0  0  0  0  0  0  0  0
    2.4198    1.8834    2.6004 O   0  0  0  0  0  0  0  0  0  0  0  0
    5.1415    0.2962    0.4418 C   0  0  0  0  0  0  0  0  0  0  0  0
    5.9595    0.5431   -0.6854 C   0  0  0  0  0  0  0  0  0  0  0  0
    5.7280   -0.0256    1.6827 C   0  0  0  0  0  0  0  0  0  0  0  0
    7.3559    0.4354   -0.5586 C   0  0  0  0  0  0  0  0  0  0  0  0
    5.4184    0.7824   -2.0700 C   0  0  0  0  0  0  0  0  0  0  0  0
    7.1307   -0.0797    1.7795 C   0  0  0  0  0  0  0  0  0  0  0  0
    4.9645   -0.2276    2.9640 C   0  0  0  0  0  0  0  0  0  0  0  0
    7.9382    0.1433    0.6706 C   0  0  0  0  0  0  0  0  0  0  0  0
    0.8520   -1.9838   -0.2363 H   0  0  0  0  0  0  0  0  0  0  0  0
   -0.9197    2.4759    1.0099 H   0  0  0  0  0  0  0  0  0  0  0  0
    3.4730    1.3617   -0.1236 H   0  0  0  0  0  0  0  0  0  0  0  0
   -1.5281   -1.4431   -0.5985 H   0  0  0  0  0  0  0  0  0  0  0  0
   -2.3941    0.8129   -0.0405 H   0  0  0  0  0  0  0  0  0  0  0  0
    0.9062    3.6287    0.5359 H   0  0  0  0  0  0  0  0  0  0  0  0
    7.9985    0.5735   -1.4248 H   0  0  0  0  0  0  0  0  0  0  0  0
    5.9886    1.5745   -2.5680 H   0  0  0  0  0  0  0  0  0  0  0  0
    5.5036   -0.1357   -2.6635 H   0  0  0  0  0  0  0  0  0  0  0  0
    4.3711    1.0931   -2.0733 H   0  0  0  0  0  0  0  0  0  0  0  0
    7.5969   -0.2816    2.7417 H   0  0  0  0  0  0  0  0  0  0  0  0
    5.2056   -1.2088    3.3860 H   0  0  0  0  0  0  0  0  0  0  0  0
    5.2360    0.5507    3.6854 H   0  0  0  0  0  0  0  0  0  0  0  0
    3.8815   -0.1872    2.8569 H   0  0  0  0  0  0  0  0  0  0  0  0
    9.0193    0.0886    0.7648 H   0  0  0  0  0  0  0  0  0  0  0  0
  1  2  2  0  0  0  0
  1  3  1  0  0  0  0
  1  4  1  0  0  0  0
  2  5  1  0  0  0  0
  2  6  1  0  0  0  0
  3  7  1  0  0  0  0
  3  8  2  0  0  0  0
  4  9  2  0  0  0  0
  4 21  1  0  0  0  0
  5 10  2  0  0  0  0
  5 22  1  0  0  0  0
  6 11  1  0  0  0  0
  6 12  2  0  0  0  0
  7 13  1  0  0  0  0
  7 23  1  0  0  0  0
  9 10  1  0  0  0  0
  9 24  1  0  0  0  0
 10 25  1  0  0  0  0
 11 26  1  0  0  0  0
 13 14  2  0  0  0  0
 13 15  1  0  0  0  0
 14 16  1  0  0  0  0
 14 17  1  0  0  0  0
 15 18  2  0  0  0  0
 15 19  1  0  0  0  0
 16 20  2  0  0  0  0
 16 27  1  0  0  0  0
 17 28  1  0  0  0  0
 17 29  1  0  0  0  0
 17 30  1  0  0  0  0
 18 20  1  0  0  0  0
 18 31  1  0  0  0  0
 19 32  1  0  0  0  0
 19 33  1  0  0  0  0
 19 34  1  0  0  0  0
 20 35  1  0  0  0  0
M  END
>  <Mol_ID>
3774

>  <Formula>
C16H15NO3

>  <MolWeight>
269.2952

>  <Cat>
S6464

>  <Name>
Ftaxilide

>  <Synonyms>
N/A

>  <Target>
Bacterial

>  <Form>
Free Base

>  <CAS>
19368-18-4

>  <URL>
http://www.selleck.cn/products/ftaxilide.html

$$$$
