FTI 277 HCl.cdx
 OpenBabel08302519583D

 59 60  0  0  0  0  0  0  0  0999 V2000
    2.8098   -8.2004   -3.2332 C   0  0  0  0  0  0  0  0  0  0  0  0
    2.6100   -6.8297   -3.0190 C   0  0  0  0  0  0  0  0  0  0  0  0
    3.2950   -5.9556   -3.8455 C   0  0  0  0  0  0  0  0  0  0  0  0
    4.1335   -6.4495   -4.8541 C   0  0  0  0  0  0  0  0  0  0  0  0
    4.3277   -7.8351   -5.0764 C   0  0  0  0  0  0  0  0  0  0  0  0
    3.6253   -8.7509   -4.2683 C   0  0  0  0  0  0  0  0  0  0  0  0
    3.5493  -10.2219   -4.4531 C   0  0  0  0  0  0  0  0  0  0  0  0
    3.4834  -11.0859   -3.3386 C   0  0  0  0  0  0  0  0  0  0  0  0
    3.2338  -12.4524   -3.4818 C   0  0  0  0  0  0  0  0  0  0  0  0
    3.0969  -13.0004   -4.7525 C   0  0  0  0  0  0  0  0  0  0  0  0
    3.1909  -12.1796   -5.8711 C   0  0  0  0  0  0  0  0  0  0  0  0
    3.3942  -10.8036   -5.7218 C   0  0  0  0  0  0  0  0  0  0  0  0
    5.2698   -8.1310   -6.2084 C   0  0  0  0  0  0  0  0  0  0  0  0
    6.0639   -9.2651   -6.1924 N   0  0  0  0  0  0  0  0  0  0  0  0
    7.0453   -9.5028   -7.2685 C   0  0  1  0  0  0  0  0  0  0  0  0
    8.4521   -8.9871   -6.8985 C   0  0  0  0  0  0  0  0  0  0  0  0
    9.0876   -9.5135   -5.6062 C   0  0  0  0  0  0  0  0  0  0  0  0
    9.2247  -11.3208   -5.4006 S   0  0  0  0  0  0  0  0  0  0  0  0
    5.3598   -7.3076   -7.1193 O   0  0  0  0  0  0  0  0  0  0  0  0
    1.8191   -6.4588   -1.9278 N   0  0  0  0  0  0  0  0  0  0  0  0
    1.0915   -5.1797   -1.9315 C   0  0  0  0  0  0  0  0  0  0  0  0
   -0.2820   -5.3555   -2.6388 C   0  0  2  0  0  0  0  0  0  0  0  0
   -1.0475   -4.0269   -2.7772 C   0  0  0  0  0  0  0  0  0  0  0  0
   -1.0988   -6.3971   -1.9660 N   0  0  0  0  0  0  0  0  0  0  0  0
   -1.5787   -3.2955   -1.1937 S   0  0  0  0  0  0  0  0  0  0  0  0
    7.1423  -10.9138   -7.8632 C   0  0  0  0  0  0  0  0  0  0  0  0
    6.4306  -11.8282   -7.1553 O   0  0  0  0  0  0  0  0  0  0  0  0
    7.8439  -11.1786   -8.8347 O   0  0  0  0  0  0  0  0  0  0  0  0
    6.6762  -13.1937   -7.5082 C   0  0  0  0  0  0  0  0  0  0  0  0
   10.5356  -11.6974   -6.5957 C   0  0  0  0  0  0  0  0  0  0  0  0
    2.2376   -8.8715   -2.5920 H   0  0  0  0  0  0  0  0  0  0  0  0
    3.2135   -4.8797   -3.7364 H   0  0  0  0  0  0  0  0  0  0  0  0
    4.6437   -5.7229   -5.4881 H   0  0  0  0  0  0  0  0  0  0  0  0
    3.5814  -10.6934   -2.3274 H   0  0  0  0  0  0  0  0  0  0  0  0
    3.1303  -13.0800   -2.6002 H   0  0  0  0  0  0  0  0  0  0  0  0
    2.8959  -14.0617   -4.8667 H   0  0  0  0  0  0  0  0  0  0  0  0
    3.0843  -12.6036   -6.8679 H   0  0  0  0  0  0  0  0  0  0  0  0
    3.4069  -10.1885   -6.6191 H   0  0  0  0  0  0  0  0  0  0  0  0
    5.9717   -9.9635   -5.4623 H   0  0  0  0  0  0  0  0  0  0  0  0
    6.7090   -8.9079   -8.1294 H   0  0  0  0  0  0  0  0  0  0  0  0
    9.1417   -9.1688   -7.7327 H   0  0  0  0  0  0  0  0  0  0  0  0
    8.3948   -7.8941   -6.8009 H   0  0  0  0  0  0  0  0  0  0  0  0
   10.0912   -9.0861   -5.4982 H   0  0  0  0  0  0  0  0  0  0  0  0
    8.5068   -9.1492   -4.7528 H   0  0  0  0  0  0  0  0  0  0  0  0
    2.3436   -6.5899   -1.0630 H   0  0  0  0  0  0  0  0  0  0  0  0
    0.9294   -4.8997   -0.8833 H   0  0  0  0  0  0  0  0  0  0  0  0
    1.6666   -4.3632   -2.3766 H   0  0  0  0  0  0  0  0  0  0  0  0
   -0.0941   -5.7218   -3.6561 H   0  0  0  0  0  0  0  0  0  0  0  0
   -0.4224   -3.2934   -3.2970 H   0  0  0  0  0  0  0  0  0  0  0  0
   -1.9447   -4.1791   -3.3881 H   0  0  0  0  0  0  0  0  0  0  0  0
   -0.4992   -7.2295   -1.9209 H   0  0  0  0  0  0  0  0  0  0  0  0
   -1.2257   -6.1294   -0.9901 H   0  0  0  0  0  0  0  0  0  0  0  0
   -2.4856   -4.2422   -0.9061 H   0  0  0  0  0  0  0  0  0  0  0  0
    5.8369  -13.5684   -8.0995 H   0  0  0  0  0  0  0  0  0  0  0  0
    7.6107  -13.3426   -8.0604 H   0  0  0  0  0  0  0  0  0  0  0  0
    6.7454  -13.7721   -6.5830 H   0  0  0  0  0  0  0  0  0  0  0  0
   10.3287  -11.2615   -7.5747 H   0  0  0  0  0  0  0  0  0  0  0  0
   11.4992  -11.3372   -6.2266 H   0  0  0  0  0  0  0  0  0  0  0  0
   10.6005  -12.7837   -6.7136 H   0  0  0  0  0  0  0  0  0  0  0  0
  1  2  2  0  0  0  0
  1 31  1  0  0  0  0
  2  3  1  0  0  0  0
  2 20  1  0  0  0  0
  3  4  2  0  0  0  0
  3 32  1  0  0  0  0
  4  5  1  0  0  0  0
  4 33  1  0  0  0  0
  5  6  2  0  0  0  0
  5 13  1  0  0  0  0
  6  1  1  0  0  0  0
  6  7  1  0  0  0  0
  7  8  2  0  0  0  0
  8  9  1  0  0  0  0
  8 34  1  0  0  0  0
  9 10  2  0  0  0  0
  9 35  1  0  0  0  0
 10 11  1  0  0  0  0
 10 36  1  0  0  0  0
 11 12  2  0  0  0  0
 11 37  1  0  0  0  0
 12  7  1  0  0  0  0
 12 38  1  0  0  0  0
 13 14  1  0  0  0  0
 13 19  2  0  0  0  0
 14 15  1  0  0  0  0
 14 39  1  0  0  0  0
 15 16  1  0  0  0  0
 15 26  1  0  0  0  0
 15 40  1  6  0  0  0
 16 17  1  0  0  0  0
 16 41  1  0  0  0  0
 16 42  1  0  0  0  0
 17 18  1  0  0  0  0
 17 43  1  0  0  0  0
 17 44  1  0  0  0  0
 18 30  1  0  0  0  0
 20 21  1  0  0  0  0
 20 45  1  0  0  0  0
 21 46  1  0  0  0  0
 21 47  1  0  0  0  0
 22 24  1  0  0  0  0
 22 48  1  6  0  0  0
 22 23  1  0  0  0  0
 22 21  1  0  0  0  0
 23 25  1  0  0  0  0
 23 49  1  0  0  0  0
 23 50  1  0  0  0  0
 24 51  1  0  0  0  0
 24 52  1  0  0  0  0
 25 53  1  0  0  0  0
 26 27  1  0  0  0  0
 26 28  2  0  0  0  0
 27 29  1  0  0  0  0
 29 54  1  0  0  0  0
 29 55  1  0  0  0  0
 29 56  1  0  0  0  0
 30 57  1  0  0  0  0
 30 58  1  0  0  0  0
 30 59  1  0  0  0  0
M  END
>  <Mol_ID>
2535

>  <Formula>
C22H30ClN3O3S2

>  <MolWeight>
484.0749

>  <Cat>
S7465

>  <Name>
FTI 277 HCl

>  <Synonyms>
N/A

>  <Target>
Anti-infection,Apoptosis related,FTase,Transferase

>  <Form>
hydrochloride salt

>  <CAS>
180977-34-8

>  <URL>
http://selleckchem.com/products/fti-277-hcl.html

$$$$
