Ftorafur.cdx
 OpenBabel08302519513D

 23 24  0  0  0  0  0  0  0  0999 V2000
    2.2666   -3.3882   -1.0899 N   0  0  0  0  0  0  0  0  0  0  0  0
    1.0572   -2.7368   -1.0644 C   0  0  0  0  0  0  0  0  0  0  0  0
    0.0324   -3.3928   -0.3861 N   0  0  0  0  0  0  0  0  0  0  0  0
    0.2182   -4.6531    0.1563 C   0  0  0  0  0  0  0  0  0  0  0  0
    1.3912   -5.2837    0.0875 C   0  0  0  0  0  0  0  0  0  0  0  0
    2.5336   -4.6307   -0.5756 C   0  0  0  0  0  0  0  0  0  0  0  0
    3.6358   -5.1578   -0.6706 O   0  0  0  0  0  0  0  0  0  0  0  0
    1.5838   -6.5076    0.6090 F   0  0  0  0  0  0  0  0  0  0  0  0
    0.9294   -1.6500   -1.6229 O   0  0  0  0  0  0  0  0  0  0  0  0
   -1.2546   -2.7047   -0.2927 C   0  0  2  0  0  0  0  0  0  0  0  0
   -1.9438   -3.1200    0.8989 O   0  0  0  0  0  0  0  0  0  0  0  0
   -3.2017   -3.6950    0.5326 C   0  0  0  0  0  0  0  0  0  0  0  0
   -3.1249   -4.0302   -0.9391 C   0  0  0  0  0  0  0  0  0  0  0  0
   -2.1820   -2.9801   -1.4717 C   0  0  0  0  0  0  0  0  0  0  0  0
    3.0248   -2.9180   -1.5601 H   0  0  0  0  0  0  0  0  0  0  0  0
   -0.6223   -5.1250    0.6530 H   0  0  0  0  0  0  0  0  0  0  0  0
   -1.0685   -1.6274   -0.2097 H   0  0  0  0  0  0  0  0  0  0  0  0
   -3.9839   -2.9571    0.7377 H   0  0  0  0  0  0  0  0  0  0  0  0
   -3.3868   -4.5793    1.1495 H   0  0  0  0  0  0  0  0  0  0  0  0
   -4.1062   -4.0197   -1.4223 H   0  0  0  0  0  0  0  0  0  0  0  0
   -2.6908   -5.0265   -1.0773 H   0  0  0  0  0  0  0  0  0  0  0  0
   -2.7551   -2.0732   -1.7019 H   0  0  0  0  0  0  0  0  0  0  0  0
   -1.6677   -3.2885   -2.3869 H   0  0  0  0  0  0  0  0  0  0  0  0
  1  2  1  0  0  0  0
  1 15  1  0  0  0  0
  2  3  1  0  0  0  0
  2  9  2  0  0  0  0
  3  4  1  0  0  0  0
  4  5  2  0  0  0  0
  4 16  1  0  0  0  0
  5  6  1  0  0  0  0
  5  8  1  0  0  0  0
  6  1  1  0  0  0  0
  6  7  2  0  0  0  0
 10 11  1  0  0  0  0
 10  3  1  0  0  0  0
 10 17  1  1  0  0  0
 11 12  1  0  0  0  0
 12 13  1  0  0  0  0
 12 18  1  0  0  0  0
 12 19  1  0  0  0  0
 13 14  1  0  0  0  0
 13 20  1  0  0  0  0
 13 21  1  0  0  0  0
 14 10  1  0  0  0  0
 14 22  1  0  0  0  0
 14 23  1  0  0  0  0
M  END
>  <Mol_ID>
196

>  <Formula>
C8H9FN2O3

>  <MolWeight>
200.1670632

>  <Cat>
S1300

>  <Name>
Tegafur (FT-207)

>  <Synonyms>
NSC 148958,Fluorafur,FT-207

>  <Target>
DNA/RNA Synthesis

>  <Form>
free base

>  <CAS>
17902-23-7

>  <URL>
http://selleckchem.com/products/Ftorafur.html

$$$$
