fty720.cdx
 OpenBabel08302521393D

 55 55  0  0  0  0  0  0  0  0999 V2000
    1.4377   -0.4468    0.3589 C   0  0  0  0  0  0  0  0  0  0  0  0
    0.5671   -1.5036    0.0803 C   0  0  0  0  0  0  0  0  0  0  0  0
   -0.8236   -1.2779   -0.0247 C   0  0  0  0  0  0  0  0  0  0  0  0
   -1.3417    0.0099    0.1189 C   0  0  0  0  0  0  0  0  0  0  0  0
   -0.4683    1.0586    0.4204 C   0  0  0  0  0  0  0  0  0  0  0  0
    0.8957    0.8250    0.5940 C   0  0  0  0  0  0  0  0  0  0  0  0
   -2.8167    0.2870   -0.0542 C   0  0  0  0  0  0  0  0  0  0  0  0
   -3.7249   -0.4488    0.9395 C   0  0  0  0  0  0  0  0  0  0  0  0
   -3.4600   -0.1641    2.4236 C   0  0  0  0  0  0  0  0  0  0  0  0
   -3.6507    1.3021    2.8168 C   0  0  0  0  0  0  0  0  0  0  0  0
   -3.3892    1.5143    4.3138 C   0  0  0  0  0  0  0  0  0  0  0  0
   -3.5729    2.9806    4.7092 C   0  0  0  0  0  0  0  0  0  0  0  0
   -3.3279    3.2066    6.2022 C   0  0  0  0  0  0  0  0  0  0  0  0
   -3.5162    4.6701    6.5744 C   0  0  0  0  0  0  0  0  0  0  0  0
    2.9459   -0.6165    0.2994 C   0  0  0  0  0  0  0  0  0  0  0  0
    3.4014   -0.8663   -1.1538 C   0  0  0  0  0  0  0  0  0  0  0  0
    4.9408   -0.9260   -1.4133 C   0  0  0  0  0  0  0  0  0  0  0  0
    5.2022   -1.2166   -2.9248 C   0  0  0  0  0  0  0  0  0  0  0  0
    4.7260   -0.1403   -3.7440 O   0  0  0  0  0  0  0  0  0  0  0  0
    5.5137    0.4136   -1.1088 N   0  0  0  0  0  0  0  0  0  0  0  0
    5.6388   -1.9937   -0.5345 C   0  0  0  0  0  0  0  0  0  0  0  0
    7.0218   -2.1323   -0.8703 O   0  0  0  0  0  0  0  0  0  0  0  0
    0.9505   -2.5037   -0.0955 H   0  0  0  0  0  0  0  0  0  0  0  0
   -1.4709   -2.1153   -0.2581 H   0  0  0  0  0  0  0  0  0  0  0  0
   -0.8376    2.0795    0.5007 H   0  0  0  0  0  0  0  0  0  0  0  0
    1.5390    1.6504    0.8868 H   0  0  0  0  0  0  0  0  0  0  0  0
   -3.0076    1.3660    0.0026 H   0  0  0  0  0  0  0  0  0  0  0  0
   -3.0983   -0.0007   -1.0757 H   0  0  0  0  0  0  0  0  0  0  0  0
   -4.7660   -0.1915    0.7094 H   0  0  0  0  0  0  0  0  0  0  0  0
   -3.6346   -1.5297    0.7778 H   0  0  0  0  0  0  0  0  0  0  0  0
   -4.1522   -0.7811    3.0116 H   0  0  0  0  0  0  0  0  0  0  0  0
   -2.4507   -0.4943    2.6948 H   0  0  0  0  0  0  0  0  0  0  0  0
   -2.9690    1.9395    2.2440 H   0  0  0  0  0  0  0  0  0  0  0  0
   -4.6723    1.6174    2.5726 H   0  0  0  0  0  0  0  0  0  0  0  0
   -4.0720    0.8858    4.8974 H   0  0  0  0  0  0  0  0  0  0  0  0
   -2.3683    1.1948    4.5539 H   0  0  0  0  0  0  0  0  0  0  0  0
   -2.8840    3.6059    4.1282 H   0  0  0  0  0  0  0  0  0  0  0  0
   -4.5909    3.3016    4.4573 H   0  0  0  0  0  0  0  0  0  0  0  0
   -4.0220    2.5951    6.7906 H   0  0  0  0  0  0  0  0  0  0  0  0
   -2.3121    2.8935    6.4708 H   0  0  0  0  0  0  0  0  0  0  0  0
   -4.5161    5.0194    6.2971 H   0  0  0  0  0  0  0  0  0  0  0  0
   -3.3954    4.8097    7.6531 H   0  0  0  0  0  0  0  0  0  0  0  0
   -2.7800    5.3013    6.0659 H   0  0  0  0  0  0  0  0  0  0  0  0
    3.4269    0.2850    0.6930 H   0  0  0  0  0  0  0  0  0  0  0  0
    3.2384   -1.4449    0.9587 H   0  0  0  0  0  0  0  0  0  0  0  0
    2.9567   -1.8075   -1.5028 H   0  0  0  0  0  0  0  0  0  0  0  0
    2.9611   -0.0812   -1.7787 H   0  0  0  0  0  0  0  0  0  0  0  0
    6.2738   -1.3039   -3.1327 H   0  0  0  0  0  0  0  0  0  0  0  0
    4.7229   -2.1448   -3.2576 H   0  0  0  0  0  0  0  0  0  0  0  0
    3.7529   -0.1675   -3.7305 H   0  0  0  0  0  0  0  0  0  0  0  0
    6.5301    0.3617   -1.1054 H   0  0  0  0  0  0  0  0  0  0  0  0
    5.3201    0.9990   -1.9288 H   0  0  0  0  0  0  0  0  0  0  0  0
    5.5808   -1.7401    0.5290 H   0  0  0  0  0  0  0  0  0  0  0  0
    5.1774   -2.9778   -0.6683 H   0  0  0  0  0  0  0  0  0  0  0  0
    7.4468   -1.2694   -0.7383 H   0  0  0  0  0  0  0  0  0  0  0  0
  1  2  2  0  0  0  0
  1 15  1  0  0  0  0
  2  3  1  0  0  0  0
  2 23  1  0  0  0  0
  3  4  2  0  0  0  0
  3 24  1  0  0  0  0
  4  5  1  0  0  0  0
  4  7  1  0  0  0  0
  5  6  2  0  0  0  0
  5 25  1  0  0  0  0
  6  1  1  0  0  0  0
  6 26  1  0  0  0  0
  7  8  1  0  0  0  0
  7 27  1  0  0  0  0
  7 28  1  0  0  0  0
  8  9  1  0  0  0  0
  8 29  1  0  0  0  0
  8 30  1  0  0  0  0
  9 10  1  0  0  0  0
  9 31  1  0  0  0  0
  9 32  1  0  0  0  0
 10 11  1  0  0  0  0
 10 33  1  0  0  0  0
 10 34  1  0  0  0  0
 11 12  1  0  0  0  0
 11 35  1  0  0  0  0
 11 36  1  0  0  0  0
 12 13  1  0  0  0  0
 12 37  1  0  0  0  0
 12 38  1  0  0  0  0
 13 14  1  0  0  0  0
 13 39  1  0  0  0  0
 13 40  1  0  0  0  0
 14 41  1  0  0  0  0
 14 42  1  0  0  0  0
 14 43  1  0  0  0  0
 15 16  1  0  0  0  0
 15 44  1  0  0  0  0
 15 45  1  0  0  0  0
 16 17  1  0  0  0  0
 16 46  1  0  0  0  0
 16 47  1  0  0  0  0
 17 18  1  0  0  0  0
 17 20  1  0  0  0  0
 17 21  1  0  0  0  0
 18 19  1  0  0  0  0
 18 48  1  0  0  0  0
 18 49  1  0  0  0  0
 19 50  1  0  0  0  0
 20 51  1  0  0  0  0
 20 52  1  0  0  0  0
 21 22  1  0  0  0  0
 21 53  1  0  0  0  0
 21 54  1  0  0  0  0
 22 55  1  0  0  0  0
M  END
>  <Mol_ID>
795

>  <Formula>
C19H34ClNO2

>  <MolWeight>
343.93176

>  <Cat>
S5002

>  <Name>
Fingolimod (FTY720) HCl

>  <Synonyms>
Fingolimod Hydrochloride,FTY720

>  <Target>
S1P Receptor

>  <Form>
Hydrochloride

>  <CAS>
162359-56-0

>  <URL>
http://selleckchem.com/products/FTY720.html

$$$$
