Fudosteine.cdx
 OpenBabel08302521383D

 24 23  0  0  0  0  0  0  0  0999 V2000
    0.7543    0.0456   -0.1404 C   0  0  2  0  0  0  0  0  0  0  0  0
    2.2645   -0.0312    0.1053 C   0  0  0  0  0  0  0  0  0  0  0  0
    0.1573    1.3445    0.4174 C   0  0  0  0  0  0  0  0  0  0  0  0
    0.0682   -1.1235    0.4880 N   0  0  0  0  0  0  0  0  0  0  0  0
    3.1432    0.3422   -0.6524 O   0  0  0  0  0  0  0  0  0  0  0  0
    2.5888   -0.6011    1.2913 O   0  0  0  0  0  0  0  0  0  0  0  0
    0.7855    2.9147   -0.2877 S   0  0  0  0  0  0  0  0  0  0  0  0
    0.3649    2.7267   -2.0542 C   0  0  0  0  0  0  0  0  0  0  0  0
   -1.1206    2.6008   -2.3774 C   0  0  0  0  0  0  0  0  0  0  0  0
   -1.9776    3.7729   -1.9111 C   0  0  0  0  0  0  0  0  0  0  0  0
   -3.3137    3.6146   -2.3822 O   0  0  0  0  0  0  0  0  0  0  0  0
    0.5832   -0.0430   -1.2177 H   0  0  0  0  0  0  0  0  0  0  0  0
   -0.9323    1.3432    0.3041 H   0  0  0  0  0  0  0  0  0  0  0  0
    0.3529    1.4038    1.4954 H   0  0  0  0  0  0  0  0  0  0  0  0
    0.5175   -1.9761    0.1458 H   0  0  0  0  0  0  0  0  0  0  0  0
    0.2999   -1.1093    1.4875 H   0  0  0  0  0  0  0  0  0  0  0  0
    3.5689   -0.5842    1.2972 H   0  0  0  0  0  0  0  0  0  0  0  0
    0.7676    3.6071   -2.5671 H   0  0  0  0  0  0  0  0  0  0  0  0
    0.9075    1.8653   -2.4564 H   0  0  0  0  0  0  0  0  0  0  0  0
   -1.2307    2.5085   -3.4661 H   0  0  0  0  0  0  0  0  0  0  0  0
   -1.5257    1.6649   -1.9747 H   0  0  0  0  0  0  0  0  0  0  0  0
   -2.0099    3.8468   -0.8202 H   0  0  0  0  0  0  0  0  0  0  0  0
   -1.6013    4.7195   -2.3107 H   0  0  0  0  0  0  0  0  0  0  0  0
   -3.5267    2.6661   -2.3970 H   0  0  0  0  0  0  0  0  0  0  0  0
  1  2  1  0  0  0  0
  1  3  1  0  0  0  0
  1  4  1  0  0  0  0
  1 12  1  6  0  0  0
  2  5  2  0  0  0  0
  2  6  1  0  0  0  0
  3  7  1  0  0  0  0
  3 13  1  0  0  0  0
  3 14  1  0  0  0  0
  4 15  1  0  0  0  0
  4 16  1  0  0  0  0
  6 17  1  0  0  0  0
  7  8  1  0  0  0  0
  8  9  1  0  0  0  0
  8 18  1  0  0  0  0
  8 19  1  0  0  0  0
  9 10  1  0  0  0  0
  9 20  1  0  0  0  0
  9 21  1  0  0  0  0
 10 11  1  0  0  0  0
 10 22  1  0  0  0  0
 10 23  1  0  0  0  0
 11 24  1  0  0  0  0
M  END
>  <Mol_ID>
7755

>  <Formula>
C6H13NO3S

>  <MolWeight>
179.23732

>  <Cat>
S2129

>  <Name>
Fudosteine

>  <Synonyms>
N/A

>  <Target>
Others

>  <Form>
free base

>  <CAS>
13189-98-5

>  <URL>
http://selleckchem.com/products/Fudosteine.html

$$$$
