Fumalic acid.cdx
 OpenBabel08302521363D

 24 24  0  0  0  0  0  0  0  0999 V2000
    0.1212   -1.2370    0.0092 C   0  0  0  0  0  0  0  0  0  0  0  0
    0.9193   -0.0892    0.0184 C   0  0  0  0  0  0  0  0  0  0  0  0
    0.3245    1.1764    0.0203 C   0  0  0  0  0  0  0  0  0  0  0  0
   -1.0781    1.2669    0.0008 C   0  0  0  0  0  0  0  0  0  0  0  0
   -1.8917    0.1260   -0.0293 C   0  0  0  0  0  0  0  0  0  0  0  0
   -1.2724   -1.1281   -0.0078 C   0  0  0  0  0  0  0  0  0  0  0  0
    2.2763   -0.2448    0.0254 O   0  0  0  0  0  0  0  0  0  0  0  0
    0.9327    2.4037    0.0394 O   0  0  0  0  0  0  0  0  0  0  0  0
    2.3519    2.4513    0.0589 C   0  0  0  0  0  0  0  0  0  0  0  0
   -3.3631    0.1906   -0.0317 C   0  0  0  0  0  0  0  0  0  0  0  0
   -4.0869    1.1756   -0.5893 C   0  0  0  0  0  0  0  0  0  0  0  0
   -5.5628    1.1062   -0.5481 C   0  0  0  0  0  0  0  0  0  0  0  0
   -6.1355    2.1669   -1.1513 O   0  0  0  0  0  0  0  0  0  0  0  0
   -6.2024    0.2036   -0.0376 O   0  0  0  0  0  0  0  0  0  0  0  0
    0.5664   -2.2285    0.0154 H   0  0  0  0  0  0  0  0  0  0  0  0
   -1.5208    2.2598    0.0201 H   0  0  0  0  0  0  0  0  0  0  0  0
   -1.8687   -2.0387   -0.0148 H   0  0  0  0  0  0  0  0  0  0  0  0
    2.4927   -1.1911   -0.0068 H   0  0  0  0  0  0  0  0  0  0  0  0
    2.7551    1.9857    0.9636 H   0  0  0  0  0  0  0  0  0  0  0  0
    2.7755    2.0184   -0.8528 H   0  0  0  0  0  0  0  0  0  0  0  0
    2.6458    3.5057    0.0817 H   0  0  0  0  0  0  0  0  0  0  0  0
   -3.8720   -0.6511    0.4398 H   0  0  0  0  0  0  0  0  0  0  0  0
   -3.6211    2.0137   -1.0861 H   0  0  0  0  0  0  0  0  0  0  0  0
   -5.5207    2.8229   -1.5263 H   0  0  0  0  0  0  0  0  0  0  0  0
  1  2  2  0  0  0  0
  1 15  1  0  0  0  0
  2  3  1  0  0  0  0
  2  7  1  0  0  0  0
  3  4  2  0  0  0  0
  3  8  1  0  0  0  0
  4  5  1  0  0  0  0
  4 16  1  0  0  0  0
  5  6  2  0  0  0  0
  5 10  1  0  0  0  0
  6  1  1  0  0  0  0
  6 17  1  0  0  0  0
  7 18  1  0  0  0  0
  8  9  1  0  0  0  0
  9 19  1  0  0  0  0
  9 20  1  0  0  0  0
  9 21  1  0  0  0  0
 10 11  2  0  0  0  0
 10 22  1  0  0  0  0
 11 12  1  0  0  0  0
 11 23  1  0  0  0  0
 12 13  1  0  0  0  0
 12 14  2  0  0  0  0
 13 24  1  0  0  0  0
M  END
>  <Mol_ID>
685

>  <Formula>
C10H10O4

>  <MolWeight>
194.184

>  <Cat>
S2300

>  <Name>
Ferulic Acid

>  <Synonyms>
Fumalic Acid

>  <Target>
FGFR

>  <Form>
free base

>  <CAS>
1135-24-6

>  <URL>
http://selleckchem.com/products/Fumalic-acid(Ferulic-acid).html

$$$$
