Fumagillin.cdx
 OpenBabel08302519593D

 67 69  0  0  0  0  0  0  0  0999 V2000
   -2.1456    0.4827    0.0020 C   0  0  2  0  0  0  0  0  0  0  0  0
   -1.2200    1.6424    0.3388 C   0  0  0  0  0  0  0  0  0  0  0  0
    0.1195    1.4966   -0.3657 C   0  0  0  0  0  0  0  0  0  0  0  0
    0.7593    0.1556   -0.0945 C   0  0  1  0  0  0  0  0  0  0  0  0
   -0.1376   -1.0632   -0.2852 C   0  0  2  0  0  0  0  0  0  0  0  0
   -1.5133   -0.8459    0.4719 C   0  0  2  0  0  0  0  0  0  0  0  0
   -2.4202   -1.9322    0.1800 O   0  0  0  0  0  0  0  0  0  0  0  0
    0.3516   -2.4790   -0.0078 C   0  0  2  0  0  0  0  0  0  0  0  0
    0.7500   -2.7708    1.4549 C   0  0  2  0  0  0  0  0  0  0  0  0
    1.6915   -2.8135    0.3922 O   0  0  0  0  0  0  0  0  0  0  0  0
    0.1573   -3.9865    2.0780 C   0  0  0  0  0  0  0  0  0  0  0  0
    0.5737   -4.3336    3.4859 C   0  0  0  0  0  0  0  0  0  0  0  0
   -0.2134   -4.3053    4.5848 C   0  0  0  0  0  0  0  0  0  0  0  0
    0.2418   -4.8949    5.8943 C   0  0  0  0  0  0  0  0  0  0  0  0
   -1.6104   -3.7463    4.5975 C   0  0  0  0  0  0  0  0  0  0  0  0
    2.2582    0.0948   -0.2840 C   0  0  0  0  0  0  0  0  0  0  0  0
    1.6508    0.1428    1.0210 O   0  0  0  0  0  0  0  0  0  0  0  0
   -3.6215   -1.9413    0.9468 C   0  0  0  0  0  0  0  0  0  0  0  0
   -2.3406    0.3746   -1.4265 O   0  0  0  0  0  0  0  0  0  0  0  0
   -3.3472    1.0645   -1.9893 C   0  0  0  0  0  0  0  0  0  0  0  0
   -3.4571    0.7866   -3.4379 C   0  0  0  0  0  0  0  0  0  0  0  0
   -2.6928   -0.1028   -4.1056 C   0  0  0  0  0  0  0  0  0  0  0  0
   -4.0988    1.8466   -1.4182 O   0  0  0  0  0  0  0  0  0  0  0  0
   -2.8106   -0.3316   -5.5282 C   0  0  0  0  0  0  0  0  0  0  0  0
   -2.0419   -1.2094   -6.1984 C   0  0  0  0  0  0  0  0  0  0  0  0
   -2.1426   -1.4107   -7.6328 C   0  0  0  0  0  0  0  0  0  0  0  0
   -1.3770   -2.2841   -8.3083 C   0  0  0  0  0  0  0  0  0  0  0  0
   -1.4733   -2.4665   -9.7430 C   0  0  0  0  0  0  0  0  0  0  0  0
   -0.7193   -3.3467  -10.4232 C   0  0  0  0  0  0  0  0  0  0  0  0
   -0.8745   -3.4634  -11.8853 C   0  0  0  0  0  0  0  0  0  0  0  0
   -0.0390   -4.3938  -12.4088 O   0  0  0  0  0  0  0  0  0  0  0  0
   -1.6549   -2.8169  -12.5608 O   0  0  0  0  0  0  0  0  0  0  0  0
   -0.1280   -3.5116   -1.0116 C   0  0  0  0  0  0  0  0  0  0  0  0
   -3.1059    0.6562    0.4952 H   0  0  0  0  0  0  0  0  0  0  0  0
   -1.6853    2.5856    0.0338 H   0  0  0  0  0  0  0  0  0  0  0  0
   -1.0710    1.6838    1.4254 H   0  0  0  0  0  0  0  0  0  0  0  0
   -0.0181    1.6073   -1.4480 H   0  0  0  0  0  0  0  0  0  0  0  0
    0.7708    2.3177   -0.0455 H   0  0  0  0  0  0  0  0  0  0  0  0
   -0.3519   -1.0551   -1.3624 H   0  0  0  0  0  0  0  0  0  0  0  0
   -1.3294   -0.8299    1.5555 H   0  0  0  0  0  0  0  0  0  0  0  0
    0.9060   -1.9726    2.1674 H   0  0  0  0  0  0  0  0  0  0  0  0
   -0.9256   -3.8186    2.0620 H   0  0  0  0  0  0  0  0  0  0  0  0
    0.3348   -4.8743    1.4627 H   0  0  0  0  0  0  0  0  0  0  0  0
    1.5809   -4.7392    3.5716 H   0  0  0  0  0  0  0  0  0  0  0  0
    0.2607   -4.1333    6.6800 H   0  0  0  0  0  0  0  0  0  0  0  0
   -0.4509   -5.6879    6.2011 H   0  0  0  0  0  0  0  0  0  0  0  0
    1.2379   -5.3431    5.8272 H   0  0  0  0  0  0  0  0  0  0  0  0
   -1.6056   -2.6886    4.3106 H   0  0  0  0  0  0  0  0  0  0  0  0
   -2.2662   -4.3038    3.9228 H   0  0  0  0  0  0  0  0  0  0  0  0
   -2.0524   -3.8031    5.5994 H   0  0  0  0  0  0  0  0  0  0  0  0
    2.7288   -0.8245   -0.6035 H   0  0  0  0  0  0  0  0  0  0  0  0
    2.7742    0.9856   -0.6273 H   0  0  0  0  0  0  0  0  0  0  0  0
   -3.4513   -2.4116    1.9188 H   0  0  0  0  0  0  0  0  0  0  0  0
   -4.0489   -0.9499    1.1036 H   0  0  0  0  0  0  0  0  0  0  0  0
   -4.3648   -2.5258    0.3967 H   0  0  0  0  0  0  0  0  0  0  0  0
   -4.2214    1.3709   -3.9440 H   0  0  0  0  0  0  0  0  0  0  0  0
   -1.9443   -0.6804   -3.5696 H   0  0  0  0  0  0  0  0  0  0  0  0
   -3.5550    0.2523   -6.0634 H   0  0  0  0  0  0  0  0  0  0  0  0
   -1.2969   -1.7979   -5.6684 H   0  0  0  0  0  0  0  0  0  0  0  0
   -2.8736   -0.8056   -8.1644 H   0  0  0  0  0  0  0  0  0  0  0  0
   -0.6468   -2.8888   -7.7753 H   0  0  0  0  0  0  0  0  0  0  0  0
   -2.1960   -1.8509  -10.2783 H   0  0  0  0  0  0  0  0  0  0  0  0
    0.0062   -3.9702   -9.9215 H   0  0  0  0  0  0  0  0  0  0  0  0
    0.5369   -4.8429  -11.7774 H   0  0  0  0  0  0  0  0  0  0  0  0
   -0.9752   -3.1418   -1.6005 H   0  0  0  0  0  0  0  0  0  0  0  0
    0.6686   -3.7384   -1.7307 H   0  0  0  0  0  0  0  0  0  0  0  0
   -0.4472   -4.4457   -0.5464 H   0  0  0  0  0  0  0  0  0  0  0  0
  1  2  1  0  0  0  0
  1 34  1  1  0  0  0
  1 19  1  0  0  0  0
  2  3  1  0  0  0  0
  2 35  1  0  0  0  0
  2 36  1  0  0  0  0
  3 37  1  0  0  0  0
  3 38  1  0  0  0  0
  4  3  1  0  0  0  0
  4 16  1  0  0  0  0
  4 17  1  1  0  0  0
  5  4  1  0  0  0  0
  5  6  1  0  0  0  0
  5 39  1  6  0  0  0
  5  8  1  0  0  0  0
  6  1  1  0  0  0  0
  6 40  1  1  0  0  0
  6  7  1  0  0  0  0
  7 18  1  0  0  0  0
  8  9  1  0  0  0  0
  8 33  1  6  0  0  0
  9 10  1  0  0  0  0
  9 41  1  1  0  0  0
  9 11  1  0  0  0  0
 10  8  1  0  0  0  0
 11 12  1  0  0  0  0
 11 42  1  0  0  0  0
 11 43  1  0  0  0  0
 12 13  2  0  0  0  0
 12 44  1  0  0  0  0
 13 14  1  0  0  0  0
 13 15  1  0  0  0  0
 14 45  1  0  0  0  0
 14 46  1  0  0  0  0
 14 47  1  0  0  0  0
 15 48  1  0  0  0  0
 15 49  1  0  0  0  0
 15 50  1  0  0  0  0
 16 17  1  0  0  0  0
 16 51  1  0  0  0  0
 16 52  1  0  0  0  0
 18 53  1  0  0  0  0
 18 54  1  0  0  0  0
 18 55  1  0  0  0  0
 19 20  1  0  0  0  0
 20 21  1  0  0  0  0
 20 23  2  0  0  0  0
 21 22  2  0  0  0  0
 21 56  1  0  0  0  0
 22 24  1  0  0  0  0
 22 57  1  0  0  0  0
 24 25  2  0  0  0  0
 24 58  1  0  0  0  0
 25 26  1  0  0  0  0
 25 59  1  0  0  0  0
 26 27  2  0  0  0  0
 26 60  1  0  0  0  0
 27 28  1  0  0  0  0
 27 61  1  0  0  0  0
 28 29  2  0  0  0  0
 28 62  1  0  0  0  0
 29 30  1  0  0  0  0
 29 63  1  0  0  0  0
 30 31  1  0  0  0  0
 30 32  2  0  0  0  0
 31 64  1  0  0  0  0
 33 65  1  0  0  0  0
 33 66  1  0  0  0  0
 33 67  1  0  0  0  0
M  END
>  <Mol_ID>
2635

>  <Formula>
C26H34O7

>  <MolWeight>
458.54396

>  <Cat>
S7784

>  <Name>
Fumagillin

>  <Synonyms>
Amebacilin,NSC9168

>  <Target>
Antibiotics,Antineoplastic and Immunosuppressive Antibiotics

>  <Form>
free base

>  <CAS>
23110-15-8

>  <URL>
http://selleckchem.com/products/fumagillin.html

$$$$
