Furaltadone HCl.cdx
 OpenBabel08302522043D

 39 41  0  0  0  0  0  0  0  0999 V2000
   -1.6819    2.6369   -0.1976 C   0  0  0  0  0  0  0  0  0  0  0  0
   -1.7785    2.2648   -1.6885 C   0  0  0  0  0  0  0  0  0  0  0  0
   -2.1408    0.8470   -1.9387 N   0  0  0  0  0  0  0  0  0  0  0  0
   -3.3863    0.5961   -1.1641 C   0  0  0  0  0  0  0  0  0  0  0  0
   -3.2681    0.9574    0.3278 C   0  0  0  0  0  0  0  0  0  0  0  0
   -2.8949    2.3287    0.5035 O   0  0  0  0  0  0  0  0  0  0  0  0
   -1.0817   -0.1218   -1.5612 C   0  0  0  0  0  0  0  0  0  0  0  0
    0.1813   -0.1769   -2.4603 C   0  0  3  0  0  0  0  0  0  0  0  0
    1.0612    0.9433   -2.2413 O   0  0  0  0  0  0  0  0  0  0  0  0
    2.1496    0.5379   -1.5087 C   0  0  0  0  0  0  0  0  0  0  0  0
    2.1269   -0.8417   -1.3737 N   0  0  0  0  0  0  0  0  0  0  0  0
    1.0367   -1.3909   -2.1186 C   0  0  0  0  0  0  0  0  0  0  0  0
    2.9640    1.3236   -1.0506 O   0  0  0  0  0  0  0  0  0  0  0  0
    2.8252   -1.6235   -0.4859 N   0  0  0  0  0  0  0  0  0  0  0  0
    3.9487   -1.2010    0.0105 C   0  0  0  0  0  0  0  0  0  0  0  0
    4.5931   -1.9685    1.0540 C   0  0  0  0  0  0  0  0  0  0  0  0
    5.8128   -1.5612    1.5419 O   0  0  0  0  0  0  0  0  0  0  0  0
    6.1396   -2.4387    2.5344 C   0  0  0  0  0  0  0  0  0  0  0  0
    5.1725   -3.4031    2.6987 C   0  0  0  0  0  0  0  0  0  0  0  0
    4.1814   -3.1043    1.7345 C   0  0  0  0  0  0  0  0  0  0  0  0
    7.3736   -2.2242    3.2261 N   0  3  0  0  0  0  0  0  0  0  0  0
    7.6253   -3.0092    4.1482 O   0  0  0  0  0  0  0  0  0  0  0  0
    8.0891   -1.2842    2.8557 O   0  5  0  0  0  0  0  0  0  0  0  0
   -0.8422    2.1318    0.2909 H   0  0  0  0  0  0  0  0  0  0  0  0
   -1.5179    3.7148   -0.0988 H   0  0  0  0  0  0  0  0  0  0  0  0
   -2.5707    2.8843   -2.1388 H   0  0  0  0  0  0  0  0  0  0  0  0
   -0.8648    2.5410   -2.2180 H   0  0  0  0  0  0  0  0  0  0  0  0
   -4.1833    1.2103   -1.6054 H   0  0  0  0  0  0  0  0  0  0  0  0
   -3.7076   -0.4444   -1.2820 H   0  0  0  0  0  0  0  0  0  0  0  0
   -4.2360    0.8149    0.8192 H   0  0  0  0  0  0  0  0  0  0  0  0
   -2.5465    0.3161    0.8462 H   0  0  0  0  0  0  0  0  0  0  0  0
   -0.7730    0.0207   -0.5219 H   0  0  0  0  0  0  0  0  0  0  0  0
   -1.5439   -1.1159   -1.6278 H   0  0  0  0  0  0  0  0  0  0  0  0
   -0.1127   -0.1999   -3.5156 H   0  0  0  0  0  0  0  0  0  0  0  0
    1.4529   -1.8410   -3.0262 H   0  0  0  0  0  0  0  0  0  0  0  0
    0.5128   -2.1651   -1.5495 H   0  0  0  0  0  0  0  0  0  0  0  0
    4.4612   -0.2804   -0.3116 H   0  0  0  0  0  0  0  0  0  0  0  0
    5.1819   -4.2057    3.4238 H   0  0  0  0  0  0  0  0  0  0  0  0
    3.2546   -3.6344    1.5603 H   0  0  0  0  0  0  0  0  0  0  0  0
  1  2  1  0  0  0  0
  1 24  1  0  0  0  0
  1 25  1  0  0  0  0
  2  3  1  0  0  0  0
  2 26  1  0  0  0  0
  2 27  1  0  0  0  0
  3  4  1  0  0  0  0
  3  7  1  0  0  0  0
  4  5  1  0  0  0  0
  4 28  1  0  0  0  0
  4 29  1  0  0  0  0
  5  6  1  0  0  0  0
  5 30  1  0  0  0  0
  5 31  1  0  0  0  0
  6  1  1  0  0  0  0
  7  8  1  0  0  0  0
  7 32  1  0  0  0  0
  7 33  1  0  0  0  0
  8  9  1  0  0  0  0
  8 34  1  0  0  0  0
  9 10  1  0  0  0  0
 10 11  1  0  0  0  0
 10 13  2  0  0  0  0
 11 12  1  0  0  0  0
 11 14  1  0  0  0  0
 12  8  1  0  0  0  0
 12 35  1  0  0  0  0
 12 36  1  0  0  0  0
 14 15  2  0  0  0  0
 15 16  1  0  0  0  0
 15 37  1  0  0  0  0
 16 17  1  0  0  0  0
 17 18  1  0  0  0  0
 18 19  2  0  0  0  0
 18 21  1  0  0  0  0
 19 20  1  0  0  0  0
 19 38  1  0  0  0  0
 20 16  2  0  0  0  0
 20 39  1  0  0  0  0
 21 22  2  0  0  0  0
 21 23  1  0  0  0  0
M  CHG  2  21   1  23  -1
M  END
>  <Mol_ID>
1312

>  <Formula>
C13H17ClN4O6

>  <MolWeight>
360.75028

>  <Cat>
S4203

>  <Name>
Furaltadone HCl

>  <Synonyms>
Altafur hydrochloride

>  <Target>
Bacterial

>  <Form>
Hydrochloride

>  <CAS>
3759-92-0

>  <URL>
http://selleckchem.com/products/furaltadone-hcl.html

$$$$
