Furazolidone.cdx
 OpenBabel08302519503D

 23 24  0  0  0  0  0  0  0  0999 V2000
   -0.2209    1.1178   -0.0190 C   0  0  0  0  0  0  0  0  0  0  0  0
    1.0920    0.8067   -0.2572 O   0  0  0  0  0  0  0  0  0  0  0  0
   -0.5824    2.5088   -0.0153 C   0  0  0  0  0  0  0  0  0  0  0  0
   -0.9455   -0.0446    0.1848 C   0  0  0  0  0  0  0  0  0  0  0  0
    1.1829   -0.5477   -0.2037 C   0  0  0  0  0  0  0  0  0  0  0  0
   -1.8001    2.8823    0.2287 N   0  0  0  0  0  0  0  0  0  0  0  0
   -0.0339   -1.1268    0.0664 C   0  0  0  0  0  0  0  0  0  0  0  0
    2.4787   -1.1088   -0.4245 N   0  3  0  0  0  0  0  0  0  0  0  0
   -2.0654    4.2282    0.1895 N   0  0  0  0  0  0  0  0  0  0  0  0
    2.5570   -2.3435   -0.3684 O   0  0  0  0  0  0  0  0  0  0  0  0
    3.4153   -0.3318   -0.6483 O   0  5  0  0  0  0  0  0  0  0  0  0
   -1.4604    5.1857   -0.6223 C   0  0  0  0  0  0  0  0  0  0  0  0
   -3.3243    4.7282    0.6365 C   0  0  0  0  0  0  0  0  0  0  0  0
   -2.1320    6.3781   -0.4935 O   0  0  0  0  0  0  0  0  0  0  0  0
   -0.5016    5.0472   -1.3657 O   0  0  0  0  0  0  0  0  0  0  0  0
   -3.1076    6.2163    0.5422 C   0  0  0  0  0  0  0  0  0  0  0  0
    0.2451    3.2139   -0.1978 H   0  0  0  0  0  0  0  0  0  0  0  0
   -2.0059   -0.0955    0.3960 H   0  0  0  0  0  0  0  0  0  0  0  0
   -0.2358   -2.1851    0.1653 H   0  0  0  0  0  0  0  0  0  0  0  0
   -4.0986    4.3961   -0.0639 H   0  0  0  0  0  0  0  0  0  0  0  0
   -3.5634    4.3900    1.6480 H   0  0  0  0  0  0  0  0  0  0  0  0
   -4.0225    6.7574    0.2862 H   0  0  0  0  0  0  0  0  0  0  0  0
   -2.6945    6.6328    1.4677 H   0  0  0  0  0  0  0  0  0  0  0  0
  1  2  1  0  0  0  0
  1  3  1  0  0  0  0
  1  4  2  0  0  0  0
  2  5  1  0  0  0  0
  3  6  2  0  0  0  0
  3 17  1  0  0  0  0
  4  7  1  0  0  0  0
  4 18  1  0  0  0  0
  5  8  1  0  0  0  0
  5  7  2  0  0  0  0
  6  9  1  0  0  0  0
  7 19  1  0  0  0  0
  8 10  2  0  0  0  0
  8 11  1  0  0  0  0
  9 12  1  0  0  0  0
  9 13  1  0  0  0  0
 12 14  1  0  0  0  0
 12 15  2  0  0  0  0
 13 16  1  0  0  0  0
 13 20  1  0  0  0  0
 13 21  1  0  0  0  0
 14 16  1  0  0  0  0
 16 22  1  0  0  0  0
 16 23  1  0  0  0  0
M  CHG  2   8   1  11  -1
M  END
>  <Mol_ID>
1487

>  <Formula>
C8H7N3O5

>  <MolWeight>
225.15828

>  <Cat>
S4528

>  <Name>
Furazolidone

>  <Synonyms>
Furoxone

>  <Target>
Bacterial

>  <Form>
free base

>  <CAS>
67-45-8

>  <URL>
http://selleckchem.com/products/furazolidone.html

$$$$
