Furfuryl acetate
 OpenBabel08302520383D

 18 18  0  0  0  0  0  0  0  0999 V2000
   -0.1173    1.0739   -0.0061 C   0  0  0  0  0  0  0  0  0  0  0  0
   -0.6149    2.4680   -0.1014 C   0  0  0  0  0  0  0  0  0  0  0  0
    1.1480    0.5296    0.0756 C   0  0  0  0  0  0  0  0  0  0  0  0
   -1.0531    0.0802    0.0123 O   0  0  0  0  0  0  0  0  0  0  0  0
   -1.4220    2.5927   -1.2812 O   0  0  0  0  0  0  0  0  0  0  0  0
    0.9766   -0.8737    0.1366 C   0  0  0  0  0  0  0  0  0  0  0  0
   -0.3793   -1.0961    0.0908 C   0  0  0  0  0  0  0  0  0  0  0  0
   -0.7385    2.8133   -2.4332 C   0  0  0  0  0  0  0  0  0  0  0  0
   -1.6893    2.9557   -3.5836 C   0  0  0  0  0  0  0  0  0  0  0  0
    0.4746    2.9393   -2.5327 O   0  0  0  0  0  0  0  0  0  0  0  0
   -1.2559    2.6921    0.7577 H   0  0  0  0  0  0  0  0  0  0  0  0
    0.2000    3.2005   -0.0976 H   0  0  0  0  0  0  0  0  0  0  0  0
    2.0778    1.0821    0.0792 H   0  0  0  0  0  0  0  0  0  0  0  0
    1.7461   -1.6301    0.1992 H   0  0  0  0  0  0  0  0  0  0  0  0
   -0.9934   -1.9855    0.1014 H   0  0  0  0  0  0  0  0  0  0  0  0
   -1.8845    4.0153   -3.7620 H   0  0  0  0  0  0  0  0  0  0  0  0
   -1.2512    2.4976   -4.4738 H   0  0  0  0  0  0  0  0  0  0  0  0
   -2.6310    2.4399   -3.3731 H   0  0  0  0  0  0  0  0  0  0  0  0
  1  2  1  0  0  0  0
  1  3  2  0  0  0  0
  1  4  1  0  0  0  0
  2  5  1  0  0  0  0
  2 11  1  0  0  0  0
  2 12  1  0  0  0  0
  3  6  1  0  0  0  0
  3 13  1  0  0  0  0
  4  7  1  0  0  0  0
  5  8  1  0  0  0  0
  6  7  2  0  0  0  0
  6 14  1  0  0  0  0
  7 15  1  0  0  0  0
  8  9  1  0  0  0  0
  8 10  2  0  0  0  0
  9 16  1  0  0  0  0
  9 17  1  0  0  0  0
  9 18  1  0  0  0  0
M  END
>  <Mol_ID>
3454

>  <Formula>
C7H8O3

>  <MolWeight>
140.13662

>  <Cat>
S5831

>  <Name>
Furfuryl acetate

>  <Synonyms>
Furan-2-ylmethyl acetate, 2-Furanmethanol acetate, 2-Acetoxymethylfuran

>  <Target>
Others

>  <Form>
Free Base

>  <CAS>
623-17-6

>  <URL>
http://www.selleckchem.com/products/furfuryl-acetate.html

$$$$
