Furosemide sodium
 OpenBabel08302521303D

 31 32  0  0  0  0  0  0  0  0999 V2000
    0.9488   -0.1103    0.1190 S   0  0  0  0  0  0  0  0  0  0  0  0
    9.0007    3.0697   -0.1878 O   0  0  0  0  0  0  0  0  0  0  0  0
    0.5915   -0.9520    1.2388 O   0  0  0  0  0  0  0  0  0  0  0  0
    0.3996    1.2226   -0.0315 O   0  0  0  0  0  0  0  0  0  0  0  0
    6.8016   -2.5700   -0.5019 O   0  5  0  0  0  0  0  0  0  0  0  0
    4.8375   -3.6270   -0.1193 O   0  0  0  0  0  0  0  0  0  0  0  0
    6.8815    0.0361   -0.5479 N   0  0  0  0  0  0  0  0  0  0  0  0
    0.4659   -0.9321   -1.2626 N   0  0  0  0  0  0  0  0  0  0  0  0
    5.5047   -0.0008   -0.2895 C   0  0  0  0  0  0  0  0  0  0  0  0
    2.6997   -0.0468   -0.0367 C   0  0  0  0  0  0  0  0  0  0  0  0
    4.8217   -1.2414   -0.2506 C   0  0  0  0  0  0  0  0  0  0  0  0
    3.4152   -1.2416   -0.1215 C   0  0  0  0  0  0  0  0  0  0  0  0
    7.7478    0.9935    0.1289 C   0  0  0  0  0  0  0  0  0  0  0  0
    4.7584    1.1897   -0.1865 C   0  0  0  0  0  0  0  0  0  0  0  0
    3.3661    1.1733   -0.0586 C   0  0  0  0  0  0  0  0  0  0  0  0
    8.1388    2.1561   -0.7246 C   0  0  0  0  0  0  0  0  0  0  0  0
    5.5417   -2.5833   -0.3035 C   0  0  0  0  0  0  0  0  0  0  0  0
    7.8077    2.5244   -2.0135 C   0  0  0  0  0  0  0  0  0  0  0  0
    8.5043    3.7229   -2.2824 C   0  0  0  0  0  0  0  0  0  0  0  0
    9.2196    4.0109   -1.1441 C   0  0  0  0  0  0  0  0  0  0  0  0
    7.2499   -0.9369   -0.5054 H   0  0  0  0  0  0  0  0  0  0  0  0
    0.2011   -1.8883   -1.0316 H   0  0  0  0  0  0  0  0  0  0  0  0
   -0.2339   -0.3943   -1.7642 H   0  0  0  0  0  0  0  0  0  0  0  0
    2.8923   -2.1975   -0.0869 H   0  0  0  0  0  0  0  0  0  0  0  0
    7.3051    1.3490    1.0661 H   0  0  0  0  0  0  0  0  0  0  0  0
    8.6691    0.4691    0.4119 H   0  0  0  0  0  0  0  0  0  0  0  0
    5.2582    2.1523   -0.2347 H   0  0  0  0  0  0  0  0  0  0  0  0
    2.8222    2.1101    0.0069 H   0  0  0  0  0  0  0  0  0  0  0  0
    7.1444    1.9679   -2.6634 H   0  0  0  0  0  0  0  0  0  0  0  0
    8.4909    4.2984   -3.1967 H   0  0  0  0  0  0  0  0  0  0  0  0
    9.8989    4.8051   -0.8689 H   0  0  0  0  0  0  0  0  0  0  0  0
  1  3  2  0  0  0  0
  1  4  2  0  0  0  0
  1  8  1  0  0  0  0
  1 10  1  0  0  0  0
  2 16  1  0  0  0  0
  2 20  1  0  0  0  0
  5 17  1  0  0  0  0
  6 17  2  0  0  0  0
  7  9  1  0  0  0  0
  7 13  1  0  0  0  0
  7 21  1  0  0  0  0
  8 22  1  0  0  0  0
  8 23  1  0  0  0  0
  9 11  2  0  0  0  0
  9 14  1  0  0  0  0
 10 12  2  0  0  0  0
 10 15  1  0  0  0  0
 11 12  1  0  0  0  0
 11 17  1  0  0  0  0
 12 24  1  0  0  0  0
 13 16  1  0  0  0  0
 13 25  1  0  0  0  0
 13 26  1  0  0  0  0
 14 15  2  0  0  0  0
 14 27  1  0  0  0  0
 15 28  1  0  0  0  0
 16 18  2  0  0  0  0
 18 19  1  0  0  0  0
 18 29  1  0  0  0  0
 19 20  2  0  0  0  0
 19 30  1  0  0  0  0
 20 31  1  0  0  0  0
M  CHG  1   5  -1
M  END
>  <Mol_ID>
5618

>  <Formula>
C12H10ClN2NaO5S

>  <MolWeight>
352.72597

>  <Cat>
S5194

>  <Name>
Furosemide sodium

>  <Synonyms>
Lasix, Frusemide Sodium

>  <Target>
GABA Receptor,NKCC

>  <Form>
Sodium

>  <CAS>
41733-55-5

>  <URL>
http://www.selleckchem.com/products/furosemide-sodium.html

$$$$
