Fursultiamine
 OpenBabel08302520403D

 52 53  0  0  0  0  0  0  0  0999 V2000
    0.7507   -0.4303   -1.6631 S   0  0  0  0  0  0  0  0  0  0  0  0
    0.2801    1.4226   -0.8868 S   0  0  0  0  0  0  0  0  0  0  0  0
   -0.4560   -2.9739   -3.0922 O   0  0  0  0  0  0  0  0  0  0  0  0
   -2.3611    2.4765   -3.6483 O   0  0  0  0  0  0  0  0  0  0  0  0
   -5.6637   -0.6989   -0.7963 O   0  0  0  0  0  0  0  0  0  0  0  0
   -3.7455    0.6148   -0.5029 N   0  0  0  0  0  0  0  0  0  0  0  0
   -7.0170    4.2653   -0.9701 N   0  0  0  0  0  0  0  0  0  0  0  0
   -6.1258    3.1908   -2.8936 N   0  0  0  0  0  0  0  0  0  0  0  0
   -6.4492    3.6468    1.1796 N   0  0  0  0  0  0  0  0  0  0  0  0
    0.0719   -1.9219   -3.9250 C   0  0  3  0  0  0  0  0  0  0  0  0
   -0.7088   -2.0410   -5.2271 C   0  0  0  0  0  0  0  0  0  0  0  0
   -0.8815   -3.5330   -5.3659 C   0  0  0  0  0  0  0  0  0  0  0  0
   -1.0371   -3.9855   -3.9294 C   0  0  0  0  0  0  0  0  0  0  0  0
   -0.1066   -0.5399   -3.2754 C   0  0  0  0  0  0  0  0  0  0  0  0
   -1.4975    1.5480   -0.8443 C   0  0  0  0  0  0  0  0  0  0  0  0
   -2.3369    0.5596   -0.4108 C   0  0  0  0  0  0  0  0  0  0  0  0
   -1.9395    2.9522   -1.2900 C   0  0  0  0  0  0  0  0  0  0  0  0
   -4.5439    1.6427    0.1902 C   0  0  0  0  0  0  0  0  0  0  0  0
   -5.4344    2.4765   -0.6934 C   0  0  0  0  0  0  0  0  0  0  0  0
   -1.8381   -0.7104    0.2677 C   0  0  0  0  0  0  0  0  0  0  0  0
   -1.6694    3.3317   -2.7488 C   0  0  0  0  0  0  0  0  0  0  0  0
   -6.2969    3.4403   -0.1918 C   0  0  0  0  0  0  0  0  0  0  0  0
   -4.4563   -0.5267   -0.9008 C   0  0  0  0  0  0  0  0  0  0  0  0
   -5.4126    2.3974   -2.0763 C   0  0  0  0  0  0  0  0  0  0  0  0
   -6.8996    4.1072   -2.3016 C   0  0  0  0  0  0  0  0  0  0  0  0
   -7.6517    5.0426   -3.1938 C   0  0  0  0  0  0  0  0  0  0  0  0
   -2.0244    1.5786   -3.5100 H   0  0  0  0  0  0  0  0  0  0  0  0
   -7.1482    4.3918    1.2702 H   0  0  0  0  0  0  0  0  0  0  0  0
   -6.7927    2.8053    1.6360 H   0  0  0  0  0  0  0  0  0  0  0  0
    1.1338   -2.1381   -4.1014 H   0  0  0  0  0  0  0  0  0  0  0  0
   -1.6965   -1.5735   -5.1303 H   0  0  0  0  0  0  0  0  0  0  0  0
   -0.1953   -1.5846   -6.0774 H   0  0  0  0  0  0  0  0  0  0  0  0
   -1.7347   -3.8165   -5.9894 H   0  0  0  0  0  0  0  0  0  0  0  0
    0.0174   -3.9793   -5.8065 H   0  0  0  0  0  0  0  0  0  0  0  0
   -2.0914   -4.0803   -3.6511 H   0  0  0  0  0  0  0  0  0  0  0  0
   -0.5449   -4.9459   -3.7457 H   0  0  0  0  0  0  0  0  0  0  0  0
   -1.1716   -0.3879   -3.0815 H   0  0  0  0  0  0  0  0  0  0  0  0
    0.2605    0.2441   -3.9440 H   0  0  0  0  0  0  0  0  0  0  0  0
   -2.9943    3.1137   -1.1114 H   0  0  0  0  0  0  0  0  0  0  0  0
   -1.4381    3.6870   -0.6444 H   0  0  0  0  0  0  0  0  0  0  0  0
   -5.1779    1.1149    0.9205 H   0  0  0  0  0  0  0  0  0  0  0  0
   -3.8753    2.2896    0.7700 H   0  0  0  0  0  0  0  0  0  0  0  0
   -1.3652   -1.3988   -0.4308 H   0  0  0  0  0  0  0  0  0  0  0  0
   -1.1583   -0.4625    1.0900 H   0  0  0  0  0  0  0  0  0  0  0  0
   -2.6537   -1.2789    0.7290 H   0  0  0  0  0  0  0  0  0  0  0  0
   -2.0334    4.3504   -2.9251 H   0  0  0  0  0  0  0  0  0  0  0  0
   -0.6037    3.3247   -2.9948 H   0  0  0  0  0  0  0  0  0  0  0  0
   -3.8136   -1.2792   -1.3877 H   0  0  0  0  0  0  0  0  0  0  0  0
   -4.7787    1.6937   -2.5988 H   0  0  0  0  0  0  0  0  0  0  0  0
   -8.7232    4.9820   -2.9881 H   0  0  0  0  0  0  0  0  0  0  0  0
   -7.3092    6.0683   -3.0308 H   0  0  0  0  0  0  0  0  0  0  0  0
   -7.4871    4.7908   -4.2477 H   0  0  0  0  0  0  0  0  0  0  0  0
  1  2  1  0  0  0  0
  1 14  1  0  0  0  0
  2 15  1  0  0  0  0
  3 10  1  0  0  0  0
  3 13  1  0  0  0  0
  4 21  1  0  0  0  0
  4 27  1  0  0  0  0
  5 23  2  0  0  0  0
  6 16  1  0  0  0  0
  6 18  1  0  0  0  0
  6 23  1  0  0  0  0
  7 22  2  0  0  0  0
  7 25  1  0  0  0  0
  8 24  1  0  0  0  0
  8 25  2  0  0  0  0
  9 22  1  0  0  0  0
  9 28  1  0  0  0  0
  9 29  1  0  0  0  0
 10 11  1  0  0  0  0
 10 14  1  0  0  0  0
 10 30  1  0  0  0  0
 11 12  1  0  0  0  0
 11 31  1  0  0  0  0
 11 32  1  0  0  0  0
 12 13  1  0  0  0  0
 12 33  1  0  0  0  0
 12 34  1  0  0  0  0
 13 35  1  0  0  0  0
 13 36  1  0  0  0  0
 14 37  1  0  0  0  0
 14 38  1  0  0  0  0
 15 16  2  0  0  0  0
 15 17  1  0  0  0  0
 16 20  1  0  0  0  0
 17 21  1  0  0  0  0
 17 39  1  0  0  0  0
 17 40  1  0  0  0  0
 18 19  1  0  0  0  0
 18 41  1  0  0  0  0
 18 42  1  0  0  0  0
 19 22  1  0  0  0  0
 19 24  2  0  0  0  0
 20 43  1  0  0  0  0
 20 44  1  0  0  0  0
 20 45  1  0  0  0  0
 21 46  1  0  0  0  0
 21 47  1  0  0  0  0
 23 48  1  0  0  0  0
 24 49  1  0  0  0  0
 25 26  1  0  0  0  0
 26 50  1  0  0  0  0
 26 51  1  0  0  0  0
 26 52  1  0  0  0  0
M  END
>  <Mol_ID>
3860

>  <Formula>
C17H26N4O3S2

>  <MolWeight>
398.54334

>  <Cat>
S6614

>  <Name>
Fursultiamine

>  <Synonyms>
Thiamine tetrahydrofurfuryl disulfide

>  <Target>
Vitamin

>  <Form>
free base

>  <CAS>
804-30-8

>  <URL>
http://www.selleck.cn/products/fursultiamine.html

$$$$
