Futibatinib (TAS-120)
 OpenBabel08302521233D

 53 56  0  0  0  0  0  0  0  0999 V2000
   -1.9900   -0.6438    0.0285 N   0  0  0  0  0  0  0  0  0  0  0  0
   -1.8495    0.6976    0.0111 C   0  0  0  0  0  0  0  0  0  0  0  0
   -0.7025    1.4214    0.0053 N   0  0  0  0  0  0  0  0  0  0  0  0
    0.3790    0.6224   -0.0281 C   0  0  0  0  0  0  0  0  0  0  0  0
    0.3659   -0.7651   -0.0377 C   0  0  0  0  0  0  0  0  0  0  0  0
   -0.8786   -1.4056    0.0265 C   0  0  0  0  0  0  0  0  0  0  0  0
    1.7128    0.9968   -0.0124 N   0  0  0  0  0  0  0  0  0  0  0  0
    2.5544   -0.0704   -0.0815 N   0  0  0  0  0  0  0  0  0  0  0  0
    1.7276   -1.1270   -0.0816 C   0  0  0  0  0  0  0  0  0  0  0  0
   -1.0470   -2.7734    0.1236 N   0  0  0  0  0  0  0  0  0  0  0  0
    2.2655   -2.4560   -0.0944 C   0  0  0  0  0  0  0  0  0  0  0  0
    2.2256    2.3517    0.1331 C   0  0  3  0  0  0  0  0  0  0  0  0
    3.5767    2.6933   -0.5428 C   0  0  0  0  0  0  0  0  0  0  0  0
    4.4937    3.2077    0.5599 C   0  0  0  0  0  0  0  0  0  0  0  0
    3.5930    3.6352    1.6094 N   0  0  0  0  0  0  0  0  0  0  0  0
    2.3988    2.7965    1.5949 C   0  0  0  0  0  0  0  0  0  0  0  0
    4.0126    4.5599    2.5438 C   0  0  0  0  0  0  0  0  0  0  0  0
    3.0424    4.9475    3.6051 C   0  0  0  0  0  0  0  0  0  0  0  0
    5.1267    5.0791    2.5049 O   0  0  0  0  0  0  0  0  0  0  0  0
    3.3429    5.8971    4.5036 C   0  0  0  0  0  0  0  0  0  0  0  0
    2.6397   -3.6001   -0.0797 C   0  0  0  0  0  0  0  0  0  0  0  0
    3.0839   -4.9723   -0.0484 C   0  0  0  0  0  0  0  0  0  0  0  0
    2.1641   -6.0337   -0.0391 C   0  0  0  0  0  0  0  0  0  0  0  0
    2.6232   -7.3554   -0.0146 C   0  0  0  0  0  0  0  0  0  0  0  0
    3.9981   -7.6130    0.0050 C   0  0  0  0  0  0  0  0  0  0  0  0
    4.9196   -6.5682   -0.0006 C   0  0  0  0  0  0  0  0  0  0  0  0
    4.4556   -5.2489   -0.0251 C   0  0  0  0  0  0  0  0  0  0  0  0
    6.2809   -6.7107    0.0146 O   0  0  0  0  0  0  0  0  0  0  0  0
    1.8607   -8.4915   -0.0091 O   0  0  0  0  0  0  0  0  0  0  0  0
    0.4492   -8.3473   -0.0292 C   0  0  0  0  0  0  0  0  0  0  0  0
    6.7880   -8.0424    0.0307 C   0  0  0  0  0  0  0  0  0  0  0  0
   -2.7807    1.2593    0.0130 H   0  0  0  0  0  0  0  0  0  0  0  0
   -0.2806   -3.3809   -0.1212 H   0  0  0  0  0  0  0  0  0  0  0  0
   -1.9930   -3.0946   -0.0349 H   0  0  0  0  0  0  0  0  0  0  0  0
    1.4742    3.0024   -0.3335 H   0  0  0  0  0  0  0  0  0  0  0  0
    3.4073    3.5236   -1.2419 H   0  0  0  0  0  0  0  0  0  0  0  0
    4.0431    1.8887   -1.1149 H   0  0  0  0  0  0  0  0  0  0  0  0
    5.1332    2.4147    0.9634 H   0  0  0  0  0  0  0  0  0  0  0  0
    5.1359    4.0309    0.2277 H   0  0  0  0  0  0  0  0  0  0  0  0
    1.5253    3.3480    1.9489 H   0  0  0  0  0  0  0  0  0  0  0  0
    2.5803    1.9534    2.2737 H   0  0  0  0  0  0  0  0  0  0  0  0
    2.0783    4.4723    3.6447 H   0  0  0  0  0  0  0  0  0  0  0  0
    2.6273    6.1832    5.2637 H   0  0  0  0  0  0  0  0  0  0  0  0
    4.2974    6.4157    4.5031 H   0  0  0  0  0  0  0  0  0  0  0  0
    1.1024   -5.8147   -0.0502 H   0  0  0  0  0  0  0  0  0  0  0  0
    4.3161   -8.6512    0.0245 H   0  0  0  0  0  0  0  0  0  0  0  0
    5.1776   -4.4353   -0.0258 H   0  0  0  0  0  0  0  0  0  0  0  0
    0.0938   -7.8273    0.8652 H   0  0  0  0  0  0  0  0  0  0  0  0
    0.1162   -7.8462   -0.9430 H   0  0  0  0  0  0  0  0  0  0  0  0
    0.0156   -9.3532   -0.0243 H   0  0  0  0  0  0  0  0  0  0  0  0
    6.4887   -8.5682    0.9439 H   0  0  0  0  0  0  0  0  0  0  0  0
    6.4793   -8.5972   -0.8623 H   0  0  0  0  0  0  0  0  0  0  0  0
    7.8807   -7.9864    0.0230 H   0  0  0  0  0  0  0  0  0  0  0  0
  1  2  2  0  0  0  0
  2  3  1  0  0  0  0
  2 32  1  0  0  0  0
  3  4  2  0  0  0  0
  4  5  1  0  0  0  0
  4  7  1  0  0  0  0
  5  6  2  0  0  0  0
  6  1  1  0  0  0  0
  6 10  1  0  0  0  0
  7  8  1  0  0  0  0
  7 12  1  0  0  0  0
  8  9  2  0  0  0  0
  9  5  1  0  0  0  0
  9 11  1  0  0  0  0
 10 33  1  0  0  0  0
 10 34  1  0  0  0  0
 11 21  3  0  0  0  0
 12 13  1  0  0  0  0
 12 35  1  0  0  0  0
 13 14  1  0  0  0  0
 13 36  1  0  0  0  0
 13 37  1  0  0  0  0
 14 15  1  0  0  0  0
 14 38  1  0  0  0  0
 14 39  1  0  0  0  0
 15 16  1  0  0  0  0
 15 17  1  0  0  0  0
 16 12  1  0  0  0  0
 16 40  1  0  0  0  0
 16 41  1  0  0  0  0
 17 18  1  0  0  0  0
 17 19  2  0  0  0  0
 18 20  2  0  0  0  0
 18 42  1  0  0  0  0
 20 43  1  0  0  0  0
 20 44  1  0  0  0  0
 21 22  1  0  0  0  0
 22 23  2  0  0  0  0
 23 24  1  0  0  0  0
 23 45  1  0  0  0  0
 24 25  2  0  0  0  0
 24 29  1  0  0  0  0
 25 26  1  0  0  0  0
 25 46  1  0  0  0  0
 26 27  2  0  0  0  0
 26 28  1  0  0  0  0
 27 22  1  0  0  0  0
 27 47  1  0  0  0  0
 28 31  1  0  0  0  0
 29 30  1  0  0  0  0
 30 48  1  0  0  0  0
 30 49  1  0  0  0  0
 30 50  1  0  0  0  0
 31 51  1  0  0  0  0
 31 52  1  0  0  0  0
 31 53  1  0  0  0  0
M  END
>  <Mol_ID>
4809

>  <Formula>
C22H22N6O3

>  <MolWeight>
418.44848

>  <Cat>
S8848

>  <Name>
Futibatinib (TAS-120)

>  <Synonyms>
N/A

>  <Target>
FGFR

>  <Form>
Free Base

>  <CAS>
1448169-71-8

>  <URL>
http://www.selleck.cn/products/tas-120.html

$$$$
