Fuziline
 OpenBabel08302521583D

 71 76  0  0  1  0  0  0  0  0999 V2000
    1.5739    0.1375    0.7604 O   0  0  0  0  0  0  0  0  0  0  0  0
    4.3211    4.3513    2.4269 C   0  0  0  0  0  0  0  0  0  0  0  0
    4.7524    5.1636    1.3378 O   0  0  0  0  0  0  0  0  0  0  0  0
    6.1582    5.3562    1.3843 C   0  0  0  0  0  0  0  0  0  0  0  0
    2.0614    4.3761    5.4266 O   0  0  0  0  0  0  0  0  0  0  0  0
    3.1988    4.4108    6.2228 C   0  0  0  0  0  0  0  0  0  0  0  0
   -0.1974    2.8628    0.8571 C   0  0  0  0  0  0  0  0  0  0  0  0
   -0.5107    3.8659   -0.2413 C   0  0  0  0  0  0  0  0  0  0  0  0
   -1.4855    1.8866    4.7633 O   0  0  0  0  0  0  0  0  0  0  0  0
   -1.4496   -1.7109    3.7417 O   0  0  0  0  0  0  0  0  0  0  0  0
   -0.8732    1.5288    7.4976 O   0  0  0  0  0  0  0  0  0  0  0  0
   -1.9569   -1.1781    6.1802 O   0  0  0  0  0  0  0  0  0  0  0  0
   -2.9353   -0.1702    5.8919 C   0  0  0  0  0  0  0  0  0  0  0  0
    2.1658    1.2247    2.9330 C   0  0  3  0  0  0  0  0  0  0  0  0
    2.8782    2.6074    3.4085 C   0  0  3  0  0  0  0  0  0  0  0  0
    0.8147    2.0097    2.9028 C   0  0  3  0  0  0  0  0  0  0  0  0
    1.7451   -0.1585    3.7777 C   0  0  3  0  0  0  0  0  0  0  0  0
    2.6598    0.5759    1.6049 C   0  0  3  0  0  0  0  0  0  0  0  0
    3.0864    3.4849    2.1120 C   0  0  3  0  0  0  0  0  0  0  0  0
    1.7496    3.4235    4.4528 C   0  0  3  0  0  0  0  0  0  0  0  0
    0.8635    2.2453    4.5580 C   0  0  3  0  0  0  0  0  0  0  0  0
    0.6072    3.2376    2.0249 N   0  0  0  0  0  0  0  0  0  0  0  0
    0.2473    0.0104    4.1249 C   0  0  3  0  0  0  0  0  0  0  0  0
    2.0719   -1.1631    5.1267 C   0  0  0  0  0  0  0  0  0  0  0  0
    3.7059    1.3418    0.8379 C   0  0  0  0  0  0  0  0  0  0  0  0
    1.7470    4.1951    1.8461 C   0  0  0  0  0  0  0  0  0  0  0  0
    3.3334    2.7766    0.7345 C   0  0  0  0  0  0  0  0  0  0  0  0
   -0.2397    1.2980    5.0308 C   0  0  3  0  0  0  0  0  0  0  0  0
   -0.1485   -1.4664    4.1617 C   0  0  3  0  0  0  0  0  0  0  0  0
    0.4284   -1.7404    5.5535 C   0  0  3  0  0  0  0  0  0  0  0  0
   -0.1832    0.7206    6.5568 C   0  0  3  0  0  0  0  0  0  0  0  0
   -0.5807   -0.8343    6.5393 C   0  0  3  0  0  0  0  0  0  0  0  0
    0.9021   -0.3660    1.2611 H   0  0  0  0  0  0  0  0  0  0  0  0
    4.1534    5.0029    3.2960 H   0  0  0  0  0  0  0  0  0  0  0  0
    5.1318    3.6597    2.6878 H   0  0  0  0  0  0  0  0  0  0  0  0
    6.4553    5.8029    2.3354 H   0  0  0  0  0  0  0  0  0  0  0  0
    6.6896    4.4023    1.2409 H   0  0  0  0  0  0  0  0  0  0  0  0
    6.4521    6.0312    0.5680 H   0  0  0  0  0  0  0  0  0  0  0  0
    2.9593    3.9609    7.1783 H   0  0  0  0  0  0  0  0  0  0  0  0
    4.0850    3.9791    5.7560 H   0  0  0  0  0  0  0  0  0  0  0  0
    3.4204    5.4784    6.4242 H   0  0  0  0  0  0  0  0  0  0  0  0
    0.2580    2.0015    0.3719 H   0  0  0  0  0  0  0  0  0  0  0  0
   -1.1708    2.5142    1.2309 H   0  0  0  0  0  0  0  0  0  0  0  0
   -0.4846    3.3392   -1.2033 H   0  0  0  0  0  0  0  0  0  0  0  0
   -1.5174    4.2740   -0.1157 H   0  0  0  0  0  0  0  0  0  0  0  0
    0.1860    4.6981   -0.3179 H   0  0  0  0  0  0  0  0  0  0  0  0
   -1.6506    2.4642    5.5369 H   0  0  0  0  0  0  0  0  0  0  0  0
   -1.9827   -1.8960    4.5320 H   0  0  0  0  0  0  0  0  0  0  0  0
   -0.4287    1.4110    8.3599 H   0  0  0  0  0  0  0  0  0  0  0  0
   -3.9211   -0.5995    6.0946 H   0  0  0  0  0  0  0  0  0  0  0  0
   -2.8434    0.7201    6.5098 H   0  0  0  0  0  0  0  0  0  0  0  0
   -2.9566    0.0876    4.8255 H   0  0  0  0  0  0  0  0  0  0  0  0
    3.8005    2.3716    3.9654 H   0  0  0  0  0  0  0  0  0  0  0  0
   -0.0362    1.3837    2.6268 H   0  0  0  0  0  0  0  0  0  0  0  0
    1.8527   -0.9430    3.0232 H   0  0  0  0  0  0  0  0  0  0  0  0
    3.2096   -0.3452    1.8323 H   0  0  0  0  0  0  0  0  0  0  0  0
    1.0526    4.0856    3.9588 H   0  0  0  0  0  0  0  0  0  0  0  0
    1.6648    1.7386    5.1401 H   0  0  0  0  0  0  0  0  0  0  0  0
    0.7603    0.0726    5.0355 H   0  0  0  0  0  0  0  0  0  0  0  0
    2.5309   -0.6441    5.9849 H   0  0  0  0  0  0  0  0  0  0  0  0
    2.6767   -2.0258    4.8149 H   0  0  0  0  0  0  0  0  0  0  0  0
    3.8250    0.9207   -0.1678 H   0  0  0  0  0  0  0  0  0  0  0  0
    4.6631    1.2442    1.3573 H   0  0  0  0  0  0  0  0  0  0  0  0
    1.7499    4.6765    0.8657 H   0  0  0  0  0  0  0  0  0  0  0  0
    1.6314    5.0658    2.5067 H   0  0  0  0  0  0  0  0  0  0  0  0
    2.4406    2.8122    0.0954 H   0  0  0  0  0  0  0  0  0  0  0  0
    4.0816    3.2987    0.1311 H   0  0  0  0  0  0  0  0  0  0  0  0
    0.4289   -2.1007    3.4742 H   0  0  0  0  0  0  0  0  0  0  0  0
    0.4241   -2.7984    5.8389 H   0  0  0  0  0  0  0  0  0  0  0  0
    0.8634    0.7275    6.9028 H   0  0  0  0  0  0  0  0  0  0  0  0
   -0.4877   -1.2235    7.5573 H   0  0  0  0  0  0  0  0  0  0  0  0
  1 33  1  0  0  0  0
  2  3  1  0  0  0  0
  2 34  1  0  0  0  0
  2 35  1  0  0  0  0
  3  4  1  0  0  0  0
  4 36  1  0  0  0  0
  4 37  1  0  0  0  0
  4 38  1  0  0  0  0
  5  6  1  0  0  0  0
  6 39  1  0  0  0  0
  6 40  1  0  0  0  0
  6 41  1  0  0  0  0
  7  8  1  0  0  0  0
  7 22  1  0  0  0  0
  7 42  1  0  0  0  0
  7 43  1  0  0  0  0
  8 44  1  0  0  0  0
  8 45  1  0  0  0  0
  8 46  1  0  0  0  0
  9 47  1  0  0  0  0
 10 48  1  0  0  0  0
 11 49  1  0  0  0  0
 12 13  1  0  0  0  0
 13 50  1  0  0  0  0
 13 51  1  0  0  0  0
 13 52  1  0  0  0  0
 14 15  1  0  0  0  0
 14 16  1  0  0  0  0
 14 17  1  0  0  0  0
 14 18  1  0  0  0  0
 15 19  1  0  0  0  0
 15 20  1  0  0  0  0
 15 53  1  0  0  0  0
 16 21  1  0  0  0  0
 16 22  1  0  0  0  0
 16 54  1  0  0  0  0
 17 24  1  0  0  0  0
 17 55  1  0  0  0  0
 18  1  1  0  0  0  0
 18 25  1  0  0  0  0
 18 56  1  0  0  0  0
 19  2  1  0  0  0  0
 19 26  1  0  0  0  0
 19 27  1  0  0  0  0
 20  5  1  0  0  0  0
 20 57  1  0  0  0  0
 21 20  1  0  0  0  0
 21 28  1  0  0  0  0
 21 58  1  0  0  0  0
 22 26  1  0  0  0  0
 23 17  1  0  0  0  0
 23 28  1  0  0  0  0
 23 29  1  0  0  0  0
 23 59  1  0  0  0  0
 24 60  1  0  0  0  0
 24 61  1  0  0  0  0
 25 27  1  0  0  0  0
 25 62  1  0  0  0  0
 25 63  1  0  0  0  0
 26 64  1  0  0  0  0
 26 65  1  0  0  0  0
 27 66  1  0  0  0  0
 27 67  1  0  0  0  0
 28  9  1  0  0  0  0
 28 31  1  0  0  0  0
 29 10  1  0  0  0  0
 29 30  1  0  0  0  0
 29 68  1  0  0  0  0
 30 24  1  0  0  0  0
 30 32  1  0  0  0  0
 30 69  1  0  0  0  0
 31 11  1  0  0  0  0
 31 32  1  0  0  0  0
 31 70  1  0  0  0  0
 32 12  1  0  0  0  0
 32 71  1  0  0  0  0
M  END
>  <Mol_ID>
10113

>  <Formula>
C24H39NO7

>  <MolWeight>
453.56896

>  <Cat>
S0957

>  <Name>
Fuziline

>  <Synonyms>
NA

>  <Target>
ROS-induced ER stress

>  <Form>
Free Base

>  <CAS>
80665-72-1

>  <URL>
https://www.selleckchem.com/products/fuziline.html

$$$$
