G150
 OpenBabel08302521233D

 42 45  0  0  0  0  0  0  0  0999 V2000
    1.2308    0.4074   -0.7399 O   0  0  0  0  0  0  0  0  0  0  0  0
    1.6062    1.2183    1.8306 O   0  0  0  0  0  0  0  0  0  0  0  0
    3.0686   -0.9854   -0.7875 N   0  0  0  0  0  0  0  0  0  0  0  0
    6.0123   -3.0032   -2.8423 N   0  0  0  0  0  0  0  0  0  0  0  0
    6.9129   -2.3429    4.2140 N   0  0  0  0  0  0  0  0  0  0  0  0
    5.1556   -2.0665    5.7225 N   0  0  0  0  0  0  0  0  0  0  0  0
    5.1107   -2.3481   -0.9193 C   0  0  0  0  0  0  0  0  0  0  0  0
    4.9384   -2.3932   -2.2889 C   0  0  0  0  0  0  0  0  0  0  0  0
    3.7679   -1.8300   -3.0227 C   0  0  0  0  0  0  0  0  0  0  0  0
    4.1209   -1.6710   -0.0248 C   0  0  0  0  0  0  0  0  0  0  0  0
    6.3296   -3.0673   -0.6108 C   0  0  0  0  0  0  0  0  0  0  0  0
    2.6119   -1.6519   -2.0211 C   0  0  0  0  0  0  0  0  0  0  0  0
    6.8789   -3.4137   -1.8551 C   0  0  0  0  0  0  0  0  0  0  0  0
    7.0453   -3.4426    0.5783 C   0  0  0  0  0  0  0  0  0  0  0  0
    8.1064   -4.0703   -2.0017 C   0  0  0  0  0  0  0  0  0  0  0  0
    2.2428   -0.0378   -0.1950 C   0  0  0  0  0  0  0  0  0  0  0  0
    8.2859   -4.1071    0.4085 C   0  0  0  0  0  0  0  0  0  0  0  0
    6.5332   -3.1600    1.9345 C   0  0  0  0  0  0  0  0  0  0  0  0
    8.8059   -4.4056   -0.8481 C   0  0  0  0  0  0  0  0  0  0  0  0
    2.6462    0.4891    1.1958 C   0  0  0  0  0  0  0  0  0  0  0  0
    5.2034   -3.3760    2.2944 C   0  0  0  0  0  0  0  0  0  0  0  0
    7.3427   -2.6865    2.9687 C   0  0  0  0  0  0  0  0  0  0  0  0
    4.7132   -2.9575    3.5320 C   0  0  0  0  0  0  0  0  0  0  0  0
    5.6002   -2.4477    4.4611 C   0  0  0  0  0  0  0  0  0  0  0  0
    1.0731    1.6010    1.1060 H   0  0  0  0  0  0  0  0  0  0  0  0
    6.1656   -3.1424   -3.8353 H   0  0  0  0  0  0  0  0  0  0  0  0
    4.4124   -1.3794    5.6684 H   0  0  0  0  0  0  0  0  0  0  0  0
    5.9604   -1.7114    6.2327 H   0  0  0  0  0  0  0  0  0  0  0  0
    3.4600   -2.4854   -3.8433 H   0  0  0  0  0  0  0  0  0  0  0  0
    4.0431   -0.8554   -3.4413 H   0  0  0  0  0  0  0  0  0  0  0  0
    4.6376   -0.9623    0.6270 H   0  0  0  0  0  0  0  0  0  0  0  0
    3.5730   -2.4009    0.5733 H   0  0  0  0  0  0  0  0  0  0  0  0
    2.2152   -2.6323   -1.7205 H   0  0  0  0  0  0  0  0  0  0  0  0
    1.7890   -1.1059   -2.4920 H   0  0  0  0  0  0  0  0  0  0  0  0
    8.5054   -4.3145   -2.9823 H   0  0  0  0  0  0  0  0  0  0  0  0
    8.8619   -4.4175    1.2797 H   0  0  0  0  0  0  0  0  0  0  0  0
    9.7624   -4.9173   -0.9293 H   0  0  0  0  0  0  0  0  0  0  0  0
    2.9046   -0.3398    1.8596 H   0  0  0  0  0  0  0  0  0  0  0  0
    3.5080    1.1529    1.0792 H   0  0  0  0  0  0  0  0  0  0  0  0
    4.5263   -3.8728    1.6060 H   0  0  0  0  0  0  0  0  0  0  0  0
    8.4145   -2.5625    2.8334 H   0  0  0  0  0  0  0  0  0  0  0  0
    3.6584   -3.0496    3.7659 H   0  0  0  0  0  0  0  0  0  0  0  0
  1 16  2  0  0  0  0
  2 20  1  0  0  0  0
  2 25  1  0  0  0  0
  3 10  1  0  0  0  0
  3 12  1  0  0  0  0
  3 16  1  0  0  0  0
  4  8  1  0  0  0  0
  4 13  1  0  0  0  0
  4 26  1  0  0  0  0
  5 22  2  0  0  0  0
  5 24  1  0  0  0  0
  6 24  1  0  0  0  0
  6 27  1  0  0  0  0
  6 28  1  0  0  0  0
  7  8  2  0  0  0  0
  7 10  1  0  0  0  0
  7 11  1  0  0  0  0
  8  9  1  0  0  0  0
  9 12  1  0  0  0  0
  9 29  1  0  0  0  0
  9 30  1  0  0  0  0
 10 31  1  0  0  0  0
 10 32  1  0  0  0  0
 11 13  2  0  0  0  0
 11 14  1  0  0  0  0
 12 33  1  0  0  0  0
 12 34  1  0  0  0  0
 13 15  1  0  0  0  0
 14 17  2  0  0  0  0
 14 18  1  0  0  0  0
 15 19  2  0  0  0  0
 15 35  1  0  0  0  0
 16 20  1  0  0  0  0
 17 19  1  0  0  0  0
 17 36  1  0  0  0  0
 18 21  2  0  0  0  0
 18 22  1  0  0  0  0
 19 37  1  0  0  0  0
 20 38  1  0  0  0  0
 20 39  1  0  0  0  0
 21 23  1  0  0  0  0
 21 40  1  0  0  0  0
 22 41  1  0  0  0  0
 23 24  2  0  0  0  0
 23 42  1  0  0  0  0
M  END
>  <Mol_ID>
4890

>  <Formula>
C18H16Cl2N4O2

>  <MolWeight>
391.25124

>  <Cat>
S8944

>  <Name>
G150

>  <Synonyms>
N/A

>  <Target>
cGAS

>  <Form>
Free Base

>  <CAS>
2369751-30-2

>  <URL>
http://www.selleck.cn/products/g150.html

$$$$
