G1T38
 OpenBabel08302521453D

 69 74  0  0  0  0  0  0  0  0999 V2000
    0.9579    1.1116    0.1166 C   0  0  0  0  0  0  0  0  0  0  0  0
   -0.3044    1.0738   -0.4521 C   0  0  0  0  0  0  0  0  0  0  0  0
   -1.0789   -0.0117   -0.4770 N   0  0  0  0  0  0  0  0  0  0  0  0
   -0.6530   -1.1475    0.0988 C   0  0  0  0  0  0  0  0  0  0  0  0
    0.6306   -1.2410    0.6162 C   0  0  0  0  0  0  0  0  0  0  0  0
    1.4237   -0.0946    0.6456 C   0  0  0  0  0  0  0  0  0  0  0  0
    1.7612    2.2492    0.1485 N   0  0  0  0  0  0  0  0  0  0  0  0
    1.4681    3.2832   -0.8617 C   0  0  0  0  0  0  0  0  0  0  0  0
    2.5725    4.3614   -0.8608 C   0  0  0  0  0  0  0  0  0  0  0  0
    2.8856    4.9468    0.4590 N   0  0  0  0  0  0  0  0  0  0  0  0
    3.0507    3.8772    1.4641 C   0  0  0  0  0  0  0  0  0  0  0  0
    1.9438    2.8035    1.5050 C   0  0  0  0  0  0  0  0  0  0  0  0
    2.0844    6.1311    0.8231 C   0  0  0  0  0  0  0  0  0  0  0  0
    0.5679    5.9557    0.9635 C   0  0  0  0  0  0  0  0  0  0  0  0
    2.6354    6.7985    2.0838 C   0  0  0  0  0  0  0  0  0  0  0  0
   -1.5284   -2.2269    0.1876 N   0  0  0  0  0  0  0  0  0  0  0  0
   -2.9190   -2.1029    0.1609 C   0  0  0  0  0  0  0  0  0  0  0  0
   -3.5914   -3.1861    0.5837 N   0  0  0  0  0  0  0  0  0  0  0  0
   -4.9035   -3.1126    0.2967 C   0  0  0  0  0  0  0  0  0  0  0  0
   -5.5973   -1.9882   -0.1231 C   0  0  0  0  0  0  0  0  0  0  0  0
   -4.8348   -0.8691   -0.3886 C   0  0  0  0  0  0  0  0  0  0  0  0
   -3.4989   -0.9781   -0.3056 N   0  0  0  0  0  0  0  0  0  0  0  0
   -5.7448   -4.1994    0.0864 N   0  0  0  0  0  0  0  0  0  0  0  0
   -7.0361   -3.7057   -0.0390 C   0  0  0  0  0  0  0  0  0  0  0  0
   -6.9577   -2.3369   -0.1929 C   0  0  0  0  0  0  0  0  0  0  0  0
   -5.2577   -5.6735    0.0328 C   0  0  0  0  0  0  0  0  0  0  0  0
   -6.5488   -6.0944    0.9043 C   0  0  0  0  0  0  0  0  0  0  0  0
   -7.8552   -5.8312    0.2965 N   0  0  0  0  0  0  0  0  0  0  0  0
   -8.1889   -4.5517   -0.0371 C   0  0  0  0  0  0  0  0  0  0  0  0
   -4.3473   -5.3186   -1.2711 C   0  0  0  0  0  0  0  0  0  0  0  0
   -5.0667   -4.8653   -2.5521 C   0  0  0  0  0  0  0  0  0  0  0  0
   -6.3116   -5.6884   -2.8140 C   0  0  0  0  0  0  0  0  0  0  0  0
   -6.2165   -7.0628   -2.1946 C   0  0  0  0  0  0  0  0  0  0  0  0
   -5.5349   -7.1023   -0.8248 C   0  0  0  0  0  0  0  0  0  0  0  0
   -9.3307   -4.2014   -0.2870 O   0  0  0  0  0  0  0  0  0  0  0  0
   -0.7823    1.9393   -0.8900 H   0  0  0  0  0  0  0  0  0  0  0  0
    1.0063   -2.1696    1.0288 H   0  0  0  0  0  0  0  0  0  0  0  0
    2.4190   -0.1437    1.0771 H   0  0  0  0  0  0  0  0  0  0  0  0
    1.4284    2.8314   -1.8614 H   0  0  0  0  0  0  0  0  0  0  0  0
    0.4935    3.7406   -0.6697 H   0  0  0  0  0  0  0  0  0  0  0  0
    3.4913    3.8876   -1.2310 H   0  0  0  0  0  0  0  0  0  0  0  0
    2.3262    5.1401   -1.5906 H   0  0  0  0  0  0  0  0  0  0  0  0
    3.9859    3.3561    1.2122 H   0  0  0  0  0  0  0  0  0  0  0  0
    3.2208    4.2732    2.4688 H   0  0  0  0  0  0  0  0  0  0  0  0
    1.0042    3.2236    1.8816 H   0  0  0  0  0  0  0  0  0  0  0  0
    2.2502    2.0247    2.2139 H   0  0  0  0  0  0  0  0  0  0  0  0
    2.2354    6.8533    0.0141 H   0  0  0  0  0  0  0  0  0  0  0  0
    0.2969    5.2430    1.7458 H   0  0  0  0  0  0  0  0  0  0  0  0
    0.1069    6.9133    1.2321 H   0  0  0  0  0  0  0  0  0  0  0  0
    0.1025    5.6536    0.0231 H   0  0  0  0  0  0  0  0  0  0  0  0
    3.7141    6.9690    1.9978 H   0  0  0  0  0  0  0  0  0  0  0  0
    2.1594    7.7734    2.2338 H   0  0  0  0  0  0  0  0  0  0  0  0
    2.4468    6.2057    2.9851 H   0  0  0  0  0  0  0  0  0  0  0  0
   -1.2762   -2.9745    0.8093 H   0  0  0  0  0  0  0  0  0  0  0  0
   -5.2283    0.0619   -0.7745 H   0  0  0  0  0  0  0  0  0  0  0  0
   -7.7943   -1.6772   -0.3902 H   0  0  0  0  0  0  0  0  0  0  0  0
   -6.5375   -5.5536    1.8647 H   0  0  0  0  0  0  0  0  0  0  0  0
   -6.5714   -7.1298    1.2668 H   0  0  0  0  0  0  0  0  0  0  0  0
   -8.6457   -6.4573    0.3956 H   0  0  0  0  0  0  0  0  0  0  0  0
   -3.5623   -4.5895   -1.0643 H   0  0  0  0  0  0  0  0  0  0  0  0
   -3.6491   -6.1256   -1.5454 H   0  0  0  0  0  0  0  0  0  0  0  0
   -4.3748   -4.9402   -3.3899 H   0  0  0  0  0  0  0  0  0  0  0  0
   -5.3391   -3.7995   -2.5021 H   0  0  0  0  0  0  0  0  0  0  0  0
   -6.4905   -5.7627   -3.8902 H   0  0  0  0  0  0  0  0  0  0  0  0
   -7.1874   -5.1707   -2.4154 H   0  0  0  0  0  0  0  0  0  0  0  0
   -5.6525   -7.7183   -2.8692 H   0  0  0  0  0  0  0  0  0  0  0  0
   -7.2173   -7.4915   -2.1084 H   0  0  0  0  0  0  0  0  0  0  0  0
   -4.5521   -7.6037   -0.9285 H   0  0  0  0  0  0  0  0  0  0  0  0
   -5.9891   -7.9263   -0.2573 H   0  0  0  0  0  0  0  0  0  0  0  0
  1  2  2  0  0  0  0
  1  7  1  0  0  0  0
  2  3  1  0  0  0  0
  2 36  1  0  0  0  0
  3  4  2  0  0  0  0
  4  5  1  0  0  0  0
  4 16  1  0  0  0  0
  5  6  2  0  0  0  0
  5 37  1  0  0  0  0
  6  1  1  0  0  0  0
  6 38  1  0  0  0  0
  7  8  1  0  0  0  0
  8  9  1  0  0  0  0
  8 39  1  0  0  0  0
  8 40  1  0  0  0  0
  9 10  1  0  0  0  0
  9 41  1  0  0  0  0
  9 42  1  0  0  0  0
 10 11  1  0  0  0  0
 10 13  1  0  0  0  0
 11 12  1  0  0  0  0
 11 43  1  0  0  0  0
 11 44  1  0  0  0  0
 12  7  1  0  0  0  0
 12 45  1  0  0  0  0
 12 46  1  0  0  0  0
 13 14  1  0  0  0  0
 13 15  1  0  0  0  0
 13 47  1  0  0  0  0
 14 48  1  0  0  0  0
 14 49  1  0  0  0  0
 14 50  1  0  0  0  0
 15 51  1  0  0  0  0
 15 52  1  0  0  0  0
 15 53  1  0  0  0  0
 16 17  1  0  0  0  0
 16 54  1  0  0  0  0
 17 18  2  0  0  0  0
 18 19  1  0  0  0  0
 19 20  2  0  0  0  0
 19 23  1  0  0  0  0
 20 21  1  0  0  0  0
 21 22  2  0  0  0  0
 21 55  1  0  0  0  0
 22 17  1  0  0  0  0
 23 24  1  0  0  0  0
 23 26  1  0  0  0  0
 24 25  2  0  0  0  0
 25 20  1  0  0  0  0
 25 56  1  0  0  0  0
 26 27  1  0  0  0  0
 26 30  1  0  0  0  0
 27 28  1  0  0  0  0
 27 57  1  0  0  0  0
 27 58  1  0  0  0  0
 28 29  1  0  0  0  0
 28 59  1  0  0  0  0
 29 24  1  0  0  0  0
 29 35  2  0  0  0  0
 30 31  1  0  0  0  0
 30 60  1  0  0  0  0
 30 61  1  0  0  0  0
 31 32  1  0  0  0  0
 31 62  1  0  0  0  0
 31 63  1  0  0  0  0
 32 33  1  0  0  0  0
 32 64  1  0  0  0  0
 32 65  1  0  0  0  0
 33 34  1  0  0  0  0
 33 66  1  0  0  0  0
 33 67  1  0  0  0  0
 34 26  1  0  0  0  0
 34 68  1  0  0  0  0
 34 69  1  0  0  0  0
M  END
>  <Mol_ID>
9344

>  <Formula>
C26H34N8O

>  <MolWeight>
474.60116

>  <Cat>
S8568

>  <Name>
G1T38

>  <Synonyms>
Lerociclib

>  <Target>
CDK

>  <Form>
free base

>  <CAS>
1628256-23-4

>  <URL>
http://www.selleck.cn/products/g1t38.html

$$$$
