Gabapentin hcl.cdx
 OpenBabel08302520423D

 29 29  0  0  0  0  0  0  0  0999 V2000
   -1.4386    0.2907   -0.1318 C   0  0  0  0  0  0  0  0  0  0  0  0
   -1.0329   -1.0797    0.3915 C   0  0  0  0  0  0  0  0  0  0  0  0
    0.3540   -1.4856   -0.0916 C   0  0  0  0  0  0  0  0  0  0  0  0
    1.4091   -0.4225    0.2197 C   0  0  0  0  0  0  0  0  0  0  0  0
    1.0528    0.9983   -0.2905 C   0  0  0  0  0  0  0  0  0  0  0  0
   -0.3874    1.3507    0.1939 C   0  0  0  0  0  0  0  0  0  0  0  0
    1.9941    2.0542    0.3540 C   0  0  0  0  0  0  0  0  0  0  0  0
    3.4714    1.9086    0.0756 C   0  0  0  0  0  0  0  0  0  0  0  0
    4.1235    1.1107    0.9458 O   0  0  0  0  0  0  0  0  0  0  0  0
    4.0378    2.4737   -0.8488 O   0  0  0  0  0  0  0  0  0  0  0  0
    1.0824    1.0893   -1.8488 C   0  0  0  0  0  0  0  0  0  0  0  0
    2.3564    0.7446   -2.4648 N   0  0  0  0  0  0  0  0  0  0  0  0
   -1.6096    0.2416   -1.2124 H   0  0  0  0  0  0  0  0  0  0  0  0
   -2.3951    0.5822    0.3183 H   0  0  0  0  0  0  0  0  0  0  0  0
   -1.0475   -1.0679    1.4885 H   0  0  0  0  0  0  0  0  0  0  0  0
   -1.7683   -1.8277    0.0742 H   0  0  0  0  0  0  0  0  0  0  0  0
    0.6397   -2.4271    0.3930 H   0  0  0  0  0  0  0  0  0  0  0  0
    0.3277   -1.6853   -1.1690 H   0  0  0  0  0  0  0  0  0  0  0  0
    1.5338   -0.3901    1.3119 H   0  0  0  0  0  0  0  0  0  0  0  0
    2.3704   -0.7537   -0.1873 H   0  0  0  0  0  0  0  0  0  0  0  0
   -0.7036    2.3107   -0.2332 H   0  0  0  0  0  0  0  0  0  0  0  0
   -0.3801    1.4893    1.2846 H   0  0  0  0  0  0  0  0  0  0  0  0
    1.7103    3.0602    0.0149 H   0  0  0  0  0  0  0  0  0  0  0  0
    1.8624    2.0784    1.4438 H   0  0  0  0  0  0  0  0  0  0  0  0
    3.5488    0.6999    1.6174 H   0  0  0  0  0  0  0  0  0  0  0  0
    0.3339    0.4177   -2.2799 H   0  0  0  0  0  0  0  0  0  0  0  0
    0.8039    2.1023   -2.1647 H   0  0  0  0  0  0  0  0  0  0  0  0
    2.2659    0.7926   -3.4804 H   0  0  0  0  0  0  0  0  0  0  0  0
    3.0662    1.4565   -2.2478 H   0  0  0  0  0  0  0  0  0  0  0  0
  1  2  1  0  0  0  0
  1 13  1  0  0  0  0
  1 14  1  0  0  0  0
  2  3  1  0  0  0  0
  2 15  1  0  0  0  0
  2 16  1  0  0  0  0
  3  4  1  0  0  0  0
  3 17  1  0  0  0  0
  3 18  1  0  0  0  0
  4  5  1  0  0  0  0
  4 19  1  0  0  0  0
  4 20  1  0  0  0  0
  5  6  1  0  0  0  0
  5  7  1  0  0  0  0
  5 11  1  0  0  0  0
  6  1  1  0  0  0  0
  6 21  1  0  0  0  0
  6 22  1  0  0  0  0
  7  8  1  0  0  0  0
  7 23  1  0  0  0  0
  7 24  1  0  0  0  0
  8  9  1  0  0  0  0
  8 10  2  0  0  0  0
  9 25  1  0  0  0  0
 11 12  1  0  0  0  0
 11 26  1  0  0  0  0
 11 27  1  0  0  0  0
 12 28  1  0  0  0  0
 12 29  1  0  0  0  0
M  END
>  <Mol_ID>
4015

>  <Formula>
C9H18ClNO2

>  <MolWeight>
207.69772

>  <Cat>
S1338

>  <Name>
Gabapentin HCl

>  <Synonyms>
Neurontin HCl

>  <Target>
GABA Receptor

>  <Form>
Hydrochloride

>  <CAS>
60142-95-2

>  <URL>
http://selleckchem.com/products/Gabapentin.html

$$$$
