Gabexate mesylate.cdx
 OpenBabel08302522023D

 55 54  0  0  0  0  0  0  0  0999 V2000
    0.7811   -1.1648    0.7414 C   0  0  0  0  0  0  0  0  0  0  0  0
   -0.1771   -1.9422    0.1072 C   0  0  0  0  0  0  0  0  0  0  0  0
   -1.3886   -1.3367   -0.2942 C   0  0  0  0  0  0  0  0  0  0  0  0
   -1.6249    0.0427   -0.1021 C   0  0  0  0  0  0  0  0  0  0  0  0
   -0.6484    0.8015    0.5449 C   0  0  0  0  0  0  0  0  0  0  0  0
    0.5276    0.1890    0.9958 C   0  0  0  0  0  0  0  0  0  0  0  0
    2.0769   -1.5944    1.1485 O   0  0  0  0  0  0  0  0  0  0  0  0
    2.9294   -2.5224    0.5152 C   0  0  0  0  0  0  0  0  0  0  0  0
    2.5758   -3.4440   -0.2072 O   0  0  0  0  0  0  0  0  0  0  0  0
    4.3810   -2.1086    0.7868 C   0  0  0  0  0  0  0  0  0  0  0  0
    5.3931   -3.1381    1.2828 C   0  0  0  0  0  0  0  0  0  0  0  0
    5.2540   -3.5265    2.7558 C   0  0  0  0  0  0  0  0  0  0  0  0
    4.0347   -4.3796    3.0877 C   0  0  0  0  0  0  0  0  0  0  0  0
    3.9850   -5.6919    2.3048 C   0  0  0  0  0  0  0  0  0  0  0  0
    2.8080   -6.4408    2.7124 N   0  0  0  0  0  0  0  0  0  0  0  0
    2.5419   -7.6372    2.1400 C   0  0  0  0  0  0  0  0  0  0  0  0
    1.3478   -8.1048    2.5496 N   0  0  0  0  0  0  0  0  0  0  0  0
    3.3039   -8.2574    1.3194 N   0  0  0  0  0  0  0  0  0  0  0  0
   -2.9307    0.6364   -0.5453 C   0  0  0  0  0  0  0  0  0  0  0  0
   -2.9409    1.9985   -0.4312 O   0  0  0  0  0  0  0  0  0  0  0  0
   -4.2195    2.6409   -0.6194 C   0  0  0  0  0  0  0  0  0  0  0  0
   -4.4889    2.9981   -2.0717 C   0  0  0  0  0  0  0  0  0  0  0  0
   -3.8625   -0.0427   -0.9435 O   0  0  0  0  0  0  0  0  0  0  0  0
    1.6241    1.8475   -1.5184 O   0  0  0  0  0  0  0  0  0  0  0  0
    2.9654    1.5586   -1.0710 S   0  0  0  0  0  0  0  0  0  0  0  0
    3.3551    0.2910   -0.5069 O   0  0  0  0  0  0  0  0  0  0  0  0
    3.9446    1.7881   -2.3258 O   0  0  0  0  0  0  0  0  0  0  0  0
    3.5322    2.8599   -0.0018 C   0  0  0  0  0  0  0  0  0  0  0  0
   -0.0134   -2.9985   -0.0860 H   0  0  0  0  0  0  0  0  0  0  0  0
   -2.1556   -1.9464   -0.7730 H   0  0  0  0  0  0  0  0  0  0  0  0
   -0.7742    1.8716    0.6868 H   0  0  0  0  0  0  0  0  0  0  0  0
    1.2832    0.7870    1.4964 H   0  0  0  0  0  0  0  0  0  0  0  0
    4.7629   -1.7332   -0.1724 H   0  0  0  0  0  0  0  0  0  0  0  0
    4.3871   -1.2531    1.4733 H   0  0  0  0  0  0  0  0  0  0  0  0
    5.4148   -4.0190    0.6350 H   0  0  0  0  0  0  0  0  0  0  0  0
    6.3880   -2.6785    1.1819 H   0  0  0  0  0  0  0  0  0  0  0  0
    6.1571   -4.0736    3.0582 H   0  0  0  0  0  0  0  0  0  0  0  0
    5.2323   -2.6190    3.3723 H   0  0  0  0  0  0  0  0  0  0  0  0
    4.0526   -4.6039    4.1621 H   0  0  0  0  0  0  0  0  0  0  0  0
    3.1191   -3.8030    2.9183 H   0  0  0  0  0  0  0  0  0  0  0  0
    3.9321   -5.5005    1.2289 H   0  0  0  0  0  0  0  0  0  0  0  0
    4.8911   -6.2759    2.5049 H   0  0  0  0  0  0  0  0  0  0  0  0
    1.9785   -5.8615    2.7461 H   0  0  0  0  0  0  0  0  0  0  0  0
    1.2167   -9.0973    2.3963 H   0  0  0  0  0  0  0  0  0  0  0  0
    1.1613   -7.8648    3.5175 H   0  0  0  0  0  0  0  0  0  0  0  0
    2.8459   -9.1133    1.0062 H   0  0  0  0  0  0  0  0  0  0  0  0
   -5.0287    2.0225   -0.2147 H   0  0  0  0  0  0  0  0  0  0  0  0
   -4.2022    3.5625   -0.0273 H   0  0  0  0  0  0  0  0  0  0  0  0
   -4.3806    2.1299   -2.7275 H   0  0  0  0  0  0  0  0  0  0  0  0
   -5.5036    3.3974   -2.1849 H   0  0  0  0  0  0  0  0  0  0  0  0
   -3.7865    3.7613   -2.4230 H   0  0  0  0  0  0  0  0  0  0  0  0
    3.9373    0.9544   -2.8470 H   0  0  0  0  0  0  0  0  0  0  0  0
    3.3156    3.8231   -0.4646 H   0  0  0  0  0  0  0  0  0  0  0  0
    2.9891    2.7743    0.9442 H   0  0  0  0  0  0  0  0  0  0  0  0
    4.6006    2.7322    0.1784 H   0  0  0  0  0  0  0  0  0  0  0  0
  1  2  2  0  0  0  0
  1  7  1  0  0  0  0
  2  3  1  0  0  0  0
  2 29  1  0  0  0  0
  3  4  2  0  0  0  0
  3 30  1  0  0  0  0
  4  5  1  0  0  0  0
  4 19  1  0  0  0  0
  5  6  2  0  0  0  0
  5 31  1  0  0  0  0
  6  1  1  0  0  0  0
  6 32  1  0  0  0  0
  7  8  1  0  0  0  0
  8  9  2  0  0  0  0
  8 10  1  0  0  0  0
 10 11  1  0  0  0  0
 10 33  1  0  0  0  0
 10 34  1  0  0  0  0
 11 12  1  0  0  0  0
 11 35  1  0  0  0  0
 11 36  1  0  0  0  0
 12 13  1  0  0  0  0
 12 37  1  0  0  0  0
 12 38  1  0  0  0  0
 13 14  1  0  0  0  0
 13 39  1  0  0  0  0
 13 40  1  0  0  0  0
 14 15  1  0  0  0  0
 14 41  1  0  0  0  0
 14 42  1  0  0  0  0
 15 16  1  0  0  0  0
 15 43  1  0  0  0  0
 16 17  1  0  0  0  0
 16 18  2  0  0  0  0
 17 44  1  0  0  0  0
 17 45  1  0  0  0  0
 18 46  1  0  0  0  0
 19 20  1  0  0  0  0
 19 23  2  0  0  0  0
 20 21  1  0  0  0  0
 21 22  1  0  0  0  0
 21 47  1  0  0  0  0
 21 48  1  0  0  0  0
 22 49  1  0  0  0  0
 22 50  1  0  0  0  0
 22 51  1  0  0  0  0
 24 25  2  0  0  0  0
 25 26  2  0  0  0  0
 25 27  1  0  0  0  0
 25 28  1  0  0  0  0
 27 52  1  0  0  0  0
 28 53  1  0  0  0  0
 28 54  1  0  0  0  0
 28 55  1  0  0  0  0
M  END
>  <Mol_ID>
1146

>  <Formula>
C17H27N3O7S

>  <MolWeight>
417.47718

>  <Cat>
S2101

>  <Name>
Gabexate Mesylate

>  <Synonyms>
FOY

>  <Target>
Serine Protease

>  <Form>
Mesylate

>  <CAS>
56974-61-9

>  <URL>
http://selleckchem.com/products/gabexate-mesylate.html

$$$$
