GAK inhibitor 49
 OpenBabel08302521323D

 49 51  0  0  0  0  0  0  0  0999 V2000
   -1.0563    1.3702    0.1185 N   0  0  0  0  0  0  0  0  0  0  0  0
   -2.2222    0.7369    0.3001 C   0  0  0  0  0  0  0  0  0  0  0  0
   -2.3458   -0.6331    0.3278 C   0  0  0  0  0  0  0  0  0  0  0  0
   -1.2065   -1.4281    0.1242 C   0  0  0  0  0  0  0  0  0  0  0  0
    0.0528   -0.7787   -0.0885 C   0  0  0  0  0  0  0  0  0  0  0  0
    1.3066   -1.4092   -0.3645 C   0  0  0  0  0  0  0  0  0  0  0  0
    2.5024   -0.6868   -0.5922 C   0  0  0  0  0  0  0  0  0  0  0  0
    2.4639    0.7085   -0.5163 C   0  0  0  0  0  0  0  0  0  0  0  0
    1.2267    1.3245   -0.2419 C   0  0  0  0  0  0  0  0  0  0  0  0
    0.0389    0.6281   -0.0647 C   0  0  0  0  0  0  0  0  0  0  0  0
   -1.3354   -2.8427    0.0670 N   0  0  0  0  0  0  0  0  0  0  0  0
   -2.4801   -3.6429   -0.1305 C   0  0  0  0  0  0  0  0  0  0  0  0
   -3.4869   -3.2724   -1.0269 C   0  0  0  0  0  0  0  0  0  0  0  0
   -4.6753   -4.0095   -1.1718 C   0  0  0  0  0  0  0  0  0  0  0  0
   -4.8762   -5.1672   -0.3898 C   0  0  0  0  0  0  0  0  0  0  0  0
   -3.8472   -5.5713    0.4920 C   0  0  0  0  0  0  0  0  0  0  0  0
   -2.6777   -4.7990    0.6250 C   0  0  0  0  0  0  0  0  0  0  0  0
   -3.8641   -6.6585    1.3355 O   0  0  0  0  0  0  0  0  0  0  0  0
   -4.5529   -7.8188    0.8808 C   0  0  0  0  0  0  0  0  0  0  0  0
   -6.0042   -5.9471   -0.3724 O   0  0  0  0  0  0  0  0  0  0  0  0
   -7.1578   -5.5723   -1.1083 C   0  0  0  0  0  0  0  0  0  0  0  0
   -5.6521   -3.6414   -2.0627 O   0  0  0  0  0  0  0  0  0  0  0  0
   -5.4729   -2.4489   -2.8171 C   0  0  0  0  0  0  0  0  0  0  0  0
    3.3962    1.6708   -0.7503 O   0  0  0  0  0  0  0  0  0  0  0  0
    4.7769    1.3989   -0.8150 C   0  0  0  0  0  0  0  0  0  0  0  0
    3.5237   -1.4293   -1.1218 O   0  0  0  0  0  0  0  0  0  0  0  0
    4.6882   -1.5845   -0.3188 C   0  0  0  0  0  0  0  0  0  0  0  0
   -3.0880    1.3839    0.4307 H   0  0  0  0  0  0  0  0  0  0  0  0
   -3.3204   -1.0646    0.5206 H   0  0  0  0  0  0  0  0  0  0  0  0
    1.3455   -2.4948   -0.4627 H   0  0  0  0  0  0  0  0  0  0  0  0
    1.1874    2.4075   -0.2272 H   0  0  0  0  0  0  0  0  0  0  0  0
   -0.4950   -3.3644    0.2838 H   0  0  0  0  0  0  0  0  0  0  0  0
   -3.3069   -2.3890   -1.6313 H   0  0  0  0  0  0  0  0  0  0  0  0
   -1.9311   -5.1106    1.3522 H   0  0  0  0  0  0  0  0  0  0  0  0
   -5.6135   -7.7651    1.1439 H   0  0  0  0  0  0  0  0  0  0  0  0
   -4.4113   -7.9934   -0.1913 H   0  0  0  0  0  0  0  0  0  0  0  0
   -4.1360   -8.6819    1.4097 H   0  0  0  0  0  0  0  0  0  0  0  0
   -7.5160   -4.5782   -0.8230 H   0  0  0  0  0  0  0  0  0  0  0  0
   -6.9836   -5.6603   -2.1853 H   0  0  0  0  0  0  0  0  0  0  0  0
   -7.9532   -6.2815   -0.8559 H   0  0  0  0  0  0  0  0  0  0  0  0
   -5.4060   -1.5725   -2.1630 H   0  0  0  0  0  0  0  0  0  0  0  0
   -4.6007   -2.5243   -3.4744 H   0  0  0  0  0  0  0  0  0  0  0  0
   -6.3541   -2.3200   -3.4525 H   0  0  0  0  0  0  0  0  0  0  0  0
    5.1428    0.9517    0.1120 H   0  0  0  0  0  0  0  0  0  0  0  0
    5.0180    0.8152   -1.7039 H   0  0  0  0  0  0  0  0  0  0  0  0
    5.2889    2.3608   -0.9122 H   0  0  0  0  0  0  0  0  0  0  0  0
    5.5288   -1.1241   -0.8478 H   0  0  0  0  0  0  0  0  0  0  0  0
    4.5976   -1.1667    0.6883 H   0  0  0  0  0  0  0  0  0  0  0  0
    4.9327   -2.6478   -0.2413 H   0  0  0  0  0  0  0  0  0  0  0  0
  1  2  2  0  0  0  0
  1 10  1  0  0  0  0
  2  3  1  0  0  0  0
  2 28  1  0  0  0  0
  3  4  2  0  0  0  0
  3 29  1  0  0  0  0
  4  5  1  0  0  0  0
  4 11  1  0  0  0  0
  5  6  1  0  0  0  0
  5 10  2  0  0  0  0
  6  7  2  0  0  0  0
  6 30  1  0  0  0  0
  7  8  1  0  0  0  0
  7 26  1  0  0  0  0
  8  9  2  0  0  0  0
  8 24  1  0  0  0  0
  9 10  1  0  0  0  0
  9 31  1  0  0  0  0
 11 12  1  0  0  0  0
 11 32  1  0  0  0  0
 12 13  2  0  0  0  0
 12 17  1  0  0  0  0
 13 14  1  0  0  0  0
 13 33  1  0  0  0  0
 14 15  2  0  0  0  0
 14 22  1  0  0  0  0
 15 16  1  0  0  0  0
 15 20  1  0  0  0  0
 16 17  2  0  0  0  0
 16 18  1  0  0  0  0
 17 34  1  0  0  0  0
 18 19  1  0  0  0  0
 19 35  1  0  0  0  0
 19 36  1  0  0  0  0
 19 37  1  0  0  0  0
 20 21  1  0  0  0  0
 21 38  1  0  0  0  0
 21 39  1  0  0  0  0
 21 40  1  0  0  0  0
 22 23  1  0  0  0  0
 23 41  1  0  0  0  0
 23 42  1  0  0  0  0
 23 43  1  0  0  0  0
 24 25  1  0  0  0  0
 25 44  1  0  0  0  0
 25 45  1  0  0  0  0
 25 46  1  0  0  0  0
 26 27  1  0  0  0  0
 27 47  1  0  0  0  0
 27 48  1  0  0  0  0
 27 49  1  0  0  0  0
M  END
>  <Mol_ID>
6187

>  <Formula>
C20H22N2O5

>  <MolWeight>
370.39908

>  <Cat>
S0848

>  <Name>
GAK inhibitor 49

>  <Synonyms>
N/A

>  <Target>
Serine/threonin kinase

>  <Form>
free base

>  <CAS>
319492-82-5

>  <URL>
http://www.selleckchem.com/products/gak-inhibitor-49.html

$$$$
