Galanthamine hydrobromide.cdx
 OpenBabel08302520423D

 44 46  0  0  0  0  0  0  0  0999 V2000
    4.1264    2.8797    1.5143 C   0  0  0  0  0  0  0  0  0  0  0  0
    4.6513    3.1530    0.2714 C   0  0  0  0  0  0  0  0  0  0  0  0
    5.6305    4.1720    0.1560 C   0  0  0  0  0  0  0  0  0  0  0  0
    6.0198    4.8371    1.3421 C   0  0  0  0  0  0  0  0  0  0  0  0
    5.4632    4.5088    2.5955 C   0  0  0  0  0  0  0  0  0  0  0  0
    4.4943    3.4975    2.7029 C   0  0  0  0  0  0  0  0  0  0  0  0
    3.1839    1.8097    1.4086 C   0  0  1  0  0  0  0  0  0  0  0  0
    3.0788    1.5785   -0.1210 C   0  0  1  0  0  0  0  0  0  0  0  0
    4.1226    2.3232   -0.6827 O   0  0  0  0  0  0  0  0  0  0  0  0
    3.8468    0.6200    2.1009 C   0  0  0  0  0  0  0  0  0  0  0  0
    3.4128   -0.5991    1.8747 C   0  0  0  0  0  0  0  0  0  0  0  0
    2.3529   -0.7482    0.8376 C   0  0  1  0  0  0  0  0  0  0  0  0
    2.9409    0.0124   -0.4206 C   0  0  0  0  0  0  0  0  0  0  0  0
    6.2436    4.5642   -0.9903 O   0  0  0  0  0  0  0  0  0  0  0  0
    5.8605    4.3196   -2.2869 C   0  0  0  0  0  0  0  0  0  0  0  0
    2.1206   -2.1122    0.6177 O   0  0  0  0  0  0  0  0  0  0  0  0
    4.0050    2.9781    4.0672 C   0  0  0  0  0  0  0  0  0  0  0  0
    1.8210    2.3088    1.9439 C   0  0  0  0  0  0  0  0  0  0  0  0
    1.6467    2.0488    3.4013 C   0  0  0  0  0  0  0  0  0  0  0  0
    2.5442    2.7729    4.3413 N   0  0  0  0  0  0  0  0  0  0  0  0
    2.4540    1.9802    5.5965 C   0  0  0  0  0  0  0  0  0  0  0  0
   -0.4801    0.1713   -2.0745 Br  0  0  0  0  0  0  0  0  0  0  0  0
    6.7820    5.6061    1.2936 H   0  0  0  0  0  0  0  0  0  0  0  0
    5.8274    5.0087    3.4815 H   0  0  0  0  0  0  0  0  0  0  0  0
    2.1393    2.0426   -0.5115 H   0  0  0  0  0  0  0  0  0  0  0  0
    4.7483    0.7169    2.6946 H   0  0  0  0  0  0  0  0  0  0  0  0
    3.9253   -1.4429    2.3352 H   0  0  0  0  0  0  0  0  0  0  0  0
    1.3980   -0.2911    1.1724 H   0  0  0  0  0  0  0  0  0  0  0  0
    2.3235   -0.1597   -1.3159 H   0  0  0  0  0  0  0  0  0  0  0  0
    3.9433   -0.4230   -0.6167 H   0  0  0  0  0  0  0  0  0  0  0  0
    5.8133    3.2329   -2.4905 H   0  0  0  0  0  0  0  0  0  0  0  0
    4.8857    4.8120   -2.4866 H   0  0  0  0  0  0  0  0  0  0  0  0
    6.6169    4.7757   -2.9652 H   0  0  0  0  0  0  0  0  0  0  0  0
    1.7421   -2.4668    1.4743 H   0  0  0  0  0  0  0  0  0  0  0  0
    4.4042    3.6564    4.8479 H   0  0  0  0  0  0  0  0  0  0  0  0
    4.5490    2.0362    4.2587 H   0  0  0  0  0  0  0  0  0  0  0  0
    0.9853    1.7681    1.4376 H   0  0  0  0  0  0  0  0  0  0  0  0
    1.6400    3.3812    1.6706 H   0  0  0  0  0  0  0  0  0  0  0  0
    1.6981    0.9409    3.5199 H   0  0  0  0  0  0  0  0  0  0  0  0
    0.5986    2.3299    3.6532 H   0  0  0  0  0  0  0  0  0  0  0  0
    2.8736    0.9506    5.4371 H   0  0  0  0  0  0  0  0  0  0  0  0
    3.0246    2.4435    6.4239 H   0  0  0  0  0  0  0  0  0  0  0  0
    1.3972    1.8441    5.9223 H   0  0  0  0  0  0  0  0  0  0  0  0
    0.7590   -0.0395   -2.9476 H   0  0  0  0  0  0  0  0  0  0  0  0
  1  2  1  0  0  0  0
  2  3  2  0  0  0  0
  3  4  1  0  0  0  0
  3 14  1  0  0  0  0
  4  5  2  0  0  0  0
  4 23  1  0  0  0  0
  5  6  1  0  0  0  0
  5 24  1  0  0  0  0
  6  1  2  0  0  0  0
  6 17  1  0  0  0  0
  7  1  1  1  0  0  0
  7  8  1  0  0  0  0
  7 10  1  0  0  0  0
  7 18  1  0  0  0  0
  8  9  1  0  0  0  0
  8 13  1  0  0  0  0
  8 25  1  6  0  0  0
  9  2  1  0  0  0  0
 10 11  2  0  0  0  0
 10 26  1  0  0  0  0
 11 12  1  0  0  0  0
 11 27  1  0  0  0  0
 12 13  1  0  0  0  0
 12 16  1  0  0  0  0
 12 28  1  1  0  0  0
 13 29  1  0  0  0  0
 13 30  1  0  0  0  0
 14 15  1  0  0  0  0
 15 31  1  0  0  0  0
 15 32  1  0  0  0  0
 15 33  1  0  0  0  0
 16 34  1  0  0  0  0
 17 20  1  0  0  0  0
 17 35  1  0  0  0  0
 17 36  1  0  0  0  0
 18 19  1  0  0  0  0
 18 37  1  0  0  0  0
 18 38  1  0  0  0  0
 19 20  1  0  0  0  0
 19 39  1  0  0  0  0
 19 40  1  0  0  0  0
 20 21  1  0  0  0  0
 21 41  1  0  0  0  0
 21 42  1  0  0  0  0
 21 43  1  0  0  0  0
 22 44  1  0  0  0  0
M  END
>  <Mol_ID>
4016

>  <Formula>
C17H22BrNO3

>  <MolWeight>
368.26548

>  <Cat>
S1339

>  <Name>
Galanthamine HBr

>  <Synonyms>
N/A

>  <Target>
AChR,ADC Cytotoxin

>  <Form>
Hydrobromide

>  <CAS>
1953-04-4

>  <URL>
http://selleckchem.com/products/Galanthamine-hydrobromide.html

$$$$
