Galangin 3-methyl ether
 OpenBabel08302521253D

 33 35  0  0  0  0  0  0  0  0999 V2000
    1.5550   -0.0719   -1.6900 C   0  0  0  0  0  0  0  0  0  0  0  0
    1.4851   -1.0566   -0.7037 C   0  0  0  0  0  0  0  0  0  0  0  0
    0.5073   -0.8860    0.3107 C   0  0  0  0  0  0  0  0  0  0  0  0
   -0.3119    0.2402    0.3741 C   0  0  0  0  0  0  0  0  0  0  0  0
   -0.2135    1.2127   -0.6055 C   0  0  0  0  0  0  0  0  0  0  0  0
    0.7089    1.0512   -1.6445 C   0  0  0  0  0  0  0  0  0  0  0  0
    2.3942   -2.2587   -0.6505 C   0  0  0  0  0  0  0  0  0  0  0  0
    3.5572   -2.2278   -1.4729 O   0  0  0  0  0  0  0  0  0  0  0  0
    4.7463   -2.0647   -0.7574 C   0  0  0  0  0  0  0  0  0  0  0  0
    4.6943   -1.6373    0.5748 C   0  0  0  0  0  0  0  0  0  0  0  0
    3.4170   -1.8712    1.2811 C   0  0  0  0  0  0  0  0  0  0  0  0
    2.5346   -2.8488    0.5566 C   0  0  0  0  0  0  0  0  0  0  0  0
    5.9865   -2.3285   -1.3311 C   0  0  0  0  0  0  0  0  0  0  0  0
    7.1385   -2.0837   -0.5718 C   0  0  0  0  0  0  0  0  0  0  0  0
    7.0750   -1.4666    0.6815 C   0  0  0  0  0  0  0  0  0  0  0  0
    5.8358   -1.2251    1.2520 C   0  0  0  0  0  0  0  0  0  0  0  0
    2.9505   -4.1669    0.7359 O   0  0  0  0  0  0  0  0  0  0  0  0
    2.4904   -5.0828   -0.2557 C   0  0  0  0  0  0  0  0  0  0  0  0
    3.1622   -1.3667    2.3717 O   0  0  0  0  0  0  0  0  0  0  0  0
    5.7861   -0.6073    2.4666 O   0  0  0  0  0  0  0  0  0  0  0  0
    8.3437   -2.4764   -1.0816 O   0  0  0  0  0  0  0  0  0  0  0  0
    2.2703   -0.1486   -2.5067 H   0  0  0  0  0  0  0  0  0  0  0  0
    0.3952   -1.6183    1.1105 H   0  0  0  0  0  0  0  0  0  0  0  0
   -1.0114    0.3525    1.2012 H   0  0  0  0  0  0  0  0  0  0  0  0
   -0.8532    2.0935   -0.5627 H   0  0  0  0  0  0  0  0  0  0  0  0
    0.7756    1.8151   -2.4152 H   0  0  0  0  0  0  0  0  0  0  0  0
    6.0696   -2.7657   -2.3205 H   0  0  0  0  0  0  0  0  0  0  0  0
    7.9711   -1.2065    1.2358 H   0  0  0  0  0  0  0  0  0  0  0  0
    1.4118   -4.9892   -0.4224 H   0  0  0  0  0  0  0  0  0  0  0  0
    3.0391   -4.9512   -1.1940 H   0  0  0  0  0  0  0  0  0  0  0  0
    2.6902   -6.0956    0.1068 H   0  0  0  0  0  0  0  0  0  0  0  0
    4.8396   -0.4692    2.6978 H   0  0  0  0  0  0  0  0  0  0  0  0
    9.0140   -2.4057   -0.3780 H   0  0  0  0  0  0  0  0  0  0  0  0
  1  2  2  0  0  0  0
  1 22  1  0  0  0  0
  2  3  1  0  0  0  0
  2  7  1  0  0  0  0
  3  4  2  0  0  0  0
  3 23  1  0  0  0  0
  4  5  1  0  0  0  0
  4 24  1  0  0  0  0
  5  6  2  0  0  0  0
  5 25  1  0  0  0  0
  6  1  1  0  0  0  0
  6 26  1  0  0  0  0
  7  8  1  0  0  0  0
  8  9  1  0  0  0  0
  9 10  2  0  0  0  0
  9 13  1  0  0  0  0
 10 11  1  0  0  0  0
 11 12  1  0  0  0  0
 11 19  2  0  0  0  0
 12  7  2  0  0  0  0
 12 17  1  0  0  0  0
 13 14  2  0  0  0  0
 13 27  1  0  0  0  0
 14 15  1  0  0  0  0
 14 21  1  0  0  0  0
 15 16  2  0  0  0  0
 15 28  1  0  0  0  0
 16 10  1  0  0  0  0
 16 20  1  0  0  0  0
 17 18  1  0  0  0  0
 18 29  1  0  0  0  0
 18 30  1  0  0  0  0
 18 31  1  0  0  0  0
 20 32  1  0  0  0  0
 21 33  1  0  0  0  0
M  END
>  <Mol_ID>
5176

>  <Formula>
C16H12O5

>  <MolWeight>
284.26348

>  <Cat>
S3307

>  <Name>
Galangin 3-methyl ether

>  <Synonyms>
3-O-Methylgalangin, 3-Methylgalangin

>  <Target>
Fungal

>  <Form>
free base

>  <CAS>
6665-74-3

>  <URL>
http://www.selleckchem.com/products/galangin-3-methyl-ether.html

$$$$
