Gamabufotalin
 OpenBabel08302521463D

 63 67  0  0  1  0  0  0  0  0999 V2000
    2.7483   -2.2215    0.7734 C   0  0  0  0  0  0  0  0  0  0  0  0
    2.3884    0.6852   -1.3018 O   0  0  0  0  0  0  0  0  0  0  0  0
   -0.8977   -0.0199    2.0692 O   0  0  0  0  0  0  0  0  0  0  0  0
   -2.5614   -0.3805   -2.2510 C   0  0  0  0  0  0  0  0  0  0  0  0
    6.0098    1.5020   -2.8273 O   0  0  0  0  0  0  0  0  0  0  0  0
   -6.2672    1.9337    0.1372 O   0  0  0  0  0  0  0  0  0  0  0  0
    2.0004   -0.8227    0.7772 C   0  0  2  0  0  0  0  0  0  0  0  0
    1.5513    0.5542   -0.1369 C   0  0  2  0  0  0  0  0  0  0  0  0
    3.0892   -0.0885    1.6166 C   0  0  2  0  0  0  0  0  0  0  0  0
    0.6359   -1.5311    1.1003 C   0  0  0  0  0  0  0  0  0  0  0  0
    0.1219    0.8224   -0.7362 C   0  0  1  0  0  0  0  0  0  0  0  0
    1.9186    1.7669    0.8270 C   0  0  0  0  0  0  0  0  0  0  0  0
    2.3766    1.1477    2.1096 C   0  0  0  0  0  0  0  0  0  0  0  0
   -0.7000   -0.8786    0.9776 C   0  0  2  0  0  0  0  0  0  0  0  0
   -0.9242   -0.2471   -0.3963 C   0  0  3  0  0  0  0  0  0  0  0  0
   -0.3866    2.2944   -0.6260 C   0  0  0  0  0  0  0  0  0  0  0  0
   -2.4224    0.1330   -0.7812 C   0  0  3  0  0  0  0  0  0  0  0  0
   -1.6822    2.5134   -1.3804 C   0  0  0  0  0  0  0  0  0  0  0  0
   -2.7155    1.6514   -0.6719 C   0  0  3  0  0  0  0  0  0  0  0  0
   -3.4713   -0.6092    0.1239 C   0  0  0  0  0  0  0  0  0  0  0  0
   -4.1432    2.0974   -1.0192 C   0  0  0  0  0  0  0  0  0  0  0  0
   -4.6422    0.2358    0.5972 C   0  0  0  0  0  0  0  0  0  0  0  0
   -5.2064    1.1545   -0.4583 C   0  0  3  0  0  0  0  0  0  0  0  0
    4.3376    0.1553    0.6003 C   0  0  0  0  0  0  0  0  0  0  0  0
    5.1016    1.3815    0.6102 C   0  0  0  0  0  0  0  0  0  0  0  0
    4.5696   -0.5954   -0.5101 C   0  0  0  0  0  0  0  0  0  0  0  0
    5.6825    1.8250   -0.5068 C   0  0  0  0  0  0  0  0  0  0  0  0
    5.3901   -0.2914   -1.5920 O   0  0  0  0  0  0  0  0  0  0  0  0
    5.6868    1.0242   -1.7521 C   0  0  0  0  0  0  0  0  0  0  0  0
    2.4901   -2.7772    1.7049 H   0  0  0  0  0  0  0  0  0  0  0  0
    3.8286   -2.2320    0.9539 H   0  0  0  0  0  0  0  0  0  0  0  0
    2.5358   -2.8837   -0.0594 H   0  0  0  0  0  0  0  0  0  0  0  0
    2.2991    1.5982   -1.6370 H   0  0  0  0  0  0  0  0  0  0  0  0
   -0.7438   -0.5685    2.8633 H   0  0  0  0  0  0  0  0  0  0  0  0
   -2.4941   -1.4783   -2.2796 H   0  0  0  0  0  0  0  0  0  0  0  0
   -1.7393   -0.0196   -2.8839 H   0  0  0  0  0  0  0  0  0  0  0  0
   -3.4985   -0.0949   -2.7303 H   0  0  0  0  0  0  0  0  0  0  0  0
   -5.9319    2.3163    0.9451 H   0  0  0  0  0  0  0  0  0  0  0  0
    3.4277   -0.6466    2.5009 H   0  0  0  0  0  0  0  0  0  0  0  0
    0.6634   -2.0818    2.0477 H   0  0  0  0  0  0  0  0  0  0  0  0
    0.5502   -2.3204    0.3135 H   0  0  0  0  0  0  0  0  0  0  0  0
    0.2396    0.7317   -1.8277 H   0  0  0  0  0  0  0  0  0  0  0  0
    2.6826    2.4195    0.3938 H   0  0  0  0  0  0  0  0  0  0  0  0
    1.1105    2.4349    1.1285 H   0  0  0  0  0  0  0  0  0  0  0  0
    2.9818    1.8245    2.7186 H   0  0  0  0  0  0  0  0  0  0  0  0
    1.5015    0.8781    2.7199 H   0  0  0  0  0  0  0  0  0  0  0  0
   -1.3857   -1.7365    1.0619 H   0  0  0  0  0  0  0  0  0  0  0  0
   -0.6481   -1.0625   -1.0825 H   0  0  0  0  0  0  0  0  0  0  0  0
    0.3633    3.0064   -0.9951 H   0  0  0  0  0  0  0  0  0  0  0  0
   -0.6033    2.5637    0.4168 H   0  0  0  0  0  0  0  0  0  0  0  0
   -1.9595    3.5753   -1.3192 H   0  0  0  0  0  0  0  0  0  0  0  0
   -1.5688    2.2781   -2.4436 H   0  0  0  0  0  0  0  0  0  0  0  0
   -2.6157    1.8917    0.3957 H   0  0  0  0  0  0  0  0  0  0  0  0
   -3.0426   -0.9136    1.0699 H   0  0  0  0  0  0  0  0  0  0  0  0
   -3.8113   -1.5336   -0.3523 H   0  0  0  0  0  0  0  0  0  0  0  0
   -4.2879    2.2045   -2.0994 H   0  0  0  0  0  0  0  0  0  0  0  0
   -4.2923    3.1045   -0.6025 H   0  0  0  0  0  0  0  0  0  0  0  0
   -5.4276   -0.4216    1.0038 H   0  0  0  0  0  0  0  0  0  0  0  0
   -4.3212    0.8305    1.4726 H   0  0  0  0  0  0  0  0  0  0  0  0
   -5.6475    0.5587   -1.2699 H   0  0  0  0  0  0  0  0  0  0  0  0
    5.1106    1.9836    1.5211 H   0  0  0  0  0  0  0  0  0  0  0  0
    4.0231   -1.4589   -0.8689 H   0  0  0  0  0  0  0  0  0  0  0  0
    6.1744    2.7787   -0.5904 H   0  0  0  0  0  0  0  0  0  0  0  0
  1 30  1  0  0  0  0
  1 31  1  0  0  0  0
  1 32  1  0  0  0  0
  2 33  1  0  0  0  0
  3 34  1  0  0  0  0
  4 35  1  0  0  0  0
  4 36  1  0  0  0  0
  4 37  1  0  0  0  0
  5 29  2  0  0  0  0
  6 38  1  0  0  0  0
  7  1  1  6  0  0  0
  7  8  1  0  0  0  0
  7  9  1  0  0  0  0
  7 10  1  0  0  0  0
  8  2  1  6  0  0  0
  8 11  1  0  0  0  0
  8 12  1  0  0  0  0
  9 13  1  0  0  0  0
  9 39  1  1  0  0  0
  9 24  1  0  0  0  0
 10 14  1  0  0  0  0
 10 40  1  0  0  0  0
 10 41  1  0  0  0  0
 11 15  1  0  0  0  0
 11 16  1  0  0  0  0
 11 42  1  6  0  0  0
 12 13  1  0  0  0  0
 12 43  1  0  0  0  0
 12 44  1  0  0  0  0
 13 45  1  0  0  0  0
 13 46  1  0  0  0  0
 14  3  1  0  0  0  0
 14 47  1  1  0  0  0
 15 14  1  0  0  0  0
 15 17  1  0  0  0  0
 15 48  1  0  0  0  0
 16 18  1  0  0  0  0
 16 49  1  0  0  0  0
 16 50  1  0  0  0  0
 17  4  1  0  0  0  0
 17 19  1  0  0  0  0
 17 20  1  0  0  0  0
 18 51  1  0  0  0  0
 18 52  1  0  0  0  0
 19 18  1  0  0  0  0
 19 21  1  0  0  0  0
 19 53  1  0  0  0  0
 20 22  1  0  0  0  0
 20 54  1  0  0  0  0
 20 55  1  0  0  0  0
 21 23  1  0  0  0  0
 21 56  1  0  0  0  0
 21 57  1  0  0  0  0
 22 23  1  0  0  0  0
 22 58  1  0  0  0  0
 22 59  1  0  0  0  0
 23  6  1  0  0  0  0
 23 60  1  0  0  0  0
 24 25  1  0  0  0  0
 24 26  2  0  0  0  0
 25 27  2  0  0  0  0
 25 61  1  0  0  0  0
 26 28  1  0  0  0  0
 26 62  1  0  0  0  0
 27 29  1  0  0  0  0
 27 63  1  0  0  0  0
 28 29  1  0  0  0  0
M  END
>  <Mol_ID>
9718

>  <Formula>
C24H34O5

>  <MolWeight>
402.52376

>  <Cat>
E0913

>  <Name>
Gamabufotalin

>  <Synonyms>
Gamabufagin

>  <Target>
VEGFR-2

>  <Form>
Free Base

>  <CAS>
465-11-2

>  <URL>
https://www.selleckchem.com/products/gamabufotalin.html

$$$$
