Gamcemetinib (CC-99677)
 OpenBabel08302521353D

 52 56  0  0  1  0  0  0  0  0999 V2000
    1.2986    0.1658    0.0699 O   0  0  0  0  0  0  0  0  0  0  0  0
    4.2949   -3.1903    0.4844 C   0  0  0  0  0  0  0  0  0  0  0  0
    7.3865    6.2764   -3.8731 O   0  0  0  0  0  0  0  0  0  0  0  0
    6.4130    8.9024   -2.5403 C   0  0  0  0  0  0  0  0  0  0  0  0
    7.4474    8.6185   -1.6080 O   0  0  0  0  0  0  0  0  0  0  0  0
    6.9238    8.8614   -0.3033 C   0  0  0  0  0  0  0  0  0  0  0  0
    7.9517    8.5256    0.7532 C   0  0  0  0  0  0  0  0  0  0  0  0
    4.8672    1.6923   -3.0250 C   0  0  0  0  0  0  0  0  0  0  0  0
    4.1981    0.4638   -2.3006 C   0  0  0  0  0  0  0  0  0  0  0  0
    6.0838    2.2282   -4.1772 C   0  0  0  0  0  0  0  0  0  0  0  0
    4.1624    2.6277   -2.2216 C   0  0  0  0  0  0  0  0  0  0  0  0
    3.2686    0.6920   -1.2359 C   0  0  0  0  0  0  0  0  0  0  0  0
    4.4506   -0.8233   -2.5640 N   0  0  0  0  0  0  0  0  0  0  0  0
    5.6279    3.4964   -4.1003 C   0  0  0  0  0  0  0  0  0  0  0  0
    7.2412    2.8179   -5.2897 C   0  0  0  0  0  0  0  0  0  0  0  0
    3.4575    2.2566   -0.7233 S   0  0  0  0  0  0  0  0  0  0  0  0
    3.9463    3.8996   -2.5771 C   0  0  0  0  0  0  0  0  0  0  0  0
    2.4519   -0.0837   -0.2890 C   0  0  0  0  0  0  0  0  0  0  0  0
    4.8270   -1.6433   -1.4045 C   0  0  0  0  0  0  0  0  0  0  0  0
    6.5018    4.3166   -3.6562 N   0  0  0  0  0  0  0  0  0  0  0  0
    4.5431    4.2231   -3.7239 C   0  0  0  0  0  0  0  0  0  0  0  0
    7.7326    4.2889   -5.3911 C   0  0  0  0  0  0  0  0  0  0  0  0
    3.1796   -1.0304    0.3806 N   0  0  0  0  0  0  0  0  0  0  0  0
    3.7228   -2.1017   -0.4141 C   0  0  2  0  0  0  0  0  0  0  0  0
    7.1490    5.0772   -4.4737 C   0  0  0  0  0  0  0  0  0  0  0  0
    7.2469    7.4516   -4.5749 C   0  0  0  0  0  0  0  0  0  0  0  0
    6.8638    8.6619   -3.9624 C   0  0  0  0  0  0  0  0  0  0  0  0
    7.3427    7.3169   -5.9126 N   0  0  0  0  0  0  0  0  0  0  0  0
    6.6983    9.7189   -4.8543 C   0  0  0  0  0  0  0  0  0  0  0  0
    7.0354    8.3879   -6.6474 C   0  0  0  0  0  0  0  0  0  0  0  0
    6.8226    9.6227   -6.1904 N   0  0  0  0  0  0  0  0  0  0  0  0
    4.7694   -2.7822    1.3840 H   0  0  0  0  0  0  0  0  0  0  0  0
    3.5097   -3.8842    0.7990 H   0  0  0  0  0  0  0  0  0  0  0  0
    5.0459   -3.7673   -0.0614 H   0  0  0  0  0  0  0  0  0  0  0  0
    6.0864    9.9497   -2.3539 H   0  0  0  0  0  0  0  0  0  0  0  0
    5.5215    8.3129   -2.2830 H   0  0  0  0  0  0  0  0  0  0  0  0
    6.6310    9.9131   -0.2147 H   0  0  0  0  0  0  0  0  0  0  0  0
    6.0065    8.2696   -0.1885 H   0  0  0  0  0  0  0  0  0  0  0  0
    8.8908    9.0787    0.6449 H   0  0  0  0  0  0  0  0  0  0  0  0
    7.5505    8.7760    1.7387 H   0  0  0  0  0  0  0  0  0  0  0  0
    8.2200    7.4670    0.6936 H   0  0  0  0  0  0  0  0  0  0  0  0
    3.9683   -1.2543   -3.3492 H   0  0  0  0  0  0  0  0  0  0  0  0
    7.8853    2.1810   -5.9198 H   0  0  0  0  0  0  0  0  0  0  0  0
    3.5294    4.6021   -1.8809 H   0  0  0  0  0  0  0  0  0  0  0  0
    5.5739   -1.0810   -0.8254 H   0  0  0  0  0  0  0  0  0  0  0  0
    5.2994   -2.5158   -1.8378 H   0  0  0  0  0  0  0  0  0  0  0  0
    4.6820    5.3091   -3.6952 H   0  0  0  0  0  0  0  0  0  0  0  0
    8.5480    4.7342   -5.9800 H   0  0  0  0  0  0  0  0  0  0  0  0
    3.1772   -1.0068    1.3998 H   0  0  0  0  0  0  0  0  0  0  0  0
    2.8710   -2.5011   -0.9782 H   0  0  0  0  0  0  0  0  0  0  0  0
    6.2804   10.6726   -4.5266 H   0  0  0  0  0  0  0  0  0  0  0  0
    6.7728    8.2126   -7.6868 H   0  0  0  0  0  0  0  0  0  0  0  0
  1 18  2  0  0  0  0
  2 32  1  0  0  0  0
  2 33  1  0  0  0  0
  2 34  1  0  0  0  0
  3 25  1  0  0  0  0
  3 26  1  0  0  0  0
  4  5  1  0  0  0  0
  4 27  1  0  0  0  0
  4 35  1  0  0  0  0
  4 36  1  0  0  0  0
  5  6  1  0  0  0  0
  6  7  1  0  0  0  0
  6 37  1  0  0  0  0
  6 38  1  0  0  0  0
  7 39  1  0  0  0  0
  7 40  1  0  0  0  0
  7 41  1  0  0  0  0
  8  9  1  0  0  0  0
  8 10  2  0  0  0  0
  8 11  1  0  0  0  0
  9 12  2  0  0  0  0
  9 13  1  0  0  0  0
 10 14  1  0  0  0  0
 10 15  1  0  0  0  0
 11 16  1  0  0  0  0
 11 17  2  0  0  0  0
 12 16  1  0  0  0  0
 12 18  1  0  0  0  0
 13 19  1  0  0  0  0
 13 42  1  0  0  0  0
 14 20  1  0  0  0  0
 14 21  2  0  0  0  0
 15 22  2  0  0  0  0
 15 43  1  0  0  0  0
 17 21  1  0  0  0  0
 17 44  1  0  0  0  0
 18 23  1  0  0  0  0
 19 24  1  0  0  0  0
 19 45  1  0  0  0  0
 19 46  1  0  0  0  0
 20 25  2  0  0  0  0
 21 47  1  0  0  0  0
 22 25  1  0  0  0  0
 22 48  1  0  0  0  0
 23 24  1  0  0  0  0
 23 49  1  0  0  0  0
 24 50  1  6  0  0  0
 24  2  1  0  0  0  0
 26 27  2  0  0  0  0
 26 28  1  0  0  0  0
 27 29  1  0  0  0  0
 28 30  2  0  0  0  0
 29 31  2  0  0  0  0
 29 51  1  0  0  0  0
 30 31  1  0  0  0  0
 30 52  1  0  0  0  0
M  END
>  <Mol_ID>
6962

>  <Formula>
C22H20ClN5O3S

>  <MolWeight>
469.9439

>  <Cat>
E1657

>  <Name>
Gamcemetinib (CC-99677)

>  <Synonyms>
BMS-986371

>  <Target>
MAPKAPK2

>  <Form>
free base

>  <CAS>
1887069-10-4

>  <URL>
https://www.selleckchem.com/products/cc-99677.html

$$$$
