gamma-Nonanolactone
 OpenBabel08302521363D

 27 27  0  0  0  0  0  0  0  0999 V2000
    0.9684   -0.0657   -0.0617 C   0  0  0  0  0  0  0  0  0  0  0  0
    0.6532    1.3341    0.4784 C   0  0  0  0  0  0  0  0  0  0  0  0
   -0.8286    1.6776    0.6546 C   0  0  0  0  0  0  0  0  0  0  0  0
   -1.5605    0.7818    1.6553 C   0  0  0  0  0  0  0  0  0  0  0  0
   -2.9999    1.2378    1.8541 C   0  0  0  0  0  0  0  0  0  0  0  0
    1.4929    0.5654   -4.6277 O   0  0  0  0  0  0  0  0  0  0  0  0
    0.4347   -0.3490   -1.4673 C   0  0  3  0  0  0  0  0  0  0  0  0
    0.9484    0.5994   -2.4069 O   0  0  0  0  0  0  0  0  0  0  0  0
    0.8961   -1.6940   -1.9927 C   0  0  0  0  0  0  0  0  0  0  0  0
    1.1654   -0.0157   -3.6066 C   0  0  0  0  0  0  0  0  0  0  0  0
    0.8974   -1.4861   -3.4893 C   0  0  0  0  0  0  0  0  0  0  0  0
    0.6057   -0.8304    0.6341 H   0  0  0  0  0  0  0  0  0  0  0  0
    2.0632   -0.1521   -0.0792 H   0  0  0  0  0  0  0  0  0  0  0  0
    1.1566    1.4466    1.4473 H   0  0  0  0  0  0  0  0  0  0  0  0
    1.1035    2.0834   -0.1842 H   0  0  0  0  0  0  0  0  0  0  0  0
   -0.8847    2.7143    1.0121 H   0  0  0  0  0  0  0  0  0  0  0  0
   -1.3410    1.6574   -0.3131 H   0  0  0  0  0  0  0  0  0  0  0  0
   -1.5645   -0.2586    1.3129 H   0  0  0  0  0  0  0  0  0  0  0  0
   -1.0413    0.8065    2.6204 H   0  0  0  0  0  0  0  0  0  0  0  0
   -3.6053    1.0064    0.9718 H   0  0  0  0  0  0  0  0  0  0  0  0
   -3.4465    0.7278    2.7137 H   0  0  0  0  0  0  0  0  0  0  0  0
   -3.0570    2.3163    2.0345 H   0  0  0  0  0  0  0  0  0  0  0  0
   -0.6597   -0.2830   -1.4852 H   0  0  0  0  0  0  0  0  0  0  0  0
    0.2538   -2.5199   -1.6734 H   0  0  0  0  0  0  0  0  0  0  0  0
    1.9172   -1.9182   -1.6588 H   0  0  0  0  0  0  0  0  0  0  0  0
   -0.0738   -1.7180   -3.9319 H   0  0  0  0  0  0  0  0  0  0  0  0
    1.6897   -2.0673   -3.9684 H   0  0  0  0  0  0  0  0  0  0  0  0
  1  2  1  0  0  0  0
  1  7  1  0  0  0  0
  1 12  1  0  0  0  0
  1 13  1  0  0  0  0
  2  3  1  0  0  0  0
  2 14  1  0  0  0  0
  2 15  1  0  0  0  0
  3  4  1  0  0  0  0
  3 16  1  0  0  0  0
  3 17  1  0  0  0  0
  4  5  1  0  0  0  0
  4 18  1  0  0  0  0
  4 19  1  0  0  0  0
  5 20  1  0  0  0  0
  5 21  1  0  0  0  0
  5 22  1  0  0  0  0
  6 10  2  0  0  0  0
  7  8  1  0  0  0  0
  7  9  1  0  0  0  0
  7 23  1  0  0  0  0
  8 10  1  0  0  0  0
  9 11  1  0  0  0  0
  9 24  1  0  0  0  0
  9 25  1  0  0  0  0
 10 11  1  0  0  0  0
 11 26  1  0  0  0  0
 11 27  1  0  0  0  0
M  END
>  <Mol_ID>
7285

>  <Formula>
C9H16O2

>  <MolWeight>
156.22214

>  <Cat>
E4313

>  <Name>
gamma-Nonanolactone

>  <Synonyms>
gamma-Nonanolactone

>  <Target>
Others

>  <Form>
free base

>  <CAS>
104-61-0

>  <URL>
https://www.selleckchem.com/products/gamma-nonanolactone.html

$$$$
