Ganetespib(STA-9090).cdx
 OpenBabel08302521293D

 47 50  0  0  0  0  0  0  0  0999 V2000
   -0.4245   -1.3007    0.4024 N   0  0  0  0  0  0  0  0  0  0  0  0
   -1.0755   -0.1179    0.1307 N   0  0  0  0  0  0  0  0  0  0  0  0
   -0.1804    0.8565   -0.2801 C   0  0  0  0  0  0  0  0  0  0  0  0
    1.0511    0.2348   -0.3451 N   0  0  0  0  0  0  0  0  0  0  0  0
    0.8243   -1.0328    0.0974 C   0  0  0  0  0  0  0  0  0  0  0  0
   -0.4840    2.0174   -0.5015 O   0  0  0  0  0  0  0  0  0  0  0  0
    3.3064    4.9061   -0.8843 N   0  0  0  0  0  0  0  0  0  0  0  0
    3.4341    5.3094    0.4136 C   0  0  0  0  0  0  0  0  0  0  0  0
    3.2806    4.2044    1.2205 C   0  0  0  0  0  0  0  0  0  0  0  0
    2.9815    3.0983    0.3838 C   0  0  0  0  0  0  0  0  0  0  0  0
    2.6229    1.7588    0.6264 C   0  0  0  0  0  0  0  0  0  0  0  0
    2.2547    0.9718   -0.4666 C   0  0  0  0  0  0  0  0  0  0  0  0
    2.5335    1.4294   -1.7568 C   0  0  0  0  0  0  0  0  0  0  0  0
    2.6340    2.7824   -2.0210 C   0  0  0  0  0  0  0  0  0  0  0  0
    2.9385    3.5840   -0.9267 C   0  0  0  0  0  0  0  0  0  0  0  0
    3.5847    5.6941   -2.0538 C   0  0  0  0  0  0  0  0  0  0  0  0
    1.9160   -2.0152    0.2557 C   0  0  0  0  0  0  0  0  0  0  0  0
    1.8963   -2.8927    1.3313 C   0  0  0  0  0  0  0  0  0  0  0  0
    3.0059   -3.6970    1.5721 C   0  0  0  0  0  0  0  0  0  0  0  0
    4.1098   -3.6058    0.7061 C   0  0  0  0  0  0  0  0  0  0  0  0
    4.0901   -2.8147   -0.4563 C   0  0  0  0  0  0  0  0  0  0  0  0
    2.9525   -2.0271   -0.6663 C   0  0  0  0  0  0  0  0  0  0  0  0
    5.2109   -2.7752   -1.4800 C   0  0  0  0  0  0  0  0  0  0  0  0
    4.7169   -3.1761   -2.8744 C   0  0  0  0  0  0  0  0  0  0  0  0
    5.8763   -1.3922   -1.5268 C   0  0  0  0  0  0  0  0  0  0  0  0
    5.2134   -4.3208    1.0633 O   0  0  0  0  0  0  0  0  0  0  0  0
    0.8512   -2.9941    2.2040 O   0  0  0  0  0  0  0  0  0  0  0  0
   -2.0625    0.0296    0.2986 H   0  0  0  0  0  0  0  0  0  0  0  0
    3.6266    6.3421    0.6649 H   0  0  0  0  0  0  0  0  0  0  0  0
    3.3306    4.1922    2.3003 H   0  0  0  0  0  0  0  0  0  0  0  0
    2.4896    1.4028    1.6425 H   0  0  0  0  0  0  0  0  0  0  0  0
    2.7526    0.7256   -2.5584 H   0  0  0  0  0  0  0  0  0  0  0  0
    2.5553    3.1687   -3.0287 H   0  0  0  0  0  0  0  0  0  0  0  0
    4.4315    5.2060   -2.5925 H   0  0  0  0  0  0  0  0  0  0  0  0
    2.7125    5.7279   -2.6946 H   0  0  0  0  0  0  0  0  0  0  0  0
    3.9005    6.6963   -1.7618 H   0  0  0  0  0  0  0  0  0  0  0  0
    3.0100   -4.3491    2.4285 H   0  0  0  0  0  0  0  0  0  0  0  0
    2.8865   -1.4191   -1.5633 H   0  0  0  0  0  0  0  0  0  0  0  0
    5.9861   -3.5013   -1.2024 H   0  0  0  0  0  0  0  0  0  0  0  0
    4.0116   -2.4475   -3.2878 H   0  0  0  0  0  0  0  0  0  0  0  0
    5.5543   -3.2506   -3.5736 H   0  0  0  0  0  0  0  0  0  0  0  0
    4.2117   -4.1478   -2.8444 H   0  0  0  0  0  0  0  0  0  0  0  0
    6.2622   -1.1057   -0.5425 H   0  0  0  0  0  0  0  0  0  0  0  0
    6.7150   -1.3905   -2.2316 H   0  0  0  0  0  0  0  0  0  0  0  0
    5.1781   -0.6113   -1.8483 H   0  0  0  0  0  0  0  0  0  0  0  0
    5.9947   -3.7908    0.8377 H   0  0  0  0  0  0  0  0  0  0  0  0
    0.0860   -2.5158    1.8192 H   0  0  0  0  0  0  0  0  0  0  0  0
  1  2  1  0  0  0  0
  1  5  2  0  0  0  0
  2  3  1  0  0  0  0
  2 28  1  0  0  0  0
  3  4  1  0  0  0  0
  3  6  2  0  0  0  0
  4  5  1  0  0  0  0
  4 12  1  0  0  0  0
  5 17  1  0  0  0  0
  7  8  1  0  0  0  0
  7 15  1  0  0  0  0
  7 16  1  0  0  0  0
  8  9  2  0  0  0  0
  8 29  1  0  0  0  0
  9 10  1  0  0  0  0
  9 30  1  0  0  0  0
 10 11  1  0  0  0  0
 10 15  2  0  0  0  0
 11 12  2  0  0  0  0
 11 31  1  0  0  0  0
 12 13  1  0  0  0  0
 13 14  2  0  0  0  0
 13 32  1  0  0  0  0
 14 15  1  0  0  0  0
 14 33  1  0  0  0  0
 16 34  1  0  0  0  0
 16 35  1  0  0  0  0
 16 36  1  0  0  0  0
 17 18  2  0  0  0  0
 17 22  1  0  0  0  0
 18 19  1  0  0  0  0
 18 27  1  0  0  0  0
 19 20  2  0  0  0  0
 19 37  1  0  0  0  0
 20 21  1  0  0  0  0
 20 26  1  0  0  0  0
 21 22  2  0  0  0  0
 21 23  1  0  0  0  0
 22 38  1  0  0  0  0
 23 24  1  0  0  0  0
 23 25  1  0  0  0  0
 23 39  1  0  0  0  0
 24 40  1  0  0  0  0
 24 41  1  0  0  0  0
 24 42  1  0  0  0  0
 25 43  1  0  0  0  0
 25 44  1  0  0  0  0
 25 45  1  0  0  0  0
 26 46  1  0  0  0  0
 27 47  1  0  0  0  0
M  END
>  <Mol_ID>
527

>  <Formula>
C20H20N4O3

>  <MolWeight>
364.3978

>  <Cat>
S1159

>  <Name>
Ganetespib (STA-9090)

>  <Synonyms>
N/A

>  <Target>
Apoptosis related,HSP (HSP90)

>  <Form>
free base

>  <CAS>
888216-25-9

>  <URL>
http://selleckchem.com/products/ganetespib-sta-9090.html

$$$$
