Garcinone D
 OpenBabel08302521503D

 59 61  0  0  0  0  0  0  0  0999 V2000
    0.7365   -0.1126    0.0071 C   0  0  0  0  0  0  0  0  0  0  0  0
    1.9971   -0.4113    0.8500 C   0  0  0  0  0  0  0  0  0  0  0  0
    2.4424   -1.8873    0.9406 C   0  0  0  0  0  0  0  0  0  0  0  0
    2.5577   -2.5945   -0.4119 C   0  0  0  0  0  0  0  0  0  0  0  0
    3.8079   -1.9285    1.6468 C   0  0  0  0  0  0  0  0  0  0  0  0
    1.4987   -2.5980    1.7453 O   0  0  0  0  0  0  0  0  0  0  0  0
    2.8899    1.2913   -1.4567 O   0  0  0  0  0  0  0  0  0  0  0  0
   -1.9351    0.6392   -0.0658 O   0  0  0  0  0  0  0  0  0  0  0  0
   -3.1167    0.5622    0.7130 C   0  0  0  0  0  0  0  0  0  0  0  0
   -2.7316    3.5032    0.3238 O   0  0  0  0  0  0  0  0  0  0  0  0
    5.4756    1.9404   -0.6596 O   0  0  0  0  0  0  0  0  0  0  0  0
    7.3262    4.1532   -0.5777 C   0  0  0  0  0  0  0  0  0  0  0  0
    7.9724    3.8543    0.7523 C   0  0  0  0  0  0  0  0  0  0  0  0
    8.7156    2.7779    1.0824 C   0  0  0  0  0  0  0  0  0  0  0  0
    9.2964    2.6351    2.4644 C   0  0  0  0  0  0  0  0  0  0  0  0
    9.0523    1.6634    0.1296 C   0  0  0  0  0  0  0  0  0  0  0  0
    6.0496    6.6751   -0.2259 O   0  0  0  0  0  0  0  0  0  0  0  0
    1.2304    2.4327   -0.2467 C   0  0  0  0  0  0  0  0  0  0  0  0
    0.3114    1.3635   -0.0500 C   0  0  0  0  0  0  0  0  0  0  0  0
    0.8302    3.7643   -0.1066 C   0  0  0  0  0  0  0  0  0  0  0  0
    2.6053    2.2610   -0.7554 C   0  0  0  0  0  0  0  0  0  0  0  0
   -1.0690    1.6942    0.0920 C   0  0  0  0  0  0  0  0  0  0  0  0
    1.6689    4.8510   -0.2178 O   0  0  0  0  0  0  0  0  0  0  0  0
   -0.5018    4.0619    0.1395 C   0  0  0  0  0  0  0  0  0  0  0  0
    3.5621    3.3610   -0.5293 C   0  0  0  0  0  0  0  0  0  0  0  0
   -1.4510    3.0425    0.1983 C   0  0  0  0  0  0  0  0  0  0  0  0
    3.0185    4.6209   -0.3097 C   0  0  0  0  0  0  0  0  0  0  0  0
    4.9547    3.2016   -0.5630 C   0  0  0  0  0  0  0  0  0  0  0  0
    3.8539    5.7339   -0.2018 C   0  0  0  0  0  0  0  0  0  0  0  0
    5.8200    4.3114   -0.4726 C   0  0  0  0  0  0  0  0  0  0  0  0
    5.2368    5.5763   -0.2980 C   0  0  0  0  0  0  0  0  0  0  0  0
   -0.0684   -0.6923    0.4773 H   0  0  0  0  0  0  0  0  0  0  0  0
    0.8334   -0.4832   -1.0181 H   0  0  0  0  0  0  0  0  0  0  0  0
    2.8568    0.1437    0.4812 H   0  0  0  0  0  0  0  0  0  0  0  0
    1.8151   -0.0351    1.8659 H   0  0  0  0  0  0  0  0  0  0  0  0
    3.1558   -2.0174   -1.1239 H   0  0  0  0  0  0  0  0  0  0  0  0
    3.0363   -3.5759   -0.2920 H   0  0  0  0  0  0  0  0  0  0  0  0
    1.5736   -2.7957   -0.8474 H   0  0  0  0  0  0  0  0  0  0  0  0
    3.7517   -1.4532    2.6324 H   0  0  0  0  0  0  0  0  0  0  0  0
    4.1424   -2.9580    1.8135 H   0  0  0  0  0  0  0  0  0  0  0  0
    4.5742   -1.4096    1.0587 H   0  0  0  0  0  0  0  0  0  0  0  0
    1.7907   -3.5249    1.7925 H   0  0  0  0  0  0  0  0  0  0  0  0
   -2.9895    0.9757    1.7170 H   0  0  0  0  0  0  0  0  0  0  0  0
   -3.9526    1.0312    0.1855 H   0  0  0  0  0  0  0  0  0  0  0  0
   -3.3819   -0.4962    0.8047 H   0  0  0  0  0  0  0  0  0  0  0  0
   -3.3496    2.8036    0.0819 H   0  0  0  0  0  0  0  0  0  0  0  0
    6.2416    1.8917   -0.0645 H   0  0  0  0  0  0  0  0  0  0  0  0
    7.5530    3.3800   -1.3212 H   0  0  0  0  0  0  0  0  0  0  0  0
    7.7759    5.0665   -0.9871 H   0  0  0  0  0  0  0  0  0  0  0  0
    7.8190    4.6316    1.5020 H   0  0  0  0  0  0  0  0  0  0  0  0
    8.9029    1.7341    2.9465 H   0  0  0  0  0  0  0  0  0  0  0  0
   10.3875    2.5549    2.4118 H   0  0  0  0  0  0  0  0  0  0  0  0
    9.0580    3.4887    3.1075 H   0  0  0  0  0  0  0  0  0  0  0  0
    8.1566    1.1132   -0.1687 H   0  0  0  0  0  0  0  0  0  0  0  0
    9.5518    2.0507   -0.7636 H   0  0  0  0  0  0  0  0  0  0  0  0
    9.7296    0.9379    0.5929 H   0  0  0  0  0  0  0  0  0  0  0  0
    5.5063    7.4802   -0.2653 H   0  0  0  0  0  0  0  0  0  0  0  0
   -0.8204    5.0986    0.2151 H   0  0  0  0  0  0  0  0  0  0  0  0
    3.4112    6.7149   -0.0537 H   0  0  0  0  0  0  0  0  0  0  0  0
  1  2  1  0  0  0  0
  1 19  1  0  0  0  0
  1 32  1  0  0  0  0
  1 33  1  0  0  0  0
  2  3  1  0  0  0  0
  2 34  1  0  0  0  0
  2 35  1  0  0  0  0
  3  4  1  0  0  0  0
  3  5  1  0  0  0  0
  3  6  1  0  0  0  0
  4 36  1  0  0  0  0
  4 37  1  0  0  0  0
  4 38  1  0  0  0  0
  5 39  1  0  0  0  0
  5 40  1  0  0  0  0
  5 41  1  0  0  0  0
  6 42  1  0  0  0  0
  7 21  2  0  0  0  0
  8  9  1  0  0  0  0
  8 22  1  0  0  0  0
  9 43  1  0  0  0  0
  9 44  1  0  0  0  0
  9 45  1  0  0  0  0
 10 26  1  0  0  0  0
 10 46  1  0  0  0  0
 11 28  1  0  0  0  0
 11 47  1  0  0  0  0
 12 13  1  0  0  0  0
 12 30  1  0  0  0  0
 12 48  1  0  0  0  0
 12 49  1  0  0  0  0
 13 14  2  0  0  0  0
 13 50  1  0  0  0  0
 14 15  1  0  0  0  0
 14 16  1  0  0  0  0
 15 51  1  0  0  0  0
 15 52  1  0  0  0  0
 15 53  1  0  0  0  0
 16 54  1  0  0  0  0
 16 55  1  0  0  0  0
 16 56  1  0  0  0  0
 17 31  1  0  0  0  0
 17 57  1  0  0  0  0
 18 19  2  0  0  0  0
 18 20  1  0  0  0  0
 18 21  1  0  0  0  0
 19 22  1  0  0  0  0
 20 23  1  0  0  0  0
 20 24  2  0  0  0  0
 21 25  1  0  0  0  0
 22 26  2  0  0  0  0
 23 27  1  0  0  0  0
 24 26  1  0  0  0  0
 24 58  1  0  0  0  0
 25 27  2  0  0  0  0
 25 28  1  0  0  0  0
 27 29  1  0  0  0  0
 28 30  2  0  0  0  0
 29 31  2  0  0  0  0
 29 59  1  0  0  0  0
 30 31  1  0  0  0  0
M  END
>  <Mol_ID>
9886

>  <Formula>
C24H28O7

>  <MolWeight>
428.47492

>  <Cat>
E2794

>  <Name>
Garcinone D

>  <Synonyms>
N/A

>  <Target>
CDK, Nrf2, STAT

>  <Form>
free base

>  <CAS>
107390-08-9

>  <URL>
https://www.selleckchem.com/products/garcinone-d.html

$$$$
