Gardenin B
 OpenBabel08302521493D

 44 46  0  0  0  0  0  0  0  0999 V2000
    1.2939    2.2697    0.1486 O   0  0  0  0  0  0  0  0  0  0  0  0
   -1.2808    2.3884    0.0217 O   0  0  0  0  0  0  0  0  0  0  0  0
    0.9465   -3.2757   -0.0098 O   0  0  0  0  0  0  0  0  0  0  0  0
   -0.2862   -3.9854    0.0049 C   0  0  0  0  0  0  0  0  0  0  0  0
    3.7273    0.5171   -0.0001 O   0  0  0  0  0  0  0  0  0  0  0  0
    4.1575    1.8600   -0.0070 C   0  0  0  0  0  0  0  0  0  0  0  0
    3.2649   -2.2631   -0.0463 O   0  0  0  0  0  0  0  0  0  0  0  0
    4.6340   -1.8943   -0.0714 C   0  0  0  0  0  0  0  0  0  0  0  0
   -7.3760   -3.7453   -0.0166 O   0  0  0  0  0  0  0  0  0  0  0  0
   -7.9940   -4.0953   -1.2490 C   0  0  0  0  0  0  0  0  0  0  0  0
   -0.0129    0.3268    0.0538 C   0  0  0  0  0  0  0  0  0  0  0  0
   -0.1615   -1.0609    0.0388 C   0  0  0  0  0  0  0  0  0  0  0  0
    1.2743    0.9073    0.0545 C   0  0  0  0  0  0  0  0  0  0  0  0
   -1.2528    1.1648    0.0522 C   0  0  0  0  0  0  0  0  0  0  0  0
    0.9627   -1.8966    0.0053 C   0  0  0  0  0  0  0  0  0  0  0  0
   -1.4046   -1.6492    0.0488 O   0  0  0  0  0  0  0  0  0  0  0  0
    2.4289    0.0997    0.0083 C   0  0  0  0  0  0  0  0  0  0  0  0
   -2.5393    0.4551    0.0622 C   0  0  0  0  0  0  0  0  0  0  0  0
    2.2605   -1.3138   -0.0132 C   0  0  0  0  0  0  0  0  0  0  0  0
   -2.5318   -0.8763    0.0584 C   0  0  0  0  0  0  0  0  0  0  0  0
   -3.7771   -1.6404    0.0188 C   0  0  0  0  0  0  0  0  0  0  0  0
   -4.3168   -2.0207   -1.2141 C   0  0  0  0  0  0  0  0  0  0  0  0
   -4.4350   -1.9989    1.1973 C   0  0  0  0  0  0  0  0  0  0  0  0
   -5.5186   -2.7308   -1.2724 C   0  0  0  0  0  0  0  0  0  0  0  0
   -5.6357   -2.7114    1.1358 C   0  0  0  0  0  0  0  0  0  0  0  0
   -6.1885   -3.0719   -0.0957 C   0  0  0  0  0  0  0  0  0  0  0  0
    2.1292    2.6702   -0.0945 H   0  0  0  0  0  0  0  0  0  0  0  0
   -0.8477   -3.7907    0.9251 H   0  0  0  0  0  0  0  0  0  0  0  0
   -0.8761   -3.7718   -0.8927 H   0  0  0  0  0  0  0  0  0  0  0  0
   -0.0644   -5.0569   -0.0095 H   0  0  0  0  0  0  0  0  0  0  0  0
    3.8376    2.3705   -0.9205 H   0  0  0  0  0  0  0  0  0  0  0  0
    3.8438    2.3804    0.9024 H   0  0  0  0  0  0  0  0  0  0  0  0
    5.2520    1.8595   -0.0153 H   0  0  0  0  0  0  0  0  0  0  0  0
    4.8801   -1.3366   -0.9808 H   0  0  0  0  0  0  0  0  0  0  0  0
    4.9211   -1.3566    0.8380 H   0  0  0  0  0  0  0  0  0  0  0  0
    5.2287   -2.8134   -0.0938 H   0  0  0  0  0  0  0  0  0  0  0  0
   -8.1845   -3.2116   -1.8678 H   0  0  0  0  0  0  0  0  0  0  0  0
   -7.3914   -4.8332   -1.7887 H   0  0  0  0  0  0  0  0  0  0  0  0
   -8.9610   -4.5529   -1.0209 H   0  0  0  0  0  0  0  0  0  0  0  0
   -3.4411    1.0537    0.0504 H   0  0  0  0  0  0  0  0  0  0  0  0
   -3.8062   -1.7635   -2.1406 H   0  0  0  0  0  0  0  0  0  0  0  0
   -4.0219   -1.7295    2.1667 H   0  0  0  0  0  0  0  0  0  0  0  0
   -5.9011   -3.0047   -2.2482 H   0  0  0  0  0  0  0  0  0  0  0  0
   -6.1465   -2.9834    2.0561 H   0  0  0  0  0  0  0  0  0  0  0  0
  1 13  1  0  0  0  0
  1 27  1  0  0  0  0
  2 14  2  0  0  0  0
  3  4  1  0  0  0  0
  3 15  1  0  0  0  0
  4 28  1  0  0  0  0
  4 29  1  0  0  0  0
  4 30  1  0  0  0  0
  5  6  1  0  0  0  0
  5 17  1  0  0  0  0
  6 31  1  0  0  0  0
  6 32  1  0  0  0  0
  6 33  1  0  0  0  0
  7  8  1  0  0  0  0
  7 19  1  0  0  0  0
  8 34  1  0  0  0  0
  8 35  1  0  0  0  0
  8 36  1  0  0  0  0
  9 10  1  0  0  0  0
  9 26  1  0  0  0  0
 10 37  1  0  0  0  0
 10 38  1  0  0  0  0
 10 39  1  0  0  0  0
 11 12  1  0  0  0  0
 11 13  2  0  0  0  0
 11 14  1  0  0  0  0
 12 15  2  0  0  0  0
 12 16  1  0  0  0  0
 13 17  1  0  0  0  0
 14 18  1  0  0  0  0
 15 19  1  0  0  0  0
 16 20  1  0  0  0  0
 17 19  2  0  0  0  0
 18 20  2  0  0  0  0
 18 40  1  0  0  0  0
 20 21  1  0  0  0  0
 21 22  2  0  0  0  0
 21 23  1  0  0  0  0
 22 24  1  0  0  0  0
 22 41  1  0  0  0  0
 23 25  2  0  0  0  0
 23 42  1  0  0  0  0
 24 26  2  0  0  0  0
 24 43  1  0  0  0  0
 25 26  1  0  0  0  0
 25 44  1  0  0  0  0
M  END
>  <Mol_ID>
9795

>  <Formula>
C19H18O7

>  <MolWeight>
358.34202

>  <Cat>
E2329

>  <Name>
Gardenin B

>  <Synonyms>
NA

>  <Target>
Apoptosis

>  <Form>
Free Base

>  <CAS>
2798-20-1

>  <URL>
https://www.selleckchem.com/products/gardenin-b.html

$$$$
