Garenoxacin
 OpenBabel08302521393D

 51 55  0  0  0  0  0  0  0  0999 V2000
    1.2024   -1.3453    0.0487 N   0  0  0  0  0  0  0  0  0  0  0  0
    2.4803    0.7293    0.0270 C   0  0  0  0  0  0  0  0  0  0  0  0
   -0.0618   -0.6775    0.1593 C   0  0  0  0  0  0  0  0  0  0  0  0
   -0.0612    0.7280    0.0971 C   0  0  0  0  0  0  0  0  0  0  0  0
    2.3750   -0.6070    0.0385 C   0  0  0  0  0  0  0  0  0  0  0  0
    1.2131    1.4894    0.0701 C   0  0  0  0  0  0  0  0  0  0  0  0
   -1.3183   -1.3479    0.3067 C   0  0  0  0  0  0  0  0  0  0  0  0
   -2.5591   -0.6430    0.1803 C   0  0  0  0  0  0  0  0  0  0  0  0
    1.3080   -2.7470   -0.4250 C   0  0  0  0  0  0  0  0  0  0  0  0
    3.8065    1.4055   -0.0247 C   0  0  0  0  0  0  0  0  0  0  0  0
   -3.9184   -1.2724    0.2258 C   0  0  0  0  0  0  0  0  0  0  0  0
   -5.2229   -3.2800    0.2537 C   0  0  0  0  0  0  0  0  0  0  0  0
   -6.0942   -4.8554    1.7499 N   0  0  0  0  0  0  0  0  0  0  0  0
   -1.2615    1.4358    0.0219 C   0  0  0  0  0  0  0  0  0  0  0  0
   -6.2544   -2.6645    0.9646 C   0  0  0  0  0  0  0  0  0  0  0  0
   -1.2286   -2.7097    0.4620 O   0  0  0  0  0  0  0  0  0  0  0  0
    2.1677   -3.1447   -1.6107 C   0  0  0  0  0  0  0  0  0  0  0  0
    0.6797   -3.1679   -1.7352 C   0  0  0  0  0  0  0  0  0  0  0  0
   -4.1371   -2.5750   -0.2475 C   0  0  0  0  0  0  0  0  0  0  0  0
   -2.4794    0.7563    0.0224 C   0  0  0  0  0  0  0  0  0  0  0  0
   -1.8889   -3.3364    1.5457 C   0  0  0  0  0  0  0  0  0  0  0  0
   -6.1861   -1.3123    1.2369 C   0  0  0  0  0  0  0  0  0  0  0  0
   -5.3186   -4.7591    0.4785 C   0  0  0  0  0  0  0  0  0  0  0  0
   -7.0694   -3.7289    1.6540 C   0  0  1  0  0  0  0  0  0  0  0  0
    1.1812    2.7165    0.0743 O   0  0  0  0  0  0  0  0  0  0  0  0
   -4.9964   -0.6391    0.9087 C   0  0  0  0  0  0  0  0  0  0  0  0
    4.0345    2.5919    0.0614 O   0  0  0  0  0  0  0  0  0  0  0  0
    4.8351    0.5406   -0.2132 O   0  0  0  0  0  0  0  0  0  0  0  0
   -2.3290   -4.5281    1.0604 F   0  0  0  0  0  0  0  0  0  0  0  0
   -0.9731   -3.6510    2.4953 F   0  0  0  0  0  0  0  0  0  0  0  0
   -8.2936   -4.2942    0.9358 C   0  0  0  0  0  0  0  0  0  0  0  0
    3.2641   -1.2346    0.0074 H   0  0  0  0  0  0  0  0  0  0  0  0
    1.2796   -3.4583    0.3980 H   0  0  0  0  0  0  0  0  0  0  0  0
   -5.4460   -4.5958    2.4977 H   0  0  0  0  0  0  0  0  0  0  0  0
   -1.2545    2.5221   -0.0677 H   0  0  0  0  0  0  0  0  0  0  0  0
    2.6954   -2.3752   -2.1631 H   0  0  0  0  0  0  0  0  0  0  0  0
    2.6855   -4.0913   -1.5660 H   0  0  0  0  0  0  0  0  0  0  0  0
    0.1834   -4.1288   -1.7637 H   0  0  0  0  0  0  0  0  0  0  0  0
    0.2121   -2.4049   -2.3468 H   0  0  0  0  0  0  0  0  0  0  0  0
   -3.3691   -3.1059   -0.8041 H   0  0  0  0  0  0  0  0  0  0  0  0
   -3.3821    1.3521   -0.1067 H   0  0  0  0  0  0  0  0  0  0  0  0
   -2.7171   -2.7969    2.0103 H   0  0  0  0  0  0  0  0  0  0  0  0
   -6.9440   -0.8165    1.8367 H   0  0  0  0  0  0  0  0  0  0  0  0
   -5.8415   -5.2548   -0.3435 H   0  0  0  0  0  0  0  0  0  0  0  0
   -4.3472   -5.2323    0.6144 H   0  0  0  0  0  0  0  0  0  0  0  0
   -7.3539   -3.3912    2.6575 H   0  0  0  0  0  0  0  0  0  0  0  0
   -4.8831    0.3752    1.2921 H   0  0  0  0  0  0  0  0  0  0  0  0
    5.6207    1.1366   -0.2300 H   0  0  0  0  0  0  0  0  0  0  0  0
   -8.0344   -4.8376    0.0188 H   0  0  0  0  0  0  0  0  0  0  0  0
   -8.7938   -5.0197    1.5920 H   0  0  0  0  0  0  0  0  0  0  0  0
   -9.0145   -3.5207    0.6651 H   0  0  0  0  0  0  0  0  0  0  0  0
  2  5  2  0  0  0  0
  3  1  1  0  0  0  0
  4  3  2  0  0  0  0
  4  6  1  0  0  0  0
  5  1  1  0  0  0  0
  5 32  1  0  0  0  0
  6  2  1  0  0  0  0
  7  3  1  0  0  0  0
  8  7  2  0  0  0  0
  9  1  1  0  0  0  0
  9 33  1  0  0  0  0
 10  2  1  0  0  0  0
 11  8  1  0  0  0  0
 12 19  2  0  0  0  0
 12 15  1  0  0  0  0
 13 23  1  0  0  0  0
 13 34  1  0  0  0  0
 14  4  1  0  0  0  0
 14 20  2  0  0  0  0
 14 35  1  0  0  0  0
 15 22  2  0  0  0  0
 16  7  1  0  0  0  0
 17  9  1  0  0  0  0
 17 18  1  0  0  0  0
 17 36  1  0  0  0  0
 17 37  1  0  0  0  0
 18  9  1  0  0  0  0
 18 38  1  0  0  0  0
 18 39  1  0  0  0  0
 19 11  1  0  0  0  0
 19 40  1  0  0  0  0
 20  8  1  0  0  0  0
 20 41  1  0  0  0  0
 21 16  1  0  0  0  0
 21 42  1  0  0  0  0
 22 26  1  0  0  0  0
 22 43  1  0  0  0  0
 23 12  1  0  0  0  0
 23 44  1  0  0  0  0
 23 45  1  0  0  0  0
 24 13  1  0  0  0  0
 24 15  1  0  0  0  0
 24 46  1  1  0  0  0
 24 31  1  0  0  0  0
 25  6  2  0  0  0  0
 26 11  2  0  0  0  0
 26 47  1  0  0  0  0
 27 10  2  0  0  0  0
 28 10  1  0  0  0  0
 28 48  1  0  0  0  0
 29 21  1  0  0  0  0
 30 21  1  0  0  0  0
 31 49  1  0  0  0  0
 31 50  1  0  0  0  0
 31 51  1  0  0  0  0
M  END
>  <Mol_ID>
8007

>  <Formula>
C23H20F2N2O4

>  <MolWeight>
426.4127064

>  <Cat>
S5908

>  <Name>
Garenoxacin

>  <Synonyms>
T-3811ME, BMS-284756

>  <Target>
Anti-infection

>  <Form>
Free Base

>  <CAS>
194804-75-6

>  <URL>
http://www.selleckchem.com/products/garenoxacin.html

$$$$
