Gartanin
 OpenBabel08302521503D

 53 55  0  0  0  0  0  0  0  0999 V2000
    0.9836    0.0401   -0.1957 O   0  0  0  0  0  0  0  0  0  0  0  0
    0.9599    2.6219    0.3872 O   0  0  0  0  0  0  0  0  0  0  0  0
    6.6210    2.3825    0.0188 C   0  0  0  0  0  0  0  0  0  0  0  0
    7.2167    2.3561    1.4035 C   0  0  0  0  0  0  0  0  0  0  0  0
    8.4053    1.8193    1.7417 C   0  0  0  0  0  0  0  0  0  0  0  0
    8.9065    1.8603    3.1592 C   0  0  0  0  0  0  0  0  0  0  0  0
    9.3289    1.1888    0.7387 C   0  0  0  0  0  0  0  0  0  0  0  0
    2.2863    5.0638    0.1274 C   0  0  0  0  0  0  0  0  0  0  0  0
    1.8928    5.4725   -1.2723 C   0  0  0  0  0  0  0  0  0  0  0  0
    0.7887    6.1724   -1.6054 C   0  0  0  0  0  0  0  0  0  0  0  0
    0.4603    6.4948   -3.0383 C   0  0  0  0  0  0  0  0  0  0  0  0
   -0.1792    6.7044   -0.5827 C   0  0  0  0  0  0  0  0  0  0  0  0
    5.2252    4.7758   -0.0084 O   0  0  0  0  0  0  0  0  0  0  0  0
    0.9844   -2.6337    0.0947 O   0  0  0  0  0  0  0  0  0  0  0  0
    6.4757   -2.2813    0.1237 O   0  0  0  0  0  0  0  0  0  0  0  0
    2.9502    1.2893    0.1319 C   0  0  0  0  0  0  0  0  0  0  0  0
    4.3451    1.2268    0.0838 C   0  0  0  0  0  0  0  0  0  0  0  0
    2.1868    0.0255    0.0232 C   0  0  0  0  0  0  0  0  0  0  0  0
    2.3162    2.5406    0.1979 C   0  0  0  0  0  0  0  0  0  0  0  0
    5.1027    2.4165    0.0436 C   0  0  0  0  0  0  0  0  0  0  0  0
    5.0423    0.0385    0.0648 O   0  0  0  0  0  0  0  0  0  0  0  0
    2.9520   -1.2371    0.0768 C   0  0  0  0  0  0  0  0  0  0  0  0
    3.0348    3.7449    0.1446 C   0  0  0  0  0  0  0  0  0  0  0  0
    4.4336    3.6595    0.0586 C   0  0  0  0  0  0  0  0  0  0  0  0
    4.3432   -1.1470    0.0887 C   0  0  0  0  0  0  0  0  0  0  0  0
    2.3443   -2.5058    0.0810 C   0  0  0  0  0  0  0  0  0  0  0  0
    5.1075   -2.3208    0.1028 C   0  0  0  0  0  0  0  0  0  0  0  0
    3.1193   -3.6691    0.0807 C   0  0  0  0  0  0  0  0  0  0  0  0
    4.5079   -3.5761    0.0878 C   0  0  0  0  0  0  0  0  0  0  0  0
    0.5667    2.9154   -0.4537 H   0  0  0  0  0  0  0  0  0  0  0  0
    6.9510    1.5263   -0.5801 H   0  0  0  0  0  0  0  0  0  0  0  0
    7.0049    3.2625   -0.5111 H   0  0  0  0  0  0  0  0  0  0  0  0
    6.6250    2.8435    2.1788 H   0  0  0  0  0  0  0  0  0  0  0  0
    9.0236    0.8426    3.5456 H   0  0  0  0  0  0  0  0  0  0  0  0
    9.8769    2.3654    3.2064 H   0  0  0  0  0  0  0  0  0  0  0  0
    8.2223    2.3941    3.8272 H   0  0  0  0  0  0  0  0  0  0  0  0
    8.8172    0.4111    0.1640 H   0  0  0  0  0  0  0  0  0  0  0  0
    9.7175    1.9483    0.0519 H   0  0  0  0  0  0  0  0  0  0  0  0
   10.1859    0.7162    1.2293 H   0  0  0  0  0  0  0  0  0  0  0  0
    1.4087    4.9878    0.7798 H   0  0  0  0  0  0  0  0  0  0  0  0
    2.8915    5.8571    0.5779 H   0  0  0  0  0  0  0  0  0  0  0  0
    2.5603    5.1482   -2.0712 H   0  0  0  0  0  0  0  0  0  0  0  0
   -0.5152    6.0750   -3.3060 H   0  0  0  0  0  0  0  0  0  0  0  0
    0.4235    7.5791   -3.1851 H   0  0  0  0  0  0  0  0  0  0  0  0
    1.1995    6.0885   -3.7367 H   0  0  0  0  0  0  0  0  0  0  0  0
   -0.6688    5.8851   -0.0481 H   0  0  0  0  0  0  0  0  0  0  0  0
    0.3363    7.3504    0.1330 H   0  0  0  0  0  0  0  0  0  0  0  0
   -0.9652    7.3045   -1.0554 H   0  0  0  0  0  0  0  0  0  0  0  0
    4.6979    5.5876   -0.0009 H   0  0  0  0  0  0  0  0  0  0  0  0
    0.7279   -3.5674    0.0504 H   0  0  0  0  0  0  0  0  0  0  0  0
    6.7324   -1.3437    0.2049 H   0  0  0  0  0  0  0  0  0  0  0  0
    2.6570   -4.6531    0.0759 H   0  0  0  0  0  0  0  0  0  0  0  0
    5.1195   -4.4743    0.0857 H   0  0  0  0  0  0  0  0  0  0  0  0
  1 18  2  0  0  0  0
  2 19  1  0  0  0  0
  2 30  1  0  0  0  0
  3  4  1  0  0  0  0
  3 20  1  0  0  0  0
  3 31  1  0  0  0  0
  3 32  1  0  0  0  0
  4  5  2  0  0  0  0
  4 33  1  0  0  0  0
  5  6  1  0  0  0  0
  5  7  1  0  0  0  0
  6 34  1  0  0  0  0
  6 35  1  0  0  0  0
  6 36  1  0  0  0  0
  7 37  1  0  0  0  0
  7 38  1  0  0  0  0
  7 39  1  0  0  0  0
  8  9  1  0  0  0  0
  8 23  1  0  0  0  0
  8 40  1  0  0  0  0
  8 41  1  0  0  0  0
  9 10  2  0  0  0  0
  9 42  1  0  0  0  0
 10 11  1  0  0  0  0
 10 12  1  0  0  0  0
 11 43  1  0  0  0  0
 11 44  1  0  0  0  0
 11 45  1  0  0  0  0
 12 46  1  0  0  0  0
 12 47  1  0  0  0  0
 12 48  1  0  0  0  0
 13 24  1  0  0  0  0
 13 49  1  0  0  0  0
 14 26  1  0  0  0  0
 14 50  1  0  0  0  0
 15 27  1  0  0  0  0
 15 51  1  0  0  0  0
 16 17  2  0  0  0  0
 16 18  1  0  0  0  0
 16 19  1  0  0  0  0
 17 20  1  0  0  0  0
 17 21  1  0  0  0  0
 18 22  1  0  0  0  0
 19 23  2  0  0  0  0
 20 24  2  0  0  0  0
 21 25  1  0  0  0  0
 22 25  2  0  0  0  0
 22 26  1  0  0  0  0
 23 24  1  0  0  0  0
 25 27  1  0  0  0  0
 26 28  2  0  0  0  0
 27 29  2  0  0  0  0
 28 29  1  0  0  0  0
 28 52  1  0  0  0  0
 29 53  1  0  0  0  0
M  END
>  <Mol_ID>
9887

>  <Formula>
C23H24O6

>  <MolWeight>
396.43306

>  <Cat>
E2795

>  <Name>
Gartanin

>  <Synonyms>
N/A

>  <Target>
Bcl-2, JNK, Sirtuin, AMPK,  PGC-1¦Á

>  <Form>
free base

>  <CAS>
33390-42-0

>  <URL>
https://www.selleckchem.com/products/gartanin.html

$$$$
