Gatifloxacin.cdx
 OpenBabel08302519533D

 49 52  0  0  0  0  0  0  0  0999 V2000
    2.5503   -0.8730    0.0499 C   0  0  0  0  0  0  0  0  0  0  0  0
    2.4964    0.5468    0.0775 C   0  0  0  0  0  0  0  0  0  0  0  0
    1.3133    1.2735    0.1239 C   0  0  0  0  0  0  0  0  0  0  0  0
    0.1018    0.5992    0.1282 C   0  0  0  0  0  0  0  0  0  0  0  0
    0.0462   -0.8093    0.0448 C   0  0  0  0  0  0  0  0  0  0  0  0
    1.2854   -1.5452    0.0052 C   0  0  0  0  0  0  0  0  0  0  0  0
   -1.1383    1.4187    0.1680 C   0  0  0  0  0  0  0  0  0  0  0  0
   -2.4381    0.7224    0.1402 C   0  0  0  0  0  0  0  0  0  0  0  0
   -2.4042   -0.6144    0.0730 C   0  0  0  0  0  0  0  0  0  0  0  0
   -1.2648   -1.4067    0.0017 N   0  0  0  0  0  0  0  0  0  0  0  0
    3.7987   -1.4967    0.0506 N   0  0  0  0  0  0  0  0  0  0  0  0
    3.6241    1.2705   -0.0111 F   0  0  0  0  0  0  0  0  0  0  0  0
    1.1524   -2.8996   -0.2169 O   0  0  0  0  0  0  0  0  0  0  0  0
    1.8455   -3.8270    0.6046 C   0  0  0  0  0  0  0  0  0  0  0  0
   -1.4523   -2.8318   -0.3616 C   0  0  0  0  0  0  0  0  0  0  0  0
   -1.9763   -3.8847   -1.3220 C   0  0  0  0  0  0  0  0  0  0  0  0
   -1.5507   -2.6828   -1.9571 C   0  0  0  0  0  0  0  0  0  0  0  0
   -1.1013    2.6394    0.2096 O   0  0  0  0  0  0  0  0  0  0  0  0
   -3.7405    1.4171    0.1217 C   0  0  0  0  0  0  0  0  0  0  0  0
   -3.6569    2.7642    0.1074 O   0  0  0  0  0  0  0  0  0  0  0  0
   -4.8144    0.8309    0.0994 O   0  0  0  0  0  0  0  0  0  0  0  0
    4.9361   -0.9367    0.8130 C   0  0  0  0  0  0  0  0  0  0  0  0
    6.1568   -0.6670   -0.0950 C   0  0  0  0  0  0  0  0  0  0  0  0
    6.5552   -1.8289   -0.9176 N   0  0  0  0  0  0  0  0  0  0  0  0
    5.3999   -2.3135   -1.7102 C   0  0  3  0  0  0  0  0  0  0  0  0
    4.1401   -2.5986   -0.8563 C   0  0  0  0  0  0  0  0  0  0  0  0
    5.0692   -1.3867   -2.8809 C   0  0  0  0  0  0  0  0  0  0  0  0
    1.3641    2.3569    0.1328 H   0  0  0  0  0  0  0  0  0  0  0  0
   -3.3322   -1.1849    0.0273 H   0  0  0  0  0  0  0  0  0  0  0  0
    2.4808   -4.4371   -0.0470 H   0  0  0  0  0  0  0  0  0  0  0  0
    2.4328   -3.3814    1.4100 H   0  0  0  0  0  0  0  0  0  0  0  0
    1.1239   -4.5274    1.0338 H   0  0  0  0  0  0  0  0  0  0  0  0
   -2.0772   -3.1594    0.4736 H   0  0  0  0  0  0  0  0  0  0  0  0
   -1.3662   -4.7749   -1.4399 H   0  0  0  0  0  0  0  0  0  0  0  0
   -3.0393   -4.1042   -1.3213 H   0  0  0  0  0  0  0  0  0  0  0  0
   -2.3078   -2.0252   -2.3694 H   0  0  0  0  0  0  0  0  0  0  0  0
   -0.6041   -2.6511   -2.4844 H   0  0  0  0  0  0  0  0  0  0  0  0
   -2.7313    3.1110    0.1308 H   0  0  0  0  0  0  0  0  0  0  0  0
    4.6885   -0.0274    1.3715 H   0  0  0  0  0  0  0  0  0  0  0  0
    5.2194   -1.6696    1.5801 H   0  0  0  0  0  0  0  0  0  0  0  0
    5.9664    0.1927   -0.7471 H   0  0  0  0  0  0  0  0  0  0  0  0
    7.0114   -0.3871    0.5328 H   0  0  0  0  0  0  0  0  0  0  0  0
    6.8279   -2.5765   -0.2785 H   0  0  0  0  0  0  0  0  0  0  0  0
    5.7063   -3.2706   -2.1512 H   0  0  0  0  0  0  0  0  0  0  0  0
    4.3723   -3.4752   -0.2391 H   0  0  0  0  0  0  0  0  0  0  0  0
    3.3143   -2.8574   -1.5265 H   0  0  0  0  0  0  0  0  0  0  0  0
    5.9452   -1.2465   -3.5225 H   0  0  0  0  0  0  0  0  0  0  0  0
    4.2769   -1.8266   -3.4950 H   0  0  0  0  0  0  0  0  0  0  0  0
    4.7206   -0.4033   -2.5505 H   0  0  0  0  0  0  0  0  0  0  0  0
  1  2  2  0  0  0  0
  1 11  1  0  0  0  0
  2  3  1  0  0  0  0
  3  4  2  0  0  0  0
  3 28  1  0  0  0  0
  4  5  1  0  0  0  0
  4  7  1  0  0  0  0
  5  6  2  0  0  0  0
  6  1  1  0  0  0  0
  6 13  1  0  0  0  0
  7  8  1  0  0  0  0
  7 18  2  0  0  0  0
  8  9  2  0  0  0  0
  8 19  1  0  0  0  0
  9 10  1  0  0  0  0
  9 29  1  0  0  0  0
 10  5  1  0  0  0  0
 10 15  1  0  0  0  0
 11 22  1  0  0  0  0
 12  2  1  0  0  0  0
 13 14  1  0  0  0  0
 14 30  1  0  0  0  0
 14 31  1  0  0  0  0
 14 32  1  0  0  0  0
 15 16  1  0  0  0  0
 15 33  1  0  0  0  0
 16 17  1  0  0  0  0
 16 34  1  0  0  0  0
 16 35  1  0  0  0  0
 17 15  1  0  0  0  0
 17 36  1  0  0  0  0
 17 37  1  0  0  0  0
 19 20  1  0  0  0  0
 19 21  2  0  0  0  0
 20 38  1  0  0  0  0
 22 23  1  0  0  0  0
 22 39  1  0  0  0  0
 22 40  1  0  0  0  0
 23 24  1  0  0  0  0
 23 41  1  0  0  0  0
 23 42  1  0  0  0  0
 24 25  1  0  0  0  0
 24 43  1  0  0  0  0
 25 26  1  0  0  0  0
 25 27  1  0  0  0  0
 25 44  1  0  0  0  0
 26 11  1  0  0  0  0
 26 45  1  0  0  0  0
 26 46  1  0  0  0  0
 27 47  1  0  0  0  0
 27 48  1  0  0  0  0
 27 49  1  0  0  0  0
M  END
>  <Mol_ID>
211

>  <Formula>
C19H22FN3O4

>  <MolWeight>
375.3940832

>  <Cat>
S1340

>  <Name>
Gatifloxacin

>  <Synonyms>
AM-1155, CG5501, BMS-206584

>  <Target>
Topoisomerase

>  <Form>
free base

>  <CAS>
112811-59-3

>  <URL>
http://selleckchem.com/products/Gatifloxacin.html

$$$$
