Gboxin
 OpenBabel08302521233D

 59 61  0  0  0  0  0  0  0  0999 V2000
    3.4139   -5.0657   -6.5080 C   0  0  0  0  0  0  0  0  0  0  0  0
    2.7271   -4.1004   -5.7722 C   0  0  0  0  0  0  0  0  0  0  0  0
    2.9490   -3.9111   -4.4040 C   0  0  0  0  0  0  0  0  0  0  0  0
    3.8774   -4.6749   -3.6921 C   0  0  0  0  0  0  0  0  0  0  0  0
    4.5777   -5.6404   -4.4249 C   0  0  0  0  0  0  0  0  0  0  0  0
    4.3456   -5.8323   -5.7991 C   0  0  0  0  0  0  0  0  0  0  0  0
    1.7707   -3.1599   -6.1431 N   0  3  0  0  0  0  0  0  0  0  0  0
    1.4017   -2.4253   -5.0697 C   0  0  0  0  0  0  0  0  0  0  0  0
    2.0945   -2.8869   -4.0062 N   0  0  0  0  0  0  0  0  0  0  0  0
    1.9629   -2.3898   -2.6215 C   0  0  0  0  0  0  0  0  0  0  0  0
    0.8602   -3.1069   -1.8524 C   0  0  0  0  0  0  0  0  0  0  0  0
    1.3795   -4.1329   -1.1288 O   0  0  0  0  0  0  0  0  0  0  0  0
   -0.3231   -2.8037   -1.9167 O   0  0  0  0  0  0  0  0  0  0  0  0
    0.4244   -1.2770   -5.0741 C   0  0  0  0  0  0  0  0  0  0  0  0
    1.0558    0.0831   -5.2882 C   0  0  0  0  0  0  0  0  0  0  0  0
    1.2497   -2.9681   -7.4954 C   0  0  0  0  0  0  0  0  0  0  0  0
    0.4974   -4.8854   -0.2496 C   0  0  2  0  0  0  0  0  0  0  0  0
    0.3393   -4.1464    1.0902 C   0  0  0  0  0  0  0  0  0  0  0  0
    1.6362   -4.0252    1.9145 C   0  0  1  0  0  0  0  0  0  0  0  0
    2.4150   -5.3480    1.9749 C   0  0  0  0  0  0  0  0  0  0  0  0
    2.5249   -6.0687    0.6315 C   0  0  0  0  0  0  0  0  0  0  0  0
    1.1550   -6.2765   -0.0570 C   0  0  1  0  0  0  0  0  0  0  0  0
    0.2630   -7.3335    0.6734 C   0  0  0  0  0  0  0  0  0  0  0  0
   -1.1107   -7.5104    0.0122 C   0  0  0  0  0  0  0  0  0  0  0  0
    0.9432   -8.7121    0.7210 C   0  0  0  0  0  0  0  0  0  0  0  0
    2.5207   -2.8645    1.4471 C   0  0  0  0  0  0  0  0  0  0  0  0
    3.2430   -5.2195   -7.5647 H   0  0  0  0  0  0  0  0  0  0  0  0
    4.0550   -4.5273   -2.6342 H   0  0  0  0  0  0  0  0  0  0  0  0
    5.3232   -6.2566   -3.9213 H   0  0  0  0  0  0  0  0  0  0  0  0
    4.9177   -6.5997   -6.3273 H   0  0  0  0  0  0  0  0  0  0  0  0
    2.9194   -2.4928   -2.0984 H   0  0  0  0  0  0  0  0  0  0  0  0
    1.7443   -1.3180   -2.6335 H   0  0  0  0  0  0  0  0  0  0  0  0
   -0.3078   -1.4919   -5.8571 H   0  0  0  0  0  0  0  0  0  0  0  0
   -0.1011   -1.3172   -4.1187 H   0  0  0  0  0  0  0  0  0  0  0  0
    1.4989    0.1538   -6.2865 H   0  0  0  0  0  0  0  0  0  0  0  0
    0.3065    0.8735   -5.1873 H   0  0  0  0  0  0  0  0  0  0  0  0
    1.8527    0.2655   -4.5606 H   0  0  0  0  0  0  0  0  0  0  0  0
    0.1640   -3.0904   -7.4847 H   0  0  0  0  0  0  0  0  0  0  0  0
    1.5122   -1.9633   -7.8349 H   0  0  0  0  0  0  0  0  0  0  0  0
    1.6735   -3.6949   -8.1905 H   0  0  0  0  0  0  0  0  0  0  0  0
   -0.4755   -4.9898   -0.7414 H   0  0  0  0  0  0  0  0  0  0  0  0
   -0.4012   -4.6822    1.6975 H   0  0  0  0  0  0  0  0  0  0  0  0
   -0.0724   -3.1441    0.9201 H   0  0  0  0  0  0  0  0  0  0  0  0
    1.3456   -3.7743    2.9442 H   0  0  0  0  0  0  0  0  0  0  0  0
    1.9229   -6.0115    2.6960 H   0  0  0  0  0  0  0  0  0  0  0  0
    3.4230   -5.1730    2.3710 H   0  0  0  0  0  0  0  0  0  0  0  0
    3.0434   -7.0214    0.7724 H   0  0  0  0  0  0  0  0  0  0  0  0
    3.1788   -5.4877   -0.0307 H   0  0  0  0  0  0  0  0  0  0  0  0
    1.3699   -6.6728   -1.0598 H   0  0  0  0  0  0  0  0  0  0  0  0
    0.0862   -7.0210    1.7091 H   0  0  0  0  0  0  0  0  0  0  0  0
   -1.0135   -7.7014   -1.0616 H   0  0  0  0  0  0  0  0  0  0  0  0
   -1.6520   -8.3561    0.4537 H   0  0  0  0  0  0  0  0  0  0  0  0
   -1.7393   -6.6271    0.1546 H   0  0  0  0  0  0  0  0  0  0  0  0
    1.8524   -8.6970    1.3278 H   0  0  0  0  0  0  0  0  0  0  0  0
    0.2825   -9.4622    1.1707 H   0  0  0  0  0  0  0  0  0  0  0  0
    1.2051   -9.0574   -0.2851 H   0  0  0  0  0  0  0  0  0  0  0  0
    3.4170   -2.7849    2.0715 H   0  0  0  0  0  0  0  0  0  0  0  0
    2.8556   -2.9744    0.4146 H   0  0  0  0  0  0  0  0  0  0  0  0
    1.9801   -1.9150    1.5301 H   0  0  0  0  0  0  0  0  0  0  0  0
  1  2  2  0  0  0  0
  1 27  1  0  0  0  0
  2  3  1  0  0  0  0
  2  7  1  0  0  0  0
  3  4  2  0  0  0  0
  4  5  1  0  0  0  0
  4 28  1  0  0  0  0
  5  6  2  0  0  0  0
  5 29  1  0  0  0  0
  6  1  1  0  0  0  0
  6 30  1  0  0  0  0
  7  8  2  0  0  0  0
  7 16  1  0  0  0  0
  8  9  1  0  0  0  0
  8 14  1  0  0  0  0
  9  3  1  0  0  0  0
  9 10  1  0  0  0  0
 10 11  1  0  0  0  0
 10 31  1  0  0  0  0
 10 32  1  0  0  0  0
 11 12  1  0  0  0  0
 11 13  2  0  0  0  0
 14 15  1  0  0  0  0
 14 33  1  0  0  0  0
 14 34  1  0  0  0  0
 15 35  1  0  0  0  0
 15 36  1  0  0  0  0
 15 37  1  0  0  0  0
 16 38  1  0  0  0  0
 16 39  1  0  0  0  0
 16 40  1  0  0  0  0
 17 18  1  0  0  0  0
 17 41  1  6  0  0  0
 17 12  1  0  0  0  0
 18 19  1  0  0  0  0
 18 42  1  0  0  0  0
 18 43  1  0  0  0  0
 19 20  1  0  0  0  0
 19 44  1  1  0  0  0
 19 26  1  0  0  0  0
 20 21  1  0  0  0  0
 20 45  1  0  0  0  0
 20 46  1  0  0  0  0
 21 22  1  0  0  0  0
 21 47  1  0  0  0  0
 21 48  1  0  0  0  0
 22 17  1  0  0  0  0
 22 49  1  6  0  0  0
 22 23  1  0  0  0  0
 23 24  1  0  0  0  0
 23 25  1  0  0  0  0
 23 50  1  0  0  0  0
 24 51  1  0  0  0  0
 24 52  1  0  0  0  0
 24 53  1  0  0  0  0
 25 54  1  0  0  0  0
 25 55  1  0  0  0  0
 25 56  1  0  0  0  0
 26 57  1  0  0  0  0
 26 58  1  0  0  0  0
 26 59  1  0  0  0  0
M  CHG  1   7   1
M  END
>  <Mol_ID>
4805

>  <Formula>
C22H33ClN2O2

>  <MolWeight>
392.96262

>  <Cat>
S8828

>  <Name>
Gboxin

>  <Synonyms>
N/A

>  <Target>
ATPase,OXPHOS

>  <Form>
Free Base

>  <CAS>
2101315-36-8

>  <URL>
http://www.selleck.cn/products/gboxin.html

$$$$
