GBT440.cdx
 OpenBabel08302520433D

 44 46  0  0  0  0  0  0  0  0999 V2000
   -1.3387    0.0592    0.1768 N   0  0  0  0  0  0  0  0  0  0  0  0
   -0.6579    1.2293    0.0527 C   0  0  0  0  0  0  0  0  0  0  0  0
    0.7425    1.2779    0.0378 C   0  0  0  0  0  0  0  0  0  0  0  0
    1.4317    0.0578    0.1660 C   0  0  0  0  0  0  0  0  0  0  0  0
    0.7373   -1.1409    0.2659 C   0  0  0  0  0  0  0  0  0  0  0  0
   -0.6388   -1.0893    0.2598 C   0  0  0  0  0  0  0  0  0  0  0  0
   -1.5578    2.3879   -0.0108 C   0  0  0  0  0  0  0  0  0  0  0  0
    1.5486    2.5426   -0.1136 C   0  0  0  0  0  0  0  0  0  0  0  0
    1.2757    3.2035   -1.3421 O   0  0  0  0  0  0  0  0  0  0  0  0
    2.0144    2.9622   -2.4650 C   0  0  0  0  0  0  0  0  0  0  0  0
    3.0454    2.0203   -2.5529 C   0  0  0  0  0  0  0  0  0  0  0  0
    3.7149    1.8016   -3.7629 C   0  0  0  0  0  0  0  0  0  0  0  0
    3.3587    2.5162   -4.9032 C   0  0  0  0  0  0  0  0  0  0  0  0
    2.3405    3.4610   -4.8293 C   0  0  0  0  0  0  0  0  0  0  0  0
    1.6756    3.6975   -3.6167 C   0  0  0  0  0  0  0  0  0  0  0  0
    0.6246    4.7436   -3.5930 C   0  0  0  0  0  0  0  0  0  0  0  0
    0.3661    5.4256   -2.6085 O   0  0  0  0  0  0  0  0  0  0  0  0
    2.0020    4.1746   -5.9462 O   0  0  0  0  0  0  0  0  0  0  0  0
   -1.4641    3.6417    0.5746 C   0  0  0  0  0  0  0  0  0  0  0  0
   -2.6393    4.3245    0.2318 C   0  0  0  0  0  0  0  0  0  0  0  0
   -3.4539    3.5795   -0.5073 N   0  0  0  0  0  0  0  0  0  0  0  0
   -2.7714    2.4197   -0.6815 N   0  0  0  0  0  0  0  0  0  0  0  0
   -3.3493    1.4256   -1.5845 C   0  0  0  0  0  0  0  0  0  0  0  0
   -4.6943    0.9126   -1.0676 C   0  0  0  0  0  0  0  0  0  0  0  0
   -3.4685    1.9823   -3.0052 C   0  0  0  0  0  0  0  0  0  0  0  0
    2.5183    0.0348    0.1848 H   0  0  0  0  0  0  0  0  0  0  0  0
    1.2571   -2.0888    0.3452 H   0  0  0  0  0  0  0  0  0  0  0  0
   -1.2378   -1.9931    0.3227 H   0  0  0  0  0  0  0  0  0  0  0  0
    1.2914    3.2285    0.7016 H   0  0  0  0  0  0  0  0  0  0  0  0
    2.6218    2.3757    0.0289 H   0  0  0  0  0  0  0  0  0  0  0  0
    3.3587    1.4277   -1.7016 H   0  0  0  0  0  0  0  0  0  0  0  0
    4.5144    1.0656   -3.8108 H   0  0  0  0  0  0  0  0  0  0  0  0
    3.8870    2.3245   -5.8333 H   0  0  0  0  0  0  0  0  0  0  0  0
    0.0951    4.9151   -4.5454 H   0  0  0  0  0  0  0  0  0  0  0  0
    2.6118    3.9515   -6.6701 H   0  0  0  0  0  0  0  0  0  0  0  0
   -0.6646    4.0260    1.1876 H   0  0  0  0  0  0  0  0  0  0  0  0
   -2.9403    5.3291    0.4987 H   0  0  0  0  0  0  0  0  0  0  0  0
   -2.6681    0.5770   -1.6498 H   0  0  0  0  0  0  0  0  0  0  0  0
   -5.4471    1.7081   -1.0342 H   0  0  0  0  0  0  0  0  0  0  0  0
   -5.0798    0.1158   -1.7125 H   0  0  0  0  0  0  0  0  0  0  0  0
   -4.5958    0.5073   -0.0542 H   0  0  0  0  0  0  0  0  0  0  0  0
   -2.4919    2.3268   -3.3642 H   0  0  0  0  0  0  0  0  0  0  0  0
   -3.8278    1.2103   -3.6933 H   0  0  0  0  0  0  0  0  0  0  0  0
   -4.1606    2.8295   -3.0553 H   0  0  0  0  0  0  0  0  0  0  0  0
  1  2  2  0  0  0  0
  2  3  1  0  0  0  0
  2  7  1  0  0  0  0
  3  4  2  0  0  0  0
  3  8  1  0  0  0  0
  4  5  1  0  0  0  0
  4 26  1  0  0  0  0
  5  6  2  0  0  0  0
  5 27  1  0  0  0  0
  6  1  1  0  0  0  0
  6 28  1  0  0  0  0
  7 19  2  0  0  0  0
  8  9  1  0  0  0  0
  8 29  1  0  0  0  0
  8 30  1  0  0  0  0
  9 10  1  0  0  0  0
 10 11  2  0  0  0  0
 11 12  1  0  0  0  0
 11 31  1  0  0  0  0
 12 13  2  0  0  0  0
 12 32  1  0  0  0  0
 13 14  1  0  0  0  0
 13 33  1  0  0  0  0
 14 15  2  0  0  0  0
 14 18  1  0  0  0  0
 15 10  1  0  0  0  0
 15 16  1  0  0  0  0
 16 17  2  0  0  0  0
 16 34  1  0  0  0  0
 18 35  1  0  0  0  0
 19 20  1  0  0  0  0
 19 36  1  0  0  0  0
 20 21  2  0  0  0  0
 20 37  1  0  0  0  0
 21 22  1  0  0  0  0
 22  7  1  0  0  0  0
 22 23  1  0  0  0  0
 23 24  1  0  0  0  0
 23 25  1  0  0  0  0
 23 38  1  0  0  0  0
 24 39  1  0  0  0  0
 24 40  1  0  0  0  0
 24 41  1  0  0  0  0
 25 42  1  0  0  0  0
 25 43  1  0  0  0  0
 25 44  1  0  0  0  0
M  END
>  <Mol_ID>
4139

>  <Formula>
C19H19N3O3

>  <MolWeight>
337.37246

>  <Cat>
S8540

>  <Name>
Voxelotor (GBT440)

>  <Synonyms>
GTx011

>  <Target>
Others

>  <Form>
free base

>  <CAS>
1446321-46-5

>  <URL>
http://selleckchem.com/products/gbt440.html

$$$$
