GDC-0152.cdx
 OpenBabel08302519553D

 69 72  0  0  0  0  0  0  0  0999 V2000
   -5.9565   -8.9450   -0.3757 S   0  0  0  0  0  0  0  0  0  0  0  0
   -5.1755  -10.4257   -0.2474 N   0  0  0  0  0  0  0  0  0  0  0  0
   -4.3070  -10.4695    0.7542 N   0  0  0  0  0  0  0  0  0  0  0  0
   -4.2612   -9.2674    1.4522 C   0  0  0  0  0  0  0  0  0  0  0  0
   -5.0830   -8.2765    0.9221 C   0  0  0  0  0  0  0  0  0  0  0  0
   -3.4078   -9.0928    2.6326 C   0  0  0  0  0  0  0  0  0  0  0  0
   -2.2088   -9.8039    2.7524 C   0  0  0  0  0  0  0  0  0  0  0  0
   -1.3750   -9.6101    3.8609 C   0  0  0  0  0  0  0  0  0  0  0  0
   -1.7209   -8.6972    4.8538 C   0  0  0  0  0  0  0  0  0  0  0  0
   -2.9244   -8.0040    4.7661 C   0  0  0  0  0  0  0  0  0  0  0  0
   -3.7727   -8.2264    3.6805 C   0  0  0  0  0  0  0  0  0  0  0  0
   -5.1291   -6.9293    1.2190 N   0  0  0  0  0  0  0  0  0  0  0  0
   -6.3128   -6.2982    1.5572 C   0  0  0  0  0  0  0  0  0  0  0  0
   -6.1515   -4.8978    2.2669 C   0  0  1  0  0  0  0  0  0  0  0  0
   -7.3889   -6.9019    1.5638 O   0  0  0  0  0  0  0  0  0  0  0  0
   -5.4224   -3.6762    1.8032 N   0  0  0  0  0  0  0  0  0  0  0  0
   -6.1560   -2.4833    2.2472 C   0  0  0  0  0  0  0  0  0  0  0  0
   -7.4707   -2.9354    2.8635 C   0  0  0  0  0  0  0  0  0  0  0  0
   -7.5952   -4.3589    2.3839 C   0  0  0  0  0  0  0  0  0  0  0  0
   -4.0792   -3.4078    1.5153 C   0  0  0  0  0  0  0  0  0  0  0  0
   -3.0926   -4.5579    1.2714 C   0  0  1  0  0  0  0  0  0  0  0  0
   -3.7018   -2.2381    1.3975 O   0  0  0  0  0  0  0  0  0  0  0  0
   -3.2572   -5.0346   -0.1034 N   0  0  0  0  0  0  0  0  0  0  0  0
   -1.6340   -4.2510    1.6847 C   0  0  0  0  0  0  0  0  0  0  0  0
   -0.7114   -5.4572    1.4015 C   0  0  0  0  0  0  0  0  0  0  0  0
    0.7340   -5.1460    1.7808 C   0  0  0  0  0  0  0  0  0  0  0  0
    0.8593   -4.6939    3.2329 C   0  0  0  0  0  0  0  0  0  0  0  0
   -0.1080   -3.5628    3.5684 C   0  0  0  0  0  0  0  0  0  0  0  0
   -1.5414   -3.9181    3.1876 C   0  0  0  0  0  0  0  0  0  0  0  0
   -2.7411   -4.3601   -1.1994 C   0  0  0  0  0  0  0  0  0  0  0  0
   -3.1778   -4.9276   -2.5699 C   0  0  1  0  0  0  0  0  0  0  0  0
   -1.9367   -3.4385   -1.1090 O   0  0  0  0  0  0  0  0  0  0  0  0
   -4.5690   -5.4575   -2.5383 N   0  0  0  0  0  0  0  0  0  0  0  0
   -5.5895   -4.4225   -2.3844 C   0  0  0  0  0  0  0  0  0  0  0  0
   -2.9164   -3.9182   -3.6913 C   0  0  0  0  0  0  0  0  0  0  0  0
   -1.9112  -10.5214    1.9902 H   0  0  0  0  0  0  0  0  0  0  0  0
   -0.4529  -10.1785    3.9521 H   0  0  0  0  0  0  0  0  0  0  0  0
   -1.0671   -8.5393    5.7084 H   0  0  0  0  0  0  0  0  0  0  0  0
   -3.2129   -7.3090    5.5518 H   0  0  0  0  0  0  0  0  0  0  0  0
   -4.7378   -7.7276    3.6889 H   0  0  0  0  0  0  0  0  0  0  0  0
   -4.3604   -6.6702    1.8031 H   0  0  0  0  0  0  0  0  0  0  0  0
   -5.7540   -5.1079    3.2714 H   0  0  0  0  0  0  0  0  0  0  0  0
   -6.2904   -1.8128    1.3896 H   0  0  0  0  0  0  0  0  0  0  0  0
   -5.5636   -1.9552    3.0028 H   0  0  0  0  0  0  0  0  0  0  0  0
   -8.3051   -2.3047    2.5274 H   0  0  0  0  0  0  0  0  0  0  0  0
   -7.4156   -2.8914    3.9581 H   0  0  0  0  0  0  0  0  0  0  0  0
   -8.0746   -4.3693    1.3951 H   0  0  0  0  0  0  0  0  0  0  0  0
   -8.2161   -4.9582    3.0616 H   0  0  0  0  0  0  0  0  0  0  0  0
   -3.3766   -5.3399    1.9604 H   0  0  0  0  0  0  0  0  0  0  0  0
   -4.0545   -5.6237   -0.3502 H   0  0  0  0  0  0  0  0  0  0  0  0
   -1.2629   -3.3802    1.1342 H   0  0  0  0  0  0  0  0  0  0  0  0
   -1.0564   -6.3319    1.9704 H   0  0  0  0  0  0  0  0  0  0  0  0
   -0.7422   -5.7409    0.3441 H   0  0  0  0  0  0  0  0  0  0  0  0
    1.3566   -6.0326    1.6168 H   0  0  0  0  0  0  0  0  0  0  0  0
    1.1157   -4.3603    1.1179 H   0  0  0  0  0  0  0  0  0  0  0  0
    0.6624   -5.5454    3.8947 H   0  0  0  0  0  0  0  0  0  0  0  0
    1.8868   -4.3675    3.4267 H   0  0  0  0  0  0  0  0  0  0  0  0
   -0.0547   -3.3360    4.6386 H   0  0  0  0  0  0  0  0  0  0  0  0
    0.1910   -2.6532    3.0326 H   0  0  0  0  0  0  0  0  0  0  0  0
   -2.1963   -3.0796    3.4450 H   0  0  0  0  0  0  0  0  0  0  0  0
   -1.8775   -4.7765    3.7858 H   0  0  0  0  0  0  0  0  0  0  0  0
   -2.5241   -5.7909   -2.7496 H   0  0  0  0  0  0  0  0  0  0  0  0
   -4.7329   -5.9204   -3.4368 H   0  0  0  0  0  0  0  0  0  0  0  0
   -5.5456   -3.6623   -3.1696 H   0  0  0  0  0  0  0  0  0  0  0  0
   -6.5771   -4.8902   -2.4477 H   0  0  0  0  0  0  0  0  0  0  0  0
   -5.5246   -3.9373   -1.4073 H   0  0  0  0  0  0  0  0  0  0  0  0
   -1.8514   -3.6606   -3.7379 H   0  0  0  0  0  0  0  0  0  0  0  0
   -3.2015   -4.3206   -4.6687 H   0  0  0  0  0  0  0  0  0  0  0  0
   -3.4560   -2.9782   -3.5302 H   0  0  0  0  0  0  0  0  0  0  0  0
  1  2  1  0  0  0  0
  1  5  1  0  0  0  0
  2  3  2  0  0  0  0
  3  4  1  0  0  0  0
  4  5  2  0  0  0  0
  4  6  1  0  0  0  0
  5 12  1  0  0  0  0
  6  7  2  0  0  0  0
  6 11  1  0  0  0  0
  7  8  1  0  0  0  0
  7 36  1  0  0  0  0
  8  9  2  0  0  0  0
  8 37  1  0  0  0  0
  9 10  1  0  0  0  0
  9 38  1  0  0  0  0
 10 11  2  0  0  0  0
 10 39  1  0  0  0  0
 11 40  1  0  0  0  0
 12 13  1  0  0  0  0
 12 41  1  0  0  0  0
 13 15  2  0  0  0  0
 14 13  1  0  0  0  0
 14 16  1  0  0  0  0
 14 42  1  1  0  0  0
 16 17  1  0  0  0  0
 16 20  1  0  0  0  0
 17 18  1  0  0  0  0
 17 43  1  0  0  0  0
 17 44  1  0  0  0  0
 18 19  1  0  0  0  0
 18 45  1  0  0  0  0
 18 46  1  0  0  0  0
 19 14  1  0  0  0  0
 19 47  1  0  0  0  0
 19 48  1  0  0  0  0
 20 22  2  0  0  0  0
 21 20  1  0  0  0  0
 21 23  1  0  0  0  0
 21 24  1  0  0  0  0
 21 49  1  1  0  0  0
 23 30  1  0  0  0  0
 23 50  1  0  0  0  0
 24 25  1  0  0  0  0
 24 51  1  0  0  0  0
 25 26  1  0  0  0  0
 25 52  1  0  0  0  0
 25 53  1  0  0  0  0
 26 27  1  0  0  0  0
 26 54  1  0  0  0  0
 26 55  1  0  0  0  0
 27 28  1  0  0  0  0
 27 56  1  0  0  0  0
 27 57  1  0  0  0  0
 28 29  1  0  0  0  0
 28 58  1  0  0  0  0
 28 59  1  0  0  0  0
 29 24  1  0  0  0  0
 29 60  1  0  0  0  0
 29 61  1  0  0  0  0
 30 31  1  0  0  0  0
 30 32  2  0  0  0  0
 31 33  1  0  0  0  0
 31 35  1  0  0  0  0
 31 62  1  6  0  0  0
 33 34  1  0  0  0  0
 33 63  1  0  0  0  0
 34 64  1  0  0  0  0
 34 65  1  0  0  0  0
 34 66  1  0  0  0  0
 35 67  1  0  0  0  0
 35 68  1  0  0  0  0
 35 69  1  0  0  0  0
M  END
>  <Mol_ID>
2160

>  <Formula>
C25H34N6O3S

>  <MolWeight>
498.64086

>  <Cat>
S7010

>  <Name>
GDC-0152

>  <Synonyms>
N/A

>  <Target>
IAP

>  <Form>
free base

>  <CAS>
873652-48-3

>  <URL>
http://selleckchem.com/products/gdc-0152.html

$$$$
