GDC-1971
 OpenBabel08302521353D

 60 66  0  0  0  0  0  0  0  0999 V2000
    2.6306    0.0882    1.4374 N   0  0  0  0  0  0  0  0  0  0  0  0
    2.9781    1.2217   -0.8805 C   0  0  0  0  0  0  0  0  0  0  0  0
    2.3775    0.0672    0.0014 C   0  0  1  0  0  0  0  0  0  0  0  0
    3.2969    0.6353   -2.1850 O   0  0  0  0  0  0  0  0  0  0  0  0
    1.9170    2.3228   -1.0694 C   0  0  0  0  0  0  0  0  0  0  0  0
    4.2826    1.8225   -0.3135 C   0  0  0  0  0  0  0  0  0  0  0  0
    2.9730   -1.1067   -0.6923 C   0  0  0  0  0  0  0  0  0  0  0  0
    3.4303   -0.7104   -1.9394 C   0  0  0  0  0  0  0  0  0  0  0  0
    2.4407    3.5547   -1.8113 C   0  0  0  0  0  0  0  0  0  0  0  0
    4.7285    3.0498   -1.1019 C   0  0  0  0  0  0  0  0  0  0  0  0
    3.0198   -2.4319   -0.2967 C   0  0  0  0  0  0  0  0  0  0  0  0
    3.9429   -1.6161   -2.8435 C   0  0  0  0  0  0  0  0  0  0  0  0
    3.6165    4.0369   -1.1087 N   0  0  0  0  0  0  0  0  0  0  0  0
    3.5596   -3.3586   -1.1918 C   0  0  0  0  0  0  0  0  0  0  0  0
    4.0186   -2.9553   -2.4565 C   0  0  0  0  0  0  0  0  0  0  0  0
    3.9714    5.3779   -1.0641 C   0  0  0  0  0  0  0  0  0  0  0  0
    5.1587    5.6364   -0.5103 N   0  0  0  0  0  0  0  0  0  0  0  0
    3.1590    6.4735   -1.4275 C   0  0  0  0  0  0  0  0  0  0  0  0
    5.4071    6.9367   -0.3374 C   0  0  0  0  0  0  0  0  0  0  0  0
    3.5279    7.8152   -1.4808 N   0  0  0  0  0  0  0  0  0  0  0  0
    4.7281    8.0216   -0.8482 C   0  0  0  0  0  0  0  0  0  0  0  0
    6.3268    7.4313    0.5099 N   0  0  0  0  0  0  0  0  0  0  0  0
    5.6219    9.1187   -0.5435 C   0  0  0  0  0  0  0  0  0  0  0  0
    6.3924    8.7607    0.5075 N   0  0  0  0  0  0  0  0  0  0  0  0
    5.8446   10.3270   -1.1954 N   0  0  0  0  0  0  0  0  0  0  0  0
    6.1501   10.3473   -2.6113 C   0  0  0  0  0  0  0  0  0  0  0  0
    7.0090   11.0796   -0.5931 C   0  0  0  0  0  0  0  0  0  0  0  0
    7.4103    9.9073   -3.0695 C   0  0  0  0  0  0  0  0  0  0  0  0
    5.3168   10.9668   -3.5366 C   0  0  0  0  0  0  0  0  0  0  0  0
    8.3921   10.4188   -0.8742 C   0  0  0  0  0  0  0  0  0  0  0  0
    8.3791    9.4181   -2.0334 C   0  0  0  0  0  0  0  0  0  0  0  0
    7.8456   10.0147   -4.3464 N   0  0  0  0  0  0  0  0  0  0  0  0
    5.7508   11.1022   -4.8584 C   0  0  0  0  0  0  0  0  0  0  0  0
    7.0008   10.6092   -5.2115 C   0  0  0  0  0  0  0  0  0  0  0  0
    2.3209    0.9766    1.8273 H   0  0  0  0  0  0  0  0  0  0  0  0
    3.6341    0.0209    1.6050 H   0  0  0  0  0  0  0  0  0  0  0  0
    1.2949    0.0117   -0.1543 H   0  0  0  0  0  0  0  0  0  0  0  0
    1.5506    2.6396   -0.0824 H   0  0  0  0  0  0  0  0  0  0  0  0
    1.0646    1.9252   -1.6306 H   0  0  0  0  0  0  0  0  0  0  0  0
    4.1441    2.1225    0.7317 H   0  0  0  0  0  0  0  0  0  0  0  0
    5.0938    1.0853   -0.3404 H   0  0  0  0  0  0  0  0  0  0  0  0
    1.6296    4.2917   -1.8315 H   0  0  0  0  0  0  0  0  0  0  0  0
    2.6909    3.3124   -2.8504 H   0  0  0  0  0  0  0  0  0  0  0  0
    4.9970    2.7860   -2.1272 H   0  0  0  0  0  0  0  0  0  0  0  0
    5.6429    3.4219   -0.6237 H   0  0  0  0  0  0  0  0  0  0  0  0
    2.6406   -2.7425    0.6650 H   0  0  0  0  0  0  0  0  0  0  0  0
    4.3057   -1.2923   -3.8089 H   0  0  0  0  0  0  0  0  0  0  0  0
    3.6092   -4.4092   -0.9145 H   0  0  0  0  0  0  0  0  0  0  0  0
    4.4299   -3.6930   -3.1358 H   0  0  0  0  0  0  0  0  0  0  0  0
    2.1016    6.3258   -1.6307 H   0  0  0  0  0  0  0  0  0  0  0  0
    6.9066    6.9073    1.1488 H   0  0  0  0  0  0  0  0  0  0  0  0
    7.0187   12.1089   -0.9793 H   0  0  0  0  0  0  0  0  0  0  0  0
    6.8744   11.2030    0.4918 H   0  0  0  0  0  0  0  0  0  0  0  0
    4.3622   11.3805   -3.2283 H   0  0  0  0  0  0  0  0  0  0  0  0
    9.1137   11.2160   -1.0925 H   0  0  0  0  0  0  0  0  0  0  0  0
    8.7749    9.9191    0.0251 H   0  0  0  0  0  0  0  0  0  0  0  0
    9.3853    9.2945   -2.4474 H   0  0  0  0  0  0  0  0  0  0  0  0
    8.0631    8.4228   -1.6993 H   0  0  0  0  0  0  0  0  0  0  0  0
    5.1364   11.6010   -5.5993 H   0  0  0  0  0  0  0  0  0  0  0  0
    7.3761   10.7009   -6.2275 H   0  0  0  0  0  0  0  0  0  0  0  0
  1 35  1  0  0  0  0
  1 36  1  0  0  0  0
  2  3  1  0  0  0  0
  2  4  1  0  0  0  0
  2  5  1  0  0  0  0
  2  6  1  0  0  0  0
  3  7  1  0  0  0  0
  3 37  1  6  0  0  0
  3  1  1  0  0  0  0
  4  8  1  0  0  0  0
  5  9  1  0  0  0  0
  5 38  1  0  0  0  0
  5 39  1  0  0  0  0
  6 10  1  0  0  0  0
  6 40  1  0  0  0  0
  6 41  1  0  0  0  0
  7  8  2  0  0  0  0
  7 11  1  0  0  0  0
  8 12  1  0  0  0  0
  9 13  1  0  0  0  0
  9 42  1  0  0  0  0
  9 43  1  0  0  0  0
 10 13  1  0  0  0  0
 10 44  1  0  0  0  0
 10 45  1  0  0  0  0
 11 14  2  0  0  0  0
 11 46  1  0  0  0  0
 12 15  2  0  0  0  0
 12 47  1  0  0  0  0
 13 16  1  0  0  0  0
 14 15  1  0  0  0  0
 14 48  1  0  0  0  0
 15 49  1  0  0  0  0
 16 17  2  0  0  0  0
 16 18  1  0  0  0  0
 17 19  1  0  0  0  0
 18 20  2  0  0  0  0
 18 50  1  0  0  0  0
 19 21  2  0  0  0  0
 19 22  1  0  0  0  0
 20 21  1  0  0  0  0
 21 23  1  0  0  0  0
 22 24  1  0  0  0  0
 22 51  1  0  0  0  0
 23 24  2  0  0  0  0
 23 25  1  0  0  0  0
 25 26  1  0  0  0  0
 25 27  1  0  0  0  0
 26 28  2  0  0  0  0
 26 29  1  0  0  0  0
 27 30  1  0  0  0  0
 27 52  1  0  0  0  0
 27 53  1  0  0  0  0
 28 31  1  0  0  0  0
 28 32  1  0  0  0  0
 29 33  2  0  0  0  0
 29 54  1  0  0  0  0
 30 31  1  0  0  0  0
 30 55  1  0  0  0  0
 30 56  1  0  0  0  0
 31 57  1  0  0  0  0
 31 58  1  0  0  0  0
 32 34  2  0  0  0  0
 33 34  1  0  0  0  0
 33 59  1  0  0  0  0
 34 60  1  0  0  0  0
M  END
>  <Mol_ID>
6907

>  <Formula>
C25H26N8O

>  <MolWeight>
454.52694

>  <Cat>
E1191

>  <Name>
GDC-1971

>  <Synonyms>
compound 199

>  <Target>
phosphatase

>  <Form>
Free base

>  <CAS>
2377352-49-1

>  <URL>
https://www.selleckchem.com/products/gdc-1971.html

$$$$
