GDC-0349.cdx
 OpenBabel08302520413D

 65 69  0  0  0  0  0  0  0  0999 V2000
   -1.0131    1.5334   -1.8359 N   0  0  0  0  0  0  0  0  0  0  0  0
    0.2847    1.4884   -2.3226 C   0  0  0  0  0  0  0  0  0  0  0  0
    0.5483    1.0399   -3.4267 O   0  0  0  0  0  0  0  0  0  0  0  0
    1.1780    1.9864   -1.3935 N   0  0  0  0  0  0  0  0  0  0  0  0
    2.5834    2.0924   -1.5241 C   0  0  0  0  0  0  0  0  0  0  0  0
    3.2955    1.7072   -2.6545 C   0  0  0  0  0  0  0  0  0  0  0  0
    4.7003    1.8184   -2.6931 C   0  0  0  0  0  0  0  0  0  0  0  0
    5.4468    2.3211   -1.6111 C   0  0  0  0  0  0  0  0  0  0  0  0
    4.7098    2.7267   -0.4887 C   0  0  0  0  0  0  0  0  0  0  0  0
    3.3010    2.6091   -0.4404 C   0  0  0  0  0  0  0  0  0  0  0  0
    6.9376    2.3862   -1.6588 C   0  0  0  0  0  0  0  0  0  0  0  0
    7.5309    1.9817   -2.7960 N   0  0  0  0  0  0  0  0  0  0  0  0
    8.8760    1.9281   -2.7912 C   0  0  0  0  0  0  0  0  0  0  0  0
    9.6324    2.2335   -1.6611 C   0  0  0  0  0  0  0  0  0  0  0  0
    8.9504    2.6948   -0.5308 C   0  0  0  0  0  0  0  0  0  0  0  0
    7.6034    2.7619   -0.5434 N   0  0  0  0  0  0  0  0  0  0  0  0
    9.5577    1.3883   -4.0488 C   0  0  0  0  0  0  0  0  0  0  0  0
   11.1218    2.0272   -1.7164 C   0  0  0  0  0  0  0  0  0  0  0  0
   11.5840    1.1002   -2.8348 C   0  0  0  0  0  0  0  0  0  0  0  0
   11.0258    1.6260   -4.0828 N   0  0  3  0  0  0  0  0  0  0  0  0
   12.8870    2.3772   -6.3109 O   0  0  0  0  0  0  0  0  0  0  0  0
   13.1393    1.2825   -5.3986 C   0  0  0  0  0  0  0  0  0  0  0  0
   11.6285    0.9730   -5.2657 C   0  0  0  0  0  0  0  0  0  0  0  0
   11.5184    1.9264   -6.4782 C   0  0  0  0  0  0  0  0  0  0  0  0
   10.2087    2.3585    2.9388 C   0  0  0  0  0  0  0  0  0  0  0  0
    9.0620    2.8738    2.0105 C   0  0  1  0  0  0  0  0  0  0  0  0
    9.6312    2.9758    0.6448 N   0  0  0  0  0  0  0  0  0  0  0  0
   10.7849    3.9010    0.6421 C   0  0  0  0  0  0  0  0  0  0  0  0
   11.8730    3.2833    1.5355 C   0  0  0  0  0  0  0  0  0  0  0  0
   11.3926    3.1779    2.8854 O   0  0  0  0  0  0  0  0  0  0  0  0
    7.8718    1.9369    2.1803 C   0  0  0  0  0  0  0  0  0  0  0  0
   -2.1230    1.1472   -2.6898 C   0  0  0  0  0  0  0  0  0  0  0  0
   -3.3154    0.6831   -1.8746 C   0  0  0  0  0  0  0  0  0  0  0  0
   -1.2032    2.2675   -1.1681 H   0  0  0  0  0  0  0  0  0  0  0  0
    0.7924    2.2257   -0.4957 H   0  0  0  0  0  0  0  0  0  0  0  0
    2.8012    1.3001   -3.5301 H   0  0  0  0  0  0  0  0  0  0  0  0
    5.2086    1.4840   -3.5974 H   0  0  0  0  0  0  0  0  0  0  0  0
    5.2200    3.1348    0.3793 H   0  0  0  0  0  0  0  0  0  0  0  0
    2.7896    2.9305    0.4623 H   0  0  0  0  0  0  0  0  0  0  0  0
    9.0841    1.8578   -4.9183 H   0  0  0  0  0  0  0  0  0  0  0  0
    9.3456    0.3106   -4.0946 H   0  0  0  0  0  0  0  0  0  0  0  0
   11.4834    1.6053   -0.7756 H   0  0  0  0  0  0  0  0  0  0  0  0
   11.6028    2.9962   -1.8898 H   0  0  0  0  0  0  0  0  0  0  0  0
   11.2831    0.0621   -2.6499 H   0  0  0  0  0  0  0  0  0  0  0  0
   12.6775    1.1216   -2.8210 H   0  0  0  0  0  0  0  0  0  0  0  0
   13.7184    0.4958   -5.8959 H   0  0  0  0  0  0  0  0  0  0  0  0
   13.7012    1.6171   -4.5236 H   0  0  0  0  0  0  0  0  0  0  0  0
   11.3502   -0.0699   -5.4423 H   0  0  0  0  0  0  0  0  0  0  0  0
   10.8103    2.7573   -6.4116 H   0  0  0  0  0  0  0  0  0  0  0  0
   11.4035    1.4299   -7.4469 H   0  0  0  0  0  0  0  0  0  0  0  0
    9.8769    2.3496    3.9820 H   0  0  0  0  0  0  0  0  0  0  0  0
   10.4888    1.3311    2.6708 H   0  0  0  0  0  0  0  0  0  0  0  0
    8.7723    3.8793    2.3425 H   0  0  0  0  0  0  0  0  0  0  0  0
   10.4747    4.8632    1.0688 H   0  0  0  0  0  0  0  0  0  0  0  0
   11.1801    4.1375   -0.3446 H   0  0  0  0  0  0  0  0  0  0  0  0
   12.7717    3.9068    1.5406 H   0  0  0  0  0  0  0  0  0  0  0  0
   12.1689    2.2833    1.1922 H   0  0  0  0  0  0  0  0  0  0  0  0
    7.6519    1.7825    3.2426 H   0  0  0  0  0  0  0  0  0  0  0  0
    6.9645    2.3637    1.7484 H   0  0  0  0  0  0  0  0  0  0  0  0
    8.0542    0.9592    1.7242 H   0  0  0  0  0  0  0  0  0  0  0  0
   -2.3932    2.0229   -3.2903 H   0  0  0  0  0  0  0  0  0  0  0  0
   -1.8112    0.3532   -3.3769 H   0  0  0  0  0  0  0  0  0  0  0  0
   -3.6536    1.4650   -1.1870 H   0  0  0  0  0  0  0  0  0  0  0  0
   -4.1493    0.4213   -2.5333 H   0  0  0  0  0  0  0  0  0  0  0  0
   -3.0592   -0.1991   -1.2785 H   0  0  0  0  0  0  0  0  0  0  0  0
  1  2  1  0  0  0  0
  1 32  1  0  0  0  0
  1 34  1  0  0  0  0
  2  3  2  0  0  0  0
  2  4  1  0  0  0  0
  4  5  1  0  0  0  0
  4 35  1  0  0  0  0
  5  6  2  0  0  0  0
  5 10  1  0  0  0  0
  6  7  1  0  0  0  0
  6 36  1  0  0  0  0
  7  8  2  0  0  0  0
  7 37  1  0  0  0  0
  8  9  1  0  0  0  0
  8 11  1  0  0  0  0
  9 10  2  0  0  0  0
  9 38  1  0  0  0  0
 10 39  1  0  0  0  0
 11 12  2  0  0  0  0
 11 16  1  0  0  0  0
 12 13  1  0  0  0  0
 13 14  2  0  0  0  0
 13 17  1  0  0  0  0
 14 15  1  0  0  0  0
 14 18  1  0  0  0  0
 15 16  2  0  0  0  0
 15 27  1  0  0  0  0
 17 20  1  0  0  0  0
 17 40  1  0  0  0  0
 17 41  1  0  0  0  0
 18 19  1  0  0  0  0
 18 42  1  0  0  0  0
 18 43  1  0  0  0  0
 19 20  1  0  0  0  0
 19 44  1  0  0  0  0
 19 45  1  0  0  0  0
 20 23  1  0  0  0  0
 21 22  1  0  0  0  0
 21 24  1  0  0  0  0
 22 23  1  0  0  0  0
 22 46  1  0  0  0  0
 22 47  1  0  0  0  0
 23 24  1  0  0  0  0
 23 48  1  0  0  0  0
 24 49  1  0  0  0  0
 24 50  1  0  0  0  0
 25 26  1  0  0  0  0
 25 30  1  0  0  0  0
 25 51  1  0  0  0  0
 25 52  1  0  0  0  0
 26 27  1  0  0  0  0
 26 31  1  0  0  0  0
 26 53  1  1  0  0  0
 27 28  1  0  0  0  0
 28 29  1  0  0  0  0
 28 54  1  0  0  0  0
 28 55  1  0  0  0  0
 29 30  1  0  0  0  0
 29 56  1  0  0  0  0
 29 57  1  0  0  0  0
 31 58  1  0  0  0  0
 31 59  1  0  0  0  0
 31 60  1  0  0  0  0
 32 33  1  0  0  0  0
 32 61  1  0  0  0  0
 32 62  1  0  0  0  0
 33 63  1  0  0  0  0
 33 64  1  0  0  0  0
 33 65  1  0  0  0  0
M  END
>  <Mol_ID>
3885

>  <Formula>
C24H32N6O3

>  <MolWeight>
452.54928

>  <Cat>
S8040

>  <Name>
GDC-0349

>  <Synonyms>
RG-7603

>  <Target>
mTOR

>  <Form>
free base

>  <CAS>
1207360-89-1

>  <URL>
http://selleckchem.com/products/gdc-0349.html

$$$$
