GDC-0084.cdx
 OpenBabel08302520413D

 50 54  0  0  0  0  0  0  0  0999 V2000
    1.1435   -0.9062   -0.0686 C   0  0  0  0  0  0  0  0  0  0  0  0
    0.7583    0.4266   -0.0032 C   0  0  0  0  0  0  0  0  0  0  0  0
    1.5392    1.5115    0.0701 N   0  0  0  0  0  0  0  0  0  0  0  0
    2.8450    1.1825    0.0772 C   0  0  0  0  0  0  0  0  0  0  0  0
    3.3475   -0.0681    0.0313 N   0  0  0  0  0  0  0  0  0  0  0  0
    2.5334   -1.1646   -0.0421 C   0  0  0  0  0  0  0  0  0  0  0  0
    0.0234   -1.7205   -0.1403 N   0  0  0  0  0  0  0  0  0  0  0  0
   -1.0191   -0.9075   -0.0925 C   0  0  0  0  0  0  0  0  0  0  0  0
   -0.6023    0.3959   -0.0240 N   0  0  0  0  0  0  0  0  0  0  0  0
   -2.4822   -1.2670   -0.1136 C   0  0  0  0  0  0  0  0  0  0  0  0
   -3.2708   -0.1204    0.2866 O   0  0  0  0  0  0  0  0  0  0  0  0
   -2.8999    1.1110   -0.3464 C   0  0  0  0  0  0  0  0  0  0  0  0
   -1.5027    1.5228    0.0807 C   0  0  0  0  0  0  0  0  0  0  0  0
    3.1495   -2.4036   -0.1452 N   0  0  0  0  0  0  0  0  0  0  0  0
    4.4717   -2.5317    0.4902 C   0  0  0  0  0  0  0  0  0  0  0  0
    5.2328   -3.6809   -0.1843 C   0  0  0  0  0  0  0  0  0  0  0  0
    4.4949   -4.9121   -0.1166 O   0  0  0  0  0  0  0  0  0  0  0  0
    3.2112   -4.7641   -0.7490 C   0  0  0  0  0  0  0  0  0  0  0  0
    2.3720   -3.6473   -0.0981 C   0  0  0  0  0  0  0  0  0  0  0  0
    3.8176    2.2675    0.1504 C   0  0  0  0  0  0  0  0  0  0  0  0
    3.4749    3.6027    0.2220 C   0  0  0  0  0  0  0  0  0  0  0  0
    4.3577    4.6235    0.3326 N   0  0  0  0  0  0  0  0  0  0  0  0
    5.6490    4.2900    0.3857 C   0  0  0  0  0  0  0  0  0  0  0  0
    6.1137    3.0450    0.2732 N   0  0  0  0  0  0  0  0  0  0  0  0
    5.1863    2.0644    0.1652 C   0  0  0  0  0  0  0  0  0  0  0  0
   -2.9169   -1.7447   -1.5027 C   0  0  0  0  0  0  0  0  0  0  0  0
   -2.7703   -2.3653    0.9151 C   0  0  0  0  0  0  0  0  0  0  0  0
    6.5663    5.3008    0.5576 N   0  0  0  0  0  0  0  0  0  0  0  0
   -2.9779    1.0126   -1.4356 H   0  0  0  0  0  0  0  0  0  0  0  0
   -3.6195    1.8737   -0.0419 H   0  0  0  0  0  0  0  0  0  0  0  0
   -1.1244    2.3407   -0.5419 H   0  0  0  0  0  0  0  0  0  0  0  0
   -1.4905    1.8283    1.1322 H   0  0  0  0  0  0  0  0  0  0  0  0
    4.3310   -2.7548    1.5563 H   0  0  0  0  0  0  0  0  0  0  0  0
    5.0827   -1.6270    0.4108 H   0  0  0  0  0  0  0  0  0  0  0  0
    5.4418   -3.4433   -1.2346 H   0  0  0  0  0  0  0  0  0  0  0  0
    6.1923   -3.8365    0.3212 H   0  0  0  0  0  0  0  0  0  0  0  0
    2.6879   -5.7216   -0.6680 H   0  0  0  0  0  0  0  0  0  0  0  0
    3.3642   -4.5553   -1.8155 H   0  0  0  0  0  0  0  0  0  0  0  0
    2.1616   -3.9032    0.9490 H   0  0  0  0  0  0  0  0  0  0  0  0
    1.4307   -3.5838   -0.6449 H   0  0  0  0  0  0  0  0  0  0  0  0
    2.4334    3.9164    0.2023 H   0  0  0  0  0  0  0  0  0  0  0  0
    5.6080    1.0636    0.0967 H   0  0  0  0  0  0  0  0  0  0  0  0
   -2.3863   -2.6559   -1.8004 H   0  0  0  0  0  0  0  0  0  0  0  0
   -3.9940   -1.9478   -1.5213 H   0  0  0  0  0  0  0  0  0  0  0  0
   -2.7282   -0.9918   -2.2752 H   0  0  0  0  0  0  0  0  0  0  0  0
   -2.4916   -2.0415    1.9249 H   0  0  0  0  0  0  0  0  0  0  0  0
   -3.8407   -2.5992    0.9468 H   0  0  0  0  0  0  0  0  0  0  0  0
   -2.2222   -3.2878    0.6918 H   0  0  0  0  0  0  0  0  0  0  0  0
    7.4674    5.0228    0.1962 H   0  0  0  0  0  0  0  0  0  0  0  0
    6.1818    6.1826    0.2509 H   0  0  0  0  0  0  0  0  0  0  0  0
  1  2  1  0  0  0  0
  1  7  1  0  0  0  0
  2  3  2  0  0  0  0
  3  4  1  0  0  0  0
  4  5  2  0  0  0  0
  4 20  1  0  0  0  0
  5  6  1  0  0  0  0
  6  1  2  0  0  0  0
  6 14  1  0  0  0  0
  7  8  2  0  0  0  0
  8  9  1  0  0  0  0
  8 10  1  0  0  0  0
  9  2  1  0  0  0  0
 10 11  1  0  0  0  0
 10 26  1  0  0  0  0
 10 27  1  0  0  0  0
 11 12  1  0  0  0  0
 12 13  1  0  0  0  0
 12 29  1  0  0  0  0
 12 30  1  0  0  0  0
 13  9  1  0  0  0  0
 13 31  1  0  0  0  0
 13 32  1  0  0  0  0
 14 15  1  0  0  0  0
 15 16  1  0  0  0  0
 15 33  1  0  0  0  0
 15 34  1  0  0  0  0
 16 17  1  0  0  0  0
 16 35  1  0  0  0  0
 16 36  1  0  0  0  0
 17 18  1  0  0  0  0
 18 19  1  0  0  0  0
 18 37  1  0  0  0  0
 18 38  1  0  0  0  0
 19 14  1  0  0  0  0
 19 39  1  0  0  0  0
 19 40  1  0  0  0  0
 20 21  2  0  0  0  0
 21 22  1  0  0  0  0
 21 41  1  0  0  0  0
 22 23  2  0  0  0  0
 23 24  1  0  0  0  0
 23 28  1  0  0  0  0
 24 25  2  0  0  0  0
 25 20  1  0  0  0  0
 25 42  1  0  0  0  0
 26 43  1  0  0  0  0
 26 44  1  0  0  0  0
 26 45  1  0  0  0  0
 27 46  1  0  0  0  0
 27 47  1  0  0  0  0
 27 48  1  0  0  0  0
 28 49  1  0  0  0  0
 28 50  1  0  0  0  0
M  END
>  <Mol_ID>
3969

>  <Formula>
C18H22N8O2

>  <MolWeight>
382.41968

>  <Cat>
S8163

>  <Name>
Paxalisib (GDC-0084)

>  <Synonyms>
RG7666

>  <Target>
mTOR,PI3K

>  <Form>
free base

>  <CAS>
1382979-44-3

>  <URL>
http://selleckchem.com/products/gdc-0084.html

$$$$
