GDC-0068.cdx
 OpenBabel08302521313D

 64 67  0  0  0  0  0  0  0  0999 V2000
    0.8197   -1.3170    0.3919 C   0  0  0  0  0  0  0  0  0  0  0  0
   -0.6529   -1.2684   -0.0565 C   0  0  0  0  0  0  0  0  0  0  0  0
   -1.3022   -0.0187    0.3491 N   0  0  0  0  0  0  0  0  0  0  0  0
   -0.5562    1.2272    0.0604 C   0  0  0  0  0  0  0  0  0  0  0  0
    0.9204    1.1175    0.5060 C   0  0  0  0  0  0  0  0  0  0  0  0
    1.5400   -0.1098   -0.0092 N   0  0  0  0  0  0  0  0  0  0  0  0
   -2.5690    0.0670    0.8780 C   0  0  0  0  0  0  0  0  0  0  0  0
    2.5209   -0.2114   -0.9815 C   0  0  0  0  0  0  0  0  0  0  0  0
    3.1599    1.0652   -1.5534 C   0  0  1  0  0  0  0  0  0  0  0  0
    2.8822   -1.3234   -1.3882 O   0  0  0  0  0  0  0  0  0  0  0  0
    4.3328    1.5819   -0.7219 C   0  0  0  0  0  0  0  0  0  0  0  0
    3.6483    0.7956   -3.0020 C   0  0  0  0  0  0  0  0  0  0  0  0
    2.5400    0.3856   -3.8849 N   0  0  0  0  0  0  0  0  0  0  0  0
    2.9560    0.1614   -5.2762 C   0  0  0  0  0  0  0  0  0  0  0  0
    3.9684   -0.9777   -5.4220 C   0  0  0  0  0  0  0  0  0  0  0  0
    1.6965   -0.1707   -6.0815 C   0  0  0  0  0  0  0  0  0  0  0  0
    5.1713    0.7244    0.0087 C   0  0  0  0  0  0  0  0  0  0  0  0
    6.2782    1.2250    0.6996 C   0  0  0  0  0  0  0  0  0  0  0  0
    6.5728    2.5853    0.6588 C   0  0  0  0  0  0  0  0  0  0  0  0
    5.7592    3.4481   -0.0709 C   0  0  0  0  0  0  0  0  0  0  0  0
    4.6472    2.9514   -0.7552 C   0  0  0  0  0  0  0  0  0  0  0  0
   -3.5920   -0.8448    0.6744 C   0  0  0  0  0  0  0  0  0  0  0  0
   -4.7815   -0.6258    1.3604 C   0  0  0  0  0  0  0  0  0  0  0  0
   -5.0180    0.3986    2.1876 N   0  0  0  0  0  0  0  0  0  0  0  0
   -3.9922    1.2437    2.2953 C   0  0  0  0  0  0  0  0  0  0  0  0
   -2.8031    1.1295    1.6848 N   0  0  0  0  0  0  0  0  0  0  0  0
   -3.7267   -2.0417   -0.2249 C   0  0  1  0  0  0  0  0  0  0  0  0
   -5.0779   -2.6614    0.1868 C   0  0  0  0  0  0  0  0  0  0  0  0
   -5.8497   -1.6291    1.0041 C   0  0  1  0  0  0  0  0  0  0  0  0
   -3.7018   -1.7227   -1.7144 C   0  0  0  0  0  0  0  0  0  0  0  0
   -6.4262   -2.2841    2.1275 O   0  0  0  0  0  0  0  0  0  0  0  0
    0.8777   -1.3831    1.4841 H   0  0  0  0  0  0  0  0  0  0  0  0
    1.2815   -2.2218   -0.0158 H   0  0  0  0  0  0  0  0  0  0  0  0
   -1.1268   -2.1393    0.3959 H   0  0  0  0  0  0  0  0  0  0  0  0
   -0.7030   -1.3577   -1.1466 H   0  0  0  0  0  0  0  0  0  0  0  0
   -0.5921    1.3968   -1.0231 H   0  0  0  0  0  0  0  0  0  0  0  0
   -0.9883    2.1177    0.5319 H   0  0  0  0  0  0  0  0  0  0  0  0
    0.9703    1.0576    1.6003 H   0  0  0  0  0  0  0  0  0  0  0  0
    1.4741    2.0091    0.2094 H   0  0  0  0  0  0  0  0  0  0  0  0
    2.3904    1.8426   -1.6157 H   0  0  0  0  0  0  0  0  0  0  0  0
    4.1038    1.7081   -3.4072 H   0  0  0  0  0  0  0  0  0  0  0  0
    4.4282    0.0253   -2.9795 H   0  0  0  0  0  0  0  0  0  0  0  0
    2.1670   -0.4972   -3.5206 H   0  0  0  0  0  0  0  0  0  0  0  0
    3.3855    1.0841   -5.6842 H   0  0  0  0  0  0  0  0  0  0  0  0
    3.6129   -1.8935   -4.9360 H   0  0  0  0  0  0  0  0  0  0  0  0
    4.1462   -1.2063   -6.4781 H   0  0  0  0  0  0  0  0  0  0  0  0
    4.9362   -0.7135   -4.9843 H   0  0  0  0  0  0  0  0  0  0  0  0
    0.9671    0.6452   -6.0283 H   0  0  0  0  0  0  0  0  0  0  0  0
    1.9415   -0.3281   -7.1374 H   0  0  0  0  0  0  0  0  0  0  0  0
    1.2116   -1.0822   -5.7119 H   0  0  0  0  0  0  0  0  0  0  0  0
    4.9877   -0.3483    0.0388 H   0  0  0  0  0  0  0  0  0  0  0  0
    6.9184    0.5478    1.2601 H   0  0  0  0  0  0  0  0  0  0  0  0
    7.4414    2.9703    1.1870 H   0  0  0  0  0  0  0  0  0  0  0  0
    5.9976    4.5077   -0.1173 H   0  0  0  0  0  0  0  0  0  0  0  0
    4.0380    3.6412   -1.3360 H   0  0  0  0  0  0  0  0  0  0  0  0
   -4.1312    2.1139    2.9286 H   0  0  0  0  0  0  0  0  0  0  0  0
   -2.9647   -2.7909    0.0007 H   0  0  0  0  0  0  0  0  0  0  0  0
   -5.6707   -2.9938   -0.6733 H   0  0  0  0  0  0  0  0  0  0  0  0
   -4.8950   -3.5641    0.7856 H   0  0  0  0  0  0  0  0  0  0  0  0
   -6.6385   -1.1512    0.4145 H   0  0  0  0  0  0  0  0  0  0  0  0
   -2.7174   -1.3763   -2.0366 H   0  0  0  0  0  0  0  0  0  0  0  0
   -3.9346   -2.6217   -2.2964 H   0  0  0  0  0  0  0  0  0  0  0  0
   -4.4274   -0.9472   -1.9791 H   0  0  0  0  0  0  0  0  0  0  0  0
   -5.7300   -2.3631    2.8025 H   0  0  0  0  0  0  0  0  0  0  0  0
  1  2  1  0  0  0  0
  1 32  1  0  0  0  0
  1 33  1  0  0  0  0
  2  3  1  0  0  0  0
  2 34  1  0  0  0  0
  2 35  1  0  0  0  0
  3  4  1  0  0  0  0
  3  7  1  0  0  0  0
  4  5  1  0  0  0  0
  4 36  1  0  0  0  0
  4 37  1  0  0  0  0
  5  6  1  0  0  0  0
  5 38  1  0  0  0  0
  5 39  1  0  0  0  0
  6  1  1  0  0  0  0
  6  8  1  0  0  0  0
  7 22  2  0  0  0  0
  8  9  1  0  0  0  0
  8 10  2  0  0  0  0
  9 11  1  0  0  0  0
  9 12  1  0  0  0  0
  9 40  1  6  0  0  0
 11 17  2  0  0  0  0
 12 13  1  0  0  0  0
 12 41  1  0  0  0  0
 12 42  1  0  0  0  0
 13 14  1  0  0  0  0
 13 43  1  0  0  0  0
 14 15  1  0  0  0  0
 14 16  1  0  0  0  0
 14 44  1  0  0  0  0
 15 45  1  0  0  0  0
 15 46  1  0  0  0  0
 15 47  1  0  0  0  0
 16 48  1  0  0  0  0
 16 49  1  0  0  0  0
 16 50  1  0  0  0  0
 17 18  1  0  0  0  0
 17 51  1  0  0  0  0
 18 19  2  0  0  0  0
 18 52  1  0  0  0  0
 19 20  1  0  0  0  0
 19 53  1  0  0  0  0
 20 21  2  0  0  0  0
 20 54  1  0  0  0  0
 21 11  1  0  0  0  0
 21 55  1  0  0  0  0
 22 23  1  0  0  0  0
 22 27  1  0  0  0  0
 23 24  2  0  0  0  0
 24 25  1  0  0  0  0
 25 26  2  0  0  0  0
 25 56  1  0  0  0  0
 26  7  1  0  0  0  0
 27 28  1  0  0  0  0
 27 30  1  0  0  0  0
 27 57  1  1  0  0  0
 28 29  1  0  0  0  0
 28 58  1  0  0  0  0
 28 59  1  0  0  0  0
 29 23  1  0  0  0  0
 29 60  1  6  0  0  0
 29 31  1  0  0  0  0
 30 61  1  0  0  0  0
 30 62  1  0  0  0  0
 30 63  1  0  0  0  0
 31 64  1  0  0  0  0
M  END
>  <Mol_ID>
582

>  <Formula>
C24H32ClN5O2

>  <MolWeight>
457.99618

>  <Cat>
S2808

>  <Name>
Ipatasertib (GDC-0068)

>  <Synonyms>
RG7440

>  <Target>
Akt

>  <Form>
free base

>  <CAS>
1001264-89-6

>  <URL>
http://selleckchem.com/products/gdc-0068.html

$$$$
