GDC-0326.cdx
 OpenBabel08302520413D

 50 53  0  0  0  0  0  0  0  0999 V2000
    3.3148   -0.4899   -0.0232 C   0  0  0  0  0  0  0  0  0  0  0  0
    2.5882   -1.6689    0.0043 C   0  0  0  0  0  0  0  0  0  0  0  0
    1.1975   -1.6151    0.1173 C   0  0  0  0  0  0  0  0  0  0  0  0
    0.4878   -0.3957    0.1761 C   0  0  0  0  0  0  0  0  0  0  0  0
    1.2234    0.7971    0.1526 C   0  0  0  0  0  0  0  0  0  0  0  0
    2.6269    0.7248    0.0600 C   0  0  0  0  0  0  0  0  0  0  0  0
   -0.9717   -0.5092    0.2177 C   0  0  0  0  0  0  0  0  0  0  0  0
   -1.8596    0.4591   -0.1728 N   0  0  0  0  0  0  0  0  0  0  0  0
   -1.4720    1.7329   -0.7345 C   0  0  0  0  0  0  0  0  0  0  0  0
   -0.5841    2.4529    0.2569 C   0  0  0  0  0  0  0  0  0  0  0  0
    0.7923    2.0941    0.1672 O   0  0  0  0  0  0  0  0  0  0  0  0
   -1.6412   -1.5990    0.5532 N   0  0  0  0  0  0  0  0  0  0  0  0
   -2.9728   -1.2887    0.4491 C   0  0  0  0  0  0  0  0  0  0  0  0
   -3.1313    0.0175    0.0543 C   0  0  0  0  0  0  0  0  0  0  0  0
   -4.0644   -2.2587    0.7151 C   0  0  0  0  0  0  0  0  0  0  0  0
   -3.9264   -3.6238    0.7735 N   0  0  0  0  0  0  0  0  0  0  0  0
   -5.0978   -4.2108    1.1112 N   0  0  0  0  0  0  0  0  0  0  0  0
   -5.9031   -3.1519    1.2077 C   0  0  0  0  0  0  0  0  0  0  0  0
   -5.3283   -1.9453    0.9333 N   0  0  0  0  0  0  0  0  0  0  0  0
   -2.7477   -4.4305    0.4856 C   0  0  0  0  0  0  0  0  0  0  0  0
   -2.1155   -4.9409    1.7759 C   0  0  0  0  0  0  0  0  0  0  0  0
   -3.0280   -5.5713   -0.4960 C   0  0  0  0  0  0  0  0  0  0  0  0
    4.6643   -0.3830   -0.1828 O   0  0  0  0  0  0  0  0  0  0  0  0
    5.5317   -1.4335    0.2397 C   0  0  1  0  0  0  0  0  0  0  0  0
    5.4257   -1.7127    1.7390 C   0  0  0  0  0  0  0  0  0  0  0  0
    5.5640   -2.7235   -0.6045 C   0  0  0  0  0  0  0  0  0  0  0  0
    5.6128   -3.8551   -0.1353 O   0  0  0  0  0  0  0  0  0  0  0  0
    5.5891   -2.5401   -1.9578 N   0  0  0  0  0  0  0  0  0  0  0  0
    3.0501   -2.6453   -0.0751 H   0  0  0  0  0  0  0  0  0  0  0  0
    0.6473   -2.5574    0.1305 H   0  0  0  0  0  0  0  0  0  0  0  0
    3.1996    1.6519    0.0514 H   0  0  0  0  0  0  0  0  0  0  0  0
   -2.3852    2.2995   -0.9397 H   0  0  0  0  0  0  0  0  0  0  0  0
   -0.9612    1.5266   -1.6822 H   0  0  0  0  0  0  0  0  0  0  0  0
   -0.9311    2.3582    1.2931 H   0  0  0  0  0  0  0  0  0  0  0  0
   -0.6170    3.5214    0.0124 H   0  0  0  0  0  0  0  0  0  0  0  0
   -4.0139    0.6112   -0.1353 H   0  0  0  0  0  0  0  0  0  0  0  0
   -6.9434   -3.2635    1.4856 H   0  0  0  0  0  0  0  0  0  0  0  0
   -2.0235   -3.7898   -0.0206 H   0  0  0  0  0  0  0  0  0  0  0  0
   -2.7235   -5.7294    2.2315 H   0  0  0  0  0  0  0  0  0  0  0  0
   -1.1190   -5.3502    1.5793 H   0  0  0  0  0  0  0  0  0  0  0  0
   -2.0087   -4.1342    2.5096 H   0  0  0  0  0  0  0  0  0  0  0  0
   -3.3888   -5.1773   -1.4532 H   0  0  0  0  0  0  0  0  0  0  0  0
   -2.1122   -6.1395   -0.6947 H   0  0  0  0  0  0  0  0  0  0  0  0
   -3.7809   -6.2680   -0.1144 H   0  0  0  0  0  0  0  0  0  0  0  0
    6.5383   -1.0176    0.0945 H   0  0  0  0  0  0  0  0  0  0  0  0
    4.4611   -2.1543    2.0077 H   0  0  0  0  0  0  0  0  0  0  0  0
    6.2048   -2.4092    2.0658 H   0  0  0  0  0  0  0  0  0  0  0  0
    5.5257   -0.7833    2.3096 H   0  0  0  0  0  0  0  0  0  0  0  0
    5.4842   -1.6268   -2.3797 H   0  0  0  0  0  0  0  0  0  0  0  0
    5.6091   -3.3619   -2.5479 H   0  0  0  0  0  0  0  0  0  0  0  0
  1  2  2  0  0  0  0
  1 23  1  0  0  0  0
  2  3  1  0  0  0  0
  2 29  1  0  0  0  0
  3  4  2  0  0  0  0
  3 30  1  0  0  0  0
  4  5  1  0  0  0  0
  4  7  1  0  0  0  0
  5  6  2  0  0  0  0
  6  1  1  0  0  0  0
  6 31  1  0  0  0  0
  7  8  1  0  0  0  0
  7 12  2  0  0  0  0
  8  9  1  0  0  0  0
  9 10  1  0  0  0  0
  9 32  1  0  0  0  0
  9 33  1  0  0  0  0
 10 11  1  0  0  0  0
 10 34  1  0  0  0  0
 10 35  1  0  0  0  0
 11  5  1  0  0  0  0
 12 13  1  0  0  0  0
 13 14  2  0  0  0  0
 13 15  1  0  0  0  0
 14  8  1  0  0  0  0
 14 36  1  0  0  0  0
 15 16  1  0  0  0  0
 16 17  1  0  0  0  0
 16 20  1  0  0  0  0
 17 18  2  0  0  0  0
 18 19  1  0  0  0  0
 18 37  1  0  0  0  0
 19 15  2  0  0  0  0
 20 21  1  0  0  0  0
 20 22  1  0  0  0  0
 20 38  1  0  0  0  0
 21 39  1  0  0  0  0
 21 40  1  0  0  0  0
 21 41  1  0  0  0  0
 22 42  1  0  0  0  0
 22 43  1  0  0  0  0
 22 44  1  0  0  0  0
 23 24  1  0  0  0  0
 24 25  1  0  0  0  0
 24 26  1  0  0  0  0
 24 45  1  6  0  0  0
 25 46  1  0  0  0  0
 25 47  1  0  0  0  0
 25 48  1  0  0  0  0
 26 27  2  0  0  0  0
 26 28  1  0  0  0  0
 28 49  1  0  0  0  0
 28 50  1  0  0  0  0
M  END
>  <Mol_ID>
3988

>  <Formula>
C19H22N6O3

>  <MolWeight>
382.41638

>  <Cat>
S8157

>  <Name>
GDC-0326

>  <Synonyms>
N/A

>  <Target>
PI3K

>  <Form>
free base

>  <CAS>
1282514-88-8

>  <URL>
http://selleckchem.com/products/gdc-0326.html

$$$$
