GDC-0032 (RG-7604).cdx
 OpenBabel08302519563D

 62 66  0  0  0  0  0  0  0  0999 V2000
    3.2631   -0.3756   -0.1374 C   0  0  0  0  0  0  0  0  0  0  0  0
    2.5947   -1.5883   -0.2965 C   0  0  0  0  0  0  0  0  0  0  0  0
    1.2048   -1.6507   -0.1353 C   0  0  0  0  0  0  0  0  0  0  0  0
    0.4382   -0.5008    0.1441 C   0  0  0  0  0  0  0  0  0  0  0  0
    1.1037    0.7297    0.2418 C   0  0  0  0  0  0  0  0  0  0  0  0
    2.5035    0.7685    0.1353 C   0  0  0  0  0  0  0  0  0  0  0  0
   -1.0120   -0.6682    0.2413 C   0  0  0  0  0  0  0  0  0  0  0  0
   -1.9035    0.2164   -0.3111 N   0  0  0  0  0  0  0  0  0  0  0  0
   -1.5246    1.5082   -0.8413 C   0  0  0  0  0  0  0  0  0  0  0  0
   -0.7908    2.2939    0.2344 C   0  0  0  0  0  0  0  0  0  0  0  0
    0.5871    1.9797    0.4228 O   0  0  0  0  0  0  0  0  0  0  0  0
   -1.6682   -1.6911    0.7670 N   0  0  0  0  0  0  0  0  0  0  0  0
   -2.9965   -1.4950    0.4501 C   0  0  0  0  0  0  0  0  0  0  0  0
   -3.1575   -0.3159   -0.2401 C   0  0  0  0  0  0  0  0  0  0  0  0
   -4.0874   -2.4571    0.7727 C   0  0  0  0  0  0  0  0  0  0  0  0
    4.7080   -0.2893   -0.2628 C   0  0  0  0  0  0  0  0  0  0  0  0
    5.6238   -1.0205   -1.0517 C   0  0  0  0  0  0  0  0  0  0  0  0
    6.8860   -0.6208   -0.8808 N   0  0  0  0  0  0  0  0  0  0  0  0
    6.8022    0.3494    0.0599 N   0  0  0  0  0  0  0  0  0  0  0  0
    5.5051    0.5936    0.4328 C   0  0  0  0  0  0  0  0  0  0  0  0
   -4.0742   -3.3929    1.7748 N   0  0  0  0  0  0  0  0  0  0  0  0
   -5.1471   -4.2100    1.6904 N   0  0  0  0  0  0  0  0  0  0  0  0
   -5.8147   -3.6737    0.6665 C   0  0  0  0  0  0  0  0  0  0  0  0
   -5.2286   -2.5640    0.1127 N   0  0  0  0  0  0  0  0  0  0  0  0
   -3.1984   -3.4771    2.9348 C   0  0  0  0  0  0  0  0  0  0  0  0
   -7.0736   -4.2615    0.1653 C   0  0  0  0  0  0  0  0  0  0  0  0
    8.0058    1.0289    0.5589 C   0  0  0  0  0  0  0  0  0  0  0  0
    7.8985    2.5316    0.2378 C   0  0  0  0  0  0  0  0  0  0  0  0
    8.1101    0.8273    2.0837 C   0  0  0  0  0  0  0  0  0  0  0  0
    9.3051    0.4878   -0.0766 C   0  0  0  0  0  0  0  0  0  0  0  0
    7.8651    3.4141    1.0927 O   0  0  0  0  0  0  0  0  0  0  0  0
    7.8587    2.8836   -1.0836 N   0  0  0  0  0  0  0  0  0  0  0  0
   -3.9968   -3.3591    4.2393 C   0  0  0  0  0  0  0  0  0  0  0  0
   -2.3756   -4.7603    2.9020 C   0  0  0  0  0  0  0  0  0  0  0  0
    3.1375   -2.5022   -0.5301 H   0  0  0  0  0  0  0  0  0  0  0  0
    0.7049   -2.6129   -0.2552 H   0  0  0  0  0  0  0  0  0  0  0  0
    2.9976    1.7334    0.2377 H   0  0  0  0  0  0  0  0  0  0  0  0
   -2.4413    2.0290   -1.1347 H   0  0  0  0  0  0  0  0  0  0  0  0
   -0.9098    1.3358   -1.7314 H   0  0  0  0  0  0  0  0  0  0  0  0
   -1.2991    2.2477    1.2048 H   0  0  0  0  0  0  0  0  0  0  0  0
   -0.7950    3.3478   -0.0685 H   0  0  0  0  0  0  0  0  0  0  0  0
   -4.0362    0.1719   -0.6379 H   0  0  0  0  0  0  0  0  0  0  0  0
    5.4222   -1.8182   -1.7511 H   0  0  0  0  0  0  0  0  0  0  0  0
    5.2696    1.3534    1.1691 H   0  0  0  0  0  0  0  0  0  0  0  0
   -2.5166   -2.6226    2.9019 H   0  0  0  0  0  0  0  0  0  0  0  0
   -7.8444   -3.4940    0.0558 H   0  0  0  0  0  0  0  0  0  0  0  0
   -6.9098   -4.7356   -0.8072 H   0  0  0  0  0  0  0  0  0  0  0  0
   -7.4539   -5.0270    0.8511 H   0  0  0  0  0  0  0  0  0  0  0  0
    8.1477   -0.2375    2.3416 H   0  0  0  0  0  0  0  0  0  0  0  0
    9.0118    1.3047    2.4850 H   0  0  0  0  0  0  0  0  0  0  0  0
    7.2561    1.2643    2.6140 H   0  0  0  0  0  0  0  0  0  0  0  0
    9.4611   -0.5684    0.1727 H   0  0  0  0  0  0  0  0  0  0  0  0
    9.2969    0.5696   -1.1699 H   0  0  0  0  0  0  0  0  0  0  0  0
   10.1782    1.0482    0.2790 H   0  0  0  0  0  0  0  0  0  0  0  0
    7.6666    2.2065   -1.8136 H   0  0  0  0  0  0  0  0  0  0  0  0
    7.7313    3.8643   -1.2987 H   0  0  0  0  0  0  0  0  0  0  0  0
   -4.7071   -4.1849    4.3595 H   0  0  0  0  0  0  0  0  0  0  0  0
   -3.3295   -3.3633    5.1072 H   0  0  0  0  0  0  0  0  0  0  0  0
   -4.5715   -2.4258    4.2599 H   0  0  0  0  0  0  0  0  0  0  0  0
   -1.8001   -4.8288    1.9725 H   0  0  0  0  0  0  0  0  0  0  0  0
   -1.6726   -4.7915    3.7406 H   0  0  0  0  0  0  0  0  0  0  0  0
   -3.0145   -5.6485    2.9632 H   0  0  0  0  0  0  0  0  0  0  0  0
  1  2  2  0  0  0  0
  1 16  1  0  0  0  0
  2  3  1  0  0  0  0
  2 35  1  0  0  0  0
  3  4  2  0  0  0  0
  3 36  1  0  0  0  0
  4  5  1  0  0  0  0
  4  7  1  0  0  0  0
  5  6  2  0  0  0  0
  6  1  1  0  0  0  0
  6 37  1  0  0  0  0
  7  8  1  0  0  0  0
  7 12  2  0  0  0  0
  8  9  1  0  0  0  0
  9 10  1  0  0  0  0
  9 38  1  0  0  0  0
  9 39  1  0  0  0  0
 10 11  1  0  0  0  0
 10 40  1  0  0  0  0
 10 41  1  0  0  0  0
 11  5  1  0  0  0  0
 12 13  1  0  0  0  0
 13 14  2  0  0  0  0
 13 15  1  0  0  0  0
 14  8  1  0  0  0  0
 14 42  1  0  0  0  0
 15 21  1  0  0  0  0
 16 17  1  0  0  0  0
 17 18  2  0  0  0  0
 17 43  1  0  0  0  0
 18 19  1  0  0  0  0
 19 20  1  0  0  0  0
 19 27  1  0  0  0  0
 20 16  2  0  0  0  0
 20 44  1  0  0  0  0
 21 22  1  0  0  0  0
 21 25  1  0  0  0  0
 22 23  2  0  0  0  0
 23 24  1  0  0  0  0
 23 26  1  0  0  0  0
 24 15  2  0  0  0  0
 25 33  1  0  0  0  0
 25 34  1  0  0  0  0
 25 45  1  0  0  0  0
 26 46  1  0  0  0  0
 26 47  1  0  0  0  0
 26 48  1  0  0  0  0
 27 28  1  0  0  0  0
 27 29  1  0  0  0  0
 27 30  1  0  0  0  0
 28 31  2  0  0  0  0
 28 32  1  0  0  0  0
 29 49  1  0  0  0  0
 29 50  1  0  0  0  0
 29 51  1  0  0  0  0
 30 52  1  0  0  0  0
 30 53  1  0  0  0  0
 30 54  1  0  0  0  0
 32 55  1  0  0  0  0
 32 56  1  0  0  0  0
 33 57  1  0  0  0  0
 33 58  1  0  0  0  0
 33 59  1  0  0  0  0
 34 60  1  0  0  0  0
 34 61  1  0  0  0  0
 34 62  1  0  0  0  0
M  END
>  <Mol_ID>
2189

>  <Formula>
C24H28N8O2

>  <MolWeight>
460.53152

>  <Cat>
S7103

>  <Name>
Taselisib (GDC 0032)

>  <Synonyms>
RG7604

>  <Target>
PI3K

>  <Form>
free base

>  <CAS>
1282512-48-4

>  <URL>
http://selleckchem.com/products/gdc-0032.html

$$$$
