GDC0623.cdx
 OpenBabel08302519553D

 39 41  0  0  0  0  0  0  0  0999 V2000
    2.0991    0.7032    0.1373 C   0  0  0  0  0  0  0  0  0  0  0  0
    2.0799   -0.7582    0.2863 C   0  0  0  0  0  0  0  0  0  0  0  0
    0.8942   -1.4233    0.1443 C   0  0  0  0  0  0  0  0  0  0  0  0
   -0.2785   -0.6183    0.1054 N   0  0  0  0  0  0  0  0  0  0  0  0
   -0.2678    0.7716    0.0539 C   0  0  0  0  0  0  0  0  0  0  0  0
    0.9785    1.4332    0.0275 C   0  0  0  0  0  0  0  0  0  0  0  0
   -1.6121   -0.9626    0.1876 C   0  0  0  0  0  0  0  0  0  0  0  0
   -2.4141    0.0807    0.1059 N   0  0  0  0  0  0  0  0  0  0  0  0
   -1.5834    1.1655    0.0199 C   0  0  0  0  0  0  0  0  0  0  0  0
    0.7345   -2.8225    0.0786 N   0  0  0  0  0  0  0  0  0  0  0  0
    0.8133   -3.4739   -1.2106 C   0  0  0  0  0  0  0  0  0  0  0  0
    1.3417   -4.7783   -1.3028 C   0  0  0  0  0  0  0  0  0  0  0  0
    1.5290   -5.4135   -2.5291 C   0  0  0  0  0  0  0  0  0  0  0  0
    1.1450   -4.7574   -3.6939 C   0  0  0  0  0  0  0  0  0  0  0  0
    0.5273   -3.5076   -3.6266 C   0  0  0  0  0  0  0  0  0  0  0  0
    0.3456   -2.8774   -2.3885 C   0  0  0  0  0  0  0  0  0  0  0  0
    1.7295   -5.4129   -0.1860 F   0  0  0  0  0  0  0  0  0  0  0  0
    1.5175   -5.6218   -5.5473 I   0  0  0  0  0  0  0  0  0  0  0  0
    3.3370   -1.5165    0.6277 C   0  0  0  0  0  0  0  0  0  0  0  0
    4.3113   -0.7583    1.2419 N   0  0  0  0  0  0  0  0  0  0  0  0
    5.5160   -1.4288    1.5489 O   0  0  0  0  0  0  0  0  0  0  0  0
    5.5707   -1.6705    2.9651 C   0  0  0  0  0  0  0  0  0  0  0  0
    4.6899   -2.8524    3.3640 C   0  0  0  0  0  0  0  0  0  0  0  0
    5.0099   -3.9958    2.5785 O   0  0  0  0  0  0  0  0  0  0  0  0
    3.4237   -2.7310    0.4880 O   0  0  0  0  0  0  0  0  0  0  0  0
    3.0474    1.2204    0.0477 H   0  0  0  0  0  0  0  0  0  0  0  0
    1.0184    2.5111   -0.0953 H   0  0  0  0  0  0  0  0  0  0  0  0
   -1.9337   -1.9857    0.3317 H   0  0  0  0  0  0  0  0  0  0  0  0
   -1.9725    2.1745   -0.0489 H   0  0  0  0  0  0  0  0  0  0  0  0
    1.4999   -3.2831    0.6022 H   0  0  0  0  0  0  0  0  0  0  0  0
    1.9896   -6.3966   -2.5505 H   0  0  0  0  0  0  0  0  0  0  0  0
    0.1941   -3.0005   -4.5295 H   0  0  0  0  0  0  0  0  0  0  0  0
   -0.1358   -1.9048   -2.3750 H   0  0  0  0  0  0  0  0  0  0  0  0
    4.4061    0.2373    1.1039 H   0  0  0  0  0  0  0  0  0  0  0  0
    6.6154   -1.8996    3.1976 H   0  0  0  0  0  0  0  0  0  0  0  0
    5.2960   -0.7648    3.5210 H   0  0  0  0  0  0  0  0  0  0  0  0
    4.8368   -3.1021    4.4183 H   0  0  0  0  0  0  0  0  0  0  0  0
    3.6284   -2.6291    3.2175 H   0  0  0  0  0  0  0  0  0  0  0  0
    4.7797   -3.7500    1.6551 H   0  0  0  0  0  0  0  0  0  0  0  0
  1  2  1  0  0  0  0
  1 26  1  0  0  0  0
  2  3  2  0  0  0  0
  2 19  1  0  0  0  0
  3  4  1  0  0  0  0
  3 10  1  0  0  0  0
  4  5  1  0  0  0  0
  4  7  1  0  0  0  0
  5  6  1  0  0  0  0
  6  1  2  0  0  0  0
  6 27  1  0  0  0  0
  7  8  2  0  0  0  0
  7 28  1  0  0  0  0
  8  9  1  0  0  0  0
  9  5  2  0  0  0  0
  9 29  1  0  0  0  0
 10 11  1  0  0  0  0
 10 30  1  0  0  0  0
 11 12  2  0  0  0  0
 12 13  1  0  0  0  0
 12 17  1  0  0  0  0
 13 14  2  0  0  0  0
 13 31  1  0  0  0  0
 14 15  1  0  0  0  0
 14 18  1  0  0  0  0
 15 16  2  0  0  0  0
 15 32  1  0  0  0  0
 16 11  1  0  0  0  0
 16 33  1  0  0  0  0
 19 20  1  0  0  0  0
 19 25  2  0  0  0  0
 20 21  1  0  0  0  0
 20 34  1  0  0  0  0
 21 22  1  0  0  0  0
 22 23  1  0  0  0  0
 22 35  1  0  0  0  0
 22 36  1  0  0  0  0
 23 24  1  0  0  0  0
 23 37  1  0  0  0  0
 23 38  1  0  0  0  0
 24 39  1  0  0  0  0
M  END
>  <Mol_ID>
2174

>  <Formula>
C16H14FIN4O3

>  <MolWeight>
456.2102332

>  <Cat>
S7553

>  <Name>
GDC-0623

>  <Synonyms>
G-868

>  <Target>
MEK

>  <Form>
free base

>  <CAS>
1168091-68-6

>  <URL>
http://selleckchem.com/products/gdc-0623.html

$$$$
