GDC046
 OpenBabel08302521303D

 36 38  0  0  0  0  0  0  0  0999 V2000
    0.8733    1.0055   -1.0160 O   0  0  0  0  0  0  0  0  0  0  0  0
    5.8884   -3.5210   -0.6461 O   0  0  0  0  0  0  0  0  0  0  0  0
    2.9901    0.2915   -1.1894 N   0  0  0  0  0  0  0  0  0  0  0  0
    4.9274    1.4664   -1.9300 N   0  0  0  0  0  0  0  0  0  0  0  0
    7.3802   -1.7437   -0.7654 N   0  0  0  0  0  0  0  0  0  0  0  0
    2.1885    2.2108   -2.5586 C   0  0  0  0  0  0  0  0  0  0  0  0
    1.0867    3.1616   -2.9668 C   0  0  0  0  0  0  0  0  0  0  0  0
    1.4585    2.0265   -3.8732 C   0  0  0  0  0  0  0  0  0  0  0  0
    1.9882    1.1666   -1.5139 C   0  0  0  0  0  0  0  0  0  0  0  0
    4.3644    0.3510   -1.4364 C   0  0  0  0  0  0  0  0  0  0  0  0
    5.1293   -0.7521   -1.0654 C   0  0  0  0  0  0  0  0  0  0  0  0
    6.5189   -0.7008   -1.1877 C   0  0  0  0  0  0  0  0  0  0  0  0
    7.1030    0.4582   -1.6872 C   0  0  0  0  0  0  0  0  0  0  0  0
    6.2706    1.5016   -2.0474 C   0  0  0  0  0  0  0  0  0  0  0  0
    6.9858   -3.0245   -0.4198 C   0  0  0  0  0  0  0  0  0  0  0  0
    8.0076   -3.8603    0.2738 C   0  0  0  0  0  0  0  0  0  0  0  0
    7.9508   -5.2512    0.1085 C   0  0  0  0  0  0  0  0  0  0  0  0
    8.9253   -3.3064    1.1749 C   0  0  0  0  0  0  0  0  0  0  0  0
    8.7959   -6.0823    0.8455 C   0  0  0  0  0  0  0  0  0  0  0  0
    9.7676   -4.1432    1.9128 C   0  0  0  0  0  0  0  0  0  0  0  0
    9.6971   -5.5280    1.7530 C   0  0  0  0  0  0  0  0  0  0  0  0
    2.6552   -0.4825   -0.6320 H   0  0  0  0  0  0  0  0  0  0  0  0
    8.3700   -1.5479   -0.7665 H   0  0  0  0  0  0  0  0  0  0  0  0
    3.1677    2.6684   -2.5953 H   0  0  0  0  0  0  0  0  0  0  0  0
    0.1435    3.1141   -2.4366 H   0  0  0  0  0  0  0  0  0  0  0  0
    1.3741    4.1621   -3.2719 H   0  0  0  0  0  0  0  0  0  0  0  0
    2.0070    2.2375   -4.7825 H   0  0  0  0  0  0  0  0  0  0  0  0
    0.7495    1.2091   -3.9579 H   0  0  0  0  0  0  0  0  0  0  0  0
    4.6334   -1.6266   -0.6612 H   0  0  0  0  0  0  0  0  0  0  0  0
    8.1736    0.5636   -1.8067 H   0  0  0  0  0  0  0  0  0  0  0  0
    6.6712    2.4313   -2.4416 H   0  0  0  0  0  0  0  0  0  0  0  0
    7.2279   -5.6916   -0.5755 H   0  0  0  0  0  0  0  0  0  0  0  0
    8.9598   -2.2363    1.3594 H   0  0  0  0  0  0  0  0  0  0  0  0
    8.7316   -7.1613    0.7291 H   0  0  0  0  0  0  0  0  0  0  0  0
   10.4593   -3.7198    2.6374 H   0  0  0  0  0  0  0  0  0  0  0  0
   10.3324   -6.1784    2.3501 H   0  0  0  0  0  0  0  0  0  0  0  0
  1  9  2  0  0  0  0
  2 15  2  0  0  0  0
  3  9  1  0  0  0  0
  3 10  1  0  0  0  0
  3 22  1  0  0  0  0
  4 10  2  0  0  0  0
  4 14  1  0  0  0  0
  5 12  1  0  0  0  0
  5 15  1  0  0  0  0
  5 23  1  0  0  0  0
  6  7  1  0  0  0  0
  6  8  1  0  0  0  0
  6  9  1  0  0  0  0
  6 24  1  0  0  0  0
  7  8  1  0  0  0  0
  7 25  1  0  0  0  0
  7 26  1  0  0  0  0
  8 27  1  0  0  0  0
  8 28  1  0  0  0  0
 10 11  1  0  0  0  0
 11 12  2  0  0  0  0
 11 29  1  0  0  0  0
 12 13  1  0  0  0  0
 13 14  2  0  0  0  0
 13 30  1  0  0  0  0
 14 31  1  0  0  0  0
 15 16  1  0  0  0  0
 16 17  2  0  0  0  0
 16 18  1  0  0  0  0
 17 19  1  0  0  0  0
 17 32  1  0  0  0  0
 18 20  2  0  0  0  0
 18 33  1  0  0  0  0
 19 21  2  0  0  0  0
 19 34  1  0  0  0  0
 20 21  1  0  0  0  0
 20 35  1  0  0  0  0
 21 36  1  0  0  0  0
M  END
>  <Mol_ID>
5693

>  <Formula>
C16H13Cl2N3O2

>  <MolWeight>
350.19932

>  <Cat>
S0374

>  <Name>
GDC046

>  <Synonyms>
N/A

>  <Target>
JAK

>  <Form>
Free Base

>  <CAS>
1258292-64-6

>  <URL>
http://www.selleckchem.com/products/gdc046.html

$$$$
