GeA-69
 OpenBabel08302521263D

 39 42  0  0  0  0  0  0  0  0999 V2000
    1.5762    3.4537    0.9308 O   0  0  0  0  0  0  0  0  0  0  0  0
    5.4724   -1.5024   -2.4571 N   0  0  0  0  0  0  0  0  0  0  0  0
    3.2262    1.9525    0.6958 N   0  0  0  0  0  0  0  0  0  0  0  0
    4.6569   -0.3965   -2.5999 C   0  0  0  0  0  0  0  0  0  0  0  0
    3.9899   -0.5836   -3.8182 C   0  0  0  0  0  0  0  0  0  0  0  0
    4.4803   -1.7894   -4.4178 C   0  0  0  0  0  0  0  0  0  0  0  0
    4.4487    0.7276   -1.7500 C   0  0  0  0  0  0  0  0  0  0  0  0
    5.4354   -2.3185   -3.5592 C   0  0  0  0  0  0  0  0  0  0  0  0
    5.1497    0.8891   -0.4412 C   0  0  0  0  0  0  0  0  0  0  0  0
    3.0316    0.3613   -4.2275 C   0  0  0  0  0  0  0  0  0  0  0  0
    3.5274    1.6719   -2.2595 C   0  0  0  0  0  0  0  0  0  0  0  0
    4.2033   -2.4759   -5.6191 C   0  0  0  0  0  0  0  0  0  0  0  0
    2.8076    1.4843   -3.4393 C   0  0  0  0  0  0  0  0  0  0  0  0
    6.1537   -3.4857   -3.8420 C   0  0  0  0  0  0  0  0  0  0  0  0
    4.5585    1.4974    0.7021 C   0  0  0  0  0  0  0  0  0  0  0  0
    6.4920    0.4767   -0.2910 C   0  0  0  0  0  0  0  0  0  0  0  0
    4.8962   -3.6569   -5.9122 C   0  0  0  0  0  0  0  0  0  0  0  0
    5.8612   -4.1494   -5.0363 C   0  0  0  0  0  0  0  0  0  0  0  0
    5.2555    1.5828    1.9217 C   0  0  0  0  0  0  0  0  0  0  0  0
    7.1649    0.5238    0.9358 C   0  0  0  0  0  0  0  0  0  0  0  0
    6.5417    1.0682    2.0472 C   0  0  0  0  0  0  0  0  0  0  0  0
    2.7837    3.2163    0.9841 C   0  0  0  0  0  0  0  0  0  0  0  0
    3.7712    4.3251    1.2534 C   0  0  0  0  0  0  0  0  0  0  0  0
    6.0478   -1.6882   -1.6515 H   0  0  0  0  0  0  0  0  0  0  0  0
    2.5530    1.4094    0.1693 H   0  0  0  0  0  0  0  0  0  0  0  0
    2.4784    0.2228   -5.1518 H   0  0  0  0  0  0  0  0  0  0  0  0
    3.3422    2.6003   -1.7237 H   0  0  0  0  0  0  0  0  0  0  0  0
    3.4597   -2.0938   -6.3118 H   0  0  0  0  0  0  0  0  0  0  0  0
    2.0718    2.2237   -3.7485 H   0  0  0  0  0  0  0  0  0  0  0  0
    6.9047   -3.8714   -3.1605 H   0  0  0  0  0  0  0  0  0  0  0  0
    7.0557    0.1131   -1.1471 H   0  0  0  0  0  0  0  0  0  0  0  0
    4.6763   -4.1939   -6.8319 H   0  0  0  0  0  0  0  0  0  0  0  0
    6.3914   -5.0666   -5.2819 H   0  0  0  0  0  0  0  0  0  0  0  0
    4.7721    2.0019    2.8021 H   0  0  0  0  0  0  0  0  0  0  0  0
    8.1771    0.1347    1.0158 H   0  0  0  0  0  0  0  0  0  0  0  0
    7.0517    1.0960    3.0061 H   0  0  0  0  0  0  0  0  0  0  0  0
    3.4884    5.1863    0.6380 H   0  0  0  0  0  0  0  0  0  0  0  0
    3.7328    4.6069    2.3068 H   0  0  0  0  0  0  0  0  0  0  0  0
    4.7953    4.0739    0.9745 H   0  0  0  0  0  0  0  0  0  0  0  0
  1 22  2  0  0  0  0
  2  4  1  0  0  0  0
  2  8  1  0  0  0  0
  2 24  1  0  0  0  0
  3 15  1  0  0  0  0
  3 22  1  0  0  0  0
  3 25  1  0  0  0  0
  4  5  2  0  0  0  0
  4  7  1  0  0  0  0
  5  6  1  0  0  0  0
  5 10  1  0  0  0  0
  6  8  2  0  0  0  0
  6 12  1  0  0  0  0
  7  9  1  0  0  0  0
  7 11  2  0  0  0  0
  8 14  1  0  0  0  0
  9 15  2  0  0  0  0
  9 16  1  0  0  0  0
 10 13  2  0  0  0  0
 10 26  1  0  0  0  0
 11 13  1  0  0  0  0
 11 27  1  0  0  0  0
 12 17  2  0  0  0  0
 12 28  1  0  0  0  0
 13 29  1  0  0  0  0
 14 18  2  0  0  0  0
 14 30  1  0  0  0  0
 15 19  1  0  0  0  0
 16 20  2  0  0  0  0
 16 31  1  0  0  0  0
 17 18  1  0  0  0  0
 17 32  1  0  0  0  0
 18 33  1  0  0  0  0
 19 21  2  0  0  0  0
 19 34  1  0  0  0  0
 20 21  1  0  0  0  0
 20 35  1  0  0  0  0
 21 36  1  0  0  0  0
 22 23  1  0  0  0  0
 23 37  1  0  0  0  0
 23 38  1  0  0  0  0
 23 39  1  0  0  0  0
M  END
>  <Mol_ID>
5275

>  <Formula>
C20H16N2O

>  <MolWeight>
300.35384

>  <Cat>
S0732

>  <Name>
GeA-69

>  <Synonyms>
N/A

>  <Target>
PARP

>  <Form>
Free Base

>  <CAS>
2143475-98-1

>  <URL>
https://www.selleckchem.com/products/gea-69.html

$$$$
