Gefapixant
 OpenBabel08302521253D

 43 44  0  0  0  0  0  0  0  0999 V2000
    1.4049   -0.2373    0.0846 C   0  0  0  0  0  0  0  0  0  0  0  0
    0.5750   -1.3477   -0.0056 C   0  0  0  0  0  0  0  0  0  0  0  0
   -0.8043   -1.1057   -0.1483 C   0  0  0  0  0  0  0  0  0  0  0  0
   -1.3999    0.1794   -0.1464 C   0  0  0  0  0  0  0  0  0  0  0  0
   -0.5627    1.2667    0.1091 C   0  0  0  0  0  0  0  0  0  0  0  0
    0.8285    1.0484    0.1109 C   0  0  0  0  0  0  0  0  0  0  0  0
    3.1653   -0.3136    0.1315 S   0  0  0  0  0  0  0  0  0  0  0  0
    3.5830   -0.9280    1.3720 O   0  0  0  0  0  0  0  0  0  0  0  0
    3.6465   -0.7406   -1.1606 O   0  0  0  0  0  0  0  0  0  0  0  0
    3.6860    1.2830    0.2692 N   0  0  0  0  0  0  0  0  0  0  0  0
   -2.8667    0.2031   -0.5541 C   0  0  0  0  0  0  0  0  0  0  0  0
   -3.7140    1.3925   -0.1228 C   0  0  0  0  0  0  0  0  0  0  0  0
   -2.9597    0.0017   -2.0804 C   0  0  0  0  0  0  0  0  0  0  0  0
    0.8084   -2.6858   -0.0632 O   0  0  0  0  0  0  0  0  0  0  0  0
    2.0380   -3.2747    0.3084 C   0  0  0  0  0  0  0  0  0  0  0  0
   -1.0625    2.5421    0.3558 O   0  0  0  0  0  0  0  0  0  0  0  0
    1.4207    4.7364    2.7470 C   0  0  0  0  0  0  0  0  0  0  0  0
    0.8338    5.3598    1.7201 N   0  0  0  0  0  0  0  0  0  0  0  0
   -0.0559    4.6560    0.9933 C   0  0  0  0  0  0  0  0  0  0  0  0
   -0.3459    3.3260    1.2478 C   0  0  0  0  0  0  0  0  0  0  0  0
    0.2217    2.8292    2.4086 C   0  0  0  0  0  0  0  0  0  0  0  0
    1.1356    3.4976    3.1455 N   0  0  0  0  0  0  0  0  0  0  0  0
   -0.6926    5.3788   -0.0130 N   0  0  0  0  0  0  0  0  0  0  0  0
    2.4755    5.3740    3.3698 N   0  0  0  0  0  0  0  0  0  0  0  0
   -1.4497   -1.9757   -0.2953 H   0  0  0  0  0  0  0  0  0  0  0  0
    1.4790    1.9185    0.1542 H   0  0  0  0  0  0  0  0  0  0  0  0
    4.1849    1.4034    1.1525 H   0  0  0  0  0  0  0  0  0  0  0  0
    4.2329    1.5383   -0.5542 H   0  0  0  0  0  0  0  0  0  0  0  0
   -3.3430   -0.6708   -0.0856 H   0  0  0  0  0  0  0  0  0  0  0  0
   -3.4770    2.2957   -0.6924 H   0  0  0  0  0  0  0  0  0  0  0  0
   -4.7743    1.1666   -0.2965 H   0  0  0  0  0  0  0  0  0  0  0  0
   -3.5957    1.5988    0.9448 H   0  0  0  0  0  0  0  0  0  0  0  0
   -2.7164   -1.0338   -2.3511 H   0  0  0  0  0  0  0  0  0  0  0  0
   -3.9675    0.2029   -2.4579 H   0  0  0  0  0  0  0  0  0  0  0  0
   -2.2577    0.6483   -2.6203 H   0  0  0  0  0  0  0  0  0  0  0  0
    2.8313   -3.0096   -0.3898 H   0  0  0  0  0  0  0  0  0  0  0  0
    2.2936   -3.0562    1.3478 H   0  0  0  0  0  0  0  0  0  0  0  0
    1.9094   -4.3597    0.2314 H   0  0  0  0  0  0  0  0  0  0  0  0
    0.0153    1.8228    2.7590 H   0  0  0  0  0  0  0  0  0  0  0  0
   -0.2791    6.3151   -0.0358 H   0  0  0  0  0  0  0  0  0  0  0  0
   -0.6537    4.9044   -0.9059 H   0  0  0  0  0  0  0  0  0  0  0  0
    2.8779    6.0613    2.7474 H   0  0  0  0  0  0  0  0  0  0  0  0
    3.1056    4.6849    3.7589 H   0  0  0  0  0  0  0  0  0  0  0  0
  1  2  2  0  0  0  0
  1  6  1  0  0  0  0
  1  7  1  0  0  0  0
  2  3  1  0  0  0  0
  2 14  1  0  0  0  0
  3  4  2  0  0  0  0
  3 25  1  0  0  0  0
  4  5  1  0  0  0  0
  4 11  1  0  0  0  0
  5  6  2  0  0  0  0
  5 16  1  0  0  0  0
  6 26  1  0  0  0  0
  7  8  2  0  0  0  0
  7  9  2  0  0  0  0
  7 10  1  0  0  0  0
 10 27  1  0  0  0  0
 10 28  1  0  0  0  0
 11 12  1  0  0  0  0
 11 13  1  0  0  0  0
 11 29  1  0  0  0  0
 12 30  1  0  0  0  0
 12 31  1  0  0  0  0
 12 32  1  0  0  0  0
 13 33  1  0  0  0  0
 13 34  1  0  0  0  0
 13 35  1  0  0  0  0
 14 15  1  0  0  0  0
 15 36  1  0  0  0  0
 15 37  1  0  0  0  0
 15 38  1  0  0  0  0
 16 20  1  0  0  0  0
 17 18  2  0  0  0  0
 17 22  1  0  0  0  0
 17 24  1  0  0  0  0
 18 19  1  0  0  0  0
 19 20  2  0  0  0  0
 19 23  1  0  0  0  0
 20 21  1  0  0  0  0
 21 22  2  0  0  0  0
 21 39  1  0  0  0  0
 23 40  1  0  0  0  0
 23 41  1  0  0  0  0
 24 42  1  0  0  0  0
 24 43  1  0  0  0  0
M  END
>  <Mol_ID>
5183

>  <Formula>
C14H19N5O4S

>  <MolWeight>
353.39676

>  <Cat>
S6664

>  <Name>
Gefapixant

>  <Synonyms>
AF-219, MK-7264, R1646,RG-1646,RO 4926219

>  <Target>
P2 Receptor

>  <Form>
free base

>  <CAS>
1015787-98-0

>  <URL>
http://www.selleckchem.com/products/gefapixant.html

$$$$
