GEMCITABINE (gemcitabine).cdx
 OpenBabel08302520413D

 29 30  0  0  0  0  0  0  0  0999 V2000
   -0.7673   -0.6332    0.9440 N   0  0  0  0  0  0  0  0  0  0  0  0
    0.0276   -1.3540    0.2180 C   0  0  0  0  0  0  0  0  0  0  0  0
    0.9970   -0.7807   -0.7363 C   0  0  0  0  0  0  0  0  0  0  0  0
    0.9858    0.5453   -0.8454 C   0  0  0  0  0  0  0  0  0  0  0  0
    0.1212    1.3145   -0.1002 N   0  0  0  0  0  0  0  0  0  0  0  0
   -0.7359    0.7365    0.8441 C   0  0  0  0  0  0  0  0  0  0  0  0
   -0.0584   -2.7130    0.3489 N   0  0  0  0  0  0  0  0  0  0  0  0
   -1.4577    1.4447    1.5427 O   0  0  0  0  0  0  0  0  0  0  0  0
    0.0824    2.7710   -0.2020 C   0  0  2  0  0  0  0  0  0  0  0  0
    0.5602    3.1805   -1.5115 O   0  0  0  0  0  0  0  0  0  0  0  0
    1.5211    4.2366   -1.3075 C   0  0  1  0  0  0  0  0  0  0  0  0
    2.1089    4.0304    0.0769 C   0  0  2  0  0  0  0  0  0  0  0  0
    0.9036    3.5327    0.8526 C   0  0  0  0  0  0  0  0  0  0  0  0
    2.5743    4.1546   -2.4098 C   0  0  0  0  0  0  0  0  0  0  0  0
    2.6812    5.2377    0.5830 O   0  0  0  0  0  0  0  0  0  0  0  0
    1.9574    4.3522   -3.6811 O   0  0  0  0  0  0  0  0  0  0  0  0
    0.2133    4.6069    1.3213 F   0  0  0  0  0  0  0  0  0  0  0  0
    1.2815    2.7944    1.9137 F   0  0  0  0  0  0  0  0  0  0  0  0
    1.6569   -1.4244   -1.2992 H   0  0  0  0  0  0  0  0  0  0  0  0
    1.6565    1.0480   -1.5348 H   0  0  0  0  0  0  0  0  0  0  0  0
    0.1617   -3.2774   -0.4621 H   0  0  0  0  0  0  0  0  0  0  0  0
   -0.9063   -3.0049    0.8258 H   0  0  0  0  0  0  0  0  0  0  0  0
   -0.9617    3.0991   -0.1479 H   0  0  0  0  0  0  0  0  0  0  0  0
    0.9831    5.1897   -1.3852 H   0  0  0  0  0  0  0  0  0  0  0  0
    2.8902    3.2623    0.0694 H   0  0  0  0  0  0  0  0  0  0  0  0
    3.3518    4.9128   -2.2815 H   0  0  0  0  0  0  0  0  0  0  0  0
    3.0450    3.1656   -2.4302 H   0  0  0  0  0  0  0  0  0  0  0  0
    1.9669    5.7475    1.0163 H   0  0  0  0  0  0  0  0  0  0  0  0
    1.1437    3.8127   -3.6827 H   0  0  0  0  0  0  0  0  0  0  0  0
  1  2  2  0  0  0  0
  2  3  1  0  0  0  0
  2  7  1  0  0  0  0
  3  4  2  0  0  0  0
  3 19  1  0  0  0  0
  4  5  1  0  0  0  0
  4 20  1  0  0  0  0
  5  6  1  0  0  0  0
  6  1  1  0  0  0  0
  6  8  2  0  0  0  0
  7 21  1  0  0  0  0
  7 22  1  0  0  0  0
  9  5  1  0  0  0  0
  9 10  1  0  0  0  0
  9 23  1  1  0  0  0
 10 11  1  0  0  0  0
 11 12  1  0  0  0  0
 11 24  1  6  0  0  0
 11 14  1  0  0  0  0
 12 13  1  0  0  0  0
 12 15  1  0  0  0  0
 12 25  1  6  0  0  0
 13  9  1  0  0  0  0
 13 17  1  0  0  0  0
 13 18  1  0  0  0  0
 14 16  1  0  0  0  0
 14 26  1  0  0  0  0
 14 27  1  0  0  0  0
 15 28  1  0  0  0  0
 16 29  1  0  0  0  0
M  END
>  <Mol_ID>
396

>  <Formula>
C9H11F2N3O4

>  <MolWeight>
263.1981464

>  <Cat>
S1714

>  <Name>
Gemcitabine (LY-188011)

>  <Synonyms>
LY-188011, NSC 613327

>  <Target>
Apoptosis related,Autophagy,DNA/RNA Synthesis,Nucleoside Analog/Antimetabolite

>  <Form>
Free Base

>  <CAS>
95058-81-4

>  <URL>
http://selleckchem.com/products/Gemcitabine(Gemzar).html

$$$$
