Gemigliptin
 OpenBabel08302521313D

 52 54  0  0  0  0  0  0  0  0999 V2000
    4.2987  -15.4524   -1.7873 F   0  0  0  0  0  0  0  0  0  0  0  0
    6.0582  -14.1812   -1.9104 F   0  0  0  0  0  0  0  0  0  0  0  0
    5.3194  -10.7117    3.5815 N   0  0  0  0  0  0  0  0  0  0  0  0
    6.7214   -6.4903    3.9029 C   0  0  0  0  0  0  0  0  0  0  0  0
    5.8626   -3.7868    3.8858 O   0  0  0  0  0  0  0  0  0  0  0  0
    3.3167  -13.7759    0.1252 N   0  0  0  0  0  0  0  0  0  0  0  0
    9.2067   -4.8497    6.1301 C   0  0  0  0  0  0  0  0  0  0  0  0
    2.7829  -12.9841    1.0922 C   0  0  0  0  0  0  0  0  0  0  0  0
    7.2841   -3.3000    5.7463 C   0  0  0  0  0  0  0  0  0  0  0  0
    7.2403   -9.4661    3.6710 O   0  0  0  0  0  0  0  0  0  0  0  0
    5.5007  -13.2559    0.8898 N   0  0  0  0  0  0  0  0  0  0  0  0
    5.9530  -11.7369    2.7536 C   0  0  0  0  0  0  0  0  0  0  0  0
    5.2477  -14.8325   -1.0220 C   0  0  0  0  0  0  0  0  0  0  0  0
    5.2789   -8.5046    4.6782 C   0  0  0  0  0  0  0  0  0  0  0  0
    0.6191  -13.5431    0.1514 F   0  0  0  0  0  0  0  0  0  0  0  0
    4.6609  -13.8999    0.0513 C   0  0  0  0  0  0  0  0  0  0  0  0
   10.5401   -4.9079    6.3606 F   0  0  0  0  0  0  0  0  0  0  0  0
    4.9699  -12.4626    1.8442 C   0  0  0  0  0  0  0  0  0  0  0  0
    3.5906  -12.3195    2.0110 C   0  0  0  0  0  0  0  0  0  0  0  0
    7.4793   -5.3352    4.3994 N   0  0  0  0  0  0  0  0  0  0  0  0
    4.0500  -11.1131    4.1785 C   0  0  0  0  0  0  0  0  0  0  0  0
    0.7266  -13.2841    2.3054 F   0  0  0  0  0  0  0  0  0  0  0  0
    6.8530   -4.1099    4.5367 C   0  0  0  0  0  0  0  0  0  0  0  0
    8.7532   -3.4050    6.1121 C   0  0  0  0  0  0  0  0  0  0  0  0
    8.8688   -5.5348    4.8146 C   0  0  0  0  0  0  0  0  0  0  0  0
    1.2635  -12.8473    1.1295 C   0  0  0  0  0  0  0  0  0  0  0  0
    6.0548   -9.5916    3.9532 C   0  0  0  0  0  0  0  0  0  0  0  0
    0.8519  -11.5530    0.9953 F   0  0  0  0  0  0  0  0  0  0  0  0
    3.0281  -11.4321    3.0916 C   0  0  0  0  0  0  0  0  0  0  0  0
    6.0054  -15.8409   -0.4984 F   0  0  0  0  0  0  0  0  0  0  0  0
    6.1026   -7.2836    5.0922 C   0  0  2  0  0  0  0  0  0  0  0  0
    8.6013   -5.5045    7.1538 F   0  0  0  0  0  0  0  0  0  0  0  0
    5.1985   -6.4418    5.9174 N   0  0  0  0  0  0  0  0  0  0  0  0
    7.4007   -7.1001    3.3026 H   0  0  0  0  0  0  0  0  0  0  0  0
    5.9206   -6.1437    3.2391 H   0  0  0  0  0  0  0  0  0  0  0  0
    6.6751   -3.6687    6.5824 H   0  0  0  0  0  0  0  0  0  0  0  0
    7.0161   -2.2512    5.5832 H   0  0  0  0  0  0  0  0  0  0  0  0
    6.7461  -11.2916    2.1434 H   0  0  0  0  0  0  0  0  0  0  0  0
    6.4121  -12.4655    3.4320 H   0  0  0  0  0  0  0  0  0  0  0  0
    4.4374   -8.1994    4.0430 H   0  0  0  0  0  0  0  0  0  0  0  0
    4.8824   -8.9482    5.5998 H   0  0  0  0  0  0  0  0  0  0  0  0
    4.2544  -12.0009    4.7912 H   0  0  0  0  0  0  0  0  0  0  0  0
    3.6359  -10.3600    4.8492 H   0  0  0  0  0  0  0  0  0  0  0  0
    8.9085   -2.9629    7.1032 H   0  0  0  0  0  0  0  0  0  0  0  0
    9.3619   -2.8308    5.4056 H   0  0  0  0  0  0  0  0  0  0  0  0
    9.5009   -5.1345    4.0124 H   0  0  0  0  0  0  0  0  0  0  0  0
    9.0790   -6.6086    4.8904 H   0  0  0  0  0  0  0  0  0  0  0  0
    2.1675  -11.9066    3.5745 H   0  0  0  0  0  0  0  0  0  0  0  0
    2.6902  -10.4970    2.6292 H   0  0  0  0  0  0  0  0  0  0  0  0
    6.9151   -7.6191    5.7489 H   0  0  0  0  0  0  0  0  0  0  0  0
    4.8933   -5.6316    5.3666 H   0  0  0  0  0  0  0  0  0  0  0  0
    5.7245   -6.0522    6.6989 H   0  0  0  0  0  0  0  0  0  0  0  0
  1 13  1  0  0  0  0
  2 13  1  0  0  0  0
  3 12  1  0  0  0  0
  3 21  1  0  0  0  0
  3 27  1  0  0  0  0
  4 34  1  0  0  0  0
  4 35  1  0  0  0  0
  5 23  2  0  0  0  0
  6  8  2  0  0  0  0
  6 16  1  0  0  0  0
  7 24  1  0  0  0  0
  8 26  1  0  0  0  0
  9 23  1  0  0  0  0
  9 36  1  0  0  0  0
  9 37  1  0  0  0  0
 10 27  2  0  0  0  0
 11 18  1  0  0  0  0
 11 16  2  0  0  0  0
 12 18  1  0  0  0  0
 12 38  1  0  0  0  0
 12 39  1  0  0  0  0
 14 27  1  0  0  0  0
 14 40  1  0  0  0  0
 14 41  1  0  0  0  0
 15 26  1  0  0  0  0
 16 13  1  0  0  0  0
 17  7  1  0  0  0  0
 19 18  2  0  0  0  0
 19  8  1  0  0  0  0
 20  4  1  0  0  0  0
 20 23  1  0  0  0  0
 20 25  1  0  0  0  0
 21 29  1  0  0  0  0
 21 42  1  0  0  0  0
 21 43  1  0  0  0  0
 22 26  1  0  0  0  0
 24  9  1  0  0  0  0
 24 44  1  0  0  0  0
 24 45  1  0  0  0  0
 25  7  1  0  0  0  0
 25 46  1  0  0  0  0
 25 47  1  0  0  0  0
 28 26  1  0  0  0  0
 29 19  1  0  0  0  0
 29 48  1  0  0  0  0
 29 49  1  0  0  0  0
 30 13  1  0  0  0  0
 31  4  1  0  0  0  0
 31 50  1  1  0  0  0
 31 33  1  0  0  0  0
 31 14  1  0  0  0  0
 32  7  1  0  0  0  0
 33 51  1  0  0  0  0
 33 52  1  0  0  0  0
M  END
>  <Mol_ID>
6071

>  <Formula>
C18H19F8N5O2

>  <MolWeight>
489.3629856

>  <Cat>
E0122

>  <Name>
Gemigliptin

>  <Synonyms>
Zemiglo, LC15-0444

>  <Target>
DPP

>  <Form>
Free Base

>  <CAS>
911637-19-9

>  <URL>
http://www.selleckchem.com/products/gemigliptin.html

$$$$
