GEN-6776
 OpenBabel08302521353D

 46 48  0  0  0  0  0  0  0  0999 V2000
    0.6545   -0.7248   -0.3358 O   0  0  0  0  0  0  0  0  0  0  0  0
    5.9920    0.1555   -6.9061 N   0  0  0  0  0  0  0  0  0  0  0  0
    7.0741    1.4111   -8.4270 N   0  0  0  0  0  0  0  0  0  0  0  0
    3.7868    0.7478   -1.1828 N   0  0  0  0  0  0  0  0  0  0  0  0
    2.0429    0.6687    0.8647 N   0  0  0  0  0  0  0  0  0  0  0  0
    5.7359    2.2304   -5.0180 C   0  0  0  0  0  0  0  0  0  0  0  0
    6.4720    2.4553   -6.2466 C   0  0  0  0  0  0  0  0  0  0  0  0
    5.1400    0.9455   -4.7553 C   0  0  0  0  0  0  0  0  0  0  0  0
    5.5594    3.3564   -4.0014 C   0  0  0  0  0  0  0  0  0  0  0  0
    7.1494    3.7562   -6.5995 C   0  0  0  0  0  0  0  0  0  0  0  0
    4.2921    0.5844   -3.5772 C   0  0  0  0  0  0  0  0  0  0  0  0
    6.5213    1.3599   -7.1522 C   0  0  0  0  0  0  0  0  0  0  0  0
    5.3419   -0.0263   -5.7384 C   0  0  0  0  0  0  0  0  0  0  0  0
    6.8444    3.7470   -3.2825 C   0  0  0  0  0  0  0  0  0  0  0  0
    8.4710    3.7961   -7.0987 C   0  0  0  0  0  0  0  0  0  0  0  0
    6.5149    5.0055   -6.4673 C   0  0  0  0  0  0  0  0  0  0  0  0
    3.1096   -0.1708   -3.7328 C   0  0  0  0  0  0  0  0  0  0  0  0
    4.5919    0.9381   -2.2577 C   0  0  0  0  0  0  0  0  0  0  0  0
    9.0947    4.9930   -7.4869 C   0  0  0  0  0  0  0  0  0  0  0  0
    7.1743    6.2138   -6.7317 C   0  0  0  0  0  0  0  0  0  0  0  0
    2.2807   -0.4463   -2.6450 C   0  0  0  0  0  0  0  0  0  0  0  0
    8.4460    6.1978   -7.2741 C   0  0  0  0  0  0  0  0  0  0  0  0
    2.6301    0.0682   -1.4070 C   0  0  0  0  0  0  0  0  0  0  0  0
    1.6792   -0.0578   -0.2504 C   0  0  0  0  0  0  0  0  0  0  0  0
    9.0180    7.3910   -7.5954 O   0  0  0  0  0  0  0  0  0  0  0  0
    1.2374    0.7471    2.0538 C   0  0  0  0  0  0  0  0  0  0  0  0
    6.9417    0.4764   -8.8146 H   0  0  0  0  0  0  0  0  0  0  0  0
    8.0567    1.6416   -8.4167 H   0  0  0  0  0  0  0  0  0  0  0  0
    2.8985    1.2142    0.7896 H   0  0  0  0  0  0  0  0  0  0  0  0
    5.0814    4.2241   -4.4539 H   0  0  0  0  0  0  0  0  0  0  0  0
    4.8113    3.1035   -3.2512 H   0  0  0  0  0  0  0  0  0  0  0  0
    4.9466   -1.0330   -5.6225 H   0  0  0  0  0  0  0  0  0  0  0  0
    7.4055    4.5002   -3.8426 H   0  0  0  0  0  0  0  0  0  0  0  0
    6.6077    4.1890   -2.3090 H   0  0  0  0  0  0  0  0  0  0  0  0
    7.5023    2.8882   -3.1172 H   0  0  0  0  0  0  0  0  0  0  0  0
    9.0495    2.8829   -7.2075 H   0  0  0  0  0  0  0  0  0  0  0  0
    5.4808    5.0782   -6.1512 H   0  0  0  0  0  0  0  0  0  0  0  0
    2.8051   -0.5421   -4.7094 H   0  0  0  0  0  0  0  0  0  0  0  0
    5.5225    1.4467   -2.0168 H   0  0  0  0  0  0  0  0  0  0  0  0
   10.0823    4.9587   -7.9365 H   0  0  0  0  0  0  0  0  0  0  0  0
    6.6784    7.1607   -6.5364 H   0  0  0  0  0  0  0  0  0  0  0  0
    1.3657   -1.0182   -2.7685 H   0  0  0  0  0  0  0  0  0  0  0  0
    9.8293    7.2213   -8.1012 H   0  0  0  0  0  0  0  0  0  0  0  0
    1.8663    0.4921    2.9103 H   0  0  0  0  0  0  0  0  0  0  0  0
    0.8798    1.7748    2.1651 H   0  0  0  0  0  0  0  0  0  0  0  0
    0.3826    0.0668    2.0079 H   0  0  0  0  0  0  0  0  0  0  0  0
  1 24  2  0  0  0  0
  2 12  2  0  0  0  0
  2 13  1  0  0  0  0
  3 12  1  0  0  0  0
  3 27  1  0  0  0  0
  3 28  1  0  0  0  0
  4 18  2  0  0  0  0
  4 23  1  0  0  0  0
  5 24  1  0  0  0  0
  5 26  1  0  0  0  0
  5 29  1  0  0  0  0
  6  7  2  0  0  0  0
  6  8  1  0  0  0  0
  6  9  1  0  0  0  0
  7 10  1  0  0  0  0
  7 12  1  0  0  0  0
  8 11  1  0  0  0  0
  8 13  2  0  0  0  0
  9 14  1  0  0  0  0
  9 30  1  0  0  0  0
  9 31  1  0  0  0  0
 10 15  2  0  0  0  0
 10 16  1  0  0  0  0
 11 17  2  0  0  0  0
 11 18  1  0  0  0  0
 13 32  1  0  0  0  0
 14 33  1  0  0  0  0
 14 34  1  0  0  0  0
 14 35  1  0  0  0  0
 15 19  1  0  0  0  0
 15 36  1  0  0  0  0
 16 20  2  0  0  0  0
 16 37  1  0  0  0  0
 17 21  1  0  0  0  0
 17 38  1  0  0  0  0
 18 39  1  0  0  0  0
 19 22  2  0  0  0  0
 19 40  1  0  0  0  0
 20 22  1  0  0  0  0
 20 41  1  0  0  0  0
 21 23  2  0  0  0  0
 21 42  1  0  0  0  0
 22 25  1  0  0  0  0
 23 24  1  0  0  0  0
 25 43  1  0  0  0  0
 26 44  1  0  0  0  0
 26 45  1  0  0  0  0
 26 46  1  0  0  0  0
M  END
>  <Mol_ID>
6711

>  <Formula>
C20H20N4O2

>  <MolWeight>
348.3984

>  <Cat>
S6933

>  <Name>
GEN-6776

>  <Synonyms>
N/A

>  <Target>
DUB

>  <Form>
Free base

>  <CAS>
2009273-71-4

>  <URL>
http://www.selleckchem.com/products/gen-6776.html

$$$$
