Geniposide.cdx
 OpenBabel08302521453D

 51 53  0  0  0  0  0  0  0  0999 V2000
    5.1718    3.4480   -1.7780 C   0  0  2  0  0  0  0  0  0  0  0  0
    5.4845    2.9785   -0.3561 C   0  0  2  0  0  0  0  0  0  0  0  0
    4.2524    2.8894    0.3823 O   0  0  0  0  0  0  0  0  0  0  0  0
    3.3633    1.8686   -0.0950 C   0  0  2  0  0  0  0  0  0  0  0  0
    3.0693    2.0332   -1.6104 C   0  0  1  0  0  0  0  0  0  0  0  0
    4.3055    2.3782   -2.4455 C   0  0  1  0  0  0  0  0  0  0  0  0
    6.3581    3.7039   -2.5285 O   0  0  0  0  0  0  0  0  0  0  0  0
    2.4896    0.8361   -2.1600 O   0  0  0  0  0  0  0  0  0  0  0  0
    2.0927    1.9830    0.5782 O   0  0  0  0  0  0  0  0  0  0  0  0
    2.1772    1.8078    2.0003 C   0  0  2  0  0  0  0  0  0  0  0  0
    3.8876    2.7864   -3.7568 O   0  0  0  0  0  0  0  0  0  0  0  0
    6.4164    3.9645    0.3599 C   0  0  0  0  0  0  0  0  0  0  0  0
    6.7677    3.4540    1.6458 O   0  0  0  0  0  0  0  0  0  0  0  0
    2.3840    0.4359    2.3634 O   0  0  0  0  0  0  0  0  0  0  0  0
    1.2639   -0.3440    2.4516 C   0  0  0  0  0  0  0  0  0  0  0  0
   -0.0087    0.0827    2.4732 C   0  0  0  0  0  0  0  0  0  0  0  0
   -0.3485    1.5568    2.4827 C   0  0  2  0  0  0  0  0  0  0  0  0
    0.9237    2.4294    2.6556 C   0  0  1  0  0  0  0  0  0  0  0  0
   -1.1348   -0.8947    2.4184 C   0  0  0  0  0  0  0  0  0  0  0  0
   -2.3036   -0.5613    2.2906 O   0  0  0  0  0  0  0  0  0  0  0  0
   -0.6786   -2.1719    2.4643 O   0  0  0  0  0  0  0  0  0  0  0  0
   -1.6410   -3.1888    2.1787 C   0  0  0  0  0  0  0  0  0  0  0  0
   -1.2385    1.9822    3.6759 C   0  0  0  0  0  0  0  0  0  0  0  0
   -0.2425    2.4076    4.7062 C   0  0  0  0  0  0  0  0  0  0  0  0
    0.9619    2.6324    4.1626 C   0  0  0  0  0  0  0  0  0  0  0  0
    2.1761    3.0812    4.8974 C   0  0  0  0  0  0  0  0  0  0  0  0
    3.2026    2.1128    4.7638 O   0  0  0  0  0  0  0  0  0  0  0  0
    4.6130    4.3914   -1.7463 H   0  0  0  0  0  0  0  0  0  0  0  0
    5.9708    1.9932   -0.3576 H   0  0  0  0  0  0  0  0  0  0  0  0
    3.7867    0.8767    0.1108 H   0  0  0  0  0  0  0  0  0  0  0  0
    2.3160    2.8202   -1.7473 H   0  0  0  0  0  0  0  0  0  0  0  0
    4.9063    1.4706   -2.6143 H   0  0  0  0  0  0  0  0  0  0  0  0
    6.6217    2.8955   -3.0034 H   0  0  0  0  0  0  0  0  0  0  0  0
    2.4708    0.9628   -3.1295 H   0  0  0  0  0  0  0  0  0  0  0  0
    3.0503    2.3656    2.3493 H   0  0  0  0  0  0  0  0  0  0  0  0
    3.5422    3.6967   -3.6936 H   0  0  0  0  0  0  0  0  0  0  0  0
    7.3467    4.1157   -0.1955 H   0  0  0  0  0  0  0  0  0  0  0  0
    5.9306    4.9343    0.5072 H   0  0  0  0  0  0  0  0  0  0  0  0
    5.9267    3.2689    2.1048 H   0  0  0  0  0  0  0  0  0  0  0  0
    1.5621   -1.3855    2.4931 H   0  0  0  0  0  0  0  0  0  0  0  0
   -0.8536    1.7936    1.5377 H   0  0  0  0  0  0  0  0  0  0  0  0
    0.7414    3.4117    2.1953 H   0  0  0  0  0  0  0  0  0  0  0  0
   -2.6371   -2.9530    2.5649 H   0  0  0  0  0  0  0  0  0  0  0  0
   -1.6779   -3.3418    1.0962 H   0  0  0  0  0  0  0  0  0  0  0  0
   -1.3016   -4.1175    2.6466 H   0  0  0  0  0  0  0  0  0  0  0  0
   -1.8728    2.8366    3.4101 H   0  0  0  0  0  0  0  0  0  0  0  0
   -1.8797    1.1871    4.0646 H   0  0  0  0  0  0  0  0  0  0  0  0
   -0.4902    2.5303    5.7529 H   0  0  0  0  0  0  0  0  0  0  0  0
    2.5385    4.0349    4.5035 H   0  0  0  0  0  0  0  0  0  0  0  0
    1.9741    3.2090    5.9656 H   0  0  0  0  0  0  0  0  0  0  0  0
    2.7864    1.2336    4.8233 H   0  0  0  0  0  0  0  0  0  0  0  0
  1  2  1  0  0  0  0
  1  7  1  0  0  0  0
  1 28  1  1  0  0  0
  2  3  1  0  0  0  0
  2 12  1  0  0  0  0
  2 29  1  6  0  0  0
  3  4  1  0  0  0  0
  4  5  1  0  0  0  0
  4  9  1  0  0  0  0
  4 30  1  1  0  0  0
  5  6  1  0  0  0  0
  5  8  1  0  0  0  0
  5 31  1  6  0  0  0
  6  1  1  0  0  0  0
  6 11  1  0  0  0  0
  6 32  1  6  0  0  0
  7 33  1  0  0  0  0
  8 34  1  0  0  0  0
 10  9  1  0  0  0  0
 10 14  1  0  0  0  0
 10 35  1  1  0  0  0
 11 36  1  0  0  0  0
 12 13  1  0  0  0  0
 12 37  1  0  0  0  0
 12 38  1  0  0  0  0
 13 39  1  0  0  0  0
 14 15  1  0  0  0  0
 15 16  2  0  0  0  0
 15 40  1  0  0  0  0
 16 17  1  0  0  0  0
 16 19  1  0  0  0  0
 17 18  1  0  0  0  0
 17 23  1  0  0  0  0
 17 41  1  6  0  0  0
 18 10  1  0  0  0  0
 18 25  1  0  0  0  0
 18 42  1  6  0  0  0
 19 20  2  0  0  0  0
 19 21  1  0  0  0  0
 21 22  1  0  0  0  0
 22 43  1  0  0  0  0
 22 44  1  0  0  0  0
 22 45  1  0  0  0  0
 23 24  1  0  0  0  0
 23 46  1  0  0  0  0
 23 47  1  0  0  0  0
 24 25  2  0  0  0  0
 24 48  1  0  0  0  0
 25 26  1  0  0  0  0
 26 27  1  0  0  0  0
 26 49  1  0  0  0  0
 26 50  1  0  0  0  0
 27 51  1  0  0  0  0
M  END
>  <Mol_ID>
948

>  <Formula>
C17H24O10

>  <MolWeight>
388.36646

>  <Cat>
S2411

>  <Name>
Geniposide

>  <Synonyms>
N/A

>  <Target>
Immunology & Inflammation related

>  <Form>
free base

>  <CAS>
24512-63-8

>  <URL>
http://selleckchem.com/products/geniposide.html

$$$$
