Genipin.cdx
 OpenBabel08302521453D

 30 31  0  0  0  0  0  0  0  0999 V2000
   -2.0077    0.3861   -0.4290 O   0  0  0  0  0  0  0  0  0  0  0  0
   -1.7187   -0.9506   -0.5378 C   0  0  0  0  0  0  0  0  0  0  0  0
   -0.6430   -1.5594   -0.0172 C   0  0  0  0  0  0  0  0  0  0  0  0
    0.4555   -0.7764    0.6723 C   0  0  2  0  0  0  0  0  0  0  0  0
    0.1946    0.7536    0.6569 C   0  0  2  0  0  0  0  0  0  0  0  0
   -1.3084    1.0468    0.6335 C   0  0  2  0  0  0  0  0  0  0  0  0
    1.8217   -0.9254   -0.0255 C   0  0  0  0  0  0  0  0  0  0  0  0
    1.9191    0.3032   -0.8729 C   0  0  0  0  0  0  0  0  0  0  0  0
    1.0209    1.2317   -0.5166 C   0  0  0  0  0  0  0  0  0  0  0  0
    0.8932    2.5967   -1.0976 C   0  0  0  0  0  0  0  0  0  0  0  0
   -0.4249    2.7988   -1.5745 O   0  0  0  0  0  0  0  0  0  0  0  0
   -0.4906   -3.0408   -0.0598 C   0  0  0  0  0  0  0  0  0  0  0  0
    0.4666   -3.6264    0.4158 O   0  0  0  0  0  0  0  0  0  0  0  0
   -1.5480   -3.6338   -0.6721 O   0  0  0  0  0  0  0  0  0  0  0  0
   -1.4641   -5.0581   -0.7268 C   0  0  0  0  0  0  0  0  0  0  0  0
   -1.8576    0.6813    1.9038 O   0  0  0  0  0  0  0  0  0  0  0  0
   -2.5021   -1.4466   -1.0995 H   0  0  0  0  0  0  0  0  0  0  0  0
    0.5176   -1.1291    1.7114 H   0  0  0  0  0  0  0  0  0  0  0  0
    0.6227    1.1955    1.5676 H   0  0  0  0  0  0  0  0  0  0  0  0
   -1.4978    2.1184    0.5122 H   0  0  0  0  0  0  0  0  0  0  0  0
    2.6362   -0.9319    0.7072 H   0  0  0  0  0  0  0  0  0  0  0  0
    1.9060   -1.8225   -0.6443 H   0  0  0  0  0  0  0  0  0  0  0  0
    2.6643    0.4217   -1.6484 H   0  0  0  0  0  0  0  0  0  0  0  0
    1.1092    3.3567   -0.3408 H   0  0  0  0  0  0  0  0  0  0  0  0
    1.5827    2.7463   -1.9341 H   0  0  0  0  0  0  0  0  0  0  0  0
   -0.6744    2.0071   -2.0851 H   0  0  0  0  0  0  0  0  0  0  0  0
   -0.6043   -5.3654   -1.3253 H   0  0  0  0  0  0  0  0  0  0  0  0
   -1.4112   -5.4827    0.2815 H   0  0  0  0  0  0  0  0  0  0  0  0
   -2.3741   -5.4307   -1.2088 H   0  0  0  0  0  0  0  0  0  0  0  0
   -1.8617    1.4897    2.4413 H   0  0  0  0  0  0  0  0  0  0  0  0
  1  2  1  0  0  0  0
  2  3  2  0  0  0  0
  2 17  1  0  0  0  0
  3  4  1  0  0  0  0
  3 12  1  0  0  0  0
  4  5  1  0  0  0  0
  4  7  1  0  0  0  0
  4 18  1  1  0  0  0
  5  6  1  0  0  0  0
  5  9  1  0  0  0  0
  5 19  1  1  0  0  0
  6  1  1  0  0  0  0
  6 20  1  6  0  0  0
  6 16  1  0  0  0  0
  7  8  1  0  0  0  0
  7 21  1  0  0  0  0
  7 22  1  0  0  0  0
  8  9  2  0  0  0  0
  8 23  1  0  0  0  0
  9 10  1  0  0  0  0
 10 11  1  0  0  0  0
 10 24  1  0  0  0  0
 10 25  1  0  0  0  0
 11 26  1  0  0  0  0
 12 13  2  0  0  0  0
 12 14  1  0  0  0  0
 14 15  1  0  0  0  0
 15 27  1  0  0  0  0
 15 28  1  0  0  0  0
 15 29  1  0  0  0  0
 16 30  1  0  0  0  0
M  END
>  <Mol_ID>
947

>  <Formula>
C11H14O5

>  <MolWeight>
226.22586

>  <Cat>
S2412

>  <Name>
Genipin

>  <Synonyms>
(+)-Genipin

>  <Target>
Apoptosis related

>  <Form>
free base

>  <CAS>
6902-77-8

>  <URL>
http://selleckchem.com/products/genipin.html

$$$$
