Genistein.cdx
 OpenBabel08302519533D

 30 32  0  0  0  0  0  0  0  0999 V2000
    2.3347   -0.2575    0.0017 C   0  0  0  0  0  0  0  0  0  0  0  0
    1.4193   -1.3026    0.0262 C   0  0  0  0  0  0  0  0  0  0  0  0
    0.0512   -1.0216    0.0281 C   0  0  0  0  0  0  0  0  0  0  0  0
   -0.4027    0.3012    0.0116 C   0  0  0  0  0  0  0  0  0  0  0  0
    0.5375    1.3431   -0.0060 C   0  0  0  0  0  0  0  0  0  0  0  0
    1.9080    1.0662   -0.0122 C   0  0  0  0  0  0  0  0  0  0  0  0
   -0.7896   -2.1084    0.0426 O   0  0  0  0  0  0  0  0  0  0  0  0
   -2.1384   -1.8734   -0.0413 C   0  0  0  0  0  0  0  0  0  0  0  0
   -2.7307   -0.6729   -0.0705 C   0  0  0  0  0  0  0  0  0  0  0  0
   -1.8678    0.5364    0.0061 C   0  0  0  0  0  0  0  0  0  0  0  0
   -2.3678    1.6540    0.0609 O   0  0  0  0  0  0  0  0  0  0  0  0
   -4.1878   -0.5562   -0.1974 C   0  0  0  0  0  0  0  0  0  0  0  0
   -5.0054   -0.5210    0.9399 C   0  0  0  0  0  0  0  0  0  0  0  0
   -6.3887   -0.3655    0.8093 C   0  0  0  0  0  0  0  0  0  0  0  0
   -6.9480   -0.2505   -0.4600 C   0  0  0  0  0  0  0  0  0  0  0  0
   -6.1507   -0.2937   -1.5973 C   0  0  0  0  0  0  0  0  0  0  0  0
   -4.7696   -0.4465   -1.4676 C   0  0  0  0  0  0  0  0  0  0  0  0
   -8.2901   -0.0839   -0.6332 O   0  0  0  0  0  0  0  0  0  0  0  0
    3.6600   -0.5768   -0.0123 O   0  0  0  0  0  0  0  0  0  0  0  0
    0.1349    2.6478   -0.0279 O   0  0  0  0  0  0  0  0  0  0  0  0
    1.7695   -2.3311    0.0371 H   0  0  0  0  0  0  0  0  0  0  0  0
    2.6307    1.8747   -0.0316 H   0  0  0  0  0  0  0  0  0  0  0  0
   -2.6759   -2.8131   -0.0888 H   0  0  0  0  0  0  0  0  0  0  0  0
   -4.5682   -0.5883    1.9334 H   0  0  0  0  0  0  0  0  0  0  0  0
   -7.0046   -0.3239    1.7018 H   0  0  0  0  0  0  0  0  0  0  0  0
   -6.5995   -0.1910   -2.5810 H   0  0  0  0  0  0  0  0  0  0  0  0
   -4.1504   -0.4544   -2.3614 H   0  0  0  0  0  0  0  0  0  0  0  0
   -8.7062   -0.0004    0.2402 H   0  0  0  0  0  0  0  0  0  0  0  0
    4.1878    0.2378   -0.0585 H   0  0  0  0  0  0  0  0  0  0  0  0
    0.8953    3.2493   -0.0049 H   0  0  0  0  0  0  0  0  0  0  0  0
  1  2  2  0  0  0  0
  1 19  1  0  0  0  0
  2  3  1  0  0  0  0
  2 21  1  0  0  0  0
  3  4  2  0  0  0  0
  3  7  1  0  0  0  0
  4  5  1  0  0  0  0
  5  6  2  0  0  0  0
  5 20  1  0  0  0  0
  6  1  1  0  0  0  0
  6 22  1  0  0  0  0
  7  8  1  0  0  0  0
  8  9  2  0  0  0  0
  8 23  1  0  0  0  0
  9 10  1  0  0  0  0
  9 12  1  0  0  0  0
 10  4  1  0  0  0  0
 10 11  2  0  0  0  0
 12 13  2  0  0  0  0
 13 14  1  0  0  0  0
 13 24  1  0  0  0  0
 14 15  2  0  0  0  0
 14 25  1  0  0  0  0
 15 16  1  0  0  0  0
 15 18  1  0  0  0  0
 16 17  2  0  0  0  0
 16 26  1  0  0  0  0
 17 12  1  0  0  0  0
 17 27  1  0  0  0  0
 18 28  1  0  0  0  0
 19 29  1  0  0  0  0
 20 30  1  0  0  0  0
M  END
>  <Mol_ID>
212

>  <Formula>
C15H10O5

>  <MolWeight>
270.2369

>  <Cat>
S1342

>  <Name>
Genistein (NPI 031L)

>  <Synonyms>
NPI 031L

>  <Target>
EGFR,Topoisomerase

>  <Form>
free base

>  <CAS>
446-72-0

>  <URL>
http://selleckchem.com/products/Genistein.html

$$$$
