Genz-123346 free base
 OpenBabel08302520403D

 68 70  0  0  0  0  0  0  0  0999 V2000
    1.5482    4.4572   -0.5123 C   0  0  0  0  0  0  0  0  0  0  0  0
    2.6096    4.0479    0.4864 C   0  0  0  0  0  0  0  0  0  0  0  0
    4.0435    4.1188   -0.0478 C   0  0  0  0  0  0  0  0  0  0  0  0
    4.5680    5.5151   -0.3239 C   0  0  0  0  0  0  0  0  0  0  0  0
    4.6588    6.3509    0.9344 C   0  0  0  0  0  0  0  0  0  0  0  0
    5.5161    5.6546    1.9869 C   0  0  0  0  0  0  0  0  0  0  0  0
    5.5494    6.4609    3.2652 C   0  0  0  0  0  0  0  0  0  0  0  0
    6.4229    5.7638    4.2989 C   0  0  0  0  0  0  0  0  0  0  0  0
    6.4637    6.5802    5.5731 C   0  0  0  0  0  0  0  0  0  0  0  0
    1.1125    5.6077   -0.5237 O   0  0  0  0  0  0  0  0  0  0  0  0
    1.0548    3.5611   -1.4101 N   0  0  0  0  0  0  0  0  0  0  0  0
    2.7871    1.7577   -1.6864 C   0  0  2  0  0  0  0  0  0  0  0  0
    1.2803    2.1087   -1.5992 C   0  0  1  0  0  0  0  0  0  0  0  0
    0.5186    1.2561   -0.5527 C   0  0  0  0  0  0  0  0  0  0  0  0
   -0.9434    1.4677   -0.5862 N   0  0  0  0  0  0  0  0  0  0  0  0
   -1.6336    0.7334    0.4855 C   0  0  0  0  0  0  0  0  0  0  0  0
   -2.0177   -0.6072   -0.1115 C   0  0  0  0  0  0  0  0  0  0  0  0
   -2.2440   -0.3143   -1.5804 C   0  0  0  0  0  0  0  0  0  0  0  0
   -1.5748    1.0264   -1.8379 C   0  0  0  0  0  0  0  0  0  0  0  0
    3.3886    2.6221   -2.6688 O   0  0  0  0  0  0  0  0  0  0  0  0
    5.3643   -2.7667   -3.7426 O   0  0  0  0  0  0  0  0  0  0  0  0
    2.8196   -1.8661   -4.8095 O   0  0  0  0  0  0  0  0  0  0  0  0
    3.5635   -2.9436   -5.3724 C   0  0  0  0  0  0  0  0  0  0  0  0
    5.0635   -2.8264   -5.1392 C   0  0  0  0  0  0  0  0  0  0  0  0
    4.6272   -1.7669   -3.1664 C   0  0  0  0  0  0  0  0  0  0  0  0
    3.3915   -1.3565   -3.6779 C   0  0  0  0  0  0  0  0  0  0  0  0
    2.7019   -0.3024   -3.1037 C   0  0  0  0  0  0  0  0  0  0  0  0
    3.2946    0.4044   -2.0650 C   0  0  0  0  0  0  0  0  0  0  0  0
    4.5359   -0.0197   -1.5405 C   0  0  0  0  0  0  0  0  0  0  0  0
    5.1891   -1.1250   -2.0683 C   0  0  0  0  0  0  0  0  0  0  0  0
    2.4908    4.6715    1.3785 H   0  0  0  0  0  0  0  0  0  0  0  0
    2.3919    3.0392    0.8480 H   0  0  0  0  0  0  0  0  0  0  0  0
    4.6976    3.5589    0.6295 H   0  0  0  0  0  0  0  0  0  0  0  0
    4.1827    3.6205   -0.9917 H   0  0  0  0  0  0  0  0  0  0  0  0
    5.5649    5.4241   -0.7756 H   0  0  0  0  0  0  0  0  0  0  0  0
    3.9369    6.0098   -1.0706 H   0  0  0  0  0  0  0  0  0  0  0  0
    5.0884    7.3250    0.6802 H   0  0  0  0  0  0  0  0  0  0  0  0
    3.6541    6.5418    1.3267 H   0  0  0  0  0  0  0  0  0  0  0  0
    5.1138    4.6686    2.2421 H   0  0  0  0  0  0  0  0  0  0  0  0
    6.5279    5.4957    1.5938 H   0  0  0  0  0  0  0  0  0  0  0  0
    5.9272    7.4671    3.0564 H   0  0  0  0  0  0  0  0  0  0  0  0
    4.5275    6.5624    3.6515 H   0  0  0  0  0  0  0  0  0  0  0  0
    6.0298    4.7621    4.5136 H   0  0  0  0  0  0  0  0  0  0  0  0
    7.4383    5.6341    3.9062 H   0  0  0  0  0  0  0  0  0  0  0  0
    5.4579    6.6906    5.9910 H   0  0  0  0  0  0  0  0  0  0  0  0
    7.0975    6.0924    6.3173 H   0  0  0  0  0  0  0  0  0  0  0  0
    6.8647    7.5790    5.3746 H   0  0  0  0  0  0  0  0  0  0  0  0
    0.2875    3.9585   -1.9372 H   0  0  0  0  0  0  0  0  0  0  0  0
    3.2171    1.9333   -0.7065 H   0  0  0  0  0  0  0  0  0  0  0  0
    0.8719    1.9303   -2.5967 H   0  0  0  0  0  0  0  0  0  0  0  0
    0.7586    0.1944   -0.6752 H   0  0  0  0  0  0  0  0  0  0  0  0
    0.8693    1.5468    0.4453 H   0  0  0  0  0  0  0  0  0  0  0  0
   -2.5395    1.2870    0.7608 H   0  0  0  0  0  0  0  0  0  0  0  0
   -1.0396    0.6208    1.3994 H   0  0  0  0  0  0  0  0  0  0  0  0
   -1.2018   -1.3300    0.0034 H   0  0  0  0  0  0  0  0  0  0  0  0
   -2.9117   -1.0293    0.3583 H   0  0  0  0  0  0  0  0  0  0  0  0
   -1.8134   -1.1054   -2.2036 H   0  0  0  0  0  0  0  0  0  0  0  0
   -3.3139   -0.2508   -1.8071 H   0  0  0  0  0  0  0  0  0  0  0  0
   -0.8926    0.9424   -2.6876 H   0  0  0  0  0  0  0  0  0  0  0  0
   -2.3292    1.7682   -2.1242 H   0  0  0  0  0  0  0  0  0  0  0  0
    3.0364    2.3852   -3.5420 H   0  0  0  0  0  0  0  0  0  0  0  0
    3.3620   -2.9342   -6.4476 H   0  0  0  0  0  0  0  0  0  0  0  0
    3.1677   -3.8728   -4.9524 H   0  0  0  0  0  0  0  0  0  0  0  0
    5.5709   -3.7038   -5.5495 H   0  0  0  0  0  0  0  0  0  0  0  0
    5.4795   -1.9350   -5.6267 H   0  0  0  0  0  0  0  0  0  0  0  0
    1.7652    0.0210   -3.5474 H   0  0  0  0  0  0  0  0  0  0  0  0
    5.0381    0.5722   -0.7717 H   0  0  0  0  0  0  0  0  0  0  0  0
    6.1663   -1.4157   -1.6911 H   0  0  0  0  0  0  0  0  0  0  0  0
  1  2  1  0  0  0  0
  2  3  1  0  0  0  0
  2 31  1  0  0  0  0
  2 32  1  0  0  0  0
  3  4  1  0  0  0  0
  3 33  1  0  0  0  0
  3 34  1  0  0  0  0
  4  5  1  0  0  0  0
  4 35  1  0  0  0  0
  4 36  1  0  0  0  0
  5  6  1  0  0  0  0
  5 37  1  0  0  0  0
  5 38  1  0  0  0  0
  6  7  1  0  0  0  0
  6 39  1  0  0  0  0
  6 40  1  0  0  0  0
  7  8  1  0  0  0  0
  7 41  1  0  0  0  0
  7 42  1  0  0  0  0
  8  9  1  0  0  0  0
  8 43  1  0  0  0  0
  8 44  1  0  0  0  0
  9 45  1  0  0  0  0
  9 46  1  0  0  0  0
  9 47  1  0  0  0  0
 10  1  2  0  0  0  0
 11  1  1  0  0  0  0
 11 48  1  0  0  0  0
 12 28  1  0  0  0  0
 12 49  1  1  0  0  0
 12 20  1  0  0  0  0
 12 13  1  0  0  0  0
 13 14  1  0  0  0  0
 13 11  1  0  0  0  0
 13 50  1  6  0  0  0
 14 15  1  0  0  0  0
 14 51  1  0  0  0  0
 14 52  1  0  0  0  0
 15 16  1  0  0  0  0
 15 19  1  0  0  0  0
 16 17  1  0  0  0  0
 16 53  1  0  0  0  0
 16 54  1  0  0  0  0
 17 18  1  0  0  0  0
 17 55  1  0  0  0  0
 17 56  1  0  0  0  0
 18 19  1  0  0  0  0
 18 57  1  0  0  0  0
 18 58  1  0  0  0  0
 19 59  1  0  0  0  0
 19 60  1  0  0  0  0
 20 61  1  0  0  0  0
 21 25  1  0  0  0  0
 21 24  1  0  0  0  0
 22 23  1  0  0  0  0
 23 24  1  0  0  0  0
 23 62  1  0  0  0  0
 23 63  1  0  0  0  0
 24 64  1  0  0  0  0
 24 65  1  0  0  0  0
 25 26  2  0  0  0  0
 25 30  1  0  0  0  0
 26 22  1  0  0  0  0
 26 27  1  0  0  0  0
 27 28  2  0  0  0  0
 27 66  1  0  0  0  0
 28 29  1  0  0  0  0
 29 30  2  0  0  0  0
 29 67  1  0  0  0  0
 30 68  1  0  0  0  0
M  END
>  <Mol_ID>
3799

>  <Formula>
C24H38N2O4

>  <MolWeight>
418.56952

>  <Cat>
S6496

>  <Name>
Genz-123346 free base

>  <Synonyms>
N/A

>  <Target>
Prostaglandin Receptor

>  <Form>
free base

>  <CAS>
491833-30-8

>  <URL>
http://www.selleck.cn/products/genz-123346-free-base.html

$$$$
