Gestodene.cdx
 OpenBabel08302519563D

 49 52  0  0  0  0  0  0  0  0999 V2000
    2.8181   -1.8365   -0.9033 C   0  0  0  0  0  0  0  0  0  0  0  0
    4.0518   -1.2333   -0.3064 C   0  0  0  0  0  0  0  0  0  0  0  0
    4.1850    0.2214   -0.5281 C   0  0  0  0  0  0  0  0  0  0  0  0
    3.0706    0.9477   -0.3282 C   0  0  0  0  0  0  0  0  0  0  0  0
    1.8115    0.2873    0.2130 C   0  0  2  0  0  0  0  0  0  0  0  0
    1.6057   -1.1921   -0.2558 C   0  0  0  0  0  0  0  0  0  0  0  0
    3.0971    2.4495   -0.4436 C   0  0  0  0  0  0  0  0  0  0  0  0
    1.8002    3.0177   -1.0212 C   0  0  0  0  0  0  0  0  0  0  0  0
    0.6216    2.5999   -0.1434 C   0  0  2  0  0  0  0  0  0  0  0  0
    0.5042    1.0561   -0.0454 C   0  0  2  0  0  0  0  0  0  0  0  0
   -0.7522    3.0406   -0.6810 C   0  0  1  0  0  0  0  0  0  0  0  0
   -1.8998    2.7662    0.3548 C   0  0  2  0  0  0  0  0  0  0  0  0
   -1.9420    1.2538    0.6710 C   0  0  0  0  0  0  0  0  0  0  0  0
   -0.5618    0.6812    1.0143 C   0  0  0  0  0  0  0  0  0  0  0  0
    4.8848   -1.8632    0.3329 O   0  0  0  0  0  0  0  0  0  0  0  0
   -1.1187    4.4087   -1.1663 C   0  0  0  0  0  0  0  0  0  0  0  0
   -2.4599    4.5374   -1.1019 C   0  0  0  0  0  0  0  0  0  0  0  0
   -3.1154    3.3279   -0.4575 C   0  0  2  0  0  0  0  0  0  0  0  0
   -4.1939    3.6903    0.3699 O   0  0  0  0  0  0  0  0  0  0  0  0
   -3.6124    2.4280   -1.5240 C   0  0  0  0  0  0  0  0  0  0  0  0
   -3.9548    1.6680   -2.3859 C   0  0  0  0  0  0  0  0  0  0  0  0
   -1.6421    3.6083    1.6807 C   0  0  0  0  0  0  0  0  0  0  0  0
   -2.6129    3.4617    2.8459 C   0  0  0  0  0  0  0  0  0  0  0  0
    2.8320   -1.6343   -1.9830 H   0  0  0  0  0  0  0  0  0  0  0  0
    2.8105   -2.9233   -0.7821 H   0  0  0  0  0  0  0  0  0  0  0  0
    5.1589    0.6179   -0.7765 H   0  0  0  0  0  0  0  0  0  0  0  0
    1.9619    0.2607    1.3027 H   0  0  0  0  0  0  0  0  0  0  0  0
    0.7754   -1.2792   -0.9697 H   0  0  0  0  0  0  0  0  0  0  0  0
    1.3001   -1.7897    0.6123 H   0  0  0  0  0  0  0  0  0  0  0  0
    3.2590    2.8680    0.5585 H   0  0  0  0  0  0  0  0  0  0  0  0
    3.9386    2.7815   -1.0640 H   0  0  0  0  0  0  0  0  0  0  0  0
    1.6622    2.6883   -2.0565 H   0  0  0  0  0  0  0  0  0  0  0  0
    1.8736    4.1123   -1.0348 H   0  0  0  0  0  0  0  0  0  0  0  0
    0.8200    3.0147    0.8454 H   0  0  0  0  0  0  0  0  0  0  0  0
    0.1351    0.7083   -1.0219 H   0  0  0  0  0  0  0  0  0  0  0  0
   -0.9071    2.4193   -1.5753 H   0  0  0  0  0  0  0  0  0  0  0  0
   -2.2981    0.6862   -0.1957 H   0  0  0  0  0  0  0  0  0  0  0  0
   -2.6474    1.0345    1.4783 H   0  0  0  0  0  0  0  0  0  0  0  0
   -0.6523   -0.4085    1.0951 H   0  0  0  0  0  0  0  0  0  0  0  0
   -0.2416    1.0376    2.0009 H   0  0  0  0  0  0  0  0  0  0  0  0
   -0.4484    5.1100   -1.6403 H   0  0  0  0  0  0  0  0  0  0  0  0
   -3.0147    5.3762   -1.4933 H   0  0  0  0  0  0  0  0  0  0  0  0
   -4.5915    4.4950    0.0053 H   0  0  0  0  0  0  0  0  0  0  0  0
   -4.2153    0.9636   -3.1463 H   0  0  0  0  0  0  0  0  0  0  0  0
   -1.5896    4.6775    1.4388 H   0  0  0  0  0  0  0  0  0  0  0  0
   -0.6609    3.3657    2.0979 H   0  0  0  0  0  0  0  0  0  0  0  0
   -3.6388    3.7262    2.5919 H   0  0  0  0  0  0  0  0  0  0  0  0
   -2.3075    4.1473    3.6460 H   0  0  0  0  0  0  0  0  0  0  0  0
   -2.5973    2.4520    3.2615 H   0  0  0  0  0  0  0  0  0  0  0  0
  1  2  1  0  0  0  0
  1 24  1  0  0  0  0
  1 25  1  0  0  0  0
  2  3  1  0  0  0  0
  2 15  2  0  0  0  0
  3  4  2  0  0  0  0
  3 26  1  0  0  0  0
  4  5  1  0  0  0  0
  4  7  1  0  0  0  0
  5  6  1  0  0  0  0
  5 27  1  1  0  0  0
  6  1  1  0  0  0  0
  6 28  1  0  0  0  0
  6 29  1  0  0  0  0
  7  8  1  0  0  0  0
  7 30  1  0  0  0  0
  7 31  1  0  0  0  0
  8 32  1  0  0  0  0
  8 33  1  0  0  0  0
  9  8  1  0  0  0  0
  9 10  1  0  0  0  0
  9 11  1  0  0  0  0
  9 34  1  1  0  0  0
 10  5  1  0  0  0  0
 10 14  1  0  0  0  0
 10 35  1  6  0  0  0
 11 12  1  0  0  0  0
 11 16  1  0  0  0  0
 11 36  1  6  0  0  0
 12 13  1  0  0  0  0
 12 22  1  1  0  0  0
 13 14  1  0  0  0  0
 13 37  1  0  0  0  0
 13 38  1  0  0  0  0
 14 39  1  0  0  0  0
 14 40  1  0  0  0  0
 16 17  2  0  0  0  0
 16 41  1  0  0  0  0
 17 18  1  0  0  0  0
 17 42  1  0  0  0  0
 18 12  1  0  0  0  0
 18 19  1  0  0  0  0
 18 20  1  6  0  0  0
 19 43  1  0  0  0  0
 20 21  3  0  0  0  0
 21 44  1  0  0  0  0
 22 23  1  0  0  0  0
 22 45  1  0  0  0  0
 22 46  1  0  0  0  0
 23 47  1  0  0  0  0
 23 48  1  0  0  0  0
 23 49  1  0  0  0  0
M  END
>  <Mol_ID>
226

>  <Formula>
C21H26O2

>  <MolWeight>
310.42994

>  <Cat>
S1376

>  <Name>
Gestodene

>  <Synonyms>
SH B 331,WL 70

>  <Target>
Estrogen/progestogen Receptor

>  <Form>
free base

>  <CAS>
60282-87-3

>  <URL>
http://selleckchem.com/products/Gestodene.html

$$$$
