GET-73
 OpenBabel08302521323D

 35 35  0  0  0  0  0  0  0  0999 V2000
    1.2945   -0.0587    0.2732 C   0  0  0  0  0  0  0  0  0  0  0  0
    0.4846   -1.1737   -0.3627 C   0  0  0  0  0  0  0  0  0  0  0  0
   -1.0305   -0.9853   -0.2449 C   0  0  0  0  0  0  0  0  0  0  0  0
   -1.5944    0.2324   -0.9744 C   0  0  0  0  0  0  0  0  0  0  0  0
    0.7785    0.9008    0.8490 O   0  0  0  0  0  0  0  0  0  0  0  0
    2.6534   -0.1256    0.2136 N   0  0  0  0  0  0  0  0  0  0  0  0
    3.4930   -1.2061   -0.2591 C   0  0  0  0  0  0  0  0  0  0  0  0
    4.3950   -0.7579   -1.3815 C   0  0  0  0  0  0  0  0  0  0  0  0
    5.7909   -0.8157   -1.2531 C   0  0  0  0  0  0  0  0  0  0  0  0
    6.6179   -0.4457   -2.3190 C   0  0  0  0  0  0  0  0  0  0  0  0
    6.0665   -0.0103   -3.5324 C   0  0  0  0  0  0  0  0  0  0  0  0
    4.6718    0.0610   -3.6524 C   0  0  0  0  0  0  0  0  0  0  0  0
    3.8464   -0.3096   -2.5892 C   0  0  0  0  0  0  0  0  0  0  0  0
    6.9387    0.3669   -4.7045 C   0  0  0  0  0  0  0  0  0  0  0  0
    8.2727    0.2475   -4.4548 F   0  0  0  0  0  0  0  0  0  0  0  0
    6.6961   -0.4044   -5.8014 F   0  0  0  0  0  0  0  0  0  0  0  0
    6.7482    1.6545   -5.1048 F   0  0  0  0  0  0  0  0  0  0  0  0
   -1.3362    0.1353   -2.3747 O   0  0  0  0  0  0  0  0  0  0  0  0
   -1.8025    1.2942   -3.0613 C   0  0  0  0  0  0  0  0  0  0  0  0
    0.7731   -1.2745   -1.4149 H   0  0  0  0  0  0  0  0  0  0  0  0
    0.7448   -2.1036    0.1545 H   0  0  0  0  0  0  0  0  0  0  0  0
   -1.5060   -1.8852   -0.6552 H   0  0  0  0  0  0  0  0  0  0  0  0
   -1.3125   -0.9240    0.8132 H   0  0  0  0  0  0  0  0  0  0  0  0
   -2.6810    0.2497   -0.8248 H   0  0  0  0  0  0  0  0  0  0  0  0
   -1.1860    1.1685   -0.5829 H   0  0  0  0  0  0  0  0  0  0  0  0
    3.1153    0.6689    0.6392 H   0  0  0  0  0  0  0  0  0  0  0  0
    4.0872   -1.5309    0.6029 H   0  0  0  0  0  0  0  0  0  0  0  0
    2.9027   -2.0661   -0.5864 H   0  0  0  0  0  0  0  0  0  0  0  0
    6.2482   -1.1584   -0.3265 H   0  0  0  0  0  0  0  0  0  0  0  0
    7.6990   -0.5071   -2.1983 H   0  0  0  0  0  0  0  0  0  0  0  0
    4.2187    0.4005   -4.5836 H   0  0  0  0  0  0  0  0  0  0  0  0
    2.7663   -0.2512   -2.7118 H   0  0  0  0  0  0  0  0  0  0  0  0
   -2.7778    1.6205   -2.6841 H   0  0  0  0  0  0  0  0  0  0  0  0
   -1.0750    2.1048   -2.9567 H   0  0  0  0  0  0  0  0  0  0  0  0
   -1.9067    1.0505   -4.1218 H   0  0  0  0  0  0  0  0  0  0  0  0
  1  2  1  0  0  0  0
  1  5  2  0  0  0  0
  1  6  1  0  0  0  0
  2  3  1  0  0  0  0
  2 20  1  0  0  0  0
  2 21  1  0  0  0  0
  3  4  1  0  0  0  0
  3 22  1  0  0  0  0
  3 23  1  0  0  0  0
  4 18  1  0  0  0  0
  4 24  1  0  0  0  0
  4 25  1  0  0  0  0
  6  7  1  0  0  0  0
  6 26  1  0  0  0  0
  7  8  1  0  0  0  0
  7 27  1  0  0  0  0
  7 28  1  0  0  0  0
  8  9  2  0  0  0  0
  8 13  1  0  0  0  0
  9 10  1  0  0  0  0
  9 29  1  0  0  0  0
 10 11  2  0  0  0  0
 10 30  1  0  0  0  0
 11 12  1  0  0  0  0
 11 14  1  0  0  0  0
 12 13  2  0  0  0  0
 12 31  1  0  0  0  0
 13 32  1  0  0  0  0
 14 15  1  0  0  0  0
 14 16  1  0  0  0  0
 14 17  1  0  0  0  0
 18 19  1  0  0  0  0
 19 33  1  0  0  0  0
 19 34  1  0  0  0  0
 19 35  1  0  0  0  0
M  END
>  <Mol_ID>
6140

>  <Formula>
C13H16F3NO2

>  <MolWeight>
275.2668496

>  <Cat>
S0026

>  <Name>
GET-73

>  <Synonyms>
Gamma hydroxybutyric acid analogue, GET 73, GHB analogue

>  <Target>
Others

>  <Form>
free base

>  <CAS>
202402-01-5

>  <URL>
http://www.selleckchem.com/products/get-73.html

$$$$
