GF 109203X(G 6850).cdx
 OpenBabel08302519583D

 55 59  0  0  0  0  0  0  0  0999 V2000
    1.7953    2.0703   -0.1015 C   0  0  0  0  0  0  0  0  0  0  0  0
    2.4694    3.2791   -0.2694 C   0  0  0  0  0  0  0  0  0  0  0  0
    3.8837    3.4589   -0.4295 C   0  0  0  0  0  0  0  0  0  0  0  0
    4.6304    2.2623   -0.3170 C   0  0  0  0  0  0  0  0  0  0  0  0
    3.9576    1.0198   -0.1865 C   0  0  0  0  0  0  0  0  0  0  0  0
    2.5665    0.9204   -0.0816 C   0  0  0  0  0  0  0  0  0  0  0  0
    1.9733    4.5686   -0.1739 N   0  0  0  0  0  0  0  0  0  0  0  0
    2.7717    5.1888   -1.1495 C   0  0  0  0  0  0  0  0  0  0  0  0
    4.0507    4.9164   -0.6126 C   0  0  0  0  0  0  0  0  0  0  0  0
    4.9372    6.0481   -0.3456 C   0  0  0  0  0  0  0  0  0  0  0  0
    4.3151    7.4386   -0.3626 C   0  0  0  0  0  0  0  0  0  0  0  0
    1.8126    5.1554    1.1629 C   0  0  0  0  0  0  0  0  0  0  0  0
    0.4566    5.2224    1.8632 C   0  0  0  0  0  0  0  0  0  0  0  0
   -0.4129    3.9996    2.2310 C   0  0  0  0  0  0  0  0  0  0  0  0
   -0.3090    3.2846    3.5235 N   0  0  0  0  0  0  0  0  0  0  0  0
    3.1802    7.7813   -0.7085 O   0  0  0  0  0  0  0  0  0  0  0  0
    5.1862    8.3426    0.0717 N   0  0  0  0  0  0  0  0  0  0  0  0
   -1.5546    2.5118    3.7232 C   0  0  0  0  0  0  0  0  0  0  0  0
    0.8215    2.3669    3.6653 C   0  0  0  0  0  0  0  0  0  0  0  0
   10.7613    6.6913   -1.4351 C   0  0  0  0  0  0  0  0  0  0  0  0
   11.3433    5.4296   -1.4537 C   0  0  0  0  0  0  0  0  0  0  0  0
   10.6975    4.3429   -0.8658 C   0  0  0  0  0  0  0  0  0  0  0  0
    9.4279    4.5528   -0.3134 C   0  0  0  0  0  0  0  0  0  0  0  0
    8.7415    5.7622   -0.3976 C   0  0  0  0  0  0  0  0  0  0  0  0
    9.4667    6.8712   -0.9178 C   0  0  0  0  0  0  0  0  0  0  0  0
    8.6269    3.6945    0.3858 N   0  0  0  0  0  0  0  0  0  0  0  0
    7.4134    4.2645    0.6686 C   0  0  0  0  0  0  0  0  0  0  0  0
    7.3926    5.4878    0.0638 C   0  0  0  0  0  0  0  0  0  0  0  0
    6.2312    6.3055   -0.0268 C   0  0  0  0  0  0  0  0  0  0  0  0
    6.3637    7.7572    0.3113 C   0  0  0  0  0  0  0  0  0  0  0  0
    7.3389    8.3368    0.7656 O   0  0  0  0  0  0  0  0  0  0  0  0
    0.7232    2.0366   -0.0003 H   0  0  0  0  0  0  0  0  0  0  0  0
    5.7069    2.2548   -0.4281 H   0  0  0  0  0  0  0  0  0  0  0  0
    4.5243    0.0847   -0.1804 H   0  0  0  0  0  0  0  0  0  0  0  0
    2.0694   -0.0418    0.0163 H   0  0  0  0  0  0  0  0  0  0  0  0
    2.4749    5.0152   -2.1808 H   0  0  0  0  0  0  0  0  0  0  0  0
    2.5779    4.7353    1.8234 H   0  0  0  0  0  0  0  0  0  0  0  0
    2.0839    6.2138    1.0178 H   0  0  0  0  0  0  0  0  0  0  0  0
    0.6120    5.8046    2.7796 H   0  0  0  0  0  0  0  0  0  0  0  0
   -0.1773    5.8525    1.2212 H   0  0  0  0  0  0  0  0  0  0  0  0
   -1.3972    4.4877    2.3133 H   0  0  0  0  0  0  0  0  0  0  0  0
   -0.5113    3.3106    1.3883 H   0  0  0  0  0  0  0  0  0  0  0  0
    4.9960    9.3264    0.1896 H   0  0  0  0  0  0  0  0  0  0  0  0
   -1.7100    1.7745    2.9256 H   0  0  0  0  0  0  0  0  0  0  0  0
   -1.5542    1.9815    4.6829 H   0  0  0  0  0  0  0  0  0  0  0  0
   -2.4234    3.1795    3.7490 H   0  0  0  0  0  0  0  0  0  0  0  0
    0.9375    1.6899    2.8139 H   0  0  0  0  0  0  0  0  0  0  0  0
    1.7544    2.9081    3.8414 H   0  0  0  0  0  0  0  0  0  0  0  0
    0.6832    1.7301    4.5548 H   0  0  0  0  0  0  0  0  0  0  0  0
   11.3083    7.5423   -1.8384 H   0  0  0  0  0  0  0  0  0  0  0  0
   12.3204    5.2917   -1.9197 H   0  0  0  0  0  0  0  0  0  0  0  0
   11.1688    3.3642   -0.8514 H   0  0  0  0  0  0  0  0  0  0  0  0
    9.0517    7.8759   -0.9139 H   0  0  0  0  0  0  0  0  0  0  0  0
    8.9020    2.7543    0.6705 H   0  0  0  0  0  0  0  0  0  0  0  0
    6.6682    3.7287    1.2451 H   0  0  0  0  0  0  0  0  0  0  0  0
  1  2  2  0  0  0  0
  1 32  1  0  0  0  0
  2  3  1  0  0  0  0
  2  7  1  0  0  0  0
  3  4  2  0  0  0  0
  4  5  1  0  0  0  0
  4 33  1  0  0  0  0
  5  6  2  0  0  0  0
  5 34  1  0  0  0  0
  6  1  1  0  0  0  0
  6 35  1  0  0  0  0
  7  8  1  0  0  0  0
  7 12  1  0  0  0  0
  8  9  2  0  0  0  0
  8 36  1  0  0  0  0
  9  3  1  0  0  0  0
  9 10  1  0  0  0  0
 10 11  1  0  0  0  0
 10 29  2  0  0  0  0
 11 16  2  0  0  0  0
 11 17  1  0  0  0  0
 12 13  1  0  0  0  0
 12 37  1  0  0  0  0
 12 38  1  0  0  0  0
 13 14  1  0  0  0  0
 13 39  1  0  0  0  0
 13 40  1  0  0  0  0
 14 15  1  0  0  0  0
 14 41  1  0  0  0  0
 14 42  1  0  0  0  0
 15 18  1  0  0  0  0
 15 19  1  0  0  0  0
 17 30  1  0  0  0  0
 17 43  1  0  0  0  0
 18 44  1  0  0  0  0
 18 45  1  0  0  0  0
 18 46  1  0  0  0  0
 19 47  1  0  0  0  0
 19 48  1  0  0  0  0
 19 49  1  0  0  0  0
 20 21  2  0  0  0  0
 20 50  1  0  0  0  0
 21 22  1  0  0  0  0
 21 51  1  0  0  0  0
 22 23  2  0  0  0  0
 22 52  1  0  0  0  0
 23 24  1  0  0  0  0
 23 26  1  0  0  0  0
 24 25  2  0  0  0  0
 25 20  1  0  0  0  0
 25 53  1  0  0  0  0
 26 27  1  0  0  0  0
 26 54  1  0  0  0  0
 27 28  2  0  0  0  0
 27 55  1  0  0  0  0
 28 24  1  0  0  0  0
 28 29  1  0  0  0  0
 29 30  1  0  0  0  0
 30 31  2  0  0  0  0
M  END
>  <Mol_ID>
2492

>  <Formula>
C25H24N4O2

>  <MolWeight>
412.48366

>  <Cat>
S7208

>  <Name>
Bisindolylmaleimide I (GF109203X)

>  <Synonyms>
GO 6850

>  <Target>
PKC

>  <Form>
free base

>  <CAS>
133052-90-1

>  <URL>
http://selleckchem.com/products/gf109203x.html

$$$$
