GFB-8438
 OpenBabel08302521263D

 40 42  0  0  0  0  0  0  0  0999 V2000
    3.2869   -0.9360   -0.4993 F   0  0  0  0  0  0  0  0  0  0  0  0
    4.2102    0.9846   -0.8777 F   0  0  0  0  0  0  0  0  0  0  0  0
    2.0465    0.7859   -0.9017 F   0  0  0  0  0  0  0  0  0  0  0  0
    5.0417   -1.9372    4.4521 O   0  0  0  0  0  0  0  0  0  0  0  0
   11.5666   -4.9661    3.7538 O   0  0  0  0  0  0  0  0  0  0  0  0
    4.9031   -1.9189    2.1426 N   0  0  0  0  0  0  0  0  0  0  0  0
    7.5992   -2.8794    2.0678 N   0  0  0  0  0  0  0  0  0  0  0  0
    9.4690   -5.9334    1.0646 N   0  0  0  0  0  0  0  0  0  0  0  0
   10.4811   -5.8963    1.9739 N   0  0  0  0  0  0  0  0  0  0  0  0
    5.4456   -2.6081    0.9724 C   0  0  0  0  0  0  0  0  0  0  0  0
    6.9542   -2.4107    0.8361 C   0  0  0  0  0  0  0  0  0  0  0  0
    7.1303   -2.1597    3.2725 C   0  0  0  0  0  0  0  0  0  0  0  0
    3.4728   -1.6289    2.1779 C   0  0  0  0  0  0  0  0  0  0  0  0
    5.5957   -2.0321    3.3551 C   0  0  0  0  0  0  0  0  0  0  0  0
    3.2176   -0.1360    2.3165 C   0  0  0  0  0  0  0  0  0  0  0  0
    8.6202   -3.8271    2.1077 C   0  0  0  0  0  0  0  0  0  0  0  0
    3.1127    0.7654    1.2328 C   0  0  0  0  0  0  0  0  0  0  0  0
    3.1293    0.3817    3.6279 C   0  0  0  0  0  0  0  0  0  0  0  0
    9.6311   -3.8758    2.9852 C   0  0  0  0  0  0  0  0  0  0  0  0
    8.6107   -4.9684    1.1377 C   0  0  0  0  0  0  0  0  0  0  0  0
    2.9316    2.1424    1.5070 C   0  0  0  0  0  0  0  0  0  0  0  0
    3.1666    0.3898   -0.2314 C   0  0  0  0  0  0  0  0  0  0  0  0
    2.9500    1.7421    3.8737 C   0  0  0  0  0  0  0  0  0  0  0  0
    2.8512    2.6257    2.8111 C   0  0  0  0  0  0  0  0  0  0  0  0
   10.6406   -4.9481    2.9495 C   0  0  0  0  0  0  0  0  0  0  0  0
   11.1568   -6.6530    1.9386 H   0  0  0  0  0  0  0  0  0  0  0  0
    4.9592   -2.2446    0.0671 H   0  0  0  0  0  0  0  0  0  0  0  0
    5.2123   -3.6741    1.0869 H   0  0  0  0  0  0  0  0  0  0  0  0
    7.1807   -1.3455    0.6962 H   0  0  0  0  0  0  0  0  0  0  0  0
    7.3241   -2.9269   -0.0551 H   0  0  0  0  0  0  0  0  0  0  0  0
    7.5508   -1.1476    3.2879 H   0  0  0  0  0  0  0  0  0  0  0  0
    7.4483   -2.6832    4.1814 H   0  0  0  0  0  0  0  0  0  0  0  0
    3.0210   -2.1592    3.0263 H   0  0  0  0  0  0  0  0  0  0  0  0
    2.9730   -2.0421    1.2982 H   0  0  0  0  0  0  0  0  0  0  0  0
    3.2153   -0.2862    4.4855 H   0  0  0  0  0  0  0  0  0  0  0  0
    9.7785   -3.1276    3.7523 H   0  0  0  0  0  0  0  0  0  0  0  0
    7.7623   -4.9940    0.4381 H   0  0  0  0  0  0  0  0  0  0  0  0
    2.8502    2.8523    0.6830 H   0  0  0  0  0  0  0  0  0  0  0  0
    2.8946    2.1045    4.8972 H   0  0  0  0  0  0  0  0  0  0  0  0
    2.7111    3.6877    2.9952 H   0  0  0  0  0  0  0  0  0  0  0  0
  1 22  1  0  0  0  0
  2 22  1  0  0  0  0
  3 22  1  0  0  0  0
  4 14  2  0  0  0  0
  5 25  2  0  0  0  0
  6 10  1  0  0  0  0
  6 13  1  0  0  0  0
  6 14  1  0  0  0  0
  7 11  1  0  0  0  0
  7 12  1  0  0  0  0
  7 16  1  0  0  0  0
  8  9  1  0  0  0  0
  8 20  2  0  0  0  0
  9 25  1  0  0  0  0
  9 26  1  0  0  0  0
 10 11  1  0  0  0  0
 10 27  1  0  0  0  0
 10 28  1  0  0  0  0
 11 29  1  0  0  0  0
 11 30  1  0  0  0  0
 12 14  1  0  0  0  0
 12 31  1  0  0  0  0
 12 32  1  0  0  0  0
 13 15  1  0  0  0  0
 13 33  1  0  0  0  0
 13 34  1  0  0  0  0
 15 17  2  0  0  0  0
 15 18  1  0  0  0  0
 16 19  2  0  0  0  0
 16 20  1  0  0  0  0
 17 21  1  0  0  0  0
 17 22  1  0  0  0  0
 18 23  2  0  0  0  0
 18 35  1  0  0  0  0
 19 25  1  0  0  0  0
 19 36  1  0  0  0  0
 20 37  1  0  0  0  0
 21 24  2  0  0  0  0
 21 38  1  0  0  0  0
 23 24  1  0  0  0  0
 23 39  1  0  0  0  0
 24 40  1  0  0  0  0
M  END
>  <Mol_ID>
5277

>  <Formula>
C16H14ClF3N4O2

>  <MolWeight>
386.7561696

>  <Cat>
S0750

>  <Name>
GFB-8438

>  <Synonyms>
N/A

>  <Target>
TRP Channel

>  <Form>
Free Base

>  <CAS>
2304549-73-1

>  <URL>
https://www.selleckchem.com/products/gfb-8438.html

$$$$
