GI-566974
 OpenBabel08302521423D

 42 44  0  0  0  0  0  0  0  0999 V2000
   -0.2344   -0.2380    0.3540 C   0  0  0  0  0  0  0  0  0  0  0  0
   -0.6218    0.0775   -0.9811 O   0  0  0  0  0  0  0  0  0  0  0  0
   -1.4061   -0.5387    1.1124 O   0  0  0  0  0  0  0  0  0  0  0  0
    0.4966    0.9669    0.9675 C   0  0  0  0  0  0  0  0  0  0  0  0
    0.6903   -1.4549    0.3266 C   0  0  0  0  0  0  0  0  0  0  0  0
   -2.0064    0.4279   -0.9422 C   0  0  3  0  0  0  0  0  0  0  0  0
   -2.4500    0.2114    0.4942 C   0  0  0  0  0  0  0  0  0  0  0  0
    1.7863    1.2855    0.2133 C   0  0  0  0  0  0  0  0  0  0  0  0
    1.9845   -1.1599   -0.4319 C   0  0  0  0  0  0  0  0  0  0  0  0
   -2.2067    1.8875   -1.4018 C   0  0  0  0  0  0  0  0  0  0  0  0
    2.7018    0.0668    0.1277 C   0  0  0  0  0  0  0  0  0  0  0  0
   -1.7157    2.1868   -2.7664 N   0  0  0  0  0  0  0  0  0  0  0  0
   -2.4816    1.4695   -3.7945 C   0  0  0  0  0  0  0  0  0  0  0  0
   -1.7149    3.6394   -2.9971 C   0  0  0  0  0  0  0  0  0  0  0  0
   -1.9939    1.7884   -5.2083 C   0  0  0  0  0  0  0  0  0  0  0  0
   -1.1932    3.9994   -4.3891 C   0  0  0  0  0  0  0  0  0  0  0  0
   -1.9920    3.2872   -5.4709 C   0  0  0  0  0  0  0  0  0  0  0  0
    0.7177    0.7666    2.0234 H   0  0  0  0  0  0  0  0  0  0  0  0
   -0.1441    1.8561    0.9590 H   0  0  0  0  0  0  0  0  0  0  0  0
    0.9199   -1.7730    1.3516 H   0  0  0  0  0  0  0  0  0  0  0  0
    0.1801   -2.3006   -0.1508 H   0  0  0  0  0  0  0  0  0  0  0  0
   -2.5457   -0.2682   -1.5953 H   0  0  0  0  0  0  0  0  0  0  0  0
   -2.5868    1.1460    1.0474 H   0  0  0  0  0  0  0  0  0  0  0  0
   -3.3869   -0.3518    0.5537 H   0  0  0  0  0  0  0  0  0  0  0  0
    2.3114    2.1067    0.7136 H   0  0  0  0  0  0  0  0  0  0  0  0
    1.5460    1.6353   -0.7987 H   0  0  0  0  0  0  0  0  0  0  0  0
    1.7606   -0.9971   -1.4936 H   0  0  0  0  0  0  0  0  0  0  0  0
    2.6482   -2.0301   -0.3795 H   0  0  0  0  0  0  0  0  0  0  0  0
   -3.2644    2.1622   -1.3076 H   0  0  0  0  0  0  0  0  0  0  0  0
   -1.6456    2.5253   -0.7067 H   0  0  0  0  0  0  0  0  0  0  0  0
    3.5694    0.3032   -0.4982 H   0  0  0  0  0  0  0  0  0  0  0  0
    3.0845   -0.1663    1.1290 H   0  0  0  0  0  0  0  0  0  0  0  0
   -3.5491    1.7096   -3.7144 H   0  0  0  0  0  0  0  0  0  0  0  0
   -2.3779    0.3879   -3.6585 H   0  0  0  0  0  0  0  0  0  0  0  0
   -1.0665    4.1292   -2.2594 H   0  0  0  0  0  0  0  0  0  0  0  0
   -2.7240    4.0505   -2.8677 H   0  0  0  0  0  0  0  0  0  0  0  0
   -2.6347    1.2849   -5.9410 H   0  0  0  0  0  0  0  0  0  0  0  0
   -0.9793    1.3918   -5.3443 H   0  0  0  0  0  0  0  0  0  0  0  0
   -0.1346    3.7219   -4.4699 H   0  0  0  0  0  0  0  0  0  0  0  0
   -1.2528    5.0844   -4.5362 H   0  0  0  0  0  0  0  0  0  0  0  0
   -1.5665    3.4987   -6.4570 H   0  0  0  0  0  0  0  0  0  0  0  0
   -3.0234    3.6621   -5.4746 H   0  0  0  0  0  0  0  0  0  0  0  0
  1  2  1  0  0  0  0
  1  3  1  0  0  0  0
  1  4  1  0  0  0  0
  1  5  1  0  0  0  0
  2  6  1  0  0  0  0
  3  7  1  0  0  0  0
  4  8  1  0  0  0  0
  4 18  1  0  0  0  0
  4 19  1  0  0  0  0
  5  9  1  0  0  0  0
  5 20  1  0  0  0  0
  5 21  1  0  0  0  0
  6 10  1  0  0  0  0
  6  7  1  0  0  0  0
  6 22  1  0  0  0  0
  7 23  1  0  0  0  0
  7 24  1  0  0  0  0
  8 11  1  0  0  0  0
  8 25  1  0  0  0  0
  8 26  1  0  0  0  0
  9 11  1  0  0  0  0
  9 27  1  0  0  0  0
  9 28  1  0  0  0  0
 10 12  1  0  0  0  0
 10 29  1  0  0  0  0
 10 30  1  0  0  0  0
 11 31  1  0  0  0  0
 11 32  1  0  0  0  0
 12 13  1  0  0  0  0
 12 14  1  0  0  0  0
 13 15  1  0  0  0  0
 13 33  1  0  0  0  0
 13 34  1  0  0  0  0
 14 16  1  0  0  0  0
 14 35  1  0  0  0  0
 14 36  1  0  0  0  0
 15 17  1  0  0  0  0
 15 37  1  0  0  0  0
 15 38  1  0  0  0  0
 16 17  1  0  0  0  0
 16 39  1  0  0  0  0
 16 40  1  0  0  0  0
 17 41  1  0  0  0  0
 17 42  1  0  0  0  0
M  END
>  <Mol_ID>
8561

>  <Formula>
C14H25NO2

>  <MolWeight>
239.3538

>  <Cat>
P2033

>  <Name>
GI-566974

>  <Synonyms>
N/A

>  <Target>
others

>  <Form>
free base

>  <CAS>
853695-84-8

>  <URL>
N/A

$$$$
