GI-568595
 OpenBabel08302521423D

 49 52  0  0  0  0  0  0  0  0999 V2000
   -0.8064   -1.2222   -0.3080 C   0  0  3  0  0  0  0  0  0  0  0  0
   -1.2315   -1.9048    0.9395 N   0  0  0  0  0  0  0  0  0  0  0  0
    0.7159   -1.1128   -0.4440 C   0  0  0  0  0  0  0  0  0  0  0  0
   -1.1534   -2.0285   -1.5546 C   0  0  0  0  0  0  0  0  0  0  0  0
   -2.7113   -1.9831    1.0978 C   0  0  0  0  0  0  0  0  0  0  0  0
   -0.6422   -1.3714    2.1962 C   0  0  0  0  0  0  0  0  0  0  0  0
    1.1792   -2.0718   -1.3252 N   0  0  0  0  0  0  0  0  0  0  0  0
    1.3521   -0.2346    0.1233 O   0  0  0  0  0  0  0  0  0  0  0  0
    0.1350   -2.6462   -2.0046 C   0  0  0  0  0  0  0  0  0  0  0  0
   -3.4259   -0.7559    1.7175 C   0  0  0  0  0  0  0  0  0  0  0  0
   -1.3016   -0.1011    2.7635 C   0  0  0  0  0  0  0  0  0  0  0  0
    2.5637   -2.3630   -1.5544 C   0  0  0  0  0  0  0  0  0  0  0  0
    0.1573   -3.4996   -2.8816 O   0  0  0  0  0  0  0  0  0  0  0  0
   -2.7543   -0.3131    2.9616 N   0  0  0  0  0  0  0  0  0  0  0  0
    3.5564   -1.9738   -0.6354 C   0  0  0  0  0  0  0  0  0  0  0  0
    2.9976   -3.0716   -2.6882 C   0  0  0  0  0  0  0  0  0  0  0  0
   -3.2824   -0.9823    4.4308 S   0  0  0  0  0  0  0  0  0  0  0  0
    4.9092   -2.2787   -0.8416 C   0  0  0  0  0  0  0  0  0  0  0  0
    4.3503   -3.3727   -2.9003 C   0  0  0  0  0  0  0  0  0  0  0  0
   -4.5064    0.2193    4.9181 C   0  0  0  0  0  0  0  0  0  0  0  0
   -3.9683   -2.2270    4.1545 O   0  0  0  0  0  0  0  0  0  0  0  0
   -2.2059   -0.9116    5.3968 O   0  0  0  0  0  0  0  0  0  0  0  0
    5.3075   -2.9768   -1.9745 C   0  0  0  0  0  0  0  0  0  0  0  0
   -5.8421    0.0535    4.5407 C   0  0  0  0  0  0  0  0  0  0  0  0
   -4.1164    1.3212    5.6880 C   0  0  0  0  0  0  0  0  0  0  0  0
   -6.7782    1.0322    4.8811 C   0  0  0  0  0  0  0  0  0  0  0  0
   -5.0594    2.2913    6.0300 C   0  0  0  0  0  0  0  0  0  0  0  0
   -6.3843    2.1543    5.6135 C   0  0  0  0  0  0  0  0  0  0  0  0
   -1.2383   -0.2150   -0.3770 H   0  0  0  0  0  0  0  0  0  0  0  0
   -1.8804   -2.8286   -1.3872 H   0  0  0  0  0  0  0  0  0  0  0  0
   -1.5272   -1.3777   -2.3550 H   0  0  0  0  0  0  0  0  0  0  0  0
   -3.2009   -2.2082    0.1447 H   0  0  0  0  0  0  0  0  0  0  0  0
   -2.9088   -2.8567    1.7307 H   0  0  0  0  0  0  0  0  0  0  0  0
   -0.7322   -2.1672    2.9468 H   0  0  0  0  0  0  0  0  0  0  0  0
    0.4343   -1.2093    2.1037 H   0  0  0  0  0  0  0  0  0  0  0  0
   -3.4228    0.0826    1.0118 H   0  0  0  0  0  0  0  0  0  0  0  0
   -4.4787   -0.9935    1.9045 H   0  0  0  0  0  0  0  0  0  0  0  0
   -1.1715    0.7423    2.0748 H   0  0  0  0  0  0  0  0  0  0  0  0
   -0.8189    0.1993    3.6988 H   0  0  0  0  0  0  0  0  0  0  0  0
    3.3061   -1.4493    0.2824 H   0  0  0  0  0  0  0  0  0  0  0  0
    2.3061   -3.3990   -3.4594 H   0  0  0  0  0  0  0  0  0  0  0  0
    5.6501   -1.9736   -0.1048 H   0  0  0  0  0  0  0  0  0  0  0  0
    4.6492   -3.9189   -3.7919 H   0  0  0  0  0  0  0  0  0  0  0  0
    6.3558   -3.2142   -2.1342 H   0  0  0  0  0  0  0  0  0  0  0  0
   -6.1581   -0.8222    3.9795 H   0  0  0  0  0  0  0  0  0  0  0  0
   -3.0855    1.4332    6.0159 H   0  0  0  0  0  0  0  0  0  0  0  0
   -7.8159    0.9241    4.5748 H   0  0  0  0  0  0  0  0  0  0  0  0
   -4.7613    3.1568    6.6173 H   0  0  0  0  0  0  0  0  0  0  0  0
   -7.1133    2.9210    5.8663 H   0  0  0  0  0  0  0  0  0  0  0  0
  1  2  1  0  0  0  0
  1  3  1  0  0  0  0
  1  4  1  0  0  0  0
  1 29  1  0  0  0  0
  2  5  1  0  0  0  0
  2  6  1  0  0  0  0
  3  7  1  0  0  0  0
  3  8  2  0  0  0  0
  4  9  1  0  0  0  0
  4 30  1  0  0  0  0
  4 31  1  0  0  0  0
  5 10  1  0  0  0  0
  5 32  1  0  0  0  0
  5 33  1  0  0  0  0
  6 11  1  0  0  0  0
  6 34  1  0  0  0  0
  6 35  1  0  0  0  0
  7 12  1  0  0  0  0
  7  9  1  0  0  0  0
  9 13  2  0  0  0  0
 10 14  1  0  0  0  0
 10 36  1  0  0  0  0
 10 37  1  0  0  0  0
 11 14  1  0  0  0  0
 11 38  1  0  0  0  0
 11 39  1  0  0  0  0
 12 15  2  0  0  0  0
 12 16  1  0  0  0  0
 14 17  1  0  0  0  0
 15 18  1  0  0  0  0
 15 40  1  0  0  0  0
 16 19  2  0  0  0  0
 16 41  1  0  0  0  0
 17 20  1  0  0  0  0
 17 21  2  0  0  0  0
 17 22  2  0  0  0  0
 18 23  2  0  0  0  0
 18 42  1  0  0  0  0
 19 23  1  0  0  0  0
 19 43  1  0  0  0  0
 20 24  2  0  0  0  0
 20 25  1  0  0  0  0
 23 44  1  0  0  0  0
 24 26  1  0  0  0  0
 24 45  1  0  0  0  0
 25 27  2  0  0  0  0
 25 46  1  0  0  0  0
 26 28  2  0  0  0  0
 26 47  1  0  0  0  0
 27 28  1  0  0  0  0
 27 48  1  0  0  0  0
 28 49  1  0  0  0  0
M  END
>  <Mol_ID>
8562

>  <Formula>
C20H21N3O4S

>  <MolWeight>
399.46344

>  <Cat>
P2035

>  <Name>
GI-568595

>  <Synonyms>
N/A

>  <Target>
Mcl-1

>  <Form>
free base

>  <CAS>
853695-88-2

>  <URL>
N/A

$$$$
