GI-560192
 OpenBabel08302521393D

 40 42  0  0  0  0  0  0  0  0999 V2000
    1.3602   -0.1958    0.0964 C   0  0  0  0  0  0  0  0  0  0  0  0
    2.8253   -0.4243    0.1793 C   0  0  0  0  0  0  0  0  0  0  0  0
    0.4468   -1.2669    0.0630 C   0  0  0  0  0  0  0  0  0  0  0  0
    0.8218    1.1054    0.0356 C   0  0  0  0  0  0  0  0  0  0  0  0
    3.4298   -1.5547   -0.4033 C   0  0  0  0  0  0  0  0  0  0  0  0
    3.6771    0.4863    0.8331 C   0  0  0  0  0  0  0  0  0  0  0  0
   -0.9330   -1.0532   -0.0354 C   0  0  0  0  0  0  0  0  0  0  0  0
   -0.5585    1.3292   -0.0469 C   0  0  0  0  0  0  0  0  0  0  0  0
    4.8125   -1.7612   -0.3422 C   0  0  0  0  0  0  0  0  0  0  0  0
    5.0616    0.2914    0.8828 C   0  0  0  0  0  0  0  0  0  0  0  0
   -1.4337    0.2460   -0.0853 C   0  0  0  0  0  0  0  0  0  0  0  0
    5.6290   -0.8332    0.2945 C   0  0  0  0  0  0  0  0  0  0  0  0
   -2.8873    0.4992   -0.1673 C   0  0  0  0  0  0  0  0  0  0  0  0
   -3.7425   -0.4741   -0.2080 N   0  0  0  0  0  0  0  0  0  0  0  0
   -5.0763   -0.1728   -0.3040 N   0  0  0  0  0  0  0  0  0  0  0  0
   -5.6197    0.9451   -0.9273 C   0  0  0  0  0  0  0  0  0  0  0  0
   -7.1113    1.0355   -0.9008 C   0  0  0  0  0  0  0  0  0  0  0  0
   -4.9886    1.8285   -1.4974 O   0  0  0  0  0  0  0  0  0  0  0  0
   -7.8898    0.4235    0.0945 C   0  0  0  0  0  0  0  0  0  0  0  0
   -7.7406    1.8253   -1.8745 C   0  0  0  0  0  0  0  0  0  0  0  0
   -9.2784    0.6017    0.1111 C   0  0  0  0  0  0  0  0  0  0  0  0
   -9.1249    2.0025   -1.8550 C   0  0  0  0  0  0  0  0  0  0  0  0
   -9.8815    1.3939   -0.8615 C   0  0  0  0  0  0  0  0  0  0  0  0
  -11.2265    1.6135   -0.8685 O   0  0  0  0  0  0  0  0  0  0  0  0
    0.7959   -2.2955    0.1226 H   0  0  0  0  0  0  0  0  0  0  0  0
    1.4772    1.9740    0.0365 H   0  0  0  0  0  0  0  0  0  0  0  0
    2.8310   -2.2915   -0.9341 H   0  0  0  0  0  0  0  0  0  0  0  0
    3.2717    1.3677    1.3248 H   0  0  0  0  0  0  0  0  0  0  0  0
   -1.6070   -1.9058   -0.0683 H   0  0  0  0  0  0  0  0  0  0  0  0
   -0.9302    2.3500   -0.0880 H   0  0  0  0  0  0  0  0  0  0  0  0
    5.2484   -2.6448   -0.8013 H   0  0  0  0  0  0  0  0  0  0  0  0
    5.6929    1.0211    1.3831 H   0  0  0  0  0  0  0  0  0  0  0  0
    6.7041   -0.9857    0.3316 H   0  0  0  0  0  0  0  0  0  0  0  0
   -3.1810    1.5617   -0.1602 H   0  0  0  0  0  0  0  0  0  0  0  0
   -5.6741   -0.9789   -0.1591 H   0  0  0  0  0  0  0  0  0  0  0  0
   -7.4349   -0.1626    0.8881 H   0  0  0  0  0  0  0  0  0  0  0  0
   -7.1509    2.3168   -2.6463 H   0  0  0  0  0  0  0  0  0  0  0  0
   -9.8661    0.1342    0.8955 H   0  0  0  0  0  0  0  0  0  0  0  0
   -9.6059    2.6255   -2.6038 H   0  0  0  0  0  0  0  0  0  0  0  0
  -11.6270    1.1536   -0.1129 H   0  0  0  0  0  0  0  0  0  0  0  0
  1  2  1  0  0  0  0
  1  3  2  0  0  0  0
  1  4  1  0  0  0  0
  2  5  2  0  0  0  0
  2  6  1  0  0  0  0
  3  7  1  0  0  0  0
  3 25  1  0  0  0  0
  4  8  2  0  0  0  0
  4 26  1  0  0  0  0
  5  9  1  0  0  0  0
  5 27  1  0  0  0  0
  6 10  2  0  0  0  0
  6 28  1  0  0  0  0
  7 11  2  0  0  0  0
  7 29  1  0  0  0  0
  8 11  1  0  0  0  0
  8 30  1  0  0  0  0
  9 12  2  0  0  0  0
  9 31  1  0  0  0  0
 10 12  1  0  0  0  0
 10 32  1  0  0  0  0
 11 13  1  0  0  0  0
 12 33  1  0  0  0  0
 13 14  2  0  0  0  0
 13 34  1  0  0  0  0
 14 15  1  0  0  0  0
 15 16  1  0  0  0  0
 15 35  1  0  0  0  0
 16 17  1  0  0  0  0
 16 18  2  0  0  0  0
 17 19  2  0  0  0  0
 17 20  1  0  0  0  0
 19 21  1  0  0  0  0
 19 36  1  0  0  0  0
 20 22  2  0  0  0  0
 20 37  1  0  0  0  0
 21 23  2  0  0  0  0
 21 38  1  0  0  0  0
 22 23  1  0  0  0  0
 22 39  1  0  0  0  0
 23 24  1  0  0  0  0
 24 40  1  0  0  0  0
M  END
>  <Mol_ID>
8062

>  <Formula>
C20H16N2O2

>  <MolWeight>
316.35324

>  <Cat>
P2032

>  <Name>
GI-560192

>  <Synonyms>
N/A

>  <Target>
others

>  <Form>
free base

>  <CAS>
301326-41-0

>  <URL>
N/A

$$$$
