GI-568125
 OpenBabel08302521443D

 23 24  0  0  0  0  0  0  0  0999 V2000
   -0.2425    1.2221    0.0363 N   0  0  0  0  0  0  0  0  0  0  0  0
   -0.6455    2.4730    0.5155 C   0  0  0  0  0  0  0  0  0  0  0  0
    0.9898    0.6409    0.0459 C   0  0  0  0  0  0  0  0  0  0  0  0
   -1.2367    0.1755   -0.1132 C   0  0  0  0  0  0  0  0  0  0  0  0
   -1.7872    3.1077   -0.0022 C   0  0  0  0  0  0  0  0  0  0  0  0
    0.0619    3.1418    1.5255 C   0  0  0  0  0  0  0  0  0  0  0  0
    1.0547   -0.6603   -0.0276 N   0  0  0  0  0  0  0  0  0  0  0  0
    2.0943    1.4173    0.0335 N   0  0  0  0  0  0  0  0  0  0  0  0
   -0.3729   -1.0859    0.0354 C   0  0  0  0  0  0  0  0  0  0  0  0
   -2.1991    4.3608    0.4656 C   0  0  0  0  0  0  0  0  0  0  0  0
   -0.3497    4.3892    2.0043 C   0  0  0  0  0  0  0  0  0  0  0  0
   -1.4804    4.9991    1.4715 C   0  0  0  0  0  0  0  0  0  0  0  0
   -2.0200    0.1985    0.6528 H   0  0  0  0  0  0  0  0  0  0  0  0
   -1.6972    0.2134   -1.1065 H   0  0  0  0  0  0  0  0  0  0  0  0
   -2.3557    2.6432   -0.8025 H   0  0  0  0  0  0  0  0  0  0  0  0
    0.9348    2.6776    1.9802 H   0  0  0  0  0  0  0  0  0  0  0  0
    2.9123    0.8985   -0.2633 H   0  0  0  0  0  0  0  0  0  0  0  0
    1.9712    2.2879   -0.4686 H   0  0  0  0  0  0  0  0  0  0  0  0
   -0.5526   -1.5678    1.0032 H   0  0  0  0  0  0  0  0  0  0  0  0
   -0.5901   -1.8117   -0.7549 H   0  0  0  0  0  0  0  0  0  0  0  0
   -3.0774    4.8371    0.0393 H   0  0  0  0  0  0  0  0  0  0  0  0
    0.2120    4.8742    2.7964 H   0  0  0  0  0  0  0  0  0  0  0  0
   -1.8005    5.9698    1.8409 H   0  0  0  0  0  0  0  0  0  0  0  0
  1  2  1  0  0  0  0
  1  3  1  0  0  0  0
  1  4  1  0  0  0  0
  2  5  2  0  0  0  0
  2  6  1  0  0  0  0
  3  7  2  0  0  0  0
  3  8  1  0  0  0  0
  4  9  1  0  0  0  0
  4 13  1  0  0  0  0
  4 14  1  0  0  0  0
  5 10  1  0  0  0  0
  5 15  1  0  0  0  0
  6 11  2  0  0  0  0
  6 16  1  0  0  0  0
  7  9  1  0  0  0  0
  8 17  1  0  0  0  0
  8 18  1  0  0  0  0
  9 19  1  0  0  0  0
  9 20  1  0  0  0  0
 10 12  2  0  0  0  0
 10 21  1  0  0  0  0
 11 12  1  0  0  0  0
 11 22  1  0  0  0  0
 12 23  1  0  0  0  0
M  END
>  <Mol_ID>
9142

>  <Formula>
C9H11N3

>  <MolWeight>
161.20374

>  <Cat>
P2034

>  <Name>
GI-568125

>  <Synonyms>
N/A

>  <Target>
serotonin (5HT2) receptor

>  <Form>
free base

>  <CAS>
913488-18-3

>  <URL>
N/A

$$$$
