GI254023X.cdx
 OpenBabel08302521223D

 61 61  0  0  0  0  0  0  0  0999 V2000
   -8.2998   -0.0254    2.1664 C   0  0  0  0  0  0  0  0  0  0  0  0
   -7.2515    0.5925    2.8524 C   0  0  0  0  0  0  0  0  0  0  0  0
   -6.0256    0.8507    2.2136 C   0  0  0  0  0  0  0  0  0  0  0  0
   -5.8312    0.4749    0.8837 C   0  0  0  0  0  0  0  0  0  0  0  0
   -6.8844   -0.2043    0.2290 C   0  0  0  0  0  0  0  0  0  0  0  0
   -8.1108   -0.4371    0.8550 C   0  0  0  0  0  0  0  0  0  0  0  0
   -4.6066    0.8021    0.0498 C   0  0  0  0  0  0  0  0  0  0  0  0
   -3.2389    1.1547    0.6638 C   0  0  0  0  0  0  0  0  0  0  0  0
   -2.9640    2.6152    1.0997 C   0  0  0  0  0  0  0  0  0  0  0  0
   -1.4604    2.9220    1.4663 C   0  0  1  0  0  0  0  0  0  0  0  0
   -0.9809    1.8746    2.4742 C   0  0  0  0  0  0  0  0  0  0  0  0
   -0.4672    2.8670    0.2453 C   0  0  1  0  0  0  0  0  0  0  0  0
   -0.7262    3.8360   -0.8414 N   0  0  0  0  0  0  0  0  0  0  0  0
   -0.8766    5.1989   -0.6959 C   0  0  0  0  0  0  0  0  0  0  0  0
   -1.0425    5.7984    0.3537 O   0  0  0  0  0  0  0  0  0  0  0  0
   -0.1046    3.4558   -2.0615 O   0  0  0  0  0  0  0  0  0  0  0  0
    1.0084    3.0063    0.6663 C   0  0  0  0  0  0  0  0  0  0  0  0
   -0.7073    0.7367    2.0954 O   0  0  0  0  0  0  0  0  0  0  0  0
   -0.8617    2.2251    3.8006 N   0  0  0  0  0  0  0  0  0  0  0  0
   -0.6140    1.1629    4.7975 C   0  0  1  0  0  0  0  0  0  0  0  0
    0.8850    0.9475    5.2165 C   0  0  0  0  0  0  0  0  0  0  0  0
   -1.5890    1.3378    5.9801 C   0  0  0  0  0  0  0  0  0  0  0  0
   -1.7827    2.4411    6.4972 O   0  0  0  0  0  0  0  0  0  0  0  0
   -2.2617    0.2500    6.4744 N   0  0  0  0  0  0  0  0  0  0  0  0
   -2.2763   -1.1290    6.0206 C   0  0  0  0  0  0  0  0  0  0  0  0
    1.5784    2.2203    5.7308 C   0  0  0  0  0  0  0  0  0  0  0  0
    1.0022   -0.1278    6.3199 C   0  0  0  0  0  0  0  0  0  0  0  0
    1.6824    0.4223    4.0055 C   0  0  0  0  0  0  0  0  0  0  0  0
   -9.2589   -0.1855    2.6540 H   0  0  0  0  0  0  0  0  0  0  0  0
   -7.3982    0.8887    3.8873 H   0  0  0  0  0  0  0  0  0  0  0  0
   -5.2435    1.3486    2.7771 H   0  0  0  0  0  0  0  0  0  0  0  0
   -6.7536   -0.5495   -0.7956 H   0  0  0  0  0  0  0  0  0  0  0  0
   -8.9158   -0.9264    0.3112 H   0  0  0  0  0  0  0  0  0  0  0  0
   -4.4142   -0.1120   -0.5323 H   0  0  0  0  0  0  0  0  0  0  0  0
   -4.8911    1.5741   -0.6751 H   0  0  0  0  0  0  0  0  0  0  0  0
   -3.0479    0.4684    1.4936 H   0  0  0  0  0  0  0  0  0  0  0  0
   -2.5087    0.9233   -0.1212 H   0  0  0  0  0  0  0  0  0  0  0  0
   -3.2887    3.3047    0.3103 H   0  0  0  0  0  0  0  0  0  0  0  0
   -3.5834    2.8364    1.9777 H   0  0  0  0  0  0  0  0  0  0  0  0
   -1.4171    3.9135    1.9313 H   0  0  0  0  0  0  0  0  0  0  0  0
   -0.5654    1.8816   -0.2243 H   0  0  0  0  0  0  0  0  0  0  0  0
   -0.8446    5.7205   -1.6718 H   0  0  0  0  0  0  0  0  0  0  0  0
    0.7358    3.9568   -2.0466 H   0  0  0  0  0  0  0  0  0  0  0  0
    1.2748    2.3480    1.4917 H   0  0  0  0  0  0  0  0  0  0  0  0
    1.6636    2.7241   -0.1668 H   0  0  0  0  0  0  0  0  0  0  0  0
    1.2601    4.0315    0.9528 H   0  0  0  0  0  0  0  0  0  0  0  0
   -1.1501    3.1446    4.1414 H   0  0  0  0  0  0  0  0  0  0  0  0
   -0.9160    0.2441    4.3000 H   0  0  0  0  0  0  0  0  0  0  0  0
   -2.8544    0.4777    7.2637 H   0  0  0  0  0  0  0  0  0  0  0  0
   -1.7261   -1.7350    6.7448 H   0  0  0  0  0  0  0  0  0  0  0  0
   -3.3150   -1.4680    5.9936 H   0  0  0  0  0  0  0  0  0  0  0  0
   -1.8410   -1.2685    5.0322 H   0  0  0  0  0  0  0  0  0  0  0  0
    1.1383    2.5736    6.6687 H   0  0  0  0  0  0  0  0  0  0  0  0
    2.6398    2.0188    5.9322 H   0  0  0  0  0  0  0  0  0  0  0  0
    1.5415    3.0332    4.9998 H   0  0  0  0  0  0  0  0  0  0  0  0
    0.5653   -1.0769    5.9935 H   0  0  0  0  0  0  0  0  0  0  0  0
    2.0511   -0.3259    6.5700 H   0  0  0  0  0  0  0  0  0  0  0  0
    0.5068    0.1815    7.2464 H   0  0  0  0  0  0  0  0  0  0  0  0
    1.2413   -0.5020    3.6145 H   0  0  0  0  0  0  0  0  0  0  0  0
    1.7076    1.1566    3.1999 H   0  0  0  0  0  0  0  0  0  0  0  0
    2.7225    0.2038    4.2697 H   0  0  0  0  0  0  0  0  0  0  0  0
  1  2  2  0  0  0  0
  1 29  1  0  0  0  0
  2  3  1  0  0  0  0
  2 30  1  0  0  0  0
  3  4  2  0  0  0  0
  3 31  1  0  0  0  0
  4  5  1  0  0  0  0
  4  7  1  0  0  0  0
  5  6  2  0  0  0  0
  5 32  1  0  0  0  0
  6  1  1  0  0  0  0
  6 33  1  0  0  0  0
  7  8  1  0  0  0  0
  7 34  1  0  0  0  0
  7 35  1  0  0  0  0
  8  9  1  0  0  0  0
  8 36  1  0  0  0  0
  8 37  1  0  0  0  0
  9 38  1  0  0  0  0
  9 39  1  0  0  0  0
 10  9  1  0  0  0  0
 10 11  1  0  0  0  0
 10 12  1  0  0  0  0
 10 40  1  1  0  0  0
 11 18  2  0  0  0  0
 11 19  1  0  0  0  0
 12 13  1  0  0  0  0
 12 17  1  0  0  0  0
 12 41  1  6  0  0  0
 13 14  1  0  0  0  0
 13 16  1  0  0  0  0
 14 15  2  0  0  0  0
 14 42  1  0  0  0  0
 16 43  1  0  0  0  0
 17 44  1  0  0  0  0
 17 45  1  0  0  0  0
 17 46  1  0  0  0  0
 19 47  1  0  0  0  0
 20 19  1  0  0  0  0
 20 21  1  0  0  0  0
 20 22  1  0  0  0  0
 20 48  1  6  0  0  0
 21 26  1  0  0  0  0
 21 27  1  0  0  0  0
 21 28  1  0  0  0  0
 22 23  2  0  0  0  0
 22 24  1  0  0  0  0
 24 25  1  0  0  0  0
 24 49  1  0  0  0  0
 25 50  1  0  0  0  0
 25 51  1  0  0  0  0
 25 52  1  0  0  0  0
 26 53  1  0  0  0  0
 26 54  1  0  0  0  0
 26 55  1  0  0  0  0
 27 56  1  0  0  0  0
 27 57  1  0  0  0  0
 27 58  1  0  0  0  0
 28 59  1  0  0  0  0
 28 60  1  0  0  0  0
 28 61  1  0  0  0  0
M  END
>  <Mol_ID>
4597

>  <Formula>
C21H33N3O4

>  <MolWeight>
391.50442

>  <Cat>
S8660

>  <Name>
GI254023X

>  <Synonyms>
GI 4023, SRI028594

>  <Target>
Immunology & Inflammation related

>  <Form>
free base

>  <CAS>
260264-93-5

>  <URL>
http://selleckchem.com/products/gi254023x.html

$$$$
