Gibberllin A7
 OpenBabel08302521363D

 46 50  0  0  1  0  0  0  0  0999 V2000
   21.7845    2.5528   11.3331 C   0  0  0  0  0  0  0  0  0  0  0  0
   21.3793    1.2959   11.0127 O   0  0  0  0  0  0  0  0  0  0  0  0
   22.0367    3.3846   10.4845 O   0  0  0  0  0  0  0  0  0  0  0  0
   20.2090    5.7597   11.9171 C   0  0  0  0  0  0  0  0  0  0  0  0
   20.9447    7.3805   14.2852 O   0  0  0  0  0  0  0  0  0  0  0  0
   18.3773    4.0019   13.1652 O   0  0  0  0  0  0  0  0  0  0  0  0
   25.9332    0.1560   12.5299 C   0  0  0  0  0  0  0  0  0  0  0  0
   22.0722    4.1718   14.7229 C   0  0  1  0  0  0  0  0  0  0  0  0
   21.7541    4.2427   13.2285 C   0  0  3  0  0  0  0  0  0  0  0  0
   23.3061    3.2402   14.7924 C   0  0  3  0  0  0  0  0  0  0  0  0
   22.1332    5.5495   15.0456 O   0  0  0  0  0  0  0  0  0  0  0  0
   20.9359    3.5218   15.5110 C   0  0  0  0  0  0  0  0  0  0  0  0
   21.9139    2.7924   12.8044 C   0  0  3  0  0  0  0  0  0  0  0  0
   20.5456    5.1574   13.2779 C   0  0  3  0  0  0  0  0  0  0  0  0
   23.3386    2.5403   13.3726 C   0  0  3  0  0  0  0  0  0  0  0  0
   24.6339    3.8817   15.1964 C   0  0  0  0  0  0  0  0  0  0  0  0
   21.1953    6.1878   14.2249 C   0  0  0  0  0  0  0  0  0  0  0  0
   19.6651    3.6302   15.0960 C   0  0  0  0  0  0  0  0  0  0  0  0
   19.3118    4.6207   14.0302 C   0  0  3  0  0  0  0  0  0  0  0  0
   24.5122    3.1859   12.5784 C   0  0  0  0  0  0  0  0  0  0  0  0
   23.7645    1.0552   13.4585 C   0  0  0  0  0  0  0  0  0  0  0  0
   25.8059    2.9851   14.7658 C   0  0  0  0  0  0  0  0  0  0  0  0
   25.7104    2.5503   13.2814 C   0  0  3  0  0  0  0  0  0  0  0  0
   25.2377    1.1228   13.1426 C   0  0  2  0  0  0  0  0  0  0  0  0
   21.1651    0.7252   11.7685 H   0  0  0  0  0  0  0  0  0  0  0  0
   19.8863    4.9882   11.2091 H   0  0  0  0  0  0  0  0  0  0  0  0
   19.4013    6.4955   12.0035 H   0  0  0  0  0  0  0  0  0  0  0  0
   21.0668    6.2799   11.4768 H   0  0  0  0  0  0  0  0  0  0  0  0
   17.5071    4.0997   13.5961 H   0  0  0  0  0  0  0  0  0  0  0  0
   25.4883   -0.8073   12.3017 H   0  0  0  0  0  0  0  0  0  0  0  0
   26.9457    0.3303   12.1758 H   0  0  0  0  0  0  0  0  0  0  0  0
   22.5253    4.8268   12.6972 H   0  0  0  0  0  0  0  0  0  0  0  0
   23.1214    2.4537   15.5365 H   0  0  0  0  0  0  0  0  0  0  0  0
   21.1731    2.8920   16.3634 H   0  0  0  0  0  0  0  0  0  0  0  0
   21.1779    2.1562   13.3091 H   0  0  0  0  0  0  0  0  0  0  0  0
   24.7468    4.8741   14.7457 H   0  0  0  0  0  0  0  0  0  0  0  0
   24.6582    4.0374   16.2824 H   0  0  0  0  0  0  0  0  0  0  0  0
   18.8773    3.0424   15.5567 H   0  0  0  0  0  0  0  0  0  0  0  0
   18.8002    5.4566   14.5255 H   0  0  0  0  0  0  0  0  0  0  0  0
   24.4865    2.9104   11.5159 H   0  0  0  0  0  0  0  0  0  0  0  0
   24.5531    4.2789   12.6192 H   0  0  0  0  0  0  0  0  0  0  0  0
   23.2412    0.4297   12.7321 H   0  0  0  0  0  0  0  0  0  0  0  0
   23.6057    0.6362   14.4576 H   0  0  0  0  0  0  0  0  0  0  0  0
   26.7436    3.5269   14.9332 H   0  0  0  0  0  0  0  0  0  0  0  0
   25.8462    2.1055   15.4239 H   0  0  0  0  0  0  0  0  0  0  0  0
   26.6497    2.7440   12.7550 H   0  0  0  0  0  0  0  0  0  0  0  0
  1  2  1  0  0  0  0
  1  3  2  0  0  0  0
  2 25  1  0  0  0  0
  4 26  1  0  0  0  0
  4 27  1  0  0  0  0
  4 28  1  0  0  0  0
  5 17  2  0  0  0  0
  6 29  1  0  0  0  0
  7 30  1  0  0  0  0
  7 31  1  0  0  0  0
  8  9  1  0  0  0  0
  8 10  1  0  0  0  0
  8 11  1  1  0  0  0
  8 12  1  0  0  0  0
  9 13  1  0  0  0  0
  9 14  1  0  0  0  0
  9 32  1  0  0  0  0
 10 15  1  0  0  0  0
 10 16  1  0  0  0  0
 10 33  1  0  0  0  0
 11 17  1  0  0  0  0
 12 18  2  0  0  0  0
 12 34  1  0  0  0  0
 13 15  1  0  0  0  0
 13  1  1  0  0  0  0
 13 35  1  0  0  0  0
 14 17  1  0  0  0  0
 14 19  1  0  0  0  0
 14  4  1  0  0  0  0
 15 20  1  0  0  0  0
 15 21  1  0  0  0  0
 16 22  1  0  0  0  0
 16 36  1  0  0  0  0
 16 37  1  0  0  0  0
 18 19  1  0  0  0  0
 18 38  1  0  0  0  0
 19  6  1  0  0  0  0
 19 39  1  0  0  0  0
 20 23  1  0  0  0  0
 20 40  1  0  0  0  0
 20 41  1  0  0  0  0
 21 24  1  0  0  0  0
 21 42  1  0  0  0  0
 21 43  1  0  0  0  0
 22 23  1  0  0  0  0
 22 44  1  0  0  0  0
 22 45  1  0  0  0  0
 23 24  1  0  0  0  0
 23 46  1  0  0  0  0
 24  7  2  6  0  0  0
M  END
>  <Mol_ID>
7328

>  <Formula>
C19H22O5

>  <MolWeight>
330.37498

>  <Cat>
E4373

>  <Name>
Gibberllin A7

>  <Synonyms>
Gibberllin A7

>  <Target>
Others

>  <Form>
free base

>  <CAS>
510-75-8

>  <URL>
https://www.selleckchem.com/products/gibberllin-a7.html

$$$$
