Gibberellins A4/A7
 OpenBabel08302521223D

 46 50  0  0  0  0  0  0  0  0999 V2000
    3.0643   -0.5949    1.7644 C   0  0  0  0  0  0  0  0  0  0  0  0
    1.6211   -1.0595    2.0971 C   0  0  0  0  0  0  0  0  0  0  0  0
    0.8470   -1.2813    0.8003 C   0  0  2  0  0  0  0  0  0  0  0  0
    1.0303   -0.0967   -0.2130 C   0  0  2  0  0  0  0  0  0  0  0  0
    1.7399    1.1033    0.4596 C   0  0  0  0  0  0  0  0  0  0  0  0
    3.1309    0.5221    0.6882 C   0  0  2  0  0  0  0  0  0  0  0  0
   -0.6627   -1.5827    0.8388 C   0  0  1  0  0  0  0  0  0  0  0  0
   -1.0627   -1.2540   -0.5903 C   0  0  3  0  0  0  0  0  0  0  0  0
   -0.3564    0.1241   -0.8564 C   0  0  3  0  0  0  0  0  0  0  0  0
   -1.0211   -3.0100    1.1832 C   0  0  0  0  0  0  0  0  0  0  0  0
   -2.1749   -3.5358    0.7459 C   0  0  0  0  0  0  0  0  0  0  0  0
   -3.1633   -2.6970   -0.0226 C   0  0  3  0  0  0  0  0  0  0  0  0
   -2.5780   -1.3173   -0.4683 C   0  0  3  0  0  0  0  0  0  0  0  0
    2.0704   -0.5125   -1.2887 C   0  0  0  0  0  0  0  0  0  0  0  0
    3.3583    0.0178   -0.7220 C   0  0  0  0  0  0  0  0  0  0  0  0
   -3.6177   -3.4809   -1.1181 O   0  0  0  0  0  0  0  0  0  0  0  0
   -3.2057   -0.8441   -1.7786 C   0  0  0  0  0  0  0  0  0  0  0  0
   -1.0258    1.4111   -0.3473 C   0  0  0  0  0  0  0  0  0  0  0  0
   -0.9123    1.9414    0.7536 O   0  0  0  0  0  0  0  0  0  0  0  0
   -1.8678    1.9510   -1.2431 O   0  0  0  0  0  0  0  0  0  0  0  0
    4.4203    0.2963   -1.4897 C   0  0  0  0  0  0  0  0  0  0  0  0
   -1.5383   -0.7090    1.5668 O   0  0  0  0  0  0  0  0  0  0  0  0
   -2.7022   -0.5196    0.8119 C   0  0  0  0  0  0  0  0  0  0  0  0
   -3.6469    0.1717    1.1530 O   0  0  0  0  0  0  0  0  0  0  0  0
    3.6623   -1.4591    1.4466 H   0  0  0  0  0  0  0  0  0  0  0  0
    3.5252   -0.2286    2.6899 H   0  0  0  0  0  0  0  0  0  0  0  0
    1.1237   -0.3141    2.7289 H   0  0  0  0  0  0  0  0  0  0  0  0
    1.6614   -1.9819    2.6883 H   0  0  0  0  0  0  0  0  0  0  0  0
    1.3061   -2.1799    0.3609 H   0  0  0  0  0  0  0  0  0  0  0  0
    1.7760    1.9748   -0.2085 H   0  0  0  0  0  0  0  0  0  0  0  0
    1.2969    1.4326    1.4039 H   0  0  0  0  0  0  0  0  0  0  0  0
    3.8616    1.2873    0.9696 H   0  0  0  0  0  0  0  0  0  0  0  0
   -0.6827   -1.9948   -1.3070 H   0  0  0  0  0  0  0  0  0  0  0  0
   -0.2584    0.2619   -1.9400 H   0  0  0  0  0  0  0  0  0  0  0  0
   -0.3289   -3.6106    1.7684 H   0  0  0  0  0  0  0  0  0  0  0  0
   -2.4382   -4.5677    0.9628 H   0  0  0  0  0  0  0  0  0  0  0  0
   -4.0373   -2.5308    0.6249 H   0  0  0  0  0  0  0  0  0  0  0  0
    2.1179   -1.5949   -1.4442 H   0  0  0  0  0  0  0  0  0  0  0  0
    1.8623   -0.0377   -2.2539 H   0  0  0  0  0  0  0  0  0  0  0  0
   -4.4314   -3.9305   -0.8159 H   0  0  0  0  0  0  0  0  0  0  0  0
   -4.2768   -0.6520   -1.6893 H   0  0  0  0  0  0  0  0  0  0  0  0
   -3.0536   -1.6041   -2.5588 H   0  0  0  0  0  0  0  0  0  0  0  0
   -2.7404    0.0504   -2.1908 H   0  0  0  0  0  0  0  0  0  0  0  0
   -2.2933    2.6856   -0.7445 H   0  0  0  0  0  0  0  0  0  0  0  0
    4.4237    0.0427   -2.5470 H   0  0  0  0  0  0  0  0  0  0  0  0
    5.2753    0.8431   -1.1074 H   0  0  0  0  0  0  0  0  0  0  0  0
  1  2  1  0  0  0  0
  1 25  1  0  0  0  0
  1 26  1  0  0  0  0
  2 27  1  0  0  0  0
  2 28  1  0  0  0  0
  3  2  1  0  0  0  0
  3  7  1  0  0  0  0
  3  4  1  0  0  0  0
  3 29  1  6  0  0  0
  4 14  1  6  0  0  0
  4  9  1  0  0  0  0
  4  5  1  0  0  0  0
  5 30  1  0  0  0  0
  5 31  1  0  0  0  0
  6  1  1  0  0  0  0
  6  5  1  0  0  0  0
  6 15  1  0  0  0  0
  6 32  1  1  0  0  0
  7  8  1  0  0  0  0
  7 10  1  1  0  0  0
  7 22  1  0  0  0  0
  8 13  1  0  0  0  0
  8  9  1  0  0  0  0
  8 33  1  0  0  0  0
  9 18  1  0  0  0  0
  9 34  1  0  0  0  0
 10 11  2  0  0  0  0
 10 35  1  0  0  0  0
 11 12  1  0  0  0  0
 11 36  1  0  0  0  0
 12 13  1  0  0  0  0
 12 16  1  0  0  0  0
 12 37  1  0  0  0  0
 13 17  1  0  0  0  0
 13 23  1  0  0  0  0
 14 15  1  0  0  0  0
 14 38  1  0  0  0  0
 14 39  1  0  0  0  0
 15 21  2  0  0  0  0
 16 40  1  0  0  0  0
 17 41  1  0  0  0  0
 17 42  1  0  0  0  0
 17 43  1  0  0  0  0
 18 19  2  0  0  0  0
 18 20  1  0  0  0  0
 20 44  1  0  0  0  0
 21 45  1  0  0  0  0
 21 46  1  0  0  0  0
 22 23  1  0  0  0  0
 23 24  2  0  0  0  0
M  END
>  <Mol_ID>
4676

>  <Formula>
C19H22O5

>  <MolWeight>
330.37498

>  <Cat>
S9333

>  <Name>
Gibberellins A4/A7

>  <Synonyms>
Gibberellin A4&A7

>  <Target>
Others

>  <Form>
Free Base

>  <CAS>
8030-53-3

>  <URL>
https://www.selleckchem.com/products/gibberellin-a4-a7.html

$$$$
