Gimeracil.cdx
 OpenBabel08302521453D

 13 13  0  0  0  0  0  0  0  0999 V2000
    1.1989    1.1169   -0.0224 C   0  0  0  0  0  0  0  0  0  0  0  0
    0.0231    1.7592    0.0062 C   0  0  0  0  0  0  0  0  0  0  0  0
   -1.1504    1.0501    0.0253 N   0  0  0  0  0  0  0  0  0  0  0  0
   -1.2199   -0.3237    0.0057 C   0  0  0  0  0  0  0  0  0  0  0  0
    0.0794   -1.0374   -0.0218 C   0  0  0  0  0  0  0  0  0  0  0  0
    1.2148   -0.3280   -0.0271 C   0  0  0  0  0  0  0  0  0  0  0  0
    2.4395   -0.9536   -0.0329 O   0  0  0  0  0  0  0  0  0  0  0  0
   -2.2839   -0.9312    0.0140 O   0  0  0  0  0  0  0  0  0  0  0  0
    2.1268    1.6758   -0.0486 H   0  0  0  0  0  0  0  0  0  0  0  0
   -0.0569    2.8412    0.0117 H   0  0  0  0  0  0  0  0  0  0  0  0
   -2.0411    1.5321    0.0484 H   0  0  0  0  0  0  0  0  0  0  0  0
    0.0576   -2.1178   -0.0277 H   0  0  0  0  0  0  0  0  0  0  0  0
    3.1409   -0.2853    0.0342 H   0  0  0  0  0  0  0  0  0  0  0  0
  1  2  2  0  0  0  0
  1  9  1  0  0  0  0
  2  3  1  0  0  0  0
  2 10  1  0  0  0  0
  3  4  1  0  0  0  0
  3 11  1  0  0  0  0
  4  5  1  0  0  0  0
  4  8  2  0  0  0  0
  5  6  2  0  0  0  0
  5 12  1  0  0  0  0
  6  1  1  0  0  0  0
  6  7  1  0  0  0  0
  7 13  1  0  0  0  0
M  END
>  <Mol_ID>
961

>  <Formula>
C5H4ClNO2

>  <MolWeight>
145.54376

>  <Cat>
S2055

>  <Name>
Gimeracil

>  <Synonyms>
N/A

>  <Target>
Dehydrogenase

>  <Form>
free base

>  <CAS>
103766-25-2

>  <URL>
http://selleckchem.com/products/gimeracil.html

$$$$
