Ginkgolide A.cdx
 OpenBabel08302521433D

 53 58  0  0  0  0  0  0  0  0999 V2000
    5.7547    6.2171    0.6438 O   0  0  0  0  0  0  0  0  0  0  0  0
    4.6675    6.0458    0.1197 C   0  0  0  0  0  0  0  0  0  0  0  0
    3.5814    7.0987   -0.0846 C   0  0  2  0  0  0  0  0  0  0  0  0
    2.5912    6.4066   -1.0392 C   0  0  1  0  0  0  0  0  0  0  0  0
    2.9169    4.9503   -0.6791 C   0  0  1  0  0  0  0  0  0  0  0  0
    4.2645    4.8324   -0.3223 O   0  0  0  0  0  0  0  0  0  0  0  0
    1.0347    6.3982   -0.8424 C   0  0  2  0  0  0  0  0  0  0  0  0
    0.6749    5.1776   -0.0122 C   0  0  3  0  0  0  0  0  0  0  0  0
    1.9956    4.6931    0.5541 C   0  0  0  0  0  0  0  0  0  0  0  0
    0.3231    4.0903   -1.0237 C   0  0  1  0  0  0  0  0  0  0  0  0
   -0.7470    3.3931   -0.2393 C   0  0  0  0  0  0  0  0  0  0  0  0
   -1.7210    4.5470   -0.0244 C   0  0  2  0  0  0  0  0  0  0  0  0
   -0.7046    5.5441    0.7133 C   0  0  3  0  0  0  0  0  0  0  0  0
    0.3208    6.0895   -2.1762 C   0  0  0  0  0  0  0  0  0  0  0  0
   -0.0658    4.7713   -2.2087 O   0  0  0  0  0  0  0  0  0  0  0  0
    0.0148    6.9076   -3.0273 O   0  0  0  0  0  0  0  0  0  0  0  0
    2.9317    6.7282   -2.3925 O   0  0  0  0  0  0  0  0  0  0  0  0
    4.2929    8.3360   -0.6071 C   0  0  0  0  0  0  0  0  0  0  0  0
   -3.1439    3.9512    0.1892 C   0  0  0  0  0  0  0  0  0  0  0  0
   -3.2599    2.9596    1.3537 C   0  0  0  0  0  0  0  0  0  0  0  0
   -3.4950    3.1679   -1.1411 C   0  0  0  0  0  0  0  0  0  0  0  0
   -4.2316    5.0278    0.3004 C   0  0  0  0  0  0  0  0  0  0  0  0
   -0.8653    7.0225    0.2972 C   0  0  1  0  0  0  0  0  0  0  0  0
   -1.3834    7.7733    1.3802 O   0  0  0  0  0  0  0  0  0  0  0  0
   -1.4741    6.9903    2.4843 C   0  0  0  0  0  0  0  0  0  0  0  0
   -0.8037    5.6499    2.2311 C   0  0  2  0  0  0  0  0  0  0  0  0
   -1.9175    7.3427    3.5616 O   0  0  0  0  0  0  0  0  0  0  0  0
    0.4473    7.4815   -0.1304 O   0  0  0  0  0  0  0  0  0  0  0  0
    0.4751    5.6830    2.8554 O   0  0  0  0  0  0  0  0  0  0  0  0
    3.1284    7.2866    0.8924 H   0  0  0  0  0  0  0  0  0  0  0  0
    2.7565    4.2994   -1.5461 H   0  0  0  0  0  0  0  0  0  0  0  0
    2.3411    5.2540    1.4246 H   0  0  0  0  0  0  0  0  0  0  0  0
    2.0133    3.6354    0.8358 H   0  0  0  0  0  0  0  0  0  0  0  0
    1.0745    3.3430   -1.2775 H   0  0  0  0  0  0  0  0  0  0  0  0
   -0.3684    3.0385    0.7369 H   0  0  0  0  0  0  0  0  0  0  0  0
   -1.0739    2.5021   -0.7568 H   0  0  0  0  0  0  0  0  0  0  0  0
   -1.9003    5.0699   -0.9724 H   0  0  0  0  0  0  0  0  0  0  0  0
    2.5561    7.6189   -2.6006 H   0  0  0  0  0  0  0  0  0  0  0  0
    5.0420    8.6699    0.1222 H   0  0  0  0  0  0  0  0  0  0  0  0
    3.5935    9.1541   -0.7816 H   0  0  0  0  0  0  0  0  0  0  0  0
    4.8449    8.1282   -1.5326 H   0  0  0  0  0  0  0  0  0  0  0  0
   -4.2661    2.5231    1.3885 H   0  0  0  0  0  0  0  0  0  0  0  0
   -2.5615    2.1215    1.2546 H   0  0  0  0  0  0  0  0  0  0  0  0
   -3.0798    3.4421    2.3169 H   0  0  0  0  0  0  0  0  0  0  0  0
   -3.5326    3.8558   -1.9957 H   0  0  0  0  0  0  0  0  0  0  0  0
   -4.4527    2.6467   -1.0739 H   0  0  0  0  0  0  0  0  0  0  0  0
   -2.7774    2.3913   -1.4162 H   0  0  0  0  0  0  0  0  0  0  0  0
   -4.3531    5.3916    1.3221 H   0  0  0  0  0  0  0  0  0  0  0  0
   -5.2015    4.6212   -0.0211 H   0  0  0  0  0  0  0  0  0  0  0  0
   -4.0195    5.8781   -0.3563 H   0  0  0  0  0  0  0  0  0  0  0  0
   -1.5601    7.1690   -0.5364 H   0  0  0  0  0  0  0  0  0  0  0  0
   -1.3980    4.8555    2.6732 H   0  0  0  0  0  0  0  0  0  0  0  0
    0.3372    6.0183    3.7666 H   0  0  0  0  0  0  0  0  0  0  0  0
  1  2  2  0  0  0  0
  2  3  1  0  0  0  0
  3  4  1  0  0  0  0
  3 18  1  0  0  0  0
  3 30  1  1  0  0  0
  4  5  1  0  0  0  0
  4  7  1  0  0  0  0
  4 17  1  6  0  0  0
  5  6  1  0  0  0  0
  5  9  1  0  0  0  0
  5 31  1  6  0  0  0
  6  2  1  0  0  0  0
  7  8  1  0  0  0  0
  7 14  1  6  0  0  0
  7 28  1  0  0  0  0
  8  9  1  0  0  0  0
  8 10  1  0  0  0  0
  9 32  1  0  0  0  0
  9 33  1  0  0  0  0
 10 11  1  0  0  0  0
 10 15  1  0  0  0  0
 10 34  1  6  0  0  0
 11 12  1  0  0  0  0
 11 35  1  0  0  0  0
 11 36  1  0  0  0  0
 12 13  1  0  0  0  0
 12 19  1  0  0  0  0
 12 37  1  6  0  0  0
 13  8  1  0  0  0  0
 13 23  1  0  0  0  0
 14 15  1  0  0  0  0
 14 16  2  0  0  0  0
 17 38  1  0  0  0  0
 18 39  1  0  0  0  0
 18 40  1  0  0  0  0
 18 41  1  0  0  0  0
 19 20  1  0  0  0  0
 19 21  1  0  0  0  0
 19 22  1  0  0  0  0
 20 42  1  0  0  0  0
 20 43  1  0  0  0  0
 20 44  1  0  0  0  0
 21 45  1  0  0  0  0
 21 46  1  0  0  0  0
 21 47  1  0  0  0  0
 22 48  1  0  0  0  0
 22 49  1  0  0  0  0
 22 50  1  0  0  0  0
 23 24  1  0  0  0  0
 23 28  1  0  0  0  0
 23 51  1  6  0  0  0
 24 25  1  0  0  0  0
 25 26  1  0  0  0  0
 25 27  2  0  0  0  0
 26 13  1  0  0  0  0
 26 29  1  0  0  0  0
 26 52  1  1  0  0  0
 29 53  1  0  0  0  0
M  END
>  <Mol_ID>
854

>  <Formula>
C20H24O9

>  <MolWeight>
408.39916

>  <Cat>
S2026

>  <Name>
Ginkgolide A

>  <Synonyms>
BN52020

>  <Target>
GABA Receptor

>  <Form>
free base

>  <CAS>
15291-75-5

>  <URL>
http://selleckchem.com/products/ginkgolide-a.html

$$$$
