Ginkgolide B.cdx
 OpenBabel08302519533D

 54 59  0  0  0  0  0  0  0  0999 V2000
    0.3001   -0.3341   -0.0069 C   0  0  3  0  0  0  0  0  0  0  0  0
    1.6382   -0.0496    0.7031 C   0  0  1  0  0  0  0  0  0  0  0  0
    2.6894    0.4434   -0.3286 C   0  0  1  0  0  0  0  0  0  0  0  0
    2.0894    0.3795   -1.7199 C   0  0  1  0  0  0  0  0  0  0  0  0
    0.7384   -0.3926   -1.4892 C   0  0  2  0  0  0  0  0  0  0  0  0
    3.0688    1.7935   -0.0766 O   0  0  0  0  0  0  0  0  0  0  0  0
    2.7055    2.5928   -1.1268 C   0  0  0  0  0  0  0  0  0  0  0  0
    2.0236    1.8260   -2.2124 C   0  0  1  0  0  0  0  0  0  0  0  0
   -0.3773    0.1222   -2.1966 O   0  0  0  0  0  0  0  0  0  0  0  0
   -1.2818    0.8392   -1.3243 C   0  0  1  0  0  0  0  0  0  0  0  0
   -1.0650    0.4559    0.1664 C   0  0  3  0  0  0  0  0  0  0  0  0
   -2.1738   -0.6148    0.6775 C   0  0  1  0  0  0  0  0  0  0  0  0
   -1.6865   -1.8359   -0.0744 C   0  0  0  0  0  0  0  0  0  0  0  0
   -0.1884   -1.8021    0.1629 C   0  0  1  0  0  0  0  0  0  0  0  0
   -1.0764    2.2463   -1.4526 O   0  0  0  0  0  0  0  0  0  0  0  0
   -1.2790    2.8596   -0.2602 C   0  0  0  0  0  0  0  0  0  0  0  0
   -1.3999    1.7989    0.8190 C   0  0  2  0  0  0  0  0  0  0  0  0
    2.9056    3.7979   -1.1315 O   0  0  0  0  0  0  0  0  0  0  0  0
    2.7179    2.0867   -3.5708 C   0  0  0  0  0  0  0  0  0  0  0  0
    3.0672   -0.2493   -2.5763 O   0  0  0  0  0  0  0  0  0  0  0  0
    1.5194    0.8635    1.7686 O   0  0  0  0  0  0  0  0  0  0  0  0
    0.3945   -2.6552   -0.7834 O   0  0  0  0  0  0  0  0  0  0  0  0
    1.0647   -1.9001   -1.6672 C   0  0  0  0  0  0  0  0  0  0  0  0
    1.9331   -2.3927   -2.3711 O   0  0  0  0  0  0  0  0  0  0  0  0
   -2.4722   -0.9393    2.2379 C   0  0  0  0  0  0  0  0  0  0  0  0
   -3.1167    0.2263    3.0344 C   0  0  0  0  0  0  0  0  0  0  0  0
   -3.5224   -2.0922    2.3400 C   0  0  0  0  0  0  0  0  0  0  0  0
   -1.2402   -1.4011    3.0382 C   0  0  0  0  0  0  0  0  0  0  0  0
   -0.8813    1.9844    2.0986 O   0  0  0  0  0  0  0  0  0  0  0  0
   -1.4130    4.0588   -0.1035 O   0  0  0  0  0  0  0  0  0  0  0  0
    2.0279   -0.9883    1.1253 H   0  0  0  0  0  0  0  0  0  0  0  0
    3.6009   -0.1648   -0.2467 H   0  0  0  0  0  0  0  0  0  0  0  0
    1.0095    2.1918   -2.2910 H   0  0  0  0  0  0  0  0  0  0  0  0
   -2.2985    0.6396   -1.6743 H   0  0  0  0  0  0  0  0  0  0  0  0
   -3.1481   -0.3161    0.2590 H   0  0  0  0  0  0  0  0  0  0  0  0
   -2.1222   -2.7930    0.2068 H   0  0  0  0  0  0  0  0  0  0  0  0
   -1.9248   -1.7414   -1.1429 H   0  0  0  0  0  0  0  0  0  0  0  0
    0.0910   -2.1978    1.1322 H   0  0  0  0  0  0  0  0  0  0  0  0
   -2.4895    1.8253    0.9488 H   0  0  0  0  0  0  0  0  0  0  0  0
    2.3303    1.4206   -4.3505 H   0  0  0  0  0  0  0  0  0  0  0  0
    2.5478    3.1143   -3.9023 H   0  0  0  0  0  0  0  0  0  0  0  0
    3.8079    1.9514   -3.5119 H   0  0  0  0  0  0  0  0  0  0  0  0
    3.0556   -1.2287   -2.5211 H   0  0  0  0  0  0  0  0  0  0  0  0
    2.4192    1.1674    2.0022 H   0  0  0  0  0  0  0  0  0  0  0  0
   -3.9312   -0.1343    3.6845 H   0  0  0  0  0  0  0  0  0  0  0  0
   -2.4044    0.7019    3.7197 H   0  0  0  0  0  0  0  0  0  0  0  0
   -3.5732    0.9879    2.4088 H   0  0  0  0  0  0  0  0  0  0  0  0
   -3.2271   -3.0036    1.8147 H   0  0  0  0  0  0  0  0  0  0  0  0
   -3.6673   -2.3953    3.3846 H   0  0  0  0  0  0  0  0  0  0  0  0
   -4.4961   -1.7774    1.9484 H   0  0  0  0  0  0  0  0  0  0  0  0
   -0.9683   -2.4343    2.8014 H   0  0  0  0  0  0  0  0  0  0  0  0
   -0.3828   -0.7466    2.8652 H   0  0  0  0  0  0  0  0  0  0  0  0
   -1.4326   -1.3958    4.1171 H   0  0  0  0  0  0  0  0  0  0  0  0
   -0.2802    2.7505    2.0858 H   0  0  0  0  0  0  0  0  0  0  0  0
  1  2  1  0  0  0  0
  2  3  1  0  0  0  0
  2 31  1  1  0  0  0
  2 21  1  0  0  0  0
  3  4  1  0  0  0  0
  3  6  1  0  0  0  0
  3 32  1  1  0  0  0
  4  5  1  0  0  0  0
  4 20  1  6  0  0  0
  5  1  1  0  0  0  0
  5  9  1  6  0  0  0
  5 23  1  0  0  0  0
  6  7  1  0  0  0  0
  7  8  1  0  0  0  0
  7 18  2  0  0  0  0
  8  4  1  0  0  0  0
  8 19  1  0  0  0  0
  8 33  1  6  0  0  0
 10  9  1  0  0  0  0
 10 11  1  0  0  0  0
 10 15  1  0  0  0  0
 10 34  1  6  0  0  0
 11  1  1  0  0  0  0
 11 12  1  0  0  0  0
 12 13  1  0  0  0  0
 12 25  1  0  0  0  0
 12 35  1  6  0  0  0
 13 36  1  0  0  0  0
 13 37  1  0  0  0  0
 14 13  1  0  0  0  0
 14  1  1  0  0  0  0
 14 22  1  0  0  0  0
 14 38  1  1  0  0  0
 15 16  1  0  0  0  0
 16 17  1  0  0  0  0
 16 30  2  0  0  0  0
 17 11  1  0  0  0  0
 17 39  1  1  0  0  0
 17 29  1  0  0  0  0
 19 40  1  0  0  0  0
 19 41  1  0  0  0  0
 19 42  1  0  0  0  0
 20 43  1  0  0  0  0
 21 44  1  0  0  0  0
 22 23  1  0  0  0  0
 23 24  2  0  0  0  0
 25 26  1  0  0  0  0
 25 27  1  0  0  0  0
 25 28  1  0  0  0  0
 26 45  1  0  0  0  0
 26 46  1  0  0  0  0
 26 47  1  0  0  0  0
 27 48  1  0  0  0  0
 27 49  1  0  0  0  0
 27 50  1  0  0  0  0
 28 51  1  0  0  0  0
 28 52  1  0  0  0  0
 28 53  1  0  0  0  0
 29 54  1  0  0  0  0
M  END
>  <Mol_ID>
213

>  <Formula>
C20H24O10

>  <MolWeight>
424.39856

>  <Cat>
S1343

>  <Name>
Ginkgolide B

>  <Synonyms>
BN52021

>  <Target>
PAFR

>  <Form>
free base

>  <CAS>
15291-77-7

>  <URL>
http://selleckchem.com/products/Ginkgolide-B.html

$$$$
