GJ103 sodium salt
 OpenBabel08302521323D

 38 40  0  0  0  0  0  0  0  0999 V2000
    1.3516    0.0298    0.2641 S   0  0  0  0  0  0  0  0  0  0  0  0
    1.1667    1.8411    0.0956 C   0  0  0  0  0  0  0  0  0  0  0  0
    3.0783   -0.1508    0.1176 C   0  0  0  0  0  0  0  0  0  0  0  0
   -0.2878    2.2718    0.1309 C   0  0  0  0  0  0  0  0  0  0  0  0
    3.7803   -1.3493    0.0295 N   0  0  0  0  0  0  0  0  0  0  0  0
    3.9058    0.8602    0.2489 N   0  0  0  0  0  0  0  0  0  0  0  0
   -1.1427    1.3860    0.7029 O   0  0  0  0  0  0  0  0  0  0  0  0
   -0.6758    3.3606   -0.2714 O   0  0  0  0  0  0  0  0  0  0  0  0
    5.1229   -0.9391    0.0223 C   0  0  0  0  0  0  0  0  0  0  0  0
    3.2836   -2.6930   -0.0330 C   0  0  0  0  0  0  0  0  0  0  0  0
    5.1769    0.3682    0.2172 N   0  0  0  0  0  0  0  0  0  0  0  0
    6.2967   -1.7772   -0.2351 C   0  0  0  0  0  0  0  0  0  0  0  0
    2.1188   -3.0001   -0.7523 C   0  0  0  0  0  0  0  0  0  0  0  0
    4.0105   -3.7407    0.5558 C   0  0  0  0  0  0  0  0  0  0  0  0
    7.5003   -1.5681    0.4287 C   0  0  0  0  0  0  0  0  0  0  0  0
    6.1270   -2.7720   -1.1387 N   0  0  0  0  0  0  0  0  0  0  0  0
    1.7194   -4.3301   -0.9283 C   0  0  0  0  0  0  0  0  0  0  0  0
    3.6430   -5.0689    0.3438 C   0  0  0  0  0  0  0  0  0  0  0  0
    8.5539   -2.4494    0.1923 C   0  0  0  0  0  0  0  0  0  0  0  0
    7.1569   -3.6230   -1.3339 C   0  0  0  0  0  0  0  0  0  0  0  0
    0.6201   -4.7541   -1.6137 O   0  0  0  0  0  0  0  0  0  0  0  0
    2.5054   -5.3611   -0.4001 C   0  0  0  0  0  0  0  0  0  0  0  0
    8.3771   -3.5062   -0.6940 C   0  0  0  0  0  0  0  0  0  0  0  0
   -0.2848   -3.7514   -2.0611 C   0  0  0  0  0  0  0  0  0  0  0  0
    1.6835    2.3442    0.9175 H   0  0  0  0  0  0  0  0  0  0  0  0
    1.5860    2.1562   -0.8648 H   0  0  0  0  0  0  0  0  0  0  0  0
   -0.6845    0.5611    0.9667 H   0  0  0  0  0  0  0  0  0  0  0  0
    1.5618   -2.2184   -1.2505 H   0  0  0  0  0  0  0  0  0  0  0  0
    4.8965   -3.5570    1.1583 H   0  0  0  0  0  0  0  0  0  0  0  0
    7.6145   -0.7467    1.1299 H   0  0  0  0  0  0  0  0  0  0  0  0
    4.2560   -5.8737    0.7395 H   0  0  0  0  0  0  0  0  0  0  0  0
    9.5041   -2.3170    0.7027 H   0  0  0  0  0  0  0  0  0  0  0  0
    6.9604   -4.4341   -2.0300 H   0  0  0  0  0  0  0  0  0  0  0  0
    2.2293   -6.3964   -0.5828 H   0  0  0  0  0  0  0  0  0  0  0  0
    9.1712   -4.2192   -0.8849 H   0  0  0  0  0  0  0  0  0  0  0  0
   -0.6579   -3.1504   -1.2246 H   0  0  0  0  0  0  0  0  0  0  0  0
    0.1801   -3.1208   -2.8255 H   0  0  0  0  0  0  0  0  0  0  0  0
   -1.1421   -4.2532   -2.5196 H   0  0  0  0  0  0  0  0  0  0  0  0
  1  2  1  0  0  0  0
  1  3  1  0  0  0  0
  2  4  1  0  0  0  0
  2 25  1  0  0  0  0
  2 26  1  0  0  0  0
  3  5  1  0  0  0  0
  3  6  2  0  0  0  0
  4  7  1  0  0  0  0
  4  8  2  0  0  0  0
  5  9  1  0  0  0  0
  5 10  1  0  0  0  0
  6 11  1  0  0  0  0
  7 27  1  0  0  0  0
  9 11  2  0  0  0  0
  9 12  1  0  0  0  0
 10 13  2  0  0  0  0
 10 14  1  0  0  0  0
 12 15  2  0  0  0  0
 12 16  1  0  0  0  0
 13 17  1  0  0  0  0
 13 28  1  0  0  0  0
 14 18  2  0  0  0  0
 14 29  1  0  0  0  0
 15 19  1  0  0  0  0
 15 30  1  0  0  0  0
 16 20  2  0  0  0  0
 17 21  1  0  0  0  0
 17 22  2  0  0  0  0
 18 22  1  0  0  0  0
 18 31  1  0  0  0  0
 19 23  2  0  0  0  0
 19 32  1  0  0  0  0
 20 23  1  0  0  0  0
 20 33  1  0  0  0  0
 21 24  1  0  0  0  0
 22 34  1  0  0  0  0
 23 35  1  0  0  0  0
 24 36  1  0  0  0  0
 24 37  1  0  0  0  0
 24 38  1  0  0  0  0
M  END
>  <Mol_ID>
6165

>  <Formula>
C16H14N4NaO3S

>  <MolWeight>
365.36213

>  <Cat>
S0506

>  <Name>
GJ103 sodium salt

>  <Target>
Others

>  <Form>
Sodium salt

>  <CAS>
1459687-96-7

>  <URL>
http://www.selleckchem.com/products/gj103-sodium-salt.html

$$$$
