GJ103
 OpenBabel08302521273D

 38 40  0  0  0  0  0  0  0  0999 V2000
    0.7139   -0.1432    0.2347 S   0  0  0  0  0  0  0  0  0  0  0  0
   -5.1545   -1.6097    3.2721 O   0  0  0  0  0  0  0  0  0  0  0  0
    1.7473    2.3785    1.2448 O   0  0  0  0  0  0  0  0  0  0  0  0
    0.2259    2.6604    2.8810 O   0  0  0  0  0  0  0  0  0  0  0  0
   -1.0857   -2.2636    0.6224 N   0  0  0  0  0  0  0  0  0  0  0  0
    0.3398   -3.9555    0.4718 N   0  0  0  0  0  0  0  0  0  0  0  0
    1.0400   -2.7988    0.2769 N   0  0  0  0  0  0  0  0  0  0  0  0
   -3.2190   -4.2771    0.2369 N   0  0  0  0  0  0  0  0  0  0  0  0
   -2.2524   -1.5092    0.9455 C   0  0  0  0  0  0  0  0  0  0  0  0
   -0.9413   -3.6577    0.6237 C   0  0  0  0  0  0  0  0  0  0  0  0
    0.1930   -1.8006    0.3497 C   0  0  0  0  0  0  0  0  0  0  0  0
   -3.0881   -1.9480    1.9875 C   0  0  0  0  0  0  0  0  0  0  0  0
   -2.5678   -0.3326    0.2573 C   0  0  0  0  0  0  0  0  0  0  0  0
   -2.0156   -4.6465    0.7371 C   0  0  0  0  0  0  0  0  0  0  0  0
   -4.2493   -1.2492    2.3114 C   0  0  0  0  0  0  0  0  0  0  0  0
   -3.7066    0.3911    0.6112 C   0  0  0  0  0  0  0  0  0  0  0  0
   -4.5454   -0.0708    1.6265 C   0  0  0  0  0  0  0  0  0  0  0  0
   -1.8136   -5.8696    1.3678 C   0  0  0  0  0  0  0  0  0  0  0  0
    0.4470    0.4534    1.9342 C   0  0  0  0  0  0  0  0  0  0  0  0
   -2.9050   -6.7199    1.5407 C   0  0  0  0  0  0  0  0  0  0  0  0
   -4.2606   -5.1146    0.4242 C   0  0  0  0  0  0  0  0  0  0  0  0
   -4.1558   -6.3320    1.0732 C   0  0  0  0  0  0  0  0  0  0  0  0
   -4.9601   -2.8751    3.8952 C   0  0  0  0  0  0  0  0  0  0  0  0
    0.7617    1.9303    2.0563 C   0  0  0  0  0  0  0  0  0  0  0  0
    2.0600    1.6840    0.6272 H   0  0  0  0  0  0  0  0  0  0  0  0
   -2.8244   -2.8377    2.5483 H   0  0  0  0  0  0  0  0  0  0  0  0
   -1.9754    0.0256   -0.5799 H   0  0  0  0  0  0  0  0  0  0  0  0
   -3.9534    1.3099    0.0842 H   0  0  0  0  0  0  0  0  0  0  0  0
   -5.4431    0.4879    1.8801 H   0  0  0  0  0  0  0  0  0  0  0  0
   -0.8328   -6.1488    1.7405 H   0  0  0  0  0  0  0  0  0  0  0  0
   -0.5988    0.3211    2.2160 H   0  0  0  0  0  0  0  0  0  0  0  0
    1.0825   -0.0996    2.6328 H   0  0  0  0  0  0  0  0  0  0  0  0
   -2.7805   -7.6751    2.0447 H   0  0  0  0  0  0  0  0  0  0  0  0
   -5.2146   -4.7603    0.0425 H   0  0  0  0  0  0  0  0  0  0  0  0
   -5.0267   -6.9624    1.2091 H   0  0  0  0  0  0  0  0  0  0  0  0
   -5.0162   -3.6900    3.1654 H   0  0  0  0  0  0  0  0  0  0  0  0
   -4.0141   -2.9038    4.4460 H   0  0  0  0  0  0  0  0  0  0  0  0
   -5.7668   -3.0209    4.6194 H   0  0  0  0  0  0  0  0  0  0  0  0
  1 11  1  0  0  0  0
  1 19  1  0  0  0  0
  2 15  1  0  0  0  0
  2 23  1  0  0  0  0
  3 24  1  0  0  0  0
  3 25  1  0  0  0  0
  4 24  2  0  0  0  0
  5  9  1  0  0  0  0
  5 10  1  0  0  0  0
  5 11  1  0  0  0  0
  6  7  1  0  0  0  0
  6 10  2  0  0  0  0
  7 11  2  0  0  0  0
  8 14  2  0  0  0  0
  8 21  1  0  0  0  0
  9 12  2  0  0  0  0
  9 13  1  0  0  0  0
 10 14  1  0  0  0  0
 12 15  1  0  0  0  0
 12 26  1  0  0  0  0
 13 16  2  0  0  0  0
 13 27  1  0  0  0  0
 14 18  1  0  0  0  0
 15 17  2  0  0  0  0
 16 17  1  0  0  0  0
 16 28  1  0  0  0  0
 17 29  1  0  0  0  0
 18 20  2  0  0  0  0
 18 30  1  0  0  0  0
 19 24  1  0  0  0  0
 19 31  1  0  0  0  0
 19 32  1  0  0  0  0
 20 22  1  0  0  0  0
 20 33  1  0  0  0  0
 21 22  2  0  0  0  0
 21 34  1  0  0  0  0
 22 35  1  0  0  0  0
 23 36  1  0  0  0  0
 23 37  1  0  0  0  0
 23 38  1  0  0  0  0
M  END
>  <Mol_ID>
5363

>  <Formula>
C16H14N4O3S

>  <MolWeight>
342.37236

>  <Cat>
S0284

>  <Name>
GJ103

>  <Synonyms>
N/A

>  <Target>
Others

>  <Form>
Free Base

>  <CAS>
1459687-89-8

>  <URL>
https://www.selleckchem.com/products/gj103.html

$$$$
