glafenine hydrochloride.cdx
 OpenBabel08302519573D

 43 45  0  0  0  0  0  0  0  0999 V2000
    1.3864    1.6322   -0.1390 C   0  0  0  0  0  0  0  0  0  0  0  0
    0.6621    1.0096    0.8691 C   0  0  0  0  0  0  0  0  0  0  0  0
    0.0090   -0.1930    0.5973 C   0  0  0  0  0  0  0  0  0  0  0  0
    0.0721   -0.7939   -0.6837 C   0  0  0  0  0  0  0  0  0  0  0  0
    0.8142   -0.1485   -1.6992 C   0  0  0  0  0  0  0  0  0  0  0  0
    1.4521    1.0492   -1.4058 C   0  0  0  0  0  0  0  0  0  0  0  0
   -0.5868   -2.0061   -1.0174 C   0  0  0  0  0  0  0  0  0  0  0  0
   -0.4604   -2.4995   -2.3176 C   0  0  0  0  0  0  0  0  0  0  0  0
    0.2963   -1.7905   -3.2297 C   0  0  0  0  0  0  0  0  0  0  0  0
    0.9248   -0.6343   -2.9456 N   0  0  0  0  0  0  0  0  0  0  0  0
   -1.3932   -2.6620   -0.0539 N   0  0  0  0  0  0  0  0  0  0  0  0
   -2.4755   -3.5587   -0.2010 C   0  0  0  0  0  0  0  0  0  0  0  0
   -3.3623   -3.4127   -1.2830 C   0  0  0  0  0  0  0  0  0  0  0  0
   -4.4247   -4.2943   -1.4797 C   0  0  0  0  0  0  0  0  0  0  0  0
   -4.6046   -5.3637   -0.6111 C   0  0  0  0  0  0  0  0  0  0  0  0
   -3.7502   -5.5243    0.4820 C   0  0  0  0  0  0  0  0  0  0  0  0
   -2.7045   -4.6110    0.7186 C   0  0  0  0  0  0  0  0  0  0  0  0
   -1.8759   -4.7094    1.9624 C   0  0  0  0  0  0  0  0  0  0  0  0
   -2.3051   -5.7145    2.7637 O   0  0  0  0  0  0  0  0  0  0  0  0
   -0.9695   -3.9327    2.2413 O   0  0  0  0  0  0  0  0  0  0  0  0
   -1.6938   -5.8024    4.0624 C   0  0  0  0  0  0  0  0  0  0  0  0
   -2.3589   -4.8873    5.1107 C   0  0  3  0  0  0  0  0  0  0  0  0
   -2.2499   -3.5021    4.7498 O   0  0  0  0  0  0  0  0  0  0  0  0
   -3.8471   -5.1858    5.3456 C   0  0  0  0  0  0  0  0  0  0  0  0
   -4.6241   -4.9637    4.1719 O   0  0  0  0  0  0  0  0  0  0  0  0
    1.8957    2.5716    0.0532 H   0  0  0  0  0  0  0  0  0  0  0  0
    0.6007    1.4539    1.8574 H   0  0  0  0  0  0  0  0  0  0  0  0
   -0.5623   -0.6557    1.3989 H   0  0  0  0  0  0  0  0  0  0  0  0
    2.0152    1.5477   -2.1914 H   0  0  0  0  0  0  0  0  0  0  0  0
   -0.9171   -3.4343   -2.6206 H   0  0  0  0  0  0  0  0  0  0  0  0
    0.4194   -2.1446   -4.2493 H   0  0  0  0  0  0  0  0  0  0  0  0
   -0.9389   -2.7264    0.8617 H   0  0  0  0  0  0  0  0  0  0  0  0
   -3.2514   -2.5729   -1.9665 H   0  0  0  0  0  0  0  0  0  0  0  0
   -5.1126   -4.1366   -2.3068 H   0  0  0  0  0  0  0  0  0  0  0  0
   -5.4263   -6.0584   -0.7684 H   0  0  0  0  0  0  0  0  0  0  0  0
   -3.9287   -6.3588    1.1572 H   0  0  0  0  0  0  0  0  0  0  0  0
   -1.7779   -6.8454    4.3861 H   0  0  0  0  0  0  0  0  0  0  0  0
   -0.6253   -5.5786    3.9873 H   0  0  0  0  0  0  0  0  0  0  0  0
   -1.8310   -5.0100    6.0643 H   0  0  0  0  0  0  0  0  0  0  0  0
   -1.3459   -3.3564    4.4083 H   0  0  0  0  0  0  0  0  0  0  0  0
   -3.9959   -6.2187    5.6721 H   0  0  0  0  0  0  0  0  0  0  0  0
   -4.2460   -4.5179    6.1172 H   0  0  0  0  0  0  0  0  0  0  0  0
   -4.3620   -4.0771    3.8571 H   0  0  0  0  0  0  0  0  0  0  0  0
  1  2  2  0  0  0  0
  1 26  1  0  0  0  0
  2  3  1  0  0  0  0
  2 27  1  0  0  0  0
  3  4  2  0  0  0  0
  3 28  1  0  0  0  0
  4  5  1  0  0  0  0
  4  7  1  0  0  0  0
  5  6  2  0  0  0  0
  6  1  1  0  0  0  0
  6 29  1  0  0  0  0
  7  8  2  0  0  0  0
  7 11  1  0  0  0  0
  8  9  1  0  0  0  0
  8 30  1  0  0  0  0
  9 10  2  0  0  0  0
  9 31  1  0  0  0  0
 10  5  1  0  0  0  0
 11 12  1  0  0  0  0
 11 32  1  0  0  0  0
 12 13  2  0  0  0  0
 13 14  1  0  0  0  0
 13 33  1  0  0  0  0
 14 15  2  0  0  0  0
 14 34  1  0  0  0  0
 15 16  1  0  0  0  0
 15 35  1  0  0  0  0
 16 17  2  0  0  0  0
 16 36  1  0  0  0  0
 17 12  1  0  0  0  0
 17 18  1  0  0  0  0
 18 19  1  0  0  0  0
 18 20  2  0  0  0  0
 19 21  1  0  0  0  0
 21 22  1  0  0  0  0
 21 37  1  0  0  0  0
 21 38  1  0  0  0  0
 22 23  1  0  0  0  0
 22 24  1  0  0  0  0
 22 39  1  0  0  0  0
 23 40  1  0  0  0  0
 24 25  1  0  0  0  0
 24 41  1  0  0  0  0
 24 42  1  0  0  0  0
 25 43  1  0  0  0  0
M  END
>  <Mol_ID>
2290

>  <Formula>
C19H18Cl2N2O4

>  <MolWeight>
409.26322

>  <Cat>
S4362

>  <Name>
Glafenine HCl

>  <Synonyms>
N/A

>  <Target>
Others

>  <Form>
hydrochloride

>  <CAS>
65513-72-6

>  <URL>
http://www.selleckchem.com/products/glafenine-hcl.html

$$$$
