Glimepiride.cdx
 OpenBabel08302519533D

 68 70  0  0  0  0  0  0  0  0999 V2000
    1.4018   -0.0001    0.1193 C   0  0  0  0  0  0  0  0  0  0  0  0
    0.5630   -1.1197    0.0323 C   0  0  0  0  0  0  0  0  0  0  0  0
   -0.8272   -0.9099   -0.0523 C   0  0  0  0  0  0  0  0  0  0  0  0
   -1.3612    0.3826   -0.0136 C   0  0  0  0  0  0  0  0  0  0  0  0
   -0.5051    1.4787    0.1146 C   0  0  0  0  0  0  0  0  0  0  0  0
    0.8751    1.2920    0.1601 C   0  0  0  0  0  0  0  0  0  0  0  0
   -1.1438    3.1310    0.1286 S   0  0  0  0  0  0  0  0  0  0  0  0
   -1.3600    3.4450    1.7437 N   0  0  0  0  0  0  0  0  0  0  0  0
   -0.3818    3.5335    2.7237 C   0  0  0  0  0  0  0  0  0  0  0  0
   -0.9522    3.7200    3.9485 N   0  0  0  0  0  0  0  0  0  0  0  0
    0.8132    3.4475    2.5117 O   0  0  0  0  0  0  0  0  0  0  0  0
   -0.2352    3.9861    5.1919 C   0  0  2  0  0  0  0  0  0  0  0  0
    0.5842    2.7971    5.7105 C   0  0  0  0  0  0  0  0  0  0  0  0
   -0.2899    1.6067    6.1007 C   0  0  0  0  0  0  0  0  0  0  0  0
   -1.4495    1.9513    7.0525 C   0  0  2  0  0  0  0  0  0  0  0  0
   -2.1775    3.2490    6.6650 C   0  0  0  0  0  0  0  0  0  0  0  0
   -1.2369    4.3979    6.2802 C   0  0  0  0  0  0  0  0  0  0  0  0
   -1.0173    1.9697    8.5250 C   0  0  0  0  0  0  0  0  0  0  0  0
   -0.1620    4.0320   -0.4288 O   0  0  0  0  0  0  0  0  0  0  0  0
   -2.4881    3.0786   -0.4158 O   0  0  0  0  0  0  0  0  0  0  0  0
    1.1158   -2.5278   -0.0813 C   0  0  0  0  0  0  0  0  0  0  0  0
    4.1243   -5.7852   -0.6648 N   0  0  0  0  0  0  0  0  0  0  0  0
    3.7627   -4.4537   -0.5696 C   0  0  0  0  0  0  0  0  0  0  0  0
    2.9199   -4.1413    0.4640 N   0  0  0  0  0  0  0  0  0  0  0  0
    2.4275   -2.7921    0.6729 C   0  0  0  0  0  0  0  0  0  0  0  0
    5.0402   -6.1907   -1.6906 C   0  0  0  0  0  0  0  0  0  0  0  0
    5.0930   -7.6696   -1.5065 C   0  0  0  0  0  0  0  0  0  0  0  0
    4.3023   -8.0909   -0.5084 C   0  0  0  0  0  0  0  0  0  0  0  0
    3.6560   -6.8806    0.0557 C   0  0  0  0  0  0  0  0  0  0  0  0
    4.0088   -9.4669   -0.0228 C   0  0  0  0  0  0  0  0  0  0  0  0
    4.9492   -9.8940    1.0928 C   0  0  0  0  0  0  0  0  0  0  0  0
    5.9662   -8.4819   -2.3973 C   0  0  0  0  0  0  0  0  0  0  0  0
    2.8661   -6.8832    0.9881 O   0  0  0  0  0  0  0  0  0  0  0  0
    4.1716   -3.6087   -1.3648 O   0  0  0  0  0  0  0  0  0  0  0  0
    2.4832   -0.0999    0.1458 H   0  0  0  0  0  0  0  0  0  0  0  0
   -1.5013   -1.7570   -0.1675 H   0  0  0  0  0  0  0  0  0  0  0  0
   -2.4375    0.5209   -0.0990 H   0  0  0  0  0  0  0  0  0  0  0  0
    1.5469    2.1453    0.2238 H   0  0  0  0  0  0  0  0  0  0  0  0
   -2.3377    3.5545    1.9679 H   0  0  0  0  0  0  0  0  0  0  0  0
   -1.9531    3.8043    3.9670 H   0  0  0  0  0  0  0  0  0  0  0  0
    0.4489    4.8213    4.9912 H   0  0  0  0  0  0  0  0  0  0  0  0
    1.1559    3.1199    6.5915 H   0  0  0  0  0  0  0  0  0  0  0  0
    1.3214    2.4777    4.9654 H   0  0  0  0  0  0  0  0  0  0  0  0
    0.3415    0.8253    6.5424 H   0  0  0  0  0  0  0  0  0  0  0  0
   -0.7075    1.1709    5.1848 H   0  0  0  0  0  0  0  0  0  0  0  0
   -2.1779    1.1332    6.9628 H   0  0  0  0  0  0  0  0  0  0  0  0
   -2.8440    3.0337    5.8207 H   0  0  0  0  0  0  0  0  0  0  0  0
   -2.8333    3.5761    7.4814 H   0  0  0  0  0  0  0  0  0  0  0  0
   -0.6928    4.7374    7.1698 H   0  0  0  0  0  0  0  0  0  0  0  0
   -1.8367    5.2486    5.9331 H   0  0  0  0  0  0  0  0  0  0  0  0
   -1.6673    1.2987    9.1010 H   0  0  0  0  0  0  0  0  0  0  0  0
    0.0091    1.6198    8.6682 H   0  0  0  0  0  0  0  0  0  0  0  0
   -1.1063    2.9619    8.9777 H   0  0  0  0  0  0  0  0  0  0  0  0
    0.3658   -3.2376    0.2935 H   0  0  0  0  0  0  0  0  0  0  0  0
    1.2487   -2.7499   -1.1477 H   0  0  0  0  0  0  0  0  0  0  0  0
    2.5803   -4.9027    1.0472 H   0  0  0  0  0  0  0  0  0  0  0  0
    3.2114   -2.1002    0.3485 H   0  0  0  0  0  0  0  0  0  0  0  0
    2.2887   -2.6538    1.7502 H   0  0  0  0  0  0  0  0  0  0  0  0
    6.0118   -5.7134   -1.5269 H   0  0  0  0  0  0  0  0  0  0  0  0
    4.6483   -5.9092   -2.6731 H   0  0  0  0  0  0  0  0  0  0  0  0
    2.9710   -9.5347    0.3223 H   0  0  0  0  0  0  0  0  0  0  0  0
    4.0935  -10.1797   -0.8519 H   0  0  0  0  0  0  0  0  0  0  0  0
    4.8052   -9.2813    1.9884 H   0  0  0  0  0  0  0  0  0  0  0  0
    4.7624  -10.9385    1.3636 H   0  0  0  0  0  0  0  0  0  0  0  0
    5.9975   -9.8107    0.7855 H   0  0  0  0  0  0  0  0  0  0  0  0
    5.6723   -8.3482   -3.4428 H   0  0  0  0  0  0  0  0  0  0  0  0
    7.0096   -8.1684   -2.2887 H   0  0  0  0  0  0  0  0  0  0  0  0
    5.9163   -9.5501   -2.1680 H   0  0  0  0  0  0  0  0  0  0  0  0
  1  2  2  0  0  0  0
  1 35  1  0  0  0  0
  2  3  1  0  0  0  0
  2 21  1  0  0  0  0
  3  4  2  0  0  0  0
  3 36  1  0  0  0  0
  4  5  1  0  0  0  0
  4 37  1  0  0  0  0
  5  6  2  0  0  0  0
  5  7  1  0  0  0  0
  6  1  1  0  0  0  0
  6 38  1  0  0  0  0
  7  8  1  0  0  0  0
  7 19  2  0  0  0  0
  7 20  2  0  0  0  0
  8  9  1  0  0  0  0
  8 39  1  0  0  0  0
  9 10  1  0  0  0  0
  9 11  2  0  0  0  0
 10 40  1  0  0  0  0
 12 10  1  0  0  0  0
 12 13  1  0  0  0  0
 12 41  1  6  0  0  0
 13 14  1  0  0  0  0
 13 42  1  0  0  0  0
 13 43  1  0  0  0  0
 14 15  1  0  0  0  0
 14 44  1  0  0  0  0
 14 45  1  0  0  0  0
 15 16  1  0  0  0  0
 15 46  1  6  0  0  0
 15 18  1  0  0  0  0
 16 17  1  0  0  0  0
 16 47  1  0  0  0  0
 16 48  1  0  0  0  0
 17 12  1  0  0  0  0
 17 49  1  0  0  0  0
 17 50  1  0  0  0  0
 18 51  1  0  0  0  0
 18 52  1  0  0  0  0
 18 53  1  0  0  0  0
 21 54  1  0  0  0  0
 21 55  1  0  0  0  0
 22 23  1  0  0  0  0
 22 26  1  0  0  0  0
 23 24  1  0  0  0  0
 23 34  2  0  0  0  0
 24 25  1  0  0  0  0
 24 56  1  0  0  0  0
 25 21  1  0  0  0  0
 25 57  1  0  0  0  0
 25 58  1  0  0  0  0
 26 27  1  0  0  0  0
 26 59  1  0  0  0  0
 26 60  1  0  0  0  0
 27 28  2  0  0  0  0
 27 32  1  0  0  0  0
 28 29  1  0  0  0  0
 28 30  1  0  0  0  0
 29 22  1  0  0  0  0
 29 33  2  0  0  0  0
 30 31  1  0  0  0  0
 30 61  1  0  0  0  0
 30 62  1  0  0  0  0
 31 63  1  0  0  0  0
 31 64  1  0  0  0  0
 31 65  1  0  0  0  0
 32 66  1  0  0  0  0
 32 67  1  0  0  0  0
 32 68  1  0  0  0  0
M  END
>  <Mol_ID>
214

>  <Formula>
C24H34N4O5S

>  <MolWeight>
490.61556

>  <Cat>
S1344

>  <Name>
Glimepiride

>  <Synonyms>
HOE-490

>  <Target>
Potassium Channel

>  <Form>
free base

>  <CAS>
93479-97-1

>  <URL>
http://selleckchem.com/products/Glimepiride.html

$$$$
