GLIPIZIDE (glipizide).cdx
 OpenBabel08302520433D

 58 60  0  0  0  0  0  0  0  0999 V2000
    1.4792   -0.2755   -0.0381 C   0  0  0  0  0  0  0  0  0  0  0  0
    0.5670   -1.3342   -0.0121 C   0  0  0  0  0  0  0  0  0  0  0  0
   -0.7942   -1.0640   -0.0879 C   0  0  0  0  0  0  0  0  0  0  0  0
   -1.2801    0.2458   -0.1975 C   0  0  0  0  0  0  0  0  0  0  0  0
   -0.3455    1.2966   -0.2668 C   0  0  0  0  0  0  0  0  0  0  0  0
    1.0231    1.0448   -0.1398 C   0  0  0  0  0  0  0  0  0  0  0  0
    3.2083   -0.6005    0.1468 S   0  0  0  0  0  0  0  0  0  0  0  0
    3.7648   -0.7516   -1.4199 N   0  0  0  0  0  0  0  0  0  0  0  0
    3.8053    0.2786   -2.3417 C   0  0  0  0  0  0  0  0  0  0  0  0
    4.2655   -0.0796   -3.5802 N   0  0  0  0  0  0  0  0  0  0  0  0
    4.3948    0.8921   -4.6744 C   0  0  0  0  0  0  0  0  0  0  0  0
    3.1089    0.9911   -5.5182 C   0  0  0  0  0  0  0  0  0  0  0  0
    3.2679    1.8927   -6.7444 C   0  0  0  0  0  0  0  0  0  0  0  0
    4.4636    1.4698   -7.5895 C   0  0  0  0  0  0  0  0  0  0  0  0
    5.7427    1.4907   -6.7614 C   0  0  0  0  0  0  0  0  0  0  0  0
    5.6347    0.5865   -5.5331 C   0  0  0  0  0  0  0  0  0  0  0  0
    3.4505    1.4208   -2.0687 O   0  0  0  0  0  0  0  0  0  0  0  0
    3.8314    0.5431    0.7801 O   0  0  0  0  0  0  0  0  0  0  0  0
    3.3449   -1.9185    0.7345 O   0  0  0  0  0  0  0  0  0  0  0  0
   -2.7674    0.5395   -0.2824 C   0  0  0  0  0  0  0  0  0  0  0  0
   -3.6633   -0.4559    0.4740 C   0  0  0  0  0  0  0  0  0  0  0  0
   -5.0825   -0.1117    0.4071 N   0  0  0  0  0  0  0  0  0  0  0  0
   -5.9456   -0.5775   -0.5659 C   0  0  0  0  0  0  0  0  0  0  0  0
   -7.3760   -0.0848   -0.4848 C   0  0  0  0  0  0  0  0  0  0  0  0
   -5.6139   -1.3442   -1.4455 O   0  0  0  0  0  0  0  0  0  0  0  0
   -8.3081   -0.4897   -1.4376 C   0  0  0  0  0  0  0  0  0  0  0  0
   -9.6110   -0.1175   -1.3996 N   0  0  0  0  0  0  0  0  0  0  0  0
   -9.9801    0.6529   -0.3489 C   0  0  0  0  0  0  0  0  0  0  0  0
   -9.0487    1.0414    0.6138 C   0  0  0  0  0  0  0  0  0  0  0  0
   -7.7303    0.7107    0.5650 N   0  0  0  0  0  0  0  0  0  0  0  0
  -11.4244    1.0351   -0.2503 C   0  0  0  0  0  0  0  0  0  0  0  0
    0.9096   -2.3570    0.0815 H   0  0  0  0  0  0  0  0  0  0  0  0
   -1.4802   -1.9131   -0.0591 H   0  0  0  0  0  0  0  0  0  0  0  0
   -0.6703    2.3241   -0.4100 H   0  0  0  0  0  0  0  0  0  0  0  0
    1.7294    1.8751   -0.1324 H   0  0  0  0  0  0  0  0  0  0  0  0
    4.3778   -1.5549   -1.5287 H   0  0  0  0  0  0  0  0  0  0  0  0
    4.3952   -1.0614   -3.7805 H   0  0  0  0  0  0  0  0  0  0  0  0
    4.5562    1.8694   -4.2087 H   0  0  0  0  0  0  0  0  0  0  0  0
    2.7993   -0.0024   -5.8652 H   0  0  0  0  0  0  0  0  0  0  0  0
    2.2879    1.3716   -4.8975 H   0  0  0  0  0  0  0  0  0  0  0  0
    2.3575    1.8472   -7.3540 H   0  0  0  0  0  0  0  0  0  0  0  0
    3.3878    2.9376   -6.4313 H   0  0  0  0  0  0  0  0  0  0  0  0
    4.2970    0.4601   -7.9854 H   0  0  0  0  0  0  0  0  0  0  0  0
    4.5657    2.1375   -8.4529 H   0  0  0  0  0  0  0  0  0  0  0  0
    6.5865    1.1691   -7.3830 H   0  0  0  0  0  0  0  0  0  0  0  0
    5.9554    2.5202   -6.4465 H   0  0  0  0  0  0  0  0  0  0  0  0
    6.5381    0.7054   -4.9224 H   0  0  0  0  0  0  0  0  0  0  0  0
    5.6244   -0.4600   -5.8635 H   0  0  0  0  0  0  0  0  0  0  0  0
   -2.9497    1.5519    0.1051 H   0  0  0  0  0  0  0  0  0  0  0  0
   -3.0627    0.5416   -1.3366 H   0  0  0  0  0  0  0  0  0  0  0  0
   -3.5213   -1.4617    0.0684 H   0  0  0  0  0  0  0  0  0  0  0  0
   -3.3911   -0.4823    1.5390 H   0  0  0  0  0  0  0  0  0  0  0  0
   -5.4115    0.6974    0.9216 H   0  0  0  0  0  0  0  0  0  0  0  0
   -8.0506   -1.1566   -2.2517 H   0  0  0  0  0  0  0  0  0  0  0  0
   -9.3526    1.6254    1.4805 H   0  0  0  0  0  0  0  0  0  0  0  0
  -11.8790    0.5714    0.6306 H   0  0  0  0  0  0  0  0  0  0  0  0
  -11.5300    2.1225   -0.1882 H   0  0  0  0  0  0  0  0  0  0  0  0
  -11.9725    0.6924   -1.1349 H   0  0  0  0  0  0  0  0  0  0  0  0
  1  2  2  0  0  0  0
  1  7  1  0  0  0  0
  2  3  1  0  0  0  0
  2 32  1  0  0  0  0
  3  4  2  0  0  0  0
  3 33  1  0  0  0  0
  4  5  1  0  0  0  0
  4 20  1  0  0  0  0
  5  6  2  0  0  0  0
  5 34  1  0  0  0  0
  6  1  1  0  0  0  0
  6 35  1  0  0  0  0
  7  8  1  0  0  0  0
  7 18  2  0  0  0  0
  7 19  2  0  0  0  0
  8  9  1  0  0  0  0
  8 36  1  0  0  0  0
  9 10  1  0  0  0  0
  9 17  2  0  0  0  0
 10 11  1  0  0  0  0
 10 37  1  0  0  0  0
 11 12  1  0  0  0  0
 11 38  1  0  0  0  0
 12 13  1  0  0  0  0
 12 39  1  0  0  0  0
 12 40  1  0  0  0  0
 13 14  1  0  0  0  0
 13 41  1  0  0  0  0
 13 42  1  0  0  0  0
 14 15  1  0  0  0  0
 14 43  1  0  0  0  0
 14 44  1  0  0  0  0
 15 16  1  0  0  0  0
 15 45  1  0  0  0  0
 15 46  1  0  0  0  0
 16 11  1  0  0  0  0
 16 47  1  0  0  0  0
 16 48  1  0  0  0  0
 20 21  1  0  0  0  0
 20 49  1  0  0  0  0
 20 50  1  0  0  0  0
 21 22  1  0  0  0  0
 21 51  1  0  0  0  0
 21 52  1  0  0  0  0
 22 23  1  0  0  0  0
 22 53  1  0  0  0  0
 23 24  1  0  0  0  0
 23 25  2  0  0  0  0
 24 26  2  0  0  0  0
 26 27  1  0  0  0  0
 26 54  1  0  0  0  0
 27 28  2  0  0  0  0
 28 29  1  0  0  0  0
 28 31  1  0  0  0  0
 29 30  2  0  0  0  0
 29 55  1  0  0  0  0
 30 24  1  0  0  0  0
 31 56  1  0  0  0  0
 31 57  1  0  0  0  0
 31 58  1  0  0  0  0
M  END
>  <Mol_ID>
408

>  <Formula>
C21H27N5O4S

>  <MolWeight>
445.53518

>  <Cat>
S1715

>  <Name>
Glipizide

>  <Synonyms>
CP-28720,K 4024

>  <Target>
Potassium Channel

>  <Form>
free base

>  <CAS>
29094-61-9

>  <URL>
http://selleckchem.com/products/Glipizide(Glucotrol).html

$$$$
