GLPG1837.cdx
 OpenBabel08302520433D

 44 46  0  0  0  0  0  0  0  0999 V2000
   -1.9984    1.0127    0.3949 C   0  0  0  0  0  0  0  0  0  0  0  0
   -2.2444   -0.3432   -0.0266 O   0  0  0  0  0  0  0  0  0  0  0  0
   -1.2635   -1.3659    0.2704 C   0  0  0  0  0  0  0  0  0  0  0  0
    0.1265   -0.7807    0.1888 C   0  0  0  0  0  0  0  0  0  0  0  0
    0.4345    0.5299   -0.1158 C   0  0  0  0  0  0  0  0  0  0  0  0
   -0.6668    1.5547   -0.2015 C   0  0  0  0  0  0  0  0  0  0  0  0
    1.5305   -1.6802    0.5123 S   0  0  0  0  0  0  0  0  0  0  0  0
    2.5444   -0.4309   -0.0525 C   0  0  0  0  0  0  0  0  0  0  0  0
    1.8516    0.7117   -0.4215 C   0  0  0  0  0  0  0  0  0  0  0  0
    2.3968    1.9730   -0.9176 C   0  0  0  0  0  0  0  0  0  0  0  0
    3.8679   -0.8025    0.0652 N   0  0  0  0  0  0  0  0  0  0  0  0
    4.7311   -0.8940   -1.0103 C   0  0  0  0  0  0  0  0  0  0  0  0
    4.5539   -0.4188   -2.1280 O   0  0  0  0  0  0  0  0  0  0  0  0
    5.9090   -1.7282   -0.6865 C   0  0  0  0  0  0  0  0  0  0  0  0
    3.3766    1.8901   -1.8597 N   0  0  0  0  0  0  0  0  0  0  0  0
    1.9541    3.0685   -0.5979 O   0  0  0  0  0  0  0  0  0  0  0  0
   -3.1740    1.8269   -0.1750 C   0  0  0  0  0  0  0  0  0  0  0  0
   -1.5741   -2.0213    1.6190 C   0  0  0  0  0  0  0  0  0  0  0  0
   -1.4575   -2.4120   -0.8423 C   0  0  0  0  0  0  0  0  0  0  0  0
   -2.0612    1.1422    1.9246 C   0  0  0  0  0  0  0  0  0  0  0  0
    7.0400   -1.9906   -1.5022 C   0  0  0  0  0  0  0  0  0  0  0  0
    7.8296   -2.8418   -0.7686 C   0  0  0  0  0  0  0  0  0  0  0  0
    7.1699   -3.0494    0.4048 N   0  0  0  0  0  0  0  0  0  0  0  0
    5.9999   -2.3907    0.4876 N   0  0  0  0  0  0  0  0  0  0  0  0
   -0.7999    1.8093   -1.2598 H   0  0  0  0  0  0  0  0  0  0  0  0
   -0.3807    2.4711    0.3288 H   0  0  0  0  0  0  0  0  0  0  0  0
    4.0558   -1.5467    0.7366 H   0  0  0  0  0  0  0  0  0  0  0  0
    3.6816    2.7366   -2.3172 H   0  0  0  0  0  0  0  0  0  0  0  0
    3.6839    0.9998   -2.2460 H   0  0  0  0  0  0  0  0  0  0  0  0
   -4.1327    1.4011    0.1458 H   0  0  0  0  0  0  0  0  0  0  0  0
   -3.1374    2.8742    0.1441 H   0  0  0  0  0  0  0  0  0  0  0  0
   -3.1785    1.8007   -1.2704 H   0  0  0  0  0  0  0  0  0  0  0  0
   -2.6338   -2.2921    1.6813 H   0  0  0  0  0  0  0  0  0  0  0  0
   -0.9799   -2.9285    1.7756 H   0  0  0  0  0  0  0  0  0  0  0  0
   -1.3652   -1.3620    2.4641 H   0  0  0  0  0  0  0  0  0  0  0  0
   -1.2307   -1.9854   -1.8275 H   0  0  0  0  0  0  0  0  0  0  0  0
   -0.8190   -3.2910   -0.7016 H   0  0  0  0  0  0  0  0  0  0  0  0
   -2.4997   -2.7492   -0.8832 H   0  0  0  0  0  0  0  0  0  0  0  0
   -1.1471    0.7843    2.4051 H   0  0  0  0  0  0  0  0  0  0  0  0
   -2.1970    2.1832    2.2377 H   0  0  0  0  0  0  0  0  0  0  0  0
   -2.8967    0.5562    2.3280 H   0  0  0  0  0  0  0  0  0  0  0  0
    7.2379   -1.6059   -2.4931 H   0  0  0  0  0  0  0  0  0  0  0  0
    8.7816   -3.3127   -0.9742 H   0  0  0  0  0  0  0  0  0  0  0  0
    7.4556   -3.6289    1.1892 H   0  0  0  0  0  0  0  0  0  0  0  0
  1  2  1  0  0  0  0
  1 17  1  0  0  0  0
  1 20  1  0  0  0  0
  2  3  1  0  0  0  0
  3  4  1  0  0  0  0
  3 18  1  0  0  0  0
  3 19  1  0  0  0  0
  4  5  2  0  0  0  0
  4  7  1  0  0  0  0
  5  6  1  0  0  0  0
  6  1  1  0  0  0  0
  6 25  1  0  0  0  0
  6 26  1  0  0  0  0
  7  8  1  0  0  0  0
  8  9  2  0  0  0  0
  8 11  1  0  0  0  0
  9  5  1  0  0  0  0
  9 10  1  0  0  0  0
 10 15  1  0  0  0  0
 10 16  2  0  0  0  0
 11 12  1  0  0  0  0
 11 27  1  0  0  0  0
 12 13  2  0  0  0  0
 12 14  1  0  0  0  0
 14 21  1  0  0  0  0
 15 28  1  0  0  0  0
 15 29  1  0  0  0  0
 17 30  1  0  0  0  0
 17 31  1  0  0  0  0
 17 32  1  0  0  0  0
 18 33  1  0  0  0  0
 18 34  1  0  0  0  0
 18 35  1  0  0  0  0
 19 36  1  0  0  0  0
 19 37  1  0  0  0  0
 19 38  1  0  0  0  0
 20 39  1  0  0  0  0
 20 40  1  0  0  0  0
 20 41  1  0  0  0  0
 21 22  2  0  0  0  0
 21 42  1  0  0  0  0
 22 23  1  0  0  0  0
 22 43  1  0  0  0  0
 23 24  1  0  0  0  0
 23 44  1  0  0  0  0
 24 14  2  0  0  0  0
M  END
>  <Mol_ID>
4208

>  <Formula>
C16H20N4O3S

>  <MolWeight>
348.42

>  <Cat>
S8698

>  <Name>
GLPG1837

>  <Synonyms>
ABBV-974

>  <Target>
CFTR

>  <Form>
free base

>  <CAS>
1654725-02-6

>  <URL>
http://selleckchem.com/products/glpg1837.html

$$$$
