Gluconolactone
 OpenBabel08302520323D

 22 22  0  0  0  0  0  0  0  0999 V2000
    0.7667    1.1890   -0.2644 C   0  0  3  0  0  0  0  0  0  0  0  0
    1.4919   -0.0776    0.2065 C   0  0  2  0  0  0  0  0  0  0  0  0
    0.7232   -1.2976   -0.2963 C   0  0  2  0  0  0  0  0  0  0  0  0
   -0.7200   -1.2460    0.2124 C   0  0  3  0  0  0  0  0  0  0  0  0
   -1.3615    0.0734   -0.2093 C   0  0  0  0  0  0  0  0  0  0  0  0
   -0.6368    1.1921    0.0982 O   0  0  0  0  0  0  0  0  0  0  0  0
   -2.4696    0.1607   -0.7300 O   0  0  0  0  0  0  0  0  0  0  0  0
    1.3974    2.4848    0.2532 C   0  0  0  0  0  0  0  0  0  0  0  0
    1.4030    2.5576    1.6771 O   0  0  0  0  0  0  0  0  0  0  0  0
   -1.4449   -2.3894   -0.2454 O   0  0  0  0  0  0  0  0  0  0  0  0
    1.3940   -2.4815    0.1607 O   0  0  0  0  0  0  0  0  0  0  0  0
    1.5662   -0.1896    1.6334 O   0  0  0  0  0  0  0  0  0  0  0  0
    0.7971    1.2283   -1.3638 H   0  0  0  0  0  0  0  0  0  0  0  0
    2.5211   -0.0997   -0.1678 H   0  0  0  0  0  0  0  0  0  0  0  0
    0.7349   -1.3345   -1.3914 H   0  0  0  0  0  0  0  0  0  0  0  0
   -0.7557   -1.2983    1.3061 H   0  0  0  0  0  0  0  0  0  0  0  0
    2.4435    2.5503   -0.0811 H   0  0  0  0  0  0  0  0  0  0  0  0
    0.8618    3.3631   -0.1226 H   0  0  0  0  0  0  0  0  0  0  0  0
    0.4784    2.7150    1.9517 H   0  0  0  0  0  0  0  0  0  0  0  0
   -1.6145   -2.2762   -1.1966 H   0  0  0  0  0  0  0  0  0  0  0  0
    1.3905   -2.4309    1.1379 H   0  0  0  0  0  0  0  0  0  0  0  0
    2.2397    0.4514    1.9400 H   0  0  0  0  0  0  0  0  0  0  0  0
  1  2  1  0  0  0  0
  1  6  1  0  0  0  0
  1  8  1  0  0  0  0
  1 13  1  0  0  0  0
  2  3  1  0  0  0  0
  2 14  1  6  0  0  0
  2 12  1  0  0  0  0
  3  4  1  0  0  0  0
  3 15  1  6  0  0  0
  3 11  1  0  0  0  0
  4 10  1  0  0  0  0
  4 16  1  0  0  0  0
  5  4  1  0  0  0  0
  5  6  1  0  0  0  0
  5  7  2  0  0  0  0
  8  9  1  0  0  0  0
  8 17  1  0  0  0  0
  8 18  1  0  0  0  0
  9 19  1  0  0  0  0
 10 20  1  0  0  0  0
 11 21  1  0  0  0  0
 12 22  1  0  0  0  0
M  END
>  <Mol_ID>
3337

>  <Formula>
C6H10O6

>  <MolWeight>
178.14

>  <Cat>
S4676

>  <Name>
Gluconolactone

>  <Synonyms>
N/A

>  <Target>
Others

>  <Form>
Free Base

>  <CAS>
90-80-2

>  <URL>
http://www.selleckchem.com/products/gluconolactone.html

$$$$
