Glucovanillin
 OpenBabel08302521503D

 40 41  0  0  1  0  0  0  0  0999 V2000
    3.0182    1.5039    0.6280 O   0  0  0  0  0  0  0  0  0  0  0  0
    4.7830    3.9391    0.1573 O   0  0  0  0  0  0  0  0  0  0  0  0
    3.6079    4.3949    0.8102 C   0  0  0  0  0  0  0  0  0  0  0  0
    8.4388    0.9455   -0.7659 C   0  0  0  0  0  0  0  0  0  0  0  0
    8.8511   -0.1762   -1.0241 O   0  0  0  0  0  0  0  0  0  0  0  0
    1.9109    1.0921   -2.2574 O   0  0  0  0  0  0  0  0  0  0  0  0
    3.1098   -3.1093    1.2878 C   0  0  0  0  0  0  0  0  0  0  0  0
    2.3544   -3.1997    2.4919 O   0  0  0  0  0  0  0  0  0  0  0  0
    3.5161   -1.2789   -3.2413 O   0  0  0  0  0  0  0  0  0  0  0  0
    2.9195   -3.5852   -1.6468 O   0  0  0  0  0  0  0  0  0  0  0  0
    4.4008    1.4881    0.5602 C   0  0  0  0  0  0  0  0  0  0  0  0
    5.1589    2.6283    0.2456 C   0  0  0  0  0  0  0  0  0  0  0  0
    5.0721    0.2613    0.6679 C   0  0  0  0  0  0  0  0  0  0  0  0
    6.5106    2.4510   -0.1345 C   0  0  0  0  0  0  0  0  0  0  0  0
    6.3562    0.0744    0.1906 C   0  0  0  0  0  0  0  0  0  0  0  0
    7.0758    1.1751   -0.2291 C   0  0  0  0  0  0  0  0  0  0  0  0
    2.3553    0.3271    0.0142 C   0  0  2  0  0  0  0  0  0  0  0  0
    2.5087   -0.8322    0.8477 O   0  0  0  0  0  0  0  0  0  0  0  0
    2.7561    0.2010   -1.4888 C   0  0  1  0  0  0  0  0  0  0  0  0
    2.4330   -2.1448    0.2717 C   0  0  1  0  0  0  0  0  0  0  0  0
    2.7009   -1.2198   -2.0562 C   0  0  2  0  0  0  0  0  0  0  0  0
    3.1538   -2.2757   -1.0686 C   0  0  2  0  0  0  0  0  0  0  0  0
    2.7174    4.1272    0.2381 H   0  0  0  0  0  0  0  0  0  0  0  0
    3.5445    4.0598    1.8488 H   0  0  0  0  0  0  0  0  0  0  0  0
    3.6608    5.4903    0.8291 H   0  0  0  0  0  0  0  0  0  0  0  0
    9.0569    1.8406   -0.9201 H   0  0  0  0  0  0  0  0  0  0  0  0
    1.4746    0.5823   -2.9631 H   0  0  0  0  0  0  0  0  0  0  0  0
    3.2152   -4.1188    0.8817 H   0  0  0  0  0  0  0  0  0  0  0  0
    4.1107   -2.7554    1.5620 H   0  0  0  0  0  0  0  0  0  0  0  0
    2.3245   -2.3000    2.8662 H   0  0  0  0  0  0  0  0  0  0  0  0
    4.2463   -1.9148   -3.0916 H   0  0  0  0  0  0  0  0  0  0  0  0
    1.9671   -3.6694   -1.8528 H   0  0  0  0  0  0  0  0  0  0  0  0
    4.5927   -0.6154    1.0647 H   0  0  0  0  0  0  0  0  0  0  0  0
    7.0947    3.3288   -0.4023 H   0  0  0  0  0  0  0  0  0  0  0  0
    6.7696   -0.9280    0.1323 H   0  0  0  0  0  0  0  0  0  0  0  0
    1.2862    0.5728    0.0503 H   0  0  0  0  0  0  0  0  0  0  0  0
    3.7628    0.5883   -1.6673 H   0  0  0  0  0  0  0  0  0  0  0  0
    1.3715   -2.4166    0.1950 H   0  0  0  0  0  0  0  0  0  0  0  0
    1.6894   -1.4483   -2.4149 H   0  0  0  0  0  0  0  0  0  0  0  0
    4.2464   -2.2061   -0.9263 H   0  0  0  0  0  0  0  0  0  0  0  0
  1 11  1  0  0  0  0
  2  3  1  0  0  0  0
  2 12  1  0  0  0  0
  3 23  1  0  0  0  0
  3 24  1  0  0  0  0
  3 25  1  0  0  0  0
  4  5  2  0  0  0  0
  4 16  1  0  0  0  0
  4 26  1  0  0  0  0
  6 27  1  0  0  0  0
  7  8  1  0  0  0  0
  7 28  1  0  0  0  0
  7 29  1  0  0  0  0
  8 30  1  0  0  0  0
  9 31  1  0  0  0  0
 10 32  1  0  0  0  0
 11 12  2  0  0  0  0
 11 13  1  0  0  0  0
 12 14  1  0  0  0  0
 13 15  2  0  0  0  0
 13 33  1  0  0  0  0
 14 16  2  0  0  0  0
 14 34  1  0  0  0  0
 15 16  1  0  0  0  0
 15 35  1  0  0  0  0
 17 18  1  0  0  0  0
 17 19  1  0  0  0  0
 17 36  1  1  0  0  0
 17  1  1  0  0  0  0
 18 20  1  0  0  0  0
 19  6  1  0  0  0  0
 19 21  1  0  0  0  0
 19 37  1  6  0  0  0
 20  7  1  0  0  0  0
 20 22  1  0  0  0  0
 20 38  1  6  0  0  0
 21  9  1  0  0  0  0
 21 22  1  0  0  0  0
 21 39  1  6  0  0  0
 22 10  1  0  0  0  0
 22 40  1  1  0  0  0
M  END
>  <Mol_ID>
9936

>  <Formula>
C14H18O8

>  <MolWeight>
314.28792

>  <Cat>
E5163

>  <Name>
Glucovanillin

>  <Synonyms>
N/A

>  <Target>
Lipase

>  <Form>
free base

>  <CAS>
494-08-6

>  <URL>
https://www.selleckchem.com/products/glucovanillin.html

$$$$
