Glutaric acid
 OpenBabel08302521293D

 17 16  0  0  0  0  0  0  0  0999 V2000
    0.9104    1.8484    0.3481 O   0  0  0  0  0  0  0  0  0  0  0  0
   -1.0924   -3.1963   -2.2912 O   0  0  0  0  0  0  0  0  0  0  0  0
    1.1822    0.4668   -1.3872 O   0  0  0  0  0  0  0  0  0  0  0  0
   -2.9737   -3.1379   -1.0428 O   0  0  0  0  0  0  0  0  0  0  0  0
   -1.6194   -0.2123   -1.3498 C   0  0  0  0  0  0  0  0  0  0  0  0
   -1.0729    1.0363   -0.6595 C   0  0  0  0  0  0  0  0  0  0  0  0
   -1.2572   -1.5015   -0.6155 C   0  0  0  0  0  0  0  0  0  0  0  0
    0.4309    1.0620   -0.6330 C   0  0  0  0  0  0  0  0  0  0  0  0
   -1.8711   -2.6890   -1.3103 C   0  0  0  0  0  0  0  0  0  0  0  0
    1.8857    1.7899    0.2651 H   0  0  0  0  0  0  0  0  0  0  0  0
   -0.2432   -2.7279   -2.4087 H   0  0  0  0  0  0  0  0  0  0  0  0
   -2.7120   -0.1286   -1.4107 H   0  0  0  0  0  0  0  0  0  0  0  0
   -1.2564   -0.2602   -2.3842 H   0  0  0  0  0  0  0  0  0  0  0  0
   -1.4521    1.0824    0.3674 H   0  0  0  0  0  0  0  0  0  0  0  0
   -1.4117    1.9311   -1.1939 H   0  0  0  0  0  0  0  0  0  0  0  0
   -0.1731   -1.6495   -0.5465 H   0  0  0  0  0  0  0  0  0  0  0  0
   -1.6268   -1.4822    0.4159 H   0  0  0  0  0  0  0  0  0  0  0  0
  1  8  1  0  0  0  0
  1 10  1  0  0  0  0
  2  9  1  0  0  0  0
  2 11  1  0  0  0  0
  3  8  2  0  0  0  0
  4  9  2  0  0  0  0
  5  6  1  0  0  0  0
  5  7  1  0  0  0  0
  5 12  1  0  0  0  0
  5 13  1  0  0  0  0
  6  8  1  0  0  0  0
  6 14  1  0  0  0  0
  6 15  1  0  0  0  0
  7  9  1  0  0  0  0
  7 16  1  0  0  0  0
  7 17  1  0  0  0  0
M  END
>  <Mol_ID>
5468

>  <Formula>
C5H8O4

>  <MolWeight>
132.11462

>  <Cat>
S3152

>  <Name>
Glutaric acid

>  <Synonyms>
GA

>  <Target>
Others

>  <Form>
Free Base

>  <CAS>
110-94-1

>  <URL>
https://www.selleckchem.com/products/glutaric-acid.html

$$$$
