GLYBURIDE (glyburide).cdx
 OpenBabel08302520433D

 61 63  0  0  0  0  0  0  0  0999 V2000
    0.4107    6.1826   -6.5203 C   0  0  0  0  0  0  0  0  0  0  0  0
   -0.3099    5.0389   -7.2305 C   0  0  0  0  0  0  0  0  0  0  0  0
    0.5057    3.7494   -7.1976 C   0  0  0  0  0  0  0  0  0  0  0  0
    0.8850    3.3651   -5.7708 C   0  0  0  0  0  0  0  0  0  0  0  0
    1.6282    4.5058   -5.0745 C   0  0  0  0  0  0  0  0  0  0  0  0
    0.8038    5.8011   -5.0923 C   0  0  0  0  0  0  0  0  0  0  0  0
    2.0050    4.1127   -3.7247 N   0  0  0  0  0  0  0  0  0  0  0  0
    3.0904    4.6705   -3.1186 C   0  0  0  0  0  0  0  0  0  0  0  0
    3.3008    4.1976   -1.8376 N   0  0  0  0  0  0  0  0  0  0  0  0
    4.5326    4.6958   -0.8357 S   0  0  0  0  0  0  0  0  0  0  0  0
    3.7974    5.5195   -3.6441 O   0  0  0  0  0  0  0  0  0  0  0  0
    4.2061    6.4140   -0.5028 C   0  0  0  0  0  0  0  0  0  0  0  0
    3.4693    6.8290    0.6086 C   0  0  0  0  0  0  0  0  0  0  0  0
    3.3509    8.2015    0.8907 C   0  0  0  0  0  0  0  0  0  0  0  0
    4.0121    9.1576    0.1067 C   0  0  0  0  0  0  0  0  0  0  0  0
    4.7834    8.7104   -0.9812 C   0  0  0  0  0  0  0  0  0  0  0  0
    4.8522    7.3560   -1.3009 C   0  0  0  0  0  0  0  0  0  0  0  0
    4.3319    3.9752    0.4026 O   0  0  0  0  0  0  0  0  0  0  0  0
    5.7914    4.5820   -1.5455 O   0  0  0  0  0  0  0  0  0  0  0  0
    3.8408   10.6505    0.3064 C   0  0  0  0  0  0  0  0  0  0  0  0
    3.4777   11.1743    1.7083 C   0  0  0  0  0  0  0  0  0  0  0  0
    4.4298   10.8710    2.7603 N   0  0  0  0  0  0  0  0  0  0  0  0
    5.7469   11.3246    2.7270 C   0  0  0  0  0  0  0  0  0  0  0  0
    6.5802   11.0425    3.9542 C   0  0  0  0  0  0  0  0  0  0  0  0
    6.1811   11.8846    1.7425 O   0  0  0  0  0  0  0  0  0  0  0  0
    7.6744   11.8094    4.4072 C   0  0  0  0  0  0  0  0  0  0  0  0
    8.4094   11.3685    5.5314 C   0  0  0  0  0  0  0  0  0  0  0  0
    8.0460   10.2288    6.2445 C   0  0  0  0  0  0  0  0  0  0  0  0
    6.9548    9.4845    5.8215 C   0  0  0  0  0  0  0  0  0  0  0  0
    6.2546    9.8734    4.6811 C   0  0  0  0  0  0  0  0  0  0  0  0
    8.2032   12.9768    3.9190 O   0  0  0  0  0  0  0  0  0  0  0  0
    7.3122   13.9242    3.3448 C   0  0  0  0  0  0  0  0  0  0  0  0
    1.3121    6.4507   -7.0854 H   0  0  0  0  0  0  0  0  0  0  0  0
   -0.2303    7.0710   -6.5049 H   0  0  0  0  0  0  0  0  0  0  0  0
   -1.2805    4.8672   -6.7496 H   0  0  0  0  0  0  0  0  0  0  0  0
   -0.5119    5.3196   -8.2702 H   0  0  0  0  0  0  0  0  0  0  0  0
   -0.0638    2.9364   -7.6602 H   0  0  0  0  0  0  0  0  0  0  0  0
    1.4185    3.8799   -7.7926 H   0  0  0  0  0  0  0  0  0  0  0  0
   -0.0179    3.1004   -5.2055 H   0  0  0  0  0  0  0  0  0  0  0  0
    1.5163    2.4680   -5.7881 H   0  0  0  0  0  0  0  0  0  0  0  0
    2.5576    4.6925   -5.6295 H   0  0  0  0  0  0  0  0  0  0  0  0
    1.3739    6.6239   -4.6439 H   0  0  0  0  0  0  0  0  0  0  0  0
   -0.1010    5.6824   -4.4829 H   0  0  0  0  0  0  0  0  0  0  0  0
    1.3363    3.6173   -3.1533 H   0  0  0  0  0  0  0  0  0  0  0  0
    2.9527    3.2818   -1.5844 H   0  0  0  0  0  0  0  0  0  0  0  0
    2.9863    6.1084    1.2671 H   0  0  0  0  0  0  0  0  0  0  0  0
    2.7416    8.5103    1.7353 H   0  0  0  0  0  0  0  0  0  0  0  0
    5.3448    9.4108   -1.5988 H   0  0  0  0  0  0  0  0  0  0  0  0
    5.4214    7.0374   -2.1734 H   0  0  0  0  0  0  0  0  0  0  0  0
    4.7436   11.1663   -0.0463 H   0  0  0  0  0  0  0  0  0  0  0  0
    3.0365   10.9650   -0.3701 H   0  0  0  0  0  0  0  0  0  0  0  0
    3.3645   12.2541    1.6663 H   0  0  0  0  0  0  0  0  0  0  0  0
    2.5127   10.7644    2.0323 H   0  0  0  0  0  0  0  0  0  0  0  0
    4.0816   10.3771    3.5641 H   0  0  0  0  0  0  0  0  0  0  0  0
    9.2660   11.9472    5.8754 H   0  0  0  0  0  0  0  0  0  0  0  0
    8.6034    9.9288    7.1257 H   0  0  0  0  0  0  0  0  0  0  0  0
    6.6493    8.5995    6.3693 H   0  0  0  0  0  0  0  0  0  0  0  0
    5.4515    9.2192    4.3585 H   0  0  0  0  0  0  0  0  0  0  0  0
    7.0562   13.6475    2.3369 H   0  0  0  0  0  0  0  0  0  0  0  0
    6.4228   14.0864    3.9711 H   0  0  0  0  0  0  0  0  0  0  0  0
    7.8393   14.8664    3.2300 H   0  0  0  0  0  0  0  0  0  0  0  0
  1  2  1  0  0  0  0
  1 33  1  0  0  0  0
  1 34  1  0  0  0  0
  2  3  1  0  0  0  0
  2 35  1  0  0  0  0
  2 36  1  0  0  0  0
  3  4  1  0  0  0  0
  3 37  1  0  0  0  0
  3 38  1  0  0  0  0
  4  5  1  0  0  0  0
  4 39  1  0  0  0  0
  4 40  1  0  0  0  0
  5  6  1  0  0  0  0
  5  7  1  0  0  0  0
  5 41  1  0  0  0  0
  6  1  1  0  0  0  0
  6 42  1  0  0  0  0
  6 43  1  0  0  0  0
  7  8  1  0  0  0  0
  7 44  1  0  0  0  0
  8  9  1  0  0  0  0
  8 11  2  0  0  0  0
  9 10  1  0  0  0  0
  9 45  1  0  0  0  0
 10 12  1  0  0  0  0
 10 18  2  0  0  0  0
 10 19  2  0  0  0  0
 12 13  2  0  0  0  0
 13 14  1  0  0  0  0
 13 46  1  0  0  0  0
 14 15  2  0  0  0  0
 14 47  1  0  0  0  0
 15 16  1  0  0  0  0
 15 20  1  0  0  0  0
 16 17  2  0  0  0  0
 16 48  1  0  0  0  0
 17 12  1  0  0  0  0
 17 49  1  0  0  0  0
 20 21  1  0  0  0  0
 20 50  1  0  0  0  0
 20 51  1  0  0  0  0
 21 22  1  0  0  0  0
 21 52  1  0  0  0  0
 21 53  1  0  0  0  0
 22 23  1  0  0  0  0
 22 54  1  0  0  0  0
 23 24  1  0  0  0  0
 23 25  2  0  0  0  0
 24 26  2  0  0  0  0
 26 27  1  0  0  0  0
 26 31  1  0  0  0  0
 27 28  2  0  0  0  0
 27 55  1  0  0  0  0
 28 29  1  0  0  0  0
 28 56  1  0  0  0  0
 29 30  2  0  0  0  0
 29 57  1  0  0  0  0
 30 24  1  0  0  0  0
 30 58  1  0  0  0  0
 31 32  1  0  0  0  0
 32 59  1  0  0  0  0
 32 60  1  0  0  0  0
 32 61  1  0  0  0  0
M  END
>  <Mol_ID>
409

>  <Formula>
C23H28ClN3O5S

>  <MolWeight>
494.00352

>  <Cat>
S1716

>  <Name>
Glyburide (Glibenclamide)

>  <Synonyms>
Glibenclamide

>  <Target>
Potassium Channel

>  <Form>
free base

>  <CAS>
10238-21-8

>  <URL>
http://selleckchem.com/products/Glyburide(Diabeta).html

$$$$
