Glycochenodeoxycholic acid sodium salt
 OpenBabel08302520393D

 74 77  0  0  0  0  0  0  0  0999 V2000
    0.1381    2.0002    0.6429 C   0  0  1  0  0  0  0  0  0  0  0  0
   -0.2145    0.7769   -0.2724 C   0  0  3  0  0  0  0  0  0  0  0  0
    1.6173    2.5189    0.4201 C   0  0  3  0  0  0  0  0  0  0  0  0
   -0.7712    3.2068    0.2818 C   0  0  0  0  0  0  0  0  0  0  0  0
    0.8970   -0.3252   -0.2810 C   0  0  3  0  0  0  0  0  0  0  0  0
   -1.6718    0.2971   -0.1575 C   0  0  3  0  0  0  0  0  0  0  0  0
    1.3330    3.4863   -0.7798 C   0  0  3  0  0  0  0  0  0  0  0  0
    2.6166    1.3738    0.1793 C   0  0  0  0  0  0  0  0  0  0  0  0
    2.1262    3.2233    1.7079 C   0  0  0  0  0  0  0  0  0  0  0  0
    0.1654    4.3071   -0.1952 C   0  0  0  0  0  0  0  0  0  0  0  0
    0.5206   -1.8540   -0.3206 C   0  0  3  0  0  0  0  0  0  0  0  0
    2.0645    0.0301    0.6414 C   0  0  0  0  0  0  0  0  0  0  0  0
   -1.8574   -0.9953   -0.9642 C   0  0  0  0  0  0  0  0  0  0  0  0
   -2.0894    0.1179    1.1987 O   0  0  0  0  0  0  0  0  0  0  0  0
    2.3738    4.2906   -1.6040 C   0  0  3  0  0  0  0  0  0  0  0  0
   -1.0137   -2.0586   -0.2841 C   0  0  3  0  0  0  0  0  0  0  0  0
    1.0435   -2.6783    0.9011 C   0  0  0  0  0  0  0  0  0  0  0  0
    1.2481   -2.4317   -1.5776 C   0  0  0  0  0  0  0  0  0  0  0  0
    3.2896    3.3425   -2.4308 C   0  0  0  0  0  0  0  0  0  0  0  0
    1.5806    5.2060   -2.5688 C   0  0  0  0  0  0  0  0  0  0  0  0
   -1.4661   -3.5030   -0.4753 C   0  0  0  0  0  0  0  0  0  0  0  0
    0.5882   -4.1517    0.8782 C   0  0  0  0  0  0  0  0  0  0  0  0
    4.2115    4.0118   -3.4575 C   0  0  0  0  0  0  0  0  0  0  0  0
   -0.9204   -4.3362    0.6930 C   0  0  3  0  0  0  0  0  0  0  0  0
    5.1124    3.0125   -4.1748 C   0  0  0  0  0  0  0  0  0  0  0  0
   -1.5990   -4.0308    1.9086 O   0  0  0  0  0  0  0  0  0  0  0  0
    5.8528    3.5994   -5.1626 N   0  0  0  0  0  0  0  0  0  0  0  0
    5.1710    1.8255   -3.8735 O   0  0  0  0  0  0  0  0  0  0  0  0
    6.8146    2.8925   -6.0207 C   0  0  0  0  0  0  0  0  0  0  0  0
    7.1701    3.6804   -7.3093 C   0  0  0  0  0  0  0  0  0  0  0  0
    7.9862    3.1159   -8.0898 O   0  0  0  0  0  0  0  0  0  0  0  0
    6.5933    4.8086   -7.4073 O   0  5  0  0  0  0  0  0  0  0  0  0
   -0.0086    1.7402    1.6977 H   0  0  0  0  0  0  0  0  0  0  0  0
   -0.1955    1.1522   -1.3069 H   0  0  0  0  0  0  0  0  0  0  0  0
   -1.4309    2.9718   -0.5628 H   0  0  0  0  0  0  0  0  0  0  0  0
   -1.4131    3.5214    1.1079 H   0  0  0  0  0  0  0  0  0  0  0  0
    1.3302   -0.1498   -1.2803 H   0  0  0  0  0  0  0  0  0  0  0  0
   -2.3555    1.0461   -0.5665 H   0  0  0  0  0  0  0  0  0  0  0  0
    0.8886    2.8564   -1.5641 H   0  0  0  0  0  0  0  0  0  0  0  0
    3.5707    1.5540    0.6906 H   0  0  0  0  0  0  0  0  0  0  0  0
    2.8643    1.2804   -0.8776 H   0  0  0  0  0  0  0  0  0  0  0  0
    3.0501    3.7776    1.5084 H   0  0  0  0  0  0  0  0  0  0  0  0
    1.4040    3.9044    2.1624 H   0  0  0  0  0  0  0  0  0  0  0  0
    2.3532    2.4806    2.4855 H   0  0  0  0  0  0  0  0  0  0  0  0
    0.4841    4.9503    0.6320 H   0  0  0  0  0  0  0  0  0  0  0  0
   -0.3545    4.9485   -0.9083 H   0  0  0  0  0  0  0  0  0  0  0  0
    1.7466    0.0572    1.6906 H   0  0  0  0  0  0  0  0  0  0  0  0
    2.8701   -0.7051    0.5589 H   0  0  0  0  0  0  0  0  0  0  0  0
   -2.9151   -1.2823   -0.9237 H   0  0  0  0  0  0  0  0  0  0  0  0
   -1.5865   -0.8567   -2.0165 H   0  0  0  0  0  0  0  0  0  0  0  0
   -1.3190    0.1970    1.7840 H   0  0  0  0  0  0  0  0  0  0  0  0
    2.9919    4.9123   -0.9473 H   0  0  0  0  0  0  0  0  0  0  0  0
   -1.2664   -1.8808    0.7623 H   0  0  0  0  0  0  0  0  0  0  0  0
    0.6924   -2.2119    1.8310 H   0  0  0  0  0  0  0  0  0  0  0  0
    2.1374   -2.6762    0.9467 H   0  0  0  0  0  0  0  0  0  0  0  0
    1.1177   -1.8080   -2.4700 H   0  0  0  0  0  0  0  0  0  0  0  0
    2.3322   -2.4778   -1.3885 H   0  0  0  0  0  0  0  0  0  0  0  0
    0.9382   -3.4416   -1.8499 H   0  0  0  0  0  0  0  0  0  0  0  0
    3.9288    2.7849   -1.7407 H   0  0  0  0  0  0  0  0  0  0  0  0
    2.6685    2.6053   -2.9594 H   0  0  0  0  0  0  0  0  0  0  0  0
    1.1209    6.0377   -2.0265 H   0  0  0  0  0  0  0  0  0  0  0  0
    2.1888    5.6615   -3.3490 H   0  0  0  0  0  0  0  0  0  0  0  0
    0.7794    4.6418   -3.0666 H   0  0  0  0  0  0  0  0  0  0  0  0
   -2.5579   -3.5571   -0.4783 H   0  0  0  0  0  0  0  0  0  0  0  0
   -1.1217   -3.9065   -1.4343 H   0  0  0  0  0  0  0  0  0  0  0  0
    0.9071   -4.6261    1.8139 H   0  0  0  0  0  0  0  0  0  0  0  0
    1.1054   -4.6748    0.0651 H   0  0  0  0  0  0  0  0  0  0  0  0
    3.6326    4.5229   -4.2322 H   0  0  0  0  0  0  0  0  0  0  0  0
    4.8527    4.7418   -2.9528 H   0  0  0  0  0  0  0  0  0  0  0  0
   -1.1319   -5.3940    0.5027 H   0  0  0  0  0  0  0  0  0  0  0  0
   -1.4308   -3.0926    2.1597 H   0  0  0  0  0  0  0  0  0  0  0  0
    5.6440    4.5291   -5.5209 H   0  0  0  0  0  0  0  0  0  0  0  0
    7.7234    2.7549   -5.4272 H   0  0  0  0  0  0  0  0  0  0  0  0
    6.4097    1.9083   -6.2762 H   0  0  0  0  0  0  0  0  0  0  0  0
  1  2  1  0  0  0  0
  1  3  1  0  0  0  0
  1  4  1  0  0  0  0
  1 33  1  1  0  0  0
  2  5  1  0  0  0  0
  2  6  1  0  0  0  0
  2 34  1  0  0  0  0
  3  7  1  0  0  0  0
  3  8  1  0  0  0  0
  3  9  1  0  0  0  0
  4 10  1  0  0  0  0
  4 35  1  0  0  0  0
  4 36  1  0  0  0  0
  5 11  1  0  0  0  0
  5 12  1  0  0  0  0
  5 37  1  0  0  0  0
  6 13  1  0  0  0  0
  6 14  1  0  0  0  0
  6 38  1  0  0  0  0
  7 15  1  0  0  0  0
  7 10  1  0  0  0  0
  7 39  1  0  0  0  0
  8 12  1  0  0  0  0
  8 40  1  0  0  0  0
  8 41  1  0  0  0  0
  9 42  1  0  0  0  0
  9 43  1  0  0  0  0
  9 44  1  0  0  0  0
 10 45  1  0  0  0  0
 10 46  1  0  0  0  0
 11 16  1  0  0  0  0
 11 17  1  0  0  0  0
 11 18  1  0  0  0  0
 12 47  1  0  0  0  0
 12 48  1  0  0  0  0
 13 49  1  0  0  0  0
 13 50  1  0  0  0  0
 14 51  1  0  0  0  0
 15 19  1  0  0  0  0
 15 20  1  0  0  0  0
 15 52  1  0  0  0  0
 16 13  1  0  0  0  0
 16 21  1  0  0  0  0
 16 53  1  0  0  0  0
 17 22  1  0  0  0  0
 17 54  1  0  0  0  0
 17 55  1  0  0  0  0
 18 56  1  0  0  0  0
 18 57  1  0  0  0  0
 18 58  1  0  0  0  0
 19 23  1  0  0  0  0
 19 59  1  0  0  0  0
 19 60  1  0  0  0  0
 20 61  1  0  0  0  0
 20 62  1  0  0  0  0
 20 63  1  0  0  0  0
 21 24  1  0  0  0  0
 21 64  1  0  0  0  0
 21 65  1  0  0  0  0
 22 24  1  0  0  0  0
 22 66  1  0  0  0  0
 22 67  1  0  0  0  0
 23 25  1  0  0  0  0
 23 68  1  0  0  0  0
 23 69  1  0  0  0  0
 24 26  1  0  0  0  0
 24 70  1  0  0  0  0
 25 27  1  0  0  0  0
 25 28  2  0  0  0  0
 26 71  1  0  0  0  0
 27 29  1  0  0  0  0
 27 72  1  0  0  0  0
 29 30  1  0  0  0  0
 29 73  1  0  0  0  0
 29 74  1  0  0  0  0
 30 31  2  0  0  0  0
 30 32  1  0  0  0  0
M  CHG  1  32  -1
M  END
>  <Mol_ID>
3678

>  <Formula>
C26H42NNaO5

>  <MolWeight>
471.60515

>  <Cat>
S6355

>  <Name>
Glycochenodeoxycholic acid sodium salt

>  <Synonyms>
N/A

>  <Target>
Others

>  <Form>
sodium salt

>  <CAS>
16564-43-5

>  <URL>
http://www.selleck.cn/products/glycochenodeoxycholic-acid-sodium-salt.html

$$$$
