Glycerol Tributyrate
 OpenBabel08302520393D

 47 46  0  0  0  0  0  0  0  0999 V2000
    0.9155    0.0540   -0.0839 C   0  0  0  0  0  0  0  0  0  0  0  0
    0.6677   -1.3593    0.4902 C   0  0  0  0  0  0  0  0  0  0  0  0
    0.5977    1.2091    0.8785 C   0  0  0  0  0  0  0  0  0  0  0  0
    0.3120    0.2041   -1.4018 O   0  0  0  0  0  0  0  0  0  0  0  0
   -0.6986   -1.6293    0.8572 O   0  0  0  0  0  0  0  0  0  0  0  0
    0.7518    2.4978    0.2456 O   0  0  0  0  0  0  0  0  0  0  0  0
   -1.0212    0.3795   -1.5298 C   0  0  0  0  0  0  0  0  0  0  0  0
   -1.0700   -1.3059    2.1252 C   0  0  0  0  0  0  0  0  0  0  0  0
    2.0058    3.0072    0.1816 C   0  0  0  0  0  0  0  0  0  0  0  0
   -1.4108    0.5358   -2.9814 C   0  0  0  0  0  0  0  0  0  0  0  0
   -1.8238    0.4440   -0.6107 O   0  0  0  0  0  0  0  0  0  0  0  0
   -2.5149   -1.6868    2.3735 C   0  0  0  0  0  0  0  0  0  0  0  0
   -0.3242   -0.8156    2.9630 O   0  0  0  0  0  0  0  0  0  0  0  0
    1.9696    4.3947   -0.4258 C   0  0  0  0  0  0  0  0  0  0  0  0
    3.0234    2.4316    0.5376 O   0  0  0  0  0  0  0  0  0  0  0  0
   -1.1057   -0.6859   -3.8438 C   0  0  0  0  0  0  0  0  0  0  0  0
   -3.2163   -0.7865    3.3943 C   0  0  0  0  0  0  0  0  0  0  0  0
    2.7513    4.4842   -1.7307 C   0  0  0  0  0  0  0  0  0  0  0  0
   -1.7957   -1.9460   -3.3434 C   0  0  0  0  0  0  0  0  0  0  0  0
   -3.4122    0.6498    2.9255 C   0  0  0  0  0  0  0  0  0  0  0  0
    2.2139    3.5499   -2.8054 C   0  0  0  0  0  0  0  0  0  0  0  0
    1.9897    0.1081   -0.2982 H   0  0  0  0  0  0  0  0  0  0  0  0
    0.9121   -2.0964   -0.2856 H   0  0  0  0  0  0  0  0  0  0  0  0
    1.3377   -1.5605    1.3359 H   0  0  0  0  0  0  0  0  0  0  0  0
   -0.4352    1.1799    1.2230 H   0  0  0  0  0  0  0  0  0  0  0  0
    1.2288    1.1522    1.7768 H   0  0  0  0  0  0  0  0  0  0  0  0
   -2.4850    0.7506   -3.0185 H   0  0  0  0  0  0  0  0  0  0  0  0
   -0.9003    1.4216   -3.3808 H   0  0  0  0  0  0  0  0  0  0  0  0
   -3.0687   -1.6782    1.4288 H   0  0  0  0  0  0  0  0  0  0  0  0
   -2.5094   -2.7168    2.7518 H   0  0  0  0  0  0  0  0  0  0  0  0
    0.9293    4.6972   -0.5926 H   0  0  0  0  0  0  0  0  0  0  0  0
    2.3800    5.0904    0.3129 H   0  0  0  0  0  0  0  0  0  0  0  0
   -1.4446   -0.4818   -4.8653 H   0  0  0  0  0  0  0  0  0  0  0  0
   -0.0267   -0.8605   -3.8964 H   0  0  0  0  0  0  0  0  0  0  0  0
   -4.2006   -1.2123    3.6147 H   0  0  0  0  0  0  0  0  0  0  0  0
   -2.6541   -0.7802    4.3337 H   0  0  0  0  0  0  0  0  0  0  0  0
    2.7005    5.5150   -2.0994 H   0  0  0  0  0  0  0  0  0  0  0  0
    3.8097    4.2592   -1.5534 H   0  0  0  0  0  0  0  0  0  0  0  0
   -2.8685   -1.7807   -3.2016 H   0  0  0  0  0  0  0  0  0  0  0  0
   -1.6703   -2.7593   -4.0660 H   0  0  0  0  0  0  0  0  0  0  0  0
   -1.3685   -2.2769   -2.3915 H   0  0  0  0  0  0  0  0  0  0  0  0
   -4.0549    0.6940    2.0427 H   0  0  0  0  0  0  0  0  0  0  0  0
   -3.8902    1.2325    3.7197 H   0  0  0  0  0  0  0  0  0  0  0  0
   -2.4594    1.1317    2.6888 H   0  0  0  0  0  0  0  0  0  0  0  0
    1.1465    3.7176   -2.9764 H   0  0  0  0  0  0  0  0  0  0  0  0
    2.7416    3.7184   -3.7497 H   0  0  0  0  0  0  0  0  0  0  0  0
    2.3578    2.5011   -2.5263 H   0  0  0  0  0  0  0  0  0  0  0  0
  1  2  1  0  0  0  0
  1  3  1  0  0  0  0
  1  4  1  0  0  0  0
  1 22  1  0  0  0  0
  2  5  1  0  0  0  0
  2 23  1  0  0  0  0
  2 24  1  0  0  0  0
  3  6  1  0  0  0  0
  3 25  1  0  0  0  0
  3 26  1  0  0  0  0
  4  7  1  0  0  0  0
  5  8  1  0  0  0  0
  6  9  1  0  0  0  0
  7 10  1  0  0  0  0
  7 11  2  0  0  0  0
  8 12  1  0  0  0  0
  8 13  2  0  0  0  0
  9 14  1  0  0  0  0
  9 15  2  0  0  0  0
 10 16  1  0  0  0  0
 10 27  1  0  0  0  0
 10 28  1  0  0  0  0
 12 17  1  0  0  0  0
 12 29  1  0  0  0  0
 12 30  1  0  0  0  0
 14 18  1  0  0  0  0
 14 31  1  0  0  0  0
 14 32  1  0  0  0  0
 16 19  1  0  0  0  0
 16 33  1  0  0  0  0
 16 34  1  0  0  0  0
 17 20  1  0  0  0  0
 17 35  1  0  0  0  0
 17 36  1  0  0  0  0
 18 21  1  0  0  0  0
 18 37  1  0  0  0  0
 18 38  1  0  0  0  0
 19 39  1  0  0  0  0
 19 40  1  0  0  0  0
 19 41  1  0  0  0  0
 20 42  1  0  0  0  0
 20 43  1  0  0  0  0
 20 44  1  0  0  0  0
 21 45  1  0  0  0  0
 21 46  1  0  0  0  0
 21 47  1  0  0  0  0
M  END
>  <Mol_ID>
3620

>  <Formula>
C15H26O6

>  <MolWeight>
302.36334

>  <Cat>
S6263

>  <Name>
Glycerol Tributyrate

>  <Synonyms>
Tributyrin

>  <Target>
Others

>  <Form>
free base

>  <CAS>
60-01-5

>  <URL>
http://www.selleck.cn/products/glycerol-tributyrate.html

$$$$
