Glycohyodeoxycholic acid
 OpenBabel08302522062D

 75 78  0  0  1  0  0  0  0  0999 V2000
    3.0457    4.7688    0.0000 C   0  0  0  0  0  0  0  0  0  0  0  0
    7.4210    6.9923    0.0000 C   0  0  0  0  0  0  0  0  0  0  0  0
    4.8497    0.0000    0.0000 O   0  0  0  0  0  0  0  0  0  0  0  0
    9.8186    6.7326    0.0000 C   0  0  1  0  0  0  0  0  0  0  0  0
    9.8186    8.1326    0.0000 C   0  0  0  0  0  0  0  0  0  0  0  0
   11.0310    6.0326    0.0000 C   0  0  0  0  0  0  0  0  0  0  0  0
   11.0310    8.8326    0.0000 C   0  0  0  0  0  0  0  0  0  0  0  0
   11.0310   10.2326    0.0000 C   0  0  0  0  0  0  0  0  0  0  0  0
   12.2434   10.9326    0.0000 N   0  0  0  0  0  0  0  0  0  0  0  0
    9.8186   10.9326    0.0000 O   0  0  0  0  0  0  0  0  0  0  0  0
   12.2434   12.3326    0.0000 C   0  0  0  0  0  0  0  0  0  0  0  0
   13.4559   13.0326    0.0000 C   0  0  0  0  0  0  0  0  0  0  0  0
   14.6684   12.3326    0.0000 O   0  0  0  0  0  0  0  0  0  0  0  0
   13.4559   14.4326    0.0000 O   0  0  0  0  0  0  0  0  0  0  0  0
    0.0000    1.4000    0.0000 O   0  0  0  0  0  0  0  0  0  0  0  0
    6.0622    3.5000    0.0000 C   0  0  2  0  0  0  0  0  0  0  0  0
    4.8497    4.2000    0.0000 C   0  0  1  0  0  0  0  0  0  0  0  0
    7.2747    4.2000    0.0000 C   0  0  1  0  0  0  0  0  0  0  0  0
    6.0622    2.1000    0.0000 C   0  0  0  0  0  0  0  0  0  0  0  0
    3.6373    3.5000    0.0000 C   0  0  1  0  0  0  0  0  0  0  0  0
    4.8497    5.6000    0.0000 C   0  0  0  0  0  0  0  0  0  0  0  0
    7.2747    5.6000    0.0000 C   0  0  1  0  0  0  0  0  0  0  0  0
    8.6061    3.7674    0.0000 C   0  0  0  0  0  0  0  0  0  0  0  0
    4.8497    1.4000    0.0000 C   0  0  1  0  0  0  0  0  0  0  0  0
    3.6373    2.1000    0.0000 C   0  0  2  0  0  0  0  0  0  0  0  0
    2.4249    4.2000    0.0000 C   0  0  0  0  0  0  0  0  0  0  0  0
    6.0622    6.3000    0.0000 C   0  0  0  0  0  0  0  0  0  0  0  0
    8.6061    6.0326    0.0000 C   0  0  2  0  0  0  0  0  0  0  0  0
    9.4290    4.9000    0.0000 C   0  0  0  0  0  0  0  0  0  0  0  0
    2.4249    1.4000    0.0000 C   0  0  0  0  0  0  0  0  0  0  0  0
    1.2125    3.5000    0.0000 C   0  0  0  0  0  0  0  0  0  0  0  0
    1.2125    2.1000    0.0000 C   0  0  1  0  0  0  0  0  0  0  0  0
    3.6595    5.6453    0.0000 H   0  0  0  0  0  0  0  0  0  0  0  0
    1.9798    4.8621    0.0000 H   0  0  0  0  0  0  0  0  0  0  0  0
    2.5935    5.7386    0.0000 H   0  0  0  0  0  0  0  0  0  0  0  0
    8.3985    7.4275    0.0000 H   0  0  0  0  0  0  0  0  0  0  0  0
    6.5553    7.6212    0.0000 H   0  0  0  0  0  0  0  0  0  0  0  0
    7.5328    8.0564    0.0000 H   0  0  0  0  0  0  0  0  0  0  0  0
    4.0097   -0.4850    0.0000 H   0  0  0  0  0  0  0  0  0  0  0  0
   10.7453    7.2676    0.0000 H   0  0  0  0  0  0  0  0  0  0  0  0
    8.8919    8.6676    0.0000 H   0  0  0  0  0  0  0  0  0  0  0  0
    9.8186    9.2026    0.0000 H   0  0  0  0  0  0  0  0  0  0  0  0
   11.0310    4.9626    0.0000 H   0  0  0  0  0  0  0  0  0  0  0  0
   11.9577    6.5676    0.0000 H   0  0  0  0  0  0  0  0  0  0  0  0
   11.9576    5.4976    0.0000 H   0  0  0  0  0  0  0  0  0  0  0  0
   11.9577    8.2976    0.0000 H   0  0  0  0  0  0  0  0  0  0  0  0
   11.9576    9.3676    0.0000 H   0  0  0  0  0  0  0  0  0  0  0  0
   13.0960   10.4404    0.0000 H   0  0  0  0  0  0  0  0  0  0  0  0
   11.3168   12.8676    0.0000 H   0  0  0  0  0  0  0  0  0  0  0  0
   12.2434   13.4026    0.0000 H   0  0  0  0  0  0  0  0  0  0  0  0
   14.6684   11.3956    0.0000 H   0  0  0  0  0  0  0  0  0  0  0  0
   -0.8400    1.8850    0.0000 H   0  0  0  0  0  0  0  0  0  0  0  0
    5.1356    2.9650    0.0000 H   0  0  0  0  0  0  0  0  0  0  0  0
    5.7763    4.7350    0.0000 H   0  0  0  0  0  0  0  0  0  0  0  0
    7.3865    3.1359    0.0000 H   0  0  0  0  0  0  0  0  0  0  0  0
    6.9888    1.5650    0.0000 H   0  0  0  0  0  0  0  0  0  0  0  0
    6.0622    1.0300    0.0000 H   0  0  0  0  0  0  0  0  0  0  0  0
    3.9231    6.1350    0.0000 H   0  0  0  0  0  0  0  0  0  0  0  0
    4.8497    6.6700    0.0000 H   0  0  0  0  0  0  0  0  0  0  0  0
    8.9367    2.7498    0.0000 H   0  0  0  0  0  0  0  0  0  0  0  0
    9.6629    3.6000    0.0000 H   0  0  0  0  0  0  0  0  0  0  0  0
    5.7763    0.8650    0.0000 H   0  0  0  0  0  0  0  0  0  0  0  0
    2.7106    2.6350    0.0000 H   0  0  0  0  0  0  0  0  0  0  0  0
    2.4249    5.2700    0.0000 H   0  0  0  0  0  0  0  0  0  0  0  0
    1.4982    4.7350    0.0000 H   0  0  0  0  0  0  0  0  0  0  0  0
    6.0622    7.3700    0.0000 H   0  0  0  0  0  0  0  0  0  0  0  0
    6.9888    6.8350    0.0000 H   0  0  0  0  0  0  0  0  0  0  0  0
    8.2755    5.0150    0.0000 H   0  0  0  0  0  0  0  0  0  0  0  0
   10.4990    4.9000    0.0000 H   0  0  0  0  0  0  0  0  0  0  0  0
    9.9148    5.8534    0.0000 H   0  0  0  0  0  0  0  0  0  0  0  0
    2.4249    0.3300    0.0000 H   0  0  0  0  0  0  0  0  0  0  0  0
    1.4982    0.8650    0.0000 H   0  0  0  0  0  0  0  0  0  0  0  0
    0.2858    4.0350    0.0000 H   0  0  0  0  0  0  0  0  0  0  0  0
    0.2859    2.9650    0.0000 H   0  0  0  0  0  0  0  0  0  0  0  0
    1.2125    1.0300    0.0000 H   0  0  0  0  0  0  0  0  0  0  0  0
  1 33  1  0  0  0  0
  1 34  1  0  0  0  0
  1 35  1  0  0  0  0
  2 36  1  0  0  0  0
  2 37  1  0  0  0  0
  2 38  1  0  0  0  0
  3 39  1  0  0  0  0
  4  5  1  0  0  0  0
  4  6  1  0  0  0  0
  4 40  1  6  0  0  0
  5  7  1  0  0  0  0
  5 41  1  0  0  0  0
  5 42  1  0  0  0  0
  6 43  1  0  0  0  0
  6 44  1  0  0  0  0
  6 45  1  0  0  0  0
  7  8  1  0  0  0  0
  7 46  1  0  0  0  0
  7 47  1  0  0  0  0
  8  9  1  0  0  0  0
  8 10  2  0  0  0  0
  9 11  1  0  0  0  0
  9 48  1  0  0  0  0
 11 12  1  0  0  0  0
 11 49  1  0  0  0  0
 11 50  1  0  0  0  0
 12 13  1  0  0  0  0
 12 14  2  0  0  0  0
 13 51  1  0  0  0  0
 15 52  1  0  0  0  0
 16 17  1  0  0  0  0
 16 18  1  0  0  0  0
 16 19  1  0  0  0  0
 16 53  1  1  0  0  0
 17 20  1  0  0  0  0
 17 21  1  0  0  0  0
 17 54  1  6  0  0  0
 18 22  1  0  0  0  0
 18 23  1  0  0  0  0
 18 55  1  6  0  0  0
 19 24  1  0  0  0  0
 19 56  1  0  0  0  0
 19 57  1  0  0  0  0
 20  1  1  1  0  0  0
 20 25  1  0  0  0  0
 20 26  1  0  0  0  0
 21 27  1  0  0  0  0
 21 58  1  0  0  0  0
 21 59  1  0  0  0  0
 22  2  1  1  0  0  0
 22 27  1  0  0  0  0
 22 28  1  0  0  0  0
 23 29  1  0  0  0  0
 23 60  1  0  0  0  0
 23 61  1  0  0  0  0
 24  3  1  0  0  0  0
 24 25  1  0  0  0  0
 24 62  1  1  0  0  0
 25 30  1  0  0  0  0
 25 63  1  1  0  0  0
 26 31  1  0  0  0  0
 26 64  1  0  0  0  0
 26 65  1  0  0  0  0
 27 66  1  0  0  0  0
 27 67  1  0  0  0  0
 28  4  1  0  0  0  0
 28 29  1  0  0  0  0
 28 68  1  6  0  0  0
 29 69  1  0  0  0  0
 29 70  1  0  0  0  0
 30 32  1  0  0  0  0
 30 71  1  0  0  0  0
 30 72  1  0  0  0  0
 31 32  1  0  0  0  0
 31 73  1  0  0  0  0
 31 74  1  0  0  0  0
 32 15  1  0  0  0  0
 32 75  1  1  0  0  0
M  END
>  <Mol_ID>
10062

>  <Formula>
C26H43NO5

>  <MolWeight>
449.62332

>  <Cat>
E5636

>  <Name>
Glycohyodeoxycholic acid

>  <Synonyms>
Glycine Hyodeoxycholate,

>  <Target>
G-protein coupled bile acid receptor 1 or TGR5

>  <Form>
Free base

>  <CAS>
13042-33-6

>  <URL>
https://www.selleckchem.com/products/glycohyodeoxycholic-acid.html

$$$$
