Glycyl-L-valine
 OpenBabel08302521383D

 26 25  0  0  0  0  0  0  0  0999 V2000
    0.8838    0.1043   -0.0340 C   0  0  1  0  0  0  0  0  0  0  0  0
    0.5617    0.0035   -1.4495 N   0  0  0  0  0  0  0  0  0  0  0  0
    0.2570    1.3329    0.6516 C   0  0  0  0  0  0  0  0  0  0  0  0
    0.4436   -1.2145    0.6255 C   0  0  0  0  0  0  0  0  0  0  0  0
    1.5387    0.0119   -2.4197 C   0  0  0  0  0  0  0  0  0  0  0  0
    0.8165    2.6350    0.0670 C   0  0  0  0  0  0  0  0  0  0  0  0
   -1.2723    1.3564    0.5900 C   0  0  0  0  0  0  0  0  0  0  0  0
    1.2024   -1.5844    1.6826 O   0  0  0  0  0  0  0  0  0  0  0  0
   -0.5097   -1.8849    0.2482 O   0  0  0  0  0  0  0  0  0  0  0  0
    1.0624   -0.5410   -3.7664 C   0  0  0  0  0  0  0  0  0  0  0  0
    2.6768    0.4317   -2.2340 O   0  0  0  0  0  0  0  0  0  0  0  0
    0.0299   -1.5764   -3.5541 N   0  0  0  0  0  0  0  0  0  0  0  0
    1.9752    0.1571    0.0603 H   0  0  0  0  0  0  0  0  0  0  0  0
   -0.2733   -0.5299   -1.7066 H   0  0  0  0  0  0  0  0  0  0  0  0
    0.5385    1.3032    1.7136 H   0  0  0  0  0  0  0  0  0  0  0  0
    0.5190    2.7675   -0.9794 H   0  0  0  0  0  0  0  0  0  0  0  0
    0.4493    3.5008    0.6284 H   0  0  0  0  0  0  0  0  0  0  0  0
    1.9102    2.6481    0.1136 H   0  0  0  0  0  0  0  0  0  0  0  0
   -1.7037    0.4654    1.0555 H   0  0  0  0  0  0  0  0  0  0  0  0
   -1.6631    2.2254    1.1312 H   0  0  0  0  0  0  0  0  0  0  0  0
   -1.6345    1.4150   -0.4414 H   0  0  0  0  0  0  0  0  0  0  0  0
    1.9639   -1.0000    1.8545 H   0  0  0  0  0  0  0  0  0  0  0  0
    0.6511    0.2804   -4.3597 H   0  0  0  0  0  0  0  0  0  0  0  0
    1.9174   -0.9801   -4.2878 H   0  0  0  0  0  0  0  0  0  0  0  0
   -0.2169   -1.9805   -4.4557 H   0  0  0  0  0  0  0  0  0  0  0  0
    0.4428   -2.3448   -3.0164 H   0  0  0  0  0  0  0  0  0  0  0  0
  1  4  1  0  0  0  0
  1 13  1  1  0  0  0
  1  3  1  0  0  0  0
  1  2  1  0  0  0  0
  2  5  1  0  0  0  0
  2 14  1  0  0  0  0
  3  6  1  0  0  0  0
  3  7  1  0  0  0  0
  3 15  1  0  0  0  0
  4  8  1  0  0  0  0
  4  9  2  0  0  0  0
  5 10  1  0  0  0  0
  5 11  2  0  0  0  0
  6 16  1  0  0  0  0
  6 17  1  0  0  0  0
  6 18  1  0  0  0  0
  7 19  1  0  0  0  0
  7 20  1  0  0  0  0
  7 21  1  0  0  0  0
  8 22  1  0  0  0  0
 10 12  1  0  0  0  0
 10 23  1  0  0  0  0
 10 24  1  0  0  0  0
 12 25  1  0  0  0  0
 12 26  1  0  0  0  0
M  END
>  <Mol_ID>
7903

>  <Formula>
C7H14N2O3

>  <MolWeight>
174.19766

>  <Cat>
S6120

>  <Name>
Glycyl-L-valine

>  <Synonyms>
H-Gly-Val-OH, Glycylvaline

>  <Target>
Others

>  <Form>
free base

>  <CAS>
1963-21-9

>  <URL>
http://www.selleck.cn/products/glycyl-l-valine.html

$$$$
