Glycyl-L-tyrosine
 OpenBabel08302521453D

 31 31  0  0  1  0  0  0  0  0999 V2000
    2.9128    1.2082   -0.8595 C   0  0  0  0  0  0  0  0  0  0  0  0
    2.4679    0.0506    0.0485 C   0  0  2  0  0  0  0  0  0  0  0  0
    1.0220    0.0602    0.2469 N   0  0  0  0  0  0  0  0  0  0  0  0
    3.1914    0.1779    1.3961 C   0  0  0  0  0  0  0  0  0  0  0  0
    0.3638   -1.0125    0.8070 C   0  0  0  0  0  0  0  0  0  0  0  0
    4.1151   -0.7870    1.6269 O   0  0  0  0  0  0  0  0  0  0  0  0
    2.9741    1.0732    2.2092 O   0  0  0  0  0  0  0  0  0  0  0  0
   -1.1398   -0.7798    1.0173 C   0  0  0  0  0  0  0  0  0  0  0  0
    0.9240   -2.0711    1.0687 O   0  0  0  0  0  0  0  0  0  0  0  0
   -1.4405    0.6636    1.1324 N   0  0  0  0  0  0  0  0  0  0  0  0
    8.4474    1.0577   -2.1017 O   0  0  0  0  0  0  0  0  0  0  0  0
    4.3822    1.1648   -1.2158 C   0  0  0  0  0  0  0  0  0  0  0  0
    4.9276    0.0574   -1.8859 C   0  0  0  0  0  0  0  0  0  0  0  0
    5.2281    2.2314   -0.8769 C   0  0  0  0  0  0  0  0  0  0  0  0
    6.2891    0.0049   -2.1831 C   0  0  0  0  0  0  0  0  0  0  0  0
    6.5886    2.1836   -1.1836 C   0  0  0  0  0  0  0  0  0  0  0  0
    7.1106    1.0701   -1.8282 C   0  0  0  0  0  0  0  0  0  0  0  0
    2.3353    1.1929   -1.7933 H   0  0  0  0  0  0  0  0  0  0  0  0
    2.6738    2.1674   -0.3797 H   0  0  0  0  0  0  0  0  0  0  0  0
    2.7107   -0.9176   -0.4030 H   0  0  0  0  0  0  0  0  0  0  0  0
    0.4764    0.9175    0.1702 H   0  0  0  0  0  0  0  0  0  0  0  0
    4.1457   -1.4800    0.9398 H   0  0  0  0  0  0  0  0  0  0  0  0
   -1.6727   -1.1995    0.1590 H   0  0  0  0  0  0  0  0  0  0  0  0
   -1.4572   -1.2926    1.9299 H   0  0  0  0  0  0  0  0  0  0  0  0
   -2.4457    0.7656    1.2809 H   0  0  0  0  0  0  0  0  0  0  0  0
   -1.0110    1.0061    1.9959 H   0  0  0  0  0  0  0  0  0  0  0  0
    8.6670    0.2160   -2.5410 H   0  0  0  0  0  0  0  0  0  0  0  0
    4.2928   -0.7752   -2.1834 H   0  0  0  0  0  0  0  0  0  0  0  0
    4.8386    3.1101   -0.3618 H   0  0  0  0  0  0  0  0  0  0  0  0
    6.6884   -0.8661   -2.6915 H   0  0  0  0  0  0  0  0  0  0  0  0
    7.2417    3.0111   -0.9170 H   0  0  0  0  0  0  0  0  0  0  0  0
  1 12  1  0  0  0  0
  1 18  1  0  0  0  0
  1 19  1  0  0  0  0
  2  4  1  0  0  0  0
  2 20  1  6  0  0  0
  2  3  1  0  0  0  0
  2  1  1  0  0  0  0
  3  5  1  0  0  0  0
  3 21  1  0  0  0  0
  4  6  1  0  0  0  0
  4  7  2  0  0  0  0
  5  8  1  0  0  0  0
  5  9  2  0  0  0  0
  6 22  1  0  0  0  0
  8 10  1  0  0  0  0
  8 23  1  0  0  0  0
  8 24  1  0  0  0  0
 10 25  1  0  0  0  0
 10 26  1  0  0  0  0
 11 17  1  0  0  0  0
 11 27  1  0  0  0  0
 12 13  2  0  0  0  0
 12 14  1  0  0  0  0
 13 15  1  0  0  0  0
 13 28  1  0  0  0  0
 14 16  2  0  0  0  0
 14 29  1  0  0  0  0
 15 17  2  0  0  0  0
 15 30  1  0  0  0  0
 16 17  1  0  0  0  0
 16 31  1  0  0  0  0
M  END
>  <Mol_ID>
9499

>  <Formula>
C11H14N2O4

>  <MolWeight>
238.23986

>  <Cat>
E4160

>  <Name>
Glycyl-L-tyrosine

>  <Synonyms>
Gly-Tyr

>  <Target>
Others

>  <Form>
free base

>  <CAS>
658-79-7

>  <URL>
https://www.selleckchem.com/products/glycyl-l-tyrosine.html

$$$$
