Glyceryl monocaprate (Monocaprin)
 OpenBabel08302521253D

 43 42  0  0  0  0  0  0  0  0999 V2000
   -0.4562    4.0192   -2.8145 C   0  0  0  0  0  0  0  0  0  0  0  0
   -1.0717    2.7572   -2.2289 C   0  0  0  0  0  0  0  0  0  0  0  0
   -0.7107    1.5184   -3.0531 C   0  0  0  0  0  0  0  0  0  0  0  0
   -1.3304    0.2429   -2.4699 C   0  0  0  0  0  0  0  0  0  0  0  0
   -0.9665   -0.9925   -3.3027 C   0  0  0  0  0  0  0  0  0  0  0  0
   -1.5827   -2.2675   -2.7236 C   0  0  0  0  0  0  0  0  0  0  0  0
   -1.2159   -3.5121   -3.5548 C   0  0  0  0  0  0  0  0  0  0  0  0
   -1.8295   -4.7732   -2.9442 C   0  0  0  0  0  0  0  0  0  0  0  0
   -1.5000   -6.0518   -3.7190 C   0  0  0  0  0  0  0  0  0  0  0  0
   -2.1667   -7.2501   -3.0883 C   0  0  0  0  0  0  0  0  0  0  0  0
   -1.8234   -7.3478   -1.7704 O   0  0  0  0  0  0  0  0  0  0  0  0
   -2.9690   -7.9814   -3.6568 O   0  0  0  0  0  0  0  0  0  0  0  0
   -2.6114   -8.2512   -0.9717 C   0  0  0  0  0  0  0  0  0  0  0  0
   -3.8024   -7.5183   -0.3333 C   0  0  3  0  0  0  0  0  0  0  0  0
   -4.8036   -6.9354   -1.3413 C   0  0  0  0  0  0  0  0  0  0  0  0
   -4.5055   -8.4234    0.5278 O   0  0  0  0  0  0  0  0  0  0  0  0
   -5.4161   -7.9990   -2.0733 O   0  0  0  0  0  0  0  0  0  0  0  0
    0.6358    3.9541   -2.8260 H   0  0  0  0  0  0  0  0  0  0  0  0
   -0.7374    4.8915   -2.2142 H   0  0  0  0  0  0  0  0  0  0  0  0
   -0.8026    4.1868   -3.8383 H   0  0  0  0  0  0  0  0  0  0  0  0
   -0.7226    2.6318   -1.1969 H   0  0  0  0  0  0  0  0  0  0  0  0
   -2.1616    2.8729   -2.1901 H   0  0  0  0  0  0  0  0  0  0  0  0
   -1.0568    1.6534   -4.0852 H   0  0  0  0  0  0  0  0  0  0  0  0
    0.3802    1.4102   -3.0905 H   0  0  0  0  0  0  0  0  0  0  0  0
   -0.9822    0.1067   -1.4388 H   0  0  0  0  0  0  0  0  0  0  0  0
   -2.4212    0.3517   -2.4307 H   0  0  0  0  0  0  0  0  0  0  0  0
   -1.3135   -0.8532   -4.3337 H   0  0  0  0  0  0  0  0  0  0  0  0
    0.1247   -1.0984   -3.3395 H   0  0  0  0  0  0  0  0  0  0  0  0
   -1.2383   -2.4064   -1.6930 H   0  0  0  0  0  0  0  0  0  0  0  0
   -2.6742   -2.1653   -2.6879 H   0  0  0  0  0  0  0  0  0  0  0  0
   -1.5767   -3.3884   -4.5823 H   0  0  0  0  0  0  0  0  0  0  0  0
   -0.1266   -3.6182   -3.5980 H   0  0  0  0  0  0  0  0  0  0  0  0
   -1.4812   -4.8700   -1.9057 H   0  0  0  0  0  0  0  0  0  0  0  0
   -2.9211   -4.6523   -2.8925 H   0  0  0  0  0  0  0  0  0  0  0  0
   -1.8663   -5.9645   -4.7538 H   0  0  0  0  0  0  0  0  0  0  0  0
   -0.4199   -6.2302   -3.7675 H   0  0  0  0  0  0  0  0  0  0  0  0
   -2.9228   -9.1416   -1.5346 H   0  0  0  0  0  0  0  0  0  0  0  0
   -1.9538   -8.6272   -0.1780 H   0  0  0  0  0  0  0  0  0  0  0  0
   -3.4176   -6.6985    0.2813 H   0  0  0  0  0  0  0  0  0  0  0  0
   -5.6116   -6.4270   -0.7996 H   0  0  0  0  0  0  0  0  0  0  0  0
   -4.3601   -6.2233   -2.0355 H   0  0  0  0  0  0  0  0  0  0  0  0
   -5.3044   -8.7001    0.0431 H   0  0  0  0  0  0  0  0  0  0  0  0
   -4.7443   -8.3348   -2.7084 H   0  0  0  0  0  0  0  0  0  0  0  0
  1  2  1  0  0  0  0
  1 18  1  0  0  0  0
  1 19  1  0  0  0  0
  1 20  1  0  0  0  0
  2  3  1  0  0  0  0
  2 21  1  0  0  0  0
  2 22  1  0  0  0  0
  3  4  1  0  0  0  0
  3 23  1  0  0  0  0
  3 24  1  0  0  0  0
  4  5  1  0  0  0  0
  4 25  1  0  0  0  0
  4 26  1  0  0  0  0
  5  6  1  0  0  0  0
  5 27  1  0  0  0  0
  5 28  1  0  0  0  0
  6  7  1  0  0  0  0
  6 29  1  0  0  0  0
  6 30  1  0  0  0  0
  7  8  1  0  0  0  0
  7 31  1  0  0  0  0
  7 32  1  0  0  0  0
  8  9  1  0  0  0  0
  8 33  1  0  0  0  0
  8 34  1  0  0  0  0
  9 10  1  0  0  0  0
  9 35  1  0  0  0  0
  9 36  1  0  0  0  0
 10 11  1  0  0  0  0
 10 12  2  0  0  0  0
 11 13  1  0  0  0  0
 13 14  1  0  0  0  0
 13 37  1  0  0  0  0
 13 38  1  0  0  0  0
 14 15  1  0  0  0  0
 14 16  1  0  0  0  0
 14 39  1  0  0  0  0
 15 17  1  0  0  0  0
 15 40  1  0  0  0  0
 15 41  1  0  0  0  0
 16 42  1  0  0  0  0
 17 43  1  0  0  0  0
M  END
>  <Mol_ID>
5197

>  <Formula>
C13H26O4

>  <MolWeight>
246.34314

>  <Cat>
S6867

>  <Name>
Glyceryl monocaprate (Monocaprin)

>  <Synonyms>
Glyceryl caprate

>  <Target>
Antiviral,Bacterial

>  <Form>
free base

>  <CAS>
26402-22-2

>  <URL>
http://www.selleckchem.com/products/monocaprin.html

$$$$
