Glycerol
 OpenBabel08302521243D

 14 13  0  0  0  0  0  0  0  0999 V2000
    1.0920   -0.0981    0.0739 O   0  0  0  0  0  0  0  0  0  0  0  0
    2.4428    1.3735    2.0467 O   0  0  0  0  0  0  0  0  0  0  0  0
    2.5052    2.2024   -0.5408 O   0  0  0  0  0  0  0  0  0  0  0  0
    0.5701    1.1687    0.5072 C   0  0  0  0  0  0  0  0  0  0  0  0
    1.0162    1.3927    1.9562 C   0  0  0  0  0  0  0  0  0  0  0  0
    1.0805    2.2650   -0.4374 C   0  0  0  0  0  0  0  0  0  0  0  0
    1.9159    0.1087   -0.4146 H   0  0  0  0  0  0  0  0  0  0  0  0
    2.6948    0.4389    1.9070 H   0  0  0  0  0  0  0  0  0  0  0  0
    2.8518    2.2706    0.3766 H   0  0  0  0  0  0  0  0  0  0  0  0
   -0.5228    1.1201    0.4656 H   0  0  0  0  0  0  0  0  0  0  0  0
    0.6632    2.3582    2.3296 H   0  0  0  0  0  0  0  0  0  0  0  0
    0.6322    0.6024    2.6088 H   0  0  0  0  0  0  0  0  0  0  0  0
    0.6855    2.1040   -1.4465 H   0  0  0  0  0  0  0  0  0  0  0  0
    0.7875    3.2633   -0.1004 H   0  0  0  0  0  0  0  0  0  0  0  0
  1  4  1  0  0  0  0
  1  7  1  0  0  0  0
  2  5  1  0  0  0  0
  2  8  1  0  0  0  0
  3  6  1  0  0  0  0
  3  9  1  0  0  0  0
  4  5  1  0  0  0  0
  4  6  1  0  0  0  0
  4 10  1  0  0  0  0
  5 11  1  0  0  0  0
  5 12  1  0  0  0  0
  6 13  1  0  0  0  0
  6 14  1  0  0  0  0
M  END
>  <Mol_ID>
5102

>  <Formula>
C3H8O3

>  <MolWeight>
92.09382

>  <Cat>
S2766

>  <Name>
Glycerol

>  <Synonyms>
Glycerin

>  <Target>
Others

>  <Form>
free base

>  <CAS>
56-81-5

>  <URL>
http://www.selleckchem.com/products/glycerol.html

$$$$
