Glycoursodeoxycholic acid
 OpenBabel08302520393D

 75 78  0  0  0  0  0  0  0  0999 V2000
    3.1894   -1.3741    3.2240 C   0  0  0  0  0  0  0  0  0  0  0  0
    2.1630   -0.3071    3.5354 C   0  0  0  0  0  0  0  0  0  0  0  0
    2.9225   -2.4124    2.6160 O   0  0  0  0  0  0  0  0  0  0  0  0
    4.3930   -1.1703    3.7729 O   0  0  0  0  0  0  0  0  0  0  0  0
    0.8974   -0.6018    2.9178 N   0  0  0  0  0  0  0  0  0  0  0  0
   -0.1410    0.2809    3.0635 C   0  0  0  0  0  0  0  0  0  0  0  0
   -1.4054   -0.2289    2.4277 C   0  0  0  0  0  0  0  0  0  0  0  0
   -2.6403    0.6628    2.6522 C   0  0  0  0  0  0  0  0  0  0  0  0
   -3.8108    0.0461    1.8915 C   0  0  1  0  0  0  0  0  0  0  0  0
   -4.2627   -1.3170    2.4472 C   0  0  0  0  0  0  0  0  0  0  0  0
   -0.0465    1.3526    3.6527 O   0  0  0  0  0  0  0  0  0  0  0  0
   -7.4478   -3.9161   -0.6462 C   0  0  0  0  0  0  0  0  0  0  0  0
   -7.7268   -5.1171   -1.5728 C   0  0  0  0  0  0  0  0  0  0  0  0
   -6.8750   -5.0420   -2.8390 C   0  0  2  0  0  0  0  0  0  0  0  0
   -7.1810   -3.7518   -3.5972 C   0  0  0  0  0  0  0  0  0  0  0  0
   -6.8668   -2.5845   -2.6630 C   0  0  1  0  0  0  0  0  0  0  0  0
   -6.7118   -1.2584   -3.4083 C   0  0  0  0  0  0  0  0  0  0  0  0
   -6.0744   -0.2469   -2.4705 C   0  0  1  0  0  0  0  0  0  0  0  0
   -7.0526    0.0289   -1.2619 C   0  0  3  0  0  0  0  0  0  0  0  0
   -6.4863    1.1252   -0.3151 C   0  0  3  0  0  0  0  0  0  0  0  0
   -5.7054    2.4296   -0.5163 C   0  0  0  0  0  0  0  0  0  0  0  0
   -4.6254    2.2972    0.6530 C   0  0  0  0  0  0  0  0  0  0  0  0
   -4.9941    0.9852    1.4800 C   0  0  3  0  0  0  0  0  0  0  0  0
   -6.5638    0.9679    1.2827 C   0  0  3  0  0  0  0  0  0  0  0  0
   -7.3388   -0.2492    1.8155 C   0  0  0  0  0  0  0  0  0  0  0  0
   -8.1005   -1.0404    0.7648 C   0  0  0  0  0  0  0  0  0  0  0  0
   -7.2317   -1.3241   -0.4657 C   0  0  3  0  0  0  0  0  0  0  0  0
   -7.7233   -2.5371   -1.3500 C   0  0  3  0  0  0  0  0  0  0  0  0
   -9.2524   -2.4284   -1.5385 C   0  0  0  0  0  0  0  0  0  0  0  0
   -4.8025   -0.8382   -2.1008 O   0  0  0  0  0  0  0  0  0  0  0  0
   -7.1205   -6.1691   -3.6682 O   0  0  0  0  0  0  0  0  0  0  0  0
   -7.2040    2.2092    1.9849 C   0  0  0  0  0  0  0  0  0  0  0  0
    1.9921   -0.2597    4.6138 H   0  0  0  0  0  0  0  0  0  0  0  0
    2.5260    0.6519    3.1550 H   0  0  0  0  0  0  0  0  0  0  0  0
    4.4486   -0.3342    4.2709 H   0  0  0  0  0  0  0  0  0  0  0  0
    0.7688   -1.5018    2.4488 H   0  0  0  0  0  0  0  0  0  0  0  0
   -1.2092   -0.3390    1.3517 H   0  0  0  0  0  0  0  0  0  0  0  0
   -1.5754   -1.2334    2.8325 H   0  0  0  0  0  0  0  0  0  0  0  0
   -2.8734    0.7543    3.7112 H   0  0  0  0  0  0  0  0  0  0  0  0
   -2.4242    1.6620    2.2628 H   0  0  0  0  0  0  0  0  0  0  0  0
   -3.3231   -0.2196    0.9253 H   0  0  0  0  0  0  0  0  0  0  0  0
   -4.8427   -1.2030    3.3637 H   0  0  0  0  0  0  0  0  0  0  0  0
   -4.8619   -1.8521    1.6996 H   0  0  0  0  0  0  0  0  0  0  0  0
   -3.4316   -1.9920    2.6561 H   0  0  0  0  0  0  0  0  0  0  0  0
   -8.0378   -4.0259    0.2699 H   0  0  0  0  0  0  0  0  0  0  0  0
   -6.3941   -3.9640   -0.3363 H   0  0  0  0  0  0  0  0  0  0  0  0
   -7.5240   -6.0586   -1.0502 H   0  0  0  0  0  0  0  0  0  0  0  0
   -8.7882   -5.1582   -1.8463 H   0  0  0  0  0  0  0  0  0  0  0  0
   -5.8163   -5.0648   -2.5574 H   0  0  0  0  0  0  0  0  0  0  0  0
   -6.5502   -3.7079   -4.4945 H   0  0  0  0  0  0  0  0  0  0  0  0
   -8.2146   -3.7253   -3.9590 H   0  0  0  0  0  0  0  0  0  0  0  0
   -5.8501   -2.8240   -2.3144 H   0  0  0  0  0  0  0  0  0  0  0  0
   -6.0265   -1.4146   -4.2530 H   0  0  0  0  0  0  0  0  0  0  0  0
   -7.6595   -0.8878   -3.8062 H   0  0  0  0  0  0  0  0  0  0  0  0
   -5.8358    0.6797   -2.9980 H   0  0  0  0  0  0  0  0  0  0  0  0
   -8.0116    0.3757   -1.6604 H   0  0  0  0  0  0  0  0  0  0  0  0
   -5.5554    0.6691   -0.6010 H   0  0  0  0  0  0  0  0  0  0  0  0
   -5.1977    2.4897   -1.4870 H   0  0  0  0  0  0  0  0  0  0  0  0
   -6.3273    3.3243   -0.4272 H   0  0  0  0  0  0  0  0  0  0  0  0
   -3.6185    2.2453    0.2321 H   0  0  0  0  0  0  0  0  0  0  0  0
   -4.6745    3.1814    1.3014 H   0  0  0  0  0  0  0  0  0  0  0  0
   -5.0134    0.1582    0.7771 H   0  0  0  0  0  0  0  0  0  0  0  0
   -6.6921   -0.9214    2.3670 H   0  0  0  0  0  0  0  0  0  0  0  0
   -8.0751    0.0586    2.5743 H   0  0  0  0  0  0  0  0  0  0  0  0
   -8.4453   -1.9668    1.2354 H   0  0  0  0  0  0  0  0  0  0  0  0
   -8.9981   -0.4793    0.4747 H   0  0  0  0  0  0  0  0  0  0  0  0
   -6.2422   -1.6238   -0.0936 H   0  0  0  0  0  0  0  0  0  0  0  0
   -9.7640   -2.7152   -0.6058 H   0  0  0  0  0  0  0  0  0  0  0  0
   -9.5744   -1.4103   -1.7690 H   0  0  0  0  0  0  0  0  0  0  0  0
   -9.6427   -3.0927   -2.3104 H   0  0  0  0  0  0  0  0  0  0  0  0
   -4.4029   -0.4202   -1.3246 H   0  0  0  0  0  0  0  0  0  0  0  0
   -6.2508   -6.4879   -3.9670 H   0  0  0  0  0  0  0  0  0  0  0  0
   -8.2993    2.1467    1.9935 H   0  0  0  0  0  0  0  0  0  0  0  0
   -6.8640    2.2685    3.0259 H   0  0  0  0  0  0  0  0  0  0  0  0
   -6.9780    3.1761    1.5309 H   0  0  0  0  0  0  0  0  0  0  0  0
  1  2  1  0  0  0  0
  1  3  2  0  0  0  0
  1  4  1  0  0  0  0
  2  5  1  0  0  0  0
  2 33  1  0  0  0  0
  2 34  1  0  0  0  0
  4 35  1  0  0  0  0
  5  6  1  0  0  0  0
  5 36  1  0  0  0  0
  6  7  1  0  0  0  0
  6 11  2  0  0  0  0
  7  8  1  0  0  0  0
  7 37  1  0  0  0  0
  7 38  1  0  0  0  0
  8  9  1  0  0  0  0
  8 39  1  0  0  0  0
  8 40  1  0  0  0  0
  9 10  1  0  0  0  0
  9 23  1  0  0  0  0
  9 41  1  6  0  0  0
 10 42  1  0  0  0  0
 10 43  1  0  0  0  0
 10 44  1  0  0  0  0
 12 13  1  0  0  0  0
 12 28  1  0  0  0  0
 12 45  1  0  0  0  0
 12 46  1  0  0  0  0
 13 14  1  0  0  0  0
 13 47  1  0  0  0  0
 13 48  1  0  0  0  0
 14 15  1  0  0  0  0
 14 49  1  1  0  0  0
 14 31  1  0  0  0  0
 15 50  1  0  0  0  0
 15 51  1  0  0  0  0
 16 15  1  0  0  0  0
 16 17  1  0  0  0  0
 16 28  1  0  0  0  0
 16 52  1  1  0  0  0
 17 18  1  0  0  0  0
 17 53  1  0  0  0  0
 17 54  1  0  0  0  0
 18 30  1  0  0  0  0
 18 55  1  6  0  0  0
 19 18  1  0  0  0  0
 19 20  1  0  0  0  0
 19 27  1  0  0  0  0
 19 56  1  0  0  0  0
 20 21  1  0  0  0  0
 20 24  1  0  0  0  0
 20 57  1  0  0  0  0
 21 22  1  0  0  0  0
 21 58  1  0  0  0  0
 21 59  1  0  0  0  0
 22 60  1  0  0  0  0
 22 61  1  0  0  0  0
 23 22  1  0  0  0  0
 23 24  1  0  0  0  0
 23 62  1  0  0  0  0
 24 25  1  0  0  0  0
 24 32  1  0  0  0  0
 25 26  1  0  0  0  0
 25 63  1  0  0  0  0
 25 64  1  0  0  0  0
 26 65  1  0  0  0  0
 26 66  1  0  0  0  0
 27 26  1  0  0  0  0
 27 28  1  0  0  0  0
 27 67  1  0  0  0  0
 28 29  1  0  0  0  0
 29 68  1  0  0  0  0
 29 69  1  0  0  0  0
 29 70  1  0  0  0  0
 30 71  1  0  0  0  0
 31 72  1  0  0  0  0
 32 73  1  0  0  0  0
 32 74  1  0  0  0  0
 32 75  1  0  0  0  0
M  END
>  <Mol_ID>
3589

>  <Formula>
C26H43NO5

>  <MolWeight>
449.62332

>  <Cat>
S6146

>  <Name>
Glycoursodeoxycholic acid

>  <Synonyms>
Ursodeoxycholyl Glycine, Glycine ursodeoxycholic acid

>  <Target>
Others

>  <Form>
free base

>  <CAS>
64480-66-6

>  <URL>
http://www.selleck.cn/products/glycoursodeoxycholic-acid.html

$$$$
