GLYCODEOXYCHOLIC ACID
 OpenBabel08302521373D

 75 78  0  0  1  0  0  0  0  0999 V2000
    3.1024   -0.3521    1.4412 C   0  0  0  0  0  0  0  0  0  0  0  0
    5.2756    1.1260   -0.1845 C   0  0  1  0  0  0  0  0  0  0  0  0
    6.4189    1.3980   -1.2133 C   0  0  0  0  0  0  0  0  0  0  0  0
    4.9813    2.3988    0.6262 C   0  0  0  0  0  0  0  0  0  0  0  0
    7.7694    1.6557   -0.5169 C   0  0  0  0  0  0  0  0  0  0  0  0
    8.9797    1.7770   -1.4326 C   0  0  0  0  0  0  0  0  0  0  0  0
    9.1856    3.0004   -2.0008 N   0  0  0  0  0  0  0  0  0  0  0  0
    9.8149    0.8796   -1.5417 O   0  0  0  0  0  0  0  0  0  0  0  0
   10.4136    3.3105   -2.7450 C   0  0  0  0  0  0  0  0  0  0  0  0
   11.6320    3.5644   -1.8468 C   0  0  0  0  0  0  0  0  0  0  0  0
   11.9067    2.5469   -1.0008 O   0  0  0  0  0  0  0  0  0  0  0  0
   12.3474    4.5523   -1.9378 O   0  0  0  0  0  0  0  0  0  0  0  0
    1.6369    2.3399   -0.8673 O   0  0  0  0  0  0  0  0  0  0  0  0
   -1.2963   -0.6278    2.5898 C   0  0  0  0  0  0  0  0  0  0  0  0
   -4.3724    0.7812   -2.0248 O   0  0  0  0  0  0  0  0  0  0  0  0
    1.8309   -0.6160   -0.7587 C   0  0  1  0  0  0  0  0  0  0  0  0
    0.5866   -1.0778    0.0421 C   0  0  1  0  0  0  0  0  0  0  0  0
    2.7100    0.3403    0.0976 C   0  0  2  0  0  0  0  0  0  0  0  0
    2.8267   -1.6491   -1.2789 C   0  0  0  0  0  0  0  0  0  0  0  0
   -0.3071    0.1702    0.3391 C   0  0  1  0  0  0  0  0  0  0  0  0
   -0.1979   -2.2030   -0.6399 C   0  0  0  0  0  0  0  0  0  0  0  0
    3.9652    0.5328   -0.8267 C   0  0  2  0  0  0  0  0  0  0  0  0
    1.8603    1.6170    0.3445 C   0  0  2  0  0  0  0  0  0  0  0  0
    4.1608   -0.8835   -1.4291 C   0  0  0  0  0  0  0  0  0  0  0  0
   -1.6191   -0.1878    1.1364 C   0  0  1  0  0  0  0  0  0  0  0  0
    0.5034    1.3157    1.0020 C   0  0  0  0  0  0  0  0  0  0  0  0
   -1.4659   -2.5557    0.1442 C   0  0  0  0  0  0  0  0  0  0  0  0
   -2.3737   -1.3402    0.3978 C   0  0  2  0  0  0  0  0  0  0  0  0
   -2.5775    1.0346    1.2625 C   0  0  0  0  0  0  0  0  0  0  0  0
   -3.0128   -0.8740   -0.9254 C   0  0  0  0  0  0  0  0  0  0  0  0
   -3.1668    1.4930   -0.0663 C   0  0  0  0  0  0  0  0  0  0  0  0
   -3.9052    0.3501   -0.7506 C   0  0  1  0  0  0  0  0  0  0  0  0
    3.0580   -1.4446    1.3765 H   0  0  0  0  0  0  0  0  0  0  0  0
    4.1142   -0.1205    1.7702 H   0  0  0  0  0  0  0  0  0  0  0  0
    2.4474   -0.0634    2.2665 H   0  0  0  0  0  0  0  0  0  0  0  0
    5.6772    0.3787    0.5107 H   0  0  0  0  0  0  0  0  0  0  0  0
    6.5333    0.5338   -1.8755 H   0  0  0  0  0  0  0  0  0  0  0  0
    6.1593    2.2534   -1.8481 H   0  0  0  0  0  0  0  0  0  0  0  0
    4.4612    2.1554    1.5578 H   0  0  0  0  0  0  0  0  0  0  0  0
    5.8835    2.9308    0.9332 H   0  0  0  0  0  0  0  0  0  0  0  0
    4.3685    3.1018    0.0535 H   0  0  0  0  0  0  0  0  0  0  0  0
    7.7423    2.5691    0.0835 H   0  0  0  0  0  0  0  0  0  0  0  0
    7.9851    0.8367    0.1800 H   0  0  0  0  0  0  0  0  0  0  0  0
    8.5406    3.7572   -1.8232 H   0  0  0  0  0  0  0  0  0  0  0  0
   10.6578    2.4880   -3.4203 H   0  0  0  0  0  0  0  0  0  0  0  0
   10.2223    4.2112   -3.3348 H   0  0  0  0  0  0  0  0  0  0  0  0
   11.3061    1.7755   -1.1331 H   0  0  0  0  0  0  0  0  0  0  0  0
    0.9467    1.8972   -1.3810 H   0  0  0  0  0  0  0  0  0  0  0  0
   -0.5657   -1.4386    2.6377 H   0  0  0  0  0  0  0  0  0  0  0  0
   -0.9041    0.2029    3.1871 H   0  0  0  0  0  0  0  0  0  0  0  0
   -2.2010   -0.9739    3.1034 H   0  0  0  0  0  0  0  0  0  0  0  0
   -3.5980    0.9764   -2.5799 H   0  0  0  0  0  0  0  0  0  0  0  0
    1.4660   -0.0941   -1.6571 H   0  0  0  0  0  0  0  0  0  0  0  0
    0.9141   -1.4942    0.9999 H   0  0  0  0  0  0  0  0  0  0  0  0
    2.9442   -2.4900   -0.5887 H   0  0  0  0  0  0  0  0  0  0  0  0
    2.5034   -2.0673   -2.2403 H   0  0  0  0  0  0  0  0  0  0  0  0
   -0.6158    0.5525   -0.6416 H   0  0  0  0  0  0  0  0  0  0  0  0
    0.4254   -3.1031   -0.7039 H   0  0  0  0  0  0  0  0  0  0  0  0
   -0.4506   -1.9305   -1.6697 H   0  0  0  0  0  0  0  0  0  0  0  0
    3.6880    1.1956   -1.6594 H   0  0  0  0  0  0  0  0  0  0  0  0
    2.3875    2.3047    1.0089 H   0  0  0  0  0  0  0  0  0  0  0  0
    4.9557   -1.4362   -0.9161 H   0  0  0  0  0  0  0  0  0  0  0  0
    4.4428   -0.8103   -2.4853 H   0  0  0  0  0  0  0  0  0  0  0  0
   -0.0919    2.2351    0.9717 H   0  0  0  0  0  0  0  0  0  0  0  0
    0.6752    1.0904    2.0571 H   0  0  0  0  0  0  0  0  0  0  0  0
   -1.1811   -3.0068    1.1021 H   0  0  0  0  0  0  0  0  0  0  0  0
   -2.0241   -3.3317   -0.3938 H   0  0  0  0  0  0  0  0  0  0  0  0
   -3.1976   -1.6781    1.0443 H   0  0  0  0  0  0  0  0  0  0  0  0
   -2.0794    1.8803    1.7495 H   0  0  0  0  0  0  0  0  0  0  0  0
   -3.4125    0.7699    1.9265 H   0  0  0  0  0  0  0  0  0  0  0  0
   -3.6046   -1.6896   -1.3601 H   0  0  0  0  0  0  0  0  0  0  0  0
   -2.2480   -0.6484   -1.6774 H   0  0  0  0  0  0  0  0  0  0  0  0
   -2.3859    1.8959   -0.7225 H   0  0  0  0  0  0  0  0  0  0  0  0
   -3.8586    2.3277    0.1005 H   0  0  0  0  0  0  0  0  0  0  0  0
   -4.7861    0.0775   -0.1578 H   0  0  0  0  0  0  0  0  0  0  0  0
  1 33  1  0  0  0  0
  1 34  1  0  0  0  0
  1 35  1  0  0  0  0
  2  3  1  0  0  0  0
  2  4  1  0  0  0  0
  2 36  1  1  0  0  0
  3  5  1  0  0  0  0
  3 37  1  0  0  0  0
  3 38  1  0  0  0  0
  4 39  1  0  0  0  0
  4 40  1  0  0  0  0
  4 41  1  0  0  0  0
  5  6  1  0  0  0  0
  5 42  1  0  0  0  0
  5 43  1  0  0  0  0
  6  7  1  0  0  0  0
  6  8  2  0  0  0  0
  7  9  1  0  0  0  0
  7 44  1  0  0  0  0
  9 10  1  0  0  0  0
  9 45  1  0  0  0  0
  9 46  1  0  0  0  0
 10 11  1  0  0  0  0
 10 12  2  0  0  0  0
 11 47  1  0  0  0  0
 13 48  1  0  0  0  0
 14 49  1  0  0  0  0
 14 50  1  0  0  0  0
 14 51  1  0  0  0  0
 15 52  1  0  0  0  0
 16 17  1  0  0  0  0
 16 18  1  0  0  0  0
 16 19  1  0  0  0  0
 16 53  1  6  0  0  0
 17 20  1  0  0  0  0
 17 21  1  0  0  0  0
 17 54  1  1  0  0  0
 18  1  1  1  0  0  0
 18 22  1  0  0  0  0
 18 23  1  0  0  0  0
 19 24  1  0  0  0  0
 19 55  1  0  0  0  0
 19 56  1  0  0  0  0
 20 25  1  0  0  0  0
 20 26  1  0  0  0  0
 20 57  1  6  0  0  0
 21 27  1  0  0  0  0
 21 58  1  0  0  0  0
 21 59  1  0  0  0  0
 22 24  1  0  0  0  0
 22 60  1  6  0  0  0
 22  2  1  0  0  0  0
 23 13  1  0  0  0  0
 23 26  1  0  0  0  0
 23 61  1  1  0  0  0
 24 62  1  0  0  0  0
 24 63  1  0  0  0  0
 25 14  1  1  0  0  0
 25 28  1  0  0  0  0
 25 29  1  0  0  0  0
 26 64  1  0  0  0  0
 26 65  1  0  0  0  0
 27 66  1  0  0  0  0
 27 67  1  0  0  0  0
 28 27  1  0  0  0  0
 28 30  1  0  0  0  0
 28 68  1  1  0  0  0
 29 31  1  0  0  0  0
 29 69  1  0  0  0  0
 29 70  1  0  0  0  0
 30 32  1  0  0  0  0
 30 71  1  0  0  0  0
 30 72  1  0  0  0  0
 31 32  1  0  0  0  0
 31 73  1  0  0  0  0
 31 74  1  0  0  0  0
 32 15  1  0  0  0  0
 32 75  1  1  0  0  0
M  END
>  <Mol_ID>
7411

>  <Formula>
C26H43NO5

>  <MolWeight>
449.62332

>  <Cat>
E4508

>  <Name>
GLYCODEOXYCHOLIC ACID

>  <Synonyms>
GLYCODEOXYCHOLIC ACID

>  <Target>
Others

>  <Form>
Free base

>  <CAS>
360-65-6

>  <URL>
https://www.selleckchem.com/products/glycodeoxycholic-acid.html

$$$$
