Glycyl-L-leucine
 OpenBabel08302521383D

 29 28  0  0  0  0  0  0  0  0999 V2000
    0.8962    0.1216   -0.0259 C   0  0  1  0  0  0  0  0  0  0  0  0
    0.6713   -0.5260   -1.3088 N   0  0  0  0  0  0  0  0  0  0  0  0
    0.1447    1.4516    0.0544 C   0  0  0  0  0  0  0  0  0  0  0  0
    0.4075   -0.8670    1.0333 C   0  0  0  0  0  0  0  0  0  0  0  0
    1.6901   -0.7838   -2.1948 C   0  0  0  0  0  0  0  0  0  0  0  0
    0.2773    2.1992    1.3982 C   0  0  0  0  0  0  0  0  0  0  0  0
    1.3730   -1.3007    1.8828 O   0  0  0  0  0  0  0  0  0  0  0  0
   -0.7364   -1.3012    1.0877 O   0  0  0  0  0  0  0  0  0  0  0  0
    1.3192   -1.8168   -3.2656 C   0  0  0  0  0  0  0  0  0  0  0  0
    2.7911   -0.2438   -2.1372 O   0  0  0  0  0  0  0  0  0  0  0  0
    1.7251    2.5376    1.7521 C   0  0  0  0  0  0  0  0  0  0  0  0
   -0.5561    3.4831    1.3527 C   0  0  0  0  0  0  0  0  0  0  0  0
    0.3504   -2.7888   -2.7170 N   0  0  0  0  0  0  0  0  0  0  0  0
    1.9727    0.2951    0.0952 H   0  0  0  0  0  0  0  0  0  0  0  0
   -0.1525   -1.1272   -1.4117 H   0  0  0  0  0  0  0  0  0  0  0  0
    0.4932    2.1049   -0.7573 H   0  0  0  0  0  0  0  0  0  0  0  0
   -0.9238    1.2757   -0.1430 H   0  0  0  0  0  0  0  0  0  0  0  0
   -0.1307    1.5687    2.1995 H   0  0  0  0  0  0  0  0  0  0  0  0
    2.2614   -0.9522    1.6863 H   0  0  0  0  0  0  0  0  0  0  0  0
    0.8863   -1.2981   -4.1255 H   0  0  0  0  0  0  0  0  0  0  0  0
    2.2282   -2.3428   -3.5739 H   0  0  0  0  0  0  0  0  0  0  0  0
    2.1962    3.1388    0.9656 H   0  0  0  0  0  0  0  0  0  0  0  0
    1.7716    3.1079    2.6854 H   0  0  0  0  0  0  0  0  0  0  0  0
    2.3250    1.6351    1.8973 H   0  0  0  0  0  0  0  0  0  0  0  0
   -1.6095    3.2569    1.1569 H   0  0  0  0  0  0  0  0  0  0  0  0
   -0.5023    4.0190    2.3060 H   0  0  0  0  0  0  0  0  0  0  0  0
   -0.2019    4.1575    0.5650 H   0  0  0  0  0  0  0  0  0  0  0  0
    0.1667   -3.4967   -3.4271 H   0  0  0  0  0  0  0  0  0  0  0  0
    0.7956   -3.2893   -1.9455 H   0  0  0  0  0  0  0  0  0  0  0  0
  1  4  1  0  0  0  0
  1 14  1  1  0  0  0
  1  3  1  0  0  0  0
  1  2  1  0  0  0  0
  2  5  1  0  0  0  0
  2 15  1  0  0  0  0
  3  6  1  0  0  0  0
  3 16  1  0  0  0  0
  3 17  1  0  0  0  0
  4  7  1  0  0  0  0
  4  8  2  0  0  0  0
  5  9  1  0  0  0  0
  5 10  2  0  0  0  0
  6 11  1  0  0  0  0
  6 12  1  0  0  0  0
  6 18  1  0  0  0  0
  7 19  1  0  0  0  0
  9 13  1  0  0  0  0
  9 20  1  0  0  0  0
  9 21  1  0  0  0  0
 11 22  1  0  0  0  0
 11 23  1  0  0  0  0
 11 24  1  0  0  0  0
 12 25  1  0  0  0  0
 12 26  1  0  0  0  0
 12 27  1  0  0  0  0
 13 28  1  0  0  0  0
 13 29  1  0  0  0  0
M  END
>  <Mol_ID>
7892

>  <Formula>
C8H16N2O3

>  <MolWeight>
188.22424

>  <Cat>
S6054

>  <Name>
Glycyl-L-leucine

>  <Synonyms>
N/A

>  <Target>
Others

>  <Form>
free base

>  <CAS>
869-19-2

>  <URL>
http://www.selleck.cn/products/glycyl-l-leucine.html

$$$$
