Glycolaldehyde dimer
 OpenBabel08302521293D

 16 16  0  0  0  0  0  0  0  0999 V2000
    0.7413    1.1689   -0.2560 O   0  0  0  0  0  0  0  0  0  0  0  0
    1.4230    0.0103    0.2334 C   0  0  3  0  0  0  0  0  0  0  0  0
    0.7018   -1.2772   -0.2054 C   0  0  0  0  0  0  0  0  0  0  0  0
   -0.6826   -1.2725    0.1621 O   0  0  0  0  0  0  0  0  0  0  0  0
   -1.3401   -0.0911   -0.3037 C   0  0  3  0  0  0  0  0  0  0  0  0
   -0.6206    1.1652    0.2154 C   0  0  0  0  0  0  0  0  0  0  0  0
    2.7500    0.0432   -0.2575 O   0  0  0  0  0  0  0  0  0  0  0  0
   -1.4008   -0.0847   -1.7247 O   0  0  0  0  0  0  0  0  0  0  0  0
    1.4642    0.0683    1.3272 H   0  0  0  0  0  0  0  0  0  0  0  0
    0.7805   -1.4159   -1.2904 H   0  0  0  0  0  0  0  0  0  0  0  0
    1.1790   -2.1493    0.2538 H   0  0  0  0  0  0  0  0  0  0  0  0
   -2.3670   -0.1137    0.0719 H   0  0  0  0  0  0  0  0  0  0  0  0
   -0.6187    1.2018    1.3108 H   0  0  0  0  0  0  0  0  0  0  0  0
   -1.0988    2.0699   -0.1719 H   0  0  0  0  0  0  0  0  0  0  0  0
    2.6736    0.0548   -1.2248 H   0  0  0  0  0  0  0  0  0  0  0  0
   -0.6241    0.4157   -2.0307 H   0  0  0  0  0  0  0  0  0  0  0  0
  1  2  1  0  0  0  0
  2  3  1  0  0  0  0
  2  7  1  0  0  0  0
  2  9  1  0  0  0  0
  3  4  1  0  0  0  0
  3 10  1  0  0  0  0
  3 11  1  0  0  0  0
  4  5  1  0  0  0  0
  5  6  1  0  0  0  0
  5  8  1  0  0  0  0
  5 12  1  0  0  0  0
  6  1  1  0  0  0  0
  6 13  1  0  0  0  0
  6 14  1  0  0  0  0
  7 15  1  0  0  0  0
  8 16  1  0  0  0  0
M  END
>  <Mol_ID>
5496

>  <Formula>
C4H8O4

>  <MolWeight>
120.10392

>  <Cat>
S3334

>  <Name>
Glycolaldehyde dimer

>  <Synonyms>
2,5-Dihydroxy-1,4-dioxane, 1,4-Dioxane-2,5-diol, DD

>  <Target>
Others

>  <Form>
Free Base

>  <CAS>
23147-58-2

>  <URL>
https://www.selleckchem.com/products/glycolaldehyde-dimer.html

$$$$
