GM6001 (galardin, ilomastat).cdx
 OpenBabel08302519513D

 56 57  0  0  0  0  0  0  0  0999 V2000
   -0.6474    0.6943   -3.9636 C   0  0  0  0  0  0  0  0  0  0  0  0
   -0.2379    1.9506   -3.5288 C   0  0  0  0  0  0  0  0  0  0  0  0
   -0.1415    2.2370   -2.1638 C   0  0  0  0  0  0  0  0  0  0  0  0
   -0.4689    1.2207   -1.2572 C   0  0  0  0  0  0  0  0  0  0  0  0
   -0.8941   -0.0499   -1.6552 C   0  0  0  0  0  0  0  0  0  0  0  0
   -0.9831   -0.3051   -3.0409 C   0  0  0  0  0  0  0  0  0  0  0  0
   -0.4711    1.2322    0.1172 N   0  0  0  0  0  0  0  0  0  0  0  0
   -0.9078    0.0291    0.6027 C   0  0  0  0  0  0  0  0  0  0  0  0
   -1.1773   -0.8096   -0.4656 C   0  0  0  0  0  0  0  0  0  0  0  0
   -1.7572   -2.2000   -0.3761 C   0  0  0  0  0  0  0  0  0  0  0  0
   -0.7541   -3.3585   -0.1820 C   0  0  1  0  0  0  0  0  0  0  0  0
    0.1510   -3.5067   -1.4356 C   0  0  0  0  0  0  0  0  0  0  0  0
   -0.2823   -3.3465   -2.5769 O   0  0  0  0  0  0  0  0  0  0  0  0
    1.4295   -3.9703   -1.2050 N   0  0  0  0  0  0  0  0  0  0  0  0
   -0.0744   -3.2940    1.1287 N   0  0  0  0  0  0  0  0  0  0  0  0
    0.3637   -4.4102    1.7929 C   0  0  0  0  0  0  0  0  0  0  0  0
    0.3214   -5.5221    1.2679 O   0  0  0  0  0  0  0  0  0  0  0  0
    0.9822   -4.2329    3.1839 C   0  0  1  0  0  0  0  0  0  0  0  0
    2.3641   -4.1894   -2.2825 C   0  0  0  0  0  0  0  0  0  0  0  0
    2.2638   -3.3874    3.1503 C   0  0  0  0  0  0  0  0  0  0  0  0
   -0.0279   -3.8251    4.2725 C   0  0  0  0  0  0  0  0  0  0  0  0
   -1.0943   -4.9092    4.5780 C   0  0  0  0  0  0  0  0  0  0  0  0
   -0.4841   -6.2385    5.0372 C   0  0  0  0  0  0  0  0  0  0  0  0
   -2.0671   -4.4152    5.6539 C   0  0  0  0  0  0  0  0  0  0  0  0
    2.1145   -1.9966    2.5762 C   0  0  0  0  0  0  0  0  0  0  0  0
    1.1165   -1.3064    2.7802 O   0  0  0  0  0  0  0  0  0  0  0  0
    3.1178   -1.5513    1.7623 N   0  0  0  0  0  0  0  0  0  0  0  0
    4.3676   -2.1948    1.8087 O   0  0  0  0  0  0  0  0  0  0  0  0
   -0.7116    0.4821   -5.0278 H   0  0  0  0  0  0  0  0  0  0  0  0
    0.0063    2.7181   -4.2590 H   0  0  0  0  0  0  0  0  0  0  0  0
    0.1658    3.2221   -1.8281 H   0  0  0  0  0  0  0  0  0  0  0  0
   -1.3109   -1.2749   -3.4044 H   0  0  0  0  0  0  0  0  0  0  0  0
   -0.2201    2.0295    0.6831 H   0  0  0  0  0  0  0  0  0  0  0  0
   -1.0147   -0.1179    1.6665 H   0  0  0  0  0  0  0  0  0  0  0  0
   -2.4597   -2.2121    0.4690 H   0  0  0  0  0  0  0  0  0  0  0  0
   -2.3652   -2.3844   -1.2707 H   0  0  0  0  0  0  0  0  0  0  0  0
   -1.3414   -4.2875   -0.1660 H   0  0  0  0  0  0  0  0  0  0  0  0
    1.5591   -4.4858   -0.3421 H   0  0  0  0  0  0  0  0  0  0  0  0
   -0.0237   -2.3823    1.5797 H   0  0  0  0  0  0  0  0  0  0  0  0
    1.3528   -5.2289    3.4569 H   0  0  0  0  0  0  0  0  0  0  0  0
    3.3117   -3.7200   -2.0064 H   0  0  0  0  0  0  0  0  0  0  0  0
    2.5158   -5.2645   -2.4032 H   0  0  0  0  0  0  0  0  0  0  0  0
    2.0115   -3.7617   -3.2253 H   0  0  0  0  0  0  0  0  0  0  0  0
    2.6764   -3.2816    4.1612 H   0  0  0  0  0  0  0  0  0  0  0  0
    2.9973   -3.9500    2.5624 H   0  0  0  0  0  0  0  0  0  0  0  0
    0.5184   -3.6097    5.2013 H   0  0  0  0  0  0  0  0  0  0  0  0
   -0.5401   -2.8980    3.9905 H   0  0  0  0  0  0  0  0  0  0  0  0
   -1.6749   -5.0977    3.6670 H   0  0  0  0  0  0  0  0  0  0  0  0
    0.1875   -6.0949    5.8906 H   0  0  0  0  0  0  0  0  0  0  0  0
   -1.2663   -6.9439    5.3385 H   0  0  0  0  0  0  0  0  0  0  0  0
    0.0791   -6.7231    4.2346 H   0  0  0  0  0  0  0  0  0  0  0  0
   -2.5706   -3.4966    5.3374 H   0  0  0  0  0  0  0  0  0  0  0  0
   -2.8406   -5.1670    5.8493 H   0  0  0  0  0  0  0  0  0  0  0  0
   -1.5504   -4.2153    6.5991 H   0  0  0  0  0  0  0  0  0  0  0  0
    3.1152   -0.5678    1.5086 H   0  0  0  0  0  0  0  0  0  0  0  0
    4.3187   -2.7928    1.0374 H   0  0  0  0  0  0  0  0  0  0  0  0
  1  2  2  0  0  0  0
  1 29  1  0  0  0  0
  2  3  1  0  0  0  0
  2 30  1  0  0  0  0
  3  4  2  0  0  0  0
  3 31  1  0  0  0  0
  4  5  1  0  0  0  0
  4  7  1  0  0  0  0
  5  6  2  0  0  0  0
  6  1  1  0  0  0  0
  6 32  1  0  0  0  0
  7  8  1  0  0  0  0
  7 33  1  0  0  0  0
  8  9  2  0  0  0  0
  8 34  1  0  0  0  0
  9  5  1  0  0  0  0
  9 10  1  0  0  0  0
 10 35  1  0  0  0  0
 10 36  1  0  0  0  0
 11 10  1  0  0  0  0
 11 12  1  0  0  0  0
 11 15  1  0  0  0  0
 11 37  1  1  0  0  0
 12 13  2  0  0  0  0
 12 14  1  0  0  0  0
 14 19  1  0  0  0  0
 14 38  1  0  0  0  0
 15 16  1  0  0  0  0
 15 39  1  0  0  0  0
 16 17  2  0  0  0  0
 16 18  1  0  0  0  0
 18 20  1  0  0  0  0
 18 21  1  0  0  0  0
 18 40  1  1  0  0  0
 19 41  1  0  0  0  0
 19 42  1  0  0  0  0
 19 43  1  0  0  0  0
 20 25  1  0  0  0  0
 20 44  1  0  0  0  0
 20 45  1  0  0  0  0
 21 22  1  0  0  0  0
 21 46  1  0  0  0  0
 21 47  1  0  0  0  0
 22 23  1  0  0  0  0
 22 24  1  0  0  0  0
 22 48  1  0  0  0  0
 23 49  1  0  0  0  0
 23 50  1  0  0  0  0
 23 51  1  0  0  0  0
 24 52  1  0  0  0  0
 24 53  1  0  0  0  0
 24 54  1  0  0  0  0
 25 26  2  0  0  0  0
 25 27  1  0  0  0  0
 27 28  1  0  0  0  0
 27 55  1  0  0  0  0
 28 56  1  0  0  0  0
M  END
>  <Mol_ID>
1881

>  <Formula>
C20H28N4O4

>  <MolWeight>
388.46072

>  <Cat>
S7157

>  <Name>
Ilomastat

>  <Synonyms>
GM6001, Galardin

>  <Target>
MMP

>  <Form>
free base

>  <CAS>
142880-36-2

>  <URL>
http://selleckchem.com/products/gm6001.html

$$$$
