GNE-493
 OpenBabel08302521303D

 46 49  0  0  0  0  0  0  0  0999 V2000
   -2.4448    0.3633   -0.0704 C   0  0  0  0  0  0  0  0  0  0  0  0
   -1.4827    1.2889   -0.1054 N   0  0  0  0  0  0  0  0  0  0  0  0
   -0.2230    0.8016   -0.0598 C   0  0  0  0  0  0  0  0  0  0  0  0
    0.0646   -0.5559    0.0055 C   0  0  0  0  0  0  0  0  0  0  0  0
   -0.9973   -1.4785    0.0302 C   0  0  0  0  0  0  0  0  0  0  0  0
   -2.2509   -0.9654   -0.0091 N   0  0  0  0  0  0  0  0  0  0  0  0
    0.9488    1.6099   -0.0570 C   0  0  0  0  0  0  0  0  0  0  0  0
    2.1214    0.8774   -0.0296 C   0  0  0  0  0  0  0  0  0  0  0  0
    1.7674   -0.7968    0.1125 S   0  0  0  0  0  0  0  0  0  0  0  0
    3.5441    1.4058   -0.0722 C   0  0  0  0  0  0  0  0  0  0  0  0
    3.4952    2.6372   -0.8062 O   0  0  0  0  0  0  0  0  0  0  0  0
   -1.5978   -4.9346    1.2475 C   0  0  0  0  0  0  0  0  0  0  0  0
   -2.0112   -3.5263    0.7981 C   0  0  0  0  0  0  0  0  0  0  0  0
   -0.8240   -2.8488    0.2358 N   0  0  0  0  0  0  0  0  0  0  0  0
   -0.2873   -3.6063   -0.9125 C   0  0  0  0  0  0  0  0  0  0  0  0
    0.0721   -5.0257   -0.4265 C   0  0  0  0  0  0  0  0  0  0  0  0
   -1.0658   -5.6955    0.1480 O   0  0  0  0  0  0  0  0  0  0  0  0
    4.0587    1.7425    1.3269 C   0  0  0  0  0  0  0  0  0  0  0  0
    4.5265    0.4886   -0.8049 C   0  0  0  0  0  0  0  0  0  0  0  0
   -6.4167    1.7095   -0.0019 C   0  0  0  0  0  0  0  0  0  0  0  0
   -5.4533    2.6271   -0.0703 N   0  0  0  0  0  0  0  0  0  0  0  0
   -4.1791    2.1671   -0.0902 C   0  0  0  0  0  0  0  0  0  0  0  0
   -3.8266    0.8331   -0.0640 C   0  0  0  0  0  0  0  0  0  0  0  0
   -4.9178   -0.0138   -0.0171 C   0  0  0  0  0  0  0  0  0  0  0  0
   -6.2093    0.3924    0.0055 N   0  0  0  0  0  0  0  0  0  0  0  0
   -7.7214    2.1518    0.0096 N   0  0  0  0  0  0  0  0  0  0  0  0
    0.9275    2.6929   -0.0897 H   0  0  0  0  0  0  0  0  0  0  0  0
    3.1619    2.4301   -1.6962 H   0  0  0  0  0  0  0  0  0  0  0  0
   -0.8450   -4.8837    2.0436 H   0  0  0  0  0  0  0  0  0  0  0  0
   -2.4665   -5.4724    1.6390 H   0  0  0  0  0  0  0  0  0  0  0  0
   -2.7985   -3.6033    0.0353 H   0  0  0  0  0  0  0  0  0  0  0  0
   -2.4067   -2.9799    1.6623 H   0  0  0  0  0  0  0  0  0  0  0  0
   -1.0512   -3.6758   -1.6989 H   0  0  0  0  0  0  0  0  0  0  0  0
    0.6028   -3.1388   -1.3439 H   0  0  0  0  0  0  0  0  0  0  0  0
    0.4228   -5.6354   -1.2648 H   0  0  0  0  0  0  0  0  0  0  0  0
    0.8735   -4.9894    0.3216 H   0  0  0  0  0  0  0  0  0  0  0  0
    4.0799    0.8636    1.9790 H   0  0  0  0  0  0  0  0  0  0  0  0
    5.0723    2.1592    1.2767 H   0  0  0  0  0  0  0  0  0  0  0  0
    3.4378    2.5104    1.8043 H   0  0  0  0  0  0  0  0  0  0  0  0
    4.6796   -0.4604   -0.2806 H   0  0  0  0  0  0  0  0  0  0  0  0
    4.1777    0.2696   -1.8212 H   0  0  0  0  0  0  0  0  0  0  0  0
    5.5032    0.9746   -0.9129 H   0  0  0  0  0  0  0  0  0  0  0  0
   -3.4257    2.9507   -0.1269 H   0  0  0  0  0  0  0  0  0  0  0  0
   -4.7930   -1.0932    0.0070 H   0  0  0  0  0  0  0  0  0  0  0  0
   -8.3264    1.4261   -0.3565 H   0  0  0  0  0  0  0  0  0  0  0  0
   -7.7744    3.0633   -0.4202 H   0  0  0  0  0  0  0  0  0  0  0  0
  1  2  2  0  0  0  0
  1  6  1  0  0  0  0
  1 23  1  0  0  0  0
  2  3  1  0  0  0  0
  3  4  2  0  0  0  0
  3  7  1  0  0  0  0
  4  5  1  0  0  0  0
  4  9  1  0  0  0  0
  5  6  2  0  0  0  0
  5 14  1  0  0  0  0
  7  8  2  0  0  0  0
  7 27  1  0  0  0  0
  8  9  1  0  0  0  0
  8 10  1  0  0  0  0
 10 11  1  0  0  0  0
 10 18  1  0  0  0  0
 10 19  1  0  0  0  0
 11 28  1  0  0  0  0
 12 13  1  0  0  0  0
 12 17  1  0  0  0  0
 12 29  1  0  0  0  0
 12 30  1  0  0  0  0
 13 14  1  0  0  0  0
 13 31  1  0  0  0  0
 13 32  1  0  0  0  0
 14 15  1  0  0  0  0
 15 16  1  0  0  0  0
 15 33  1  0  0  0  0
 15 34  1  0  0  0  0
 16 17  1  0  0  0  0
 16 35  1  0  0  0  0
 16 36  1  0  0  0  0
 18 37  1  0  0  0  0
 18 38  1  0  0  0  0
 18 39  1  0  0  0  0
 19 40  1  0  0  0  0
 19 41  1  0  0  0  0
 19 42  1  0  0  0  0
 20 21  2  0  0  0  0
 20 25  1  0  0  0  0
 20 26  1  0  0  0  0
 21 22  1  0  0  0  0
 22 23  2  0  0  0  0
 22 43  1  0  0  0  0
 23 24  1  0  0  0  0
 24 25  2  0  0  0  0
 24 44  1  0  0  0  0
 26 45  1  0  0  0  0
 26 46  1  0  0  0  0
M  END
>  <Mol_ID>
5521

>  <Formula>
C17H20N6O2S

>  <MolWeight>
372.4447

>  <Cat>
S6517

>  <Name>
GNE-493

>  <Synonyms>
N/A

>  <Target>
mTOR,PI3K

>  <Form>
Free Base

>  <CAS>
1033735-94-2

>  <URL>
https://www.selleckchem.com/products/gne-493.html

$$$$
