GNE-617
 OpenBabel08302521223D

 45 48  0  0  0  0  0  0  0  0999 V2000
   -1.1204    1.7149    0.2022 C   0  0  0  0  0  0  0  0  0  0  0  0
   -0.1518    1.6707   -0.8343 C   0  0  0  0  0  0  0  0  0  0  0  0
    1.0610    1.1221   -0.6041 C   0  0  0  0  0  0  0  0  0  0  0  0
    1.4161    0.5416    0.6962 C   0  0  0  0  0  0  0  0  0  0  0  0
    0.4934    0.6072    1.6819 C   0  0  0  0  0  0  0  0  0  0  0  0
   -0.7471    1.1880    1.4338 N   0  0  0  0  0  0  0  0  0  0  0  0
   -2.3479    2.1879    0.2244 N   0  0  0  0  0  0  0  0  0  0  0  0
   -2.7925    1.9783    1.5040 C   0  0  0  0  0  0  0  0  0  0  0  0
   -1.8247    1.3681    2.2691 C   0  0  0  0  0  0  0  0  0  0  0  0
    2.7387   -0.1225    1.0108 C   0  0  0  0  0  0  0  0  0  0  0  0
    3.0008   -0.5035    2.1491 O   0  0  0  0  0  0  0  0  0  0  0  0
    3.6127   -0.2807   -0.0389 N   0  0  0  0  0  0  0  0  0  0  0  0
    4.9430   -0.8328    0.1381 C   0  0  0  0  0  0  0  0  0  0  0  0
    5.4756   -1.4109   -1.1546 C   0  0  0  0  0  0  0  0  0  0  0  0
    6.1587   -0.6033   -2.0797 C   0  0  0  0  0  0  0  0  0  0  0  0
    6.6733   -1.1467   -3.2633 C   0  0  0  0  0  0  0  0  0  0  0  0
    6.4928   -2.5055   -3.5358 C   0  0  0  0  0  0  0  0  0  0  0  0
    5.8071   -3.3217   -2.6349 C   0  0  0  0  0  0  0  0  0  0  0  0
    5.2921   -2.7715   -1.4555 C   0  0  0  0  0  0  0  0  0  0  0  0
    7.2311   -3.2206   -4.9930 S   0  0  0  0  0  0  0  0  0  0  0  0
    8.4277   -2.4547   -5.2909 O   0  0  0  0  0  0  0  0  0  0  0  0
    7.3131   -4.6554   -4.7873 O   0  0  0  0  0  0  0  0  0  0  0  0
    6.0923   -2.9534   -6.3293 C   0  0  0  0  0  0  0  0  0  0  0  0
    6.2185   -1.8086   -7.1206 C   0  0  0  0  0  0  0  0  0  0  0  0
    5.3145   -1.6042   -8.1574 C   0  0  0  0  0  0  0  0  0  0  0  0
    4.3111   -2.5253   -8.4302 C   0  0  0  0  0  0  0  0  0  0  0  0
    4.2263   -3.6758   -7.6568 C   0  0  0  0  0  0  0  0  0  0  0  0
    5.1097   -3.9074   -6.6072 C   0  0  0  0  0  0  0  0  0  0  0  0
    3.2709   -4.5756   -7.9213 F   0  0  0  0  0  0  0  0  0  0  0  0
    5.4091   -0.4941   -8.8993 F   0  0  0  0  0  0  0  0  0  0  0  0
   -0.4123    2.0984   -1.7963 H   0  0  0  0  0  0  0  0  0  0  0  0
    1.7819    1.1338   -1.4093 H   0  0  0  0  0  0  0  0  0  0  0  0
    0.6559    0.2175    2.6811 H   0  0  0  0  0  0  0  0  0  0  0  0
   -3.7871    2.2813    1.8086 H   0  0  0  0  0  0  0  0  0  0  0  0
   -1.8104    1.0578    3.3043 H   0  0  0  0  0  0  0  0  0  0  0  0
    3.4122    0.1144   -0.9410 H   0  0  0  0  0  0  0  0  0  0  0  0
    5.5975   -0.0218    0.4814 H   0  0  0  0  0  0  0  0  0  0  0  0
    4.9408   -1.5903    0.9307 H   0  0  0  0  0  0  0  0  0  0  0  0
    6.3202    0.4527   -1.8683 H   0  0  0  0  0  0  0  0  0  0  0  0
    7.2305   -0.5093   -3.9471 H   0  0  0  0  0  0  0  0  0  0  0  0
    5.6862   -4.3869   -2.8251 H   0  0  0  0  0  0  0  0  0  0  0  0
    4.7666   -3.4188   -0.7539 H   0  0  0  0  0  0  0  0  0  0  0  0
    7.0039   -1.0783   -6.9485 H   0  0  0  0  0  0  0  0  0  0  0  0
    3.6096   -2.3512   -9.2389 H   0  0  0  0  0  0  0  0  0  0  0  0
    5.0213   -4.8236   -6.0294 H   0  0  0  0  0  0  0  0  0  0  0  0
  1  2  1  0  0  0  0
  1  6  1  0  0  0  0
  1  7  2  0  0  0  0
  2  3  2  0  0  0  0
  2 31  1  0  0  0  0
  3  4  1  0  0  0  0
  3 32  1  0  0  0  0
  4  5  2  0  0  0  0
  4 10  1  0  0  0  0
  5  6  1  0  0  0  0
  5 33  1  0  0  0  0
  6  9  1  0  0  0  0
  7  8  1  0  0  0  0
  8  9  2  0  0  0  0
  8 34  1  0  0  0  0
  9 35  1  0  0  0  0
 10 11  2  0  0  0  0
 10 12  1  0  0  0  0
 12 13  1  0  0  0  0
 12 36  1  0  0  0  0
 13 14  1  0  0  0  0
 13 37  1  0  0  0  0
 13 38  1  0  0  0  0
 14 15  2  0  0  0  0
 14 19  1  0  0  0  0
 15 16  1  0  0  0  0
 15 39  1  0  0  0  0
 16 17  2  0  0  0  0
 16 40  1  0  0  0  0
 17 18  1  0  0  0  0
 17 20  1  0  0  0  0
 18 19  2  0  0  0  0
 18 41  1  0  0  0  0
 19 42  1  0  0  0  0
 20 21  2  0  0  0  0
 20 22  2  0  0  0  0
 20 23  1  0  0  0  0
 23 24  2  0  0  0  0
 23 28  1  0  0  0  0
 24 25  1  0  0  0  0
 24 43  1  0  0  0  0
 25 26  2  0  0  0  0
 25 30  1  0  0  0  0
 26 27  1  0  0  0  0
 26 44  1  0  0  0  0
 27 28  2  0  0  0  0
 27 29  1  0  0  0  0
 28 45  1  0  0  0  0
M  END
>  <Mol_ID>
4750

>  <Formula>
C21H15F2N3O3S

>  <MolWeight>
427.4239064

>  <Cat>
S6629

>  <Name>
GNE-617

>  <Synonyms>
N/A

>  <Target>
NAMPT

>  <Form>
Free Base

>  <CAS>
1362154-70-8

>  <URL>
http://www.selleck.cn/products/gne-617.html

$$$$
