GNE7915.cdx
 OpenBabel08302519583D

 52 54  0  0  0  0  0  0  0  0999 V2000
   -0.1303   -1.2639   -1.8759 C   0  0  0  0  0  0  0  0  0  0  0  0
    1.0793   -0.6333   -1.7705 C   0  0  0  0  0  0  0  0  0  0  0  0
    1.2335    0.5745   -1.2233 N   0  0  0  0  0  0  0  0  0  0  0  0
    0.1351    1.2154   -0.7955 C   0  0  0  0  0  0  0  0  0  0  0  0
   -1.0916    0.6743   -0.8643 N   0  0  0  0  0  0  0  0  0  0  0  0
   -1.2272   -0.5610   -1.4094 C   0  0  0  0  0  0  0  0  0  0  0  0
   -0.2126   -2.6063   -2.4989 C   0  0  0  0  0  0  0  0  0  0  0  0
   -2.4808   -1.1961   -1.3969 N   0  0  0  0  0  0  0  0  0  0  0  0
    0.2815    2.4824   -0.2197 N   0  0  0  0  0  0  0  0  0  0  0  0
    1.4170    3.3085   -0.1471 C   0  0  0  0  0  0  0  0  0  0  0  0
    2.4581    3.1480   -1.0839 C   0  0  0  0  0  0  0  0  0  0  0  0
    3.6534    3.8527   -1.0033 C   0  0  0  0  0  0  0  0  0  0  0  0
    3.8569    4.7755    0.0100 C   0  0  0  0  0  0  0  0  0  0  0  0
    2.8141    5.0160    0.9093 C   0  0  0  0  0  0  0  0  0  0  0  0
    1.6229    4.2608    0.8715 C   0  0  0  0  0  0  0  0  0  0  0  0
    0.7431    4.6293    1.8571 O   0  0  0  0  0  0  0  0  0  0  0  0
   -0.0022    3.6086    2.5045 C   0  0  0  0  0  0  0  0  0  0  0  0
    4.5954    3.6026   -1.9246 F   0  0  0  0  0  0  0  0  0  0  0  0
    5.1179    5.5463    0.0205 C   0  0  0  0  0  0  0  0  0  0  0  0
    5.8204    5.7465    1.2025 N   0  0  0  0  0  0  0  0  0  0  0  0
    5.5425    5.2057    2.5379 C   0  0  0  0  0  0  0  0  0  0  0  0
    5.4382    6.3628    3.5412 C   0  0  0  0  0  0  0  0  0  0  0  0
    6.6323    7.1650    3.5312 O   0  0  0  0  0  0  0  0  0  0  0  0
    6.8799    7.7077    2.2209 C   0  0  0  0  0  0  0  0  0  0  0  0
    7.0156    6.5946    1.1777 C   0  0  0  0  0  0  0  0  0  0  0  0
    5.4962    6.0160   -1.0516 O   0  0  0  0  0  0  0  0  0  0  0  0
    0.9779   -3.0485   -2.9985 F   0  0  0  0  0  0  0  0  0  0  0  0
   -0.6339   -3.5779   -1.6473 F   0  0  0  0  0  0  0  0  0  0  0  0
   -1.0786   -2.6330   -3.5525 F   0  0  0  0  0  0  0  0  0  0  0  0
   -3.6547   -0.3433   -1.2472 C   0  0  0  0  0  0  0  0  0  0  0  0
   -4.8878   -1.2372   -1.2149 C   0  0  0  0  0  0  0  0  0  0  0  0
    2.0019   -1.0794   -2.1353 H   0  0  0  0  0  0  0  0  0  0  0  0
   -2.6035   -1.8148   -2.1970 H   0  0  0  0  0  0  0  0  0  0  0  0
   -0.6035    2.8578    0.0819 H   0  0  0  0  0  0  0  0  0  0  0  0
    2.3524    2.4797   -1.9329 H   0  0  0  0  0  0  0  0  0  0  0  0
    2.9187    5.7925    1.6618 H   0  0  0  0  0  0  0  0  0  0  0  0
   -0.9577    3.4646    1.9944 H   0  0  0  0  0  0  0  0  0  0  0  0
    0.5487    2.6667    2.6022 H   0  0  0  0  0  0  0  0  0  0  0  0
   -0.2388    3.9610    3.5148 H   0  0  0  0  0  0  0  0  0  0  0  0
    6.3959    4.5694    2.8000 H   0  0  0  0  0  0  0  0  0  0  0  0
    4.6544    4.5766    2.5658 H   0  0  0  0  0  0  0  0  0  0  0  0
    4.5800    7.0078    3.3160 H   0  0  0  0  0  0  0  0  0  0  0  0
    5.3094    5.9730    4.5557 H   0  0  0  0  0  0  0  0  0  0  0  0
    7.8051    8.2905    2.2702 H   0  0  0  0  0  0  0  0  0  0  0  0
    6.0628    8.3913    1.9612 H   0  0  0  0  0  0  0  0  0  0  0  0
    7.8656    5.9480    1.4264 H   0  0  0  0  0  0  0  0  0  0  0  0
    7.1952    7.0239    0.1881 H   0  0  0  0  0  0  0  0  0  0  0  0
   -3.6140    0.2487   -0.3252 H   0  0  0  0  0  0  0  0  0  0  0  0
   -3.7296    0.3353   -2.1036 H   0  0  0  0  0  0  0  0  0  0  0  0
   -4.8576   -1.9168   -0.3549 H   0  0  0  0  0  0  0  0  0  0  0  0
   -5.8020   -0.6384   -1.1490 H   0  0  0  0  0  0  0  0  0  0  0  0
   -4.9526   -1.8563   -2.1187 H   0  0  0  0  0  0  0  0  0  0  0  0
  1  2  2  0  0  0  0
  1  7  1  0  0  0  0
  2  3  1  0  0  0  0
  2 32  1  0  0  0  0
  3  4  2  0  0  0  0
  4  5  1  0  0  0  0
  4  9  1  0  0  0  0
  5  6  2  0  0  0  0
  6  1  1  0  0  0  0
  6  8  1  0  0  0  0
  7 27  1  0  0  0  0
  7 28  1  0  0  0  0
  7 29  1  0  0  0  0
  8 30  1  0  0  0  0
  8 33  1  0  0  0  0
  9 10  1  0  0  0  0
  9 34  1  0  0  0  0
 10 11  2  0  0  0  0
 11 12  1  0  0  0  0
 11 35  1  0  0  0  0
 12 13  2  0  0  0  0
 12 18  1  0  0  0  0
 13 14  1  0  0  0  0
 13 19  1  0  0  0  0
 14 15  2  0  0  0  0
 14 36  1  0  0  0  0
 15 10  1  0  0  0  0
 15 16  1  0  0  0  0
 16 17  1  0  0  0  0
 17 37  1  0  0  0  0
 17 38  1  0  0  0  0
 17 39  1  0  0  0  0
 19 20  1  0  0  0  0
 19 26  2  0  0  0  0
 20 21  1  0  0  0  0
 21 22  1  0  0  0  0
 21 40  1  0  0  0  0
 21 41  1  0  0  0  0
 22 23  1  0  0  0  0
 22 42  1  0  0  0  0
 22 43  1  0  0  0  0
 23 24  1  0  0  0  0
 24 25  1  0  0  0  0
 24 44  1  0  0  0  0
 24 45  1  0  0  0  0
 25 20  1  0  0  0  0
 25 46  1  0  0  0  0
 25 47  1  0  0  0  0
 30 31  1  0  0  0  0
 30 48  1  0  0  0  0
 30 49  1  0  0  0  0
 31 50  1  0  0  0  0
 31 51  1  0  0  0  0
 31 52  1  0  0  0  0
M  END
>  <Mol_ID>
2445

>  <Formula>
C19H21F4N5O3

>  <MolWeight>
443.3953528

>  <Cat>
S7528

>  <Name>
GNE-7915

>  <Synonyms>
N/A

>  <Target>
LRRK2

>  <Form>
free base

>  <CAS>
1351761-44-8

>  <URL>
http://selleckchem.com/products/gne-7915.html

$$$$
