GNE 2861
 OpenBabel08302521353D

 56 59  0  0  0  0  0  0  0  0999 V2000
    1.0050   -0.1185   -0.0735 O   0  0  0  0  0  0  0  0  0  0  0  0
    8.3062   -7.1033    8.4747 O   0  0  0  0  0  0  0  0  0  0  0  0
    5.0992   -4.2069    5.5536 N   0  0  0  0  0  0  0  0  0  0  0  0
    6.3531   -2.6968    6.6562 N   0  0  0  0  0  0  0  0  0  0  0  0
    6.6969   -4.9972    7.1891 N   0  0  0  0  0  0  0  0  0  0  0  0
    5.0661   -6.6089    5.6882 N   0  0  0  0  0  0  0  0  0  0  0  0
    3.8216   -7.9438    4.1740 N   0  0  0  0  0  0  0  0  0  0  0  0
    5.1875   -8.9221    5.7563 N   0  0  0  0  0  0  0  0  0  0  0  0
    0.5104   -0.0295    1.2635 C   0  0  0  0  0  0  0  0  0  0  0  0
   -0.6824   -0.9845    1.3935 C   0  0  0  0  0  0  0  0  0  0  0  0
    0.0986    1.4187    1.5580 C   0  0  0  0  0  0  0  0  0  0  0  0
   -1.8695   -0.5338    0.5388 C   0  0  0  0  0  0  0  0  0  0  0  0
   -1.0878    1.8619    0.7020 C   0  0  0  0  0  0  0  0  0  0  0  0
   -2.2687    0.9065    0.8473 C   0  0  0  0  0  0  0  0  0  0  0  0
    1.6307   -0.4464    2.2023 C   0  0  0  0  0  0  0  0  0  0  0  0
    2.5917   -0.8041    3.0076 C   0  0  0  0  0  0  0  0  0  0  0  0
    3.6159   -1.1432    3.9403 C   0  0  0  0  0  0  0  0  0  0  0  0
    4.6943   -2.9443    5.1235 C   0  0  0  0  0  0  0  0  0  0  0  0
    3.6918   -2.4834    4.2630 C   0  0  0  0  0  0  0  0  0  0  0  0
    5.5380   -2.0463    5.7648 C   0  0  0  0  0  0  0  0  0  0  0  0
    6.0961   -3.9791    6.5210 C   0  0  0  0  0  0  0  0  0  0  0  0
    4.4838   -0.2263    4.5239 C   0  0  0  0  0  0  0  0  0  0  0  0
    5.4440   -0.6696    5.4566 C   0  0  0  0  0  0  0  0  0  0  0  0
    4.6096   -5.4835    5.0859 C   0  0  0  0  0  0  0  0  0  0  0  0
    7.4483   -4.7957    8.4165 C   0  0  0  0  0  0  0  0  0  0  0  0
    7.5457   -6.1251    9.1977 C   0  0  0  0  0  0  0  0  0  0  0  0
    3.7543   -5.5767    4.0120 C   0  0  0  0  0  0  0  0  0  0  0  0
    3.3734   -6.8294    3.5962 C   0  0  0  0  0  0  0  0  0  0  0  0
    4.6694   -7.7806    5.1809 C   0  0  0  0  0  0  0  0  0  0  0  0
    8.3385   -8.3544    9.1576 C   0  0  0  0  0  0  0  0  0  0  0  0
    1.9364    0.1605   -0.0558 H   0  0  0  0  0  0  0  0  0  0  0  0
    6.9389   -5.8444    6.6727 H   0  0  0  0  0  0  0  0  0  0  0  0
    5.4289   -8.7466    6.7138 H   0  0  0  0  0  0  0  0  0  0  0  0
    4.5907   -9.7085    5.5401 H   0  0  0  0  0  0  0  0  0  0  0  0
   -0.3944   -1.9960    1.0783 H   0  0  0  0  0  0  0  0  0  0  0  0
   -1.0003   -1.0544    2.4418 H   0  0  0  0  0  0  0  0  0  0  0  0
   -0.1674    1.5245    2.6185 H   0  0  0  0  0  0  0  0  0  0  0  0
    0.9382    2.1000    1.3703 H   0  0  0  0  0  0  0  0  0  0  0  0
   -1.6145   -0.6218   -0.5244 H   0  0  0  0  0  0  0  0  0  0  0  0
   -2.7225   -1.1987    0.7151 H   0  0  0  0  0  0  0  0  0  0  0  0
   -0.7846    1.9137   -0.3507 H   0  0  0  0  0  0  0  0  0  0  0  0
   -1.3935    2.8729    0.9941 H   0  0  0  0  0  0  0  0  0  0  0  0
   -3.0783    1.2170    0.1775 H   0  0  0  0  0  0  0  0  0  0  0  0
   -2.6599    0.9641    1.8705 H   0  0  0  0  0  0  0  0  0  0  0  0
    2.9293   -3.1080    3.8276 H   0  0  0  0  0  0  0  0  0  0  0  0
    4.4129    0.8321    4.2874 H   0  0  0  0  0  0  0  0  0  0  0  0
    6.1118    0.0388    5.9379 H   0  0  0  0  0  0  0  0  0  0  0  0
    8.4513   -4.4191    8.1907 H   0  0  0  0  0  0  0  0  0  0  0  0
    6.9347   -4.0696    9.0573 H   0  0  0  0  0  0  0  0  0  0  0  0
    8.0484   -5.9395   10.1537 H   0  0  0  0  0  0  0  0  0  0  0  0
    6.5430   -6.5225    9.3973 H   0  0  0  0  0  0  0  0  0  0  0  0
    3.3841   -4.7749    3.4078 H   0  0  0  0  0  0  0  0  0  0  0  0
    2.7148   -6.9504    2.7493 H   0  0  0  0  0  0  0  0  0  0  0  0
    8.5279   -8.2225   10.2281 H   0  0  0  0  0  0  0  0  0  0  0  0
    7.3938   -8.8879    9.0114 H   0  0  0  0  0  0  0  0  0  0  0  0
    9.1465   -8.9605    8.7376 H   0  0  0  0  0  0  0  0  0  0  0  0
  1  9  1  0  0  0  0
  1 31  1  0  0  0  0
  2 26  1  0  0  0  0
  2 30  1  0  0  0  0
  3 18  1  0  0  0  0
  3 21  1  0  0  0  0
  3 24  1  0  0  0  0
  4 20  1  0  0  0  0
  4 21  2  0  0  0  0
  5 21  1  0  0  0  0
  5 25  1  0  0  0  0
  5 32  1  0  0  0  0
  6 24  2  0  0  0  0
  6 29  1  0  0  0  0
  7 28  1  0  0  0  0
  7 29  2  0  0  0  0
  8 29  1  0  0  0  0
  8 33  1  0  0  0  0
  8 34  1  0  0  0  0
  9 10  1  0  0  0  0
  9 11  1  0  0  0  0
  9 15  1  0  0  0  0
 10 12  1  0  0  0  0
 10 35  1  0  0  0  0
 10 36  1  0  0  0  0
 11 13  1  0  0  0  0
 11 37  1  0  0  0  0
 11 38  1  0  0  0  0
 12 14  1  0  0  0  0
 12 39  1  0  0  0  0
 12 40  1  0  0  0  0
 13 14  1  0  0  0  0
 13 41  1  0  0  0  0
 13 42  1  0  0  0  0
 14 43  1  0  0  0  0
 14 44  1  0  0  0  0
 15 16  3  0  0  0  0
 16 17  1  0  0  0  0
 17 19  2  0  0  0  0
 17 22  1  0  0  0  0
 18 19  1  0  0  0  0
 18 20  2  0  0  0  0
 19 45  1  0  0  0  0
 20 23  1  0  0  0  0
 22 23  2  0  0  0  0
 22 46  1  0  0  0  0
 23 47  1  0  0  0  0
 24 27  1  0  0  0  0
 25 26  1  0  0  0  0
 25 48  1  0  0  0  0
 25 49  1  0  0  0  0
 26 50  1  0  0  0  0
 26 51  1  0  0  0  0
 27 28  2  0  0  0  0
 27 52  1  0  0  0  0
 28 53  1  0  0  0  0
 30 54  1  0  0  0  0
 30 55  1  0  0  0  0
 30 56  1  0  0  0  0
M  END
>  <Mol_ID>
6846

>  <Formula>
C22H26N6O2

>  <MolWeight>
406.48084

>  <Cat>
E2380

>  <Name>
GNE 2861

>  <Target>
PAK

>  <Form>
Free base

>  <CAS>
1394121-05-1

>  <URL>
http://www.selleckchem.com/products/gne-2861.html

$$$$
