GNF-6231.cdx
 OpenBabel08302520433D

 58 61  0  0  0  0  0  0  0  0999 V2000
   -0.5146    0.2287   -4.5448 N   0  0  0  0  0  0  0  0  0  0  0  0
   -0.8705    1.0263   -3.5212 C   0  0  0  0  0  0  0  0  0  0  0  0
    0.0123    1.8283   -2.8184 C   0  0  0  0  0  0  0  0  0  0  0  0
    1.3748    1.8305   -3.1555 C   0  0  0  0  0  0  0  0  0  0  0  0
    1.7575    0.9622   -4.1860 C   0  0  0  0  0  0  0  0  0  0  0  0
    0.7947    0.2129   -4.8513 C   0  0  0  0  0  0  0  0  0  0  0  0
   -2.1653    1.0389   -3.1711 F   0  0  0  0  0  0  0  0  0  0  0  0
    2.3222    2.7122   -2.4222 C   0  0  0  0  0  0  0  0  0  0  0  0
    3.4279    3.3767   -2.9828 C   0  0  0  0  0  0  0  0  0  0  0  0
    4.1798    4.2342   -2.1585 C   0  0  0  0  0  0  0  0  0  0  0  0
    3.7927    4.4875   -0.8456 C   0  0  0  0  0  0  0  0  0  0  0  0
    2.6953    3.7841   -0.3785 C   0  0  0  0  0  0  0  0  0  0  0  0
    1.9778    2.9053   -1.1182 N   0  0  0  0  0  0  0  0  0  0  0  0
    3.8296    3.2890   -4.4267 C   0  0  0  0  0  0  0  0  0  0  0  0
    4.4401    5.5774   -0.0319 C   0  0  0  0  0  0  0  0  0  0  0  0
    5.9281    5.4087    0.2303 C   0  0  0  0  0  0  0  0  0  0  0  0
    6.7540    5.7424   -0.6287 O   0  0  0  0  0  0  0  0  0  0  0  0
    6.4110    4.9436    1.4177 N   0  0  0  0  0  0  0  0  0  0  0  0
    5.7263    4.3355    2.4663 C   0  0  0  0  0  0  0  0  0  0  0  0
    6.4502    3.9251    3.5769 C   0  0  0  0  0  0  0  0  0  0  0  0
    5.7946    3.2225    4.5974 C   0  0  0  0  0  0  0  0  0  0  0  0
    4.4354    2.9279    4.5056 C   0  0  0  0  0  0  0  0  0  0  0  0
    3.8119    3.4348    3.3667 C   0  0  0  0  0  0  0  0  0  0  0  0
    4.4132    4.1152    2.3644 N   0  0  0  0  0  0  0  0  0  0  0  0
    3.7359    2.2274    5.4615 N   0  0  0  0  0  0  0  0  0  0  0  0
    2.6807    1.2694    5.0712 C   0  0  0  0  0  0  0  0  0  0  0  0
    1.4628    1.4438    5.9955 C   0  0  0  0  0  0  0  0  0  0  0  0
    1.8623    1.3501    7.4080 N   0  0  0  0  0  0  0  0  0  0  0  0
    2.9539    2.2537    7.7931 C   0  0  0  0  0  0  0  0  0  0  0  0
    4.1787    2.1068    6.8607 C   0  0  0  0  0  0  0  0  0  0  0  0
    1.3186    0.4953    8.3467 C   0  0  0  0  0  0  0  0  0  0  0  0
    1.7160    0.4420    9.5068 O   0  0  0  0  0  0  0  0  0  0  0  0
    0.1961   -0.4020    7.8875 C   0  0  0  0  0  0  0  0  0  0  0  0
   -0.3717    2.4456   -2.0113 H   0  0  0  0  0  0  0  0  0  0  0  0
    2.7918    0.8423   -4.4822 H   0  0  0  0  0  0  0  0  0  0  0  0
    1.0699   -0.4416   -5.6745 H   0  0  0  0  0  0  0  0  0  0  0  0
    5.0415    4.7615   -2.5679 H   0  0  0  0  0  0  0  0  0  0  0  0
    2.3206    3.9312    0.6299 H   0  0  0  0  0  0  0  0  0  0  0  0
    4.3326    2.3405   -4.6335 H   0  0  0  0  0  0  0  0  0  0  0  0
    2.9604    3.4133   -5.0802 H   0  0  0  0  0  0  0  0  0  0  0  0
    4.5317    4.0877   -4.6936 H   0  0  0  0  0  0  0  0  0  0  0  0
    4.3357    6.5115   -0.6031 H   0  0  0  0  0  0  0  0  0  0  0  0
    3.8890    5.7936    0.8861 H   0  0  0  0  0  0  0  0  0  0  0  0
    7.4189    4.9744    1.4717 H   0  0  0  0  0  0  0  0  0  0  0  0
    7.5137    4.1211    3.6632 H   0  0  0  0  0  0  0  0  0  0  0  0
    6.3839    2.8805    5.4433 H   0  0  0  0  0  0  0  0  0  0  0  0
    2.7403    3.3291    3.2250 H   0  0  0  0  0  0  0  0  0  0  0  0
    2.3579    1.3734    4.0312 H   0  0  0  0  0  0  0  0  0  0  0  0
    3.0775    0.2513    5.1734 H   0  0  0  0  0  0  0  0  0  0  0  0
    1.0269    2.4418    5.8531 H   0  0  0  0  0  0  0  0  0  0  0  0
    0.6981    0.7109    5.7351 H   0  0  0  0  0  0  0  0  0  0  0  0
    2.5600    3.2756    7.7146 H   0  0  0  0  0  0  0  0  0  0  0  0
    3.2611    2.0966    8.8297 H   0  0  0  0  0  0  0  0  0  0  0  0
    4.6503    1.1276    7.0083 H   0  0  0  0  0  0  0  0  0  0  0  0
    4.9048    2.8799    7.1336 H   0  0  0  0  0  0  0  0  0  0  0  0
   -0.6439    0.1961    7.5304 H   0  0  0  0  0  0  0  0  0  0  0  0
    0.5525   -1.0806    7.1081 H   0  0  0  0  0  0  0  0  0  0  0  0
   -0.1488   -1.0044    8.7320 H   0  0  0  0  0  0  0  0  0  0  0  0
  1  2  2  0  0  0  0
  2  3  1  0  0  0  0
  2  7  1  0  0  0  0
  3  4  2  0  0  0  0
  3 34  1  0  0  0  0
  4  5  1  0  0  0  0
  4  8  1  0  0  0  0
  5  6  2  0  0  0  0
  5 35  1  0  0  0  0
  6  1  1  0  0  0  0
  6 36  1  0  0  0  0
  8  9  2  0  0  0  0
  9 10  1  0  0  0  0
  9 14  1  0  0  0  0
 10 11  2  0  0  0  0
 10 37  1  0  0  0  0
 11 12  1  0  0  0  0
 11 15  1  0  0  0  0
 12 13  2  0  0  0  0
 12 38  1  0  0  0  0
 13  8  1  0  0  0  0
 14 39  1  0  0  0  0
 14 40  1  0  0  0  0
 14 41  1  0  0  0  0
 15 16  1  0  0  0  0
 15 42  1  0  0  0  0
 15 43  1  0  0  0  0
 16 17  2  0  0  0  0
 16 18  1  0  0  0  0
 18 19  1  0  0  0  0
 18 44  1  0  0  0  0
 19 20  2  0  0  0  0
 20 21  1  0  0  0  0
 20 45  1  0  0  0  0
 21 22  2  0  0  0  0
 21 46  1  0  0  0  0
 22 23  1  0  0  0  0
 22 25  1  0  0  0  0
 23 24  2  0  0  0  0
 23 47  1  0  0  0  0
 24 19  1  0  0  0  0
 25 26  1  0  0  0  0
 26 27  1  0  0  0  0
 26 48  1  0  0  0  0
 26 49  1  0  0  0  0
 27 28  1  0  0  0  0
 27 50  1  0  0  0  0
 27 51  1  0  0  0  0
 28 29  1  0  0  0  0
 28 31  1  0  0  0  0
 29 30  1  0  0  0  0
 29 52  1  0  0  0  0
 29 53  1  0  0  0  0
 30 25  1  0  0  0  0
 30 54  1  0  0  0  0
 30 55  1  0  0  0  0
 31 32  2  0  0  0  0
 31 33  1  0  0  0  0
 33 56  1  0  0  0  0
 33 57  1  0  0  0  0
 33 58  1  0  0  0  0
M  END
>  <Mol_ID>
4174

>  <Formula>
C24H25FN6O2

>  <MolWeight>
448.4927032

>  <Cat>
S8644

>  <Name>
GNF-6231

>  <Synonyms>
N/A

>  <Target>
PORCN

>  <Form>
free base

>  <CAS>
1243245-18-2

>  <URL>
http://selleckchem.com/products/gnf-6231.html

$$$$
