GNF-PF-3777
 OpenBabel08302521453D

 29 32  0  0  0  0  0  0  0  0999 V2000
    1.0950    1.6130    0.0013 N   0  0  0  0  0  0  0  0  0  0  0  0
   -0.0972    1.1210    0.0011 C   0  0  0  0  0  0  0  0  0  0  0  0
   -0.4275   -0.2191    0.0011 N   0  0  0  0  0  0  0  0  0  0  0  0
    0.5246   -1.2125    0.0021 C   0  0  0  0  0  0  0  0  0  0  0  0
    1.9204   -0.7176    0.0014 C   0  0  0  0  0  0  0  0  0  0  0  0
    2.9842   -1.6273    0.0006 C   0  0  0  0  0  0  0  0  0  0  0  0
    4.2935   -1.1538   -0.0008 C   0  0  0  0  0  0  0  0  0  0  0  0
    4.5336    0.2203   -0.0010 C   0  0  0  0  0  0  0  0  0  0  0  0
    3.4650    1.1251   -0.0001 C   0  0  0  0  0  0  0  0  0  0  0  0
    2.1446    0.6691    0.0010 C   0  0  0  0  0  0  0  0  0  0  0  0
   -1.4109    1.8911    0.0009 C   0  0  0  0  0  0  0  0  0  0  0  0
   -2.4631    0.8649    0.0006 C   0  0  0  0  0  0  0  0  0  0  0  0
   -3.8403    1.0063    0.0004 C   0  0  0  0  0  0  0  0  0  0  0  0
   -4.5924   -0.1783    0.0001 C   0  0  0  0  0  0  0  0  0  0  0  0
   -3.9628   -1.4452   -0.0003 C   0  0  0  0  0  0  0  0  0  0  0  0
   -2.5656   -1.5465    0.0001 C   0  0  0  0  0  0  0  0  0  0  0  0
   -1.8232   -0.3780    0.0006 C   0  0  0  0  0  0  0  0  0  0  0  0
   -1.5628    3.0902    0.0008 O   0  0  0  0  0  0  0  0  0  0  0  0
    0.2995   -2.4180    0.0037 O   0  0  0  0  0  0  0  0  0  0  0  0
   -6.0609   -0.1093    0.0002 N   0  3  0  0  0  0  0  0  0  0  0  0
   -6.5816    1.0137   -0.0008 O   0  0  0  0  0  0  0  0  0  0  0  0
   -6.6862   -1.1784    0.0015 O   0  5  0  0  0  0  0  0  0  0  0  0
    2.7939   -2.6984    0.0007 H   0  0  0  0  0  0  0  0  0  0  0  0
    5.1246   -1.8554   -0.0017 H   0  0  0  0  0  0  0  0  0  0  0  0
    5.5567    0.5900   -0.0020 H   0  0  0  0  0  0  0  0  0  0  0  0
    3.6651    2.1942   -0.0004 H   0  0  0  0  0  0  0  0  0  0  0  0
   -4.2970    1.9922    0.0006 H   0  0  0  0  0  0  0  0  0  0  0  0
   -4.5501   -2.3637   -0.0008 H   0  0  0  0  0  0  0  0  0  0  0  0
   -2.0962   -2.5267   -0.0002 H   0  0  0  0  0  0  0  0  0  0  0  0
  1  2  2  0  0  0  0
  1 10  1  0  0  0  0
  2  3  1  0  0  0  0
  3  4  1  0  0  0  0
  4  5  1  0  0  0  0
  4 19  2  0  0  0  0
  5  6  1  0  0  0  0
  5 10  2  0  0  0  0
  6  7  2  0  0  0  0
  6 23  1  0  0  0  0
  7  8  1  0  0  0  0
  7 24  1  0  0  0  0
  8  9  2  0  0  0  0
  8 25  1  0  0  0  0
  9 10  1  0  0  0  0
  9 26  1  0  0  0  0
 11 12  1  0  0  0  0
 11  2  1  0  0  0  0
 11 18  2  0  0  0  0
 12 13  1  0  0  0  0
 12 17  2  0  0  0  0
 13 14  2  0  0  0  0
 13 27  1  0  0  0  0
 14 15  1  0  0  0  0
 14 20  1  0  0  0  0
 15 16  2  0  0  0  0
 15 28  1  0  0  0  0
 16 17  1  0  0  0  0
 16 29  1  0  0  0  0
 17  3  1  0  0  0  0
 20 21  2  0  0  0  0
 20 22  1  0  0  0  0
M  CHG  2  20   1  22  -1
M  END
>  <Mol_ID>
9433

>  <Formula>
C15H7N3O4

>  <MolWeight>
293.23378

>  <Cat>
E0090

>  <Name>
GNF-PF-3777

>  <Synonyms>
8-Nitrotryptanthrin

>  <Target>
IDO/TDO

>  <Form>
free base

>  <CAS>
77603-42-0

>  <URL>
http://www.selleckchem.com/products/gnf-pf-3777.html

$$$$
