GNF-2.cdx
 OpenBabel08302522033D

 40 42  0  0  0  0  0  0  0  0999 V2000
   -0.3359    1.1842   -0.7712 C   0  0  0  0  0  0  0  0  0  0  0  0
   -1.2157    0.1088   -0.6331 C   0  0  0  0  0  0  0  0  0  0  0  0
   -0.8137   -1.0958   -0.0288 C   0  0  0  0  0  0  0  0  0  0  0  0
    0.5151   -1.1880    0.4218 C   0  0  0  0  0  0  0  0  0  0  0  0
    1.4035   -0.1107    0.2907 C   0  0  0  0  0  0  0  0  0  0  0  0
    0.9732    1.0755   -0.3082 C   0  0  0  0  0  0  0  0  0  0  0  0
    2.7954   -0.2966    0.7660 C   0  0  0  0  0  0  0  0  0  0  0  0
    3.3038   -1.4069    0.8578 O   0  0  0  0  0  0  0  0  0  0  0  0
    3.4871    0.8241    1.1401 N   0  0  0  0  0  0  0  0  0  0  0  0
   -1.7538   -2.2234    0.0970 C   0  0  0  0  0  0  0  0  0  0  0  0
   -2.6068   -2.3847   -0.9345 N   0  0  0  0  0  0  0  0  0  0  0  0
   -3.4515   -3.4145   -0.8486 C   0  0  0  0  0  0  0  0  0  0  0  0
   -3.5146   -4.2891    0.1574 N   0  0  0  0  0  0  0  0  0  0  0  0
   -2.6543   -4.1235    1.1740 C   0  0  0  0  0  0  0  0  0  0  0  0
   -1.7663   -3.0654    1.1956 C   0  0  0  0  0  0  0  0  0  0  0  0
   -2.7192   -4.9829    2.3007 N   0  0  0  0  0  0  0  0  0  0  0  0
   -3.2794   -6.2844    2.2796 C   0  0  0  0  0  0  0  0  0  0  0  0
   -3.1944   -7.1189    1.1580 C   0  0  0  0  0  0  0  0  0  0  0  0
   -3.6922   -8.4256    1.1837 C   0  0  0  0  0  0  0  0  0  0  0  0
   -4.2286   -8.9410    2.3591 C   0  0  0  0  0  0  0  0  0  0  0  0
   -4.3069   -8.1171    3.4871 C   0  0  0  0  0  0  0  0  0  0  0  0
   -3.8164   -6.8093    3.4556 C   0  0  0  0  0  0  0  0  0  0  0  0
   -4.7281  -10.1919    2.5431 O   0  0  0  0  0  0  0  0  0  0  0  0
   -4.3062  -11.2548    1.7011 C   0  0  0  0  0  0  0  0  0  0  0  0
   -3.1525  -11.0141    1.0457 F   0  0  0  0  0  0  0  0  0  0  0  0
   -4.1173  -12.3497    2.4708 F   0  0  0  0  0  0  0  0  0  0  0  0
   -5.2751  -11.5360    0.8021 F   0  0  0  0  0  0  0  0  0  0  0  0
   -0.6711    2.0979   -1.2562 H   0  0  0  0  0  0  0  0  0  0  0  0
   -2.2318    0.2089   -1.0133 H   0  0  0  0  0  0  0  0  0  0  0  0
    0.8828   -2.1149    0.8603 H   0  0  0  0  0  0  0  0  0  0  0  0
    1.6576    1.9069   -0.4635 H   0  0  0  0  0  0  0  0  0  0  0  0
    3.0354    1.7110    1.3091 H   0  0  0  0  0  0  0  0  0  0  0  0
    4.4004    0.6743    1.5500 H   0  0  0  0  0  0  0  0  0  0  0  0
   -4.1481   -3.5550   -1.6668 H   0  0  0  0  0  0  0  0  0  0  0  0
   -1.1065   -2.9059    2.0376 H   0  0  0  0  0  0  0  0  0  0  0  0
   -1.8062   -5.0431    2.7437 H   0  0  0  0  0  0  0  0  0  0  0  0
   -2.7379   -6.7565    0.2401 H   0  0  0  0  0  0  0  0  0  0  0  0
   -3.6400   -9.0001    0.2637 H   0  0  0  0  0  0  0  0  0  0  0  0
   -4.7474   -8.4990    4.4046 H   0  0  0  0  0  0  0  0  0  0  0  0
   -3.8824   -6.1932    4.3481 H   0  0  0  0  0  0  0  0  0  0  0  0
  1  2  2  0  0  0  0
  1 28  1  0  0  0  0
  2  3  1  0  0  0  0
  2 29  1  0  0  0  0
  3  4  2  0  0  0  0
  3 10  1  0  0  0  0
  4  5  1  0  0  0  0
  4 30  1  0  0  0  0
  5  6  2  0  0  0  0
  5  7  1  0  0  0  0
  6  1  1  0  0  0  0
  6 31  1  0  0  0  0
  7  8  2  0  0  0  0
  7  9  1  0  0  0  0
  9 32  1  0  0  0  0
  9 33  1  0  0  0  0
 10 11  2  0  0  0  0
 11 12  1  0  0  0  0
 12 13  2  0  0  0  0
 12 34  1  0  0  0  0
 13 14  1  0  0  0  0
 14 15  2  0  0  0  0
 14 16  1  0  0  0  0
 15 10  1  0  0  0  0
 15 35  1  0  0  0  0
 16 17  1  0  0  0  0
 16 36  1  0  0  0  0
 17 18  2  0  0  0  0
 18 19  1  0  0  0  0
 18 37  1  0  0  0  0
 19 20  2  0  0  0  0
 19 38  1  0  0  0  0
 20 21  1  0  0  0  0
 20 23  1  0  0  0  0
 21 22  2  0  0  0  0
 21 39  1  0  0  0  0
 22 17  1  0  0  0  0
 22 40  1  0  0  0  0
 23 24  1  0  0  0  0
 24 25  1  0  0  0  0
 24 26  1  0  0  0  0
 24 27  1  0  0  0  0
M  END
>  <Mol_ID>
1174

>  <Formula>
C18H13F3N4O2

>  <MolWeight>
374.3166296

>  <Cat>
S2899

>  <Name>
GNF-2

>  <Synonyms>
N/A

>  <Target>
Bcr-Abl

>  <Form>
free base

>  <CAS>
778270-11-4

>  <URL>
http://selleckchem.com/products/gnf-2.html

$$$$
