GNF-5.cdx
 OpenBabel08302519583D

 47 49  0  0  0  0  0  0  0  0999 V2000
   -2.2801    0.4638    0.9570 C   0  0  0  0  0  0  0  0  0  0  0  0
   -1.4824   -0.7872    1.1203 C   0  0  0  0  0  0  0  0  0  0  0  0
   -1.1060   -1.1716    2.4115 C   0  0  0  0  0  0  0  0  0  0  0  0
   -0.3035   -2.3103    2.6423 C   0  0  0  0  0  0  0  0  0  0  0  0
    0.0737   -3.0775    1.5271 C   0  0  0  0  0  0  0  0  0  0  0  0
   -0.3327   -2.7242    0.2408 C   0  0  0  0  0  0  0  0  0  0  0  0
   -1.1039   -1.5815    0.0334 C   0  0  0  0  0  0  0  0  0  0  0  0
   -3.0480    0.8293    1.8395 O   0  0  0  0  0  0  0  0  0  0  0  0
   -2.0345    1.1830   -0.1917 N   0  0  0  0  0  0  0  0  0  0  0  0
    0.7607   -4.2928    5.4855 C   0  0  0  0  0  0  0  0  0  0  0  0
    0.3752   -3.9773    4.2357 N   0  0  0  0  0  0  0  0  0  0  0  0
    0.1377   -2.6735    4.0024 C   0  0  0  0  0  0  0  0  0  0  0  0
    0.3014   -1.7170    4.9865 C   0  0  0  0  0  0  0  0  0  0  0  0
    0.7226   -2.1339    6.2300 C   0  0  0  0  0  0  0  0  0  0  0  0
    0.9520   -3.4311    6.4898 N   0  0  0  0  0  0  0  0  0  0  0  0
    0.8097   -1.1647    7.2563 N   0  0  0  0  0  0  0  0  0  0  0  0
    1.7015   -1.2232    8.3471 C   0  0  0  0  0  0  0  0  0  0  0  0
    2.9613   -1.8184    8.2437 C   0  0  0  0  0  0  0  0  0  0  0  0
    3.8414   -1.8243    9.3259 C   0  0  0  0  0  0  0  0  0  0  0  0
    3.4947   -1.1826   10.5109 C   0  0  0  0  0  0  0  0  0  0  0  0
    2.2431   -0.5686   10.6138 C   0  0  0  0  0  0  0  0  0  0  0  0
    1.3616   -0.5683    9.5322 C   0  0  0  0  0  0  0  0  0  0  0  0
    4.2508   -1.1249   11.6387 O   0  0  0  0  0  0  0  0  0  0  0  0
    5.6666   -1.1630   11.5402 C   0  0  0  0  0  0  0  0  0  0  0  0
    6.1477   -1.1118   10.2807 F   0  0  0  0  0  0  0  0  0  0  0  0
    6.1659   -0.0982   12.2077 F   0  0  0  0  0  0  0  0  0  0  0  0
    6.1253   -2.2854   12.1343 F   0  0  0  0  0  0  0  0  0  0  0  0
   -2.7281    2.4190   -0.5355 C   0  0  0  0  0  0  0  0  0  0  0  0
   -2.4647    3.5705    0.4360 C   0  0  0  0  0  0  0  0  0  0  0  0
   -1.0656    3.8340    0.5249 O   0  0  0  0  0  0  0  0  0  0  0  0
   -1.4523   -0.5651    3.2473 H   0  0  0  0  0  0  0  0  0  0  0  0
    0.6900   -3.9672    1.6657 H   0  0  0  0  0  0  0  0  0  0  0  0
   -0.0461   -3.3510   -0.6014 H   0  0  0  0  0  0  0  0  0  0  0  0
   -1.4274   -1.3395   -0.9727 H   0  0  0  0  0  0  0  0  0  0  0  0
   -1.3035    0.8821   -0.8199 H   0  0  0  0  0  0  0  0  0  0  0  0
    0.9269   -5.3432    5.7002 H   0  0  0  0  0  0  0  0  0  0  0  0
    0.1432   -0.6664    4.7900 H   0  0  0  0  0  0  0  0  0  0  0  0
    0.8213   -0.2218    6.8810 H   0  0  0  0  0  0  0  0  0  0  0  0
    3.2718   -2.2943    7.3166 H   0  0  0  0  0  0  0  0  0  0  0  0
    4.7807   -2.3515    9.1968 H   0  0  0  0  0  0  0  0  0  0  0  0
    1.9468   -0.0844   11.5413 H   0  0  0  0  0  0  0  0  0  0  0  0
    0.3946   -0.0806    9.6273 H   0  0  0  0  0  0  0  0  0  0  0  0
   -2.3621    2.6935   -1.5313 H   0  0  0  0  0  0  0  0  0  0  0  0
   -3.8011    2.2136   -0.6019 H   0  0  0  0  0  0  0  0  0  0  0  0
   -2.9552    4.4800    0.0760 H   0  0  0  0  0  0  0  0  0  0  0  0
   -2.8428    3.3594    1.4403 H   0  0  0  0  0  0  0  0  0  0  0  0
   -0.6834    3.0564    0.9692 H   0  0  0  0  0  0  0  0  0  0  0  0
  1  2  1  0  0  0  0
  1  8  2  0  0  0  0
  1  9  1  0  0  0  0
  2  3  2  0  0  0  0
  2  7  1  0  0  0  0
  3  4  1  0  0  0  0
  3 31  1  0  0  0  0
  4  5  2  0  0  0  0
  4 12  1  0  0  0  0
  5  6  1  0  0  0  0
  5 32  1  0  0  0  0
  6  7  2  0  0  0  0
  6 33  1  0  0  0  0
  7 34  1  0  0  0  0
  9 28  1  0  0  0  0
  9 35  1  0  0  0  0
 10 11  2  0  0  0  0
 10 15  1  0  0  0  0
 10 36  1  0  0  0  0
 11 12  1  0  0  0  0
 12 13  2  0  0  0  0
 13 14  1  0  0  0  0
 13 37  1  0  0  0  0
 14 15  2  0  0  0  0
 14 16  1  0  0  0  0
 16 17  1  0  0  0  0
 16 38  1  0  0  0  0
 17 18  2  0  0  0  0
 17 22  1  0  0  0  0
 18 19  1  0  0  0  0
 18 39  1  0  0  0  0
 19 20  2  0  0  0  0
 19 40  1  0  0  0  0
 20 21  1  0  0  0  0
 20 23  1  0  0  0  0
 21 22  2  0  0  0  0
 21 41  1  0  0  0  0
 22 42  1  0  0  0  0
 23 24  1  0  0  0  0
 24 25  1  0  0  0  0
 24 26  1  0  0  0  0
 24 27  1  0  0  0  0
 28 29  1  0  0  0  0
 28 43  1  0  0  0  0
 28 44  1  0  0  0  0
 29 30  1  0  0  0  0
 29 45  1  0  0  0  0
 29 46  1  0  0  0  0
 30 47  1  0  0  0  0
M  END
>  <Mol_ID>
2401

>  <Formula>
C20H17F3N4O3

>  <MolWeight>
418.3691896

>  <Cat>
S7526

>  <Name>
GNF-5

>  <Synonyms>
N/A

>  <Target>
Bcr-Abl

>  <Form>
free base

>  <CAS>
778277-15-9

>  <URL>
http://selleckchem.com/products/gnf-5.html

$$$$
