GNF351
 OpenBabel08302521303D

 56 60  0  0  0  0  0  0  0  0999 V2000
    0.5205   -0.0651   -0.8914 C   0  0  0  0  0  0  0  0  0  0  0  0
    0.2190   -0.9406    0.1450 C   0  0  0  0  0  0  0  0  0  0  0  0
   -0.6898   -0.6822    1.1059 N   0  0  0  0  0  0  0  0  0  0  0  0
   -1.3305    0.5139    1.0287 C   0  0  0  0  0  0  0  0  0  0  0  0
   -1.1267    1.4835    0.0422 C   0  0  0  0  0  0  0  0  0  0  0  0
   -0.1677    1.1559   -0.9316 C   0  0  0  0  0  0  0  0  0  0  0  0
    1.5525   -0.4309   -1.9101 C   0  0  0  0  0  0  0  0  0  0  0  0
   -1.8699    2.7612    0.0469 C   0  0  0  0  0  0  0  0  0  0  0  0
   -2.6963    2.9647    1.1043 N   0  0  0  0  0  0  0  0  0  0  0  0
   -3.3140    4.1525    1.0433 C   0  0  0  0  0  0  0  0  0  0  0  0
   -3.1735    5.1041    0.0549 C   0  0  0  0  0  0  0  0  0  0  0  0
   -2.2898    4.8185   -0.9993 C   0  0  0  0  0  0  0  0  0  0  0  0
   -1.6498    3.6215   -0.9880 N   0  0  0  0  0  0  0  0  0  0  0  0
   -4.1976    4.7072    1.9319 N   0  0  0  0  0  0  0  0  0  0  0  0
   -4.5541    5.9403    1.4469 C   0  0  0  0  0  0  0  0  0  0  0  0
   -3.9568    6.2125    0.3084 N   0  0  0  0  0  0  0  0  0  0  0  0
   -4.6836    4.1358    3.1780 C   0  0  0  0  0  0  0  0  0  0  0  0
   -2.0704    5.7960   -1.9547 N   0  0  0  0  0  0  0  0  0  0  0  0
   -5.4432    2.8309    2.9501 C   0  0  0  0  0  0  0  0  0  0  0  0
   -3.5643    3.9834    4.2068 C   0  0  0  0  0  0  0  0  0  0  0  0
   -1.6399    5.4714   -3.3025 C   0  0  0  0  0  0  0  0  0  0  0  0
   -1.4436    6.8065   -4.0409 C   0  0  0  0  0  0  0  0  0  0  0  0
   -0.9207    6.6923   -5.4336 C   0  0  0  0  0  0  0  0  0  0  0  0
   -1.6617    6.7047   -6.6627 C   0  0  0  0  0  0  0  0  0  0  0  0
   -0.7329    6.6693   -7.7054 C   0  0  0  0  0  0  0  0  0  0  0  0
    0.5164    6.6253   -7.1359 N   0  0  0  0  0  0  0  0  0  0  0  0
    0.4164    6.6385   -5.7743 C   0  0  0  0  0  0  0  0  0  0  0  0
   -3.0323    6.7668   -6.9972 C   0  0  0  0  0  0  0  0  0  0  0  0
   -3.4174    6.7827   -8.3462 C   0  0  0  0  0  0  0  0  0  0  0  0
   -2.4607    6.7470   -9.3592 C   0  0  0  0  0  0  0  0  0  0  0  0
   -1.0992    6.6937   -9.0562 C   0  0  0  0  0  0  0  0  0  0  0  0
    0.7163   -1.9024    0.2343 H   0  0  0  0  0  0  0  0  0  0  0  0
   -2.0486    0.6712    1.8307 H   0  0  0  0  0  0  0  0  0  0  0  0
    0.0483    1.8656   -1.7292 H   0  0  0  0  0  0  0  0  0  0  0  0
    2.5248   -0.5778   -1.4281 H   0  0  0  0  0  0  0  0  0  0  0  0
    1.2666   -1.3543   -2.4247 H   0  0  0  0  0  0  0  0  0  0  0  0
    1.6662    0.3531   -2.6653 H   0  0  0  0  0  0  0  0  0  0  0  0
   -5.2453    6.5958    1.9618 H   0  0  0  0  0  0  0  0  0  0  0  0
   -5.4013    4.8612    3.5844 H   0  0  0  0  0  0  0  0  0  0  0  0
   -2.7911    6.5141   -1.8830 H   0  0  0  0  0  0  0  0  0  0  0  0
   -4.7904    2.0370    2.5738 H   0  0  0  0  0  0  0  0  0  0  0  0
   -5.8953    2.4791    3.8831 H   0  0  0  0  0  0  0  0  0  0  0  0
   -6.2473    2.9744    2.2193 H   0  0  0  0  0  0  0  0  0  0  0  0
   -3.0583    4.9414    4.3735 H   0  0  0  0  0  0  0  0  0  0  0  0
   -3.9657    3.6450    5.1677 H   0  0  0  0  0  0  0  0  0  0  0  0
   -2.8077    3.2611    3.8840 H   0  0  0  0  0  0  0  0  0  0  0  0
   -0.7005    4.9062   -3.2850 H   0  0  0  0  0  0  0  0  0  0  0  0
   -2.3950    4.8638   -3.8138 H   0  0  0  0  0  0  0  0  0  0  0  0
   -2.3878    7.3669   -4.0462 H   0  0  0  0  0  0  0  0  0  0  0  0
   -0.7434    7.4257   -3.4613 H   0  0  0  0  0  0  0  0  0  0  0  0
    1.3814    6.6097   -7.6567 H   0  0  0  0  0  0  0  0  0  0  0  0
    1.3037    6.6375   -5.1546 H   0  0  0  0  0  0  0  0  0  0  0  0
   -3.7920    6.8075   -6.2221 H   0  0  0  0  0  0  0  0  0  0  0  0
   -4.4713    6.8283   -8.6061 H   0  0  0  0  0  0  0  0  0  0  0  0
   -2.7756    6.7649  -10.4002 H   0  0  0  0  0  0  0  0  0  0  0  0
   -0.3540    6.6753   -9.8443 H   0  0  0  0  0  0  0  0  0  0  0  0
  1  2  2  0  0  0  0
  1  7  1  0  0  0  0
  2  3  1  0  0  0  0
  2 32  1  0  0  0  0
  3  4  2  0  0  0  0
  4  5  1  0  0  0  0
  4 33  1  0  0  0  0
  5  6  2  0  0  0  0
  5  8  1  0  0  0  0
  6  1  1  0  0  0  0
  6 34  1  0  0  0  0
  7 35  1  0  0  0  0
  7 36  1  0  0  0  0
  7 37  1  0  0  0  0
  8  9  2  0  0  0  0
  9 10  1  0  0  0  0
 10 11  2  0  0  0  0
 10 14  1  0  0  0  0
 11 12  1  0  0  0  0
 12 13  2  0  0  0  0
 12 18  1  0  0  0  0
 13  8  1  0  0  0  0
 14 15  1  0  0  0  0
 14 17  1  0  0  0  0
 15 16  2  0  0  0  0
 15 38  1  0  0  0  0
 16 11  1  0  0  0  0
 17 19  1  0  0  0  0
 17 20  1  0  0  0  0
 17 39  1  0  0  0  0
 18 21  1  0  0  0  0
 18 40  1  0  0  0  0
 19 41  1  0  0  0  0
 19 42  1  0  0  0  0
 19 43  1  0  0  0  0
 20 44  1  0  0  0  0
 20 45  1  0  0  0  0
 20 46  1  0  0  0  0
 21 22  1  0  0  0  0
 21 47  1  0  0  0  0
 21 48  1  0  0  0  0
 22 23  1  0  0  0  0
 22 49  1  0  0  0  0
 22 50  1  0  0  0  0
 23 24  1  0  0  0  0
 24 25  2  0  0  0  0
 24 28  1  0  0  0  0
 25 26  1  0  0  0  0
 26 27  1  0  0  0  0
 26 51  1  0  0  0  0
 27 23  2  0  0  0  0
 27 52  1  0  0  0  0
 28 29  2  0  0  0  0
 28 53  1  0  0  0  0
 29 30  1  0  0  0  0
 29 54  1  0  0  0  0
 30 31  2  0  0  0  0
 30 55  1  0  0  0  0
 31 25  1  0  0  0  0
 31 56  1  0  0  0  0
M  END
>  <Mol_ID>
5533

>  <Formula>
C24H25N7

>  <MolWeight>
411.5022

>  <Cat>
S6926

>  <Name>
GNF351

>  <Synonyms>
N/A

>  <Target>
AhR

>  <Form>
Free Base

>  <CAS>
1227634-69-6

>  <URL>
https://www.selleckchem.com/products/gnf351.html

$$$$
