Go 6983.cdx
 OpenBabel08302522013D

 59 63  0  0  0  0  0  0  0  0999 V2000
   -0.0485    0.9224    0.3582 C   0  0  0  0  0  0  0  0  0  0  0  0
   -1.2705    1.0727    1.0137 C   0  0  0  0  0  0  0  0  0  0  0  0
   -1.3574    1.0415    2.4239 C   0  0  0  0  0  0  0  0  0  0  0  0
   -0.1639    0.8558    3.1400 C   0  0  0  0  0  0  0  0  0  0  0  0
    1.1092    0.9928    2.5183 C   0  0  0  0  0  0  0  0  0  0  0  0
    1.1506    0.9727    1.0968 C   0  0  0  0  0  0  0  0  0  0  0  0
    0.1056    0.6322   -0.9772 O   0  0  0  0  0  0  0  0  0  0  0  0
   -1.0561    0.2421   -1.7129 C   0  0  0  0  0  0  0  0  0  0  0  0
    0.1000    0.1989    4.3553 N   0  0  0  0  0  0  0  0  0  0  0  0
    1.3053   -0.5021    4.0154 C   0  0  0  0  0  0  0  0  0  0  0  0
    2.0221    0.6124    3.5360 C   0  0  0  0  0  0  0  0  0  0  0  0
    0.0142    0.6533    5.7522 C   0  0  0  0  0  0  0  0  0  0  0  0
   -1.1675    0.2974    6.6578 C   0  0  0  0  0  0  0  0  0  0  0  0
   -2.4123    1.1977    6.7159 C   0  0  0  0  0  0  0  0  0  0  0  0
   -2.5020    2.3713    7.6109 N   0  0  0  0  0  0  0  0  0  0  0  0
   -3.8602    2.9401    7.5303 C   0  0  0  0  0  0  0  0  0  0  0  0
   -1.5314    3.4436    7.4480 C   0  0  0  0  0  0  0  0  0  0  0  0
    4.6336    0.5860    5.9618 N   0  0  0  0  0  0  0  0  0  0  0  0
    3.9777    0.0213    4.9453 C   0  0  0  0  0  0  0  0  0  0  0  0
    3.2072    1.0723    4.2175 C   0  0  0  0  0  0  0  0  0  0  0  0
    3.7977    2.2313    4.5843 C   0  0  0  0  0  0  0  0  0  0  0  0
    4.8413    1.8332    5.6078 C   0  0  0  0  0  0  0  0  0  0  0  0
    5.7579    2.5197    6.0171 O   0  0  0  0  0  0  0  0  0  0  0  0
    4.0852   -1.1680    4.6466 O   0  0  0  0  0  0  0  0  0  0  0  0
    3.6244    4.3830    3.1382 C   0  0  0  0  0  0  0  0  0  0  0  0
    3.6702    5.7493    3.4564 C   0  0  0  0  0  0  0  0  0  0  0  0
    3.6541    6.7671    2.4909 C   0  0  0  0  0  0  0  0  0  0  0  0
    3.6177    6.3820    1.1541 C   0  0  0  0  0  0  0  0  0  0  0  0
    3.6326    5.0372    0.7984 C   0  0  0  0  0  0  0  0  0  0  0  0
    3.6462    4.0320    1.7739 C   0  0  0  0  0  0  0  0  0  0  0  0
    3.6447    3.6475    4.3618 C   0  0  0  0  0  0  0  0  0  0  0  0
    3.7813    4.5937    5.3721 C   0  0  0  0  0  0  0  0  0  0  0  0
    3.7796    5.8439    4.8178 N   0  0  0  0  0  0  0  0  0  0  0  0
   -2.1986    1.1059    0.4463 H   0  0  0  0  0  0  0  0  0  0  0  0
   -2.3315    0.9533    2.8959 H   0  0  0  0  0  0  0  0  0  0  0  0
    2.0893    0.7524    0.5919 H   0  0  0  0  0  0  0  0  0  0  0  0
   -1.6562   -0.5138   -1.1994 H   0  0  0  0  0  0  0  0  0  0  0  0
   -1.6591    1.1258   -1.9513 H   0  0  0  0  0  0  0  0  0  0  0  0
   -0.7297   -0.2014   -2.6641 H   0  0  0  0  0  0  0  0  0  0  0  0
    1.0894   -1.4096    3.4460 H   0  0  0  0  0  0  0  0  0  0  0  0
    0.8210    0.0580    6.2207 H   0  0  0  0  0  0  0  0  0  0  0  0
    0.3422    1.6883    5.8121 H   0  0  0  0  0  0  0  0  0  0  0  0
   -1.5048   -0.7178    6.4048 H   0  0  0  0  0  0  0  0  0  0  0  0
   -0.7742    0.2188    7.6823 H   0  0  0  0  0  0  0  0  0  0  0  0
   -2.7669    1.4221    5.7102 H   0  0  0  0  0  0  0  0  0  0  0  0
   -3.1527    0.5156    7.1643 H   0  0  0  0  0  0  0  0  0  0  0  0
   -4.1262    3.4196    8.4788 H   0  0  0  0  0  0  0  0  0  0  0  0
   -3.9520    3.6842    6.7280 H   0  0  0  0  0  0  0  0  0  0  0  0
   -4.6191    2.1715    7.3450 H   0  0  0  0  0  0  0  0  0  0  0  0
   -1.7430    4.2410    8.1839 H   0  0  0  0  0  0  0  0  0  0  0  0
   -0.5122    3.1180    7.6550 H   0  0  0  0  0  0  0  0  0  0  0  0
   -1.5724    3.9130    6.4571 H   0  0  0  0  0  0  0  0  0  0  0  0
    5.3050    0.0624    6.5005 H   0  0  0  0  0  0  0  0  0  0  0  0
    3.6828    7.8175    2.7717 H   0  0  0  0  0  0  0  0  0  0  0  0
    3.5948    7.1470    0.3786 H   0  0  0  0  0  0  0  0  0  0  0  0
    3.6399    4.7581   -0.2509 H   0  0  0  0  0  0  0  0  0  0  0  0
    3.6874    2.9896    1.4805 H   0  0  0  0  0  0  0  0  0  0  0  0
    3.9678    4.4950    6.4351 H   0  0  0  0  0  0  0  0  0  0  0  0
    3.9306    6.7127    5.3220 H   0  0  0  0  0  0  0  0  0  0  0  0
  1  2  2  0  0  0  0
  1  7  1  0  0  0  0
  2  3  1  0  0  0  0
  2 34  1  0  0  0  0
  3  4  2  0  0  0  0
  3 35  1  0  0  0  0
  4  5  1  0  0  0  0
  4  9  1  0  0  0  0
  5  6  2  0  0  0  0
  6  1  1  0  0  0  0
  6 36  1  0  0  0  0
  7  8  1  0  0  0  0
  8 37  1  0  0  0  0
  8 38  1  0  0  0  0
  8 39  1  0  0  0  0
  9 10  1  0  0  0  0
  9 12  1  0  0  0  0
 10 11  2  0  0  0  0
 10 40  1  0  0  0  0
 11  5  1  0  0  0  0
 11 20  1  0  0  0  0
 12 13  1  0  0  0  0
 12 41  1  0  0  0  0
 12 42  1  0  0  0  0
 13 14  1  0  0  0  0
 13 43  1  0  0  0  0
 13 44  1  0  0  0  0
 14 15  1  0  0  0  0
 14 45  1  0  0  0  0
 14 46  1  0  0  0  0
 15 16  1  0  0  0  0
 15 17  1  0  0  0  0
 16 47  1  0  0  0  0
 16 48  1  0  0  0  0
 16 49  1  0  0  0  0
 17 50  1  0  0  0  0
 17 51  1  0  0  0  0
 17 52  1  0  0  0  0
 18 19  1  0  0  0  0
 18 53  1  0  0  0  0
 19 20  1  0  0  0  0
 19 24  2  0  0  0  0
 20 21  2  0  0  0  0
 21 22  1  0  0  0  0
 22 18  1  0  0  0  0
 22 23  2  0  0  0  0
 25 26  1  0  0  0  0
 25 31  1  0  0  0  0
 26 27  2  0  0  0  0
 27 28  1  0  0  0  0
 27 54  1  0  0  0  0
 28 29  2  0  0  0  0
 28 55  1  0  0  0  0
 29 30  1  0  0  0  0
 29 56  1  0  0  0  0
 30 25  2  0  0  0  0
 30 57  1  0  0  0  0
 31 32  2  0  0  0  0
 31 21  1  0  0  0  0
 32 33  1  0  0  0  0
 32 58  1  0  0  0  0
 33 26  1  0  0  0  0
 33 59  1  0  0  0  0
M  END
>  <Mol_ID>
1091

>  <Formula>
C26H26N4O3

>  <MolWeight>
442.50964

>  <Cat>
S2911

>  <Name>
Go 6983

>  <Synonyms>
GOE 6983, G? 6983

>  <Target>
PKC

>  <Form>
free base

>  <CAS>
133053-19-7

>  <URL>
http://selleckchem.com/products/go-6983.html

$$$$
