Gomisin N
 OpenBabel08302521473D

 57 60  0  0  0  0  0  0  0  0999 V2000
    0.8850    0.8984   -1.0294 O   0  0  0  0  0  0  0  0  0  0  0  0
    0.4794    0.2982   -2.2605 C   0  0  0  0  0  0  0  0  0  0  0  0
    1.4226    1.4838    2.8319 O   0  0  0  0  0  0  0  0  0  0  0  0
    2.5395    0.6610    3.1391 C   0  0  0  0  0  0  0  0  0  0  0  0
    0.3217    3.6742    3.6027 O   0  0  0  0  0  0  0  0  0  0  0  0
   -0.8691    4.4259    3.7823 C   0  0  0  0  0  0  0  0  0  0  0  0
    6.1860    1.9755   -1.4739 C   0  0  0  0  0  0  0  0  0  0  0  0
    0.3431    6.0123    1.9695 O   0  0  0  0  0  0  0  0  0  0  0  0
    0.4138    7.1665    1.1436 C   0  0  0  0  0  0  0  0  0  0  0  0
    4.9799    5.1888    0.3079 C   0  0  0  0  0  0  0  0  0  0  0  0
    2.8892    1.2648    0.2155 C   0  0  0  0  0  0  0  0  0  0  0  0
    2.3351    2.5119    0.7559 C   0  0  0  0  0  0  0  0  0  0  0  0
    2.0397    0.3859   -0.5029 C   0  0  0  0  0  0  0  0  0  0  0  0
    4.2225    0.8863    0.5074 C   0  0  0  0  0  0  0  0  0  0  0  0
    2.4615    3.6836   -0.0020 C   0  0  0  0  0  0  0  0  0  0  0  0
    1.6148    2.5554    1.9800 C   0  0  0  0  0  0  0  0  0  0  0  0
    2.4061   -0.9269   -0.5468 C   0  0  0  0  0  0  0  0  0  0  0  0
    4.5711   -0.4700    0.4286 C   0  0  0  0  0  0  0  0  0  0  0  0
    5.2488    1.9362    0.9022 C   0  0  0  0  0  0  0  0  0  0  0  0
    1.7475    4.8319    0.3749 C   0  0  0  0  0  0  0  0  0  0  0  0
    3.4371    3.7618   -1.1564 C   0  0  0  0  0  0  0  0  0  0  0  0
    0.9330    3.7363    2.3669 C   0  0  0  0  0  0  0  0  0  0  0  0
    3.6089   -1.3568   -0.0160 C   0  0  0  0  0  0  0  0  0  0  0  0
    1.6356   -1.9735   -0.9562 O   0  0  0  0  0  0  0  0  0  0  0  0
    5.7665    2.8238   -0.2646 C   0  0  3  0  0  0  0  0  0  0  0  0
    0.9889    4.8791    1.5494 C   0  0  0  0  0  0  0  0  0  0  0  0
    4.8960    4.0451   -0.7143 C   0  0  3  0  0  0  0  0  0  0  0  0
    3.6569   -2.7189    0.0585 O   0  0  0  0  0  0  0  0  0  0  0  0
    2.2682   -3.0182   -0.2059 C   0  0  0  0  0  0  0  0  0  0  0  0
    1.3268    0.0578   -2.9150 H   0  0  0  0  0  0  0  0  0  0  0  0
   -0.1279   -0.5896   -2.0644 H   0  0  0  0  0  0  0  0  0  0  0  0
   -0.1503    1.0152   -2.7966 H   0  0  0  0  0  0  0  0  0  0  0  0
    2.5525   -0.2004    2.4692 H   0  0  0  0  0  0  0  0  0  0  0  0
    3.4912    1.2005    3.1355 H   0  0  0  0  0  0  0  0  0  0  0  0
    2.4097    0.2518    4.1460 H   0  0  0  0  0  0  0  0  0  0  0  0
   -0.6374    5.4599    4.0554 H   0  0  0  0  0  0  0  0  0  0  0  0
   -1.5295    4.3730    2.9096 H   0  0  0  0  0  0  0  0  0  0  0  0
   -1.4070    3.9910    4.6307 H   0  0  0  0  0  0  0  0  0  0  0  0
    6.6696    2.5973   -2.2345 H   0  0  0  0  0  0  0  0  0  0  0  0
    6.9081    1.2094   -1.1715 H   0  0  0  0  0  0  0  0  0  0  0  0
    5.3342    1.4779   -1.9458 H   0  0  0  0  0  0  0  0  0  0  0  0
    1.4500    7.4941    1.0099 H   0  0  0  0  0  0  0  0  0  0  0  0
   -0.0759    6.9908    0.1799 H   0  0  0  0  0  0  0  0  0  0  0  0
   -0.1230    7.9742    1.6496 H   0  0  0  0  0  0  0  0  0  0  0  0
    6.0138    5.5260    0.4252 H   0  0  0  0  0  0  0  0  0  0  0  0
    4.4013    6.0574   -0.0321 H   0  0  0  0  0  0  0  0  0  0  0  0
    4.6136    4.8949    1.2962 H   0  0  0  0  0  0  0  0  0  0  0  0
    5.5322   -0.8346    0.7722 H   0  0  0  0  0  0  0  0  0  0  0  0
    6.1144    1.4164    1.3324 H   0  0  0  0  0  0  0  0  0  0  0  0
    4.8689    2.5591    1.7200 H   0  0  0  0  0  0  0  0  0  0  0  0
    1.8354    5.7035   -0.2650 H   0  0  0  0  0  0  0  0  0  0  0  0
    3.1120    4.5738   -1.8212 H   0  0  0  0  0  0  0  0  0  0  0  0
    3.3826    2.8680   -1.7872 H   0  0  0  0  0  0  0  0  0  0  0  0
    6.7013    3.2660    0.1132 H   0  0  0  0  0  0  0  0  0  0  0  0
    5.3880    4.4368   -1.6180 H   0  0  0  0  0  0  0  0  0  0  0  0
    1.7259   -3.1078    0.7490 H   0  0  0  0  0  0  0  0  0  0  0  0
    2.1823   -3.9615   -0.7467 H   0  0  0  0  0  0  0  0  0  0  0  0
  1  2  1  0  0  0  0
  1 13  1  0  0  0  0
  2 30  1  0  0  0  0
  2 31  1  0  0  0  0
  2 32  1  0  0  0  0
  3  4  1  0  0  0  0
  3 16  1  0  0  0  0
  4 33  1  0  0  0  0
  4 34  1  0  0  0  0
  4 35  1  0  0  0  0
  5  6  1  0  0  0  0
  5 22  1  0  0  0  0
  6 36  1  0  0  0  0
  6 37  1  0  0  0  0
  6 38  1  0  0  0  0
  7 25  1  0  0  0  0
  7 39  1  0  0  0  0
  7 40  1  0  0  0  0
  7 41  1  0  0  0  0
  8  9  1  0  0  0  0
  8 26  1  0  0  0  0
  9 42  1  0  0  0  0
  9 43  1  0  0  0  0
  9 44  1  0  0  0  0
 10 27  1  0  0  0  0
 10 45  1  0  0  0  0
 10 46  1  0  0  0  0
 10 47  1  0  0  0  0
 11 12  1  0  0  0  0
 11 13  2  0  0  0  0
 11 14  1  0  0  0  0
 12 15  2  0  0  0  0
 12 16  1  0  0  0  0
 13 17  1  0  0  0  0
 14 18  2  0  0  0  0
 14 19  1  0  0  0  0
 15 20  1  0  0  0  0
 15 21  1  0  0  0  0
 16 22  2  0  0  0  0
 17 23  2  0  0  0  0
 17 24  1  0  0  0  0
 18 23  1  0  0  0  0
 18 48  1  0  0  0  0
 19 25  1  0  0  0  0
 19 49  1  0  0  0  0
 19 50  1  0  0  0  0
 20 26  2  0  0  0  0
 20 51  1  0  0  0  0
 21 27  1  0  0  0  0
 21 52  1  0  0  0  0
 21 53  1  0  0  0  0
 22 26  1  0  0  0  0
 23 28  1  0  0  0  0
 24 29  1  0  0  0  0
 25 27  1  0  0  0  0
 25 54  1  0  0  0  0
 27 55  1  0  0  0  0
 28 29  1  0  0  0  0
 29 56  1  0  0  0  0
 29 57  1  0  0  0  0
M  END
>  <Mol_ID>
9764

>  <Formula>
C23H28O6

>  <MolWeight>
400.46482

>  <Cat>
E2254

>  <Name>
Gomisin N

>  <Synonyms>
NA

>  <Target>
NF-¦ÊB, C/EBPb

>  <Form>
Free Base

>  <CAS>
69176-52-9

>  <URL>
https://www.selleckchem.com/products/gomisin-n.html

$$$$
