GPNA (L-¦Ã-Glutamyl-p-nitroanilide)
 OpenBabel08302521233D

 32 32  0  0  0  0  0  0  0  0999 V2000
    1.3926   -0.2335    0.0818 C   0  0  0  0  0  0  0  0  0  0  0  0
    0.9696    1.0902    0.2273 C   0  0  0  0  0  0  0  0  0  0  0  0
    0.4587   -1.2514   -0.1406 C   0  0  0  0  0  0  0  0  0  0  0  0
    2.8235   -0.5460    0.1663 N   0  3  0  0  0  0  0  0  0  0  0  0
   -0.3893    1.3930    0.1344 C   0  0  0  0  0  0  0  0  0  0  0  0
   -0.9090   -0.9380   -0.2174 C   0  0  0  0  0  0  0  0  0  0  0  0
    3.6090    0.3858    0.3820 O   0  0  0  0  0  0  0  0  0  0  0  0
    3.1607   -1.7302    0.0198 O   0  5  0  0  0  0  0  0  0  0  0  0
   -1.3397    0.3924   -0.0987 C   0  0  0  0  0  0  0  0  0  0  0  0
   -2.7225    0.6673   -0.1952 N   0  0  0  0  0  0  0  0  0  0  0  0
   -3.2724    1.9060   -0.4726 C   0  0  0  0  0  0  0  0  0  0  0  0
   -4.7741    1.9675   -0.3347 C   0  0  0  0  0  0  0  0  0  0  0  0
   -2.6462    2.9236   -0.7605 O   0  0  0  0  0  0  0  0  0  0  0  0
   -5.2468    2.1781    1.1067 C   0  0  0  0  0  0  0  0  0  0  0  0
   -4.8145    3.4931    1.7911 C   0  0  1  0  0  0  0  0  0  0  0  0
   -5.6319    3.6715    3.0958 C   0  0  0  0  0  0  0  0  0  0  0  0
   -3.3765    3.5646    2.1864 N   0  0  0  0  0  0  0  0  0  0  0  0
   -4.8110    3.8596    4.1635 O   0  0  0  0  0  0  0  0  0  0  0  0
   -6.8486    3.6409    3.1805 O   0  0  0  0  0  0  0  0  0  0  0  0
    1.6762    1.8981    0.4083 H   0  0  0  0  0  0  0  0  0  0  0  0
    0.7733   -2.2870   -0.2626 H   0  0  0  0  0  0  0  0  0  0  0  0
   -0.6808    2.4323    0.2629 H   0  0  0  0  0  0  0  0  0  0  0  0
   -1.6145   -1.7403   -0.3927 H   0  0  0  0  0  0  0  0  0  0  0  0
   -3.3455   -0.1352   -0.2223 H   0  0  0  0  0  0  0  0  0  0  0  0
   -5.1448    2.7694   -0.9848 H   0  0  0  0  0  0  0  0  0  0  0  0
   -5.2042    1.0373   -0.7277 H   0  0  0  0  0  0  0  0  0  0  0  0
   -6.3452    2.1571    1.0729 H   0  0  0  0  0  0  0  0  0  0  0  0
   -4.9535    1.3233    1.7270 H   0  0  0  0  0  0  0  0  0  0  0  0
   -5.0454    4.3524    1.1557 H   0  0  0  0  0  0  0  0  0  0  0  0
   -2.9329    4.3056    1.6292 H   0  0  0  0  0  0  0  0  0  0  0  0
   -2.8841    2.7144    1.9079 H   0  0  0  0  0  0  0  0  0  0  0  0
   -3.8929    3.8261    3.7799 H   0  0  0  0  0  0  0  0  0  0  0  0
  1  2  2  0  0  0  0
  1  3  1  0  0  0  0
  1  4  1  0  0  0  0
  2  5  1  0  0  0  0
  2 20  1  0  0  0  0
  3  6  2  0  0  0  0
  3 21  1  0  0  0  0
  4  7  2  0  0  0  0
  4  8  1  0  0  0  0
  5  9  2  0  0  0  0
  5 22  1  0  0  0  0
  6  9  1  0  0  0  0
  6 23  1  0  0  0  0
  9 10  1  0  0  0  0
 10 11  1  0  0  0  0
 10 24  1  0  0  0  0
 11 12  1  0  0  0  0
 11 13  2  0  0  0  0
 12 14  1  0  0  0  0
 12 25  1  0  0  0  0
 12 26  1  0  0  0  0
 14 15  1  0  0  0  0
 14 27  1  0  0  0  0
 14 28  1  0  0  0  0
 15 16  1  0  0  0  0
 15 17  1  0  0  0  0
 15 29  1  6  0  0  0
 16 18  1  0  0  0  0
 16 19  2  0  0  0  0
 17 30  1  0  0  0  0
 17 31  1  0  0  0  0
 18 32  1  0  0  0  0
M  CHG  2   4   1   8  -1
M  END
>  <Mol_ID>
4843

>  <Formula>
C11H14ClN3O5

>  <MolWeight>
303.69896

>  <Cat>
S6670

>  <Name>
GPNA (L-¦Ã-Glutamyl-p-nitroanilide)

>  <Synonyms>
N/A

>  <Target>
Amino acid transporter

>  <Form>
Free Base

>  <CAS>
67953-08-6

>  <URL>
http://www.selleck.cn/products/gpna.html

$$$$
