Gramine.cdx
 OpenBabel08302521363D

 27 28  0  0  0  0  0  0  0  0999 V2000
   -0.2197   -0.7498   -0.0098 C   0  0  0  0  0  0  0  0  0  0  0  0
   -0.2426    0.6456   -0.0204 C   0  0  0  0  0  0  0  0  0  0  0  0
    0.9212    1.4234   -0.0257 C   0  0  0  0  0  0  0  0  0  0  0  0
    2.1496    0.7535   -0.0197 C   0  0  0  0  0  0  0  0  0  0  0  0
    2.2074   -0.6371   -0.0095 C   0  0  0  0  0  0  0  0  0  0  0  0
    1.0332   -1.3992   -0.0056 C   0  0  0  0  0  0  0  0  0  0  0  0
   -1.5803   -1.2048   -0.0203 C   0  0  0  0  0  0  0  0  0  0  0  0
   -2.3757   -0.0725   -0.0225 C   0  0  0  0  0  0  0  0  0  0  0  0
   -1.5641    1.0275   -0.0318 N   0  0  0  0  0  0  0  0  0  0  0  0
   -2.0423   -2.6313   -0.0330 C   0  0  0  0  0  0  0  0  0  0  0  0
   -2.8290   -2.9288   -1.2446 N   0  0  0  0  0  0  0  0  0  0  0  0
   -2.0308   -2.7771   -2.4651 C   0  0  0  0  0  0  0  0  0  0  0  0
   -3.3458   -4.2970   -1.1656 C   0  0  0  0  0  0  0  0  0  0  0  0
    0.8804    2.5064   -0.0363 H   0  0  0  0  0  0  0  0  0  0  0  0
    3.0710    1.3279   -0.0252 H   0  0  0  0  0  0  0  0  0  0  0  0
    3.1698   -1.1386   -0.0078 H   0  0  0  0  0  0  0  0  0  0  0  0
    1.0929   -2.4834   -0.0023 H   0  0  0  0  0  0  0  0  0  0  0  0
   -3.4522    0.0308   -0.0442 H   0  0  0  0  0  0  0  0  0  0  0  0
   -1.8823    1.9857   -0.0533 H   0  0  0  0  0  0  0  0  0  0  0  0
   -1.1900   -3.3162    0.0572 H   0  0  0  0  0  0  0  0  0  0  0  0
   -2.6671   -2.7822    0.8577 H   0  0  0  0  0  0  0  0  0  0  0  0
   -1.1488   -3.4270   -2.4667 H   0  0  0  0  0  0  0  0  0  0  0  0
   -2.6365   -3.0163   -3.3465 H   0  0  0  0  0  0  0  0  0  0  0  0
   -1.7002   -1.7426   -2.6060 H   0  0  0  0  0  0  0  0  0  0  0  0
   -2.5414   -5.0390   -1.0963 H   0  0  0  0  0  0  0  0  0  0  0  0
   -3.9992   -4.4146   -0.2940 H   0  0  0  0  0  0  0  0  0  0  0  0
   -3.9536   -4.5325   -2.0464 H   0  0  0  0  0  0  0  0  0  0  0  0
  1  2  1  0  0  0  0
  1  7  1  0  0  0  0
  2  3  2  0  0  0  0
  3  4  1  0  0  0  0
  3 14  1  0  0  0  0
  4  5  2  0  0  0  0
  4 15  1  0  0  0  0
  5  6  1  0  0  0  0
  5 16  1  0  0  0  0
  6  1  2  0  0  0  0
  6 17  1  0  0  0  0
  7  8  2  0  0  0  0
  7 10  1  0  0  0  0
  8  9  1  0  0  0  0
  8 18  1  0  0  0  0
  9  2  1  0  0  0  0
  9 19  1  0  0  0  0
 10 11  1  0  0  0  0
 10 20  1  0  0  0  0
 10 21  1  0  0  0  0
 11 12  1  0  0  0  0
 11 13  1  0  0  0  0
 12 22  1  0  0  0  0
 12 23  1  0  0  0  0
 12 24  1  0  0  0  0
 13 25  1  0  0  0  0
 13 26  1  0  0  0  0
 13 27  1  0  0  0  0
M  END
>  <Mol_ID>
687

>  <Formula>
C11H14N2

>  <MolWeight>
174.24226

>  <Cat>
S2304

>  <Name>
Gramine

>  <Synonyms>
N/A

>  <Target>
ADC Cytotoxin,AdipoR,Adrenergic Receptor

>  <Form>
free base

>  <CAS>
87-52-5

>  <URL>
http://selleckchem.com/products/Gramine.html

$$$$
