Granisetron Hydrochloride.cdx
 OpenBabel08302520433D

 47 50  0  0  0  0  0  0  0  0999 V2000
    2.1640    1.8372   -0.8965 C   0  0  0  0  0  0  0  0  0  0  0  0
    1.7158    3.1317   -0.5711 C   0  0  0  0  0  0  0  0  0  0  0  0
    2.6360    4.1710   -0.5000 C   0  0  0  0  0  0  0  0  0  0  0  0
    4.0026    3.9810   -0.7518 C   0  0  0  0  0  0  0  0  0  0  0  0
    4.4247    2.6880   -1.0829 C   0  0  0  0  0  0  0  0  0  0  0  0
    3.5229    1.6300   -1.1520 C   0  0  0  0  0  0  0  0  0  0  0  0
    0.4546    3.7223   -0.2710 C   0  0  0  0  0  0  0  0  0  0  0  0
    0.5762    5.0435   -0.0094 N   0  0  0  0  0  0  0  0  0  0  0  0
    1.8984    5.2782   -0.1597 N   0  0  0  0  0  0  0  0  0  0  0  0
    2.4186    6.6114    0.0424 C   0  0  0  0  0  0  0  0  0  0  0  0
   -0.8346    3.0230   -0.2425 C   0  0  0  0  0  0  0  0  0  0  0  0
   -0.9532    1.8327   -0.5332 O   0  0  0  0  0  0  0  0  0  0  0  0
   -1.9034    3.8068    0.1363 N   0  0  0  0  0  0  0  0  0  0  0  0
   -3.2571    3.2849    0.1593 C   0  0  3  0  0  0  0  0  0  0  0  0
   -3.9494    3.4016   -1.2042 C   0  0  0  0  0  0  0  0  0  0  0  0
   -4.8722    4.6197   -1.3742 C   0  0  3  0  0  0  0  0  0  0  0  0
   -4.1214    5.9187   -1.6978 C   0  0  0  0  0  0  0  0  0  0  0  0
   -4.9374    5.0564    0.9836 C   0  0  3  0  0  0  0  0  0  0  0  0
   -4.0638    3.8441    1.3284 C   0  0  0  0  0  0  0  0  0  0  0  0
   -4.1335    6.3618    0.8566 C   0  0  0  0  0  0  0  0  0  0  0  0
   -5.7503    4.8518   -0.2207 N   0  0  0  0  0  0  0  0  0  0  0  0
   -6.7571    3.8021   -0.0605 C   0  0  0  0  0  0  0  0  0  0  0  0
   -3.5192    6.6633   -0.5103 C   0  0  0  0  0  0  0  0  0  0  0  0
    1.4618    1.0096   -0.9518 H   0  0  0  0  0  0  0  0  0  0  0  0
    4.7148    4.7982   -0.6995 H   0  0  0  0  0  0  0  0  0  0  0  0
    5.4765    2.5046   -1.2914 H   0  0  0  0  0  0  0  0  0  0  0  0
    3.8668    0.6315   -1.4091 H   0  0  0  0  0  0  0  0  0  0  0  0
    3.0890    6.5933    0.9055 H   0  0  0  0  0  0  0  0  0  0  0  0
    2.9609    6.9103   -0.8583 H   0  0  0  0  0  0  0  0  0  0  0  0
    1.5937    7.3048    0.2244 H   0  0  0  0  0  0  0  0  0  0  0  0
   -1.6905    4.7856    0.2946 H   0  0  0  0  0  0  0  0  0  0  0  0
   -3.1481    2.2091    0.3565 H   0  0  0  0  0  0  0  0  0  0  0  0
   -3.2170    3.3669   -2.0207 H   0  0  0  0  0  0  0  0  0  0  0  0
   -4.5669    2.5020   -1.3365 H   0  0  0  0  0  0  0  0  0  0  0  0
   -5.4969    4.4203   -2.2566 H   0  0  0  0  0  0  0  0  0  0  0  0
   -3.3329    5.7257   -2.4367 H   0  0  0  0  0  0  0  0  0  0  0  0
   -4.8250    6.6004   -2.1954 H   0  0  0  0  0  0  0  0  0  0  0  0
   -5.6113    5.2099    1.8382 H   0  0  0  0  0  0  0  0  0  0  0  0
   -4.7263    3.0448    1.6898 H   0  0  0  0  0  0  0  0  0  0  0  0
   -3.4086    4.0749    2.1778 H   0  0  0  0  0  0  0  0  0  0  0  0
   -3.3396    6.3901    1.6145 H   0  0  0  0  0  0  0  0  0  0  0  0
   -4.8038    7.1945    1.1088 H   0  0  0  0  0  0  0  0  0  0  0  0
   -6.3315    2.8048    0.0911 H   0  0  0  0  0  0  0  0  0  0  0  0
   -7.4076    4.0208    0.7932 H   0  0  0  0  0  0  0  0  0  0  0  0
   -7.4030    3.7570   -0.9441 H   0  0  0  0  0  0  0  0  0  0  0  0
   -2.4394    6.4909   -0.4813 H   0  0  0  0  0  0  0  0  0  0  0  0
   -3.6104    7.7426   -0.6976 H   0  0  0  0  0  0  0  0  0  0  0  0
  1  2  1  0  0  0  0
  1 24  1  0  0  0  0
  2  3  2  0  0  0  0
  2  7  1  0  0  0  0
  3  4  1  0  0  0  0
  4  5  2  0  0  0  0
  4 25  1  0  0  0  0
  5  6  1  0  0  0  0
  5 26  1  0  0  0  0
  6  1  2  0  0  0  0
  6 27  1  0  0  0  0
  7  8  2  0  0  0  0
  7 11  1  0  0  0  0
  8  9  1  0  0  0  0
  9  3  1  0  0  0  0
  9 10  1  0  0  0  0
 10 28  1  0  0  0  0
 10 29  1  0  0  0  0
 10 30  1  0  0  0  0
 11 12  2  0  0  0  0
 11 13  1  0  0  0  0
 13 14  1  0  0  0  0
 13 31  1  0  0  0  0
 14 15  1  0  0  0  0
 14 32  1  0  0  0  0
 15 16  1  0  0  0  0
 15 33  1  0  0  0  0
 15 34  1  0  0  0  0
 16 17  1  0  0  0  0
 16 21  1  0  0  0  0
 16 35  1  0  0  0  0
 17 23  1  0  0  0  0
 17 36  1  0  0  0  0
 17 37  1  0  0  0  0
 18 19  1  0  0  0  0
 18 20  1  0  0  0  0
 18 38  1  0  0  0  0
 19 14  1  0  0  0  0
 19 39  1  0  0  0  0
 19 40  1  0  0  0  0
 20 23  1  0  0  0  0
 20 41  1  0  0  0  0
 20 42  1  0  0  0  0
 21 18  1  0  0  0  0
 21 22  1  0  0  0  0
 22 43  1  0  0  0  0
 22 44  1  0  0  0  0
 22 45  1  0  0  0  0
 23 46  1  0  0  0  0
 23 47  1  0  0  0  0
M  END
>  <Mol_ID>
4017

>  <Formula>
C18H25ClN4O

>  <MolWeight>
348.8703

>  <Cat>
S1345

>  <Name>
Granisetron HCl

>  <Synonyms>
N/A

>  <Target>
5-HT Receptor

>  <Form>
Hydrochloride

>  <CAS>
107007-99-8

>  <URL>
http://selleckchem.com/products/Granisetron-Hydrochloride.html

$$$$
