Granilin
 OpenBabel08302521553D

 39 41  0  0  1  0  0  0  0  0999 V2000
   -0.2696    3.4758    0.6008 C   0  0  0  0  0  0  0  0  0  0  0  0
    1.9736    0.5013   -2.3597 C   0  0  0  0  0  0  0  0  0  0  0  0
    1.8644    1.8382    2.8007 O   0  0  0  0  0  0  0  0  0  0  0  0
    4.0316    2.1337   -1.4579 O   0  0  0  0  0  0  0  0  0  0  0  0
   -4.0671   -0.4629   -1.2784 C   0  0  0  0  0  0  0  0  0  0  0  0
   -5.0175    1.7682    0.4344 O   0  0  0  0  0  0  0  0  0  0  0  0
    0.4523    1.2506   -0.5364 C   0  0  1  0  0  0  0  0  0  0  0  0
    0.3736    2.0756    0.8079 C   0  0  2  0  0  0  0  0  0  0  0  0
   -0.9390    1.2419   -1.2236 C   0  0  0  0  0  0  0  0  0  0  0  0
    1.7112    1.3942   -1.3829 C   0  0  0  0  0  0  0  0  0  0  0  0
   -0.5289    1.2125    1.7342 C   0  0  0  0  0  0  0  0  0  0  0  0
    1.7783    2.3344    1.4659 C   0  0  2  0  0  0  0  0  0  0  0  0
   -1.8325    0.3333   -0.3685 C   0  0  1  0  0  0  0  0  0  0  0  0
    2.7882    2.2654   -0.7810 C   0  0  1  0  0  0  0  0  0  0  0  0
   -1.8278    0.6882    1.1152 C   0  0  2  0  0  0  0  0  0  0  0  0
    2.9570    1.8115    0.6635 C   0  0  0  0  0  0  0  0  0  0  0  0
   -3.3058    0.3862   -0.5779 C   0  0  0  0  0  0  0  0  0  0  0  0
   -2.8892    1.6358    1.2912 O   0  0  0  0  0  0  0  0  0  0  0  0
   -3.8807    1.3404    0.4033 C   0  0  2  0  0  0  0  0  0  0  0  0
   -1.3590    3.4424    0.5286 H   0  0  0  0  0  0  0  0  0  0  0  0
    0.1106    3.9584   -0.3061 H   0  0  0  0  0  0  0  0  0  0  0  0
   -0.0533    4.1445    1.4432 H   0  0  0  0  0  0  0  0  0  0  0  0
    1.2633   -0.2701   -2.6414 H   0  0  0  0  0  0  0  0  0  0  0  0
    2.9623    0.4167   -2.8053 H   0  0  0  0  0  0  0  0  0  0  0  0
    1.3352    2.4292    3.3670 H   0  0  0  0  0  0  0  0  0  0  0  0
    3.9338    2.6049   -2.3029 H   0  0  0  0  0  0  0  0  0  0  0  0
   -5.1517   -0.4437   -1.1950 H   0  0  0  0  0  0  0  0  0  0  0  0
   -3.6265   -1.2420   -1.8906 H   0  0  0  0  0  0  0  0  0  0  0  0
    0.5981    0.2075   -0.1967 H   0  0  0  0  0  0  0  0  0  0  0  0
   -0.8747    0.8514   -2.2543 H   0  0  0  0  0  0  0  0  0  0  0  0
   -1.3508    2.2483   -1.3382 H   0  0  0  0  0  0  0  0  0  0  0  0
   -0.7564    1.7597    2.6559 H   0  0  0  0  0  0  0  0  0  0  0  0
    0.0534    0.3232    2.0194 H   0  0  0  0  0  0  0  0  0  0  0  0
    1.9470    3.4209    1.5578 H   0  0  0  0  0  0  0  0  0  0  0  0
   -1.4720   -0.6955   -0.5082 H   0  0  0  0  0  0  0  0  0  0  0  0
    2.5014    3.3219   -0.8342 H   0  0  0  0  0  0  0  0  0  0  0  0
   -2.1160   -0.2004    1.7006 H   0  0  0  0  0  0  0  0  0  0  0  0
    3.0136    0.7155    0.7399 H   0  0  0  0  0  0  0  0  0  0  0  0
    3.9041    2.1624    1.0898 H   0  0  0  0  0  0  0  0  0  0  0  0
  1 20  1  0  0  0  0
  1 21  1  0  0  0  0
  1 22  1  0  0  0  0
  2 23  1  0  0  0  0
  2 24  1  0  0  0  0
  2 10  2  0  0  0  0
  3 25  1  0  0  0  0
  4 26  1  0  0  0  0
  5 27  1  0  0  0  0
  5 28  1  0  0  0  0
  5 17  2  0  0  0  0
  7  8  1  0  0  0  0
  7  9  1  0  0  0  0
  7 10  1  0  0  0  0
  7 29  1  1  0  0  0
  8 11  1  0  0  0  0
  8 12  1  0  0  0  0
  8  1  1  6  0  0  0
  9 30  1  0  0  0  0
  9 31  1  0  0  0  0
 10 14  1  0  0  0  0
 11 32  1  0  0  0  0
 11 33  1  0  0  0  0
 12 16  1  0  0  0  0
 12  3  1  0  0  0  0
 12 34  1  1  0  0  0
 13  9  1  0  0  0  0
 13 15  1  0  0  0  0
 13 17  1  0  0  0  0
 13 35  1  6  0  0  0
 14 16  1  0  0  0  0
 14  4  1  0  0  0  0
 14 36  1  6  0  0  0
 15 11  1  0  0  0  0
 15 18  1  0  0  0  0
 15 37  1  1  0  0  0
 16 38  1  0  0  0  0
 16 39  1  0  0  0  0
 17 19  1  0  0  0  0
 18 19  1  0  0  0  0
 19  6  2  1  0  0  0
M  END
>  <Mol_ID>
10049

>  <Formula>
C15H20O4

>  <MolWeight>
264.3169

>  <Cat>
E5602

>  <Name>
Granilin

>  <Synonyms>
N/A

>  <Target>
Others

>  <Form>
free base

>  <CAS>
40737-97-1

>  <URL>
https://www.selleckchem.com/products/granilin.html

$$$$
