Grapiprant (CJ-023,423)
 OpenBabel08302521313D

 64 67  0  0  0  0  0  0  0  0999 V2000
   -1.2470    1.0599    1.1573 S   0  0  0  0  0  0  0  0  0  0  0  0
   -1.3590    0.1099    0.0651 O   0  0  0  0  0  0  0  0  0  0  0  0
   -1.8169    2.3842    1.0747 O   0  0  0  0  0  0  0  0  0  0  0  0
    2.5829    1.2450    1.5990 O   0  0  0  0  0  0  0  0  0  0  0  0
    8.6150   -4.5674    1.3347 N   0  0  0  0  0  0  0  0  0  0  0  0
    9.9612   -6.3156    0.9388 N   0  0  0  0  0  0  0  0  0  0  0  0
   12.3422   -4.4532    3.1057 N   0  0  0  0  0  0  0  0  0  0  0  0
    1.5658   -0.7530    1.2610 N   0  0  0  0  0  0  0  0  0  0  0  0
    0.3577    1.3091    1.4837 N   0  0  0  0  0  0  0  0  0  0  0  0
    9.8267   -4.2960    1.9666 C   0  0  0  0  0  0  0  0  0  0  0  0
    8.7749   -5.7992    0.6988 C   0  0  0  0  0  0  0  0  0  0  0  0
   10.6228   -5.4089    1.7290 C   0  0  0  0  0  0  0  0  0  0  0  0
    7.4287   -3.7740    1.4528 C   0  0  0  0  0  0  0  0  0  0  0  0
    7.7333   -6.4409   -0.1826 C   0  0  0  0  0  0  0  0  0  0  0  0
   10.2677   -3.2650    2.8026 C   0  0  0  0  0  0  0  0  0  0  0  0
   11.9025   -5.4877    2.3190 C   0  0  0  0  0  0  0  0  0  0  0  0
    5.1047   -2.2514    1.9560 C   0  0  0  0  0  0  0  0  0  0  0  0
    7.5087   -2.3887    1.6187 C   0  0  0  0  0  0  0  0  0  0  0  0
    6.1782   -4.3874    1.5068 C   0  0  0  0  0  0  0  0  0  0  0  0
    3.8575   -1.4321    2.2588 C   0  0  0  0  0  0  0  0  0  0  0  0
   11.5433   -3.3873    3.3303 C   0  0  0  0  0  0  0  0  0  0  0  0
    6.3587   -1.6386    1.9027 C   0  0  0  0  0  0  0  0  0  0  0  0
    5.0273   -3.6307    1.7485 C   0  0  0  0  0  0  0  0  0  0  0  0
    2.8089   -1.5280    1.1261 C   0  0  0  0  0  0  0  0  0  0  0  0
    8.3209   -7.3700   -1.2292 C   0  0  0  0  0  0  0  0  0  0  0  0
   12.7894   -6.6845    2.1779 C   0  0  0  0  0  0  0  0  0  0  0  0
   12.0376   -2.2887    4.2291 C   0  0  0  0  0  0  0  0  0  0  0  0
    1.5535    0.6022    1.4453 C   0  0  0  0  0  0  0  0  0  0  0  0
   -1.9326    0.2908    2.6112 C   0  0  0  0  0  0  0  0  0  0  0  0
   -2.9777    0.8842    3.3357 C   0  0  0  0  0  0  0  0  0  0  0  0
   -1.3960   -0.9204    3.0422 C   0  0  0  0  0  0  0  0  0  0  0  0
   -2.7221   -0.8011    5.0716 C   0  0  0  0  0  0  0  0  0  0  0  0
   -3.3647    0.3385    4.5705 C   0  0  0  0  0  0  0  0  0  0  0  0
   -1.7845   -1.4593    4.2675 C   0  0  0  0  0  0  0  0  0  0  0  0
   -3.0037   -1.3176    6.4537 C   0  0  0  0  0  0  0  0  0  0  0  0
    0.7812   -1.0893    0.7180 H   0  0  0  0  0  0  0  0  0  0  0  0
    0.5207    2.3064    1.5950 H   0  0  0  0  0  0  0  0  0  0  0  0
    7.0539   -7.0296    0.4425 H   0  0  0  0  0  0  0  0  0  0  0  0
    7.1489   -5.6769   -0.7062 H   0  0  0  0  0  0  0  0  0  0  0  0
    9.6568   -2.4190    3.0834 H   0  0  0  0  0  0  0  0  0  0  0  0
    8.4447   -1.8490    1.5210 H   0  0  0  0  0  0  0  0  0  0  0  0
    6.0543   -5.4620    1.4405 H   0  0  0  0  0  0  0  0  0  0  0  0
    4.1604   -0.3941    2.4286 H   0  0  0  0  0  0  0  0  0  0  0  0
    3.4426   -1.7869    3.2113 H   0  0  0  0  0  0  0  0  0  0  0  0
    6.4700   -0.5724    2.0898 H   0  0  0  0  0  0  0  0  0  0  0  0
    4.0766   -4.1563    1.8048 H   0  0  0  0  0  0  0  0  0  0  0  0
    2.4843   -2.5705    1.0435 H   0  0  0  0  0  0  0  0  0  0  0  0
    3.2722   -1.2506    0.1717 H   0  0  0  0  0  0  0  0  0  0  0  0
    8.8547   -8.2027   -0.7615 H   0  0  0  0  0  0  0  0  0  0  0  0
    7.5165   -7.7892   -1.8448 H   0  0  0  0  0  0  0  0  0  0  0  0
    9.0130   -6.8362   -1.8856 H   0  0  0  0  0  0  0  0  0  0  0  0
   12.3120   -7.5565    2.6358 H   0  0  0  0  0  0  0  0  0  0  0  0
   12.9747   -6.8953    1.1199 H   0  0  0  0  0  0  0  0  0  0  0  0
   13.7502   -6.5163    2.6741 H   0  0  0  0  0  0  0  0  0  0  0  0
   12.0611   -1.3383    3.6821 H   0  0  0  0  0  0  0  0  0  0  0  0
   11.3654   -2.1800    5.0870 H   0  0  0  0  0  0  0  0  0  0  0  0
   13.0411   -2.5021    4.6006 H   0  0  0  0  0  0  0  0  0  0  0  0
   -3.4834    1.7775    2.9739 H   0  0  0  0  0  0  0  0  0  0  0  0
   -0.6555   -1.4398    2.4467 H   0  0  0  0  0  0  0  0  0  0  0  0
   -4.1403    0.8291    5.1571 H   0  0  0  0  0  0  0  0  0  0  0  0
   -1.3155   -2.3784    4.6118 H   0  0  0  0  0  0  0  0  0  0  0  0
   -3.6368   -2.2082    6.4229 H   0  0  0  0  0  0  0  0  0  0  0  0
   -2.0588   -1.5715    6.9513 H   0  0  0  0  0  0  0  0  0  0  0  0
   -3.4901   -0.5569    7.0731 H   0  0  0  0  0  0  0  0  0  0  0  0
  1  2  2  0  0  0  0
  1  3  2  0  0  0  0
  1  9  1  0  0  0  0
  1 29  1  0  0  0  0
  4 28  2  0  0  0  0
  5 10  1  0  0  0  0
  5 11  1  0  0  0  0
  5 13  1  0  0  0  0
  6 11  2  0  0  0  0
  6 12  1  0  0  0  0
  7 16  2  0  0  0  0
  7 21  1  0  0  0  0
  8 24  1  0  0  0  0
  8 28  1  0  0  0  0
  8 36  1  0  0  0  0
  9 28  1  0  0  0  0
  9 37  1  0  0  0  0
 10 12  2  0  0  0  0
 10 15  1  0  0  0  0
 11 14  1  0  0  0  0
 12 16  1  0  0  0  0
 13 18  2  0  0  0  0
 13 19  1  0  0  0  0
 14 25  1  0  0  0  0
 14 38  1  0  0  0  0
 14 39  1  0  0  0  0
 15 21  2  0  0  0  0
 15 40  1  0  0  0  0
 16 26  1  0  0  0  0
 17 20  1  0  0  0  0
 17 22  2  0  0  0  0
 17 23  1  0  0  0  0
 18 22  1  0  0  0  0
 18 41  1  0  0  0  0
 19 23  2  0  0  0  0
 19 42  1  0  0  0  0
 20 24  1  0  0  0  0
 20 43  1  0  0  0  0
 20 44  1  0  0  0  0
 21 27  1  0  0  0  0
 22 45  1  0  0  0  0
 23 46  1  0  0  0  0
 24 47  1  0  0  0  0
 24 48  1  0  0  0  0
 25 49  1  0  0  0  0
 25 50  1  0  0  0  0
 25 51  1  0  0  0  0
 26 52  1  0  0  0  0
 26 53  1  0  0  0  0
 26 54  1  0  0  0  0
 27 55  1  0  0  0  0
 27 56  1  0  0  0  0
 27 57  1  0  0  0  0
 29 30  2  0  0  0  0
 29 31  1  0  0  0  0
 30 33  1  0  0  0  0
 30 58  1  0  0  0  0
 31 34  2  0  0  0  0
 31 59  1  0  0  0  0
 32 33  2  0  0  0  0
 32 34  1  0  0  0  0
 32 35  1  0  0  0  0
 33 60  1  0  0  0  0
 34 61  1  0  0  0  0
 35 62  1  0  0  0  0
 35 63  1  0  0  0  0
 35 64  1  0  0  0  0
M  END
>  <Mol_ID>
6017

>  <Formula>
C26H29N5O3S

>  <MolWeight>
491.60516

>  <Cat>
S6694

>  <Name>
Grapiprant (CJ-023,423)

>  <Synonyms>
AT-001, AAT-007, RQ-00000007, CJ-23423

>  <Target>
Prostaglandin Receptor

>  <Form>
Free Base

>  <CAS>
415903-37-6

>  <URL>
http://www.selleckchem.com/products/grapiprant-cj-023423.html

$$$$
