Graveoline
 OpenBabel08302521373D

 34 37  0  0  0  0  0  0  0  0999 V2000
    1.0902   -0.1296   -0.1183 C   0  0  0  0  0  0  0  0  0  0  0  0
   -0.0364    3.6584    3.7531 O   0  0  0  0  0  0  0  0  0  0  0  0
    0.9116    2.2317    0.6649 C   0  0  0  0  0  0  0  0  0  0  0  0
    0.6341    0.8729    0.8536 N   0  0  0  0  0  0  0  0  0  0  0  0
    0.6897    3.1948    1.5787 C   0  0  0  0  0  0  0  0  0  0  0  0
   -0.0168    0.4595    2.0483 C   0  0  0  0  0  0  0  0  0  0  0  0
    0.1080    2.8185    2.8755 C   0  0  0  0  0  0  0  0  0  0  0  0
   -0.3068    1.4094    3.0559 C   0  0  0  0  0  0  0  0  0  0  0  0
   -0.4420   -0.8582    2.2981 C   0  0  0  0  0  0  0  0  0  0  0  0
   -0.9980    1.0667    4.2277 C   0  0  0  0  0  0  0  0  0  0  0  0
   -1.1381   -1.2018    3.4674 C   0  0  0  0  0  0  0  0  0  0  0  0
   -1.4209   -0.2422    4.4281 C   0  0  0  0  0  0  0  0  0  0  0  0
    1.4711    2.6683   -0.6253 C   0  0  0  0  0  0  0  0  0  0  0  0
    0.6156    3.0641   -1.6630 C   0  0  0  0  0  0  0  0  0  0  0  0
    2.8684    2.6304   -0.8248 C   0  0  0  0  0  0  0  0  0  0  0  0
    1.1900    3.3902   -2.8718 C   0  0  0  0  0  0  0  0  0  0  0  0
    3.4162    2.9136   -2.0783 C   0  0  0  0  0  0  0  0  0  0  0  0
    2.5508    3.2909   -3.0783 C   0  0  0  0  0  0  0  0  0  0  0  0
    0.5426    3.8558   -3.9764 O   0  0  0  0  0  0  0  0  0  0  0  0
    2.9034    3.6419   -4.3452 O   0  0  0  0  0  0  0  0  0  0  0  0
    1.6752    4.2636   -4.7730 C   0  0  0  0  0  0  0  0  0  0  0  0
    0.7043    0.1052   -1.1158 H   0  0  0  0  0  0  0  0  0  0  0  0
    0.7946   -1.1584    0.0781 H   0  0  0  0  0  0  0  0  0  0  0  0
    2.1878   -0.1344   -0.1618 H   0  0  0  0  0  0  0  0  0  0  0  0
    0.9137    4.2436    1.4238 H   0  0  0  0  0  0  0  0  0  0  0  0
   -0.2776   -1.6650    1.5952 H   0  0  0  0  0  0  0  0  0  0  0  0
   -1.2156    1.8243    4.9772 H   0  0  0  0  0  0  0  0  0  0  0  0
   -1.4626   -2.2297    3.6146 H   0  0  0  0  0  0  0  0  0  0  0  0
   -1.9748   -0.5081    5.3254 H   0  0  0  0  0  0  0  0  0  0  0  0
   -0.4612    3.1150   -1.5306 H   0  0  0  0  0  0  0  0  0  0  0  0
    3.5279    2.3607   -0.0038 H   0  0  0  0  0  0  0  0  0  0  0  0
    4.4843    2.8595   -2.2525 H   0  0  0  0  0  0  0  0  0  0  0  0
    1.7999    5.3499   -4.6709 H   0  0  0  0  0  0  0  0  0  0  0  0
    1.4866    4.0294   -5.8244 H   0  0  0  0  0  0  0  0  0  0  0  0
  1  4  1  0  0  0  0
  1 22  1  0  0  0  0
  1 23  1  0  0  0  0
  1 24  1  0  0  0  0
  2  7  2  0  0  0  0
  3  4  1  0  0  0  0
  3  5  2  0  0  0  0
  3 13  1  0  0  0  0
  4  6  1  0  0  0  0
  5  7  1  0  0  0  0
  5 25  1  0  0  0  0
  6  8  2  0  0  0  0
  6  9  1  0  0  0  0
  7  8  1  0  0  0  0
  8 10  1  0  0  0  0
  9 11  2  0  0  0  0
  9 26  1  0  0  0  0
 10 12  2  0  0  0  0
 10 27  1  0  0  0  0
 11 12  1  0  0  0  0
 11 28  1  0  0  0  0
 12 29  1  0  0  0  0
 13 14  2  0  0  0  0
 13 15  1  0  0  0  0
 14 16  1  0  0  0  0
 14 30  1  0  0  0  0
 15 17  2  0  0  0  0
 15 31  1  0  0  0  0
 16 18  2  0  0  0  0
 16 19  1  0  0  0  0
 17 18  1  0  0  0  0
 17 32  1  0  0  0  0
 18 20  1  0  0  0  0
 19 21  1  0  0  0  0
 20 21  1  0  0  0  0
 21 33  1  0  0  0  0
 21 34  1  0  0  0  0
M  END
>  <Mol_ID>
7471

>  <Formula>
C17H13NO3

>  <MolWeight>
279.29002

>  <Cat>
E4576

>  <Name>
Graveoline

>  <Synonyms>
Graveoline

>  <Target>
Autophagy

>  <Form>
Free base

>  <CAS>
485-61-0

>  <URL>
https://www.selleckchem.com/products/graveoline.html

$$$$
