Griseofulvin.cdx
 OpenBabel08302522042D

 41 43  0  0  0  0  0  0  0  0999 V2000
    2.4165    3.4951    0.0000 C   0  0  0  0  0  0  0  0  0  0  0  0
    2.4165    2.0951    0.0000 C   0  0  0  0  0  0  0  0  0  0  0  0
    3.6289    1.3951    0.0000 C   0  0  0  0  0  0  0  0  0  0  0  0
    4.8413    2.0951    0.0000 C   0  0  0  0  0  0  0  0  0  0  0  0
    4.8413    3.4951    0.0000 C   0  0  0  0  0  0  0  0  0  0  0  0
    3.6289    4.1951    0.0000 C   0  0  0  0  0  0  0  0  0  0  0  0
    6.1728    1.6625    0.0000 O   0  0  0  0  0  0  0  0  0  0  0  0
    6.9957    2.7951    0.0000 C   0  0  1  0  0  0  0  0  0  0  0  0
    6.1485    3.9278    0.0000 C   0  0  0  0  0  0  0  0  0  0  0  0
    7.6957    1.5827    0.0000 C   0  0  1  0  0  0  0  0  0  0  0  0
    9.0957    1.5827    0.0000 C   0  0  0  0  0  0  0  0  0  0  0  0
    9.7957    2.7951    0.0000 C   0  0  0  0  0  0  0  0  0  0  0  0
    9.0957    4.0076    0.0000 C   0  0  0  0  0  0  0  0  0  0  0  0
    7.6957    4.0076    0.0000 C   0  0  0  0  0  0  0  0  0  0  0  0
    3.6289    5.5903    0.0000 O   0  0  0  0  0  0  0  0  0  0  0  0
    2.4207    6.2879    0.0000 C   0  0  0  0  0  0  0  0  0  0  0  0
    1.2082    1.3976    0.0000 O   0  0  0  0  0  0  0  0  0  0  0  0
    0.0000    2.0951    0.0000 C   0  0  0  0  0  0  0  0  0  0  0  0
    6.1485    5.3221    0.0000 O   0  0  0  0  0  0  0  0  0  0  0  0
    7.4534    5.3815    0.0000 O   0  0  0  0  0  0  0  0  0  0  0  0
    8.5222    6.2783    0.0000 C   0  0  0  0  0  0  0  0  0  0  0  0
    6.9981    0.3745    0.0000 C   0  0  0  0  0  0  0  0  0  0  0  0
   11.1909    2.7951    0.0000 O   0  0  0  0  0  0  0  0  0  0  0  0
    1.5228    4.0111    0.0000 H   0  0  0  0  0  0  0  0  0  0  0  0
    3.6289    0.3631    0.0000 H   0  0  0  0  0  0  0  0  0  0  0  0
    6.6257    1.5827    0.0000 H   0  0  0  0  0  0  0  0  0  0  0  0
    9.6307    0.6560    0.0000 H   0  0  0  0  0  0  0  0  0  0  0  0
   10.1657    1.5827    0.0000 H   0  0  0  0  0  0  0  0  0  0  0  0
    9.6117    4.9013    0.0000 H   0  0  0  0  0  0  0  0  0  0  0  0
    2.4207    7.3579    0.0000 H   0  0  0  0  0  0  0  0  0  0  0  0
    1.4940    5.7529    0.0000 H   0  0  0  0  0  0  0  0  0  0  0  0
    1.4941    6.8229    0.0000 H   0  0  0  0  0  0  0  0  0  0  0  0
   -0.0000    3.1651    0.0000 H   0  0  0  0  0  0  0  0  0  0  0  0
   -0.9266    1.5601    0.0000 H   0  0  0  0  0  0  0  0  0  0  0  0
   -0.9267    2.6301    0.0000 H   0  0  0  0  0  0  0  0  0  0  0  0
    9.5277    5.9123    0.0000 H   0  0  0  0  0  0  0  0  0  0  0  0
    8.3364    7.3320    0.0000 H   0  0  0  0  0  0  0  0  0  0  0  0
    9.3419    6.9661    0.0000 H   0  0  0  0  0  0  0  0  0  0  0  0
    5.9281    0.3745    0.0000 H   0  0  0  0  0  0  0  0  0  0  0  0
    7.5331   -0.5522    0.0000 H   0  0  0  0  0  0  0  0  0  0  0  0
    6.4631   -0.5521    0.0000 H   0  0  0  0  0  0  0  0  0  0  0  0
  1  2  2  0  0  0  0
  1 24  1  0  0  0  0
  2  3  1  0  0  0  0
  2 17  1  0  0  0  0
  3  4  2  0  0  0  0
  3 25  1  0  0  0  0
  4  5  1  0  0  0  0
  4  7  1  0  0  0  0
  5  6  2  0  0  0  0
  6  1  1  0  0  0  0
  6 15  1  0  0  0  0
  8 10  1  0  0  0  0
  8 14  1  6  0  0  0
  8  9  1  0  0  0  0
  8  7  1  0  0  0  0
  9  5  1  0  0  0  0
  9 19  2  0  0  0  0
 10 11  1  0  0  0  0
 10 22  1  0  0  0  0
 10 26  1  6  0  0  0
 11 12  1  0  0  0  0
 11 27  1  0  0  0  0
 11 28  1  0  0  0  0
 12 13  1  0  0  0  0
 12 23  2  0  0  0  0
 13 14  2  0  0  0  0
 13 29  1  0  0  0  0
 14 20  1  0  0  0  0
 15 16  1  0  0  0  0
 16 30  1  0  0  0  0
 16 31  1  0  0  0  0
 16 32  1  0  0  0  0
 17 18  1  0  0  0  0
 18 33  1  0  0  0  0
 18 34  1  0  0  0  0
 18 35  1  0  0  0  0
 20 21  1  0  0  0  0
 21 36  1  0  0  0  0
 21 37  1  0  0  0  0
 21 38  1  0  0  0  0
 22 39  1  0  0  0  0
 22 40  1  0  0  0  0
 22 41  1  0  0  0  0
M  END
>  <Mol_ID>
1235

>  <Formula>
C17H17ClO6

>  <MolWeight>
352.76628

>  <Cat>
S4071

>  <Name>
Griseofulvin

>  <Synonyms>
N/A

>  <Target>
Microtubule Associated

>  <Form>
free base

>  <CAS>
126-07-8

>  <URL>
http://selleckchem.com/products/griseofulvin.html

$$$$
