GRK5-IN-2
 OpenBabel08302521343D

 48 51  0  0  0  0  0  0  0  0999 V2000
    0.9750   -6.4330    2.5829 C   0  0  0  0  0  0  0  0  0  0  0  0
    3.4567   -4.5431   -1.9080 N   0  0  0  0  0  0  0  0  0  0  0  0
    5.7822   -0.3590   -2.7629 O   0  0  0  0  0  0  0  0  0  0  0  0
    5.4486    0.0649   -1.4443 C   0  0  0  0  0  0  0  0  0  0  0  0
    5.4112   -3.8820   -6.1568 O   0  0  0  0  0  0  0  0  0  0  0  0
    6.0737   -3.1773   -7.1947 C   0  0  0  0  0  0  0  0  0  0  0  0
    6.3660   -1.2667   -5.4237 O   0  0  0  0  0  0  0  0  0  0  0  0
    6.8029    0.0485   -5.1287 C   0  0  0  0  0  0  0  0  0  0  0  0
    1.1497   -4.5883    0.9236 C   0  0  0  0  0  0  0  0  0  0  0  0
    0.4857   -3.3753    0.7774 C   0  0  0  0  0  0  0  0  0  0  0  0
    0.6145   -5.1352    2.0660 N   0  0  0  0  0  0  0  0  0  0  0  0
    2.1270   -5.0173    0.0298 C   0  0  0  0  0  0  0  0  0  0  0  0
   -0.4364   -3.2003    1.7834 N   0  0  0  0  0  0  0  0  0  0  0  0
    0.8352   -2.5610   -0.3009 C   0  0  0  0  0  0  0  0  0  0  0  0
   -0.3105   -4.2537    2.5714 C   0  0  0  0  0  0  0  0  0  0  0  0
    2.4354   -4.1430   -1.0122 C   0  0  0  0  0  0  0  0  0  0  0  0
    1.8141   -2.9484   -1.1656 N   0  0  0  0  0  0  0  0  0  0  0  0
   -1.0526   -4.4489    3.7828 C   0  0  0  0  0  0  0  0  0  0  0  0
   -2.3077   -3.9653    4.1162 C   0  0  0  0  0  0  0  0  0  0  0  0
   -0.5873   -5.2013    4.8341 O   0  0  0  0  0  0  0  0  0  0  0  0
   -2.6296   -4.4781    5.3963 C   0  0  0  0  0  0  0  0  0  0  0  0
   -1.5421   -5.2155    5.7938 C   0  0  0  0  0  0  0  0  0  0  0  0
    4.1721   -3.6946   -2.7757 C   0  0  0  0  0  0  0  0  0  0  0  0
    4.6096   -2.4367   -2.3531 C   0  0  0  0  0  0  0  0  0  0  0  0
    4.5040   -4.1059   -4.0636 C   0  0  0  0  0  0  0  0  0  0  0  0
    5.3443   -1.5844   -3.1899 C   0  0  0  0  0  0  0  0  0  0  0  0
    5.2246   -3.2742   -4.9367 C   0  0  0  0  0  0  0  0  0  0  0  0
    5.6558   -1.9974   -4.5063 C   0  0  0  0  0  0  0  0  0  0  0  0
    0.2146   -6.8100    3.2638 H   0  0  0  0  0  0  0  0  0  0  0  0
    1.9401   -6.3422    3.0914 H   0  0  0  0  0  0  0  0  0  0  0  0
    1.0521   -7.1341    1.7460 H   0  0  0  0  0  0  0  0  0  0  0  0
    3.2292   -5.4399   -2.3197 H   0  0  0  0  0  0  0  0  0  0  0  0
    4.3647    0.1391   -1.3139 H   0  0  0  0  0  0  0  0  0  0  0  0
    5.8994   -0.5932   -0.6928 H   0  0  0  0  0  0  0  0  0  0  0  0
    5.8685    1.0646   -1.2998 H   0  0  0  0  0  0  0  0  0  0  0  0
    5.5298   -2.2688   -7.4726 H   0  0  0  0  0  0  0  0  0  0  0  0
    7.1172   -2.9758   -6.9337 H   0  0  0  0  0  0  0  0  0  0  0  0
    6.0861   -3.8249   -8.0768 H   0  0  0  0  0  0  0  0  0  0  0  0
    5.9587    0.7166   -4.9322 H   0  0  0  0  0  0  0  0  0  0  0  0
    7.5380    0.0512   -4.3180 H   0  0  0  0  0  0  0  0  0  0  0  0
    7.3132    0.4312   -6.0183 H   0  0  0  0  0  0  0  0  0  0  0  0
    2.6543   -5.9545    0.1553 H   0  0  0  0  0  0  0  0  0  0  0  0
    0.3673   -1.6035   -0.4889 H   0  0  0  0  0  0  0  0  0  0  0  0
   -2.9209   -3.3368    3.4852 H   0  0  0  0  0  0  0  0  0  0  0  0
   -3.5419   -4.3301    5.9590 H   0  0  0  0  0  0  0  0  0  0  0  0
   -1.3053   -5.7869    6.6814 H   0  0  0  0  0  0  0  0  0  0  0  0
    4.3667   -2.1490   -1.3362 H   0  0  0  0  0  0  0  0  0  0  0  0
    4.1860   -5.0826   -4.4221 H   0  0  0  0  0  0  0  0  0  0  0  0
  1 11  1  0  0  0  0
  1 29  1  0  0  0  0
  1 30  1  0  0  0  0
  1 31  1  0  0  0  0
  2 16  1  0  0  0  0
  2 23  1  0  0  0  0
  2 32  1  0  0  0  0
  3  4  1  0  0  0  0
  3 26  1  0  0  0  0
  4 33  1  0  0  0  0
  4 34  1  0  0  0  0
  4 35  1  0  0  0  0
  5  6  1  0  0  0  0
  5 27  1  0  0  0  0
  6 36  1  0  0  0  0
  6 37  1  0  0  0  0
  6 38  1  0  0  0  0
  7  8  1  0  0  0  0
  7 28  1  0  0  0  0
  8 39  1  0  0  0  0
  8 40  1  0  0  0  0
  8 41  1  0  0  0  0
  9 10  2  0  0  0  0
  9 11  1  0  0  0  0
  9 12  1  0  0  0  0
 10 13  1  0  0  0  0
 10 14  1  0  0  0  0
 11 15  1  0  0  0  0
 12 16  2  0  0  0  0
 12 42  1  0  0  0  0
 13 15  2  0  0  0  0
 14 17  2  0  0  0  0
 14 43  1  0  0  0  0
 15 18  1  0  0  0  0
 16 17  1  0  0  0  0
 18 19  2  0  0  0  0
 18 20  1  0  0  0  0
 19 21  1  0  0  0  0
 19 44  1  0  0  0  0
 20 22  1  0  0  0  0
 21 22  2  0  0  0  0
 21 45  1  0  0  0  0
 22 46  1  0  0  0  0
 23 24  2  0  0  0  0
 23 25  1  0  0  0  0
 24 26  1  0  0  0  0
 24 47  1  0  0  0  0
 25 27  2  0  0  0  0
 25 48  1  0  0  0  0
 26 28  2  0  0  0  0
 27 28  1  0  0  0  0
M  END
>  <Mol_ID>
6507

>  <Formula>
C20H20N4O4

>  <MolWeight>
380.3972

>  <Cat>
E2817

>  <Name>
GRK5-IN-2

>  <Target>
GRK

>  <Form>
free base

>  <CAS>
1642839-27-7

>  <URL>
http://www.selleckchem.com/products/grk5-in-2.html

$$$$
