GS-444217
 OpenBabel08302521273D

 52 57  0  0  0  0  0  0  0  0999 V2000
    1.1364    0.0229   -0.0356 O   0  0  0  0  0  0  0  0  0  0  0  0
   -0.2733    4.8959    1.1077 N   0  0  0  0  0  0  0  0  0  0  0  0
    1.9418   -6.6600    2.5931 N   0  0  0  0  0  0  0  0  0  0  0  0
    2.3202   -4.5953    1.7941 N   0  0  0  0  0  0  0  0  0  0  0  0
   -1.1715    5.2163   -0.8520 N   0  0  0  0  0  0  0  0  0  0  0  0
   -2.0878    5.5844    0.1068 N   0  0  0  0  0  0  0  0  0  0  0  0
    3.1829    1.0747   -0.3754 N   0  0  0  0  0  0  0  0  0  0  0  0
    4.4316   -1.0903    0.6628 N   0  0  0  0  0  0  0  0  0  0  0  0
    0.7002    4.6580    2.1475 C   0  0  0  0  0  0  0  0  0  0  0  0
    0.4596    3.6157    3.2311 C   0  0  0  0  0  0  0  0  0  0  0  0
    0.5224    5.0643    3.5990 C   0  0  0  0  0  0  0  0  0  0  0  0
   -0.5863   -6.7614    2.3303 C   0  0  0  0  0  0  0  0  0  0  0  0
   -0.8029   -7.7423    3.4629 C   0  0  0  0  0  0  0  0  0  0  0  0
   -0.6567   -8.2521    2.0701 C   0  0  0  0  0  0  0  0  0  0  0  0
    0.7632   -6.0850    2.2137 C   0  0  0  0  0  0  0  0  0  0  0  0
   -0.0934    4.7345   -0.2517 C   0  0  0  0  0  0  0  0  0  0  0  0
   -1.5431    5.3493    1.2837 C   0  0  0  0  0  0  0  0  0  0  0  0
    0.9623   -4.8245    1.7088 C   0  0  0  0  0  0  0  0  0  0  0  0
    1.0159    4.0500   -0.9169 C   0  0  0  0  0  0  0  0  0  0  0  0
    2.8504   -5.7487    2.3328 C   0  0  0  0  0  0  0  0  0  0  0  0
    3.0243   -3.4174    1.4147 C   0  0  0  0  0  0  0  0  0  0  0  0
    1.6320    2.9367   -0.3243 C   0  0  0  0  0  0  0  0  0  0  0  0
    1.4165    4.4132   -2.2081 C   0  0  0  0  0  0  0  0  0  0  0  0
    2.6467    2.2311   -0.9745 C   0  0  0  0  0  0  0  0  0  0  0  0
    2.3407   -2.3023    0.9231 C   0  0  0  0  0  0  0  0  0  0  0  0
    2.4501    3.7212   -2.8537 C   0  0  0  0  0  0  0  0  0  0  0  0
    4.4167   -3.3510    1.5280 C   0  0  0  0  0  0  0  0  0  0  0  0
    3.0875    2.6491   -2.2223 C   0  0  0  0  0  0  0  0  0  0  0  0
    3.0771   -1.1744    0.5666 C   0  0  0  0  0  0  0  0  0  0  0  0
    2.3627    0.0336    0.0437 C   0  0  0  0  0  0  0  0  0  0  0  0
    5.0612   -2.1790    1.1471 C   0  0  0  0  0  0  0  0  0  0  0  0
    4.1490    0.8180   -0.5527 H   0  0  0  0  0  0  0  0  0  0  0  0
    1.7204    4.6750    1.7719 H   0  0  0  0  0  0  0  0  0  0  0  0
   -0.5039    3.1100    3.2486 H   0  0  0  0  0  0  0  0  0  0  0  0
    1.2893    2.9811    3.4973 H   0  0  0  0  0  0  0  0  0  0  0  0
    1.3997    5.4074    4.1356 H   0  0  0  0  0  0  0  0  0  0  0  0
   -0.3948    5.5341    3.9300 H   0  0  0  0  0  0  0  0  0  0  0  0
   -1.4378   -6.1638    2.0231 H   0  0  0  0  0  0  0  0  0  0  0  0
    0.0137   -7.9174    4.1549 H   0  0  0  0  0  0  0  0  0  0  0  0
   -1.7841   -7.7781    3.9187 H   0  0  0  0  0  0  0  0  0  0  0  0
   -1.5356   -8.6285    1.5627 H   0  0  0  0  0  0  0  0  0  0  0  0
    0.2582   -8.7785    1.8198 H   0  0  0  0  0  0  0  0  0  0  0  0
   -2.0052    5.5295    2.2398 H   0  0  0  0  0  0  0  0  0  0  0  0
    0.2616   -4.1117    1.3044 H   0  0  0  0  0  0  0  0  0  0  0  0
    3.9064   -5.8840    2.5320 H   0  0  0  0  0  0  0  0  0  0  0  0
    1.3168    2.5915    0.6550 H   0  0  0  0  0  0  0  0  0  0  0  0
    0.9068    5.2248   -2.7283 H   0  0  0  0  0  0  0  0  0  0  0  0
    1.2626   -2.2760    0.8078 H   0  0  0  0  0  0  0  0  0  0  0  0
    2.7260    3.9984   -3.8674 H   0  0  0  0  0  0  0  0  0  0  0  0
    5.0233   -4.1672    1.8927 H   0  0  0  0  0  0  0  0  0  0  0  0
    3.8504    2.0905   -2.7603 H   0  0  0  0  0  0  0  0  0  0  0  0
    6.1432   -2.0976    1.2275 H   0  0  0  0  0  0  0  0  0  0  0  0
  1 30  2  0  0  0  0
  2  9  1  0  0  0  0
  2 16  1  0  0  0  0
  2 17  1  0  0  0  0
  3 15  1  0  0  0  0
  3 20  2  0  0  0  0
  4 18  1  0  0  0  0
  4 20  1  0  0  0  0
  4 21  1  0  0  0  0
  5  6  1  0  0  0  0
  5 16  2  0  0  0  0
  6 17  2  0  0  0  0
  7 24  1  0  0  0  0
  7 30  1  0  0  0  0
  7 32  1  0  0  0  0
  8 29  2  0  0  0  0
  8 31  1  0  0  0  0
  9 10  1  0  0  0  0
  9 11  1  0  0  0  0
  9 33  1  0  0  0  0
 10 11  1  0  0  0  0
 10 34  1  0  0  0  0
 10 35  1  0  0  0  0
 11 36  1  0  0  0  0
 11 37  1  0  0  0  0
 12 13  1  0  0  0  0
 12 14  1  0  0  0  0
 12 15  1  0  0  0  0
 12 38  1  0  0  0  0
 13 14  1  0  0  0  0
 13 39  1  0  0  0  0
 13 40  1  0  0  0  0
 14 41  1  0  0  0  0
 14 42  1  0  0  0  0
 15 18  2  0  0  0  0
 16 19  1  0  0  0  0
 17 43  1  0  0  0  0
 18 44  1  0  0  0  0
 19 22  2  0  0  0  0
 19 23  1  0  0  0  0
 20 45  1  0  0  0  0
 21 25  2  0  0  0  0
 21 27  1  0  0  0  0
 22 24  1  0  0  0  0
 22 46  1  0  0  0  0
 23 26  2  0  0  0  0
 23 47  1  0  0  0  0
 24 28  2  0  0  0  0
 25 29  1  0  0  0  0
 25 48  1  0  0  0  0
 26 28  1  0  0  0  0
 26 49  1  0  0  0  0
 27 31  2  0  0  0  0
 27 50  1  0  0  0  0
 28 51  1  0  0  0  0
 29 30  1  0  0  0  0
 31 52  1  0  0  0  0
M  END
>  <Mol_ID>
5334

>  <Formula>
C23H21N7O

>  <MolWeight>
411.45914

>  <Cat>
S0067

>  <Name>
GS-444217

>  <Synonyms>
ASK1-IN-1

>  <Target>
ASK

>  <Form>
Free Base

>  <CAS>
1262041-49-5

>  <URL>
https://www.selleckchem.com/products/gs-444217.html

$$$$
