GS-9620.cdx
 OpenBabel08302521403D

 60 63  0  0  0  0  0  0  0  0999 V2000
   -0.3520   -0.6778   -0.3986 C   0  0  0  0  0  0  0  0  0  0  0  0
    0.8478   -1.2931   -0.0160 C   0  0  0  0  0  0  0  0  0  0  0  0
    1.9108   -0.4867    0.4184 C   0  0  0  0  0  0  0  0  0  0  0  0
    1.7953    0.9143    0.4670 C   0  0  0  0  0  0  0  0  0  0  0  0
    0.5738    1.4975    0.1015 C   0  0  0  0  0  0  0  0  0  0  0  0
   -0.4917    0.7072   -0.3283 C   0  0  0  0  0  0  0  0  0  0  0  0
    2.9921    1.7741    0.8198 C   0  0  0  0  0  0  0  0  0  0  0  0
    3.2359    2.1225    2.2217 N   0  0  0  0  0  0  0  0  0  0  0  0
    0.9883   -2.8017   -0.0222 C   0  0  0  0  0  0  0  0  0  0  0  0
    0.5100   -3.3279    1.2435 N   0  0  0  0  0  0  0  0  0  0  0  0
   -0.9035   -3.6850    1.3830 C   0  0  0  0  0  0  0  0  0  0  0  0
   -1.3835   -3.5680    2.8296 C   0  0  0  0  0  0  0  0  0  0  0  0
   -0.4770   -3.9892    3.7731 N   0  0  0  0  0  0  0  0  0  0  0  0
    0.8733   -4.2262    3.4422 C   0  0  0  0  0  0  0  0  0  0  0  0
    1.3757   -3.8693    2.1881 C   0  0  0  0  0  0  0  0  0  0  0  0
   -2.5241   -3.2380    3.1401 O   0  0  0  0  0  0  0  0  0  0  0  0
    1.7685   -4.7671    4.3541 C   0  0  0  0  0  0  0  0  0  0  0  0
    3.0653   -4.9499    4.0732 N   0  0  0  0  0  0  0  0  0  0  0  0
    3.4648   -4.5349    2.8577 C   0  0  0  0  0  0  0  0  0  0  0  0
    2.6828   -3.9992    1.9098 N   0  0  0  0  0  0  0  0  0  0  0  0
    1.3348   -5.1909    5.6199 N   0  0  0  0  0  0  0  0  0  0  0  0
    4.8077   -4.5367    2.5403 O   0  0  0  0  0  0  0  0  0  0  0  0
    5.5780   -5.4804    3.2791 C   0  0  0  0  0  0  0  0  0  0  0  0
    7.0527   -5.3204    2.8945 C   0  0  0  0  0  0  0  0  0  0  0  0
    7.6193   -3.9490    3.2811 C   0  0  0  0  0  0  0  0  0  0  0  0
    9.0926   -3.8289    2.9138 C   0  0  0  0  0  0  0  0  0  0  0  0
    3.4412    0.9952    3.1293 C   0  0  0  0  0  0  0  0  0  0  0  0
    2.1166    0.8104    3.8420 C   0  0  0  0  0  0  0  0  0  0  0  0
    1.5636    2.2191    3.9473 C   0  0  0  0  0  0  0  0  0  0  0  0
    2.2400    3.0050    2.8302 C   0  0  0  0  0  0  0  0  0  0  0  0
   -1.1907   -1.2745   -0.7484 H   0  0  0  0  0  0  0  0  0  0  0  0
    2.8448   -0.9615    0.7189 H   0  0  0  0  0  0  0  0  0  0  0  0
    0.4505    2.5778    0.1310 H   0  0  0  0  0  0  0  0  0  0  0  0
   -1.4306    1.1722   -0.6190 H   0  0  0  0  0  0  0  0  0  0  0  0
    3.8911    1.2791    0.4287 H   0  0  0  0  0  0  0  0  0  0  0  0
    2.9342    2.7032    0.2351 H   0  0  0  0  0  0  0  0  0  0  0  0
    0.4036   -3.2172   -0.8537 H   0  0  0  0  0  0  0  0  0  0  0  0
    2.0280   -3.0732   -0.2434 H   0  0  0  0  0  0  0  0  0  0  0  0
   -1.0564   -4.7264    1.0692 H   0  0  0  0  0  0  0  0  0  0  0  0
   -1.5400   -3.0528    0.7577 H   0  0  0  0  0  0  0  0  0  0  0  0
   -0.7928   -4.0888    4.7258 H   0  0  0  0  0  0  0  0  0  0  0  0
    2.1450   -5.5438    6.1209 H   0  0  0  0  0  0  0  0  0  0  0  0
    0.8862   -4.4398    6.1317 H   0  0  0  0  0  0  0  0  0  0  0  0
    5.4733   -5.3359    4.3611 H   0  0  0  0  0  0  0  0  0  0  0  0
    5.2540   -6.4948    3.0164 H   0  0  0  0  0  0  0  0  0  0  0  0
    7.6366   -6.1067    3.3870 H   0  0  0  0  0  0  0  0  0  0  0  0
    7.1631   -5.4543    1.8117 H   0  0  0  0  0  0  0  0  0  0  0  0
    7.0641   -3.1499    2.7764 H   0  0  0  0  0  0  0  0  0  0  0  0
    7.5081   -3.7924    4.3590 H   0  0  0  0  0  0  0  0  0  0  0  0
    9.2327   -3.8761    1.8286 H   0  0  0  0  0  0  0  0  0  0  0  0
    9.4951   -2.8731    3.2659 H   0  0  0  0  0  0  0  0  0  0  0  0
    9.6799   -4.6328    3.3699 H   0  0  0  0  0  0  0  0  0  0  0  0
    4.2076    1.2842    3.8598 H   0  0  0  0  0  0  0  0  0  0  0  0
    3.8017    0.0840    2.6456 H   0  0  0  0  0  0  0  0  0  0  0  0
    1.4373    0.1843    3.2548 H   0  0  0  0  0  0  0  0  0  0  0  0
    2.2371    0.3425    4.8237 H   0  0  0  0  0  0  0  0  0  0  0  0
    0.4737    2.2265    3.8531 H   0  0  0  0  0  0  0  0  0  0  0  0
    1.8227    2.6526    4.9207 H   0  0  0  0  0  0  0  0  0  0  0  0
    1.5088    3.4078    2.1222 H   0  0  0  0  0  0  0  0  0  0  0  0
    2.7546    3.8732    3.2598 H   0  0  0  0  0  0  0  0  0  0  0  0
  1  2  2  0  0  0  0
  1 31  1  0  0  0  0
  2  3  1  0  0  0  0
  2  9  1  0  0  0  0
  3  4  2  0  0  0  0
  3 32  1  0  0  0  0
  4  5  1  0  0  0  0
  4  7  1  0  0  0  0
  5  6  2  0  0  0  0
  5 33  1  0  0  0  0
  6  1  1  0  0  0  0
  6 34  1  0  0  0  0
  7  8  1  0  0  0  0
  7 35  1  0  0  0  0
  7 36  1  0  0  0  0
  8 27  1  0  0  0  0
  9 10  1  0  0  0  0
  9 37  1  0  0  0  0
  9 38  1  0  0  0  0
 10 11  1  0  0  0  0
 11 12  1  0  0  0  0
 11 39  1  0  0  0  0
 11 40  1  0  0  0  0
 12 13  1  0  0  0  0
 12 16  2  0  0  0  0
 13 14  1  0  0  0  0
 13 41  1  0  0  0  0
 14 15  2  0  0  0  0
 14 17  1  0  0  0  0
 15 10  1  0  0  0  0
 17 18  2  0  0  0  0
 17 21  1  0  0  0  0
 18 19  1  0  0  0  0
 19 20  2  0  0  0  0
 19 22  1  0  0  0  0
 20 15  1  0  0  0  0
 21 42  1  0  0  0  0
 21 43  1  0  0  0  0
 22 23  1  0  0  0  0
 23 24  1  0  0  0  0
 23 44  1  0  0  0  0
 23 45  1  0  0  0  0
 24 25  1  0  0  0  0
 24 46  1  0  0  0  0
 24 47  1  0  0  0  0
 25 26  1  0  0  0  0
 25 48  1  0  0  0  0
 25 49  1  0  0  0  0
 26 50  1  0  0  0  0
 26 51  1  0  0  0  0
 26 52  1  0  0  0  0
 27 28  1  0  0  0  0
 27 53  1  0  0  0  0
 27 54  1  0  0  0  0
 28 29  1  0  0  0  0
 28 55  1  0  0  0  0
 28 56  1  0  0  0  0
 29 30  1  0  0  0  0
 29 57  1  0  0  0  0
 29 58  1  0  0  0  0
 30  8  1  0  0  0  0
 30 59  1  0  0  0  0
 30 60  1  0  0  0  0
M  END
>  <Mol_ID>
8243

>  <Formula>
C22H30N6O2

>  <MolWeight>
410.5126

>  <Cat>
S7221

>  <Name>
Vesatolimod (GS-9620)

>  <Target>
TLR

>  <Form>
Free Base

>  <CAS>
1228585-88-3

>  <URL>
http://selleckchem.com/products/gs-9620.html

$$$$
