GSK'872 (GSK2399872A).cdx
 OpenBabel08302520433D

 43 46  0  0  0  0  0  0  0  0999 V2000
    2.4870   -0.7066    0.0148 C   0  0  0  0  0  0  0  0  0  0  0  0
    2.4651    0.6808    0.0600 C   0  0  0  0  0  0  0  0  0  0  0  0
    1.2343    1.3381    0.0592 C   0  0  0  0  0  0  0  0  0  0  0  0
    0.0275    0.6511    0.0255 C   0  0  0  0  0  0  0  0  0  0  0  0
    0.0347   -0.7648   -0.0406 C   0  0  0  0  0  0  0  0  0  0  0  0
    1.2894   -1.4267   -0.0724 C   0  0  0  0  0  0  0  0  0  0  0  0
   -1.0962    1.3793    0.0615 N   0  0  0  0  0  0  0  0  0  0  0  0
   -2.2745    0.7307    0.0304 C   0  0  0  0  0  0  0  0  0  0  0  0
   -2.3893   -0.6416   -0.0274 C   0  0  0  0  0  0  0  0  0  0  0  0
   -1.2284   -1.4217   -0.0536 C   0  0  0  0  0  0  0  0  0  0  0  0
    4.0418   -1.5716   -0.0465 S   0  0  0  0  0  0  0  0  0  0  0  0
    4.4941   -1.8827    1.6661 C   0  0  0  0  0  0  0  0  0  0  0  0
    3.4527   -2.7160    2.4069 C   0  0  0  0  0  0  0  0  0  0  0  0
    5.8518   -2.5847    1.7124 C   0  0  0  0  0  0  0  0  0  0  0  0
    3.7845   -2.8483   -0.6987 O   0  0  0  0  0  0  0  0  0  0  0  0
    5.0068   -0.6435   -0.6098 O   0  0  0  0  0  0  0  0  0  0  0  0
   -1.3444   -2.8345   -0.1285 N   0  0  0  0  0  0  0  0  0  0  0  0
   -2.3196   -3.6736    0.4593 C   0  0  0  0  0  0  0  0  0  0  0  0
   -2.6198   -4.8964   -0.1617 C   0  0  0  0  0  0  0  0  0  0  0  0
   -3.5585   -5.7802    0.4127 C   0  0  0  0  0  0  0  0  0  0  0  0
   -4.1747   -5.4174    1.6124 C   0  0  0  0  0  0  0  0  0  0  0  0
   -3.8871   -4.2046    2.2534 C   0  0  0  0  0  0  0  0  0  0  0  0
   -2.9538   -3.3484    1.6608 C   0  0  0  0  0  0  0  0  0  0  0  0
   -3.9402   -7.0100   -0.0999 N   0  0  0  0  0  0  0  0  0  0  0  0
   -4.8250   -7.5629    0.6980 C   0  0  0  0  0  0  0  0  0  0  0  0
   -5.2556   -6.6703    2.0936 S   0  0  0  0  0  0  0  0  0  0  0  0
    3.3853    1.2610    0.0770 H   0  0  0  0  0  0  0  0  0  0  0  0
    1.2132    2.4265    0.0830 H   0  0  0  0  0  0  0  0  0  0  0  0
    1.3455   -2.5071   -0.1661 H   0  0  0  0  0  0  0  0  0  0  0  0
   -3.1561    1.3648    0.0514 H   0  0  0  0  0  0  0  0  0  0  0  0
   -3.3750   -1.0927   -0.0685 H   0  0  0  0  0  0  0  0  0  0  0  0
    4.5879   -0.9029    2.1463 H   0  0  0  0  0  0  0  0  0  0  0  0
    3.2250   -3.6460    1.8763 H   0  0  0  0  0  0  0  0  0  0  0  0
    3.8089   -2.9804    3.4090 H   0  0  0  0  0  0  0  0  0  0  0  0
    2.5179   -2.1621    2.5322 H   0  0  0  0  0  0  0  0  0  0  0  0
    6.6257   -1.9742    1.2354 H   0  0  0  0  0  0  0  0  0  0  0  0
    6.1629   -2.7714    2.7452 H   0  0  0  0  0  0  0  0  0  0  0  0
    5.8204   -3.5467    1.1888 H   0  0  0  0  0  0  0  0  0  0  0  0
   -0.4636   -3.3295   -0.2045 H   0  0  0  0  0  0  0  0  0  0  0  0
   -2.1476   -5.1748   -1.0990 H   0  0  0  0  0  0  0  0  0  0  0  0
   -4.3656   -3.9391    3.1918 H   0  0  0  0  0  0  0  0  0  0  0  0
   -2.7066   -2.4219    2.1745 H   0  0  0  0  0  0  0  0  0  0  0  0
   -5.2619   -8.5308    0.4934 H   0  0  0  0  0  0  0  0  0  0  0  0
  1  2  2  0  0  0  0
  1 11  1  0  0  0  0
  2  3  1  0  0  0  0
  2 27  1  0  0  0  0
  3  4  2  0  0  0  0
  3 28  1  0  0  0  0
  4  5  1  0  0  0  0
  4  7  1  0  0  0  0
  5  6  2  0  0  0  0
  6  1  1  0  0  0  0
  6 29  1  0  0  0  0
  7  8  2  0  0  0  0
  8  9  1  0  0  0  0
  8 30  1  0  0  0  0
  9 10  2  0  0  0  0
  9 31  1  0  0  0  0
 10  5  1  0  0  0  0
 10 17  1  0  0  0  0
 11 12  1  0  0  0  0
 11 15  2  0  0  0  0
 11 16  2  0  0  0  0
 12 13  1  0  0  0  0
 12 14  1  0  0  0  0
 12 32  1  0  0  0  0
 13 33  1  0  0  0  0
 13 34  1  0  0  0  0
 13 35  1  0  0  0  0
 14 36  1  0  0  0  0
 14 37  1  0  0  0  0
 14 38  1  0  0  0  0
 17 18  1  0  0  0  0
 17 39  1  0  0  0  0
 18 19  2  0  0  0  0
 19 20  1  0  0  0  0
 19 40  1  0  0  0  0
 20 21  2  0  0  0  0
 20 24  1  0  0  0  0
 21 22  1  0  0  0  0
 22 23  2  0  0  0  0
 22 41  1  0  0  0  0
 23 18  1  0  0  0  0
 23 42  1  0  0  0  0
 24 25  2  0  0  0  0
 25 26  1  0  0  0  0
 25 43  1  0  0  0  0
 26 21  1  0  0  0  0
M  END
>  <Mol_ID>
4145

>  <Formula>
C19H17N3O2S2

>  <MolWeight>
383.48718

>  <Cat>
S8465

>  <Name>
GSK'872 (GSK2399872A)

>  <Synonyms>
N/A

>  <Target>
RIP kinase

>  <Form>
free base

>  <CAS>
1346546-69-7

>  <URL>
http://selleckchem.com/products/GSK872-GSK2399872A.html

$$$$
