GSK-7975A
 OpenBabel08302521383D

 40 42  0  0  0  0  0  0  0  0999 V2000
    0.8287    0.1094   -0.0434 C   0  0  0  0  0  0  0  0  0  0  0  0
    1.1646    2.2775    2.0582 C   0  0  0  0  0  0  0  0  0  0  0  0
    2.1282    2.0256    1.1323 F   0  0  0  0  0  0  0  0  0  0  0  0
    0.8459    3.5929    1.9101 F   0  0  0  0  0  0  0  0  0  0  0  0
    1.7915    2.1831    3.2656 F   0  0  0  0  0  0  0  0  0  0  0  0
   -3.1964    1.0460    3.8881 O   0  0  0  0  0  0  0  0  0  0  0  0
   -0.6556   -2.2074   -3.9636 N   0  0  0  0  0  0  0  0  0  0  0  0
   -1.5048   -1.3286   -4.6152 C   0  0  0  0  0  0  0  0  0  0  0  0
   -1.8094   -0.2111   -4.2196 O   0  0  0  0  0  0  0  0  0  0  0  0
   -1.1610   -3.9863   -5.7255 F   0  0  0  0  0  0  0  0  0  0  0  0
   -3.1529    0.3220   -6.2614 F   0  0  0  0  0  0  0  0  0  0  0  0
   -0.2252    0.3371    1.0302 C   0  0  0  0  0  0  0  0  0  0  0  0
   -0.0537    1.3757    1.9867 C   0  0  0  0  0  0  0  0  0  0  0  0
   -1.4017   -0.4365    1.0934 C   0  0  0  0  0  0  0  0  0  0  0  0
   -1.0619    1.6111    2.9486 C   0  0  0  0  0  0  0  0  0  0  0  0
   -2.3796   -0.1959    2.0623 C   0  0  0  0  0  0  0  0  0  0  0  0
   -2.2084    0.8298    2.9757 C   0  0  0  0  0  0  0  0  0  0  0  0
    0.5937   -1.0046   -0.9594 N   0  0  0  0  0  0  0  0  0  0  0  0
   -0.1268   -0.8085   -2.0726 N   0  0  0  0  0  0  0  0  0  0  0  0
    1.1494   -2.2503   -0.8967 C   0  0  0  0  0  0  0  0  0  0  0  0
   -0.0416   -1.9507   -2.7519 C   0  0  0  0  0  0  0  0  0  0  0  0
    0.7727   -2.8823   -2.0598 C   0  0  0  0  0  0  0  0  0  0  0  0
   -2.0950   -1.7996   -5.9029 C   0  0  0  0  0  0  0  0  0  0  0  0
   -1.8947   -3.0888   -6.4034 C   0  0  0  0  0  0  0  0  0  0  0  0
   -2.8904   -0.9309   -6.6614 C   0  0  0  0  0  0  0  0  0  0  0  0
   -2.4487   -3.4975   -7.6205 C   0  0  0  0  0  0  0  0  0  0  0  0
   -3.4487   -1.3283   -7.8787 C   0  0  0  0  0  0  0  0  0  0  0  0
   -3.2242   -2.6128   -8.3643 C   0  0  0  0  0  0  0  0  0  0  0  0
    1.7946   -0.0986    0.4298 H   0  0  0  0  0  0  0  0  0  0  0  0
    0.9155    1.0063   -0.6688 H   0  0  0  0  0  0  0  0  0  0  0  0
   -2.9938    1.8520    4.3908 H   0  0  0  0  0  0  0  0  0  0  0  0
   -0.4773   -3.1199   -4.3587 H   0  0  0  0  0  0  0  0  0  0  0  0
   -1.5946   -1.2320    0.3746 H   0  0  0  0  0  0  0  0  0  0  0  0
   -0.9314    2.4158    3.6700 H   0  0  0  0  0  0  0  0  0  0  0  0
   -3.2827   -0.8004    2.0874 H   0  0  0  0  0  0  0  0  0  0  0  0
    1.7592   -2.5645   -0.0615 H   0  0  0  0  0  0  0  0  0  0  0  0
    1.0429   -3.8838   -2.3607 H   0  0  0  0  0  0  0  0  0  0  0  0
   -2.2695   -4.5071   -7.9790 H   0  0  0  0  0  0  0  0  0  0  0  0
   -4.0562   -0.6203   -8.4365 H   0  0  0  0  0  0  0  0  0  0  0  0
   -3.6532   -2.9192   -9.3153 H   0  0  0  0  0  0  0  0  0  0  0  0
  1 12  1  0  0  0  0
  1 18  1  0  0  0  0
  1 29  1  0  0  0  0
  1 30  1  0  0  0  0
  2  3  1  0  0  0  0
  2  4  1  0  0  0  0
  2  5  1  0  0  0  0
  2 13  1  0  0  0  0
  6 17  1  0  0  0  0
  6 31  1  0  0  0  0
  7  8  1  0  0  0  0
  7 21  1  0  0  0  0
  7 32  1  0  0  0  0
  8  9  2  0  0  0  0
  8 23  1  0  0  0  0
 10 24  1  0  0  0  0
 11 25  1  0  0  0  0
 12 13  2  0  0  0  0
 12 14  1  0  0  0  0
 13 15  1  0  0  0  0
 14 16  2  0  0  0  0
 14 33  1  0  0  0  0
 15 17  2  0  0  0  0
 15 34  1  0  0  0  0
 16 17  1  0  0  0  0
 16 35  1  0  0  0  0
 18 19  1  0  0  0  0
 18 20  1  0  0  0  0
 19 21  2  0  0  0  0
 20 22  2  0  0  0  0
 20 36  1  0  0  0  0
 21 22  1  0  0  0  0
 22 37  1  0  0  0  0
 23 24  2  0  0  0  0
 23 25  1  0  0  0  0
 24 26  1  0  0  0  0
 25 27  2  0  0  0  0
 26 28  2  0  0  0  0
 26 38  1  0  0  0  0
 27 28  1  0  0  0  0
 27 39  1  0  0  0  0
 28 40  1  0  0  0  0
M  END
>  <Mol_ID>
7633

>  <Formula>
C18H12F5N3O2

>  <MolWeight>
397.298796

>  <Cat>
E2984

>  <Name>
GSK-7975A

>  <Target>
Calcium Channel

>  <Form>
free base

>  <CAS>
1253186-56-9

>  <URL>
https://www.selleckchem.com/products/gsk-7975a.html

$$$$
