GSK-1520489A
 OpenBabel08302521353D

 53 55  0  0  0  0  0  0  0  0999 V2000
    1.6859   -0.5474   -0.9904 C   0  0  0  0  0  0  0  0  0  0  0  0
    0.6380    0.0433   -1.8800 C   0  0  0  0  0  0  0  0  0  0  0  0
    0.6632    1.4175   -2.2035 C   0  0  0  0  0  0  0  0  0  0  0  0
   -0.3575    1.9193   -3.0364 C   0  0  0  0  0  0  0  0  0  0  0  0
   -1.3302    1.0878   -3.5887 C   0  0  0  0  0  0  0  0  0  0  0  0
   -1.3208   -0.2666   -3.2991 C   0  0  0  0  0  0  0  0  0  0  0  0
   -0.3429   -0.7906   -2.4512 C   0  0  0  0  0  0  0  0  0  0  0  0
    2.7912   -0.0194   -0.9084 O   0  0  0  0  0  0  0  0  0  0  0  0
    1.3246   -1.6732   -0.2763 N   0  0  0  0  0  0  0  0  0  0  0  0
    1.5909    2.3235   -1.6211 N   0  0  0  0  0  0  0  0  0  0  0  0
    2.5547    4.6238   -4.2086 C   0  0  0  0  0  0  0  0  0  0  0  0
    2.0667    3.5400   -3.6021 N   0  0  0  0  0  0  0  0  0  0  0  0
    2.0749    3.4970   -2.2537 C   0  0  0  0  0  0  0  0  0  0  0  0
    2.5331    4.5564   -1.4886 C   0  0  0  0  0  0  0  0  0  0  0  0
    2.9632    5.6501   -2.2063 C   0  0  0  0  0  0  0  0  0  0  0  0
    3.0081    5.6939   -3.5422 N   0  0  0  0  0  0  0  0  0  0  0  0
    2.5483    4.6367   -5.5957 N   0  0  0  0  0  0  0  0  0  0  0  0
    3.4039    5.3518   -6.4384 C   0  0  0  0  0  0  0  0  0  0  0  0
    4.7089    5.6724   -6.0334 C   0  0  0  0  0  0  0  0  0  0  0  0
    5.5375    6.5107   -6.7877 C   0  0  0  0  0  0  0  0  0  0  0  0
    5.0202    7.0648   -7.9613 C   0  0  0  0  0  0  0  0  0  0  0  0
    3.7342    6.7308   -8.3971 C   0  0  0  0  0  0  0  0  0  0  0  0
    2.9361    5.8690   -7.6461 C   0  0  0  0  0  0  0  0  0  0  0  0
    6.9147    6.8353   -6.2742 C   0  0  0  0  0  0  0  0  0  0  0  0
    8.1932    6.2795   -7.3978 S   0  0  0  0  0  0  0  0  0  0  0  0
    8.0627    6.9830   -8.6612 O   0  0  0  0  0  0  0  0  0  0  0  0
    9.4521    6.3350   -6.6741 O   0  0  0  0  0  0  0  0  0  0  0  0
    7.8403    4.5590   -7.6865 C   0  0  0  0  0  0  0  0  0  0  0  0
    2.4876    4.6351    0.0008 C   0  0  0  0  0  0  0  0  0  0  0  0
    2.2507   -2.4009    0.5580 C   0  0  0  0  0  0  0  0  0  0  0  0
   -0.3944    2.9809   -3.2726 H   0  0  0  0  0  0  0  0  0  0  0  0
   -2.0826    1.5111   -4.2498 H   0  0  0  0  0  0  0  0  0  0  0  0
   -2.0728   -0.9191   -3.7370 H   0  0  0  0  0  0  0  0  0  0  0  0
   -0.3449   -1.8622   -2.2711 H   0  0  0  0  0  0  0  0  0  0  0  0
    0.3579   -1.9660   -0.2609 H   0  0  0  0  0  0  0  0  0  0  0  0
    2.3741    1.8208   -1.1921 H   0  0  0  0  0  0  0  0  0  0  0  0
    3.2827    6.5649   -1.7154 H   0  0  0  0  0  0  0  0  0  0  0  0
    1.9542    3.9260   -5.9938 H   0  0  0  0  0  0  0  0  0  0  0  0
    5.0793    5.2629   -5.0934 H   0  0  0  0  0  0  0  0  0  0  0  0
    5.6055    7.7683   -8.5498 H   0  0  0  0  0  0  0  0  0  0  0  0
    3.3442    7.1720   -9.3114 H   0  0  0  0  0  0  0  0  0  0  0  0
    1.9221    5.6558   -7.9772 H   0  0  0  0  0  0  0  0  0  0  0  0
    7.0313    7.9130   -6.1250 H   0  0  0  0  0  0  0  0  0  0  0  0
    7.1111    6.3376   -5.3179 H   0  0  0  0  0  0  0  0  0  0  0  0
    7.8852    4.0263   -6.7349 H   0  0  0  0  0  0  0  0  0  0  0  0
    6.8587    4.4534   -8.1490 H   0  0  0  0  0  0  0  0  0  0  0  0
    8.6041    4.1716   -8.3649 H   0  0  0  0  0  0  0  0  0  0  0  0
    3.4663    4.9416    0.3882 H   0  0  0  0  0  0  0  0  0  0  0  0
    1.7442    5.3798    0.3080 H   0  0  0  0  0  0  0  0  0  0  0  0
    2.2307    3.6846    0.4703 H   0  0  0  0  0  0  0  0  0  0  0  0
    1.8298   -2.4618    1.5647 H   0  0  0  0  0  0  0  0  0  0  0  0
    2.3476   -3.4114    0.1520 H   0  0  0  0  0  0  0  0  0  0  0  0
    3.2325   -1.9241    0.5932 H   0  0  0  0  0  0  0  0  0  0  0  0
  1  2  1  0  0  0  0
  1  8  2  0  0  0  0
  1  9  1  0  0  0  0
  2  3  2  0  0  0  0
  2  7  1  0  0  0  0
  3  4  1  0  0  0  0
  3 10  1  0  0  0  0
  4  5  2  0  0  0  0
  4 31  1  0  0  0  0
  5  6  1  0  0  0  0
  5 32  1  0  0  0  0
  6  7  2  0  0  0  0
  6 33  1  0  0  0  0
  7 34  1  0  0  0  0
  9 30  1  0  0  0  0
  9 35  1  0  0  0  0
 10 13  1  0  0  0  0
 10 36  1  0  0  0  0
 11 12  2  0  0  0  0
 11 16  1  0  0  0  0
 11 17  1  0  0  0  0
 12 13  1  0  0  0  0
 13 14  2  0  0  0  0
 14 15  1  0  0  0  0
 14 29  1  0  0  0  0
 15 16  2  0  0  0  0
 15 37  1  0  0  0  0
 17 18  1  0  0  0  0
 17 38  1  0  0  0  0
 18 19  2  0  0  0  0
 18 23  1  0  0  0  0
 19 20  1  0  0  0  0
 19 39  1  0  0  0  0
 20 21  2  0  0  0  0
 20 24  1  0  0  0  0
 21 22  1  0  0  0  0
 21 40  1  0  0  0  0
 22 23  2  0  0  0  0
 22 41  1  0  0  0  0
 23 42  1  0  0  0  0
 24 25  1  0  0  0  0
 24 43  1  0  0  0  0
 24 44  1  0  0  0  0
 25 26  2  0  0  0  0
 25 27  2  0  0  0  0
 25 28  1  0  0  0  0
 28 45  1  0  0  0  0
 28 46  1  0  0  0  0
 28 47  1  0  0  0  0
 29 48  1  0  0  0  0
 29 49  1  0  0  0  0
 29 50  1  0  0  0  0
 30 51  1  0  0  0  0
 30 52  1  0  0  0  0
 30 53  1  0  0  0  0
M  END
>  <Mol_ID>
6810

>  <Formula>
C21H23N5O3S

>  <MolWeight>
425.50402

>  <Cat>
E0636

>  <Name>
GSK-1520489A

>  <Synonyms>
EX-A5430

>  <Target>
Others

>  <Form>
Free base

>  <CAS>
1042433-41-9

>  <URL>
http://www.selleckchem.com/products/gsk-1520489a.html

$$$$
