GSK-LSD1  dihydrochloride.cdx
 OpenBabel08302519593D

 36 38  0  0  0  0  0  0  0  0999 V2000
   -3.4877   -1.6985   -2.6456 C   0  0  0  0  0  0  0  0  0  0  0  0
   -4.8772   -1.9758   -2.2886 N   0  0  0  0  0  0  0  0  0  0  0  0
   -4.9429   -2.5950   -0.9689 C   0  0  0  0  0  0  0  0  0  0  0  0
   -4.4303   -1.6356    0.0990 C   0  0  0  0  0  0  0  0  0  0  0  0
   -3.0221   -1.1026   -0.2055 C   0  0  0  0  0  0  0  0  0  0  0  0
   -2.8659   -0.6942   -1.6797 C   0  0  0  0  0  0  0  0  0  0  0  0
   -2.7110    0.0785    0.6225 N   0  0  0  0  0  0  0  0  0  0  0  0
   -2.5357   -0.2010    2.0538 C   0  0  2  0  0  0  0  0  0  0  0  0
   -2.1899    0.9270    2.9863 C   0  0  0  0  0  0  0  0  0  0  0  0
   -1.1424   -0.0906    2.6239 C   0  0  1  0  0  0  0  0  0  0  0  0
   -0.6319   -1.1022    3.6164 C   0  0  0  0  0  0  0  0  0  0  0  0
   -0.8318   -2.4793    3.4283 C   0  0  0  0  0  0  0  0  0  0  0  0
   -0.2245   -3.4268    4.2520 C   0  0  0  0  0  0  0  0  0  0  0  0
    0.5957   -3.0102    5.2968 C   0  0  0  0  0  0  0  0  0  0  0  0
    0.7850   -1.6500    5.5375 C   0  0  0  0  0  0  0  0  0  0  0  0
    0.1676   -0.7076    4.7023 C   0  0  0  0  0  0  0  0  0  0  0  0
   -3.4612   -1.2806   -3.6582 H   0  0  0  0  0  0  0  0  0  0  0  0
   -2.9069   -2.6284   -2.6704 H   0  0  0  0  0  0  0  0  0  0  0  0
   -5.2904   -2.6003   -2.9805 H   0  0  0  0  0  0  0  0  0  0  0  0
   -4.3765   -3.5333   -0.9545 H   0  0  0  0  0  0  0  0  0  0  0  0
   -5.9852   -2.8476   -0.7446 H   0  0  0  0  0  0  0  0  0  0  0  0
   -4.4293   -2.1617    1.0620 H   0  0  0  0  0  0  0  0  0  0  0  0
   -5.1370   -0.8021    0.1955 H   0  0  0  0  0  0  0  0  0  0  0  0
   -2.2882   -1.8941    0.0010 H   0  0  0  0  0  0  0  0  0  0  0  0
   -3.3261    0.2876   -1.8538 H   0  0  0  0  0  0  0  0  0  0  0  0
   -1.7996   -0.5834   -1.9180 H   0  0  0  0  0  0  0  0  0  0  0  0
   -3.4336    0.7849    0.4765 H   0  0  0  0  0  0  0  0  0  0  0  0
   -3.2290   -0.9195    2.4871 H   0  0  0  0  0  0  0  0  0  0  0  0
   -2.0857    1.9222    2.5750 H   0  0  0  0  0  0  0  0  0  0  0  0
   -2.6275    0.9050    3.9776 H   0  0  0  0  0  0  0  0  0  0  0  0
   -0.3786    0.2641    1.9322 H   0  0  0  0  0  0  0  0  0  0  0  0
   -1.4478   -2.8223    2.5966 H   0  0  0  0  0  0  0  0  0  0  0  0
   -0.3750   -4.4862    4.0629 H   0  0  0  0  0  0  0  0  0  0  0  0
    1.1037   -3.7477    5.9124 H   0  0  0  0  0  0  0  0  0  0  0  0
    1.4267   -1.3190    6.3495 H   0  0  0  0  0  0  0  0  0  0  0  0
    0.3461    0.3487    4.8819 H   0  0  0  0  0  0  0  0  0  0  0  0
  1  2  1  0  0  0  0
  1 17  1  0  0  0  0
  1 18  1  0  0  0  0
  2  3  1  0  0  0  0
  2 19  1  0  0  0  0
  3  4  1  0  0  0  0
  3 20  1  0  0  0  0
  3 21  1  0  0  0  0
  4  5  1  0  0  0  0
  4 22  1  0  0  0  0
  4 23  1  0  0  0  0
  5  6  1  0  0  0  0
  5  7  1  0  0  0  0
  5 24  1  0  0  0  0
  6  1  1  0  0  0  0
  6 25  1  0  0  0  0
  6 26  1  0  0  0  0
  7 27  1  0  0  0  0
  8  7  1  0  0  0  0
  8  9  1  0  0  0  0
  8 28  1  1  0  0  0
  9 10  1  0  0  0  0
  9 29  1  0  0  0  0
  9 30  1  0  0  0  0
 10  8  1  0  0  0  0
 10 11  1  0  0  0  0
 10 31  1  6  0  0  0
 11 12  2  0  0  0  0
 12 13  1  0  0  0  0
 12 32  1  0  0  0  0
 13 14  2  0  0  0  0
 13 33  1  0  0  0  0
 14 15  1  0  0  0  0
 14 34  1  0  0  0  0
 15 16  2  0  0  0  0
 15 35  1  0  0  0  0
 16 11  1  0  0  0  0
 16 36  1  0  0  0  0
M  END
>  <Mol_ID>
2554

>  <Formula>
C14H22Cl2N2

>  <MolWeight>
289.24388

>  <Cat>
S7574

>  <Name>
GSK-LSD1 2HCl

>  <Synonyms>
N/A

>  <Target>
Histone Demethylase,LSD1

>  <Form>
dihydrochloride

>  <CAS>
2102933-95-7

>  <URL>
http://selleckchem.com/products/gsk-lsd1-2hcl.html

$$$$
