GSK046
 OpenBabel08302521303D

 57 59  0  0  0  0  0  0  0  0999 V2000
   -1.2127  -11.6139    5.8348 C   0  0  0  0  0  0  0  0  0  0  0  0
   -2.0338  -10.8912    4.9565 C   0  0  0  0  0  0  0  0  0  0  0  0
   -3.0393  -10.0469    5.4519 C   0  0  0  0  0  0  0  0  0  0  0  0
   -3.1958   -9.8943    6.8275 C   0  0  0  0  0  0  0  0  0  0  0  0
   -2.3510  -10.5692    7.6989 C   0  0  0  0  0  0  0  0  0  0  0  0
   -1.3741  -11.4575    7.2322 C   0  0  0  0  0  0  0  0  0  0  0  0
   -0.2189  -12.4822    5.4420 O   0  0  0  0  0  0  0  0  0  0  0  0
   -0.2593  -13.0482    4.1193 C   0  0  2  0  0  0  0  0  0  0  0  0
   -0.1716  -14.5609    4.2441 C   0  0  0  0  0  0  0  0  0  0  0  0
   -2.4792  -10.2645    8.9957 F   0  0  0  0  0  0  0  0  0  0  0  0
   -0.5168  -12.1994    8.0864 N   0  0  0  0  0  0  0  0  0  0  0  0
   -0.7535  -12.5174    9.4104 C   0  0  0  0  0  0  0  0  0  0  0  0
    0.4141  -13.1832   10.0910 C   0  0  0  0  0  0  0  0  0  0  0  0
   -1.7933  -12.3318   10.0332 O   0  0  0  0  0  0  0  0  0  0  0  0
   -3.9892   -9.4032    4.5024 C   0  0  0  0  0  0  0  0  0  0  0  0
   -4.2082   -9.9274    3.4157 O   0  0  0  0  0  0  0  0  0  0  0  0
   -4.6224   -8.2541    4.9465 N   0  0  0  0  0  0  0  0  0  0  0  0
   -5.8859   -7.8322    4.3638 C   0  0  1  0  0  0  0  0  0  0  0  0
   -7.0310   -8.7108    4.8938 C   0  0  0  0  0  0  0  0  0  0  0  0
   -8.3682   -8.3046    4.2830 C   0  0  0  0  0  0  0  0  0  0  0  0
   -8.6625   -6.8202    4.4955 C   0  0  1  0  0  0  0  0  0  0  0  0
   -7.5025   -5.9315    4.0438 C   0  0  0  0  0  0  0  0  0  0  0  0
   -6.1799   -6.3598    4.6743 C   0  0  0  0  0  0  0  0  0  0  0  0
    0.8919  -15.1837    4.9153 C   0  0  0  0  0  0  0  0  0  0  0  0
    0.9428  -16.5745    5.0325 C   0  0  0  0  0  0  0  0  0  0  0  0
   -0.0668  -17.3614    4.4817 C   0  0  0  0  0  0  0  0  0  0  0  0
   -1.1253  -16.7590    3.8066 C   0  0  0  0  0  0  0  0  0  0  0  0
   -1.1774  -15.3688    3.6870 C   0  0  0  0  0  0  0  0  0  0  0  0
    0.9062  -12.4807    3.3087 C   0  0  0  0  0  0  0  0  0  0  0  0
   -9.8432   -6.4611    3.7868 O   0  0  0  0  0  0  0  0  0  0  0  0
   -1.9247  -10.9615    3.8775 H   0  0  0  0  0  0  0  0  0  0  0  0
   -3.9749   -9.2791    7.2615 H   0  0  0  0  0  0  0  0  0  0  0  0
   -1.1909  -12.8224    3.5930 H   0  0  0  0  0  0  0  0  0  0  0  0
    0.2220  -12.7001    7.6035 H   0  0  0  0  0  0  0  0  0  0  0  0
    0.8026  -12.5124   10.8639 H   0  0  0  0  0  0  0  0  0  0  0  0
    0.0697  -14.1116   10.5570 H   0  0  0  0  0  0  0  0  0  0  0  0
    1.2200  -13.4213    9.3931 H   0  0  0  0  0  0  0  0  0  0  0  0
   -4.3434   -7.8298    5.8189 H   0  0  0  0  0  0  0  0  0  0  0  0
   -5.8130   -7.9630    3.2769 H   0  0  0  0  0  0  0  0  0  0  0  0
   -7.0862   -8.6271    5.9883 H   0  0  0  0  0  0  0  0  0  0  0  0
   -6.8372   -9.7680    4.6775 H   0  0  0  0  0  0  0  0  0  0  0  0
   -9.1753   -8.9070    4.7179 H   0  0  0  0  0  0  0  0  0  0  0  0
   -8.3700   -8.5372    3.2105 H   0  0  0  0  0  0  0  0  0  0  0  0
   -8.8609   -6.6439    5.5590 H   0  0  0  0  0  0  0  0  0  0  0  0
   -7.4142   -5.9637    2.9500 H   0  0  0  0  0  0  0  0  0  0  0  0
   -7.7225   -4.8865    4.2924 H   0  0  0  0  0  0  0  0  0  0  0  0
   -6.2269   -6.2049    5.7607 H   0  0  0  0  0  0  0  0  0  0  0  0
   -5.3694   -5.7219    4.3037 H   0  0  0  0  0  0  0  0  0  0  0  0
    1.6873  -14.5869    5.3551 H   0  0  0  0  0  0  0  0  0  0  0  0
    1.7699  -17.0455    5.5571 H   0  0  0  0  0  0  0  0  0  0  0  0
   -0.0296  -18.4431    4.5796 H   0  0  0  0  0  0  0  0  0  0  0  0
   -1.9138  -17.3711    3.3757 H   0  0  0  0  0  0  0  0  0  0  0  0
   -2.0164  -14.9221    3.1567 H   0  0  0  0  0  0  0  0  0  0  0  0
    0.9292  -12.8977    2.2962 H   0  0  0  0  0  0  0  0  0  0  0  0
    0.8249  -11.3909    3.2338 H   0  0  0  0  0  0  0  0  0  0  0  0
    1.8715  -12.6867    3.7849 H   0  0  0  0  0  0  0  0  0  0  0  0
   -9.6346   -6.4372    2.8369 H   0  0  0  0  0  0  0  0  0  0  0  0
  1  2  2  0  0  0  0
  1  7  1  0  0  0  0
  2  3  1  0  0  0  0
  2 31  1  0  0  0  0
  3  4  2  0  0  0  0
  3 15  1  0  0  0  0
  4  5  1  0  0  0  0
  4 32  1  0  0  0  0
  5  6  2  0  0  0  0
  5 10  1  0  0  0  0
  6  1  1  0  0  0  0
  6 11  1  0  0  0  0
  8 29  1  0  0  0  0
  8 33  1  6  0  0  0
  8  9  1  0  0  0  0
  8  7  1  0  0  0  0
  9 24  2  0  0  0  0
 11 12  1  0  0  0  0
 11 34  1  0  0  0  0
 12 13  1  0  0  0  0
 12 14  2  0  0  0  0
 13 35  1  0  0  0  0
 13 36  1  0  0  0  0
 13 37  1  0  0  0  0
 15 16  2  0  0  0  0
 15 17  1  0  0  0  0
 17 38  1  0  0  0  0
 18 19  1  0  0  0  0
 18 39  1  6  0  0  0
 18 17  1  0  0  0  0
 19 20  1  0  0  0  0
 19 40  1  0  0  0  0
 19 41  1  0  0  0  0
 20 21  1  0  0  0  0
 20 42  1  0  0  0  0
 20 43  1  0  0  0  0
 21 22  1  0  0  0  0
 21 30  1  0  0  0  0
 21 44  1  1  0  0  0
 22 23  1  0  0  0  0
 22 45  1  0  0  0  0
 22 46  1  0  0  0  0
 23 18  1  0  0  0  0
 23 47  1  0  0  0  0
 23 48  1  0  0  0  0
 24 25  1  0  0  0  0
 24 49  1  0  0  0  0
 25 26  2  0  0  0  0
 25 50  1  0  0  0  0
 26 27  1  0  0  0  0
 26 51  1  0  0  0  0
 27 28  2  0  0  0  0
 27 52  1  0  0  0  0
 28  9  1  0  0  0  0
 28 53  1  0  0  0  0
 29 54  1  0  0  0  0
 29 55  1  0  0  0  0
 29 56  1  0  0  0  0
 30 57  1  0  0  0  0
M  END
>  <Mol_ID>
5596

>  <Formula>
C23H27FN2O4

>  <MolWeight>
414.4698832

>  <Cat>
S9684

>  <Name>
GSK046

>  <Synonyms>
iBET-BD2

>  <Target>
Epigenetic Reader Domain

>  <Form>
Free Base

>  <CAS>
2474876-09-8

>  <URL>
http://www.selleckchem.com/products/gsk046.html

$$$$
