GSK0660
 OpenBabel08302520383D

 46 48  0  0  0  0  0  0  0  0999 V2000
    4.8609    2.5369    3.3983 C   0  0  0  0  0  0  0  0  0  0  0  0
    4.3241    3.5917    2.6519 C   0  0  0  0  0  0  0  0  0  0  0  0
    4.2405    4.7750    3.4753 C   0  0  0  0  0  0  0  0  0  0  0  0
    4.5424    4.5556    4.7951 C   0  0  0  0  0  0  0  0  0  0  0  0
    4.7737    2.9115    5.1024 S   0  0  0  0  0  0  0  0  0  0  0  0
    5.4290    1.2086    3.1012 C   0  0  0  0  0  0  0  0  0  0  0  0
    5.0544    0.4146    2.2544 O   0  0  0  0  0  0  0  0  0  0  0  0
    6.4418    1.0027    4.0087 O   0  0  0  0  0  0  0  0  0  0  0  0
    4.0963    3.7386    0.9172 S   0  0  0  0  0  0  0  0  0  0  0  0
    4.0954    5.1756    0.7146 O   0  0  0  0  0  0  0  0  0  0  0  0
    5.1575    2.9233    0.3802 O   0  0  0  0  0  0  0  0  0  0  0  0
    2.6503    3.1050    0.3498 N   0  0  0  0  0  0  0  0  0  0  0  0
    1.4046    3.8192    0.2338 C   0  0  0  0  0  0  0  0  0  0  0  0
    7.0298   -0.2693    4.3083 C   0  0  0  0  0  0  0  0  0  0  0  0
    0.4995    3.6097    1.2840 C   0  0  0  0  0  0  0  0  0  0  0  0
   -0.8420    4.0453    1.2166 C   0  0  0  0  0  0  0  0  0  0  0  0
   -1.3444    4.7053    0.0915 C   0  0  0  0  0  0  0  0  0  0  0  0
   -0.4542    4.8948   -0.9649 C   0  0  0  0  0  0  0  0  0  0  0  0
    0.9074    4.4738   -0.9181 C   0  0  0  0  0  0  0  0  0  0  0  0
   -2.7030    5.0857    0.0460 N   0  0  0  0  0  0  0  0  0  0  0  0
   -3.6049    5.2510   -1.0284 C   0  0  0  0  0  0  0  0  0  0  0  0
    1.5034    4.7434   -2.1197 O   0  0  0  0  0  0  0  0  0  0  0  0
    2.9051    4.6880   -2.2639 C   0  0  0  0  0  0  0  0  0  0  0  0
   -3.5576    4.4474   -2.1733 C   0  0  0  0  0  0  0  0  0  0  0  0
   -4.4415    4.6520   -3.2433 C   0  0  0  0  0  0  0  0  0  0  0  0
   -5.3800    5.6781   -3.1931 C   0  0  0  0  0  0  0  0  0  0  0  0
   -5.4510    6.4840   -2.0627 C   0  0  0  0  0  0  0  0  0  0  0  0
   -4.5748    6.2686   -0.9863 C   0  0  0  0  0  0  0  0  0  0  0  0
    4.0336    5.7666    3.0913 H   0  0  0  0  0  0  0  0  0  0  0  0
    4.6066    5.2771    5.5970 H   0  0  0  0  0  0  0  0  0  0  0  0
    2.7368    2.2205   -0.1493 H   0  0  0  0  0  0  0  0  0  0  0  0
    6.4083   -1.1302    4.0473 H   0  0  0  0  0  0  0  0  0  0  0  0
    8.0139   -0.3230    3.8359 H   0  0  0  0  0  0  0  0  0  0  0  0
    7.1987   -0.2879    5.3953 H   0  0  0  0  0  0  0  0  0  0  0  0
    0.8120    3.0418    2.1581 H   0  0  0  0  0  0  0  0  0  0  0  0
   -1.5069    3.8142    2.0463 H   0  0  0  0  0  0  0  0  0  0  0  0
   -0.8078    5.4020   -1.8639 H   0  0  0  0  0  0  0  0  0  0  0  0
   -3.0416    5.4672    0.9227 H   0  0  0  0  0  0  0  0  0  0  0  0
    3.4150    5.2848   -1.5124 H   0  0  0  0  0  0  0  0  0  0  0  0
    3.2461    3.6518   -2.2893 H   0  0  0  0  0  0  0  0  0  0  0  0
    3.1512    5.1436   -3.2298 H   0  0  0  0  0  0  0  0  0  0  0  0
   -2.8537    3.6224   -2.2262 H   0  0  0  0  0  0  0  0  0  0  0  0
   -4.3937    4.0030   -4.1148 H   0  0  0  0  0  0  0  0  0  0  0  0
   -6.0530    5.8464   -4.0325 H   0  0  0  0  0  0  0  0  0  0  0  0
   -6.1865    7.2859   -2.0169 H   0  0  0  0  0  0  0  0  0  0  0  0
   -4.6581    6.9181   -0.1202 H   0  0  0  0  0  0  0  0  0  0  0  0
  1  2  2  0  0  0  0
  1  5  1  0  0  0  0
  1  6  1  0  0  0  0
  2  3  1  0  0  0  0
  2  9  1  0  0  0  0
  3  4  2  0  0  0  0
  3 29  1  0  0  0  0
  4  5  1  0  0  0  0
  4 30  1  0  0  0  0
  6  7  2  0  0  0  0
  6  8  1  0  0  0  0
  8 14  1  0  0  0  0
  9 10  2  0  0  0  0
  9 11  2  0  0  0  0
  9 12  1  0  0  0  0
 12 13  1  0  0  0  0
 12 31  1  0  0  0  0
 13 15  2  0  0  0  0
 14 32  1  0  0  0  0
 14 33  1  0  0  0  0
 14 34  1  0  0  0  0
 15 16  1  0  0  0  0
 15 35  1  0  0  0  0
 16 17  2  0  0  0  0
 16 36  1  0  0  0  0
 17 18  1  0  0  0  0
 17 20  1  0  0  0  0
 18 19  2  0  0  0  0
 18 37  1  0  0  0  0
 19 13  1  0  0  0  0
 19 22  1  0  0  0  0
 20 21  1  0  0  0  0
 20 38  1  0  0  0  0
 21 24  2  0  0  0  0
 22 23  1  0  0  0  0
 23 39  1  0  0  0  0
 23 40  1  0  0  0  0
 23 41  1  0  0  0  0
 24 25  1  0  0  0  0
 24 42  1  0  0  0  0
 25 26  2  0  0  0  0
 25 43  1  0  0  0  0
 26 27  1  0  0  0  0
 26 44  1  0  0  0  0
 27 28  2  0  0  0  0
 27 45  1  0  0  0  0
 28 21  1  0  0  0  0
 28 46  1  0  0  0  0
M  END
>  <Mol_ID>
3442

>  <Formula>
C19H18N2O5S2

>  <MolWeight>
418.48662

>  <Cat>
S5817

>  <Name>
GSK0660

>  <Synonyms>
N/A

>  <Target>
PPAR

>  <Form>
Free Base

>  <CAS>
1014691-61-2

>  <URL>
http://www.selleckchem.com/products/gsk0660.html

$$$$
