GSK137647A
 OpenBabel08302521273D

 40 41  0  0  0  0  0  0  0  0999 V2000
    0.8272    0.1388    0.7783 S   0  0  0  0  0  0  0  0  0  0  0  0
    0.2804   -1.0117    0.0934 O   0  0  0  0  0  0  0  0  0  0  0  0
    0.3969    0.4469    2.1283 O   0  0  0  0  0  0  0  0  0  0  0  0
    6.7417   -0.3653    0.7244 O   0  0  0  0  0  0  0  0  0  0  0  0
    0.4586    1.4971   -0.1867 N   0  0  0  0  0  0  0  0  0  0  0  0
    1.2768    2.6751   -0.0677 C   0  0  0  0  0  0  0  0  0  0  0  0
    2.3122    2.8487   -1.0084 C   0  0  0  0  0  0  0  0  0  0  0  0
    1.0758    3.6360    0.9412 C   0  0  0  0  0  0  0  0  0  0  0  0
    3.0294    4.8781    0.1384 C   0  0  0  0  0  0  0  0  0  0  0  0
    3.1879    3.9396   -0.8818 C   0  0  0  0  0  0  0  0  0  0  0  0
    1.9652    4.7274    1.0303 C   0  0  0  0  0  0  0  0  0  0  0  0
    2.5959   -0.0216    0.7958 C   0  0  0  0  0  0  0  0  0  0  0  0
    2.5233    1.9277   -2.1805 C   0  0  0  0  0  0  0  0  0  0  0  0
   -0.0596    3.6200    1.9272 C   0  0  0  0  0  0  0  0  0  0  0  0
    4.0057    6.0088    0.2742 C   0  0  0  0  0  0  0  0  0  0  0  0
    3.3229    0.5428    1.8465 C   0  0  0  0  0  0  0  0  0  0  0  0
    3.2466   -0.7723   -0.1858 C   0  0  0  0  0  0  0  0  0  0  0  0
    4.7164    0.4397    1.8642 C   0  0  0  0  0  0  0  0  0  0  0  0
    4.6420   -0.8666   -0.1625 C   0  0  0  0  0  0  0  0  0  0  0  0
    5.3848   -0.2399    0.8439 C   0  0  0  0  0  0  0  0  0  0  0  0
    7.5345    0.3648    1.6545 C   0  0  0  0  0  0  0  0  0  0  0  0
   -0.5208    1.7157   -0.0009 H   0  0  0  0  0  0  0  0  0  0  0  0
    3.9990    4.0601   -1.5986 H   0  0  0  0  0  0  0  0  0  0  0  0
    1.8146    5.4743    1.8093 H   0  0  0  0  0  0  0  0  0  0  0  0
    2.5849    2.5107   -3.1050 H   0  0  0  0  0  0  0  0  0  0  0  0
    3.4553    1.3717   -2.0571 H   0  0  0  0  0  0  0  0  0  0  0  0
    1.7056    1.2126   -2.3136 H   0  0  0  0  0  0  0  0  0  0  0  0
    0.3322    3.5888    2.9496 H   0  0  0  0  0  0  0  0  0  0  0  0
   -0.6593    4.5305    1.8095 H   0  0  0  0  0  0  0  0  0  0  0  0
   -0.7388    2.7762    1.7997 H   0  0  0  0  0  0  0  0  0  0  0  0
    4.9826    5.6185    0.5782 H   0  0  0  0  0  0  0  0  0  0  0  0
    4.1125    6.5409   -0.6768 H   0  0  0  0  0  0  0  0  0  0  0  0
    3.6808    6.7342    1.0269 H   0  0  0  0  0  0  0  0  0  0  0  0
    2.8154    1.0693    2.6517 H   0  0  0  0  0  0  0  0  0  0  0  0
    2.6862   -1.2647   -0.9769 H   0  0  0  0  0  0  0  0  0  0  0  0
    5.2493    0.9031    2.6881 H   0  0  0  0  0  0  0  0  0  0  0  0
    5.1583   -1.4258   -0.9409 H   0  0  0  0  0  0  0  0  0  0  0  0
    7.3143    1.4373    1.6142 H   0  0  0  0  0  0  0  0  0  0  0  0
    7.4036   -0.0272    2.6682 H   0  0  0  0  0  0  0  0  0  0  0  0
    8.5852    0.2329    1.3787 H   0  0  0  0  0  0  0  0  0  0  0  0
  1  2  2  0  0  0  0
  1  3  2  0  0  0  0
  1  5  1  0  0  0  0
  1 12  1  0  0  0  0
  4 20  1  0  0  0  0
  4 21  1  0  0  0  0
  5  6  1  0  0  0  0
  5 22  1  0  0  0  0
  6  7  2  0  0  0  0
  6  8  1  0  0  0  0
  7 10  1  0  0  0  0
  7 13  1  0  0  0  0
  8 11  2  0  0  0  0
  8 14  1  0  0  0  0
  9 10  2  0  0  0  0
  9 11  1  0  0  0  0
  9 15  1  0  0  0  0
 10 23  1  0  0  0  0
 11 24  1  0  0  0  0
 12 16  2  0  0  0  0
 12 17  1  0  0  0  0
 13 25  1  0  0  0  0
 13 26  1  0  0  0  0
 13 27  1  0  0  0  0
 14 28  1  0  0  0  0
 14 29  1  0  0  0  0
 14 30  1  0  0  0  0
 15 31  1  0  0  0  0
 15 32  1  0  0  0  0
 15 33  1  0  0  0  0
 16 18  1  0  0  0  0
 16 34  1  0  0  0  0
 17 19  2  0  0  0  0
 17 35  1  0  0  0  0
 18 20  2  0  0  0  0
 18 36  1  0  0  0  0
 19 20  1  0  0  0  0
 19 37  1  0  0  0  0
 21 38  1  0  0  0  0
 21 39  1  0  0  0  0
 21 40  1  0  0  0  0
M  END
>  <Mol_ID>
5329

>  <Formula>
C16H19NO3S

>  <MolWeight>
305.39196

>  <Cat>
S0001

>  <Name>
GSK137647A

>  <Synonyms>
GSK 137647

>  <Target>
GPR

>  <Form>
Free Base

>  <CAS>
349085-82-1

>  <URL>
https://www.selleckchem.com/products/gsk137647a.html

$$$$
