GSK1349572.cdx
 OpenBabel08302521423D

 49 52  0  0  0  0  0  0  0  0999 V2000
    7.2409   -5.6202   -3.4366 C   0  0  0  0  0  0  0  0  0  0  0  0
    7.7473   -5.2051   -2.2181 C   0  0  0  0  0  0  0  0  0  0  0  0
    6.8582   -4.9856   -1.1817 C   0  0  0  0  0  0  0  0  0  0  0  0
    5.4724   -5.1535   -1.3521 C   0  0  0  0  0  0  0  0  0  0  0  0
    4.9823   -5.5994   -2.5806 C   0  0  0  0  0  0  0  0  0  0  0  0
    5.8748   -5.8276   -3.6265 C   0  0  0  0  0  0  0  0  0  0  0  0
    4.6162   -5.1316   -0.1357 C   0  0  0  0  0  0  0  0  0  0  0  0
    3.4070   -4.3624   -0.0731 N   0  0  0  0  0  0  0  0  0  0  0  0
    2.6412   -4.2778    1.0817 C   0  0  0  0  0  0  0  0  0  0  0  0
    2.8274   -5.2164    2.2456 C   0  0  0  0  0  0  0  0  0  0  0  0
    7.3559   -4.6708    0.0245 F   0  0  0  0  0  0  0  0  0  0  0  0
    8.0862   -5.8583   -4.4472 F   0  0  0  0  0  0  0  0  0  0  0  0
    1.7742   -3.4009    1.1029 O   0  0  0  0  0  0  0  0  0  0  0  0
    1.9736   -5.0780    3.2782 C   0  0  0  0  0  0  0  0  0  0  0  0
    1.9734   -5.8403    4.4487 N   0  0  0  0  0  0  0  0  0  0  0  0
    2.8754   -6.9171    4.5586 C   0  0  0  0  0  0  0  0  0  0  0  0
    3.7028   -7.2614    3.5653 C   0  0  0  0  0  0  0  0  0  0  0  0
    3.8686   -6.2628    2.4974 C   0  0  0  0  0  0  0  0  0  0  0  0
    4.9719   -6.3657    1.9648 O   0  0  0  0  0  0  0  0  0  0  0  0
    4.6246   -8.2882    3.5677 O   0  0  0  0  0  0  0  0  0  0  0  0
    1.2048   -5.4043    5.6195 C   0  0  0  0  0  0  0  0  0  0  0  0
    1.1143   -6.4838    6.7183 C   0  0  1  0  0  0  0  0  0  0  0  0
    2.4004   -7.1285    6.9643 N   0  0  0  0  0  0  0  0  0  0  0  0
    3.1571   -7.5690    5.8889 C   0  0  0  0  0  0  0  0  0  0  0  0
    4.1186   -8.3144    6.0475 O   0  0  0  0  0  0  0  0  0  0  0  0
    0.5823   -5.8188    7.8623 O   0  0  0  0  0  0  0  0  0  0  0  0
    0.7538   -6.5034    9.0861 C   0  0  0  0  0  0  0  0  0  0  0  0
    2.2290   -6.5612    9.3921 C   0  0  0  0  0  0  0  0  0  0  0  0
    2.9808   -7.3032    8.2957 C   0  0  1  0  0  0  0  0  0  0  0  0
    3.2194   -8.7638    8.7174 C   0  0  0  0  0  0  0  0  0  0  0  0
    8.8109   -5.0884   -2.0579 H   0  0  0  0  0  0  0  0  0  0  0  0
    3.9276   -5.8379   -2.6972 H   0  0  0  0  0  0  0  0  0  0  0  0
    5.5175   -6.2001   -4.5805 H   0  0  0  0  0  0  0  0  0  0  0  0
    4.3014   -6.1720   -0.0171 H   0  0  0  0  0  0  0  0  0  0  0  0
    5.2195   -4.7352    0.6801 H   0  0  0  0  0  0  0  0  0  0  0  0
    3.2794   -3.6032   -0.7257 H   0  0  0  0  0  0  0  0  0  0  0  0
    1.2047   -4.3036    3.2705 H   0  0  0  0  0  0  0  0  0  0  0  0
    5.3045   -8.0183    2.9125 H   0  0  0  0  0  0  0  0  0  0  0  0
    0.1889   -5.1059    5.3259 H   0  0  0  0  0  0  0  0  0  0  0  0
    1.6816   -4.5047    6.0320 H   0  0  0  0  0  0  0  0  0  0  0  0
    0.4141   -7.2694    6.4020 H   0  0  0  0  0  0  0  0  0  0  0  0
    0.2776   -7.4887    9.0504 H   0  0  0  0  0  0  0  0  0  0  0  0
    0.2509   -5.9119    9.8567 H   0  0  0  0  0  0  0  0  0  0  0  0
    2.6182   -5.5359    9.4324 H   0  0  0  0  0  0  0  0  0  0  0  0
    2.4052   -7.0109   10.3746 H   0  0  0  0  0  0  0  0  0  0  0  0
    3.9796   -6.8502    8.2263 H   0  0  0  0  0  0  0  0  0  0  0  0
    2.2856   -9.2741    8.9656 H   0  0  0  0  0  0  0  0  0  0  0  0
    3.7219   -9.3691    7.9594 H   0  0  0  0  0  0  0  0  0  0  0  0
    3.8745   -8.7838    9.5946 H   0  0  0  0  0  0  0  0  0  0  0  0
  1  2  2  0  0  0  0
  1 12  1  0  0  0  0
  2  3  1  0  0  0  0
  2 31  1  0  0  0  0
  3  4  2  0  0  0  0
  3 11  1  0  0  0  0
  4  5  1  0  0  0  0
  4  7  1  0  0  0  0
  5  6  2  0  0  0  0
  5 32  1  0  0  0  0
  6  1  1  0  0  0  0
  6 33  1  0  0  0  0
  7  8  1  0  0  0  0
  7 34  1  0  0  0  0
  7 35  1  0  0  0  0
  8  9  1  0  0  0  0
  8 36  1  0  0  0  0
  9 10  1  0  0  0  0
  9 13  2  0  0  0  0
 10 14  2  0  0  0  0
 14 15  1  0  0  0  0
 14 37  1  0  0  0  0
 15 16  1  0  0  0  0
 15 21  1  0  0  0  0
 16 17  2  0  0  0  0
 17 18  1  0  0  0  0
 17 20  1  0  0  0  0
 18 10  1  0  0  0  0
 18 19  2  0  0  0  0
 20 38  1  0  0  0  0
 21 39  1  0  0  0  0
 21 40  1  0  0  0  0
 22 21  1  0  0  0  0
 22 23  1  0  0  0  0
 22 26  1  0  0  0  0
 22 41  1  6  0  0  0
 23 24  1  0  0  0  0
 24 16  1  0  0  0  0
 24 25  2  0  0  0  0
 26 27  1  0  0  0  0
 27 28  1  0  0  0  0
 27 42  1  0  0  0  0
 27 43  1  0  0  0  0
 28 29  1  0  0  0  0
 28 44  1  0  0  0  0
 28 45  1  0  0  0  0
 29 23  1  0  0  0  0
 29 46  1  6  0  0  0
 29 30  1  0  0  0  0
 30 47  1  0  0  0  0
 30 48  1  0  0  0  0
 30 49  1  0  0  0  0
M  END
>  <Mol_ID>
838

>  <Formula>
C20H19F2N3O5

>  <MolWeight>
419.3787664

>  <Cat>
S2667

>  <Name>
Dolutegravir (GSK1349572)

>  <Synonyms>
GSK1349572,S/GSK1349572,Tivicay

>  <Target>
Integrase

>  <Form>
free base

>  <CAS>
1051375-16-6

>  <URL>
http://selleckchem.com/products/s-gsk1349572.html

$$$$
