GSK2981278
 OpenBabel08302520403D

 67 69  0  0  0  0  0  0  0  0999 V2000
    1.4914   -0.2447    0.0087 C   0  0  0  0  0  0  0  0  0  0  0  0
    0.8662   -0.6834   -1.1558 C   0  0  0  0  0  0  0  0  0  0  0  0
   -0.5380   -0.5786   -1.3131 C   0  0  0  0  0  0  0  0  0  0  0  0
   -1.3082    0.1010   -0.3426 C   0  0  0  0  0  0  0  0  0  0  0  0
   -0.6576    0.5482    0.8193 C   0  0  0  0  0  0  0  0  0  0  0  0
    0.7285    0.3678    1.0047 C   0  0  0  0  0  0  0  0  0  0  0  0
    3.2805   -0.4560    0.1856 S   0  0  0  0  0  0  0  0  0  0  0  0
    3.8478    0.2507   -0.9471 O   0  0  0  0  0  0  0  0  0  0  0  0
    3.6114   -0.1085    1.5489 O   0  0  0  0  0  0  0  0  0  0  0  0
    3.4967   -2.1467   -0.0055 N   0  0  0  0  0  0  0  0  0  0  0  0
   -2.6553    0.2901   -0.5979 O   0  0  0  0  0  0  0  0  0  0  0  0
   -3.3939    1.1385    0.3062 C   0  0  0  0  0  0  0  0  0  0  0  0
   -6.3659    2.5107   -1.8567 C   0  0  0  0  0  0  0  0  0  0  0  0
   -4.9166    2.1980   -1.4766 C   0  0  0  0  0  0  0  0  0  0  0  0
   -4.8471    1.3836   -0.1738 C   0  0  0  0  0  0  0  0  0  0  0  0
   -5.6758    2.1237    0.8972 C   0  0  0  0  0  0  0  0  0  0  0  0
   -7.0921    2.3937    0.3940 C   0  0  0  0  0  0  0  0  0  0  0  0
   -7.0481    3.1784   -0.7956 O   0  0  0  0  0  0  0  0  0  0  0  0
    3.4296   -3.0255    1.2046 C   0  0  0  0  0  0  0  0  0  0  0  0
    2.0232   -3.1175    1.8073 C   0  0  0  0  0  0  0  0  0  0  0  0
    0.9993   -3.6449    0.8004 C   0  0  0  0  0  0  0  0  0  0  0  0
    2.0214   -4.0231    3.0425 C   0  0  0  0  0  0  0  0  0  0  0  0
   -1.1434   -1.2822   -2.5064 C   0  0  0  0  0  0  0  0  0  0  0  0
   -1.0301   -2.6989   -2.3635 O   0  0  0  0  0  0  0  0  0  0  0  0
    4.4644   -2.5697   -0.9871 C   0  0  0  0  0  0  0  0  0  0  0  0
    5.8434   -2.5094   -0.7529 C   0  0  0  0  0  0  0  0  0  0  0  0
    6.7372   -3.0872   -1.6706 C   0  0  0  0  0  0  0  0  0  0  0  0
    6.2625   -3.7270   -2.8267 C   0  0  0  0  0  0  0  0  0  0  0  0
    4.8804   -3.7662   -3.0524 C   0  0  0  0  0  0  0  0  0  0  0  0
    3.9917   -3.1934   -2.1403 C   0  0  0  0  0  0  0  0  0  0  0  0
    7.2082   -4.3730   -3.8127 C   0  0  0  0  0  0  0  0  0  0  0  0
    7.5515   -5.8147   -3.4538 C   0  0  0  0  0  0  0  0  0  0  0  0
    1.4663   -1.1390   -1.9416 H   0  0  0  0  0  0  0  0  0  0  0  0
   -1.2037    1.0417    1.6176 H   0  0  0  0  0  0  0  0  0  0  0  0
    1.1939    0.7204    1.9226 H   0  0  0  0  0  0  0  0  0  0  0  0
   -3.4385    0.6436    1.2840 H   0  0  0  0  0  0  0  0  0  0  0  0
   -2.8871    2.1057    0.4072 H   0  0  0  0  0  0  0  0  0  0  0  0
   -6.3877    3.1752   -2.7267 H   0  0  0  0  0  0  0  0  0  0  0  0
   -6.9161    1.6010   -2.1236 H   0  0  0  0  0  0  0  0  0  0  0  0
   -4.3866    3.1475   -1.3298 H   0  0  0  0  0  0  0  0  0  0  0  0
   -4.4255    1.6652   -2.2963 H   0  0  0  0  0  0  0  0  0  0  0  0
   -5.3147    0.4083   -0.3640 H   0  0  0  0  0  0  0  0  0  0  0  0
   -5.7160    1.5508    1.8292 H   0  0  0  0  0  0  0  0  0  0  0  0
   -5.1977    3.0872    1.1196 H   0  0  0  0  0  0  0  0  0  0  0  0
   -7.6370    1.4619    0.2013 H   0  0  0  0  0  0  0  0  0  0  0  0
   -7.6599    2.9564    1.1428 H   0  0  0  0  0  0  0  0  0  0  0  0
    3.7497   -4.0399    0.9260 H   0  0  0  0  0  0  0  0  0  0  0  0
    4.1559   -2.6751    1.9487 H   0  0  0  0  0  0  0  0  0  0  0  0
    1.7176   -2.1203    2.1365 H   0  0  0  0  0  0  0  0  0  0  0  0
    0.9647   -4.7390    0.7904 H   0  0  0  0  0  0  0  0  0  0  0  0
   -0.0002   -3.2792    1.0583 H   0  0  0  0  0  0  0  0  0  0  0  0
    1.2179   -3.3240   -0.2192 H   0  0  0  0  0  0  0  0  0  0  0  0
    2.7435   -3.6802    3.7901 H   0  0  0  0  0  0  0  0  0  0  0  0
    1.0300   -4.0294    3.5090 H   0  0  0  0  0  0  0  0  0  0  0  0
    2.2732   -5.0570    2.7795 H   0  0  0  0  0  0  0  0  0  0  0  0
   -2.1963   -1.0338   -2.6602 H   0  0  0  0  0  0  0  0  0  0  0  0
   -0.5999   -1.0004   -3.4146 H   0  0  0  0  0  0  0  0  0  0  0  0
   -0.2928   -2.8870   -1.7609 H   0  0  0  0  0  0  0  0  0  0  0  0
    6.2347   -2.0377    0.1442 H   0  0  0  0  0  0  0  0  0  0  0  0
    7.8066   -3.0415   -1.4735 H   0  0  0  0  0  0  0  0  0  0  0  0
    4.4851   -4.2534   -3.9409 H   0  0  0  0  0  0  0  0  0  0  0  0
    2.9251   -3.2550   -2.3269 H   0  0  0  0  0  0  0  0  0  0  0  0
    6.7590   -4.3533   -4.8129 H   0  0  0  0  0  0  0  0  0  0  0  0
    8.1282   -3.7828   -3.8824 H   0  0  0  0  0  0  0  0  0  0  0  0
    6.6522   -6.4343   -3.3685 H   0  0  0  0  0  0  0  0  0  0  0  0
    8.1889   -6.2527   -4.2296 H   0  0  0  0  0  0  0  0  0  0  0  0
    8.0926   -5.8716   -2.5036 H   0  0  0  0  0  0  0  0  0  0  0  0
  1  2  2  0  0  0  0
  1  6  1  0  0  0  0
  1  7  1  0  0  0  0
  2  3  1  0  0  0  0
  2 33  1  0  0  0  0
  3  4  2  0  0  0  0
  3 23  1  0  0  0  0
  4  5  1  0  0  0  0
  4 11  1  0  0  0  0
  5  6  2  0  0  0  0
  5 34  1  0  0  0  0
  6 35  1  0  0  0  0
  7  8  2  0  0  0  0
  7  9  2  0  0  0  0
  7 10  1  0  0  0  0
 10 19  1  0  0  0  0
 10 25  1  0  0  0  0
 11 12  1  0  0  0  0
 12 15  1  0  0  0  0
 12 36  1  0  0  0  0
 12 37  1  0  0  0  0
 13 14  1  0  0  0  0
 13 18  1  0  0  0  0
 13 38  1  0  0  0  0
 13 39  1  0  0  0  0
 14 15  1  0  0  0  0
 14 40  1  0  0  0  0
 14 41  1  0  0  0  0
 15 16  1  0  0  0  0
 15 42  1  0  0  0  0
 16 17  1  0  0  0  0
 16 43  1  0  0  0  0
 16 44  1  0  0  0  0
 17 18  1  0  0  0  0
 17 45  1  0  0  0  0
 17 46  1  0  0  0  0
 19 20  1  0  0  0  0
 19 47  1  0  0  0  0
 19 48  1  0  0  0  0
 20 21  1  0  0  0  0
 20 22  1  0  0  0  0
 20 49  1  0  0  0  0
 21 50  1  0  0  0  0
 21 51  1  0  0  0  0
 21 52  1  0  0  0  0
 22 53  1  0  0  0  0
 22 54  1  0  0  0  0
 22 55  1  0  0  0  0
 23 24  1  0  0  0  0
 23 56  1  0  0  0  0
 23 57  1  0  0  0  0
 24 58  1  0  0  0  0
 25 26  2  0  0  0  0
 25 30  1  0  0  0  0
 26 27  1  0  0  0  0
 26 59  1  0  0  0  0
 27 28  2  0  0  0  0
 27 60  1  0  0  0  0
 28 29  1  0  0  0  0
 28 31  1  0  0  0  0
 29 30  2  0  0  0  0
 29 61  1  0  0  0  0
 30 62  1  0  0  0  0
 31 32  1  0  0  0  0
 31 63  1  0  0  0  0
 31 64  1  0  0  0  0
 32 65  1  0  0  0  0
 32 66  1  0  0  0  0
 32 67  1  0  0  0  0
M  END
>  <Mol_ID>
3856

>  <Formula>
C25H35NO5S

>  <MolWeight>
461.6141

>  <Cat>
S6610

>  <Name>
GSK2981278

>  <Synonyms>
N/A

>  <Target>
ROR

>  <Form>
free base

>  <CAS>
1474110-21-8

>  <URL>
http://www.selleck.cn/products/gsk2981278.html

$$$$
