GSK2982772.cdx
 OpenBabel08302520423D

 47 50  0  0  0  0  0  0  0  0999 V2000
   -0.7778   -3.3504    0.3286 C   0  0  0  0  0  0  0  0  0  0  0  0
    0.2498   -3.8663    1.1149 C   0  0  0  0  0  0  0  0  0  0  0  0
    1.3034   -3.0397    1.5240 C   0  0  0  0  0  0  0  0  0  0  0  0
    1.3639   -1.7006    1.1133 C   0  0  0  0  0  0  0  0  0  0  0  0
    0.3355   -1.2095    0.3062 C   0  0  0  0  0  0  0  0  0  0  0  0
   -0.7458   -2.0127   -0.0584 C   0  0  0  0  0  0  0  0  0  0  0  0
    2.4542   -0.8646    1.4884 N   0  0  0  0  0  0  0  0  0  0  0  0
    3.2882   -0.3118    0.5185 C   0  0  0  0  0  0  0  0  0  0  0  0
    2.6622    0.7025   -0.4590 C   0  0  2  0  0  0  0  0  0  0  0  0
    1.3254    0.3065   -1.0721 C   0  0  0  0  0  0  0  0  0  0  0  0
    0.3081    0.0989   -0.0908 O   0  0  0  0  0  0  0  0  0  0  0  0
    2.9225   -0.9095    2.8625 C   0  0  0  0  0  0  0  0  0  0  0  0
    4.5178   -0.4420    0.5771 O   0  0  0  0  0  0  0  0  0  0  0  0
    3.6329    1.0561   -1.5094 N   0  0  0  0  0  0  0  0  0  0  0  0
    3.6586    2.3374   -2.0305 C   0  0  0  0  0  0  0  0  0  0  0  0
    4.7522    2.6272   -2.9825 C   0  0  0  0  0  0  0  0  0  0  0  0
    2.8150    3.1770   -1.7038 O   0  0  0  0  0  0  0  0  0  0  0  0
    5.2234    3.8789   -3.1697 N   0  0  0  0  0  0  0  0  0  0  0  0
    6.1451    3.7016   -4.1251 N   0  0  0  0  0  0  0  0  0  0  0  0
    6.1851    2.4075   -4.5515 C   0  0  0  0  0  0  0  0  0  0  0  0
    5.3660    1.6848   -3.8057 N   0  0  0  0  0  0  0  0  0  0  0  0
    7.0050    1.9981   -5.7327 C   0  0  0  0  0  0  0  0  0  0  0  0
    8.4451    1.6829   -5.3999 C   0  0  0  0  0  0  0  0  0  0  0  0
    8.7500    0.6108   -4.5490 C   0  0  0  0  0  0  0  0  0  0  0  0
   10.0749    0.3019   -4.2403 C   0  0  0  0  0  0  0  0  0  0  0  0
   11.1135    1.0542   -4.7854 C   0  0  0  0  0  0  0  0  0  0  0  0
   10.8259    2.1119   -5.6470 C   0  0  0  0  0  0  0  0  0  0  0  0
    9.4992    2.4249   -5.9561 C   0  0  0  0  0  0  0  0  0  0  0  0
   -1.6018   -3.9872    0.0153 H   0  0  0  0  0  0  0  0  0  0  0  0
    0.2341   -4.9148    1.4054 H   0  0  0  0  0  0  0  0  0  0  0  0
    2.0989   -3.4844    2.1149 H   0  0  0  0  0  0  0  0  0  0  0  0
   -1.5529   -1.5955   -0.6535 H   0  0  0  0  0  0  0  0  0  0  0  0
    2.5048    1.5953    0.1622 H   0  0  0  0  0  0  0  0  0  0  0  0
    0.9600    1.1341   -1.6914 H   0  0  0  0  0  0  0  0  0  0  0  0
    1.4206   -0.5533   -1.7492 H   0  0  0  0  0  0  0  0  0  0  0  0
    2.1279   -0.4819    3.4864 H   0  0  0  0  0  0  0  0  0  0  0  0
    3.1513   -1.9207    3.2004 H   0  0  0  0  0  0  0  0  0  0  0  0
    3.8100   -0.2818    2.9886 H   0  0  0  0  0  0  0  0  0  0  0  0
    4.4364    0.4544   -1.6705 H   0  0  0  0  0  0  0  0  0  0  0  0
    6.6658    4.5004   -4.4608 H   0  0  0  0  0  0  0  0  0  0  0  0
    6.5527    1.1248   -6.2170 H   0  0  0  0  0  0  0  0  0  0  0  0
    6.9698    2.8025   -6.4810 H   0  0  0  0  0  0  0  0  0  0  0  0
    7.9503    0.0095   -4.1192 H   0  0  0  0  0  0  0  0  0  0  0  0
   10.2956   -0.5280   -3.5742 H   0  0  0  0  0  0  0  0  0  0  0  0
   12.1441    0.8136   -4.5417 H   0  0  0  0  0  0  0  0  0  0  0  0
   11.6385    2.6901   -6.0806 H   0  0  0  0  0  0  0  0  0  0  0  0
    9.3034    3.2459   -6.6416 H   0  0  0  0  0  0  0  0  0  0  0  0
  1  2  2  0  0  0  0
  1 29  1  0  0  0  0
  2  3  1  0  0  0  0
  2 30  1  0  0  0  0
  3  4  2  0  0  0  0
  3 31  1  0  0  0  0
  4  5  1  0  0  0  0
  4  7  1  0  0  0  0
  5  6  2  0  0  0  0
  6  1  1  0  0  0  0
  6 32  1  0  0  0  0
  7  8  1  0  0  0  0
  7 12  1  0  0  0  0
  8  9  1  0  0  0  0
  8 13  2  0  0  0  0
  9 10  1  0  0  0  0
  9 33  1  1  0  0  0
  9 14  1  0  0  0  0
 10 11  1  0  0  0  0
 10 34  1  0  0  0  0
 10 35  1  0  0  0  0
 11  5  1  0  0  0  0
 12 36  1  0  0  0  0
 12 37  1  0  0  0  0
 12 38  1  0  0  0  0
 14 15  1  0  0  0  0
 14 39  1  0  0  0  0
 15 16  1  0  0  0  0
 15 17  2  0  0  0  0
 16 18  2  0  0  0  0
 18 19  1  0  0  0  0
 19 20  1  0  0  0  0
 19 40  1  0  0  0  0
 20 21  2  0  0  0  0
 20 22  1  0  0  0  0
 21 16  1  0  0  0  0
 22 23  1  0  0  0  0
 22 41  1  0  0  0  0
 22 42  1  0  0  0  0
 23 24  2  0  0  0  0
 24 25  1  0  0  0  0
 24 43  1  0  0  0  0
 25 26  2  0  0  0  0
 25 44  1  0  0  0  0
 26 27  1  0  0  0  0
 26 45  1  0  0  0  0
 27 28  2  0  0  0  0
 27 46  1  0  0  0  0
 28 23  1  0  0  0  0
 28 47  1  0  0  0  0
M  END
>  <Mol_ID>
4010

>  <Formula>
C20H19N5O3

>  <MolWeight>
377.39656

>  <Cat>
S8484

>  <Name>
GSK2982772

>  <Synonyms>
N/A

>  <Target>
RIP kinase,TNF-alpha

>  <Form>
free base

>  <CAS>
1622848-92-3

>  <URL>
http://selleckchem.com/products/gsk2982772.html

$$$$
