GSK2879552.cdx
 OpenBabel08302519593D

 55 58  0  0  0  0  0  0  0  0999 V2000
    3.3101   -0.2830    5.3446 C   0  0  0  0  0  0  0  0  0  0  0  0
    3.2678   -1.4137    4.5360 C   0  0  0  0  0  0  0  0  0  0  0  0
    2.1954   -1.5928    3.6669 C   0  0  0  0  0  0  0  0  0  0  0  0
    1.1508   -0.6580    3.6233 C   0  0  0  0  0  0  0  0  0  0  0  0
    1.1473    0.4751    4.4516 C   0  0  0  0  0  0  0  0  0  0  0  0
    2.2676    0.6480    5.2909 C   0  0  0  0  0  0  0  0  0  0  0  0
   -0.0124    1.4780    4.4796 C   0  0  1  0  0  0  0  0  0  0  0  0
   -1.4449    1.0747    4.8007 C   0  0  1  0  0  0  0  0  0  0  0  0
   -0.5899    1.7255    5.8528 C   0  0  0  0  0  0  0  0  0  0  0  0
   -2.6743    1.8531    4.5166 N   0  0  0  0  0  0  0  0  0  0  0  0
   -2.9669    2.0890    3.1063 C   0  0  0  0  0  0  0  0  0  0  0  0
   -4.3692    2.7296    2.8822 C   0  0  0  0  0  0  0  0  0  0  0  0
   -4.6298    2.9724    1.3879 C   0  0  0  0  0  0  0  0  0  0  0  0
   -3.7304    4.0760    0.8164 C   0  0  0  0  0  0  0  0  0  0  0  0
   -3.8143    5.3481    1.5515 N   0  0  0  0  0  0  0  0  0  0  0  0
   -3.6987    5.1765    3.0145 C   0  0  0  0  0  0  0  0  0  0  0  0
   -4.5981    4.0766    3.5823 C   0  0  0  0  0  0  0  0  0  0  0  0
   -2.7613    6.2899    1.0987 C   0  0  0  0  0  0  0  0  0  0  0  0
   -2.8806    6.7462   -0.3447 C   0  0  0  0  0  0  0  0  0  0  0  0
   -4.0336    7.4141   -0.7778 C   0  0  0  0  0  0  0  0  0  0  0  0
   -4.1350    7.8850   -2.0898 C   0  0  0  0  0  0  0  0  0  0  0  0
   -3.0838    7.6947   -2.9938 C   0  0  0  0  0  0  0  0  0  0  0  0
   -1.9143    7.0533   -2.5656 C   0  0  0  0  0  0  0  0  0  0  0  0
   -1.8189    6.5791   -1.2504 C   0  0  0  0  0  0  0  0  0  0  0  0
   -3.2422    8.2462   -4.3660 C   0  0  0  0  0  0  0  0  0  0  0  0
   -2.5985    7.5448   -5.3218 O   0  0  0  0  0  0  0  0  0  0  0  0
   -3.9267    9.2275   -4.6105 O   0  0  0  0  0  0  0  0  0  0  0  0
    4.1437   -0.1299    6.0247 H   0  0  0  0  0  0  0  0  0  0  0  0
    4.0704   -2.1457    4.5787 H   0  0  0  0  0  0  0  0  0  0  0  0
    2.1658   -2.4689    3.0238 H   0  0  0  0  0  0  0  0  0  0  0  0
    0.3215   -0.8293    2.9409 H   0  0  0  0  0  0  0  0  0  0  0  0
    2.3167    1.5203    5.9391 H   0  0  0  0  0  0  0  0  0  0  0  0
    0.1084    2.3388    3.8269 H   0  0  0  0  0  0  0  0  0  0  0  0
   -1.6142    0.0015    4.8803 H   0  0  0  0  0  0  0  0  0  0  0  0
   -0.2803    1.1070    6.6872 H   0  0  0  0  0  0  0  0  0  0  0  0
   -0.7761    2.7594    6.1203 H   0  0  0  0  0  0  0  0  0  0  0  0
   -3.4728    1.3968    4.9602 H   0  0  0  0  0  0  0  0  0  0  0  0
   -2.1819    2.7293    2.6955 H   0  0  0  0  0  0  0  0  0  0  0  0
   -2.9347    1.1381    2.5615 H   0  0  0  0  0  0  0  0  0  0  0  0
   -5.1256    2.0235    3.2521 H   0  0  0  0  0  0  0  0  0  0  0  0
   -4.4816    2.0453    0.8231 H   0  0  0  0  0  0  0  0  0  0  0  0
   -5.6817    3.2570    1.2453 H   0  0  0  0  0  0  0  0  0  0  0  0
   -2.6963    3.7145    0.7837 H   0  0  0  0  0  0  0  0  0  0  0  0
   -4.0397    4.2397   -0.2229 H   0  0  0  0  0  0  0  0  0  0  0  0
   -3.9811    6.1210    3.4992 H   0  0  0  0  0  0  0  0  0  0  0  0
   -2.6615    4.9688    3.3027 H   0  0  0  0  0  0  0  0  0  0  0  0
   -5.6482    4.3748    3.4482 H   0  0  0  0  0  0  0  0  0  0  0  0
   -4.4494    3.9891    4.6654 H   0  0  0  0  0  0  0  0  0  0  0  0
   -2.7961    7.1999    1.7127 H   0  0  0  0  0  0  0  0  0  0  0  0
   -1.7685    5.8474    1.2660 H   0  0  0  0  0  0  0  0  0  0  0  0
   -4.8551    7.5816   -0.0835 H   0  0  0  0  0  0  0  0  0  0  0  0
   -5.0366    8.4097   -2.4020 H   0  0  0  0  0  0  0  0  0  0  0  0
   -1.0548    6.9508   -3.2227 H   0  0  0  0  0  0  0  0  0  0  0  0
   -0.8970    6.0972   -0.9279 H   0  0  0  0  0  0  0  0  0  0  0  0
   -2.2472    6.6832   -5.0344 H   0  0  0  0  0  0  0  0  0  0  0  0
  1  2  2  0  0  0  0
  1 28  1  0  0  0  0
  2  3  1  0  0  0  0
  2 29  1  0  0  0  0
  3  4  2  0  0  0  0
  3 30  1  0  0  0  0
  4  5  1  0  0  0  0
  4 31  1  0  0  0  0
  5  6  2  0  0  0  0
  6  1  1  0  0  0  0
  6 32  1  0  0  0  0
  7  8  1  0  0  0  0
  7 33  1  6  0  0  0
  7  5  1  0  0  0  0
  8  9  1  0  0  0  0
  8 10  1  0  0  0  0
  8 34  1  1  0  0  0
  9  7  1  0  0  0  0
  9 35  1  0  0  0  0
  9 36  1  0  0  0  0
 10 11  1  0  0  0  0
 10 37  1  0  0  0  0
 11 12  1  0  0  0  0
 11 38  1  0  0  0  0
 11 39  1  0  0  0  0
 12 13  1  0  0  0  0
 12 40  1  0  0  0  0
 13 14  1  0  0  0  0
 13 41  1  0  0  0  0
 13 42  1  0  0  0  0
 14 15  1  0  0  0  0
 14 43  1  0  0  0  0
 14 44  1  0  0  0  0
 15 16  1  0  0  0  0
 15 18  1  0  0  0  0
 16 17  1  0  0  0  0
 16 45  1  0  0  0  0
 16 46  1  0  0  0  0
 17 12  1  0  0  0  0
 17 47  1  0  0  0  0
 17 48  1  0  0  0  0
 18 19  1  0  0  0  0
 18 49  1  0  0  0  0
 18 50  1  0  0  0  0
 19 20  2  0  0  0  0
 20 21  1  0  0  0  0
 20 51  1  0  0  0  0
 21 22  2  0  0  0  0
 21 52  1  0  0  0  0
 22 23  1  0  0  0  0
 22 25  1  0  0  0  0
 23 24  2  0  0  0  0
 23 53  1  0  0  0  0
 24 19  1  0  0  0  0
 24 54  1  0  0  0  0
 25 26  1  0  0  0  0
 25 27  2  0  0  0  0
 26 55  1  0  0  0  0
M  END
>  <Mol_ID>
2648

>  <Formula>
C23H30Cl2N2O2

>  <MolWeight>
437.4025

>  <Cat>
S7796

>  <Name>
GSK2879552 2HCl

>  <Synonyms>
N/A

>  <Target>
Histone Demethylase,LSD1

>  <Form>
dihydrochloride

>  <CAS>
1902123-72-1

>  <URL>
http://selleckchem.com/products/gsk2879552-2hcl.html

$$$$
