GSK2256098.cdx
 OpenBabel08302520433D

 52 54  0  0  0  0  0  0  0  0999 V2000
   -4.3547   -3.2067    1.0720 C   0  0  0  0  0  0  0  0  0  0  0  0
   -5.1691   -2.2627    0.4523 C   0  0  0  0  0  0  0  0  0  0  0  0
   -4.6529   -1.0142    0.0926 C   0  0  0  0  0  0  0  0  0  0  0  0
   -3.3276   -0.6672    0.3984 C   0  0  0  0  0  0  0  0  0  0  0  0
   -2.5343   -1.6110    1.0811 C   0  0  0  0  0  0  0  0  0  0  0  0
   -3.0361   -2.8856    1.3814 C   0  0  0  0  0  0  0  0  0  0  0  0
   -1.2116   -1.2690    1.6691 C   0  0  0  0  0  0  0  0  0  0  0  0
   -1.1735   -0.0272    2.2580 N   0  0  0  0  0  0  0  0  0  0  0  0
   -0.3178   -2.1067    1.7002 O   0  0  0  0  0  0  0  0  0  0  0  0
    0.0393    0.3725    2.8555 O   0  0  0  0  0  0  0  0  0  0  0  0
   -0.0120    0.0102    4.2357 C   0  0  0  0  0  0  0  0  0  0  0  0
   -2.7560    0.5471   -0.0696 N   0  0  0  0  0  0  0  0  0  0  0  0
   -3.4241    1.7706   -0.3058 C   0  0  0  0  0  0  0  0  0  0  0  0
   -3.0659    2.5682   -1.3892 C   0  0  0  0  0  0  0  0  0  0  0  0
   -3.6905    3.7914   -1.5326 C   0  0  0  0  0  0  0  0  0  0  0  0
   -4.5945    4.2722   -0.6603 N   0  0  0  0  0  0  0  0  0  0  0  0
   -4.9246    3.5195    0.4113 C   0  0  0  0  0  0  0  0  0  0  0  0
   -4.3759    2.2543    0.5970 C   0  0  0  0  0  0  0  0  0  0  0  0
   -5.7842    4.0433    1.4064 N   0  0  0  0  0  0  0  0  0  0  0  0
   -5.7885    5.3574    1.7454 C   0  0  0  0  0  0  0  0  0  0  0  0
   -6.8513    5.9993    2.3515 N   0  0  0  0  0  0  0  0  0  0  0  0
   -6.5907    7.2997    2.6211 N   0  0  0  0  0  0  0  0  0  0  0  0
   -5.3430    7.4881    2.1763 C   0  0  0  0  0  0  0  0  0  0  0  0
   -4.8073    6.3184    1.6175 C   0  0  0  0  0  0  0  0  0  0  0  0
   -4.6821    8.8040    2.3158 C   0  0  0  0  0  0  0  0  0  0  0  0
   -8.1610    5.4560    2.6883 C   0  0  0  0  0  0  0  0  0  0  0  0
   -8.4977    5.6972    4.1618 C   0  0  0  0  0  0  0  0  0  0  0  0
   -9.2606    6.0173    1.7823 C   0  0  0  0  0  0  0  0  0  0  0  0
   -4.7493   -4.1859    1.3313 H   0  0  0  0  0  0  0  0  0  0  0  0
   -6.2064   -2.5042    0.2319 H   0  0  0  0  0  0  0  0  0  0  0  0
   -5.3001   -0.3200   -0.4384 H   0  0  0  0  0  0  0  0  0  0  0  0
   -2.4066   -3.6121    1.8924 H   0  0  0  0  0  0  0  0  0  0  0  0
   -1.7712    0.7196    1.9141 H   0  0  0  0  0  0  0  0  0  0  0  0
   -1.0041    0.1958    4.6642 H   0  0  0  0  0  0  0  0  0  0  0  0
    0.2491   -1.0461    4.3501 H   0  0  0  0  0  0  0  0  0  0  0  0
    0.7165    0.6153    4.7812 H   0  0  0  0  0  0  0  0  0  0  0  0
   -2.0919    0.3318   -0.8172 H   0  0  0  0  0  0  0  0  0  0  0  0
   -2.3246    2.2570   -2.1156 H   0  0  0  0  0  0  0  0  0  0  0  0
   -3.4619    4.4474   -2.3693 H   0  0  0  0  0  0  0  0  0  0  0  0
   -4.6442    1.6699    1.4685 H   0  0  0  0  0  0  0  0  0  0  0  0
   -6.0811    3.3576    2.0852 H   0  0  0  0  0  0  0  0  0  0  0  0
   -3.8216    6.1766    1.1892 H   0  0  0  0  0  0  0  0  0  0  0  0
   -5.2391    9.5757    1.7748 H   0  0  0  0  0  0  0  0  0  0  0  0
   -4.6195    9.0900    3.3701 H   0  0  0  0  0  0  0  0  0  0  0  0
   -3.6637    8.7748    1.9136 H   0  0  0  0  0  0  0  0  0  0  0  0
   -8.1141    4.3720    2.5297 H   0  0  0  0  0  0  0  0  0  0  0  0
   -8.5802    6.7667    4.3877 H   0  0  0  0  0  0  0  0  0  0  0  0
   -9.4502    5.2270    4.4272 H   0  0  0  0  0  0  0  0  0  0  0  0
   -7.7196    5.2801    4.8100 H   0  0  0  0  0  0  0  0  0  0  0  0
   -9.0429    5.8163    0.7276 H   0  0  0  0  0  0  0  0  0  0  0  0
  -10.2264    5.5588    2.0175 H   0  0  0  0  0  0  0  0  0  0  0  0
   -9.3682    7.1016    1.8992 H   0  0  0  0  0  0  0  0  0  0  0  0
  1  2  2  0  0  0  0
  1 29  1  0  0  0  0
  2  3  1  0  0  0  0
  2 30  1  0  0  0  0
  3  4  2  0  0  0  0
  3 31  1  0  0  0  0
  4  5  1  0  0  0  0
  4 12  1  0  0  0  0
  5  6  2  0  0  0  0
  5  7  1  0  0  0  0
  6  1  1  0  0  0  0
  6 32  1  0  0  0  0
  7  8  1  0  0  0  0
  7  9  2  0  0  0  0
  8 10  1  0  0  0  0
  8 33  1  0  0  0  0
 10 11  1  0  0  0  0
 11 34  1  0  0  0  0
 11 35  1  0  0  0  0
 11 36  1  0  0  0  0
 12 13  1  0  0  0  0
 12 37  1  0  0  0  0
 13 14  2  0  0  0  0
 14 15  1  0  0  0  0
 14 38  1  0  0  0  0
 15 16  2  0  0  0  0
 15 39  1  0  0  0  0
 16 17  1  0  0  0  0
 17 18  2  0  0  0  0
 17 19  1  0  0  0  0
 18 13  1  0  0  0  0
 18 40  1  0  0  0  0
 19 20  1  0  0  0  0
 19 41  1  0  0  0  0
 20 21  1  0  0  0  0
 21 22  1  0  0  0  0
 21 26  1  0  0  0  0
 22 23  2  0  0  0  0
 23 24  1  0  0  0  0
 23 25  1  0  0  0  0
 24 20  2  0  0  0  0
 24 42  1  0  0  0  0
 25 43  1  0  0  0  0
 25 44  1  0  0  0  0
 25 45  1  0  0  0  0
 26 27  1  0  0  0  0
 26 28  1  0  0  0  0
 26 46  1  0  0  0  0
 27 47  1  0  0  0  0
 27 48  1  0  0  0  0
 27 49  1  0  0  0  0
 28 50  1  0  0  0  0
 28 51  1  0  0  0  0
 28 52  1  0  0  0  0
M  END
>  <Mol_ID>
4126

>  <Formula>
C20H23ClN6O2

>  <MolWeight>
414.88862

>  <Cat>
S8523

>  <Name>
GSK2256098

>  <Synonyms>
GTPL7939

>  <Target>
Apoptosis related,FAK

>  <Form>
free base

>  <CAS>
1224887-10-8

>  <URL>
http://selleckchem.com/products/gsk2256098.html

$$$$
