GSK2334470.cdx
 OpenBabel08302519573D

 68 72  0  0  0  0  0  0  0  0999 V2000
    1.0725   -0.5612    0.0172 C   0  0  0  0  0  0  0  0  0  0  0  0
    0.7353    0.0534   -1.1258 N   0  0  0  0  0  0  0  0  0  0  0  0
   -0.3968    0.7578   -1.1616 C   0  0  0  0  0  0  0  0  0  0  0  0
   -1.2202    0.8919   -0.1181 N   0  0  0  0  0  0  0  0  0  0  0  0
   -0.8852    0.2637    1.0241 C   0  0  0  0  0  0  0  0  0  0  0  0
    0.2745   -0.4689    1.1349 C   0  0  0  0  0  0  0  0  0  0  0  0
    2.2660   -1.2941    0.0744 N   0  0  0  0  0  0  0  0  0  0  0  0
   -0.6840    1.3453   -2.3699 N   0  0  0  0  0  0  0  0  0  0  0  0
   -1.7746    2.2731   -2.4926 C   0  0  0  0  0  0  0  0  0  0  0  0
   -1.8395    0.4097    2.1419 C   0  0  0  0  0  0  0  0  0  0  0  0
   -2.5976    1.5923    2.2752 C   0  0  0  0  0  0  0  0  0  0  0  0
   -3.5077    1.6732    3.3328 C   0  0  0  0  0  0  0  0  0  0  0  0
   -3.6935    0.6614    4.2659 C   0  0  0  0  0  0  0  0  0  0  0  0
   -2.9294   -0.5217    4.1368 C   0  0  0  0  0  0  0  0  0  0  0  0
   -2.0172   -0.6215    3.0841 C   0  0  0  0  0  0  0  0  0  0  0  0
   -4.3765    2.6582    3.7118 N   0  0  0  0  0  0  0  0  0  0  0  0
   -5.1092    2.3625    4.8056 N   0  0  0  0  0  0  0  0  0  0  0  0
   -4.7043    1.1446    5.1227 C   0  0  0  0  0  0  0  0  0  0  0  0
   -5.2066    0.4514    6.1547 N   0  0  0  0  0  0  0  0  0  0  0  0
    2.6558   -1.9506   -1.1731 C   0  0  1  0  0  0  0  0  0  0  0  0
    4.1590   -2.1945   -1.2670 C   0  0  0  0  0  0  0  0  0  0  0  0
    4.9664   -1.0179   -0.7417 C   0  0  0  0  0  0  0  0  0  0  0  0
    4.6920   -0.7177    0.7299 C   0  0  1  0  0  0  0  0  0  0  0  0
    3.2072   -0.8633    1.1221 C   0  0  0  0  0  0  0  0  0  0  0  0
    5.6264   -1.4497    1.7368 C   0  0  0  0  0  0  0  0  0  0  0  0
    5.2043   -2.2357    2.5767 O   0  0  0  0  0  0  0  0  0  0  0  0
    6.9674   -1.0871    1.6915 N   0  0  0  0  0  0  0  0  0  0  0  0
    7.9659   -1.5407    2.6875 C   0  0  0  0  0  0  0  0  0  0  0  0
    9.0439   -0.4609    2.9077 C   0  0  0  0  0  0  0  0  0  0  0  0
   10.1359   -0.8910    3.8940 C   0  0  0  0  0  0  0  0  0  0  0  0
   10.7731   -2.2192    3.5037 C   0  0  0  0  0  0  0  0  0  0  0  0
    9.7045   -3.2915    3.3185 C   0  0  0  0  0  0  0  0  0  0  0  0
    8.6398   -2.8678    2.2948 C   0  0  0  0  0  0  0  0  0  0  0  0
    1.8763   -3.2718   -1.3240 C   0  0  0  0  0  0  0  0  0  0  0  0
    0.5526   -0.9698    2.0527 H   0  0  0  0  0  0  0  0  0  0  0  0
    0.1663    1.5127   -2.8910 H   0  0  0  0  0  0  0  0  0  0  0  0
   -1.4209    3.3079   -2.4528 H   0  0  0  0  0  0  0  0  0  0  0  0
   -2.2508    2.1159   -3.4653 H   0  0  0  0  0  0  0  0  0  0  0  0
   -2.5531    2.1393   -1.7347 H   0  0  0  0  0  0  0  0  0  0  0  0
   -2.4834    2.4080    1.5692 H   0  0  0  0  0  0  0  0  0  0  0  0
   -3.0556   -1.3367    4.8406 H   0  0  0  0  0  0  0  0  0  0  0  0
   -1.4592   -1.5511    2.9955 H   0  0  0  0  0  0  0  0  0  0  0  0
   -4.5202    3.5600    3.2703 H   0  0  0  0  0  0  0  0  0  0  0  0
   -4.7062   -0.3338    6.5597 H   0  0  0  0  0  0  0  0  0  0  0  0
   -5.7788    0.9642    6.8155 H   0  0  0  0  0  0  0  0  0  0  0  0
    2.4045   -1.3244   -2.0397 H   0  0  0  0  0  0  0  0  0  0  0  0
    4.4476   -3.1154   -0.7497 H   0  0  0  0  0  0  0  0  0  0  0  0
    4.4052   -2.3390   -2.3284 H   0  0  0  0  0  0  0  0  0  0  0  0
    6.0332   -1.2053   -0.9166 H   0  0  0  0  0  0  0  0  0  0  0  0
    4.7038   -0.1303   -1.3336 H   0  0  0  0  0  0  0  0  0  0  0  0
    4.9422    0.3453    0.8739 H   0  0  0  0  0  0  0  0  0  0  0  0
    3.0609   -1.5109    1.9925 H   0  0  0  0  0  0  0  0  0  0  0  0
    2.9056    0.1367    1.4717 H   0  0  0  0  0  0  0  0  0  0  0  0
    7.2834   -0.4792    0.9482 H   0  0  0  0  0  0  0  0  0  0  0  0
    7.4355   -1.6978    3.6360 H   0  0  0  0  0  0  0  0  0  0  0  0
    9.5150   -0.2135    1.9478 H   0  0  0  0  0  0  0  0  0  0  0  0
    8.5777    0.4606    3.2747 H   0  0  0  0  0  0  0  0  0  0  0  0
   10.9107   -0.1172    3.9516 H   0  0  0  0  0  0  0  0  0  0  0  0
    9.7069   -0.9833    4.8995 H   0  0  0  0  0  0  0  0  0  0  0  0
   11.3515   -2.1014    2.5787 H   0  0  0  0  0  0  0  0  0  0  0  0
   11.4851   -2.5298    4.2798 H   0  0  0  0  0  0  0  0  0  0  0  0
   10.1783   -4.2291    3.0063 H   0  0  0  0  0  0  0  0  0  0  0  0
    9.2256   -3.4856    4.2867 H   0  0  0  0  0  0  0  0  0  0  0  0
    7.8914   -3.6627    2.2059 H   0  0  0  0  0  0  0  0  0  0  0  0
    9.1124   -2.7667    1.3094 H   0  0  0  0  0  0  0  0  0  0  0  0
    0.9215   -3.0984   -1.8357 H   0  0  0  0  0  0  0  0  0  0  0  0
    2.4289   -4.0089   -1.9168 H   0  0  0  0  0  0  0  0  0  0  0  0
    1.6405   -3.7254   -0.3539 H   0  0  0  0  0  0  0  0  0  0  0  0
  1  2  2  0  0  0  0
  1  7  1  0  0  0  0
  2  3  1  0  0  0  0
  3  4  2  0  0  0  0
  3  8  1  0  0  0  0
  4  5  1  0  0  0  0
  5  6  2  0  0  0  0
  5 10  1  0  0  0  0
  6  1  1  0  0  0  0
  6 35  1  0  0  0  0
  7 20  1  0  0  0  0
  8  9  1  0  0  0  0
  8 36  1  0  0  0  0
  9 37  1  0  0  0  0
  9 38  1  0  0  0  0
  9 39  1  0  0  0  0
 10 11  2  0  0  0  0
 11 12  1  0  0  0  0
 11 40  1  0  0  0  0
 12 13  2  0  0  0  0
 12 16  1  0  0  0  0
 13 14  1  0  0  0  0
 14 15  2  0  0  0  0
 14 41  1  0  0  0  0
 15 10  1  0  0  0  0
 15 42  1  0  0  0  0
 16 17  1  0  0  0  0
 16 43  1  0  0  0  0
 17 18  2  0  0  0  0
 18 13  1  0  0  0  0
 18 19  1  0  0  0  0
 19 44  1  0  0  0  0
 19 45  1  0  0  0  0
 20 21  1  0  0  0  0
 20 34  1  0  0  0  0
 20 46  1  6  0  0  0
 21 22  1  0  0  0  0
 21 47  1  0  0  0  0
 21 48  1  0  0  0  0
 22 23  1  0  0  0  0
 22 49  1  0  0  0  0
 22 50  1  0  0  0  0
 23 24  1  0  0  0  0
 23 25  1  0  0  0  0
 23 51  1  1  0  0  0
 24  7  1  0  0  0  0
 24 52  1  0  0  0  0
 24 53  1  0  0  0  0
 25 26  2  0  0  0  0
 25 27  1  0  0  0  0
 27 28  1  0  0  0  0
 27 54  1  0  0  0  0
 28 29  1  0  0  0  0
 28 55  1  0  0  0  0
 29 30  1  0  0  0  0
 29 56  1  0  0  0  0
 29 57  1  0  0  0  0
 30 31  1  0  0  0  0
 30 58  1  0  0  0  0
 30 59  1  0  0  0  0
 31 32  1  0  0  0  0
 31 60  1  0  0  0  0
 31 61  1  0  0  0  0
 32 33  1  0  0  0  0
 32 62  1  0  0  0  0
 32 63  1  0  0  0  0
 33 28  1  0  0  0  0
 33 64  1  0  0  0  0
 33 65  1  0  0  0  0
 34 66  1  0  0  0  0
 34 67  1  0  0  0  0
 34 68  1  0  0  0  0
M  END
>  <Mol_ID>
2247

>  <Formula>
C25H34N8O

>  <MolWeight>
462.59046

>  <Cat>
S7087

>  <Name>
GSK2334470

>  <Synonyms>
N/A

>  <Target>
PDPK1

>  <Form>
free base

>  <CAS>
1227911-45-6

>  <URL>
http://selleckchem.com/products/gsk2334470.html

$$$$
