GSK2636771.cdx
 OpenBabel08302519553D

 53 56  0  0  0  0  0  0  0  0999 V2000
   -2.1566    0.8610    0.0297 C   0  0  0  0  0  0  0  0  0  0  0  0
   -2.2319   -0.5263   -0.1744 C   0  0  0  0  0  0  0  0  0  0  0  0
   -1.0146   -1.1995   -0.3697 C   0  0  0  0  0  0  0  0  0  0  0  0
    0.1968   -0.5216   -0.1874 C   0  0  0  0  0  0  0  0  0  0  0  0
    0.2669    0.8506    0.0201 C   0  0  0  0  0  0  0  0  0  0  0  0
   -0.9342    1.5753    0.0893 C   0  0  0  0  0  0  0  0  0  0  0  0
    1.5009   -0.9632   -0.1353 N   0  0  0  0  0  0  0  0  0  0  0  0
    2.3112    0.1390    0.0182 C   0  0  0  0  0  0  0  0  0  0  0  0
    1.5856    1.2358    0.1065 N   0  0  0  0  0  0  0  0  0  0  0  0
    3.7938    0.0854    0.0706 C   0  0  0  0  0  0  0  0  0  0  0  0
    1.9113   -2.3652   -0.0895 C   0  0  0  0  0  0  0  0  0  0  0  0
    2.3653   -2.9563   -1.4148 C   0  0  0  0  0  0  0  0  0  0  0  0
    2.2737   -2.2119   -2.6042 C   0  0  0  0  0  0  0  0  0  0  0  0
    2.7886   -2.6922   -3.8040 C   0  0  0  0  0  0  0  0  0  0  0  0
    3.4174   -3.9258   -3.8406 C   0  0  0  0  0  0  0  0  0  0  0  0
    3.5010   -4.7277   -2.6889 C   0  0  0  0  0  0  0  0  0  0  0  0
    2.9199   -4.2653   -1.4732 C   0  0  0  0  0  0  0  0  0  0  0  0
    2.9167   -5.1863   -0.2735 C   0  0  0  0  0  0  0  0  0  0  0  0
    4.2420   -6.0520   -2.7785 C   0  0  0  0  0  0  0  0  0  0  0  0
    4.7991   -6.2809   -4.0022 F   0  0  0  0  0  0  0  0  0  0  0  0
    5.2713   -6.1302   -1.8894 F   0  0  0  0  0  0  0  0  0  0  0  0
    3.4450   -7.1260   -2.5311 F   0  0  0  0  0  0  0  0  0  0  0  0
   -3.4259   -1.2221   -0.1621 N   0  0  0  0  0  0  0  0  0  0  0  0
   -0.9059    3.0463    0.2584 C   0  0  0  0  0  0  0  0  0  0  0  0
    0.0586    3.7730    0.4046 O   0  0  0  0  0  0  0  0  0  0  0  0
   -2.1413    3.5852    0.2098 O   0  0  0  0  0  0  0  0  0  0  0  0
   -4.7601   -0.6077   -0.2960 C   0  0  0  0  0  0  0  0  0  0  0  0
   -5.6421   -1.0007    0.9020 C   0  0  0  0  0  0  0  0  0  0  0  0
   -5.7408   -2.4286    1.0337 O   0  0  0  0  0  0  0  0  0  0  0  0
   -4.4401   -2.9916    1.2411 C   0  0  0  0  0  0  0  0  0  0  0  0
   -3.4847   -2.6793    0.0772 C   0  0  0  0  0  0  0  0  0  0  0  0
   -3.0655    1.4331    0.1879 H   0  0  0  0  0  0  0  0  0  0  0  0
   -0.9916   -2.2466   -0.6463 H   0  0  0  0  0  0  0  0  0  0  0  0
    4.1332   -0.4471    0.9638 H   0  0  0  0  0  0  0  0  0  0  0  0
    4.1984   -0.4122   -0.8149 H   0  0  0  0  0  0  0  0  0  0  0  0
    4.2087    1.0981    0.1035 H   0  0  0  0  0  0  0  0  0  0  0  0
    2.7274   -2.4267    0.6394 H   0  0  0  0  0  0  0  0  0  0  0  0
    1.0657   -2.9387    0.3073 H   0  0  0  0  0  0  0  0  0  0  0  0
    1.8132   -1.2248   -2.6234 H   0  0  0  0  0  0  0  0  0  0  0  0
    2.7151   -2.0873   -4.7040 H   0  0  0  0  0  0  0  0  0  0  0  0
    3.8500   -4.2684   -4.7819 H   0  0  0  0  0  0  0  0  0  0  0  0
    2.5170   -6.1675   -0.5528 H   0  0  0  0  0  0  0  0  0  0  0  0
    3.9286   -5.3071    0.1219 H   0  0  0  0  0  0  0  0  0  0  0  0
    2.2747   -4.8302    0.5353 H   0  0  0  0  0  0  0  0  0  0  0  0
   -1.9611    4.5451    0.2960 H   0  0  0  0  0  0  0  0  0  0  0  0
   -5.2143   -0.9992   -1.2164 H   0  0  0  0  0  0  0  0  0  0  0  0
   -4.7453    0.4776   -0.3953 H   0  0  0  0  0  0  0  0  0  0  0  0
   -5.2492   -0.5827    1.8375 H   0  0  0  0  0  0  0  0  0  0  0  0
   -6.6560   -0.6139    0.7627 H   0  0  0  0  0  0  0  0  0  0  0  0
   -4.5536   -4.0759    1.3376 H   0  0  0  0  0  0  0  0  0  0  0  0
   -4.0331   -2.6148    2.1876 H   0  0  0  0  0  0  0  0  0  0  0  0
   -3.8385   -3.1622   -0.8407 H   0  0  0  0  0  0  0  0  0  0  0  0
   -2.5198   -3.1217    0.3386 H   0  0  0  0  0  0  0  0  0  0  0  0
  1  2  2  0  0  0  0
  1 32  1  0  0  0  0
  2  3  1  0  0  0  0
  2 23  1  0  0  0  0
  3  4  2  0  0  0  0
  3 33  1  0  0  0  0
  4  5  1  0  0  0  0
  4  7  1  0  0  0  0
  5  6  2  0  0  0  0
  6  1  1  0  0  0  0
  6 24  1  0  0  0  0
  7  8  1  0  0  0  0
  7 11  1  0  0  0  0
  8  9  2  0  0  0  0
  8 10  1  0  0  0  0
  9  5  1  0  0  0  0
 10 34  1  0  0  0  0
 10 35  1  0  0  0  0
 10 36  1  0  0  0  0
 11 12  1  0  0  0  0
 11 37  1  0  0  0  0
 11 38  1  0  0  0  0
 12 13  2  0  0  0  0
 13 14  1  0  0  0  0
 13 39  1  0  0  0  0
 14 15  2  0  0  0  0
 14 40  1  0  0  0  0
 15 16  1  0  0  0  0
 15 41  1  0  0  0  0
 16 17  2  0  0  0  0
 16 19  1  0  0  0  0
 17 12  1  0  0  0  0
 17 18  1  0  0  0  0
 18 42  1  0  0  0  0
 18 43  1  0  0  0  0
 18 44  1  0  0  0  0
 19 20  1  0  0  0  0
 19 21  1  0  0  0  0
 19 22  1  0  0  0  0
 23 27  1  0  0  0  0
 24 25  2  0  0  0  0
 24 26  1  0  0  0  0
 26 45  1  0  0  0  0
 27 28  1  0  0  0  0
 27 46  1  0  0  0  0
 27 47  1  0  0  0  0
 28 29  1  0  0  0  0
 28 48  1  0  0  0  0
 28 49  1  0  0  0  0
 29 30  1  0  0  0  0
 30 31  1  0  0  0  0
 30 50  1  0  0  0  0
 30 51  1  0  0  0  0
 31 23  1  0  0  0  0
 31 52  1  0  0  0  0
 31 53  1  0  0  0  0
M  END
>  <Mol_ID>
2129

>  <Formula>
C22H22F3N3O3

>  <MolWeight>
433.4235896

>  <Cat>
S8002

>  <Name>
GSK2636771

>  <Synonyms>
N/A

>  <Target>
PI3K

>  <Form>
free base

>  <CAS>
1372540-25-4

>  <URL>
http://selleckchem.com/products/gsk2636771.html

$$$$
