GSK2141795.cdx
 OpenBabel08302520003D

 44 46  0  0  0  0  0  0  0  0999 V2000
   -6.3373   -3.7762   -1.3605 C   0  0  0  0  0  0  0  0  0  0  0  0
   -5.2694   -2.8960   -1.1492 C   0  0  0  0  0  0  0  0  0  0  0  0
   -5.4452   -1.5068   -1.2804 C   0  0  0  0  0  0  0  0  0  0  0  0
   -6.7114   -1.0193   -1.6438 C   0  0  0  0  0  0  0  0  0  0  0  0
   -7.7696   -1.9025   -1.8500 C   0  0  0  0  0  0  0  0  0  0  0  0
   -7.5851   -3.2721   -1.7079 C   0  0  0  0  0  0  0  0  0  0  0  0
   -8.6035   -4.1191   -1.9129 F   0  0  0  0  0  0  0  0  0  0  0  0
   -8.9710   -1.4189   -2.1957 F   0  0  0  0  0  0  0  0  0  0  0  0
   -4.2725   -0.5631   -1.0941 C   0  0  0  0  0  0  0  0  0  0  0  0
   -4.4620    0.5335   -0.0191 C   0  0  2  0  0  0  0  0  0  0  0  0
   -3.3160    1.4450    0.0101 N   0  0  0  0  0  0  0  0  0  0  0  0
   -4.7078   -0.0226    1.4059 C   0  0  0  0  0  0  0  0  0  0  0  0
   -3.5652   -0.7572    1.9640 N   0  0  0  0  0  0  0  0  0  0  0  0
   -3.1904    2.5239   -0.8382 C   0  0  0  0  0  0  0  0  0  0  0  0
   -2.0848    3.4098   -0.5327 C   0  0  0  0  0  0  0  0  0  0  0  0
   -3.9800    2.7208   -1.7587 O   0  0  0  0  0  0  0  0  0  0  0  0
   -1.7093    4.6211   -1.0880 C   0  0  0  0  0  0  0  0  0  0  0  0
   -0.5469    5.0489   -0.3978 C   0  0  0  0  0  0  0  0  0  0  0  0
   -0.3050    4.0911    0.5597 C   0  0  0  0  0  0  0  0  0  0  0  0
   -1.2230    3.0917    0.4852 O   0  0  0  0  0  0  0  0  0  0  0  0
    0.2315    6.2983   -0.6147 C   0  0  0  0  0  0  0  0  0  0  0  0
   -0.2547    7.4551   -1.1831 C   0  0  0  0  0  0  0  0  0  0  0  0
    0.8053    8.3755   -1.0996 C   0  0  0  0  0  0  0  0  0  0  0  0
    1.9023    7.8379   -0.5647 N   0  0  0  0  0  0  0  0  0  0  0  0
    1.5452    6.5616   -0.3042 N   0  0  0  0  0  0  0  0  0  0  0  0
    2.5899    5.6492    0.0924 C   0  0  0  0  0  0  0  0  0  0  0  0
   -6.2006   -4.8498   -1.2676 H   0  0  0  0  0  0  0  0  0  0  0  0
   -4.2943   -3.3088   -0.8982 H   0  0  0  0  0  0  0  0  0  0  0  0
   -6.8859    0.0433   -1.7881 H   0  0  0  0  0  0  0  0  0  0  0  0
   -3.3644   -1.1393   -0.8744 H   0  0  0  0  0  0  0  0  0  0  0  0
   -4.0811   -0.0922   -2.0676 H   0  0  0  0  0  0  0  0  0  0  0  0
   -5.3369    1.1388   -0.2861 H   0  0  0  0  0  0  0  0  0  0  0  0
   -2.6198    1.3146    0.7396 H   0  0  0  0  0  0  0  0  0  0  0  0
   -4.9074    0.8219    2.0773 H   0  0  0  0  0  0  0  0  0  0  0  0
   -5.5976   -0.6596    1.4234 H   0  0  0  0  0  0  0  0  0  0  0  0
   -3.8371   -1.1304    2.8756 H   0  0  0  0  0  0  0  0  0  0  0  0
   -3.3689   -1.5746    1.3875 H   0  0  0  0  0  0  0  0  0  0  0  0
   -2.2143    5.1101   -1.9105 H   0  0  0  0  0  0  0  0  0  0  0  0
    0.4161    3.9878    1.3578 H   0  0  0  0  0  0  0  0  0  0  0  0
   -1.2516    7.6416   -1.5502 H   0  0  0  0  0  0  0  0  0  0  0  0
    0.8248    9.4161   -1.4011 H   0  0  0  0  0  0  0  0  0  0  0  0
    3.4227    5.7525   -0.6096 H   0  0  0  0  0  0  0  0  0  0  0  0
    2.9082    5.9112    1.1033 H   0  0  0  0  0  0  0  0  0  0  0  0
    2.2396    4.6181    0.0566 H   0  0  0  0  0  0  0  0  0  0  0  0
  1  2  2  0  0  0  0
  1 27  1  0  0  0  0
  2  3  1  0  0  0  0
  2 28  1  0  0  0  0
  3  4  2  0  0  0  0
  3  9  1  0  0  0  0
  4  5  1  0  0  0  0
  4 29  1  0  0  0  0
  5  6  2  0  0  0  0
  5  8  1  0  0  0  0
  6  1  1  0  0  0  0
  6  7  1  0  0  0  0
  9 30  1  0  0  0  0
  9 31  1  0  0  0  0
 10 12  1  0  0  0  0
 10 32  1  6  0  0  0
 10 11  1  0  0  0  0
 10  9  1  0  0  0  0
 11 14  1  0  0  0  0
 11 33  1  0  0  0  0
 12 13  1  0  0  0  0
 12 34  1  0  0  0  0
 12 35  1  0  0  0  0
 13 36  1  0  0  0  0
 13 37  1  0  0  0  0
 14 15  1  0  0  0  0
 14 16  2  0  0  0  0
 15 17  2  0  0  0  0
 17 18  1  0  0  0  0
 17 38  1  0  0  0  0
 18 19  2  0  0  0  0
 18 21  1  0  0  0  0
 19 20  1  0  0  0  0
 19 39  1  0  0  0  0
 20 15  1  0  0  0  0
 21 22  2  0  0  0  0
 22 23  1  0  0  0  0
 22 40  1  0  0  0  0
 23 24  2  0  0  0  0
 23 41  1  0  0  0  0
 24 25  1  0  0  0  0
 25 21  1  0  0  0  0
 25 26  1  0  0  0  0
 26 42  1  0  0  0  0
 26 43  1  0  0  0  0
 26 44  1  0  0  0  0
M  END
>  <Mol_ID>
2656

>  <Formula>
C18H16Cl2F2N4O2

>  <MolWeight>
429.2480464

>  <Cat>
S7492

>  <Name>
Uprosertib (GSK2141795)

>  <Synonyms>
GSK795

>  <Target>
Akt

>  <Form>
free base

>  <CAS>
1047634-65-0

>  <URL>
http://selleckchem.com/products/gsk2141795.html

$$$$
