GSK2795039
 OpenBabel08302521263D

 58 62  0  0  0  0  0  0  0  0999 V2000
    0.3242    0.8039    0.1127 C   0  0  0  0  0  0  0  0  0  0  0  0
    0.3396   -0.5928    0.1027 C   0  0  0  0  0  0  0  0  0  0  0  0
   -0.7169   -1.4287    0.0723 N   0  0  0  0  0  0  0  0  0  0  0  0
   -1.9053   -0.8040    0.0367 C   0  0  0  0  0  0  0  0  0  0  0  0
   -2.0863    0.5639    0.0104 C   0  0  0  0  0  0  0  0  0  0  0  0
   -0.9641    1.3955    0.0116 C   0  0  0  0  0  0  0  0  0  0  0  0
    1.7093    1.2207    0.2256 C   0  0  0  0  0  0  0  0  0  0  0  0
    2.4795    0.0674    0.2033 C   0  0  0  0  0  0  0  0  0  0  0  0
    1.6468   -1.0169    0.1016 N   0  0  0  0  0  0  0  0  0  0  0  0
    2.3170    2.5506    0.2903 C   0  0  0  0  0  0  0  0  0  0  0  0
    3.5324    2.8170   -0.3816 C   0  0  0  0  0  0  0  0  0  0  0  0
    3.9767    4.1271   -0.5787 C   0  0  0  0  0  0  0  0  0  0  0  0
    3.2078    5.1474   -0.0568 C   0  0  0  0  0  0  0  0  0  0  0  0
    2.1130    4.8981    0.7724 C   0  0  0  0  0  0  0  0  0  0  0  0
    1.6641    3.5990    0.9508 C   0  0  0  0  0  0  0  0  0  0  0  0
    3.2193    6.5969   -0.3999 C   0  0  0  0  0  0  0  0  0  0  0  0
    2.4258    7.1573    0.7854 C   0  0  0  0  0  0  0  0  0  0  0  0
    1.5515    6.0818    1.3033 N   0  0  0  0  0  0  0  0  0  0  0  0
   -1.1673    2.8161   -0.1066 N   0  0  0  0  0  0  0  0  0  0  0  0
    2.0609   -2.4167    0.0160 C   0  0  0  0  0  0  0  0  0  0  0  0
    2.9563   -2.6809   -1.1984 C   0  0  0  0  0  0  0  0  0  0  0  0
    2.7181   -2.8774    1.3132 C   0  0  0  0  0  0  0  0  0  0  0  0
   -1.7170    3.3640   -1.6336 S   0  0  0  0  0  0  0  0  0  0  0  0
   -0.3744    3.1047   -2.7227 C   0  0  0  0  0  0  0  0  0  0  0  0
    0.7475    3.9603   -2.7589 C   0  0  0  0  0  0  0  0  0  0  0  0
    1.7442    3.1917   -3.3210 C   0  0  0  0  0  0  0  0  0  0  0  0
    1.1813    1.9789   -3.5862 N   0  0  0  0  0  0  0  0  0  0  0  0
   -0.1352    1.9334   -3.3401 N   0  0  0  0  0  0  0  0  0  0  0  0
    0.1151    6.2130    1.1251 C   0  0  0  0  0  0  0  0  0  0  0  0
   -2.8143    2.5486   -2.0917 O   0  0  0  0  0  0  0  0  0  0  0  0
   -1.8536    4.8078   -1.5268 O   0  0  0  0  0  0  0  0  0  0  0  0
    1.8812    0.7555   -3.8866 C   0  0  0  0  0  0  0  0  0  0  0  0
   -2.7671   -1.4670    0.0106 H   0  0  0  0  0  0  0  0  0  0  0  0
   -3.0916    0.9662   -0.0548 H   0  0  0  0  0  0  0  0  0  0  0  0
    3.5522   -0.0687    0.2522 H   0  0  0  0  0  0  0  0  0  0  0  0
    4.1070    2.0116   -0.8314 H   0  0  0  0  0  0  0  0  0  0  0  0
    4.8557    4.3337   -1.1799 H   0  0  0  0  0  0  0  0  0  0  0  0
    0.7933    3.4091    1.5664 H   0  0  0  0  0  0  0  0  0  0  0  0
    4.2122    7.0356   -0.5055 H   0  0  0  0  0  0  0  0  0  0  0  0
    2.6520    6.7392   -1.3305 H   0  0  0  0  0  0  0  0  0  0  0  0
    1.8706    8.0615    0.5116 H   0  0  0  0  0  0  0  0  0  0  0  0
    3.1268    7.4362    1.5834 H   0  0  0  0  0  0  0  0  0  0  0  0
   -1.7293    3.2344    0.6296 H   0  0  0  0  0  0  0  0  0  0  0  0
    1.1541   -3.0114   -0.1259 H   0  0  0  0  0  0  0  0  0  0  0  0
    3.9158   -2.1589   -1.1216 H   0  0  0  0  0  0  0  0  0  0  0  0
    3.1644   -3.7520   -1.2921 H   0  0  0  0  0  0  0  0  0  0  0  0
    2.4696   -2.3522   -2.1237 H   0  0  0  0  0  0  0  0  0  0  0  0
    2.0613   -2.6848    2.1687 H   0  0  0  0  0  0  0  0  0  0  0  0
    2.9245   -3.9514    1.2798 H   0  0  0  0  0  0  0  0  0  0  0  0
    3.6651   -2.3582    1.4952 H   0  0  0  0  0  0  0  0  0  0  0  0
    0.8529    4.9268   -2.2853 H   0  0  0  0  0  0  0  0  0  0  0  0
    2.8073    3.3688   -3.4231 H   0  0  0  0  0  0  0  0  0  0  0  0
   -0.1794    6.0272    0.0885 H   0  0  0  0  0  0  0  0  0  0  0  0
   -0.4184    5.5177    1.7820 H   0  0  0  0  0  0  0  0  0  0  0  0
   -0.2106    7.2230    1.3945 H   0  0  0  0  0  0  0  0  0  0  0  0
    2.0952    0.7311   -4.9553 H   0  0  0  0  0  0  0  0  0  0  0  0
    2.8035    0.7282   -3.2997 H   0  0  0  0  0  0  0  0  0  0  0  0
    1.2525   -0.0948   -3.6003 H   0  0  0  0  0  0  0  0  0  0  0  0
  1  2  1  0  0  0  0
  1  7  1  0  0  0  0
  2  3  2  0  0  0  0
  3  4  1  0  0  0  0
  4  5  2  0  0  0  0
  4 33  1  0  0  0  0
  5  6  1  0  0  0  0
  5 34  1  0  0  0  0
  6  1  2  0  0  0  0
  6 19  1  0  0  0  0
  7  8  2  0  0  0  0
  7 10  1  0  0  0  0
  8  9  1  0  0  0  0
  8 35  1  0  0  0  0
  9  2  1  0  0  0  0
  9 20  1  0  0  0  0
 10 11  2  0  0  0  0
 11 12  1  0  0  0  0
 11 36  1  0  0  0  0
 12 13  2  0  0  0  0
 12 37  1  0  0  0  0
 13 14  1  0  0  0  0
 13 16  1  0  0  0  0
 14 15  2  0  0  0  0
 15 10  1  0  0  0  0
 15 38  1  0  0  0  0
 16 17  1  0  0  0  0
 16 39  1  0  0  0  0
 16 40  1  0  0  0  0
 17 18  1  0  0  0  0
 17 41  1  0  0  0  0
 17 42  1  0  0  0  0
 18 14  1  0  0  0  0
 18 29  1  0  0  0  0
 19 23  1  0  0  0  0
 19 43  1  0  0  0  0
 20 21  1  0  0  0  0
 20 22  1  0  0  0  0
 20 44  1  0  0  0  0
 21 45  1  0  0  0  0
 21 46  1  0  0  0  0
 21 47  1  0  0  0  0
 22 48  1  0  0  0  0
 22 49  1  0  0  0  0
 22 50  1  0  0  0  0
 23 24  1  0  0  0  0
 23 30  2  0  0  0  0
 23 31  2  0  0  0  0
 24 25  1  0  0  0  0
 25 26  2  0  0  0  0
 25 51  1  0  0  0  0
 26 27  1  0  0  0  0
 26 52  1  0  0  0  0
 27 28  1  0  0  0  0
 27 32  1  0  0  0  0
 28 24  2  0  0  0  0
 29 53  1  0  0  0  0
 29 54  1  0  0  0  0
 29 55  1  0  0  0  0
 32 56  1  0  0  0  0
 32 57  1  0  0  0  0
 32 58  1  0  0  0  0
M  END
>  <Mol_ID>
5232

>  <Formula>
C23H26N6O2S

>  <MolWeight>
450.55654

>  <Cat>
S8974

>  <Name>
GSK2795039

>  <Synonyms>
N/A

>  <Target>
Apoptosis related,NADPH-oxidase,ROS

>  <Form>
free base

>  <CAS>
1415925-18-6

>  <URL>
http://www.selleckchem.com/products/gsk2795039.html

$$$$
