GSK2606414.cdx
 OpenBabel08302519583D

 53 57  0  0  0  0  0  0  0  0999 V2000
   -2.2044    0.6313    0.2811 C   0  0  0  0  0  0  0  0  0  0  0  0
   -2.1650   -0.7717    0.2284 C   0  0  0  0  0  0  0  0  0  0  0  0
   -0.9272   -1.4160    0.2143 C   0  0  0  0  0  0  0  0  0  0  0  0
    0.2277   -0.6485    0.1867 C   0  0  0  0  0  0  0  0  0  0  0  0
    0.1947    0.7485    0.2202 C   0  0  0  0  0  0  0  0  0  0  0  0
   -1.0251    1.3947    0.2926 C   0  0  0  0  0  0  0  0  0  0  0  0
    1.6184   -1.1688    0.0169 C   0  0  0  0  0  0  0  0  0  0  0  0
    2.4364    0.0998    0.2329 C   0  0  0  0  0  0  0  0  0  0  0  0
    1.5126    1.2443    0.1507 N   0  0  0  0  0  0  0  0  0  0  0  0
    2.0312    2.5161    0.0206 C   0  0  0  0  0  0  0  0  0  0  0  0
    3.2575    2.6869   -0.0231 O   0  0  0  0  0  0  0  0  0  0  0  0
    1.1291    3.7284   -0.0973 C   0  0  0  0  0  0  0  0  0  0  0  0
   -3.3941   -1.5489    0.1882 C   0  0  0  0  0  0  0  0  0  0  0  0
   -3.7408   -2.7322   -0.5528 C   0  0  0  0  0  0  0  0  0  0  0  0
   -5.0321   -3.0760   -0.1631 C   0  0  0  0  0  0  0  0  0  0  0  0
   -5.4565   -2.1710    0.7688 N   0  0  0  0  0  0  0  0  0  0  0  0
   -4.4868   -1.2240    0.9730 C   0  0  0  0  0  0  0  0  0  0  0  0
   -3.1351   -3.5775   -1.5060 C   0  0  0  0  0  0  0  0  0  0  0  0
   -3.8233   -4.6384   -1.9685 N   0  0  0  0  0  0  0  0  0  0  0  0
   -5.0657   -4.8498   -1.5014 C   0  0  0  0  0  0  0  0  0  0  0  0
   -5.7461   -4.1253   -0.6034 N   0  0  0  0  0  0  0  0  0  0  0  0
   -1.8605   -3.4035   -2.0299 N   0  0  0  0  0  0  0  0  0  0  0  0
   -6.7091   -2.2087    1.4849 C   0  0  0  0  0  0  0  0  0  0  0  0
    0.4371    3.9367   -1.4304 C   0  0  0  0  0  0  0  0  0  0  0  0
   -0.4093    5.0470   -1.5803 C   0  0  0  0  0  0  0  0  0  0  0  0
   -1.1043    5.2637   -2.7712 C   0  0  0  0  0  0  0  0  0  0  0  0
   -0.9825    4.3612   -3.8261 C   0  0  0  0  0  0  0  0  0  0  0  0
   -0.1492    3.2427   -3.7042 C   0  0  0  0  0  0  0  0  0  0  0  0
    0.5804    3.0603   -2.5158 C   0  0  0  0  0  0  0  0  0  0  0  0
   -0.0434    2.2153   -4.8038 C   0  0  0  0  0  0  0  0  0  0  0  0
   -0.9007    2.4335   -5.8396 F   0  0  0  0  0  0  0  0  0  0  0  0
    1.2010    2.1556   -5.3534 F   0  0  0  0  0  0  0  0  0  0  0  0
   -0.3146    0.9545   -4.3601 F   0  0  0  0  0  0  0  0  0  0  0  0
   -3.1579    1.1549    0.3018 H   0  0  0  0  0  0  0  0  0  0  0  0
   -0.8549   -2.5008    0.2026 H   0  0  0  0  0  0  0  0  0  0  0  0
   -1.1366    2.4675    0.3488 H   0  0  0  0  0  0  0  0  0  0  0  0
    1.8713   -1.9521    0.7363 H   0  0  0  0  0  0  0  0  0  0  0  0
    1.7479   -1.5471   -1.0031 H   0  0  0  0  0  0  0  0  0  0  0  0
    3.2425    0.1932   -0.5038 H   0  0  0  0  0  0  0  0  0  0  0  0
    2.8881    0.1099    1.2329 H   0  0  0  0  0  0  0  0  0  0  0  0
    0.4120    3.7211    0.7278 H   0  0  0  0  0  0  0  0  0  0  0  0
    1.7612    4.6079    0.0868 H   0  0  0  0  0  0  0  0  0  0  0  0
   -4.6406   -0.4205    1.6828 H   0  0  0  0  0  0  0  0  0  0  0  0
   -5.5809   -5.7197   -1.9042 H   0  0  0  0  0  0  0  0  0  0  0  0
   -1.5774   -2.4357   -2.1191 H   0  0  0  0  0  0  0  0  0  0  0  0
   -1.7435   -3.9733   -2.8606 H   0  0  0  0  0  0  0  0  0  0  0  0
   -6.4849   -2.3057    2.5510 H   0  0  0  0  0  0  0  0  0  0  0  0
   -7.2442   -1.2751    1.2938 H   0  0  0  0  0  0  0  0  0  0  0  0
   -7.3110   -3.0574    1.1559 H   0  0  0  0  0  0  0  0  0  0  0  0
   -0.5356    5.7539   -0.7615 H   0  0  0  0  0  0  0  0  0  0  0  0
   -1.7529    6.1311   -2.8710 H   0  0  0  0  0  0  0  0  0  0  0  0
   -1.5485    4.5297   -4.7409 H   0  0  0  0  0  0  0  0  0  0  0  0
    1.2440    2.1990   -2.4510 H   0  0  0  0  0  0  0  0  0  0  0  0
  1  2  2  0  0  0  0
  1 34  1  0  0  0  0
  2  3  1  0  0  0  0
  2 13  1  0  0  0  0
  3  4  2  0  0  0  0
  3 35  1  0  0  0  0
  4  5  1  0  0  0  0
  4  7  1  0  0  0  0
  5  6  2  0  0  0  0
  6  1  1  0  0  0  0
  6 36  1  0  0  0  0
  7  8  1  0  0  0  0
  7 37  1  0  0  0  0
  7 38  1  0  0  0  0
  8  9  1  0  0  0  0
  8 39  1  0  0  0  0
  8 40  1  0  0  0  0
  9  5  1  0  0  0  0
  9 10  1  0  0  0  0
 10 11  2  0  0  0  0
 10 12  1  0  0  0  0
 12 24  1  0  0  0  0
 12 41  1  0  0  0  0
 12 42  1  0  0  0  0
 13 14  1  0  0  0  0
 14 15  2  0  0  0  0
 14 18  1  0  0  0  0
 15 16  1  0  0  0  0
 16 17  1  0  0  0  0
 16 23  1  0  0  0  0
 17 13  2  0  0  0  0
 17 43  1  0  0  0  0
 18 19  2  0  0  0  0
 18 22  1  0  0  0  0
 19 20  1  0  0  0  0
 20 21  2  0  0  0  0
 20 44  1  0  0  0  0
 21 15  1  0  0  0  0
 22 45  1  0  0  0  0
 22 46  1  0  0  0  0
 23 47  1  0  0  0  0
 23 48  1  0  0  0  0
 23 49  1  0  0  0  0
 24 25  2  0  0  0  0
 25 26  1  0  0  0  0
 25 50  1  0  0  0  0
 26 27  2  0  0  0  0
 26 51  1  0  0  0  0
 27 28  1  0  0  0  0
 27 52  1  0  0  0  0
 28 29  2  0  0  0  0
 28 30  1  0  0  0  0
 29 24  1  0  0  0  0
 29 53  1  0  0  0  0
 30 31  1  0  0  0  0
 30 32  1  0  0  0  0
 30 33  1  0  0  0  0
M  END
>  <Mol_ID>
2325

>  <Formula>
C24H20F3N5O

>  <MolWeight>
451.4437096

>  <Cat>
S7307

>  <Name>
GSK2606414

>  <Synonyms>
N/A

>  <Target>
Apoptosis related,Autophagy,PERK

>  <Form>
free base

>  <CAS>
1337531-36-8

>  <URL>
http://selleckchem.com/products/gsk2606414.html

$$$$
