GSK3368715 (EPZ019997) 3HCl
 OpenBabel08302521353D

 64 65  0  0  0  0  0  0  0  0999 V2000
    0.9562   -0.7716   -0.0430 C   0  0  0  0  0  0  0  0  0  0  0  0
    1.0267    0.6070    0.0535 C   0  0  0  0  0  0  0  0  0  0  0  0
   -0.3395    1.0150    0.1824 C   0  0  0  0  0  0  0  0  0  0  0  0
   -1.1634   -0.0464    0.2020 N   0  0  0  0  0  0  0  0  0  0  0  0
   -0.3548   -1.1055    0.0867 N   0  0  0  0  0  0  0  0  0  0  0  0
   -0.9529    2.3945    0.2770 C   0  0  0  0  0  0  0  0  0  0  0  0
   -0.7250    3.2274   -0.9967 C   0  0  0  0  0  0  0  0  0  0  0  0
   -1.2980    4.6423   -0.8805 C   0  0  0  0  0  0  0  0  0  0  0  0
   -0.7733    5.4088    0.3586 C   0  0  0  0  0  0  0  0  0  0  0  0
   -1.1014    4.5622    1.6164 C   0  0  0  0  0  0  0  0  0  0  0  0
   -0.5360    3.1382    1.5548 C   0  0  0  0  0  0  0  0  0  0  0  0
    0.7578    5.6593    0.2876 C   0  0  0  0  0  0  0  0  0  0  0  0
   -1.4682    6.7941    0.4547 C   0  0  0  0  0  0  0  0  0  0  0  0
   -2.8877    6.6556    0.5505 O   0  0  0  0  0  0  0  0  0  0  0  0
    1.1255    6.3754   -0.8959 O   0  0  0  0  0  0  0  0  0  0  0  0
    2.5193    6.6896   -0.8913 C   0  0  0  0  0  0  0  0  0  0  0  0
    2.8758    7.4704   -2.1421 C   0  0  0  0  0  0  0  0  0  0  0  0
   -3.5660    7.8778    0.8381 C   0  0  0  0  0  0  0  0  0  0  0  0
   -3.5129    8.8664   -0.3160 C   0  0  0  0  0  0  0  0  0  0  0  0
    2.2734    1.4350   -0.0078 C   0  0  0  0  0  0  0  0  0  0  0  0
    2.8079    1.7152    1.3444 N   0  0  0  0  0  0  0  0  0  0  0  0
    3.3520    0.4836    1.9534 C   0  0  0  0  0  0  0  0  0  0  0  0
    4.0029    0.6456    3.3461 C   0  0  0  0  0  0  0  0  0  0  0  0
    4.2698   -0.6781    3.9287 N   0  0  0  0  0  0  0  0  0  0  0  0
    4.9188   -0.5581    5.2258 C   0  0  0  0  0  0  0  0  0  0  0  0
    3.8132    2.7750    1.2464 C   0  0  0  0  0  0  0  0  0  0  0  0
    1.7206   -1.5247   -0.1611 H   0  0  0  0  0  0  0  0  0  0  0  0
   -0.7678   -2.0315    0.1056 H   0  0  0  0  0  0  0  0  0  0  0  0
   -2.0434    2.2564    0.3532 H   0  0  0  0  0  0  0  0  0  0  0  0
    0.3370    3.2985   -1.2436 H   0  0  0  0  0  0  0  0  0  0  0  0
   -1.1912    2.7206   -1.8517 H   0  0  0  0  0  0  0  0  0  0  0  0
   -1.0759    5.1967   -1.7993 H   0  0  0  0  0  0  0  0  0  0  0  0
   -2.3922    4.5572   -0.8313 H   0  0  0  0  0  0  0  0  0  0  0  0
   -0.7151    5.0590    2.5152 H   0  0  0  0  0  0  0  0  0  0  0  0
   -2.1886    4.4899    1.7476 H   0  0  0  0  0  0  0  0  0  0  0  0
   -0.8832    2.5788    2.4342 H   0  0  0  0  0  0  0  0  0  0  0  0
    0.5521    3.1789    1.6453 H   0  0  0  0  0  0  0  0  0  0  0  0
    1.0677    6.2413    1.1642 H   0  0  0  0  0  0  0  0  0  0  0  0
    1.3156    4.7172    0.2948 H   0  0  0  0  0  0  0  0  0  0  0  0
   -1.1031    7.3267    1.3414 H   0  0  0  0  0  0  0  0  0  0  0  0
   -1.2310    7.3936   -0.4308 H   0  0  0  0  0  0  0  0  0  0  0  0
    2.7443    7.2979   -0.0095 H   0  0  0  0  0  0  0  0  0  0  0  0
    3.1105    5.7672   -0.8485 H   0  0  0  0  0  0  0  0  0  0  0  0
    2.0647    8.1396   -2.4467 H   0  0  0  0  0  0  0  0  0  0  0  0
    3.7848    8.0557   -1.9831 H   0  0  0  0  0  0  0  0  0  0  0  0
    3.0633    6.7858   -2.9782 H   0  0  0  0  0  0  0  0  0  0  0  0
   -4.6119    7.6166    1.0302 H   0  0  0  0  0  0  0  0  0  0  0  0
   -3.1700    8.3229    1.7579 H   0  0  0  0  0  0  0  0  0  0  0  0
   -3.6903    8.3667   -1.2719 H   0  0  0  0  0  0  0  0  0  0  0  0
   -4.2576    9.6561   -0.1793 H   0  0  0  0  0  0  0  0  0  0  0  0
   -2.5291    9.3445   -0.3721 H   0  0  0  0  0  0  0  0  0  0  0  0
    3.0280    0.9334   -0.6296 H   0  0  0  0  0  0  0  0  0  0  0  0
    2.0462    2.3764   -0.5140 H   0  0  0  0  0  0  0  0  0  0  0  0
    2.5234   -0.2223    2.0895 H   0  0  0  0  0  0  0  0  0  0  0  0
    4.0769    0.0091    1.2801 H   0  0  0  0  0  0  0  0  0  0  0  0
    4.9478    1.1917    3.2477 H   0  0  0  0  0  0  0  0  0  0  0  0
    3.3359    1.2174    4.0024 H   0  0  0  0  0  0  0  0  0  0  0  0
    3.3813   -1.1672    4.0460 H   0  0  0  0  0  0  0  0  0  0  0  0
    4.3083    0.0149    5.9308 H   0  0  0  0  0  0  0  0  0  0  0  0
    5.0722   -1.5565    5.6462 H   0  0  0  0  0  0  0  0  0  0  0  0
    5.9015   -0.0854    5.1311 H   0  0  0  0  0  0  0  0  0  0  0  0
    4.6257    2.5155    0.5596 H   0  0  0  0  0  0  0  0  0  0  0  0
    3.3480    3.7013    0.8920 H   0  0  0  0  0  0  0  0  0  0  0  0
    4.2415    3.0247    2.2218 H   0  0  0  0  0  0  0  0  0  0  0  0
  1  2  2  0  0  0  0
  1 27  1  0  0  0  0
  2  3  1  0  0  0  0
  2 20  1  0  0  0  0
  3  4  2  0  0  0  0
  3  6  1  0  0  0  0
  4  5  1  0  0  0  0
  5  1  1  0  0  0  0
  5 28  1  0  0  0  0
  6  7  1  0  0  0  0
  6 29  1  0  0  0  0
  7  8  1  0  0  0  0
  7 30  1  0  0  0  0
  7 31  1  0  0  0  0
  8  9  1  0  0  0  0
  8 32  1  0  0  0  0
  8 33  1  0  0  0  0
  9 10  1  0  0  0  0
  9 12  1  0  0  0  0
  9 13  1  0  0  0  0
 10 11  1  0  0  0  0
 10 34  1  0  0  0  0
 10 35  1  0  0  0  0
 11  6  1  0  0  0  0
 11 36  1  0  0  0  0
 11 37  1  0  0  0  0
 12 15  1  0  0  0  0
 12 38  1  0  0  0  0
 12 39  1  0  0  0  0
 13 14  1  0  0  0  0
 13 40  1  0  0  0  0
 13 41  1  0  0  0  0
 14 18  1  0  0  0  0
 15 16  1  0  0  0  0
 16 17  1  0  0  0  0
 16 42  1  0  0  0  0
 16 43  1  0  0  0  0
 17 44  1  0  0  0  0
 17 45  1  0  0  0  0
 17 46  1  0  0  0  0
 18 19  1  0  0  0  0
 18 47  1  0  0  0  0
 18 48  1  0  0  0  0
 19 49  1  0  0  0  0
 19 50  1  0  0  0  0
 19 51  1  0  0  0  0
 20 21  1  0  0  0  0
 20 52  1  0  0  0  0
 20 53  1  0  0  0  0
 21 22  1  0  0  0  0
 21 26  1  0  0  0  0
 22 23  1  0  0  0  0
 22 54  1  0  0  0  0
 22 55  1  0  0  0  0
 23 24  1  0  0  0  0
 23 56  1  0  0  0  0
 23 57  1  0  0  0  0
 24 25  1  0  0  0  0
 24 58  1  0  0  0  0
 25 59  1  0  0  0  0
 25 60  1  0  0  0  0
 25 61  1  0  0  0  0
 26 62  1  0  0  0  0
 26 63  1  0  0  0  0
 26 64  1  0  0  0  0
M  END
>  <Mol_ID>
6740

>  <Formula>
C20H41Cl3N4O2

>  <MolWeight>
475.92414

>  <Cat>
S8858

>  <Name>
GSK3368715 (EPZ019997) 3HCl

>  <Target>
PRMT

>  <Form>
Trihydrochloride

>  <CAS>
2227587-26-8

>  <URL>
http://www.selleckchem.com/products/gsk3368715.html

$$$$
