GSK3145095
 OpenBabel08302521263D

 46 49  0  0  0  0  0  0  0  0999 V2000
    3.5693   -0.7209    0.6051 F   0  0  0  0  0  0  0  0  0  0  0  0
    7.9196   -0.8359   -1.1663 F   0  0  0  0  0  0  0  0  0  0  0  0
    1.9278    2.5670   -0.8361 O   0  0  0  0  0  0  0  0  0  0  0  0
    3.2423    7.0255    0.1823 O   0  0  0  0  0  0  0  0  0  0  0  0
    3.5077    4.8934    0.9678 N   0  0  0  0  0  0  0  0  0  0  0  0
    3.5119    1.9669    0.6471 N   0  0  0  0  0  0  0  0  0  0  0  0
    2.7302    7.9154    2.9372 N   0  0  0  0  0  0  0  0  0  0  0  0
    2.8700    6.5380    4.6199 N   0  0  0  0  0  0  0  0  0  0  0  0
    3.1231    5.7513    3.5600 N   0  0  0  0  0  0  0  0  0  0  0  0
    3.5962    4.2541   -0.3388 C   0  0  1  0  0  0  0  0  0  0  0  0
    5.0162    4.2430   -0.8938 C   0  0  0  0  0  0  0  0  0  0  0  0
    6.0196    3.5011   -0.0187 C   0  0  0  0  0  0  0  0  0  0  0  0
    5.8810    2.0052   -0.1159 C   0  0  0  0  0  0  0  0  0  0  0  0
    2.9555    2.8717   -0.2311 C   0  0  0  0  0  0  0  0  0  0  0  0
    4.7214    1.3235    0.2708 C   0  0  0  0  0  0  0  0  0  0  0  0
    6.9673    1.2455   -0.5887 C   0  0  0  0  0  0  0  0  0  0  0  0
    4.6860   -0.0811    0.2264 C   0  0  0  0  0  0  0  0  0  0  0  0
    3.2682    6.2399    1.1275 C   0  0  0  0  0  0  0  0  0  0  0  0
    6.8843   -0.1449   -0.6735 C   0  0  0  0  0  0  0  0  0  0  0  0
    5.7516   -0.8219   -0.2611 C   0  0  0  0  0  0  0  0  0  0  0  0
    3.0468    6.6335    2.5367 C   0  0  0  0  0  0  0  0  0  0  0  0
    2.6308    7.8278    4.2456 C   0  0  0  0  0  0  0  0  0  0  0  0
    2.3393    8.9192    5.2177 C   0  0  0  0  0  0  0  0  0  0  0  0
    3.5941    9.5599    5.7671 C   0  0  0  0  0  0  0  0  0  0  0  0
    4.4990   10.1933    4.9008 C   0  0  0  0  0  0  0  0  0  0  0  0
    3.8727    9.5421    7.1407 C   0  0  0  0  0  0  0  0  0  0  0  0
    5.6688   10.7721    5.3928 C   0  0  0  0  0  0  0  0  0  0  0  0
    5.0439   10.1253    7.6316 C   0  0  0  0  0  0  0  0  0  0  0  0
    5.9433   10.7334    6.7574 C   0  0  0  0  0  0  0  0  0  0  0  0
    3.4842    4.3279    1.8147 H   0  0  0  0  0  0  0  0  0  0  0  0
    2.8039    1.2576    0.8414 H   0  0  0  0  0  0  0  0  0  0  0  0
    2.8795    6.1400    5.5521 H   0  0  0  0  0  0  0  0  0  0  0  0
    2.9705    4.8300   -1.0337 H   0  0  0  0  0  0  0  0  0  0  0  0
    5.0127    3.8088   -1.9022 H   0  0  0  0  0  0  0  0  0  0  0  0
    5.3567    5.2811   -0.9983 H   0  0  0  0  0  0  0  0  0  0  0  0
    7.0276    3.7940   -0.3409 H   0  0  0  0  0  0  0  0  0  0  0  0
    5.9482    3.8064    1.0328 H   0  0  0  0  0  0  0  0  0  0  0  0
    7.8888    1.7255   -0.9109 H   0  0  0  0  0  0  0  0  0  0  0  0
    5.6843   -1.8999   -0.3377 H   0  0  0  0  0  0  0  0  0  0  0  0
    1.7325    9.6938    4.7329 H   0  0  0  0  0  0  0  0  0  0  0  0
    1.7270    8.5221    6.0377 H   0  0  0  0  0  0  0  0  0  0  0  0
    4.2978   10.2321    3.8296 H   0  0  0  0  0  0  0  0  0  0  0  0
    3.1826    9.0808    7.8430 H   0  0  0  0  0  0  0  0  0  0  0  0
    6.3659   11.2500    4.7085 H   0  0  0  0  0  0  0  0  0  0  0  0
    5.2554   10.1069    8.6976 H   0  0  0  0  0  0  0  0  0  0  0  0
    6.8573   11.1808    7.1398 H   0  0  0  0  0  0  0  0  0  0  0  0
  1 17  1  0  0  0  0
  2 19  1  0  0  0  0
  3 14  2  0  0  0  0
  4 18  2  0  0  0  0
  5 18  1  0  0  0  0
  5 30  1  0  0  0  0
  6 14  1  0  0  0  0
  6 15  1  0  0  0  0
  6 31  1  0  0  0  0
  7 21  1  0  0  0  0
  7 22  2  0  0  0  0
  8  9  1  0  0  0  0
  8 22  1  0  0  0  0
  8 32  1  0  0  0  0
  9 21  2  0  0  0  0
 10  5  1  0  0  0  0
 10 11  1  0  0  0  0
 10 14  1  0  0  0  0
 10 33  1  6  0  0  0
 11 12  1  0  0  0  0
 11 34  1  0  0  0  0
 11 35  1  0  0  0  0
 12 13  1  0  0  0  0
 12 36  1  0  0  0  0
 12 37  1  0  0  0  0
 13 15  2  0  0  0  0
 13 16  1  0  0  0  0
 15 17  1  0  0  0  0
 16 19  2  0  0  0  0
 16 38  1  0  0  0  0
 17 20  2  0  0  0  0
 18 21  1  0  0  0  0
 19 20  1  0  0  0  0
 20 39  1  0  0  0  0
 22 23  1  0  0  0  0
 23 24  1  0  0  0  0
 23 40  1  0  0  0  0
 23 41  1  0  0  0  0
 24 25  2  0  0  0  0
 24 26  1  0  0  0  0
 25 27  1  0  0  0  0
 25 42  1  0  0  0  0
 26 28  2  0  0  0  0
 26 43  1  0  0  0  0
 27 29  2  0  0  0  0
 27 44  1  0  0  0  0
 28 29  1  0  0  0  0
 28 45  1  0  0  0  0
 29 46  1  0  0  0  0
M  END
>  <Mol_ID>
5222

>  <Formula>
C20H17F2N5O2

>  <MolWeight>
397.3780864

>  <Cat>
S8845

>  <Name>
GSK3145095

>  <Synonyms>
N/A

>  <Target>
RIP kinase

>  <Form>
free base

>  <CAS>
1622849-43-7

>  <URL>
http://www.selleckchem.com/products/gsk3145095.html

$$$$
