GSK3326595 (EPZ015938).cdx
 OpenBabel08302520433D

 65 68  0  0  0  0  0  0  0  0999 V2000
   -1.3696    0.7571    4.1287 N   0  0  0  0  0  0  0  0  0  0  0  0
   -2.6563    0.0881    3.9618 C   0  0  0  0  0  0  0  0  0  0  0  0
   -2.8131   -0.3961    2.5252 C   0  0  0  0  0  0  0  0  0  0  0  0
   -2.6256    0.7565    1.5259 C   0  0  0  0  0  0  0  0  0  0  0  0
   -1.3183    1.5161    1.7924 C   0  0  0  0  0  0  0  0  0  0  0  0
   -1.1919    1.9210    3.2598 C   0  0  0  0  0  0  0  0  0  0  0  0
   -0.3198    0.3749    4.9519 C   0  0  0  0  0  0  0  0  0  0  0  0
   -0.4391   -0.8714    5.7982 C   0  0  0  0  0  0  0  0  0  0  0  0
    0.7268    1.0186    5.0145 O   0  0  0  0  0  0  0  0  0  0  0  0
   -2.5920    0.2140    0.1534 N   0  0  0  0  0  0  0  0  0  0  0  0
   -3.8403    0.1182   -0.4733 C   0  0  0  0  0  0  0  0  0  0  0  0
   -4.0198   -0.8557   -1.4217 C   0  0  0  0  0  0  0  0  0  0  0  0
   -5.2775   -0.9524   -1.9596 C   0  0  0  0  0  0  0  0  0  0  0  0
   -6.3092   -0.1295   -1.6677 N   0  0  0  0  0  0  0  0  0  0  0  0
   -6.0000    0.8150   -0.7702 C   0  0  0  0  0  0  0  0  0  0  0  0
   -4.8199    0.9778   -0.1549 N   0  0  0  0  0  0  0  0  0  0  0  0
   -5.5070   -2.1286   -2.8484 C   0  0  0  0  0  0  0  0  0  0  0  0
   -6.7567   -2.2487   -3.4186 N   0  0  0  0  0  0  0  0  0  0  0  0
   -4.6174   -2.9277   -3.0388 O   0  0  0  0  0  0  0  0  0  0  0  0
   -7.0315   -3.3948   -4.2673 C   0  0  0  0  0  0  0  0  0  0  0  0
   -7.5550   -4.6376   -3.4992 C   0  0  1  0  0  0  0  0  0  0  0  0
   -8.9003   -4.3864   -2.7439 C   0  0  0  0  0  0  0  0  0  0  0  0
   -7.6362   -5.7415   -4.4110 O   0  0  0  0  0  0  0  0  0  0  0  0
   -9.4982   -5.5433   -2.0309 N   0  0  0  0  0  0  0  0  0  0  0  0
   -8.6119   -6.0140   -0.9207 C   0  0  0  0  0  0  0  0  0  0  0  0
   -9.3372   -6.5631    0.3027 C   0  0  0  0  0  0  0  0  0  0  0  0
  -10.4911   -5.8884    0.7514 C   0  0  0  0  0  0  0  0  0  0  0  0
  -11.0061   -4.7922   -0.1310 C   0  0  0  0  0  0  0  0  0  0  0  0
  -10.8916   -5.3431   -1.5631 C   0  0  0  0  0  0  0  0  0  0  0  0
   -8.8885   -7.6686    1.0230 C   0  0  0  0  0  0  0  0  0  0  0  0
   -9.5973   -8.0935    2.1534 C   0  0  0  0  0  0  0  0  0  0  0  0
  -10.7307   -7.4027    2.5931 C   0  0  0  0  0  0  0  0  0  0  0  0
  -11.1765   -6.2876    1.8971 C   0  0  0  0  0  0  0  0  0  0  0  0
   -3.4387    0.8162    4.2079 H   0  0  0  0  0  0  0  0  0  0  0  0
   -2.7905   -0.7522    4.6403 H   0  0  0  0  0  0  0  0  0  0  0  0
   -3.8038   -0.8460    2.3920 H   0  0  0  0  0  0  0  0  0  0  0  0
   -2.0754   -1.1840    2.3250 H   0  0  0  0  0  0  0  0  0  0  0  0
   -3.4524    1.4658    1.6698 H   0  0  0  0  0  0  0  0  0  0  0  0
   -0.4621    0.8871    1.5158 H   0  0  0  0  0  0  0  0  0  0  0  0
   -1.2681    2.4118    1.1612 H   0  0  0  0  0  0  0  0  0  0  0  0
   -0.2231    2.4040    3.4222 H   0  0  0  0  0  0  0  0  0  0  0  0
   -1.9639    2.6534    3.5263 H   0  0  0  0  0  0  0  0  0  0  0  0
    0.3700   -1.5546    5.5222 H   0  0  0  0  0  0  0  0  0  0  0  0
   -0.3241   -0.5871    6.8483 H   0  0  0  0  0  0  0  0  0  0  0  0
   -1.3716   -1.4177    5.7037 H   0  0  0  0  0  0  0  0  0  0  0  0
   -2.1274   -0.6926    0.1050 H   0  0  0  0  0  0  0  0  0  0  0  0
   -3.2460   -1.5679   -1.6728 H   0  0  0  0  0  0  0  0  0  0  0  0
   -6.7723    1.5239   -0.4947 H   0  0  0  0  0  0  0  0  0  0  0  0
   -7.3467   -1.4255   -3.4227 H   0  0  0  0  0  0  0  0  0  0  0  0
   -7.6997   -3.0550   -5.0673 H   0  0  0  0  0  0  0  0  0  0  0  0
   -6.1077   -3.6809   -4.7901 H   0  0  0  0  0  0  0  0  0  0  0  0
   -6.7915   -4.9006   -2.7588 H   0  0  0  0  0  0  0  0  0  0  0  0
   -8.7171   -3.5867   -2.0175 H   0  0  0  0  0  0  0  0  0  0  0  0
   -9.6128   -3.9899   -3.4835 H   0  0  0  0  0  0  0  0  0  0  0  0
   -8.5747   -5.9771   -4.5111 H   0  0  0  0  0  0  0  0  0  0  0  0
   -7.9424   -6.7690   -1.3415 H   0  0  0  0  0  0  0  0  0  0  0  0
   -7.9847   -5.1958   -0.5399 H   0  0  0  0  0  0  0  0  0  0  0  0
  -10.4007   -3.8947    0.0282 H   0  0  0  0  0  0  0  0  0  0  0  0
  -12.0497   -4.5502    0.1033 H   0  0  0  0  0  0  0  0  0  0  0  0
  -11.5113   -4.7528   -2.2492 H   0  0  0  0  0  0  0  0  0  0  0  0
  -11.3661   -6.3400   -1.5900 H   0  0  0  0  0  0  0  0  0  0  0  0
   -8.0065   -8.2170    0.7030 H   0  0  0  0  0  0  0  0  0  0  0  0
   -9.2690   -8.9753    2.6962 H   0  0  0  0  0  0  0  0  0  0  0  0
  -11.2795   -7.7440    3.4658 H   0  0  0  0  0  0  0  0  0  0  0  0
  -12.0715   -5.7604    2.2163 H   0  0  0  0  0  0  0  0  0  0  0  0
  1  2  1  0  0  0  0
  1  7  1  0  0  0  0
  2  3  1  0  0  0  0
  2 34  1  0  0  0  0
  2 35  1  0  0  0  0
  3  4  1  0  0  0  0
  3 36  1  0  0  0  0
  3 37  1  0  0  0  0
  4  5  1  0  0  0  0
  4 10  1  0  0  0  0
  4 38  1  0  0  0  0
  5  6  1  0  0  0  0
  5 39  1  0  0  0  0
  5 40  1  0  0  0  0
  6  1  1  0  0  0  0
  6 41  1  0  0  0  0
  6 42  1  0  0  0  0
  7  8  1  0  0  0  0
  7  9  2  0  0  0  0
  8 43  1  0  0  0  0
  8 44  1  0  0  0  0
  8 45  1  0  0  0  0
 10 11  1  0  0  0  0
 10 46  1  0  0  0  0
 11 12  2  0  0  0  0
 12 13  1  0  0  0  0
 12 47  1  0  0  0  0
 13 14  2  0  0  0  0
 13 17  1  0  0  0  0
 14 15  1  0  0  0  0
 15 16  2  0  0  0  0
 15 48  1  0  0  0  0
 16 11  1  0  0  0  0
 17 18  1  0  0  0  0
 17 19  2  0  0  0  0
 18 20  1  0  0  0  0
 18 49  1  0  0  0  0
 20 21  1  0  0  0  0
 20 50  1  0  0  0  0
 20 51  1  0  0  0  0
 21 22  1  0  0  0  0
 21 23  1  0  0  0  0
 21 52  1  1  0  0  0
 22 24  1  0  0  0  0
 22 53  1  0  0  0  0
 22 54  1  0  0  0  0
 23 55  1  0  0  0  0
 24 25  1  0  0  0  0
 25 26  1  0  0  0  0
 25 56  1  0  0  0  0
 25 57  1  0  0  0  0
 26 27  2  0  0  0  0
 26 30  1  0  0  0  0
 27 28  1  0  0  0  0
 28 29  1  0  0  0  0
 28 58  1  0  0  0  0
 28 59  1  0  0  0  0
 29 24  1  0  0  0  0
 29 60  1  0  0  0  0
 29 61  1  0  0  0  0
 30 31  2  0  0  0  0
 30 62  1  0  0  0  0
 31 32  1  0  0  0  0
 31 63  1  0  0  0  0
 32 33  2  0  0  0  0
 32 64  1  0  0  0  0
 33 27  1  0  0  0  0
 33 65  1  0  0  0  0
M  END
>  <Mol_ID>
4180

>  <Formula>
C24H32N6O3

>  <MolWeight>
452.54928

>  <Cat>
S8664

>  <Name>
Pemrametostat (GSK3326595)

>  <Synonyms>
EPZ015938

>  <Target>
Histone Methyltransferase,PRMT

>  <Form>
free base

>  <CAS>
1616392-22-3

>  <URL>
http://selleckchem.com/products/gsk3326595-epz015938.html

$$$$
