GSK3117391
 OpenBabel08302521283D

 62 64  0  0  0  0  0  0  0  0999 V2000
    2.4656    0.7036   -1.1875 O   0  0  0  0  0  0  0  0  0  0  0  0
    0.9202    0.5476    0.5017 O   0  0  0  0  0  0  0  0  0  0  0  0
    2.3291   -0.8392   11.3584 O   0  0  0  0  0  0  0  0  0  0  0  0
    3.7704    2.3088   10.8159 O   0  0  0  0  0  0  0  0  0  0  0  0
    2.7920   -0.7584    2.0604 N   0  0  0  0  0  0  0  0  0  0  0  0
    3.9930   -1.0369    6.6428 N   0  0  0  0  0  0  0  0  0  0  0  0
    3.0013    1.3078   11.4360 N   0  0  0  0  0  0  0  0  0  0  0  0
    2.6920   -2.2936   -0.0107 C   0  0  0  0  0  0  0  0  0  0  0  0
    2.8718   -2.4022   -1.5434 C   0  0  0  0  0  0  0  0  0  0  0  0
    1.3273   -2.9062    0.3477 C   0  0  0  0  0  0  0  0  0  0  0  0
    2.9305   -0.8722    0.5785 C   0  0  1  0  0  0  0  0  0  0  0  0
    2.8060   -3.8661   -2.0078 C   0  0  0  0  0  0  0  0  0  0  0  0
    1.3149   -4.3897   -0.0240 C   0  0  0  0  0  0  0  0  0  0  0  0
    1.5548   -4.5960   -1.5162 C   0  0  0  0  0  0  0  0  0  0  0  0
    1.7766    1.8252   -1.7746 C   0  0  0  0  0  0  0  0  0  0  0  0
    0.3412    1.5404   -2.2124 C   0  0  0  0  0  0  0  0  0  0  0  0
    2.4643    2.1439   -3.0997 C   0  0  0  0  0  0  0  0  0  0  0  0
    1.9721    0.1980   -0.0244 C   0  0  0  0  0  0  0  0  0  0  0  0
    0.0760    2.4734   -3.3938 C   0  0  0  0  0  0  0  0  0  0  0  0
    1.4398    2.9271   -3.9040 C   0  0  0  0  0  0  0  0  0  0  0  0
    3.5137   -1.7080    2.9050 C   0  0  0  0  0  0  0  0  0  0  0  0
    3.2058   -1.4809    4.3729 C   0  0  0  0  0  0  0  0  0  0  0  0
    1.9079   -1.6000    4.8843 C   0  0  0  0  0  0  0  0  0  0  0  0
    4.2017   -1.1906    5.3064 C   0  0  0  0  0  0  0  0  0  0  0  0
    1.6631   -1.4340    6.2459 C   0  0  0  0  0  0  0  0  0  0  0  0
    2.7273   -1.1615    7.1030 C   0  0  0  0  0  0  0  0  0  0  0  0
    2.5092   -1.1133    8.6001 C   0  0  0  0  0  0  0  0  0  0  0  0
    3.0070    0.1708    9.2578 C   0  0  0  0  0  0  0  0  0  0  0  0
    2.7615    0.1450   10.7592 C   0  0  0  0  0  0  0  0  0  0  0  0
    3.0826    2.9058   10.4634 H   0  0  0  0  0  0  0  0  0  0  0  0
    1.7969   -0.7629    2.2866 H   0  0  0  0  0  0  0  0  0  0  0  0
    3.0655    1.2419   12.4527 H   0  0  0  0  0  0  0  0  0  0  0  0
    3.4718   -2.9340    0.4250 H   0  0  0  0  0  0  0  0  0  0  0  0
    2.0877   -1.8371   -2.0631 H   0  0  0  0  0  0  0  0  0  0  0  0
    3.8334   -1.9754   -1.8496 H   0  0  0  0  0  0  0  0  0  0  0  0
    1.1111   -2.8077    1.4130 H   0  0  0  0  0  0  0  0  0  0  0  0
    0.5256   -2.3874   -0.1949 H   0  0  0  0  0  0  0  0  0  0  0  0
    3.9530   -0.5551    0.3351 H   0  0  0  0  0  0  0  0  0  0  0  0
    2.8428   -3.9130   -3.1037 H   0  0  0  0  0  0  0  0  0  0  0  0
    3.6933   -4.3977   -1.6430 H   0  0  0  0  0  0  0  0  0  0  0  0
    0.3568   -4.8386    0.2635 H   0  0  0  0  0  0  0  0  0  0  0  0
    2.0933   -4.9128    0.5456 H   0  0  0  0  0  0  0  0  0  0  0  0
    0.6812   -4.2397   -2.0751 H   0  0  0  0  0  0  0  0  0  0  0  0
    1.6472   -5.6681   -1.7271 H   0  0  0  0  0  0  0  0  0  0  0  0
    1.8289    2.6909   -1.1038 H   0  0  0  0  0  0  0  0  0  0  0  0
    0.2256    0.4950   -2.5130 H   0  0  0  0  0  0  0  0  0  0  0  0
   -0.3778    1.7270   -1.4066 H   0  0  0  0  0  0  0  0  0  0  0  0
    3.3936    2.7049   -2.9568 H   0  0  0  0  0  0  0  0  0  0  0  0
    2.7292    1.2173   -3.6226 H   0  0  0  0  0  0  0  0  0  0  0  0
   -0.4912    1.9553   -4.1745 H   0  0  0  0  0  0  0  0  0  0  0  0
   -0.5172    3.3428   -3.0878 H   0  0  0  0  0  0  0  0  0  0  0  0
    1.5518    2.7447   -4.9787 H   0  0  0  0  0  0  0  0  0  0  0  0
    1.5619    4.0041   -3.7417 H   0  0  0  0  0  0  0  0  0  0  0  0
    3.2401   -2.7441    2.6800 H   0  0  0  0  0  0  0  0  0  0  0  0
    4.5904   -1.6122    2.7335 H   0  0  0  0  0  0  0  0  0  0  0  0
    1.0771   -1.8395    4.2223 H   0  0  0  0  0  0  0  0  0  0  0  0
    5.2398   -1.0847    5.0053 H   0  0  0  0  0  0  0  0  0  0  0  0
    0.6531   -1.5393    6.6319 H   0  0  0  0  0  0  0  0  0  0  0  0
    1.4390   -1.2321    8.8239 H   0  0  0  0  0  0  0  0  0  0  0  0
    3.0085   -1.9842    9.0412 H   0  0  0  0  0  0  0  0  0  0  0  0
    4.0882    0.2915    9.0920 H   0  0  0  0  0  0  0  0  0  0  0  0
    2.4930    1.0349    8.8331 H   0  0  0  0  0  0  0  0  0  0  0  0
  1 15  1  0  0  0  0
  1 18  1  0  0  0  0
  2 18  2  0  0  0  0
  3 29  2  0  0  0  0
  4  7  1  0  0  0  0
  4 30  1  0  0  0  0
  5 21  1  0  0  0  0
  5 31  1  0  0  0  0
  6 24  2  0  0  0  0
  6 26  1  0  0  0  0
  7 29  1  0  0  0  0
  7 32  1  0  0  0  0
  8  9  1  0  0  0  0
  8 10  1  0  0  0  0
  8 33  1  0  0  0  0
  9 12  1  0  0  0  0
  9 34  1  0  0  0  0
  9 35  1  0  0  0  0
 10 13  1  0  0  0  0
 10 36  1  0  0  0  0
 10 37  1  0  0  0  0
 11 18  1  0  0  0  0
 11 38  1  6  0  0  0
 11  5  1  0  0  0  0
 11  8  1  0  0  0  0
 12 14  1  0  0  0  0
 12 39  1  0  0  0  0
 12 40  1  0  0  0  0
 13 14  1  0  0  0  0
 13 41  1  0  0  0  0
 13 42  1  0  0  0  0
 14 43  1  0  0  0  0
 14 44  1  0  0  0  0
 15 16  1  0  0  0  0
 15 17  1  0  0  0  0
 15 45  1  0  0  0  0
 16 19  1  0  0  0  0
 16 46  1  0  0  0  0
 16 47  1  0  0  0  0
 17 20  1  0  0  0  0
 17 48  1  0  0  0  0
 17 49  1  0  0  0  0
 19 20  1  0  0  0  0
 19 50  1  0  0  0  0
 19 51  1  0  0  0  0
 20 52  1  0  0  0  0
 20 53  1  0  0  0  0
 21 22  1  0  0  0  0
 21 54  1  0  0  0  0
 21 55  1  0  0  0  0
 22 23  2  0  0  0  0
 22 24  1  0  0  0  0
 23 25  1  0  0  0  0
 23 56  1  0  0  0  0
 24 57  1  0  0  0  0
 25 26  2  0  0  0  0
 25 58  1  0  0  0  0
 26 27  1  0  0  0  0
 27 28  1  0  0  0  0
 27 59  1  0  0  0  0
 27 60  1  0  0  0  0
 28 29  1  0  0  0  0
 28 61  1  0  0  0  0
 28 62  1  0  0  0  0
M  END
>  <Mol_ID>
5418

>  <Formula>
C22H33N3O4

>  <MolWeight>
403.51512

>  <Cat>
S1313

>  <Name>
GSK3117391

>  <Synonyms>
GSK3117391A, HDAC-IN-3

>  <Target>
HDAC

>  <Form>
Free Base

>  <CAS>
1018673-42-1

>  <URL>
https://www.selleckchem.com/products/gsk3117391.html

$$$$
