GSK3787.cdx
 OpenBabel08302520413D

 37 38  0  0  0  0  0  0  0  0999 V2000
   -5.0517    2.7154   -2.0295 C   0  0  0  0  0  0  0  0  0  0  0  0
   -4.1388    2.6637   -1.0348 N   0  0  0  0  0  0  0  0  0  0  0  0
   -2.8364    2.6517   -1.4166 C   0  0  0  0  0  0  0  0  0  0  0  0
   -2.3948    2.6647   -2.7285 C   0  0  0  0  0  0  0  0  0  0  0  0
   -3.3659    2.7072   -3.7266 C   0  0  0  0  0  0  0  0  0  0  0  0
   -4.7263    2.7430   -3.3791 C   0  0  0  0  0  0  0  0  0  0  0  0
   -1.6629    2.6503   -0.0750 S   0  0  0  0  0  0  0  0  0  0  0  0
   -5.8042    2.8255   -4.4187 C   0  0  0  0  0  0  0  0  0  0  0  0
   -7.0601    2.8689   -3.8951 F   0  0  0  0  0  0  0  0  0  0  0  0
   -5.6883    3.9333   -5.2012 F   0  0  0  0  0  0  0  0  0  0  0  0
   -5.7906    1.7625   -5.2679 F   0  0  0  0  0  0  0  0  0  0  0  0
   -0.9158    3.8927   -0.1702 O   0  0  0  0  0  0  0  0  0  0  0  0
   -2.6623    2.6964    1.3894 C   0  0  0  0  0  0  0  0  0  0  0  0
   -0.9795    1.3699   -0.1153 O   0  0  0  0  0  0  0  0  0  0  0  0
   -1.8003    2.7349    2.6384 C   0  0  0  0  0  0  0  0  0  0  0  0
   -2.5912    2.7080    3.8645 N   0  0  0  0  0  0  0  0  0  0  0  0
   -3.4687    3.7238    4.1852 C   0  0  0  0  0  0  0  0  0  0  0  0
   -4.2244    3.5845    5.4586 C   0  0  0  0  0  0  0  0  0  0  0  0
   -3.6690    4.6917    3.4602 O   0  0  0  0  0  0  0  0  0  0  0  0
   -3.6871    2.9310    6.5741 C   0  0  0  0  0  0  0  0  0  0  0  0
   -4.4238    2.8592    7.7599 C   0  0  0  0  0  0  0  0  0  0  0  0
   -5.6901    3.4404    7.8361 C   0  0  0  0  0  0  0  0  0  0  0  0
   -6.2271    4.0942    6.7284 C   0  0  0  0  0  0  0  0  0  0  0  0
   -5.4949    4.1701    5.5427 C   0  0  0  0  0  0  0  0  0  0  0  0
   -6.0873    2.7404   -1.6935 H   0  0  0  0  0  0  0  0  0  0  0  0
   -1.3361    2.6517   -2.9664 H   0  0  0  0  0  0  0  0  0  0  0  0
   -3.0651    2.7231   -4.7732 H   0  0  0  0  0  0  0  0  0  0  0  0
   -3.2975    3.5815    1.3172 H   0  0  0  0  0  0  0  0  0  0  0  0
   -3.2960    1.8019    1.3940 H   0  0  0  0  0  0  0  0  0  0  0  0
   -1.1316    1.8682    2.6773 H   0  0  0  0  0  0  0  0  0  0  0  0
   -1.1791    3.6362    2.6588 H   0  0  0  0  0  0  0  0  0  0  0  0
   -2.5230    1.8926    4.4593 H   0  0  0  0  0  0  0  0  0  0  0  0
   -2.6895    2.5058    6.5519 H   0  0  0  0  0  0  0  0  0  0  0  0
   -4.0032    2.3640    8.6315 H   0  0  0  0  0  0  0  0  0  0  0  0
   -6.2546    3.3942    8.7645 H   0  0  0  0  0  0  0  0  0  0  0  0
   -7.2109    4.5541    6.7894 H   0  0  0  0  0  0  0  0  0  0  0  0
   -5.9148    4.6909    4.6839 H   0  0  0  0  0  0  0  0  0  0  0  0
  1  2  2  0  0  0  0
  1 25  1  0  0  0  0
  2  3  1  0  0  0  0
  3  4  2  0  0  0  0
  3  7  1  0  0  0  0
  4  5  1  0  0  0  0
  4 26  1  0  0  0  0
  5  6  2  0  0  0  0
  5 27  1  0  0  0  0
  6  1  1  0  0  0  0
  6  8  1  0  0  0  0
  7 12  2  0  0  0  0
  7 13  1  0  0  0  0
  7 14  2  0  0  0  0
  8  9  1  0  0  0  0
  8 10  1  0  0  0  0
  8 11  1  0  0  0  0
 13 15  1  0  0  0  0
 13 28  1  0  0  0  0
 13 29  1  0  0  0  0
 15 16  1  0  0  0  0
 15 30  1  0  0  0  0
 15 31  1  0  0  0  0
 16 17  1  0  0  0  0
 16 32  1  0  0  0  0
 17 18  1  0  0  0  0
 17 19  2  0  0  0  0
 18 20  2  0  0  0  0
 20 21  1  0  0  0  0
 20 33  1  0  0  0  0
 21 22  2  0  0  0  0
 21 34  1  0  0  0  0
 22 23  1  0  0  0  0
 22 35  1  0  0  0  0
 23 24  2  0  0  0  0
 23 36  1  0  0  0  0
 24 18  1  0  0  0  0
 24 37  1  0  0  0  0
M  END
>  <Mol_ID>
3884

>  <Formula>
C15H12ClF3N2O3S

>  <MolWeight>
392.7805896

>  <Cat>
S8025

>  <Name>
GSK3787

>  <Synonyms>
N/A

>  <Target>
PPAR

>  <Form>
free base

>  <CAS>
188591-46-0

>  <URL>
http://selleckchem.com/products/gsk3787.html

$$$$
