GSK467
 OpenBabel08302521353D

 37 40  0  0  0  0  0  0  0  0999 V2000
    1.0153    0.0305    0.1610 O   0  0  0  0  0  0  0  0  0  0  0  0
   -2.4180    2.6882   -1.3722 O   0  0  0  0  0  0  0  0  0  0  0  0
   -0.4679   -3.1057    0.5365 N   0  0  0  0  0  0  0  0  0  0  0  0
   -0.9600   -2.8378   -0.6955 N   0  0  0  0  0  0  0  0  0  0  0  0
   -0.7833    1.3123   -0.5735 N   0  0  0  0  0  0  0  0  0  0  0  0
    1.4603    2.0537   -0.7404 N   0  0  0  0  0  0  0  0  0  0  0  0
    1.6084    5.4937   -2.1008 N   0  0  0  0  0  0  0  0  0  0  0  0
   -0.7923   -4.3755    1.1780 C   0  0  0  0  0  0  0  0  0  0  0  0
   -2.0476   -4.2806    2.0115 C   0  0  0  0  0  0  0  0  0  0  0  0
    0.3576   -2.1212    1.0169 C   0  0  0  0  0  0  0  0  0  0  0  0
    0.3102   -1.1180    0.0797 C   0  0  0  0  0  0  0  0  0  0  0  0
   -0.2636    3.5628   -1.4549 C   0  0  0  0  0  0  0  0  0  0  0  0
   -0.5249   -1.6001   -0.9447 C   0  0  0  0  0  0  0  0  0  0  0  0
   -3.2744   -3.9323    1.4225 C   0  0  0  0  0  0  0  0  0  0  0  0
   -2.0149   -4.5511    3.3869 C   0  0  0  0  0  0  0  0  0  0  0  0
    1.0878    3.2875   -1.2558 C   0  0  0  0  0  0  0  0  0  0  0  0
    0.4875    1.1559   -0.4108 C   0  0  0  0  0  0  0  0  0  0  0  0
   -1.2337    2.4873   -1.1284 C   0  0  0  0  0  0  0  0  0  0  0  0
   -4.4291   -3.8143    2.1956 C   0  0  0  0  0  0  0  0  0  0  0  0
   -3.1737   -4.4392    4.1584 C   0  0  0  0  0  0  0  0  0  0  0  0
   -0.6893    4.7945   -1.9460 C   0  0  0  0  0  0  0  0  0  0  0  0
   -4.3773   -4.0617    3.5646 C   0  0  0  0  0  0  0  0  0  0  0  0
    1.9793    4.2833   -1.6180 C   0  0  0  0  0  0  0  0  0  0  0  0
    0.2836    5.7263   -2.2444 C   0  0  0  0  0  0  0  0  0  0  0  0
    2.4235    1.8432   -0.5255 H   0  0  0  0  0  0  0  0  0  0  0  0
   -0.9085   -5.1319    0.3931 H   0  0  0  0  0  0  0  0  0  0  0  0
    0.0744   -4.6582    1.7864 H   0  0  0  0  0  0  0  0  0  0  0  0
    0.8615   -2.2094    1.9667 H   0  0  0  0  0  0  0  0  0  0  0  0
   -0.8166   -1.1178   -1.8681 H   0  0  0  0  0  0  0  0  0  0  0  0
   -3.3339   -3.7303    0.3531 H   0  0  0  0  0  0  0  0  0  0  0  0
   -1.0873   -4.8453    3.8725 H   0  0  0  0  0  0  0  0  0  0  0  0
   -5.3648   -3.5201    1.7275 H   0  0  0  0  0  0  0  0  0  0  0  0
   -3.1380   -4.6401    5.2256 H   0  0  0  0  0  0  0  0  0  0  0  0
   -1.7418    5.0164   -2.0865 H   0  0  0  0  0  0  0  0  0  0  0  0
   -5.2750   -3.9587    4.1682 H   0  0  0  0  0  0  0  0  0  0  0  0
    3.0534    4.1451   -1.5315 H   0  0  0  0  0  0  0  0  0  0  0  0
    0.0201    6.7117   -2.6195 H   0  0  0  0  0  0  0  0  0  0  0  0
  1 11  1  0  0  0  0
  1 17  1  0  0  0  0
  2 18  2  0  0  0  0
  3  4  1  0  0  0  0
  3  8  1  0  0  0  0
  3 10  1  0  0  0  0
  4 13  2  0  0  0  0
  5 17  2  0  0  0  0
  5 18  1  0  0  0  0
  6 16  1  0  0  0  0
  6 17  1  0  0  0  0
  6 25  1  0  0  0  0
  7 23  2  0  0  0  0
  7 24  1  0  0  0  0
  8  9  1  0  0  0  0
  8 26  1  0  0  0  0
  8 27  1  0  0  0  0
  9 14  2  0  0  0  0
  9 15  1  0  0  0  0
 10 11  2  0  0  0  0
 10 28  1  0  0  0  0
 11 13  1  0  0  0  0
 12 16  2  0  0  0  0
 12 18  1  0  0  0  0
 12 21  1  0  0  0  0
 13 29  1  0  0  0  0
 14 19  1  0  0  0  0
 14 30  1  0  0  0  0
 15 20  2  0  0  0  0
 15 31  1  0  0  0  0
 16 23  1  0  0  0  0
 19 22  2  0  0  0  0
 19 32  1  0  0  0  0
 20 22  1  0  0  0  0
 20 33  1  0  0  0  0
 21 24  2  0  0  0  0
 21 34  1  0  0  0  0
 22 35  1  0  0  0  0
 23 36  1  0  0  0  0
 24 37  1  0  0  0  0
M  END
>  <Mol_ID>
6621

>  <Formula>
C17H13N5O2

>  <MolWeight>
319.31742

>  <Cat>
S0269

>  <Name>
GSK467

>  <Synonyms>
N/A

>  <Target>
Histone Demethylase

>  <Form>
Free base

>  <CAS>
1628332-52-4

>  <URL>
http://www.selleckchem.com/products/gsk467.html

$$$$
