GSK481.cdx
 OpenBabel08302520413D

 47 50  0  0  0  0  0  0  0  0999 V2000
   -2.0122   -1.9094   -0.1955 C   0  0  0  0  0  0  0  0  0  0  0  0
   -1.1993   -2.9796    0.1720 C   0  0  0  0  0  0  0  0  0  0  0  0
    0.1195   -2.7568    0.5900 C   0  0  0  0  0  0  0  0  0  0  0  0
    0.6597   -1.4640    0.6055 C   0  0  0  0  0  0  0  0  0  0  0  0
   -0.1745   -0.4100    0.2207 C   0  0  0  0  0  0  0  0  0  0  0  0
   -1.5046   -0.6141   -0.1508 C   0  0  0  0  0  0  0  0  0  0  0  0
    2.0086   -1.2240    0.9912 N   0  0  0  0  0  0  0  0  0  0  0  0
    2.9152   -0.6179    0.1211 C   0  0  0  0  0  0  0  0  0  0  0  0
    2.6235    0.8129   -0.3847 C   0  0  2  0  0  0  0  0  0  0  0  0
    1.1843    1.0768   -0.8085 C   0  0  0  0  0  0  0  0  0  0  0  0
    0.2671    0.8813    0.2652 O   0  0  0  0  0  0  0  0  0  0  0  0
    3.6085    1.1109   -1.4397 N   0  0  0  0  0  0  0  0  0  0  0  0
    4.0369   -1.1153   -0.0697 O   0  0  0  0  0  0  0  0  0  0  0  0
    2.5368   -1.9413    2.1409 C   0  0  0  0  0  0  0  0  0  0  0  0
    3.6849    2.3195   -2.0934 C   0  0  0  0  0  0  0  0  0  0  0  0
    4.8867    2.5350   -2.8943 C   0  0  0  0  0  0  0  0  0  0  0  0
    2.8118    3.1787   -2.0303 O   0  0  0  0  0  0  0  0  0  0  0  0
    6.0101    1.8163   -2.7273 N   0  0  0  0  0  0  0  0  0  0  0  0
    6.9401    2.3647   -3.5971 O   0  0  0  0  0  0  0  0  0  0  0  0
    6.3697    3.3799   -4.3002 C   0  0  0  0  0  0  0  0  0  0  0  0
    5.0610    3.5134   -3.9080 C   0  0  0  0  0  0  0  0  0  0  0  0
    7.2245    4.0772   -5.2906 C   0  0  0  0  0  0  0  0  0  0  0  0
    7.8358    5.3473   -4.7466 C   0  0  0  0  0  0  0  0  0  0  0  0
    9.0605    5.3075   -4.0648 C   0  0  0  0  0  0  0  0  0  0  0  0
    9.6228    6.4767   -3.5501 C   0  0  0  0  0  0  0  0  0  0  0  0
    8.9657    7.6956   -3.7049 C   0  0  0  0  0  0  0  0  0  0  0  0
    7.7434    7.7471   -4.3724 C   0  0  0  0  0  0  0  0  0  0  0  0
    7.1793    6.5792   -4.8891 C   0  0  0  0  0  0  0  0  0  0  0  0
   -3.0358   -2.0802   -0.5185 H   0  0  0  0  0  0  0  0  0  0  0  0
   -1.5908   -3.9937    0.1235 H   0  0  0  0  0  0  0  0  0  0  0  0
    0.7259   -3.6237    0.8408 H   0  0  0  0  0  0  0  0  0  0  0  0
   -2.1280    0.2307   -0.4184 H   0  0  0  0  0  0  0  0  0  0  0  0
    2.8744    1.4667    0.4621 H   0  0  0  0  0  0  0  0  0  0  0  0
    1.0541    2.1296   -1.0660 H   0  0  0  0  0  0  0  0  0  0  0  0
    0.9090    0.5111   -1.7096 H   0  0  0  0  0  0  0  0  0  0  0  0
    4.4389    0.5204   -1.4738 H   0  0  0  0  0  0  0  0  0  0  0  0
    2.0321   -1.5414    3.0278 H   0  0  0  0  0  0  0  0  0  0  0  0
    2.3775   -3.0183    2.0799 H   0  0  0  0  0  0  0  0  0  0  0  0
    3.6079   -1.7503    2.2628 H   0  0  0  0  0  0  0  0  0  0  0  0
    4.3303    4.2196   -4.2738 H   0  0  0  0  0  0  0  0  0  0  0  0
    8.0231    3.4100   -5.6390 H   0  0  0  0  0  0  0  0  0  0  0  0
    6.6319    4.3145   -6.1834 H   0  0  0  0  0  0  0  0  0  0  0  0
    9.5824    4.3628   -3.9263 H   0  0  0  0  0  0  0  0  0  0  0  0
   10.5719    6.4340   -3.0222 H   0  0  0  0  0  0  0  0  0  0  0  0
    9.4035    8.6041   -3.3002 H   0  0  0  0  0  0  0  0  0  0  0  0
    7.2284    8.6975   -4.4876 H   0  0  0  0  0  0  0  0  0  0  0  0
    6.2226    6.6384   -5.4031 H   0  0  0  0  0  0  0  0  0  0  0  0
  1  2  2  0  0  0  0
  1 29  1  0  0  0  0
  2  3  1  0  0  0  0
  2 30  1  0  0  0  0
  3  4  2  0  0  0  0
  3 31  1  0  0  0  0
  4  5  1  0  0  0  0
  4  7  1  0  0  0  0
  5  6  2  0  0  0  0
  6  1  1  0  0  0  0
  6 32  1  0  0  0  0
  7  8  1  0  0  0  0
  7 14  1  0  0  0  0
  8  9  1  0  0  0  0
  8 13  2  0  0  0  0
  9 10  1  0  0  0  0
  9 33  1  1  0  0  0
  9 12  1  0  0  0  0
 10 11  1  0  0  0  0
 10 34  1  0  0  0  0
 10 35  1  0  0  0  0
 11  5  1  0  0  0  0
 12 15  1  0  0  0  0
 12 36  1  0  0  0  0
 14 37  1  0  0  0  0
 14 38  1  0  0  0  0
 14 39  1  0  0  0  0
 15 16  1  0  0  0  0
 15 17  2  0  0  0  0
 16 18  2  0  0  0  0
 18 19  1  0  0  0  0
 19 20  1  0  0  0  0
 20 21  2  0  0  0  0
 20 22  1  0  0  0  0
 21 16  1  0  0  0  0
 21 40  1  0  0  0  0
 22 23  1  0  0  0  0
 22 41  1  0  0  0  0
 22 42  1  0  0  0  0
 23 24  2  0  0  0  0
 24 25  1  0  0  0  0
 24 43  1  0  0  0  0
 25 26  2  0  0  0  0
 25 44  1  0  0  0  0
 26 27  1  0  0  0  0
 26 45  1  0  0  0  0
 27 28  2  0  0  0  0
 27 46  1  0  0  0  0
 28 23  1  0  0  0  0
 28 47  1  0  0  0  0
M  END
>  <Mol_ID>
3946

>  <Formula>
C21H19N3O4

>  <MolWeight>
377.39326

>  <Cat>
S8169

>  <Name>
GSK481

>  <Synonyms>
N/A

>  <Target>
RIP kinase

>  <Form>
free base

>  <CAS>
1622849-58-4

>  <URL>
http://selleckchem.com/products/gsk481.html

$$$$
