GSK429286A.cdx
 OpenBabel08302520003D

 47 50  0  0  0  0  0  0  0  0999 V2000
   -1.1555   -0.2957    0.1915 C   0  0  0  0  0  0  0  0  0  0  0  0
   -1.1000    1.1909    0.4013 C   0  0  0  0  0  0  0  0  0  0  0  0
    0.1055    1.8266   -0.2733 C   0  0  3  0  0  0  0  0  0  0  0  0
    1.3863    1.0130   -0.0957 C   0  0  0  0  0  0  0  0  0  0  0  0
    1.2990   -0.3357    0.0530 C   0  0  0  0  0  0  0  0  0  0  0  0
    0.0462   -0.9354    0.1285 N   0  0  0  0  0  0  0  0  0  0  0  0
    2.4111   -1.3498    0.0432 C   0  0  0  0  0  0  0  0  0  0  0  0
   -2.2137   -0.9220    0.1678 O   0  0  0  0  0  0  0  0  0  0  0  0
   -0.1562    2.1120   -1.7640 C   0  0  0  0  0  0  0  0  0  0  0  0
    2.6231    1.8707   -0.2557 C   0  0  0  0  0  0  0  0  0  0  0  0
    3.7204    1.4995    0.4604 N   0  0  0  0  0  0  0  0  0  0  0  0
    2.5774    2.9132   -0.9043 O   0  0  0  0  0  0  0  0  0  0  0  0
   -0.0622    3.4314   -2.2367 C   0  0  0  0  0  0  0  0  0  0  0  0
   -0.2433    3.7244   -3.5901 C   0  0  0  0  0  0  0  0  0  0  0  0
   -0.5318    2.7042   -4.5040 C   0  0  0  0  0  0  0  0  0  0  0  0
   -0.6135    1.3852   -4.0407 C   0  0  0  0  0  0  0  0  0  0  0  0
   -0.4239    1.0923   -2.6901 C   0  0  0  0  0  0  0  0  0  0  0  0
   -0.7419    2.9942   -5.9664 C   0  0  0  0  0  0  0  0  0  0  0  0
   -0.6653    4.3171   -6.2813 F   0  0  0  0  0  0  0  0  0  0  0  0
    0.1732    2.3684   -6.7589 F   0  0  0  0  0  0  0  0  0  0  0  0
   -1.9617    2.5766   -6.4068 F   0  0  0  0  0  0  0  0  0  0  0  0
    5.0533    1.8747    0.1671 C   0  0  0  0  0  0  0  0  0  0  0  0
    6.0118    1.4508    1.0920 C   0  0  0  0  0  0  0  0  0  0  0  0
    7.3400    1.2638    0.7417 C   0  0  0  0  0  0  0  0  0  0  0  0
    7.6093    1.4591   -0.6076 C   0  0  0  0  0  0  0  0  0  0  0  0
    6.7761    2.1567   -1.4731 C   0  0  0  0  0  0  0  0  0  0  0  0
    5.4535    2.4200   -1.0693 C   0  0  0  0  0  0  0  0  0  0  0  0
    5.6156    1.0608    2.3141 F   0  0  0  0  0  0  0  0  0  0  0  0
    8.5386    0.9014   -1.4426 N   0  0  0  0  0  0  0  0  0  0  0  0
    8.6575    1.5492   -2.6119 N   0  0  0  0  0  0  0  0  0  0  0  0
    7.5860    2.3529   -2.6175 C   0  0  0  0  0  0  0  0  0  0  0  0
   -2.0375    1.6482    0.0509 H   0  0  0  0  0  0  0  0  0  0  0  0
   -1.0437    1.3509    1.4899 H   0  0  0  0  0  0  0  0  0  0  0  0
    0.2502    2.7868    0.2279 H   0  0  0  0  0  0  0  0  0  0  0  0
   -0.0260   -1.9481    0.0912 H   0  0  0  0  0  0  0  0  0  0  0  0
    2.4419   -1.8766    1.0037 H   0  0  0  0  0  0  0  0  0  0  0  0
    2.2240   -2.0987   -0.7356 H   0  0  0  0  0  0  0  0  0  0  0  0
    3.3969   -0.9333   -0.1550 H   0  0  0  0  0  0  0  0  0  0  0  0
    3.6161    0.8233    1.2074 H   0  0  0  0  0  0  0  0  0  0  0  0
    0.2006    4.2405   -1.5559 H   0  0  0  0  0  0  0  0  0  0  0  0
   -0.1430    4.7555   -3.9248 H   0  0  0  0  0  0  0  0  0  0  0  0
   -0.8197    0.5731   -4.7358 H   0  0  0  0  0  0  0  0  0  0  0  0
   -0.4717    0.0503   -2.3875 H   0  0  0  0  0  0  0  0  0  0  0  0
    8.0527    0.8397    1.4363 H   0  0  0  0  0  0  0  0  0  0  0  0
    4.7527    2.8206   -1.7954 H   0  0  0  0  0  0  0  0  0  0  0  0
    8.9752   -0.0076   -1.3315 H   0  0  0  0  0  0  0  0  0  0  0  0
    7.4176    2.9802   -3.4837 H   0  0  0  0  0  0  0  0  0  0  0  0
  1  2  1  0  0  0  0
  1  8  2  0  0  0  0
  2  3  1  0  0  0  0
  2 32  1  0  0  0  0
  2 33  1  0  0  0  0
  3  4  1  0  0  0  0
  3  9  1  0  0  0  0
  3 34  1  0  0  0  0
  4  5  2  0  0  0  0
  4 10  1  0  0  0  0
  5  6  1  0  0  0  0
  5  7  1  0  0  0  0
  6  1  1  0  0  0  0
  6 35  1  0  0  0  0
  7 36  1  0  0  0  0
  7 37  1  0  0  0  0
  7 38  1  0  0  0  0
  9 13  2  0  0  0  0
 10 11  1  0  0  0  0
 10 12  2  0  0  0  0
 11 22  1  0  0  0  0
 11 39  1  0  0  0  0
 13 14  1  0  0  0  0
 13 40  1  0  0  0  0
 14 15  2  0  0  0  0
 14 41  1  0  0  0  0
 15 16  1  0  0  0  0
 15 18  1  0  0  0  0
 16 17  2  0  0  0  0
 16 42  1  0  0  0  0
 17  9  1  0  0  0  0
 17 43  1  0  0  0  0
 18 19  1  0  0  0  0
 18 20  1  0  0  0  0
 18 21  1  0  0  0  0
 22 23  2  0  0  0  0
 23 24  1  0  0  0  0
 23 28  1  0  0  0  0
 24 25  2  0  0  0  0
 24 44  1  0  0  0  0
 25 26  1  0  0  0  0
 25 29  1  0  0  0  0
 26 27  2  0  0  0  0
 27 22  1  0  0  0  0
 27 45  1  0  0  0  0
 29 30  1  0  0  0  0
 29 46  1  0  0  0  0
 30 31  2  0  0  0  0
 31 26  1  0  0  0  0
 31 47  1  0  0  0  0
M  END
>  <Mol_ID>
277

>  <Formula>
C21H16F4N4O2

>  <MolWeight>
432.3709528

>  <Cat>
S1474

>  <Name>
GSK429286A

>  <Synonyms>
RHO-15

>  <Target>
ROCK

>  <Form>
free base

>  <CAS>
864082-47-3

>  <URL>
http://selleckchem.com/products/GSK429286A.html

$$$$
