GSK621.cdx
 OpenBabel08302519593D

 55 59  0  0  0  0  0  0  0  0999 V2000
   -0.4994    1.1799   -0.4062 C   0  0  0  0  0  0  0  0  0  0  0  0
   -1.3426    0.0665   -0.4440 C   0  0  0  0  0  0  0  0  0  0  0  0
   -0.8990   -1.1517    0.0724 C   0  0  0  0  0  0  0  0  0  0  0  0
    0.4219   -1.2762    0.5087 C   0  0  0  0  0  0  0  0  0  0  0  0
    1.2715   -0.1667    0.5011 C   0  0  0  0  0  0  0  0  0  0  0  0
    0.8208    1.0922    0.0739 C   0  0  0  0  0  0  0  0  0  0  0  0
    1.6794    2.2951    0.1874 C   0  0  0  0  0  0  0  0  0  0  0  0
   -1.8026   -2.2428    0.1722 N   0  0  0  0  0  0  0  0  0  0  0  0
    1.7601    3.2950   -0.8129 C   0  0  0  0  0  0  0  0  0  0  0  0
    2.4917    4.4769   -0.6006 C   0  0  0  0  0  0  0  0  0  0  0  0
    3.2003    4.6310    0.5962 C   0  0  0  0  0  0  0  0  0  0  0  0
    3.1773    3.6432    1.5738 C   0  0  0  0  0  0  0  0  0  0  0  0
    2.4160    2.4947    1.3736 C   0  0  0  0  0  0  0  0  0  0  0  0
    1.1328    3.1040   -2.0209 O   0  0  0  0  0  0  0  0  0  0  0  0
    2.6367    5.5523   -1.4364 O   0  0  0  0  0  0  0  0  0  0  0  0
    1.9165    5.5607   -2.6598 C   0  0  0  0  0  0  0  0  0  0  0  0
   -2.7956   -2.5240   -0.7585 C   0  0  0  0  0  0  0  0  0  0  0  0
   -3.3988   -3.7193   -0.4318 C   0  0  0  0  0  0  0  0  0  0  0  0
   -2.8019   -4.1363    0.7652 C   0  0  0  0  0  0  0  0  0  0  0  0
   -1.8848   -3.2047    1.1667 C   0  0  0  0  0  0  0  0  0  0  0  0
   -3.0402   -5.2392    1.5268 N   0  0  0  0  0  0  0  0  0  0  0  0
   -2.3702   -5.4771    2.7035 C   0  0  0  0  0  0  0  0  0  0  0  0
   -1.4671   -4.4912    3.1407 N   0  0  0  0  0  0  0  0  0  0  0  0
   -1.2453   -3.2741    2.4577 C   0  0  0  0  0  0  0  0  0  0  0  0
   -0.5730   -2.3513    2.9123 O   0  0  0  0  0  0  0  0  0  0  0  0
   -2.6504   -6.5116    3.3146 O   0  0  0  0  0  0  0  0  0  0  0  0
   -0.7904   -4.7039    4.3872 C   0  0  0  0  0  0  0  0  0  0  0  0
   -0.7659   -3.7116    5.3761 C   0  0  0  0  0  0  0  0  0  0  0  0
   -0.1059   -3.9320    6.5851 C   0  0  0  0  0  0  0  0  0  0  0  0
    0.5596   -5.1371    6.8120 C   0  0  0  0  0  0  0  0  0  0  0  0
    0.5561   -6.1318    5.8349 C   0  0  0  0  0  0  0  0  0  0  0  0
   -0.1262   -5.9138    4.6336 C   0  0  0  0  0  0  0  0  0  0  0  0
    1.1784   -7.3468    5.9238 O   0  0  0  0  0  0  0  0  0  0  0  0
    1.8325   -7.6450    7.1502 C   0  0  0  0  0  0  0  0  0  0  0  0
   -0.9055    2.1406   -0.7216 H   0  0  0  0  0  0  0  0  0  0  0  0
   -2.3615    0.2021   -0.7965 H   0  0  0  0  0  0  0  0  0  0  0  0
    0.8195   -2.2221    0.8685 H   0  0  0  0  0  0  0  0  0  0  0  0
    2.2877   -0.2960    0.8706 H   0  0  0  0  0  0  0  0  0  0  0  0
    3.7765    5.5374    0.7642 H   0  0  0  0  0  0  0  0  0  0  0  0
    3.7352    3.7746    2.4974 H   0  0  0  0  0  0  0  0  0  0  0  0
    2.3833    1.7567    2.1740 H   0  0  0  0  0  0  0  0  0  0  0  0
    0.9810    2.1514   -2.1390 H   0  0  0  0  0  0  0  0  0  0  0  0
    2.2902    4.7873   -3.3380 H   0  0  0  0  0  0  0  0  0  0  0  0
    0.8367    5.4804   -2.4950 H   0  0  0  0  0  0  0  0  0  0  0  0
    2.0958    6.5260   -3.1432 H   0  0  0  0  0  0  0  0  0  0  0  0
   -2.9438   -1.8886   -1.6217 H   0  0  0  0  0  0  0  0  0  0  0  0
   -4.1788   -4.2113   -0.9981 H   0  0  0  0  0  0  0  0  0  0  0  0
   -3.7268   -5.9262    1.2442 H   0  0  0  0  0  0  0  0  0  0  0  0
   -1.2833   -2.7656    5.2327 H   0  0  0  0  0  0  0  0  0  0  0  0
   -0.1127   -3.1610    7.3516 H   0  0  0  0  0  0  0  0  0  0  0  0
    1.0698   -5.2662    7.7603 H   0  0  0  0  0  0  0  0  0  0  0  0
   -0.1057   -6.6951    3.8768 H   0  0  0  0  0  0  0  0  0  0  0  0
    2.7127   -7.0081    7.2860 H   0  0  0  0  0  0  0  0  0  0  0  0
    1.1480   -7.5611    8.0007 H   0  0  0  0  0  0  0  0  0  0  0  0
    2.1724   -8.6839    7.1029 H   0  0  0  0  0  0  0  0  0  0  0  0
  1  2  2  0  0  0  0
  1 35  1  0  0  0  0
  2  3  1  0  0  0  0
  2 36  1  0  0  0  0
  3  4  2  0  0  0  0
  3  8  1  0  0  0  0
  4  5  1  0  0  0  0
  4 37  1  0  0  0  0
  5  6  2  0  0  0  0
  5 38  1  0  0  0  0
  6  1  1  0  0  0  0
  6  7  1  0  0  0  0
  7  9  2  0  0  0  0
  8 17  1  0  0  0  0
  9 10  1  0  0  0  0
  9 14  1  0  0  0  0
 10 11  2  0  0  0  0
 10 15  1  0  0  0  0
 11 12  1  0  0  0  0
 11 39  1  0  0  0  0
 12 13  2  0  0  0  0
 12 40  1  0  0  0  0
 13  7  1  0  0  0  0
 13 41  1  0  0  0  0
 14 42  1  0  0  0  0
 15 16  1  0  0  0  0
 16 43  1  0  0  0  0
 16 44  1  0  0  0  0
 16 45  1  0  0  0  0
 17 18  2  0  0  0  0
 17 46  1  0  0  0  0
 18 19  1  0  0  0  0
 18 47  1  0  0  0  0
 19 20  2  0  0  0  0
 19 21  1  0  0  0  0
 20  8  1  0  0  0  0
 21 22  1  0  0  0  0
 21 48  1  0  0  0  0
 22 23  1  0  0  0  0
 22 26  2  0  0  0  0
 23 24  1  0  0  0  0
 23 27  1  0  0  0  0
 24 20  1  0  0  0  0
 24 25  2  0  0  0  0
 27 28  2  0  0  0  0
 28 29  1  0  0  0  0
 28 49  1  0  0  0  0
 29 30  2  0  0  0  0
 29 50  1  0  0  0  0
 30 31  1  0  0  0  0
 30 51  1  0  0  0  0
 31 32  2  0  0  0  0
 31 33  1  0  0  0  0
 32 27  1  0  0  0  0
 32 52  1  0  0  0  0
 33 34  1  0  0  0  0
 34 53  1  0  0  0  0
 34 54  1  0  0  0  0
 34 55  1  0  0  0  0
M  END
>  <Mol_ID>
2623

>  <Formula>
C26H20ClN3O5

>  <MolWeight>
489.9071

>  <Cat>
S7898

>  <Name>
GSK621

>  <Synonyms>
N/A

>  <Target>
AMPK

>  <Form>
free base

>  <CAS>
1346607-05-3

>  <URL>
http://selleckchem.com/products/gsk621.html

$$$$
