GSK6853.cdx
 OpenBabel08302520413D

 57 60  0  0  0  0  0  0  0  0999 V2000
    0.4864    0.5917   -0.0717 C   0  0  0  0  0  0  0  0  0  0  0  0
    0.4897   -0.7896   -0.1223 C   0  0  0  0  0  0  0  0  0  0  0  0
    1.6636   -1.4960   -0.1549 C   0  0  0  0  0  0  0  0  0  0  0  0
    2.8828   -0.7826   -0.1845 C   0  0  0  0  0  0  0  0  0  0  0  0
    2.9067    0.6700   -0.1937 C   0  0  0  0  0  0  0  0  0  0  0  0
    1.6597    1.3180   -0.0575 C   0  0  0  0  0  0  0  0  0  0  0  0
   -0.8470    1.0234   -0.0205 N   0  0  0  0  0  0  0  0  0  0  0  0
   -1.6929   -0.1058   -0.0262 C   0  0  0  0  0  0  0  0  0  0  0  0
   -0.8378   -1.2277   -0.0949 N   0  0  0  0  0  0  0  0  0  0  0  0
    4.0704    1.4284   -0.2954 N   0  0  0  0  0  0  0  0  0  0  0  0
    4.0616   -1.5956   -0.2262 N   0  0  0  0  0  0  0  0  0  0  0  0
    4.2944   -2.5550    0.7747 C   0  0  0  0  0  0  0  0  0  0  0  0
    5.6248   -3.2778    0.7986 C   0  0  0  0  0  0  0  0  0  0  0  0
    3.4553   -2.8275    1.6270 O   0  0  0  0  0  0  0  0  0  0  0  0
    4.1984    2.8639   -0.7459 C   0  0  1  0  0  0  0  0  0  0  0  0
    5.5566    2.9724   -1.5223 C   0  0  0  0  0  0  0  0  0  0  0  0
    6.7536    2.5341   -0.7727 N   0  0  0  0  0  0  0  0  0  0  0  0
    6.5160    1.2186   -0.1398 C   0  0  0  0  0  0  0  0  0  0  0  0
    5.1817    1.1153    0.6354 C   0  0  0  0  0  0  0  0  0  0  0  0
    6.1360   -3.6495   -0.4758 C   0  0  0  0  0  0  0  0  0  0  0  0
    7.3610   -4.3425   -0.5890 C   0  0  0  0  0  0  0  0  0  0  0  0
    8.1011   -4.6683    0.5395 C   0  0  0  0  0  0  0  0  0  0  0  0
    7.5914   -4.3274    1.7960 C   0  0  0  0  0  0  0  0  0  0  0  0
    6.3560   -3.6537    1.9469 C   0  0  0  0  0  0  0  0  0  0  0  0
    3.1121    3.4485   -1.6512 C   0  0  0  0  0  0  0  0  0  0  0  0
    6.1437   -3.4570    3.2891 O   0  0  0  0  0  0  0  0  0  0  0  0
    4.8833   -3.1359    3.8194 C   0  0  0  0  0  0  0  0  0  0  0  0
   -1.2812    2.3888   -0.0012 C   0  0  0  0  0  0  0  0  0  0  0  0
   -1.2510   -2.5989   -0.0553 C   0  0  0  0  0  0  0  0  0  0  0  0
   -2.9112   -0.1115    0.0256 O   0  0  0  0  0  0  0  0  0  0  0  0
    1.6552   -2.5796   -0.1786 H   0  0  0  0  0  0  0  0  0  0  0  0
    1.5918    2.3786    0.1222 H   0  0  0  0  0  0  0  0  0  0  0  0
    4.7719   -1.3324   -0.8979 H   0  0  0  0  0  0  0  0  0  0  0  0
    4.2582    3.5063    0.1443 H   0  0  0  0  0  0  0  0  0  0  0  0
    5.4883    2.3861   -2.4454 H   0  0  0  0  0  0  0  0  0  0  0  0
    5.7216    4.0128   -1.8268 H   0  0  0  0  0  0  0  0  0  0  0  0
    6.9356    3.2162   -0.0350 H   0  0  0  0  0  0  0  0  0  0  0  0
    6.5419    0.4461   -0.9181 H   0  0  0  0  0  0  0  0  0  0  0  0
    7.3474    1.0121    0.5419 H   0  0  0  0  0  0  0  0  0  0  0  0
    5.1825    1.8411    1.4606 H   0  0  0  0  0  0  0  0  0  0  0  0
    5.1076    0.1369    1.1128 H   0  0  0  0  0  0  0  0  0  0  0  0
    5.5915   -3.4592   -1.3737 H   0  0  0  0  0  0  0  0  0  0  0  0
    7.7338   -4.6404   -1.5697 H   0  0  0  0  0  0  0  0  0  0  0  0
    9.0428   -5.1924    0.4591 H   0  0  0  0  0  0  0  0  0  0  0  0
    8.1600   -4.6048    2.6765 H   0  0  0  0  0  0  0  0  0  0  0  0
    2.2066    3.7166   -1.1042 H   0  0  0  0  0  0  0  0  0  0  0  0
    3.4429    4.4032   -2.0793 H   0  0  0  0  0  0  0  0  0  0  0  0
    2.8460    2.7780   -2.4724 H   0  0  0  0  0  0  0  0  0  0  0  0
    4.6061   -2.1098    3.5664 H   0  0  0  0  0  0  0  0  0  0  0  0
    4.1216   -3.8797    3.5477 H   0  0  0  0  0  0  0  0  0  0  0  0
    4.9605   -3.1765    4.9140 H   0  0  0  0  0  0  0  0  0  0  0  0
   -0.9090    2.8739    0.9056 H   0  0  0  0  0  0  0  0  0  0  0  0
   -0.8931    2.9053   -0.8845 H   0  0  0  0  0  0  0  0  0  0  0  0
   -2.3732    2.4417   -0.0131 H   0  0  0  0  0  0  0  0  0  0  0  0
   -0.8817   -3.1173   -0.9445 H   0  0  0  0  0  0  0  0  0  0  0  0
   -0.8432   -3.0678    0.8443 H   0  0  0  0  0  0  0  0  0  0  0  0
   -2.3413   -2.6650   -0.0269 H   0  0  0  0  0  0  0  0  0  0  0  0
  1  2  1  0  0  0  0
  1  7  1  0  0  0  0
  2  3  2  0  0  0  0
  3  4  1  0  0  0  0
  3 31  1  0  0  0  0
  4  5  2  0  0  0  0
  4 11  1  0  0  0  0
  5  6  1  0  0  0  0
  5 10  1  0  0  0  0
  6  1  2  0  0  0  0
  6 32  1  0  0  0  0
  7  8  1  0  0  0  0
  7 28  1  0  0  0  0
  8  9  1  0  0  0  0
  8 30  2  0  0  0  0
  9  2  1  0  0  0  0
  9 29  1  0  0  0  0
 10 15  1  0  0  0  0
 11 12  1  0  0  0  0
 11 33  1  0  0  0  0
 12 13  1  0  0  0  0
 12 14  2  0  0  0  0
 13 20  2  0  0  0  0
 15 16  1  0  0  0  0
 15 25  1  0  0  0  0
 15 34  1  1  0  0  0
 16 17  1  0  0  0  0
 16 35  1  0  0  0  0
 16 36  1  0  0  0  0
 17 18  1  0  0  0  0
 17 37  1  0  0  0  0
 18 19  1  0  0  0  0
 18 38  1  0  0  0  0
 18 39  1  0  0  0  0
 19 10  1  0  0  0  0
 19 40  1  0  0  0  0
 19 41  1  0  0  0  0
 20 21  1  0  0  0  0
 20 42  1  0  0  0  0
 21 22  2  0  0  0  0
 21 43  1  0  0  0  0
 22 23  1  0  0  0  0
 22 44  1  0  0  0  0
 23 24  2  0  0  0  0
 23 45  1  0  0  0  0
 24 13  1  0  0  0  0
 24 26  1  0  0  0  0
 25 46  1  0  0  0  0
 25 47  1  0  0  0  0
 25 48  1  0  0  0  0
 26 27  1  0  0  0  0
 27 49  1  0  0  0  0
 27 50  1  0  0  0  0
 27 51  1  0  0  0  0
 28 52  1  0  0  0  0
 28 53  1  0  0  0  0
 28 54  1  0  0  0  0
 29 55  1  0  0  0  0
 29 56  1  0  0  0  0
 29 57  1  0  0  0  0
M  END
>  <Mol_ID>
3984

>  <Formula>
C22H27N5O3

>  <MolWeight>
409.48148

>  <Cat>
S8265

>  <Name>
GSK6853

>  <Synonyms>
N/A

>  <Target>
Epigenetic Reader Domain

>  <Form>
free base

>  <CAS>
1910124-24-1

>  <URL>
http://selleckchem.com/products/gsk6853.html

$$$$
