GSK620
 OpenBabel08302521303D

 43 45  0  0  0  0  0  0  0  0999 V2000
   -0.4983    1.4022    0.2322 C   0  0  0  0  0  0  0  0  0  0  0  0
   -1.3428    0.1663    0.2885 C   0  0  0  0  0  0  0  0  0  0  0  0
   -0.7441   -1.0393    0.2444 C   0  0  0  0  0  0  0  0  0  0  0  0
    0.6767   -1.1822    0.0304 C   0  0  0  0  0  0  0  0  0  0  0  0
    1.4186   -0.0724   -0.1144 C   0  0  0  0  0  0  0  0  0  0  0  0
    0.8680    1.1999   -0.0157 N   0  0  0  0  0  0  0  0  0  0  0  0
   -2.8354    0.1436    0.3586 C   0  0  0  0  0  0  0  0  0  0  0  0
   -3.4549   -0.9077    0.1940 O   0  0  0  0  0  0  0  0  0  0  0  0
   -3.4685    1.3377    0.5762 N   0  0  0  0  0  0  0  0  0  0  0  0
    1.4030   -2.4975   -0.0122 C   0  0  0  0  0  0  0  0  0  0  0  0
    2.6250   -2.5450    0.1019 O   0  0  0  0  0  0  0  0  0  0  0  0
    0.6203   -3.6192   -0.1990 N   0  0  0  0  0  0  0  0  0  0  0  0
    1.7663    2.3584   -0.0878 C   0  0  0  0  0  0  0  0  0  0  0  0
    1.7627    3.0342   -1.4404 C   0  0  0  0  0  0  0  0  0  0  0  0
    0.8909    4.1052   -1.6879 C   0  0  0  0  0  0  0  0  0  0  0  0
    0.8617    4.7264   -2.9365 C   0  0  0  0  0  0  0  0  0  0  0  0
    1.7042    4.2871   -3.9527 C   0  0  0  0  0  0  0  0  0  0  0  0
    2.5826    3.2304   -3.7224 C   0  0  0  0  0  0  0  0  0  0  0  0
    2.6123    2.6069   -2.4719 C   0  0  0  0  0  0  0  0  0  0  0  0
   -1.0074    2.5082    0.4157 O   0  0  0  0  0  0  0  0  0  0  0  0
   -4.9057    1.4456    0.4927 C   0  0  0  0  0  0  0  0  0  0  0  0
    1.1803   -4.9351   -0.2382 C   0  0  0  0  0  0  0  0  0  0  0  0
    0.2983   -6.1434   -0.3961 C   0  0  0  0  0  0  0  0  0  0  0  0
    0.9815   -5.8816    0.9135 C   0  0  0  0  0  0  0  0  0  0  0  0
   -1.3461   -1.9350    0.3456 H   0  0  0  0  0  0  0  0  0  0  0  0
    2.4911   -0.1274   -0.2928 H   0  0  0  0  0  0  0  0  0  0  0  0
   -2.9080    2.1886    0.6176 H   0  0  0  0  0  0  0  0  0  0  0  0
   -0.3714   -3.5330   -0.3716 H   0  0  0  0  0  0  0  0  0  0  0  0
    1.4778    3.0795    0.6869 H   0  0  0  0  0  0  0  0  0  0  0  0
    2.7910    2.0509    0.1635 H   0  0  0  0  0  0  0  0  0  0  0  0
    0.2244    4.4588   -0.9014 H   0  0  0  0  0  0  0  0  0  0  0  0
    0.1746    5.5515   -3.1111 H   0  0  0  0  0  0  0  0  0  0  0  0
    1.6739    4.7729   -4.9280 H   0  0  0  0  0  0  0  0  0  0  0  0
    3.2440    2.8983   -4.5152 H   0  0  0  0  0  0  0  0  0  0  0  0
    3.3080    1.7860   -2.3117 H   0  0  0  0  0  0  0  0  0  0  0  0
   -5.2421    2.2408    1.1604 H   0  0  0  0  0  0  0  0  0  0  0  0
   -5.1733    1.6914   -0.5386 H   0  0  0  0  0  0  0  0  0  0  0  0
   -5.3883    0.5035    0.7699 H   0  0  0  0  0  0  0  0  0  0  0  0
    2.1447   -4.9750   -0.7424 H   0  0  0  0  0  0  0  0  0  0  0  0
   -0.7759   -6.0117   -0.4397 H   0  0  0  0  0  0  0  0  0  0  0  0
    0.6686   -6.9609   -1.0048 H   0  0  0  0  0  0  0  0  0  0  0  0
    1.8161   -6.5155    1.1911 H   0  0  0  0  0  0  0  0  0  0  0  0
    0.3731   -5.5610    1.7507 H   0  0  0  0  0  0  0  0  0  0  0  0
  1  2  1  0  0  0  0
  1  6  1  0  0  0  0
  1 20  2  0  0  0  0
  2  3  2  0  0  0  0
  2  7  1  0  0  0  0
  3  4  1  0  0  0  0
  3 25  1  0  0  0  0
  4  5  2  0  0  0  0
  4 10  1  0  0  0  0
  5  6  1  0  0  0  0
  5 26  1  0  0  0  0
  6 13  1  0  0  0  0
  7  8  2  0  0  0  0
  7  9  1  0  0  0  0
  9 21  1  0  0  0  0
  9 27  1  0  0  0  0
 10 11  2  0  0  0  0
 10 12  1  0  0  0  0
 12 22  1  0  0  0  0
 12 28  1  0  0  0  0
 13 14  1  0  0  0  0
 13 29  1  0  0  0  0
 13 30  1  0  0  0  0
 14 15  2  0  0  0  0
 14 19  1  0  0  0  0
 15 16  1  0  0  0  0
 15 31  1  0  0  0  0
 16 17  2  0  0  0  0
 16 32  1  0  0  0  0
 17 18  1  0  0  0  0
 17 33  1  0  0  0  0
 18 19  2  0  0  0  0
 18 34  1  0  0  0  0
 19 35  1  0  0  0  0
 21 36  1  0  0  0  0
 21 37  1  0  0  0  0
 21 38  1  0  0  0  0
 22 23  1  0  0  0  0
 22 24  1  0  0  0  0
 22 39  1  0  0  0  0
 23 24  1  0  0  0  0
 23 40  1  0  0  0  0
 23 41  1  0  0  0  0
 24 42  1  0  0  0  0
 24 43  1  0  0  0  0
M  END
>  <Mol_ID>
5577

>  <Formula>
C18H19N3O3

>  <MolWeight>
325.36176

>  <Cat>
S9685

>  <Name>
GSK620

>  <Synonyms>
N/A

>  <Target>
Epigenetic Reader Domain

>  <Form>
Free Base

>  <CAS>
2088410-46-0

>  <URL>
http://www.selleckchem.com/products/gsk620.html

$$$$
