GSK J4 HCL.cdx
 OpenBabel08302519553D

 58 61  0  0  0  0  0  0  0  0999 V2000
   -0.8613    1.1995   -0.9155 C   0  0  0  0  0  0  0  0  0  0  0  0
    0.0234    1.4730    0.2809 C   0  0  0  0  0  0  0  0  0  0  0  0
   -0.4679    1.4730    1.6026 C   0  0  0  0  0  0  0  0  0  0  0  0
   -1.9381    1.2803    1.9308 C   0  0  0  0  0  0  0  0  0  0  0  0
   -2.5517   -0.0522    1.4699 C   0  0  0  0  0  0  0  0  0  0  0  0
   -2.7679   -0.0415    0.0250 N   0  0  0  0  0  0  0  0  0  0  0  0
   -1.5844   -0.1464   -0.8267 C   0  0  0  0  0  0  0  0  0  0  0  0
    1.3826    1.7573    0.0505 C   0  0  0  0  0  0  0  0  0  0  0  0
    2.2522    2.0134    1.1081 C   0  0  0  0  0  0  0  0  0  0  0  0
    1.7770    1.9888    2.4124 C   0  0  0  0  0  0  0  0  0  0  0  0
    0.4280    1.7267    2.6576 C   0  0  0  0  0  0  0  0  0  0  0  0
   -4.0446   -0.0982   -0.5056 C   0  0  0  0  0  0  0  0  0  0  0  0
   -5.0386   -0.6297    0.2178 N   0  0  0  0  0  0  0  0  0  0  0  0
   -6.2562   -0.7377   -0.3646 C   0  0  0  0  0  0  0  0  0  0  0  0
   -6.5676   -0.2525   -1.5854 N   0  0  0  0  0  0  0  0  0  0  0  0
   -5.5883    0.3361   -2.2720 C   0  0  0  0  0  0  0  0  0  0  0  0
   -4.3021    0.3939   -1.7749 C   0  0  0  0  0  0  0  0  0  0  0  0
   -7.3116   -1.4614    0.3918 C   0  0  0  0  0  0  0  0  0  0  0  0
   -7.2845   -1.5540    1.7887 C   0  0  0  0  0  0  0  0  0  0  0  0
   -8.2860   -2.2604    2.4532 C   0  0  0  0  0  0  0  0  0  0  0  0
   -9.2877   -2.8762    1.7161 C   0  0  0  0  0  0  0  0  0  0  0  0
   -9.2512   -2.7534    0.3394 C   0  0  0  0  0  0  0  0  0  0  0  0
   -8.3037   -2.0613   -0.3298 N   0  0  0  0  0  0  0  0  0  0  0  0
   -5.8092    0.8385   -3.5649 N   0  0  0  0  0  0  0  0  0  0  0  0
   -7.1985    1.1112   -3.9424 C   0  0  0  0  0  0  0  0  0  0  0  0
   -7.7792    2.2946   -3.1744 C   0  0  0  0  0  0  0  0  0  0  0  0
   -9.1498    2.6060   -3.7094 C   0  0  0  0  0  0  0  0  0  0  0  0
  -10.0748    2.6037   -2.7129 O   0  0  0  0  0  0  0  0  0  0  0  0
   -9.3840    2.8417   -4.8896 O   0  0  0  0  0  0  0  0  0  0  0  0
  -11.4378    2.7980   -3.1192 C   0  0  0  0  0  0  0  0  0  0  0  0
  -11.7672    4.2767   -3.2101 C   0  0  0  0  0  0  0  0  0  0  0  0
   -1.5665    2.0310   -1.0360 H   0  0  0  0  0  0  0  0  0  0  0  0
   -0.2451    1.1828   -1.8235 H   0  0  0  0  0  0  0  0  0  0  0  0
   -2.4974    2.1271    1.5120 H   0  0  0  0  0  0  0  0  0  0  0  0
   -2.0684    1.3431    3.0190 H   0  0  0  0  0  0  0  0  0  0  0  0
   -3.4901   -0.1915    2.0202 H   0  0  0  0  0  0  0  0  0  0  0  0
   -1.9030   -0.8923    1.7484 H   0  0  0  0  0  0  0  0  0  0  0  0
   -0.9146   -0.9253   -0.4382 H   0  0  0  0  0  0  0  0  0  0  0  0
   -1.8492   -0.4815   -1.8364 H   0  0  0  0  0  0  0  0  0  0  0  0
    1.7757    1.7845   -0.9640 H   0  0  0  0  0  0  0  0  0  0  0  0
    3.2978    2.2347    0.9109 H   0  0  0  0  0  0  0  0  0  0  0  0
    2.4521    2.1866    3.2409 H   0  0  0  0  0  0  0  0  0  0  0  0
    0.0784    1.7330    3.6878 H   0  0  0  0  0  0  0  0  0  0  0  0
   -3.5268    0.8655   -2.3588 H   0  0  0  0  0  0  0  0  0  0  0  0
   -6.4896   -1.0762    2.3529 H   0  0  0  0  0  0  0  0  0  0  0  0
   -8.2780   -2.3309    3.5367 H   0  0  0  0  0  0  0  0  0  0  0  0
  -10.0764   -3.4402    2.2013 H   0  0  0  0  0  0  0  0  0  0  0  0
  -10.0050   -3.2243   -0.2853 H   0  0  0  0  0  0  0  0  0  0  0  0
   -5.1949    1.6180   -3.7753 H   0  0  0  0  0  0  0  0  0  0  0  0
   -7.1895    1.3483   -5.0133 H   0  0  0  0  0  0  0  0  0  0  0  0
   -7.8252    0.2177   -3.8402 H   0  0  0  0  0  0  0  0  0  0  0  0
   -7.8407    2.0791   -2.1036 H   0  0  0  0  0  0  0  0  0  0  0  0
   -7.1568    3.1903   -3.2830 H   0  0  0  0  0  0  0  0  0  0  0  0
  -11.6450    2.2834   -4.0661 H   0  0  0  0  0  0  0  0  0  0  0  0
  -12.0650    2.3294   -2.3569 H   0  0  0  0  0  0  0  0  0  0  0  0
  -11.2069    4.7567   -4.0176 H   0  0  0  0  0  0  0  0  0  0  0  0
  -12.8363    4.4214   -3.3981 H   0  0  0  0  0  0  0  0  0  0  0  0
  -11.4983    4.7907   -2.2820 H   0  0  0  0  0  0  0  0  0  0  0  0
  1  2  1  0  0  0  0
  1 32  1  0  0  0  0
  1 33  1  0  0  0  0
  2  3  2  0  0  0  0
  2  8  1  0  0  0  0
  3  4  1  0  0  0  0
  4  5  1  0  0  0  0
  4 34  1  0  0  0  0
  4 35  1  0  0  0  0
  5  6  1  0  0  0  0
  5 36  1  0  0  0  0
  5 37  1  0  0  0  0
  6  7  1  0  0  0  0
  6 12  1  0  0  0  0
  7  1  1  0  0  0  0
  7 38  1  0  0  0  0
  7 39  1  0  0  0  0
  8  9  2  0  0  0  0
  8 40  1  0  0  0  0
  9 10  1  0  0  0  0
  9 41  1  0  0  0  0
 10 11  2  0  0  0  0
 10 42  1  0  0  0  0
 11  3  1  0  0  0  0
 11 43  1  0  0  0  0
 12 13  2  0  0  0  0
 13 14  1  0  0  0  0
 14 15  2  0  0  0  0
 14 18  1  0  0  0  0
 15 16  1  0  0  0  0
 16 17  2  0  0  0  0
 16 24  1  0  0  0  0
 17 12  1  0  0  0  0
 17 44  1  0  0  0  0
 18 19  2  0  0  0  0
 19 20  1  0  0  0  0
 19 45  1  0  0  0  0
 20 21  2  0  0  0  0
 20 46  1  0  0  0  0
 21 22  1  0  0  0  0
 21 47  1  0  0  0  0
 22 23  2  0  0  0  0
 22 48  1  0  0  0  0
 23 18  1  0  0  0  0
 24 25  1  0  0  0  0
 24 49  1  0  0  0  0
 25 26  1  0  0  0  0
 25 50  1  0  0  0  0
 25 51  1  0  0  0  0
 26 27  1  0  0  0  0
 26 52  1  0  0  0  0
 26 53  1  0  0  0  0
 27 28  1  0  0  0  0
 27 29  2  0  0  0  0
 28 30  1  0  0  0  0
 30 31  1  0  0  0  0
 30 54  1  0  0  0  0
 30 55  1  0  0  0  0
 31 56  1  0  0  0  0
 31 57  1  0  0  0  0
 31 58  1  0  0  0  0
M  END
>  <Mol_ID>
2142

>  <Formula>
C24H28ClN5O2

>  <MolWeight>
453.96442

>  <Cat>
S7070

>  <Name>
GSK J4 HCl (GSKJ4 HCl)

>  <Synonyms>
N/A

>  <Target>
Histone Demethylase,JMJD

>  <Form>
Hydrochloride

>  <CAS>
1797983-09-5

>  <URL>
http://selleckchem.com/products/gsk-j4-hcl.html

$$$$
