GSK 1292263.cdx
 OpenBabel08302521343D

 60 63  0  0  0  0  0  0  0  0999 V2000
   -0.6201   -3.3906    3.5335 C   0  0  0  0  0  0  0  0  0  0  0  0
    0.7668   -3.5380    3.4818 C   0  0  0  0  0  0  0  0  0  0  0  0
    1.4557   -3.2854    2.2882 C   0  0  0  0  0  0  0  0  0  0  0  0
    0.7629   -2.8716    1.1549 C   0  0  0  0  0  0  0  0  0  0  0  0
   -0.6199   -2.8121    1.2717 C   0  0  0  0  0  0  0  0  0  0  0  0
   -1.3179   -3.0526    2.4191 N   0  0  0  0  0  0  0  0  0  0  0  0
   -1.3857   -3.4648    4.8073 C   0  0  0  0  0  0  0  0  0  0  0  0
   -2.5543   -2.6953    4.9858 C   0  0  0  0  0  0  0  0  0  0  0  0
   -3.1952   -2.5971    6.2293 C   0  0  0  0  0  0  0  0  0  0  0  0
   -2.6835   -3.2927    7.3236 C   0  0  0  0  0  0  0  0  0  0  0  0
   -1.5717   -4.1204    7.1685 C   0  0  0  0  0  0  0  0  0  0  0  0
   -0.9408   -4.2111    5.9185 C   0  0  0  0  0  0  0  0  0  0  0  0
   -3.3251   -2.9721    8.9539 S   0  0  0  0  0  0  0  0  0  0  0  0
   -2.2876   -3.3290    9.9043 O   0  0  0  0  0  0  0  0  0  0  0  0
   -3.8847   -1.6335    8.9433 O   0  0  0  0  0  0  0  0  0  0  0  0
   -4.6577   -4.1189    9.1516 C   0  0  0  0  0  0  0  0  0  0  0  0
    1.3189   -2.4966   -0.0462 O   0  0  0  0  0  0  0  0  0  0  0  0
    2.7351   -2.3096   -0.0228 C   0  0  0  0  0  0  0  0  0  0  0  0
    1.5483   -0.9704   -3.5112 N   0  0  0  0  0  0  0  0  0  0  0  0
    1.4339   -0.1586   -2.3009 C   0  0  0  0  0  0  0  0  0  0  0  0
    2.7450   -0.1865   -1.5098 C   0  0  0  0  0  0  0  0  0  0  0  0
    3.3161   -1.5894   -1.2569 C   0  0  0  0  0  0  0  0  0  0  0  0
    3.2839   -2.4204   -2.5429 C   0  0  0  0  0  0  0  0  0  0  0  0
    1.9596   -2.3599   -3.2964 C   0  0  0  0  0  0  0  0  0  0  0  0
    0.6020   -1.6176   -5.5582 O   0  0  0  0  0  0  0  0  0  0  0  0
   -0.3640   -1.1604   -6.4446 N   0  0  0  0  0  0  0  0  0  0  0  0
   -0.7999   -0.0358   -5.8662 C   0  0  0  0  0  0  0  0  0  0  0  0
   -0.1932    0.2675   -4.6670 N   0  0  0  0  0  0  0  0  0  0  0  0
    0.6554   -0.7265   -4.5087 C   0  0  0  0  0  0  0  0  0  0  0  0
   -1.8701    0.7953   -6.4946 C   0  0  0  0  0  0  0  0  0  0  0  0
   -3.1493    0.8004   -5.6589 C   0  0  0  0  0  0  0  0  0  0  0  0
   -1.4008    2.2227   -6.7723 C   0  0  0  0  0  0  0  0  0  0  0  0
    1.3402   -3.7901    4.3683 H   0  0  0  0  0  0  0  0  0  0  0  0
    2.5348   -3.3951    2.2987 H   0  0  0  0  0  0  0  0  0  0  0  0
   -1.2343   -2.5329    0.4199 H   0  0  0  0  0  0  0  0  0  0  0  0
   -2.9418   -2.1075    4.1533 H   0  0  0  0  0  0  0  0  0  0  0  0
   -4.0520   -1.9350    6.3362 H   0  0  0  0  0  0  0  0  0  0  0  0
   -1.1559   -4.6597    8.0176 H   0  0  0  0  0  0  0  0  0  0  0  0
   -0.0645   -4.8514    5.8401 H   0  0  0  0  0  0  0  0  0  0  0  0
   -4.2765   -5.1358    9.0473 H   0  0  0  0  0  0  0  0  0  0  0  0
   -5.0677   -3.9811   10.1559 H   0  0  0  0  0  0  0  0  0  0  0  0
   -5.4278   -3.9075    8.4084 H   0  0  0  0  0  0  0  0  0  0  0  0
    3.0138   -1.7057    0.8512 H   0  0  0  0  0  0  0  0  0  0  0  0
    3.2164   -3.2925    0.0640 H   0  0  0  0  0  0  0  0  0  0  0  0
    0.6023   -0.5127   -1.6816 H   0  0  0  0  0  0  0  0  0  0  0  0
    1.2291    0.8898   -2.5552 H   0  0  0  0  0  0  0  0  0  0  0  0
    2.6260    0.3561   -0.5647 H   0  0  0  0  0  0  0  0  0  0  0  0
    3.4952    0.3720   -2.0882 H   0  0  0  0  0  0  0  0  0  0  0  0
    4.3800   -1.4545   -1.0106 H   0  0  0  0  0  0  0  0  0  0  0  0
    4.0696   -2.0342   -3.2078 H   0  0  0  0  0  0  0  0  0  0  0  0
    3.5482   -3.4640   -2.3359 H   0  0  0  0  0  0  0  0  0  0  0  0
    2.1182   -2.8789   -4.2498 H   0  0  0  0  0  0  0  0  0  0  0  0
    1.1788   -2.9045   -2.7541 H   0  0  0  0  0  0  0  0  0  0  0  0
   -2.1233    0.3481   -7.4662 H   0  0  0  0  0  0  0  0  0  0  0  0
   -3.5233   -0.2189   -5.5116 H   0  0  0  0  0  0  0  0  0  0  0  0
   -2.9847    1.2430   -4.6708 H   0  0  0  0  0  0  0  0  0  0  0  0
   -3.9370    1.3740   -6.1605 H   0  0  0  0  0  0  0  0  0  0  0  0
   -0.5269    2.2249   -7.4335 H   0  0  0  0  0  0  0  0  0  0  0  0
   -2.1910    2.8011   -7.2650 H   0  0  0  0  0  0  0  0  0  0  0  0
   -1.1247    2.7450   -5.8502 H   0  0  0  0  0  0  0  0  0  0  0  0
  1  7  1  0  0  0  0
  2  1  2  0  0  0  0
  2 33  1  0  0  0  0
  3  2  1  0  0  0  0
  3 34  1  0  0  0  0
  4  3  2  0  0  0  0
  4 17  1  0  0  0  0
  5  4  1  0  0  0  0
  5 35  1  0  0  0  0
  6  5  2  0  0  0  0
  6  1  1  0  0  0  0
  8  7  2  0  0  0  0
  8 36  1  0  0  0  0
  9  8  1  0  0  0  0
  9 37  1  0  0  0  0
 10  9  2  0  0  0  0
 10 13  1  0  0  0  0
 11 10  1  0  0  0  0
 11 38  1  0  0  0  0
 12 11  2  0  0  0  0
 12  7  1  0  0  0  0
 12 39  1  0  0  0  0
 13 16  1  0  0  0  0
 14 13  2  0  0  0  0
 15 13  2  0  0  0  0
 16 40  1  0  0  0  0
 16 41  1  0  0  0  0
 16 42  1  0  0  0  0
 17 18  1  0  0  0  0
 18 22  1  0  0  0  0
 18 43  1  0  0  0  0
 18 44  1  0  0  0  0
 19 29  1  0  0  0  0
 20 19  1  0  0  0  0
 20 45  1  0  0  0  0
 20 46  1  0  0  0  0
 21 20  1  0  0  0  0
 21 47  1  0  0  0  0
 21 48  1  0  0  0  0
 22 21  1  0  0  0  0
 22 49  1  0  0  0  0
 23 22  1  0  0  0  0
 23 50  1  0  0  0  0
 23 51  1  0  0  0  0
 24 23  1  0  0  0  0
 24 19  1  0  0  0  0
 24 52  1  0  0  0  0
 24 53  1  0  0  0  0
 26 25  1  0  0  0  0
 27 26  2  0  0  0  0
 27 30  1  0  0  0  0
 28 27  1  0  0  0  0
 29 28  2  0  0  0  0
 29 25  1  0  0  0  0
 30 32  1  0  0  0  0
 30 54  1  0  0  0  0
 31 30  1  0  0  0  0
 31 55  1  0  0  0  0
 31 56  1  0  0  0  0
 31 57  1  0  0  0  0
 32 58  1  0  0  0  0
 32 59  1  0  0  0  0
 32 60  1  0  0  0  0
M  END
>  <Mol_ID>
615

>  <Formula>
C23H28N4O4S

>  <MolWeight>
456.55782

>  <Cat>
S2149

>  <Name>
GSK1292263

>  <Synonyms>
N/A

>  <Target>
GPR

>  <Form>
free base

>  <CAS>
1032823-75-8

>  <URL>
http://selleckchem.com/products/GSK1292263.html

$$$$
