GSK J1.cdx
 OpenBabel08302519593D

 52 55  0  0  0  0  0  0  0  0999 V2000
    1.1245   -0.8624    0.0039 C   0  0  0  0  0  0  0  0  0  0  0  0
    1.2297    0.4721   -0.0716 N   0  0  0  0  0  0  0  0  0  0  0  0
    0.0913    1.2008   -0.0361 C   0  0  0  0  0  0  0  0  0  0  0  0
   -1.1495    0.6714   -0.0330 N   0  0  0  0  0  0  0  0  0  0  0  0
   -1.2439   -0.6562   -0.0385 C   0  0  0  0  0  0  0  0  0  0  0  0
   -0.1226   -1.4557    0.0238 C   0  0  0  0  0  0  0  0  0  0  0  0
    0.2232    2.6784    0.0384 C   0  0  0  0  0  0  0  0  0  0  0  0
    1.3524    3.3405   -0.4542 C   0  0  0  0  0  0  0  0  0  0  0  0
    1.4432    4.7288   -0.3469 C   0  0  0  0  0  0  0  0  0  0  0  0
    0.4168    5.4309    0.2664 C   0  0  0  0  0  0  0  0  0  0  0  0
   -0.6673    4.7157    0.7414 C   0  0  0  0  0  0  0  0  0  0  0  0
   -0.7909    3.3740    0.6319 N   0  0  0  0  0  0  0  0  0  0  0  0
   -2.5015   -1.2860    0.0891 N   0  0  0  0  0  0  0  0  0  0  0  0
   -3.6597   -0.4877   -0.3497 C   0  0  0  0  0  0  0  0  0  0  0  0
   -4.8802   -0.9417    0.4389 C   0  0  0  0  0  0  0  0  0  0  0  0
   -4.8173   -0.5740    1.9005 C   0  0  0  0  0  0  0  0  0  0  0  0
   -3.6019   -0.6883    2.4727 O   0  0  0  0  0  0  0  0  0  0  0  0
   -5.8170   -0.2963    2.5548 O   0  0  0  0  0  0  0  0  0  0  0  0
    2.2711   -1.6312    0.0680 N   0  0  0  0  0  0  0  0  0  0  0  0
    3.5249   -1.1377   -0.4949 C   0  0  0  0  0  0  0  0  0  0  0  0
    3.9272   -1.9871   -1.7094 C   0  0  0  0  0  0  0  0  0  0  0  0
    4.5017   -3.3527   -1.3812 C   0  0  0  0  0  0  0  0  0  0  0  0
    3.7763   -4.3358   -0.6760 C   0  0  0  0  0  0  0  0  0  0  0  0
    2.3892   -4.0873   -0.1249 C   0  0  0  0  0  0  0  0  0  0  0  0
    2.3209   -2.8837    0.8201 C   0  0  0  0  0  0  0  0  0  0  0  0
    5.7891   -3.6668   -1.8532 C   0  0  0  0  0  0  0  0  0  0  0  0
    6.3444   -4.9297   -1.6492 C   0  0  0  0  0  0  0  0  0  0  0  0
    5.6185   -5.9049   -0.9778 C   0  0  0  0  0  0  0  0  0  0  0  0
    4.3452   -5.6103   -0.4952 C   0  0  0  0  0  0  0  0  0  0  0  0
   -0.2302   -2.5307    0.0606 H   0  0  0  0  0  0  0  0  0  0  0  0
    2.1559    2.7796   -0.9208 H   0  0  0  0  0  0  0  0  0  0  0  0
    2.3123    5.2511   -0.7354 H   0  0  0  0  0  0  0  0  0  0  0  0
    0.4606    6.5098    0.3760 H   0  0  0  0  0  0  0  0  0  0  0  0
   -1.4922    5.2157    1.2411 H   0  0  0  0  0  0  0  0  0  0  0  0
   -2.4761   -2.1730   -0.4171 H   0  0  0  0  0  0  0  0  0  0  0  0
   -3.5243    0.5902   -0.2105 H   0  0  0  0  0  0  0  0  0  0  0  0
   -3.8228   -0.6738   -1.4182 H   0  0  0  0  0  0  0  0  0  0  0  0
   -5.7667   -0.4524    0.0151 H   0  0  0  0  0  0  0  0  0  0  0  0
   -5.0214   -2.0246    0.3670 H   0  0  0  0  0  0  0  0  0  0  0  0
   -2.9018   -0.9024    1.8112 H   0  0  0  0  0  0  0  0  0  0  0  0
    3.4382   -0.0979   -0.8311 H   0  0  0  0  0  0  0  0  0  0  0  0
    4.3123   -1.1502    0.2685 H   0  0  0  0  0  0  0  0  0  0  0  0
    3.0739   -2.1254   -2.3853 H   0  0  0  0  0  0  0  0  0  0  0  0
    4.6725   -1.4146   -2.2785 H   0  0  0  0  0  0  0  0  0  0  0  0
    1.6864   -3.9842   -0.9604 H   0  0  0  0  0  0  0  0  0  0  0  0
    2.0656   -4.9681    0.4444 H   0  0  0  0  0  0  0  0  0  0  0  0
    3.1825   -2.8741    1.4992 H   0  0  0  0  0  0  0  0  0  0  0  0
    1.4458   -2.9879    1.4738 H   0  0  0  0  0  0  0  0  0  0  0  0
    6.3708   -2.9265   -2.3987 H   0  0  0  0  0  0  0  0  0  0  0  0
    7.3386   -5.1540   -2.0262 H   0  0  0  0  0  0  0  0  0  0  0  0
    6.0404   -6.8958   -0.8318 H   0  0  0  0  0  0  0  0  0  0  0  0
    3.7941   -6.3916    0.0251 H   0  0  0  0  0  0  0  0  0  0  0  0
  1  2  2  0  0  0  0
  1 19  1  0  0  0  0
  2  3  1  0  0  0  0
  3  4  2  0  0  0  0
  3  7  1  0  0  0  0
  4  5  1  0  0  0  0
  5  6  2  0  0  0  0
  5 13  1  0  0  0  0
  6  1  1  0  0  0  0
  6 30  1  0  0  0  0
  7  8  2  0  0  0  0
  8  9  1  0  0  0  0
  8 31  1  0  0  0  0
  9 10  2  0  0  0  0
  9 32  1  0  0  0  0
 10 11  1  0  0  0  0
 10 33  1  0  0  0  0
 11 12  2  0  0  0  0
 11 34  1  0  0  0  0
 12  7  1  0  0  0  0
 13 14  1  0  0  0  0
 13 35  1  0  0  0  0
 14 15  1  0  0  0  0
 14 36  1  0  0  0  0
 14 37  1  0  0  0  0
 15 16  1  0  0  0  0
 15 38  1  0  0  0  0
 15 39  1  0  0  0  0
 16 17  1  0  0  0  0
 16 18  2  0  0  0  0
 17 40  1  0  0  0  0
 19 20  1  0  0  0  0
 20 21  1  0  0  0  0
 20 41  1  0  0  0  0
 20 42  1  0  0  0  0
 21 22  1  0  0  0  0
 21 43  1  0  0  0  0
 21 44  1  0  0  0  0
 22 23  2  0  0  0  0
 22 26  1  0  0  0  0
 23 24  1  0  0  0  0
 24 25  1  0  0  0  0
 24 45  1  0  0  0  0
 24 46  1  0  0  0  0
 25 19  1  0  0  0  0
 25 47  1  0  0  0  0
 25 48  1  0  0  0  0
 26 27  2  0  0  0  0
 26 49  1  0  0  0  0
 27 28  1  0  0  0  0
 27 50  1  0  0  0  0
 28 29  2  0  0  0  0
 28 51  1  0  0  0  0
 29 23  1  0  0  0  0
 29 52  1  0  0  0  0
M  END
>  <Mol_ID>
2598

>  <Formula>
C22H23N5O2

>  <MolWeight>
389.45032

>  <Cat>
S7581

>  <Name>
GSK J1

>  <Synonyms>
N/A

>  <Target>
Histone Demethylase,JMJD

>  <Form>
free base

>  <CAS>
1373422-53-7

>  <URL>
http://selleckchem.com/products/gsk-j1.html

$$$$
