guaiacylpropionic acid
 OpenBabel08302521363D

 25 25  0  0  0  0  0  0  0  0999 V2000
    0.8265    0.2153   -0.2390 C   0  0  0  0  0  0  0  0  0  0  0  0
   -0.2407    1.2850    0.0204 C   0  0  0  0  0  0  0  0  0  0  0  0
    0.3310    2.3800    0.8973 C   0  0  0  0  0  0  0  0  0  0  0  0
   -0.5600    3.3666    1.1466 O   0  0  0  0  0  0  0  0  0  0  0  0
    1.4649    2.4048    1.3509 O   0  0  0  0  0  0  0  0  0  0  0  0
    1.9680   -2.7455   -0.0197 O   0  0  0  0  0  0  0  0  0  0  0  0
    2.5129   -1.9521    1.0128 C   0  0  0  0  0  0  0  0  0  0  0  0
    0.4483   -1.0062   -1.0541 C   0  0  0  0  0  0  0  0  0  0  0  0
    1.0401   -2.2796   -0.9086 C   0  0  0  0  0  0  0  0  0  0  0  0
   -0.4850   -0.8428   -2.1082 C   0  0  0  0  0  0  0  0  0  0  0  0
    0.6791   -3.3173   -1.7942 C   0  0  0  0  0  0  0  0  0  0  0  0
   -0.8312   -1.8878   -2.9720 C   0  0  0  0  0  0  0  0  0  0  0  0
   -0.2441   -3.1304   -2.8171 C   0  0  0  0  0  0  0  0  0  0  0  0
    1.1150   -0.0879    0.7609 H   0  0  0  0  0  0  0  0  0  0  0  0
    1.7085    0.6727   -0.7062 H   0  0  0  0  0  0  0  0  0  0  0  0
   -0.5828    1.7453   -0.9107 H   0  0  0  0  0  0  0  0  0  0  0  0
   -1.0940    0.8369    0.5430 H   0  0  0  0  0  0  0  0  0  0  0  0
   -1.4369    3.2255    0.7319 H   0  0  0  0  0  0  0  0  0  0  0  0
    3.1104   -1.1313    0.6030 H   0  0  0  0  0  0  0  0  0  0  0  0
    1.7411   -1.6189    1.7120 H   0  0  0  0  0  0  0  0  0  0  0  0
    3.1841   -2.5843    1.6004 H   0  0  0  0  0  0  0  0  0  0  0  0
   -0.9599    0.1168   -2.2938 H   0  0  0  0  0  0  0  0  0  0  0  0
    1.1414   -4.2966   -1.6782 H   0  0  0  0  0  0  0  0  0  0  0  0
   -1.5523   -1.7246   -3.7690 H   0  0  0  0  0  0  0  0  0  0  0  0
   -0.4939   -3.9510   -3.4843 H   0  0  0  0  0  0  0  0  0  0  0  0
  1  2  1  0  0  0  0
  1  8  1  0  0  0  0
  1 14  1  0  0  0  0
  1 15  1  0  0  0  0
  2  3  1  0  0  0  0
  2 16  1  0  0  0  0
  2 17  1  0  0  0  0
  3  4  1  0  0  0  0
  3  5  2  0  0  0  0
  4 18  1  0  0  0  0
  6  7  1  0  0  0  0
  6  9  1  0  0  0  0
  7 19  1  0  0  0  0
  7 20  1  0  0  0  0
  7 21  1  0  0  0  0
  8  9  2  0  0  0  0
  8 10  1  0  0  0  0
  9 11  1  0  0  0  0
 10 12  2  0  0  0  0
 10 22  1  0  0  0  0
 11 13  2  0  0  0  0
 11 23  1  0  0  0  0
 12 13  1  0  0  0  0
 12 24  1  0  0  0  0
 13 25  1  0  0  0  0
M  END
>  <Mol_ID>
7265

>  <Formula>
C10H12O3

>  <MolWeight>
180.20048

>  <Cat>
E4282

>  <Name>
guaiacylpropionic acid

>  <Synonyms>
guaiacylpropionic acid

>  <Target>
Others

>  <Form>
free base

>  <CAS>
6342-77-4

>  <URL>
https://www.selleckchem.com/products/guaiacylpropionic-acid.html

$$$$
