Guanosine.cdx
 OpenBabel08302522003D

 33 35  0  0  0  0  0  0  0  0999 V2000
    2.2575    0.1252    0.0774 C   0  0  0  0  0  0  0  0  0  0  0  0
    1.5426   -1.0375    0.0578 N   0  0  0  0  0  0  0  0  0  0  0  0
    1.3107    1.1242    0.0959 C   0  0  0  0  0  0  0  0  0  0  0  0
    3.6055    0.2521    0.0826 N   0  0  0  0  0  0  0  0  0  0  0  0
    2.0474   -2.3941    0.0265 C   0  0  2  0  0  0  0  0  0  0  0  0
    0.2108   -0.6915    0.0580 C   0  0  0  0  0  0  0  0  0  0  0  0
    0.0382    0.6146    0.0819 N   0  0  0  0  0  0  0  0  0  0  0  0
    1.7711    2.4937    0.1280 C   0  0  0  0  0  0  0  0  0  0  0  0
    4.0117    1.4926    0.1184 C   0  0  0  0  0  0  0  0  0  0  0  0
    2.8408   -2.6405    1.2098 O   0  0  0  0  0  0  0  0  0  0  0  0
    2.9108   -2.7304   -1.1879 C   0  0  1  0  0  0  0  0  0  0  0  0
    3.1600    2.5788    0.1314 N   0  0  0  0  0  0  0  0  0  0  0  0
    1.0654    3.4959    0.1552 O   0  0  0  0  0  0  0  0  0  0  0  0
    5.3376    1.7720    0.1464 N   0  0  0  0  0  0  0  0  0  0  0  0
    4.0109   -3.4056    0.8287 C   0  0  1  0  0  0  0  0  0  0  0  0
    3.8040   -3.8259   -0.6247 C   0  0  1  0  0  0  0  0  0  0  0  0
    2.1453   -3.2046   -2.2968 O   0  0  0  0  0  0  0  0  0  0  0  0
    5.2744   -2.5629    1.0224 C   0  0  0  0  0  0  0  0  0  0  0  0
    3.0868   -5.0719   -0.7256 O   0  0  0  0  0  0  0  0  0  0  0  0
    5.4093   -2.1715    2.3854 O   0  0  0  0  0  0  0  0  0  0  0  0
    1.1792   -3.0638    0.0759 H   0  0  0  0  0  0  0  0  0  0  0  0
   -0.5844   -1.4260    0.0413 H   0  0  0  0  0  0  0  0  0  0  0  0
    3.5123   -1.8796   -1.5216 H   0  0  0  0  0  0  0  0  0  0  0  0
    3.5269    3.5131    0.1907 H   0  0  0  0  0  0  0  0  0  0  0  0
    5.9271    0.9822   -0.0933 H   0  0  0  0  0  0  0  0  0  0  0  0
    5.6532    2.6503   -0.2426 H   0  0  0  0  0  0  0  0  0  0  0  0
    4.0466   -4.2689    1.5023 H   0  0  0  0  0  0  0  0  0  0  0  0
    4.7324   -3.9480   -1.1898 H   0  0  0  0  0  0  0  0  0  0  0  0
    2.1666   -4.1839   -2.2442 H   0  0  0  0  0  0  0  0  0  0  0  0
    6.1617   -3.1451    0.7551 H   0  0  0  0  0  0  0  0  0  0  0  0
    5.2693   -1.6566    0.4149 H   0  0  0  0  0  0  0  0  0  0  0  0
    2.5958   -5.2258    0.1032 H   0  0  0  0  0  0  0  0  0  0  0  0
    4.6394   -1.6016    2.5791 H   0  0  0  0  0  0  0  0  0  0  0  0
  1  2  1  0  0  0  0
  1  3  2  0  0  0  0
  1  4  1  0  0  0  0
  2  6  1  0  0  0  0
  3  7  1  0  0  0  0
  3  8  1  0  0  0  0
  4  9  2  0  0  0  0
  5  2  1  0  0  0  0
  5 10  1  0  0  0  0
  5 11  1  0  0  0  0
  5 21  1  1  0  0  0
  6  7  2  0  0  0  0
  6 22  1  0  0  0  0
  8 12  1  0  0  0  0
  8 13  2  0  0  0  0
  9 14  1  0  0  0  0
  9 12  1  0  0  0  0
 10 15  1  0  0  0  0
 11 16  1  0  0  0  0
 11 17  1  0  0  0  0
 11 23  1  6  0  0  0
 12 24  1  0  0  0  0
 14 25  1  0  0  0  0
 14 26  1  0  0  0  0
 15 16  1  0  0  0  0
 15 27  1  1  0  0  0
 15 18  1  0  0  0  0
 16 19  1  0  0  0  0
 16 28  1  6  0  0  0
 17 29  1  0  0  0  0
 18 20  1  0  0  0  0
 18 30  1  0  0  0  0
 18 31  1  0  0  0  0
 19 32  1  0  0  0  0
 20 33  1  0  0  0  0
M  END
>  <Mol_ID>
1056

>  <Formula>
C10H13N5O5

>  <MolWeight>
283.24072

>  <Cat>
S2439

>  <Name>
Guanosine

>  <Synonyms>
N/A

>  <Target>
Nucleoside Analog/Antimetabolite

>  <Form>
free base

>  <CAS>
118-00-3

>  <URL>
http://selleckchem.com/products/guanosine.html

$$$$
