Guanidine HCl.cdx
 OpenBabel08302522033D

  9  8  0  0  0  0  0  0  0  0999 V2000
    0.8038    0.1559   -0.0629 N   0  0  0  0  0  0  0  0  0  0  0  0
    0.2083    1.0904   -0.8050 C   0  0  0  0  0  0  0  0  0  0  0  0
   -1.1266    1.0566   -0.7782 N   0  0  0  0  0  0  0  0  0  0  0  0
    0.8977    1.9355   -1.4762 N   0  0  0  0  0  0  0  0  0  0  0  0
    0.3135   -0.5311    0.4827 H   0  0  0  0  0  0  0  0  0  0  0  0
    1.8151    0.1519   -0.0597 H   0  0  0  0  0  0  0  0  0  0  0  0
   -1.6758    1.7194   -1.3046 H   0  0  0  0  0  0  0  0  0  0  0  0
   -1.6251    0.3711   -0.2338 H   0  0  0  0  0  0  0  0  0  0  0  0
    0.2666    2.5632   -1.9747 H   0  0  0  0  0  0  0  0  0  0  0  0
  1  2  1  0  0  0  0
  1  5  1  0  0  0  0
  1  6  1  0  0  0  0
  2  3  1  0  0  0  0
  2  4  2  0  0  0  0
  3  7  1  0  0  0  0
  3  8  1  0  0  0  0
  4  9  1  0  0  0  0
M  END
>  <Mol_ID>
1236

>  <Formula>
CH6ClN3

>  <MolWeight>
95.53144

>  <Cat>
S4070

>  <Name>
Guanidine HCl

>  <Synonyms>
Aminoformamidine HCl

>  <Target>
Others

>  <Form>
Hydrochloride

>  <CAS>
50-01-1

>  <URL>
http://selleckchem.com/products/guanidine-aminoformamidine-hcl.html

$$$$
