Guanabenz acetate.cdx
 OpenBabel08302522043D

 30 29  0  0  0  0  0  0  0  0999 V2000
    2.0028   -0.3712   -0.5084 C   0  0  0  0  0  0  0  0  0  0  0  0
    0.9024   -1.7571   -0.1745 C   0  0  0  0  0  0  0  0  0  0  0  0
   -0.8804   -1.4509    0.1130 C   0  0  0  0  0  0  0  0  0  0  0  0
   -1.5152    0.2298    0.0461 C   0  0  0  0  0  0  0  0  0  0  0  0
   -0.3893    1.6225   -0.1864 C   0  0  0  0  0  0  0  0  0  0  0  0
    1.3741    1.3262   -0.4566 C   0  0  0  0  0  0  0  0  0  0  0  0
   -0.8956    2.9864   -0.0214 C   0  0  0  0  0  0  0  0  0  0  0  0
   -2.0680    3.1845    0.4921 N   0  0  0  0  0  0  0  0  0  0  0  0
   -2.4035    4.4997    0.6338 N   0  0  0  0  0  0  0  0  0  0  0  0
   -3.5881    4.9937    1.0901 C   0  0  0  0  0  0  0  0  0  0  0  0
   -4.5051    4.0715    1.4515 N   0  0  0  0  0  0  0  0  0  0  0  0
   -3.8041    6.2608    1.1721 N   0  0  0  0  0  0  0  0  0  0  0  0
    0.4217   -0.0258    0.8345 C   0  0  0  0  0  0  0  0  0  0  0  0
    0.0677   -0.1458   -1.3003 C   0  0  0  0  0  0  0  0  0  0  0  0
   -0.2967   -1.2780   -2.0768 O   0  0  0  0  0  0  0  0  0  0  0  0
    0.1245    0.7478   -2.1885 O   0  0  0  0  0  0  0  0  0  0  0  0
    3.0663   -0.5471   -0.6679 H   0  0  0  0  0  0  0  0  0  0  0  0
    1.3004   -2.7698   -0.1170 H   0  0  0  0  0  0  0  0  0  0  0  0
   -1.5519   -2.2766    0.3430 H   0  0  0  0  0  0  0  0  0  0  0  0
   -2.5689    0.4305    0.2292 H   0  0  0  0  0  0  0  0  0  0  0  0
    2.0519    2.1615   -0.6148 H   0  0  0  0  0  0  0  0  0  0  0  0
   -0.2155    3.8058   -0.3122 H   0  0  0  0  0  0  0  0  0  0  0  0
   -1.7634    5.2363    0.3491 H   0  0  0  0  0  0  0  0  0  0  0  0
   -5.1931    4.3587    2.1318 H   0  0  0  0  0  0  0  0  0  0  0  0
   -4.0625    3.1814    1.6609 H   0  0  0  0  0  0  0  0  0  0  0  0
   -4.7614    6.4036    1.4988 H   0  0  0  0  0  0  0  0  0  0  0  0
    0.3707   -0.9069    1.5457 H   0  0  0  0  0  0  0  0  0  0  0  0
   -0.2048    0.6165    1.5271 H   0  0  0  0  0  0  0  0  0  0  0  0
    1.4070    0.3154    1.2757 H   0  0  0  0  0  0  0  0  0  0  0  0
   -0.4501   -2.1828   -1.7631 H   0  0  0  0  0  0  0  0  0  0  0  0
  1  2  2  0  0  0  0
  1 17  1  0  0  0  0
  2  3  1  0  0  0  0
  2 18  1  0  0  0  0
  3  4  2  0  0  0  0
  3 19  1  0  0  0  0
  4  5  1  0  0  0  0
  4 20  1  0  0  0  0
  5  6  2  0  0  0  0
  5  7  1  0  0  0  0
  6  1  1  0  0  0  0
  6 21  1  0  0  0  0
  7  8  2  0  0  0  0
  7 22  1  0  0  0  0
  8  9  1  0  0  0  0
  9 10  1  0  0  0  0
  9 23  1  0  0  0  0
 10 11  1  0  0  0  0
 10 12  2  0  0  0  0
 11 24  1  0  0  0  0
 11 25  1  0  0  0  0
 12 26  1  0  0  0  0
 13 14  1  0  0  0  0
 13 27  1  0  0  0  0
 13 28  1  0  0  0  0
 13 29  1  0  0  0  0
 14 15  1  0  0  0  0
 14 16  2  0  0  0  0
 15 30  1  0  0  0  0
M  END
>  <Mol_ID>
1241

>  <Formula>
C10H12Cl2N4O2

>  <MolWeight>
291.13388

>  <Cat>
S4065

>  <Name>
Guanabenz Acetate

>  <Synonyms>
WY-8678 Acetate

>  <Target>
Adrenergic Receptor

>  <Form>
Acetate

>  <CAS>
23256-50-0

>  <URL>
http://selleckchem.com/products/guanabenz-wy-8678-acetate.html

$$$$
