Guanabenz
 OpenBabel08302521303D

 22 22  0  0  0  0  0  0  0  0999 V2000
    1.1816   -0.2860    0.1389 N   0  0  0  0  0  0  0  0  0  0  0  0
    0.6341   -0.6981   -1.0465 N   0  0  0  0  0  0  0  0  0  0  0  0
   -1.3224   -1.6785   -0.1754 N   0  0  0  0  0  0  0  0  0  0  0  0
   -0.9036   -1.6603   -2.4242 N   0  0  0  0  0  0  0  0  0  0  0  0
    3.0882    0.8673    1.1388 C   0  0  0  0  0  0  0  0  0  0  0  0
    2.6328    0.7490    2.4533 C   0  0  0  0  0  0  0  0  0  0  0  0
    4.3144    1.4873    0.8710 C   0  0  0  0  0  0  0  0  0  0  0  0
    3.4098    1.2505    3.5008 C   0  0  0  0  0  0  0  0  0  0  0  0
    5.0889    1.9841    1.9221 C   0  0  0  0  0  0  0  0  0  0  0  0
    4.6350    1.8655    3.2348 C   0  0  0  0  0  0  0  0  0  0  0  0
    2.3094    0.3390    0.0014 C   0  0  0  0  0  0  0  0  0  0  0  0
   -0.5568   -1.3480   -1.1555 C   0  0  0  0  0  0  0  0  0  0  0  0
    0.9185   -0.2397   -1.9073 H   0  0  0  0  0  0  0  0  0  0  0  0
   -0.8262   -1.3269    0.6568 H   0  0  0  0  0  0  0  0  0  0  0  0
   -0.1759   -2.1679   -2.9121 H   0  0  0  0  0  0  0  0  0  0  0  0
   -1.7474   -2.2274   -2.3928 H   0  0  0  0  0  0  0  0  0  0  0  0
    1.6811    0.2700    2.6698 H   0  0  0  0  0  0  0  0  0  0  0  0
    4.6804    1.5857   -0.1475 H   0  0  0  0  0  0  0  0  0  0  0  0
    3.0606    1.1600    4.5265 H   0  0  0  0  0  0  0  0  0  0  0  0
    6.0415    2.4672    1.7165 H   0  0  0  0  0  0  0  0  0  0  0  0
    5.2373    2.2515    4.0537 H   0  0  0  0  0  0  0  0  0  0  0  0
    2.7523    0.4969   -0.9992 H   0  0  0  0  0  0  0  0  0  0  0  0
  1  2  1  0  0  0  0
  1 11  2  0  0  0  0
  2 12  1  0  0  0  0
  2 13  1  0  0  0  0
  3 12  2  0  0  0  0
  3 14  1  0  0  0  0
  4 12  1  0  0  0  0
  4 15  1  0  0  0  0
  4 16  1  0  0  0  0
  5  6  2  0  0  0  0
  5  7  1  0  0  0  0
  5 11  1  0  0  0  0
  6  8  1  0  0  0  0
  6 17  1  0  0  0  0
  7  9  2  0  0  0  0
  7 18  1  0  0  0  0
  8 10  2  0  0  0  0
  8 19  1  0  0  0  0
  9 10  1  0  0  0  0
  9 20  1  0  0  0  0
 10 21  1  0  0  0  0
 11 22  1  0  0  0  0
M  END
>  <Mol_ID>
5629

>  <Formula>
C8H8Cl2N4

>  <MolWeight>
231.08192

>  <Cat>
S4481

>  <Name>
Guanabenz

>  <Synonyms>
GBZ, GA, Wytensin, Wy-8678,BR-750

>  <Target>
Adrenergic Receptor

>  <Form>
Free Base

>  <CAS>
5051-62-7

>  <URL>
http://www.selleckchem.com/products/guanabenz.html

$$$$
