Guvacoline hydrochloride
 OpenBabel08302521323D

 21 21  0  0  0  0  0  0  0  0999 V2000
    1.0415   -0.0359    0.1203 C   0  0  0  0  0  0  0  0  0  0  0  0
    0.4687   -1.2636    0.2068 O   0  0  0  0  0  0  0  0  0  0  0  0
    0.4426    1.0281    0.0581 O   0  0  0  0  0  0  0  0  0  0  0  0
   -0.9573   -1.2771    0.2278 C   0  0  0  0  0  0  0  0  0  0  0  0
    2.5284   -0.1535    0.0868 C   0  0  0  0  0  0  0  0  0  0  0  0
    3.1544   -1.3444    0.1356 C   0  0  0  0  0  0  0  0  0  0  0  0
    3.2879    1.1472   -0.0071 C   0  0  0  0  0  0  0  0  0  0  0  0
    4.6484   -1.4436    0.0494 C   0  0  0  0  0  0  0  0  0  0  0  0
    4.7444    1.0225    0.2039 N   0  0  0  0  0  0  0  0  0  0  0  0
    5.2829   -0.1527   -0.4840 C   0  0  0  0  0  0  0  0  0  0  0  0
   -1.3322   -0.7624    1.1168 H   0  0  0  0  0  0  0  0  0  0  0  0
   -1.3627   -0.8320   -0.6857 H   0  0  0  0  0  0  0  0  0  0  0  0
   -1.2775   -2.3227    0.2726 H   0  0  0  0  0  0  0  0  0  0  0  0
    2.6061   -2.2778    0.2284 H   0  0  0  0  0  0  0  0  0  0  0  0
    2.9170    1.8502    0.7484 H   0  0  0  0  0  0  0  0  0  0  0  0
    3.1086    1.5996   -0.9905 H   0  0  0  0  0  0  0  0  0  0  0  0
    4.9177   -2.2757   -0.6101 H   0  0  0  0  0  0  0  0  0  0  0  0
    5.0379   -1.6749    1.0474 H   0  0  0  0  0  0  0  0  0  0  0  0
    5.2007    1.8637   -0.1461 H   0  0  0  0  0  0  0  0  0  0  0  0
    5.1169   -0.0648   -1.5656 H   0  0  0  0  0  0  0  0  0  0  0  0
    6.3669   -0.2000   -0.3316 H   0  0  0  0  0  0  0  0  0  0  0  0
  1  2  1  0  0  0  0
  1  3  2  0  0  0  0
  1  5  1  0  0  0  0
  2  4  1  0  0  0  0
  4 11  1  0  0  0  0
  4 12  1  0  0  0  0
  4 13  1  0  0  0  0
  5  6  2  0  0  0  0
  5  7  1  0  0  0  0
  6  8  1  0  0  0  0
  6 14  1  0  0  0  0
  7  9  1  0  0  0  0
  7 15  1  0  0  0  0
  7 16  1  0  0  0  0
  8 10  1  0  0  0  0
  8 17  1  0  0  0  0
  8 18  1  0  0  0  0
  9 10  1  0  0  0  0
  9 19  1  0  0  0  0
 10 20  1  0  0  0  0
 10 21  1  0  0  0  0
M  END
>  <Mol_ID>
6331

>  <Formula>
C7H12ClNO2

>  <MolWeight>
177.62868

>  <Cat>
E0755

>  <Name>
Guvacoline hydrochloride

>  <Synonyms>
Norarecoline hydrochloride

>  <Target>
AChR

>  <Form>
hydrochloride

>  <CAS>
6197-39-3

>  <URL>
http://www.selleckchem.com/products/guvacoline-hydrochloride.html

$$$$
