GW788388(1).cdx
 OpenBabel08302521293D

 55 59  0  0  0  0  0  0  0  0999 V2000
    1.0859   -0.1318   -0.1079 C   0  0  0  0  0  0  0  0  0  0  0  0
    0.1389    0.9038    0.4078 C   0  0  0  0  0  0  0  0  0  0  0  0
    0.2357    2.2477    0.0358 C   0  0  0  0  0  0  0  0  0  0  0  0
   -0.6074    3.2034    0.6245 C   0  0  0  0  0  0  0  0  0  0  0  0
   -1.5728    2.8532    1.5900 C   0  0  0  0  0  0  0  0  0  0  0  0
   -1.6630    1.4926    1.9348 C   0  0  0  0  0  0  0  0  0  0  0  0
   -0.8171    0.5321    1.3581 C   0  0  0  0  0  0  0  0  0  0  0  0
    1.3799   -1.0983    0.5856 O   0  0  0  0  0  0  0  0  0  0  0  0
    1.5842    0.0729   -1.3778 N   0  0  0  0  0  0  0  0  0  0  0  0
    4.2006   -0.9427   -3.9444 C   0  0  0  0  0  0  0  0  0  0  0  0
    3.3999   -0.0464   -3.0118 C   0  0  0  0  0  0  0  0  0  0  0  0
    2.5412   -0.8353   -2.0170 C   0  0  0  0  0  0  0  0  0  0  0  0
    1.8284   -2.0110   -2.6918 C   0  0  0  0  0  0  0  0  0  0  0  0
    2.7872   -2.7936   -3.5764 C   0  0  0  0  0  0  0  0  0  0  0  0
    3.3680   -1.9275   -4.5495 O   0  0  0  0  0  0  0  0  0  0  0  0
   -2.4247    3.8919    2.2165 C   0  0  0  0  0  0  0  0  0  0  0  0
   -3.7187    3.6423    2.6734 C   0  0  0  0  0  0  0  0  0  0  0  0
   -4.4780    4.6871    3.2266 C   0  0  0  0  0  0  0  0  0  0  0  0
   -3.9062    5.9556    3.2814 C   0  0  0  0  0  0  0  0  0  0  0  0
   -2.6059    6.1178    2.8446 C   0  0  0  0  0  0  0  0  0  0  0  0
   -1.8673    5.1275    2.3045 N   0  0  0  0  0  0  0  0  0  0  0  0
   -7.8759    3.6478    3.8171 N   0  0  0  0  0  0  0  0  0  0  0  0
   -7.8531    4.5435    4.8103 N   0  0  0  0  0  0  0  0  0  0  0  0
   -6.5976    5.0398    4.7946 C   0  0  0  0  0  0  0  0  0  0  0  0
   -5.8349    4.4528    3.7210 C   0  0  0  0  0  0  0  0  0  0  0  0
   -6.7094    3.5668    3.1240 C   0  0  0  0  0  0  0  0  0  0  0  0
   -6.1802    6.0693    5.7606 C   0  0  0  0  0  0  0  0  0  0  0  0
   -7.0900    7.0100    6.2341 C   0  0  0  0  0  0  0  0  0  0  0  0
   -6.6249    8.0505    7.0352 C   0  0  0  0  0  0  0  0  0  0  0  0
   -5.2721    8.1198    7.3480 C   0  0  0  0  0  0  0  0  0  0  0  0
   -4.4407    7.1252    6.8665 C   0  0  0  0  0  0  0  0  0  0  0  0
   -4.8644    6.1054    6.0925 N   0  0  0  0  0  0  0  0  0  0  0  0
    0.9899    2.5852   -0.6692 H   0  0  0  0  0  0  0  0  0  0  0  0
   -0.4918    4.2498    0.3400 H   0  0  0  0  0  0  0  0  0  0  0  0
   -2.3690    1.1594    2.6928 H   0  0  0  0  0  0  0  0  0  0  0  0
   -0.8952   -0.5069    1.6726 H   0  0  0  0  0  0  0  0  0  0  0  0
    1.0943    0.7265   -1.9747 H   0  0  0  0  0  0  0  0  0  0  0  0
    4.6335   -0.3377   -4.7486 H   0  0  0  0  0  0  0  0  0  0  0  0
    5.0297   -1.4346   -3.4238 H   0  0  0  0  0  0  0  0  0  0  0  0
    2.7451    0.5887   -3.6218 H   0  0  0  0  0  0  0  0  0  0  0  0
    4.0766    0.6276   -2.4726 H   0  0  0  0  0  0  0  0  0  0  0  0
    3.1968   -1.2395   -1.2339 H   0  0  0  0  0  0  0  0  0  0  0  0
    1.3833   -2.6752   -1.9421 H   0  0  0  0  0  0  0  0  0  0  0  0
    1.0082   -1.6268   -3.3110 H   0  0  0  0  0  0  0  0  0  0  0  0
    3.5803   -3.2768   -2.9933 H   0  0  0  0  0  0  0  0  0  0  0  0
    2.2468   -3.5805   -4.1123 H   0  0  0  0  0  0  0  0  0  0  0  0
   -4.1407    2.6482    2.6085 H   0  0  0  0  0  0  0  0  0  0  0  0
   -4.4399    6.8139    3.6738 H   0  0  0  0  0  0  0  0  0  0  0  0
   -2.1120    7.0823    2.9192 H   0  0  0  0  0  0  0  0  0  0  0  0
   -8.7358    3.1336    3.6548 H   0  0  0  0  0  0  0  0  0  0  0  0
   -6.6145    2.9083    2.2730 H   0  0  0  0  0  0  0  0  0  0  0  0
   -8.1391    6.9525    5.9617 H   0  0  0  0  0  0  0  0  0  0  0  0
   -7.3117    8.8115    7.3957 H   0  0  0  0  0  0  0  0  0  0  0  0
   -4.8753    8.9324    7.9448 H   0  0  0  0  0  0  0  0  0  0  0  0
   -3.3764    7.1293    7.0841 H   0  0  0  0  0  0  0  0  0  0  0  0
  1  2  1  0  0  0  0
  1  8  2  0  0  0  0
  1  9  1  0  0  0  0
  2  3  2  0  0  0  0
  2  7  1  0  0  0  0
  3  4  1  0  0  0  0
  3 33  1  0  0  0  0
  4  5  2  0  0  0  0
  4 34  1  0  0  0  0
  5  6  1  0  0  0  0
  5 16  1  0  0  0  0
  6  7  2  0  0  0  0
  6 35  1  0  0  0  0
  7 36  1  0  0  0  0
  9 12  1  0  0  0  0
  9 37  1  0  0  0  0
 10 11  1  0  0  0  0
 10 15  1  0  0  0  0
 10 38  1  0  0  0  0
 10 39  1  0  0  0  0
 11 12  1  0  0  0  0
 11 40  1  0  0  0  0
 11 41  1  0  0  0  0
 12 13  1  0  0  0  0
 12 42  1  0  0  0  0
 13 14  1  0  0  0  0
 13 43  1  0  0  0  0
 13 44  1  0  0  0  0
 14 15  1  0  0  0  0
 14 45  1  0  0  0  0
 14 46  1  0  0  0  0
 16 17  2  0  0  0  0
 16 21  1  0  0  0  0
 17 18  1  0  0  0  0
 17 47  1  0  0  0  0
 18 19  2  0  0  0  0
 18 25  1  0  0  0  0
 19 20  1  0  0  0  0
 19 48  1  0  0  0  0
 20 21  2  0  0  0  0
 20 49  1  0  0  0  0
 22 23  1  0  0  0  0
 22 26  1  0  0  0  0
 22 50  1  0  0  0  0
 23 24  2  0  0  0  0
 24 25  1  0  0  0  0
 24 27  1  0  0  0  0
 25 26  2  0  0  0  0
 26 51  1  0  0  0  0
 27 28  2  0  0  0  0
 27 32  1  0  0  0  0
 28 29  1  0  0  0  0
 28 52  1  0  0  0  0
 29 30  2  0  0  0  0
 29 53  1  0  0  0  0
 30 31  1  0  0  0  0
 30 54  1  0  0  0  0
 31 32  2  0  0  0  0
 31 55  1  0  0  0  0
M  END
>  <Mol_ID>
528

>  <Formula>
C25H23N5O2

>  <MolWeight>
425.48242

>  <Cat>
S2750

>  <Name>
GW788388

>  <Synonyms>
N/A

>  <Target>
TGF-beta/Smad

>  <Form>
free base

>  <CAS>
452342-67-5

>  <URL>
http://selleckchem.com/products/gw788388.html

$$$$
