GW842166x.cdx
 OpenBabel08302521313D

 46 48  0  0  0  0  0  0  0  0999 V2000
   -0.2160    1.5151   -0.0276 C   0  0  0  0  0  0  0  0  0  0  0  0
    0.9731    0.9293   -0.2253 N   0  0  0  0  0  0  0  0  0  0  0  0
    1.0571   -0.4369   -0.2276 C   0  0  0  0  0  0  0  0  0  0  0  0
   -0.0354   -1.2387    0.0545 C   0  0  0  0  0  0  0  0  0  0  0  0
   -1.2169   -0.5453    0.2262 C   0  0  0  0  0  0  0  0  0  0  0  0
   -1.3275    0.8051    0.1888 N   0  0  0  0  0  0  0  0  0  0  0  0
   -0.0759   -2.7261    0.1276 C   0  0  0  0  0  0  0  0  0  0  0  0
   -1.0881   -3.3059   -0.2474 O   0  0  0  0  0  0  0  0  0  0  0  0
    1.0113   -3.3752    0.6705 N   0  0  0  0  0  0  0  0  0  0  0  0
    1.1345   -4.8287    0.7356 C   0  0  0  0  0  0  0  0  0  0  0  0
    1.7017   -5.4120    4.5649 C   0  0  0  0  0  0  0  0  0  0  0  0
    1.7633   -4.6876    3.2231 C   0  0  0  0  0  0  0  0  0  0  0  0
    0.9436   -5.4206    2.1484 C   0  0  0  0  0  0  0  0  0  0  0  0
    1.3260   -6.9144    2.1508 C   0  0  0  0  0  0  0  0  0  0  0  0
    1.2803   -7.5044    3.5556 C   0  0  0  0  0  0  0  0  0  0  0  0
    2.1291   -6.7650    4.4307 O   0  0  0  0  0  0  0  0  0  0  0  0
    2.3857   -1.0159   -0.6490 C   0  0  0  0  0  0  0  0  0  0  0  0
    3.3129   -0.0689   -0.9771 F   0  0  0  0  0  0  0  0  0  0  0  0
    2.9704   -1.7590    0.3360 F   0  0  0  0  0  0  0  0  0  0  0  0
    2.2941   -1.8279   -1.7368 F   0  0  0  0  0  0  0  0  0  0  0  0
   -0.1968    2.9064   -0.1192 N   0  0  0  0  0  0  0  0  0  0  0  0
   -1.2046    3.8238   -0.4529 C   0  0  0  0  0  0  0  0  0  0  0  0
   -2.5637    3.5871   -0.2310 C   0  0  0  0  0  0  0  0  0  0  0  0
   -3.5335    4.5095   -0.6377 C   0  0  0  0  0  0  0  0  0  0  0  0
   -3.1563    5.6938   -1.2643 C   0  0  0  0  0  0  0  0  0  0  0  0
   -1.8070    5.9671   -1.4625 C   0  0  0  0  0  0  0  0  0  0  0  0
   -0.8410    5.0442   -1.0491 C   0  0  0  0  0  0  0  0  0  0  0  0
   -2.1573   -1.0665    0.3996 H   0  0  0  0  0  0  0  0  0  0  0  0
    1.8142   -2.8601    1.0143 H   0  0  0  0  0  0  0  0  0  0  0  0
    0.4190   -5.2899    0.0437 H   0  0  0  0  0  0  0  0  0  0  0  0
    2.1398   -5.0598    0.3654 H   0  0  0  0  0  0  0  0  0  0  0  0
    2.3698   -4.9231    5.2814 H   0  0  0  0  0  0  0  0  0  0  0  0
    0.6910   -5.3890    4.9891 H   0  0  0  0  0  0  0  0  0  0  0  0
    2.8099   -4.6334    2.8988 H   0  0  0  0  0  0  0  0  0  0  0  0
    1.4008   -3.6621    3.3520 H   0  0  0  0  0  0  0  0  0  0  0  0
   -0.1175   -5.3341    2.4190 H   0  0  0  0  0  0  0  0  0  0  0  0
    0.6689   -7.4845    1.4853 H   0  0  0  0  0  0  0  0  0  0  0  0
    2.3508   -7.0192    1.7698 H   0  0  0  0  0  0  0  0  0  0  0  0
    0.2600   -7.5178    3.9558 H   0  0  0  0  0  0  0  0  0  0  0  0
    1.6415   -8.5383    3.5399 H   0  0  0  0  0  0  0  0  0  0  0  0
    0.7419    3.1911   -0.3657 H   0  0  0  0  0  0  0  0  0  0  0  0
   -2.8939    2.6787    0.2639 H   0  0  0  0  0  0  0  0  0  0  0  0
   -4.5848    4.2931   -0.4682 H   0  0  0  0  0  0  0  0  0  0  0  0
   -3.9124    6.4008   -1.5946 H   0  0  0  0  0  0  0  0  0  0  0  0
   -1.5048    6.8917   -1.9476 H   0  0  0  0  0  0  0  0  0  0  0  0
    0.2059    5.2802   -1.2258 H   0  0  0  0  0  0  0  0  0  0  0  0
  1  2  2  0  0  0  0
  1  6  1  0  0  0  0
  1 21  1  0  0  0  0
  2  3  1  0  0  0  0
  3  4  2  0  0  0  0
  3 17  1  0  0  0  0
  4  5  1  0  0  0  0
  4  7  1  0  0  0  0
  5  6  2  0  0  0  0
  5 28  1  0  0  0  0
  7  8  2  0  0  0  0
  7  9  1  0  0  0  0
  9 10  1  0  0  0  0
  9 29  1  0  0  0  0
 10 13  1  0  0  0  0
 10 30  1  0  0  0  0
 10 31  1  0  0  0  0
 11 12  1  0  0  0  0
 11 16  1  0  0  0  0
 11 32  1  0  0  0  0
 11 33  1  0  0  0  0
 12 13  1  0  0  0  0
 12 34  1  0  0  0  0
 12 35  1  0  0  0  0
 13 14  1  0  0  0  0
 13 36  1  0  0  0  0
 14 15  1  0  0  0  0
 14 37  1  0  0  0  0
 14 38  1  0  0  0  0
 15 16  1  0  0  0  0
 15 39  1  0  0  0  0
 15 40  1  0  0  0  0
 17 18  1  0  0  0  0
 17 19  1  0  0  0  0
 17 20  1  0  0  0  0
 21 22  1  0  0  0  0
 21 41  1  0  0  0  0
 22 23  2  0  0  0  0
 22 27  1  0  0  0  0
 23 24  1  0  0  0  0
 23 42  1  0  0  0  0
 24 25  2  0  0  0  0
 24 43  1  0  0  0  0
 25 26  1  0  0  0  0
 25 44  1  0  0  0  0
 26 27  2  0  0  0  0
 26 45  1  0  0  0  0
 27 46  1  0  0  0  0
M  END
>  <Mol_ID>
556

>  <Formula>
C18H17Cl2F3N4O2

>  <MolWeight>
449.2543896

>  <Cat>
S2778

>  <Name>
GW842166X

>  <Synonyms>
N/A

>  <Target>
Cannabinoid Receptor

>  <Form>
free base

>  <CAS>
666260-75-9

>  <URL>
http://selleckchem.com/products/gw-842166x.html

$$$$
