GW843682X
 OpenBabel08302521323D

 51 54  0  0  0  0  0  0  0  0999 V2000
    1.9209   -0.3913   -2.9047 O   0  0  0  0  0  0  0  0  0  0  0  0
    0.9401    0.3859   -3.5301 C   0  0  0  0  0  0  0  0  0  0  0  0
    3.3331    2.5390   -2.1556 O   0  0  0  0  0  0  0  0  0  0  0  0
    2.2856    2.9746   -2.9782 C   0  0  0  0  0  0  0  0  0  0  0  0
    5.5112   -6.8535    1.2654 O   0  0  0  0  0  0  0  0  0  0  0  0
    6.7187   -6.8020    2.0268 C   0  0  0  0  0  0  0  0  0  0  0  0
    4.1220   -6.9696   -1.4908 C   0  0  0  0  0  0  0  0  0  0  0  0
    4.2415   -8.1993   -0.9124 N   0  0  0  0  0  0  0  0  0  0  0  0
    3.5620   -6.8944   -2.5807 O   0  0  0  0  0  0  0  0  0  0  0  0
    7.4442   -9.8272    1.9979 C   0  0  0  0  0  0  0  0  0  0  0  0
    7.2886   -9.1573    0.8244 F   0  0  0  0  0  0  0  0  0  0  0  0
    8.7525  -10.2038    2.0402 F   0  0  0  0  0  0  0  0  0  0  0  0
    6.7307  -10.9795    1.8483 F   0  0  0  0  0  0  0  0  0  0  0  0
    4.6717   -1.1512   -0.8123 C   0  0  0  0  0  0  0  0  0  0  0  0
    5.3974   -2.1271   -0.1429 N   0  0  0  0  0  0  0  0  0  0  0  0
    5.2618    0.0515   -0.4661 C   0  0  0  0  0  0  0  0  0  0  0  0
    3.5339   -1.1711   -1.6258 C   0  0  0  0  0  0  0  0  0  0  0  0
    6.3349   -1.4338    0.6037 C   0  0  0  0  0  0  0  0  0  0  0  0
    4.7279    1.2332   -0.9949 C   0  0  0  0  0  0  0  0  0  0  0  0
    6.3014   -0.1363    0.4020 N   0  0  0  0  0  0  0  0  0  0  0  0
    2.9756    0.0190   -2.1559 C   0  0  0  0  0  0  0  0  0  0  0  0
    3.5805    1.2386   -1.8399 C   0  0  0  0  0  0  0  0  0  0  0  0
    5.2407   -3.5181   -0.1512 C   0  0  0  0  0  0  0  0  0  0  0  0
    5.6213   -4.3981    0.8302 C   0  0  0  0  0  0  0  0  0  0  0  0
    4.5630   -4.2963   -1.4846 S   0  0  0  0  0  0  0  0  0  0  0  0
    5.3126   -5.7559    0.4804 C   0  0  0  0  0  0  0  0  0  0  0  0
    4.6717   -5.8459   -0.7488 C   0  0  0  0  0  0  0  0  0  0  0  0
    6.6335   -7.7064    3.2382 C   0  0  0  0  0  0  0  0  0  0  0  0
    7.0319   -9.0595    3.2352 C   0  0  0  0  0  0  0  0  0  0  0  0
    6.1881   -7.1277    4.4459 C   0  0  0  0  0  0  0  0  0  0  0  0
    7.0732   -9.7538    4.4640 C   0  0  0  0  0  0  0  0  0  0  0  0
    6.2305   -7.8345    5.6459 C   0  0  0  0  0  0  0  0  0  0  0  0
    6.6963   -9.1418    5.6592 C   0  0  0  0  0  0  0  0  0  0  0  0
    0.3978    1.0062   -2.8173 H   0  0  0  0  0  0  0  0  0  0  0  0
    1.3523    0.9275   -4.3796 H   0  0  0  0  0  0  0  0  0  0  0  0
    0.2042   -0.3089   -3.9512 H   0  0  0  0  0  0  0  0  0  0  0  0
    2.3954    2.5885   -3.9908 H   0  0  0  0  0  0  0  0  0  0  0  0
    1.3181    2.7734   -2.5198 H   0  0  0  0  0  0  0  0  0  0  0  0
    2.3605    4.0641   -3.0565 H   0  0  0  0  0  0  0  0  0  0  0  0
    7.5726   -7.0600    1.3934 H   0  0  0  0  0  0  0  0  0  0  0  0
    6.9384   -5.8008    2.4113 H   0  0  0  0  0  0  0  0  0  0  0  0
    3.8550   -8.9923   -1.4064 H   0  0  0  0  0  0  0  0  0  0  0  0
    4.6824   -8.3249   -0.0122 H   0  0  0  0  0  0  0  0  0  0  0  0
    3.0310   -2.1078   -1.8517 H   0  0  0  0  0  0  0  0  0  0  0  0
    7.0473   -1.9367    1.2436 H   0  0  0  0  0  0  0  0  0  0  0  0
    5.2087    2.1723   -0.7306 H   0  0  0  0  0  0  0  0  0  0  0  0
    6.0352   -4.0785    1.7772 H   0  0  0  0  0  0  0  0  0  0  0  0
    5.8289   -6.0992    4.4624 H   0  0  0  0  0  0  0  0  0  0  0  0
    7.4161  -10.7886    4.4911 H   0  0  0  0  0  0  0  0  0  0  0  0
    5.9172   -7.3567    6.5712 H   0  0  0  0  0  0  0  0  0  0  0  0
    6.7601   -9.6881    6.5972 H   0  0  0  0  0  0  0  0  0  0  0  0
  1  2  1  0  0  0  0
  1 21  1  0  0  0  0
  2 34  1  0  0  0  0
  2 35  1  0  0  0  0
  2 36  1  0  0  0  0
  3  4  1  0  0  0  0
  3 22  1  0  0  0  0
  4 37  1  0  0  0  0
  4 38  1  0  0  0  0
  4 39  1  0  0  0  0
  5  6  1  0  0  0  0
  5 26  1  0  0  0  0
  6 28  1  0  0  0  0
  6 40  1  0  0  0  0
  6 41  1  0  0  0  0
  7  8  1  0  0  0  0
  7  9  2  0  0  0  0
  7 27  1  0  0  0  0
  8 42  1  0  0  0  0
  8 43  1  0  0  0  0
 10 11  1  0  0  0  0
 10 12  1  0  0  0  0
 10 13  1  0  0  0  0
 10 29  1  0  0  0  0
 14 15  1  0  0  0  0
 14 16  1  0  0  0  0
 14 17  2  0  0  0  0
 15 18  1  0  0  0  0
 15 23  1  0  0  0  0
 16 19  2  0  0  0  0
 16 20  1  0  0  0  0
 17 21  1  0  0  0  0
 17 44  1  0  0  0  0
 18 20  2  0  0  0  0
 18 45  1  0  0  0  0
 19 22  1  0  0  0  0
 19 46  1  0  0  0  0
 21 22  2  0  0  0  0
 23 24  2  0  0  0  0
 23 25  1  0  0  0  0
 24 26  1  0  0  0  0
 24 47  1  0  0  0  0
 25 27  1  0  0  0  0
 26 27  2  0  0  0  0
 28 29  2  0  0  0  0
 28 30  1  0  0  0  0
 29 31  1  0  0  0  0
 30 32  2  0  0  0  0
 30 48  1  0  0  0  0
 31 33  2  0  0  0  0
 31 49  1  0  0  0  0
 32 33  1  0  0  0  0
 32 50  1  0  0  0  0
 33 51  1  0  0  0  0
M  END
>  <Mol_ID>
6206

>  <Formula>
C22H18F3N3O4S

>  <MolWeight>
477.4562296

>  <Cat>
S2880

>  <Name>
GW843682X

>  <Target>
PLK

>  <Form>
free base

>  <CAS>
660868-91-7

>  <URL>
http://www.selleckchem.com/products/gw-843682x.html

$$$$
