GW9662.cdx
 OpenBabel08302522013D

 28 29  0  0  0  0  0  0  0  0999 V2000
    1.4020   -0.2140    0.0739 C   0  0  0  0  0  0  0  0  0  0  0  0
    0.5274   -1.2477    0.4444 C   0  0  0  0  0  0  0  0  0  0  0  0
    2.8608   -0.5366    0.0798 C   0  0  0  0  0  0  0  0  0  0  0  0
    0.8819    1.0225   -0.3252 C   0  0  0  0  0  0  0  0  0  0  0  0
   -0.8546   -1.0358    0.4348 C   0  0  0  0  0  0  0  0  0  0  0  0
    3.7459    0.4949    0.3578 N   0  0  0  0  0  0  0  0  0  0  0  0
    3.1590   -1.7111   -0.0876 O   0  0  0  0  0  0  0  0  0  0  0  0
   -0.5054    1.2292   -0.3286 C   0  0  0  0  0  0  0  0  0  0  0  0
   -1.3777    0.2063    0.0546 C   0  0  0  0  0  0  0  0  0  0  0  0
   -1.7580   -2.1265    0.8235 N   0  3  0  0  0  0  0  0  0  0  0  0
    5.1500    0.3281    0.4623 C   0  0  0  0  0  0  0  0  0  0  0  0
   -1.2516   -3.2062    1.1537 O   0  0  0  0  0  0  0  0  0  0  0  0
   -2.9760   -1.8989    0.8028 O   0  5  0  0  0  0  0  0  0  0  0  0
    5.8256   -0.7779   -0.0662 C   0  0  0  0  0  0  0  0  0  0  0  0
    5.8918    1.3051    1.1362 C   0  0  0  0  0  0  0  0  0  0  0  0
    7.2044   -0.9260    0.0956 C   0  0  0  0  0  0  0  0  0  0  0  0
    7.2730    1.1508    1.3112 C   0  0  0  0  0  0  0  0  0  0  0  0
    7.9275    0.0348    0.7918 C   0  0  0  0  0  0  0  0  0  0  0  0
    0.9362   -2.2160    0.7350 H   0  0  0  0  0  0  0  0  0  0  0  0
    1.5277    1.8269   -0.6682 H   0  0  0  0  0  0  0  0  0  0  0  0
    3.3760    1.3808    0.6801 H   0  0  0  0  0  0  0  0  0  0  0  0
   -0.9129    2.1892   -0.6423 H   0  0  0  0  0  0  0  0  0  0  0  0
   -2.4518    0.3857    0.0440 H   0  0  0  0  0  0  0  0  0  0  0  0
    5.3036   -1.5481   -0.6268 H   0  0  0  0  0  0  0  0  0  0  0  0
    5.4084    2.1765    1.5666 H   0  0  0  0  0  0  0  0  0  0  0  0
    7.7025   -1.7982   -0.3211 H   0  0  0  0  0  0  0  0  0  0  0  0
    7.8388    1.8967    1.8638 H   0  0  0  0  0  0  0  0  0  0  0  0
    8.9979   -0.0884    0.9295 H   0  0  0  0  0  0  0  0  0  0  0  0
  1  2  2  0  0  0  0
  1  3  1  0  0  0  0
  1  4  1  0  0  0  0
  2  5  1  0  0  0  0
  2 19  1  0  0  0  0
  3  6  1  0  0  0  0
  3  7  2  0  0  0  0
  4  8  2  0  0  0  0
  4 20  1  0  0  0  0
  5  9  2  0  0  0  0
  5 10  1  0  0  0  0
  6 11  1  0  0  0  0
  6 21  1  0  0  0  0
  8  9  1  0  0  0  0
  8 22  1  0  0  0  0
  9 23  1  0  0  0  0
 10 12  2  0  0  0  0
 10 13  1  0  0  0  0
 11 14  2  0  0  0  0
 11 15  1  0  0  0  0
 14 16  1  0  0  0  0
 14 24  1  0  0  0  0
 15 17  2  0  0  0  0
 15 25  1  0  0  0  0
 16 18  2  0  0  0  0
 16 26  1  0  0  0  0
 17 18  1  0  0  0  0
 17 27  1  0  0  0  0
 18 28  1  0  0  0  0
M  CHG  2  10   1  13  -1
M  END
>  <Mol_ID>
1090

>  <Formula>
C13H9ClN2O3

>  <MolWeight>
276.67516

>  <Cat>
S2915

>  <Name>
GW9662

>  <Synonyms>
TIMTEC-BB SBB006523

>  <Target>
PPAR

>  <Form>
free base

>  <CAS>
22978-25-2

>  <URL>
http://selleckchem.com/products/gw9662.html

$$$$
