GW 610
 OpenBabel08302521323D

 32 34  0  0  0  0  0  0  0  0999 V2000
    1.5666   -1.4695   -0.5331 S   0  0  0  0  0  0  0  0  0  0  0  0
    2.3947   -0.0809    0.0645 C   0  0  0  0  0  0  0  0  0  0  0  0
    1.6106    0.8735    0.5288 N   0  0  0  0  0  0  0  0  0  0  0  0
    0.2791    0.5468    0.3239 C   0  0  0  0  0  0  0  0  0  0  0  0
    0.0568   -0.7033   -0.2563 C   0  0  0  0  0  0  0  0  0  0  0  0
   -0.8292    1.3559    0.6373 C   0  0  0  0  0  0  0  0  0  0  0  0
   -2.1104    0.8839    0.3563 C   0  0  0  0  0  0  0  0  0  0  0  0
   -2.3173   -0.3613   -0.2220 C   0  0  0  0  0  0  0  0  0  0  0  0
   -1.2338   -1.1821   -0.5377 C   0  0  0  0  0  0  0  0  0  0  0  0
   -3.1683    1.6523    0.6478 F   0  0  0  0  0  0  0  0  0  0  0  0
    3.8636   -0.0054    0.0352 C   0  0  0  0  0  0  0  0  0  0  0  0
    4.5436    0.7458    1.0075 C   0  0  0  0  0  0  0  0  0  0  0  0
    5.9342    0.9143    0.9532 C   0  0  0  0  0  0  0  0  0  0  0  0
    6.6700    0.3099   -0.0877 C   0  0  0  0  0  0  0  0  0  0  0  0
    6.0007   -0.4663   -1.0360 C   0  0  0  0  0  0  0  0  0  0  0  0
    4.6149   -0.6162   -0.9801 C   0  0  0  0  0  0  0  0  0  0  0  0
    8.0206    0.5440   -0.1021 O   0  0  0  0  0  0  0  0  0  0  0  0
    8.7661    0.0029   -1.1850 C   0  0  0  0  0  0  0  0  0  0  0  0
    6.6612    1.6561    1.8516 O   0  0  0  0  0  0  0  0  0  0  0  0
    5.9546    2.2926    2.9071 C   0  0  0  0  0  0  0  0  0  0  0  0
   -0.6902    2.3345    1.0830 H   0  0  0  0  0  0  0  0  0  0  0  0
   -3.3328   -0.6918   -0.4265 H   0  0  0  0  0  0  0  0  0  0  0  0
   -1.3833   -2.1549   -0.9944 H   0  0  0  0  0  0  0  0  0  0  0  0
    3.9527    1.2069    1.7949 H   0  0  0  0  0  0  0  0  0  0  0  0
    6.5258   -0.9589   -1.8488 H   0  0  0  0  0  0  0  0  0  0  0  0
    4.1332   -1.1948   -1.7634 H   0  0  0  0  0  0  0  0  0  0  0  0
    8.7903   -1.0909   -1.1296 H   0  0  0  0  0  0  0  0  0  0  0  0
    8.3770    0.3401   -2.1524 H   0  0  0  0  0  0  0  0  0  0  0  0
    9.7954    0.3656   -1.1032 H   0  0  0  0  0  0  0  0  0  0  0  0
    5.1775    2.9630    2.5251 H   0  0  0  0  0  0  0  0  0  0  0  0
    5.5365    1.5519    3.5965 H   0  0  0  0  0  0  0  0  0  0  0  0
    6.6684    2.9054    3.4655 H   0  0  0  0  0  0  0  0  0  0  0  0
  1  2  1  0  0  0  0
  1  5  1  0  0  0  0
  2  3  2  0  0  0  0
  2 11  1  0  0  0  0
  3  4  1  0  0  0  0
  4  5  2  0  0  0  0
  6  7  2  0  0  0  0
  6  4  1  0  0  0  0
  6 21  1  0  0  0  0
  7  8  1  0  0  0  0
  7 10  1  0  0  0  0
  8  9  2  0  0  0  0
  8 22  1  0  0  0  0
  9  5  1  0  0  0  0
  9 23  1  0  0  0  0
 11 12  2  0  0  0  0
 11 16  1  0  0  0  0
 12 13  1  0  0  0  0
 12 24  1  0  0  0  0
 13 14  2  0  0  0  0
 13 19  1  0  0  0  0
 14 15  1  0  0  0  0
 14 17  1  0  0  0  0
 15 16  2  0  0  0  0
 15 25  1  0  0  0  0
 16 26  1  0  0  0  0
 17 18  1  0  0  0  0
 18 27  1  0  0  0  0
 18 28  1  0  0  0  0
 18 29  1  0  0  0  0
 19 20  1  0  0  0  0
 20 30  1  0  0  0  0
 20 31  1  0  0  0  0
 20 32  1  0  0  0  0
M  END
>  <Mol_ID>
6281

>  <Formula>
C15H12FNO2S

>  <MolWeight>
289.3246832

>  <Cat>
E0469

>  <Name>
GW 610

>  <Synonyms>
NSC 721648

>  <Target>
Others

>  <Form>
free base

>  <CAS>
872726-44-8

>  <URL>
http://www.selleckchem.com/products/gw-610.html

$$$$
