H-151
 OpenBabel08302521233D

 38 40  0  0  0  0  0  0  0  0999 V2000
    1.1593    0.5127    0.2466 O   0  0  0  0  0  0  0  0  0  0  0  0
    2.9339   -0.2361    4.6769 N   0  0  0  0  0  0  0  0  0  0  0  0
    3.1610   -0.2201    1.1306 N   0  0  0  0  0  0  0  0  0  0  0  0
    2.9120   -0.0713   -1.1420 N   0  0  0  0  0  0  0  0  0  0  0  0
    1.4724   -0.6151    3.0352 C   0  0  0  0  0  0  0  0  0  0  0  0
    1.6132   -0.5194    4.4221 C   0  0  0  0  0  0  0  0  0  0  0  0
    2.7546   -0.3193    2.4593 C   0  0  0  0  0  0  0  0  0  0  0  0
    3.6406   -0.1592    3.5051 C   0  0  0  0  0  0  0  0  0  0  0  0
    0.2002   -0.9732    2.5350 C   0  0  0  0  0  0  0  0  0  0  0  0
    0.5429   -0.6981    5.3130 C   0  0  0  0  0  0  0  0  0  0  0  0
    1.0521    0.0933   -4.9508 C   0  0  0  0  0  0  0  0  0  0  0  0
    2.2795    0.0597   -2.4040 C   0  0  0  0  0  0  0  0  0  0  0  0
    0.3602    0.0657   -6.2891 C   0  0  0  0  0  0  0  0  0  0  0  0
   -0.8795   -1.1566    3.4062 C   0  0  0  0  0  0  0  0  0  0  0  0
   -0.7096   -1.0116    4.7760 C   0  0  0  0  0  0  0  0  0  0  0  0
    0.4005    0.6290   -3.8389 C   0  0  0  0  0  0  0  0  0  0  0  0
    2.3471   -0.4113   -4.7906 C   0  0  0  0  0  0  0  0  0  0  0  0
    2.3062    0.1109    0.0916 C   0  0  0  0  0  0  0  0  0  0  0  0
    1.0106    0.6145   -2.5810 C   0  0  0  0  0  0  0  0  0  0  0  0
    2.9569   -0.4263   -3.5294 C   0  0  0  0  0  0  0  0  0  0  0  0
    0.5930    1.3365   -7.0886 C   0  0  0  0  0  0  0  0  0  0  0  0
    3.3223   -0.1152    5.6026 H   0  0  0  0  0  0  0  0  0  0  0  0
    4.1434   -0.0732    0.9790 H   0  0  0  0  0  0  0  0  0  0  0  0
    3.8197   -0.5090   -1.1376 H   0  0  0  0  0  0  0  0  0  0  0  0
    4.7009    0.0508    3.5248 H   0  0  0  0  0  0  0  0  0  0  0  0
    0.0390   -1.1044    1.4696 H   0  0  0  0  0  0  0  0  0  0  0  0
    0.6729   -0.5988    6.3851 H   0  0  0  0  0  0  0  0  0  0  0  0
    0.7028   -0.8041   -6.8632 H   0  0  0  0  0  0  0  0  0  0  0  0
   -0.7166   -0.0811   -6.1380 H   0  0  0  0  0  0  0  0  0  0  0  0
   -1.8550   -1.4081    2.9969 H   0  0  0  0  0  0  0  0  0  0  0  0
   -1.5599   -1.1498    5.4378 H   0  0  0  0  0  0  0  0  0  0  0  0
   -0.5990    1.0497   -3.9312 H   0  0  0  0  0  0  0  0  0  0  0  0
    2.8838   -0.8184   -5.6448 H   0  0  0  0  0  0  0  0  0  0  0  0
    0.4487    1.0410   -1.7566 H   0  0  0  0  0  0  0  0  0  0  0  0
    3.9519   -0.8521   -3.4386 H   0  0  0  0  0  0  0  0  0  0  0  0
    1.6565    1.4795   -7.3047 H   0  0  0  0  0  0  0  0  0  0  0  0
    0.0563    1.2844   -8.0413 H   0  0  0  0  0  0  0  0  0  0  0  0
    0.2364    2.2194   -6.5477 H   0  0  0  0  0  0  0  0  0  0  0  0
  1 18  2  0  0  0  0
  2  6  1  0  0  0  0
  2  8  1  0  0  0  0
  2 22  1  0  0  0  0
  3  7  1  0  0  0  0
  3 18  1  0  0  0  0
  3 23  1  0  0  0  0
  4 12  1  0  0  0  0
  4 18  1  0  0  0  0
  4 24  1  0  0  0  0
  5  6  2  0  0  0  0
  5  7  1  0  0  0  0
  5  9  1  0  0  0  0
  6 10  1  0  0  0  0
  7  8  2  0  0  0  0
  8 25  1  0  0  0  0
  9 14  2  0  0  0  0
  9 26  1  0  0  0  0
 10 15  2  0  0  0  0
 10 27  1  0  0  0  0
 11 13  1  0  0  0  0
 11 16  2  0  0  0  0
 11 17  1  0  0  0  0
 12 19  2  0  0  0  0
 12 20  1  0  0  0  0
 13 21  1  0  0  0  0
 13 28  1  0  0  0  0
 13 29  1  0  0  0  0
 14 15  1  0  0  0  0
 14 30  1  0  0  0  0
 15 31  1  0  0  0  0
 16 19  1  0  0  0  0
 16 32  1  0  0  0  0
 17 20  2  0  0  0  0
 17 33  1  0  0  0  0
 19 34  1  0  0  0  0
 20 35  1  0  0  0  0
 21 36  1  0  0  0  0
 21 37  1  0  0  0  0
 21 38  1  0  0  0  0
M  END
>  <Mol_ID>
4832

>  <Formula>
C17H17N3O

>  <MolWeight>
279.33638

>  <Cat>
S6652

>  <Name>
H-151

>  <Synonyms>
N/A

>  <Target>
STING

>  <Form>
Free Base

>  <CAS>
941987-60-6

>  <URL>
http://www.selleck.cn/products/h-151.html

$$$$
