H-D-Trp-OH
 OpenBabel08302520393D

 27 28  0  0  0  0  0  0  0  0999 V2000
   -5.6331   -1.7812    3.2917 C   0  0  0  0  0  0  0  0  0  0  0  0
   -5.0393   -2.6091    2.2803 C   0  0  0  0  0  0  0  0  0  0  0  0
   -6.3224   -2.6195    4.1682 C   0  0  0  0  0  0  0  0  0  0  0  0
   -5.6558   -0.3934    3.5434 C   0  0  0  0  0  0  0  0  0  0  0  0
   -4.1926   -2.1734    1.1183 C   0  0  0  0  0  0  0  0  0  0  0  0
   -5.4274   -3.9073    2.5539 C   0  0  0  0  0  0  0  0  0  0  0  0
   -6.1878   -3.9011    3.6917 N   0  0  0  0  0  0  0  0  0  0  0  0
   -7.0114   -2.1454    5.2910 C   0  0  0  0  0  0  0  0  0  0  0  0
   -6.3391    0.0981    4.6595 C   0  0  0  0  0  0  0  0  0  0  0  0
   -2.8691   -1.5036    1.5200 C   0  0  2  0  0  0  0  0  0  0  0  0
   -7.0052   -0.7679    5.5209 C   0  0  0  0  0  0  0  0  0  0  0  0
   -2.0860   -1.0814    0.2671 C   0  0  0  0  0  0  0  0  0  0  0  0
   -1.9702   -2.3677    2.3520 N   0  0  0  0  0  0  0  0  0  0  0  0
   -0.7461   -1.1072    0.5052 O   0  0  0  0  0  0  0  0  0  0  0  0
   -2.5699   -0.7336   -0.7973 O   0  0  0  0  0  0  0  0  0  0  0  0
   -5.1581    0.3054    2.8766 H   0  0  0  0  0  0  0  0  0  0  0  0
   -3.9839   -3.0392    0.4748 H   0  0  0  0  0  0  0  0  0  0  0  0
   -4.7847   -1.4814    0.5055 H   0  0  0  0  0  0  0  0  0  0  0  0
   -5.2397   -4.8340    2.0274 H   0  0  0  0  0  0  0  0  0  0  0  0
   -6.6112   -4.7149    4.1156 H   0  0  0  0  0  0  0  0  0  0  0  0
   -7.5379   -2.8177    5.9597 H   0  0  0  0  0  0  0  0  0  0  0  0
   -6.3612    1.1690    4.8481 H   0  0  0  0  0  0  0  0  0  0  0  0
   -3.0534   -0.5854    2.0878 H   0  0  0  0  0  0  0  0  0  0  0  0
   -7.5343   -0.3675    6.3810 H   0  0  0  0  0  0  0  0  0  0  0  0
   -2.4664   -2.5406    3.2347 H   0  0  0  0  0  0  0  0  0  0  0  0
   -1.9408   -3.2963    1.9161 H   0  0  0  0  0  0  0  0  0  0  0  0
   -0.6405   -1.4655    1.4227 H   0  0  0  0  0  0  0  0  0  0  0  0
  1  2  1  0  0  0  0
  1  3  2  0  0  0  0
  1  4  1  0  0  0  0
  2  5  1  0  0  0  0
  2  6  2  0  0  0  0
  3  7  1  0  0  0  0
  3  8  1  0  0  0  0
  4  9  2  0  0  0  0
  4 16  1  0  0  0  0
  5 17  1  0  0  0  0
  5 18  1  0  0  0  0
  6  7  1  0  0  0  0
  6 19  1  0  0  0  0
  7 20  1  0  0  0  0
  8 11  2  0  0  0  0
  8 21  1  0  0  0  0
  9 11  1  0  0  0  0
  9 22  1  0  0  0  0
 10 13  1  0  0  0  0
 10 23  1  1  0  0  0
 10 12  1  0  0  0  0
 10  5  1  0  0  0  0
 11 24  1  0  0  0  0
 12 14  1  0  0  0  0
 12 15  2  0  0  0  0
 13 25  1  0  0  0  0
 13 26  1  0  0  0  0
 14 27  1  0  0  0  0
M  END
>  <Mol_ID>
3611

>  <Formula>
C11H12N2O2

>  <MolWeight>
204.22518

>  <Cat>
S6253

>  <Name>
H-D-Trp-OH

>  <Synonyms>
D-Tryptophan

>  <Target>
Others

>  <Form>
free base

>  <CAS>
153-94-6

>  <URL>
http://www.selleck.cn/products/h-d-trp-oh.html

$$$$
