H-HoArg-OH
 OpenBabel08302521383D

 29 28  0  0  0  0  0  0  0  0999 V2000
   -0.7765    0.1866   -1.7544 C   0  0  0  0  0  0  0  0  0  0  0  0
   -2.5171   -1.5505   -1.8042 N   0  0  0  0  0  0  0  0  0  0  0  0
   -1.5680   -0.8260   -0.9165 C   0  0  1  0  0  0  0  0  0  0  0  0
   -0.6169   -1.8047   -0.2083 C   0  0  0  0  0  0  0  0  0  0  0  0
    0.2145   -2.6749   -1.1669 C   0  0  0  0  0  0  0  0  0  0  0  0
    1.1889   -3.6218   -0.4658 C   0  0  0  0  0  0  0  0  0  0  0  0
    0.5073   -4.6862    0.3889 C   0  0  0  0  0  0  0  0  0  0  0  0
    1.5095   -5.5559    0.9663 N   0  0  0  0  0  0  0  0  0  0  0  0
    2.1324   -5.3859    2.1460 C   0  0  0  0  0  0  0  0  0  0  0  0
    2.0148   -4.4194    2.9718 N   0  0  0  0  0  0  0  0  0  0  0  0
    2.9748   -6.3965    2.4395 N   0  0  0  0  0  0  0  0  0  0  0  0
   -0.2285    1.1899   -1.3251 O   0  0  0  0  0  0  0  0  0  0  0  0
   -0.7255   -0.1856   -3.0614 O   0  0  0  0  0  0  0  0  0  0  0  0
   -3.0581   -2.1943   -1.2221 H   0  0  0  0  0  0  0  0  0  0  0  0
   -3.2148   -0.8744   -2.1357 H   0  0  0  0  0  0  0  0  0  0  0  0
   -2.1538   -0.2654   -0.1796 H   0  0  0  0  0  0  0  0  0  0  0  0
    0.0656   -1.2384    0.4393 H   0  0  0  0  0  0  0  0  0  0  0  0
   -1.2155   -2.4474    0.4482 H   0  0  0  0  0  0  0  0  0  0  0  0
   -0.4450   -3.2606   -1.8165 H   0  0  0  0  0  0  0  0  0  0  0  0
    0.8086   -2.0249   -1.8202 H   0  0  0  0  0  0  0  0  0  0  0  0
    1.7910   -4.1211   -1.2358 H   0  0  0  0  0  0  0  0  0  0  0  0
    1.8942   -3.0410    0.1427 H   0  0  0  0  0  0  0  0  0  0  0  0
   -0.1094   -4.2400    1.1748 H   0  0  0  0  0  0  0  0  0  0  0  0
   -0.1675   -5.2868   -0.2347 H   0  0  0  0  0  0  0  0  0  0  0  0
    1.6931   -6.4150    0.4632 H   0  0  0  0  0  0  0  0  0  0  0  0
    1.3452   -3.7380    2.6108 H   0  0  0  0  0  0  0  0  0  0  0  0
    3.5704   -6.6788    1.6735 H   0  0  0  0  0  0  0  0  0  0  0  0
    3.5282   -6.1429    3.2520 H   0  0  0  0  0  0  0  0  0  0  0  0
   -1.2465   -1.0236   -3.1323 H   0  0  0  0  0  0  0  0  0  0  0  0
  1  3  1  0  0  0  0
  1 12  2  0  0  0  0
  1 13  1  0  0  0  0
  2 14  1  0  0  0  0
  2 15  1  0  0  0  0
  3  2  1  0  0  0  0
  3  4  1  0  0  0  0
  3 16  1  1  0  0  0
  4  5  1  0  0  0  0
  4 17  1  0  0  0  0
  4 18  1  0  0  0  0
  5  6  1  0  0  0  0
  5 19  1  0  0  0  0
  5 20  1  0  0  0  0
  6  7  1  0  0  0  0
  6 21  1  0  0  0  0
  6 22  1  0  0  0  0
  7  8  1  0  0  0  0
  7 23  1  0  0  0  0
  7 24  1  0  0  0  0
  8  9  1  0  0  0  0
  8 25  1  0  0  0  0
  9 10  2  0  0  0  0
  9 11  1  0  0  0  0
 10 26  1  0  0  0  0
 11 27  1  0  0  0  0
 11 28  1  0  0  0  0
 13 29  1  0  0  0  0
M  END
>  <Mol_ID>
7901

>  <Formula>
C7H16N4O2

>  <MolWeight>
188.22754

>  <Cat>
S6109

>  <Name>
H-HoArg-OH

>  <Synonyms>
L-homoarginine

>  <Target>
phosphatase

>  <Form>
free base

>  <CAS>
156-86-5

>  <URL>
http://www.selleck.cn/products/h-hoarg-oh.html

$$$$
