H-Tyr(3-I)-OH
 OpenBabel08302521383D

 24 24  0  0  0  0  0  0  0  0999 V2000
    0.7045   -0.0905   -0.2170 C   0  0  0  0  0  0  0  0  0  0  0  0
    1.5184    1.0299   -0.0499 C   0  0  0  0  0  0  0  0  0  0  0  0
    1.2725   -1.3702   -0.2269 C   0  0  0  0  0  0  0  0  0  0  0  0
   -1.3701    0.0743   -0.4290 I   0  0  0  0  0  0  0  0  0  0  0  0
    2.8947    0.8727    0.0914 C   0  0  0  0  0  0  0  0  0  0  0  0
    0.9797    2.2852   -0.0237 O   0  0  0  0  0  0  0  0  0  0  0  0
    2.6544   -1.5456   -0.0411 C   0  0  0  0  0  0  0  0  0  0  0  0
    3.4589   -0.4049    0.0825 C   0  0  0  0  0  0  0  0  0  0  0  0
    3.2266   -2.9484   -0.0199 C   0  0  0  0  0  0  0  0  0  0  0  0
    4.4748   -3.1907    0.8504 C   0  0  1  0  0  0  0  0  0  0  0  0
    4.2140   -2.8447    2.3298 C   0  0  0  0  0  0  0  0  0  0  0  0
    4.9416   -4.5886    0.6974 N   0  0  0  0  0  0  0  0  0  0  0  0
    3.8062   -3.9011    3.0748 O   0  0  0  0  0  0  0  0  0  0  0  0
    4.3641   -1.7356    2.8162 O   0  0  0  0  0  0  0  0  0  0  0  0
    0.6337   -2.2419   -0.3651 H   0  0  0  0  0  0  0  0  0  0  0  0
    3.5492    1.7306    0.2217 H   0  0  0  0  0  0  0  0  0  0  0  0
    1.6840    2.9276    0.1608 H   0  0  0  0  0  0  0  0  0  0  0  0
    4.5364   -0.4840    0.2031 H   0  0  0  0  0  0  0  0  0  0  0  0
    2.4360   -3.6349    0.3154 H   0  0  0  0  0  0  0  0  0  0  0  0
    3.4551   -3.2171   -1.0602 H   0  0  0  0  0  0  0  0  0  0  0  0
    5.3074   -2.5585    0.5207 H   0  0  0  0  0  0  0  0  0  0  0  0
    5.6966   -4.8050    1.3478 H   0  0  0  0  0  0  0  0  0  0  0  0
    4.2080   -5.2874    0.7175 H   0  0  0  0  0  0  0  0  0  0  0  0
    3.7718   -4.7170    2.5457 H   0  0  0  0  0  0  0  0  0  0  0  0
  1  2  2  0  0  0  0
  1  3  1  0  0  0  0
  1  4  1  0  0  0  0
  2  5  1  0  0  0  0
  2  6  1  0  0  0  0
  3  7  2  0  0  0  0
  3 15  1  0  0  0  0
  5  8  2  0  0  0  0
  5 16  1  0  0  0  0
  6 17  1  0  0  0  0
  7  9  1  0  0  0  0
  7  8  1  0  0  0  0
  8 18  1  0  0  0  0
  9 10  1  0  0  0  0
  9 19  1  0  0  0  0
  9 20  1  0  0  0  0
 10 11  1  0  0  0  0
 10 12  1  0  0  0  0
 10 21  1  6  0  0  0
 11 13  1  0  0  0  0
 11 14  2  0  0  0  0
 12 22  1  0  0  0  0
 12 23  1  0  0  0  0
 13 24  1  0  0  0  0
M  END
>  <Mol_ID>
7891

>  <Formula>
C9H10INO3

>  <MolWeight>
307.08507

>  <Cat>
S6044

>  <Name>
H-Tyr(3-I)-OH

>  <Synonyms>
3-Iodo-L-tyrosine

>  <Target>
Hydroxylase

>  <Form>
free base

>  <CAS>
70-78-0

>  <URL>
http://www.selleck.cn/products/h-tyr-3-I-oh.html

$$$$
