H3B-120
 OpenBabel08302521243D

 50 52  0  0  0  0  0  0  0  0999 V2000
    1.8442    3.6288   -2.4597 C   0  0  0  0  0  0  0  0  0  0  0  0
    2.4873    2.4188   -2.7060 C   0  0  0  0  0  0  0  0  0  0  0  0
    2.1254    1.2798   -1.9879 C   0  0  0  0  0  0  0  0  0  0  0  0
    1.1275    1.3522   -1.0122 C   0  0  0  0  0  0  0  0  0  0  0  0
    0.4795    2.5673   -0.7490 C   0  0  0  0  0  0  0  0  0  0  0  0
    0.8459    3.7014   -1.4886 C   0  0  0  0  0  0  0  0  0  0  0  0
   -0.5892    2.6730    0.3147 C   0  0  0  0  0  0  0  0  0  0  0  0
   -0.0539    2.9991    1.6430 N   0  0  0  0  0  0  0  0  0  0  0  0
    0.1757    4.3379    1.9154 C   0  0  0  0  0  0  0  0  0  0  0  0
    0.0343    1.8666    2.5513 C   0  0  0  0  0  0  0  0  0  0  0  0
    0.8990    4.7373    3.0290 N   0  0  0  0  0  0  0  0  0  0  0  0
   -0.2768    5.1987    1.1501 O   0  0  0  0  0  0  0  0  0  0  0  0
    0.9141    6.1685    3.3598 C   0  0  0  0  0  0  0  0  0  0  0  0
    2.3346    6.7430    3.4062 C   0  0  0  0  0  0  0  0  0  0  0  0
    3.2277    5.9514    4.3658 C   0  0  0  0  0  0  0  0  0  0  0  0
    3.1349    4.4552    4.0436 C   0  0  0  0  0  0  0  0  0  0  0  0
    1.7228    3.9242    3.9128 C   0  0  0  0  0  0  0  0  0  0  0  0
    4.7090    6.3391    4.2727 C   0  0  0  0  0  0  0  0  0  0  0  0
    4.9803    7.6624    4.5285 N   0  0  0  0  0  0  0  0  0  0  0  0
    5.5583    5.4765    4.0602 O   0  0  0  0  0  0  0  0  0  0  0  0
    6.2437    8.2097    4.4764 C   0  0  0  0  0  0  0  0  0  0  0  0
    7.5003    7.5068    3.5564 S   0  0  0  0  0  0  0  0  0  0  0  0
    8.5658    8.7266    4.0882 C   0  0  0  0  0  0  0  0  0  0  0  0
    7.8873    9.6278    4.8820 C   0  0  0  0  0  0  0  0  0  0  0  0
    6.5388    9.3447    5.0670 N   0  0  0  0  0  0  0  0  0  0  0  0
    8.4676   10.8242    5.5392 C   0  0  0  0  0  0  0  0  0  0  0  0
    2.1210    4.5203   -3.0158 H   0  0  0  0  0  0  0  0  0  0  0  0
    3.2726    2.3658   -3.4551 H   0  0  0  0  0  0  0  0  0  0  0  0
    2.6258    0.3355   -2.1860 H   0  0  0  0  0  0  0  0  0  0  0  0
    0.8591    0.4541   -0.4618 H   0  0  0  0  0  0  0  0  0  0  0  0
    0.3541    4.6548   -1.3015 H   0  0  0  0  0  0  0  0  0  0  0  0
   -1.3346    3.4211    0.0180 H   0  0  0  0  0  0  0  0  0  0  0  0
   -1.1443    1.7272    0.3620 H   0  0  0  0  0  0  0  0  0  0  0  0
   -0.8254    1.2056    2.4059 H   0  0  0  0  0  0  0  0  0  0  0  0
    0.9469    1.3048    2.3268 H   0  0  0  0  0  0  0  0  0  0  0  0
   -0.0025    2.1717    3.5971 H   0  0  0  0  0  0  0  0  0  0  0  0
    0.4349    6.2748    4.3409 H   0  0  0  0  0  0  0  0  0  0  0  0
    0.3152    6.7588    2.6586 H   0  0  0  0  0  0  0  0  0  0  0  0
    2.2866    7.7947    3.7139 H   0  0  0  0  0  0  0  0  0  0  0  0
    2.7686    6.7313    2.3984 H   0  0  0  0  0  0  0  0  0  0  0  0
    2.8972    6.1192    5.3993 H   0  0  0  0  0  0  0  0  0  0  0  0
    3.6502    4.2580    3.0929 H   0  0  0  0  0  0  0  0  0  0  0  0
    3.6631    3.8748    4.8109 H   0  0  0  0  0  0  0  0  0  0  0  0
    1.8484    2.9121    3.5433 H   0  0  0  0  0  0  0  0  0  0  0  0
    1.2274    3.8914    4.8895 H   0  0  0  0  0  0  0  0  0  0  0  0
    4.3033    8.2392    5.0044 H   0  0  0  0  0  0  0  0  0  0  0  0
    9.6074    8.7222    3.8004 H   0  0  0  0  0  0  0  0  0  0  0  0
    7.9543   11.7289    5.2028 H   0  0  0  0  0  0  0  0  0  0  0  0
    8.3662   10.7435    6.6254 H   0  0  0  0  0  0  0  0  0  0  0  0
    9.5323   10.9253    5.3036 H   0  0  0  0  0  0  0  0  0  0  0  0
  1  2  2  0  0  0  0
  1 27  1  0  0  0  0
  2  3  1  0  0  0  0
  2 28  1  0  0  0  0
  3  4  2  0  0  0  0
  3 29  1  0  0  0  0
  4  5  1  0  0  0  0
  4 30  1  0  0  0  0
  5  6  2  0  0  0  0
  5  7  1  0  0  0  0
  6  1  1  0  0  0  0
  6 31  1  0  0  0  0
  7  8  1  0  0  0  0
  7 32  1  0  0  0  0
  7 33  1  0  0  0  0
  8  9  1  0  0  0  0
  8 10  1  0  0  0  0
  9 11  1  0  0  0  0
  9 12  2  0  0  0  0
 10 34  1  0  0  0  0
 10 35  1  0  0  0  0
 10 36  1  0  0  0  0
 11 13  1  0  0  0  0
 13 14  1  0  0  0  0
 13 37  1  0  0  0  0
 13 38  1  0  0  0  0
 14 15  1  0  0  0  0
 14 39  1  0  0  0  0
 14 40  1  0  0  0  0
 15 16  1  0  0  0  0
 15 18  1  0  0  0  0
 15 41  1  0  0  0  0
 16 17  1  0  0  0  0
 16 42  1  0  0  0  0
 16 43  1  0  0  0  0
 17 11  1  0  0  0  0
 17 44  1  0  0  0  0
 17 45  1  0  0  0  0
 18 19  1  0  0  0  0
 18 20  2  0  0  0  0
 19 21  1  0  0  0  0
 19 46  1  0  0  0  0
 21 22  1  0  0  0  0
 22 23  1  0  0  0  0
 23 24  2  0  0  0  0
 23 47  1  0  0  0  0
 24 25  1  0  0  0  0
 24 26  1  0  0  0  0
 25 21  2  0  0  0  0
 26 48  1  0  0  0  0
 26 49  1  0  0  0  0
 26 50  1  0  0  0  0
M  END
>  <Mol_ID>
5124

>  <Formula>
C19H24N4O2S

>  <MolWeight>
372.48446

>  <Cat>
S3244

>  <Name>
H3B-120

>  <Synonyms>
N/A

>  <Target>
CPSase

>  <Form>
free base

>  <CAS>
2194903-42-7

>  <URL>
http://www.selleckchem.com/products/h3b-120.html

$$$$
