HA-100 dihydrochloride
 OpenBabel08302521293D

 34 36  0  0  0  0  0  0  0  0999 V2000
    1.0989   -0.0210   -0.3884 S   0  0  0  0  0  0  0  0  0  0  0  0
    0.6161    1.0850    0.4049 O   0  0  0  0  0  0  0  0  0  0  0  0
    0.5772   -0.2698   -1.7181 O   0  0  0  0  0  0  0  0  0  0  0  0
    0.9578   -1.4488    0.4711 N   0  0  0  0  0  0  0  0  0  0  0  0
   -0.6304   -3.7988    1.1317 N   0  0  0  0  0  0  0  0  0  0  0  0
    5.5017    0.6149    2.8177 N   0  0  0  0  0  0  0  0  0  0  0  0
    1.2724   -2.7475   -0.1486 C   0  0  0  0  0  0  0  0  0  0  0  0
    0.2873   -1.5259    1.7787 C   0  0  0  0  0  0  0  0  0  0  0  0
    0.0134   -3.6341   -0.1881 C   0  0  0  0  0  0  0  0  0  0  0  0
   -0.9278   -2.4712    1.7078 C   0  0  0  0  0  0  0  0  0  0  0  0
    2.8788    0.1310   -0.5176 C   0  0  0  0  0  0  0  0  0  0  0  0
    3.7002    0.3109    0.6345 C   0  0  0  0  0  0  0  0  0  0  0  0
    3.4391   -0.0217   -1.7959 C   0  0  0  0  0  0  0  0  0  0  0  0
    5.0982    0.2355    0.4453 C   0  0  0  0  0  0  0  0  0  0  0  0
    4.8187   -0.0835   -1.9517 C   0  0  0  0  0  0  0  0  0  0  0  0
    3.2538    0.5646    1.9535 C   0  0  0  0  0  0  0  0  0  0  0  0
    5.6408    0.0188   -0.8340 C   0  0  0  0  0  0  0  0  0  0  0  0
    5.9302    0.3836    1.5585 C   0  0  0  0  0  0  0  0  0  0  0  0
    4.1720    0.7125    2.9840 C   0  0  0  0  0  0  0  0  0  0  0  0
    0.0169   -4.2856    1.7508 H   0  0  0  0  0  0  0  0  0  0  0  0
    1.6684   -2.6273   -1.1629 H   0  0  0  0  0  0  0  0  0  0  0  0
    2.0579   -3.2317    0.4440 H   0  0  0  0  0  0  0  0  0  0  0  0
    1.0115   -1.9005    2.5111 H   0  0  0  0  0  0  0  0  0  0  0  0
   -0.0419   -0.5439    2.1310 H   0  0  0  0  0  0  0  0  0  0  0  0
   -0.7162   -3.2138   -0.8915 H   0  0  0  0  0  0  0  0  0  0  0  0
    0.2836   -4.6249   -0.5673 H   0  0  0  0  0  0  0  0  0  0  0  0
   -1.7275   -2.0017    1.1216 H   0  0  0  0  0  0  0  0  0  0  0  0
   -1.3247   -2.6165    2.7195 H   0  0  0  0  0  0  0  0  0  0  0  0
    2.8053   -0.1145   -2.6780 H   0  0  0  0  0  0  0  0  0  0  0  0
    5.2517   -0.2245   -2.9380 H   0  0  0  0  0  0  0  0  0  0  0  0
    2.2043    0.6811    2.1978 H   0  0  0  0  0  0  0  0  0  0  0  0
    6.7194   -0.0587   -0.9682 H   0  0  0  0  0  0  0  0  0  0  0  0
    7.0121    0.3264    1.4631 H   0  0  0  0  0  0  0  0  0  0  0  0
    3.8442    0.9260    3.9971 H   0  0  0  0  0  0  0  0  0  0  0  0
  1  2  2  0  0  0  0
  1  3  2  0  0  0  0
  1  4  1  0  0  0  0
  1 11  1  0  0  0  0
  4  7  1  0  0  0  0
  4  8  1  0  0  0  0
  5  9  1  0  0  0  0
  5 10  1  0  0  0  0
  5 20  1  0  0  0  0
  6 18  2  0  0  0  0
  6 19  1  0  0  0  0
  7  9  1  0  0  0  0
  7 21  1  0  0  0  0
  7 22  1  0  0  0  0
  8 10  1  0  0  0  0
  8 23  1  0  0  0  0
  8 24  1  0  0  0  0
  9 25  1  0  0  0  0
  9 26  1  0  0  0  0
 10 27  1  0  0  0  0
 10 28  1  0  0  0  0
 11 12  1  0  0  0  0
 11 13  2  0  0  0  0
 12 14  2  0  0  0  0
 12 16  1  0  0  0  0
 13 15  1  0  0  0  0
 13 29  1  0  0  0  0
 14 17  1  0  0  0  0
 14 18  1  0  0  0  0
 15 17  2  0  0  0  0
 15 30  1  0  0  0  0
 16 19  2  0  0  0  0
 16 31  1  0  0  0  0
 17 32  1  0  0  0  0
 18 33  1  0  0  0  0
 19 34  1  0  0  0  0
M  END
>  <Mol_ID>
5427

>  <Formula>
C13H17Cl2N3O2S

>  <MolWeight>
350.26398

>  <Cat>
S2964

>  <Name>
HA-100 dihydrochloride

>  <Synonyms>
N/A

>  <Target>
MLCK,PKA,PKC,PKG

>  <Form>
Dihydrochloride

>  <CAS>
210297-47-5

>  <URL>
https://www.selleckchem.com/products/ha-100.html

$$$$
