HA-100
 OpenBabel08302521343D

 34 36  0  0  0  0  0  0  0  0999 V2000
   -1.6826   -1.8195    2.2330 C   0  0  0  0  0  0  0  0  0  0  0  0
   -2.6379   -1.4621    3.1165 N   0  0  0  0  0  0  0  0  0  0  0  0
   -3.0554   -0.1833    3.0563 C   0  0  0  0  0  0  0  0  0  0  0  0
   -2.5761    0.7485    2.1485 C   0  0  0  0  0  0  0  0  0  0  0  0
   -1.5918    0.3732    1.2086 C   0  0  0  0  0  0  0  0  0  0  0  0
   -1.0078    1.2133    0.2219 C   0  0  0  0  0  0  0  0  0  0  0  0
   -0.0358    0.7189   -0.6662 C   0  0  0  0  0  0  0  0  0  0  0  0
    0.3993   -0.6006   -0.5776 C   0  0  0  0  0  0  0  0  0  0  0  0
   -0.1413   -1.4383    0.3921 C   0  0  0  0  0  0  0  0  0  0  0  0
   -1.1370   -0.9697    1.2685 C   0  0  0  0  0  0  0  0  0  0  0  0
   -1.2925    2.9779    0.1681 S   0  0  0  0  0  0  0  0  0  0  0  0
   -0.8739    3.4889    1.4581 O   0  0  0  0  0  0  0  0  0  0  0  0
   -0.6796    3.4800   -1.0441 O   0  0  0  0  0  0  0  0  0  0  0  0
   -2.9760    3.2340    0.0381 N   0  0  0  0  0  0  0  0  0  0  0  0
   -3.6766    2.7050   -1.1667 C   0  0  0  0  0  0  0  0  0  0  0  0
   -3.4795    3.5901   -2.4160 C   0  0  0  0  0  0  0  0  0  0  0  0
   -3.7435    5.0275   -2.2276 N   0  0  0  0  0  0  0  0  0  0  0  0
   -3.1113    5.5346   -0.9973 C   0  0  0  0  0  0  0  0  0  0  0  0
   -3.3729    4.6693    0.2525 C   0  0  0  0  0  0  0  0  0  0  0  0
   -1.3553   -2.8506    2.3273 H   0  0  0  0  0  0  0  0  0  0  0  0
   -3.8241    0.0837    3.7739 H   0  0  0  0  0  0  0  0  0  0  0  0
   -2.9731    1.7573    2.1922 H   0  0  0  0  0  0  0  0  0  0  0  0
    0.4319    1.3675   -1.4065 H   0  0  0  0  0  0  0  0  0  0  0  0
    1.1777   -0.9674   -1.2421 H   0  0  0  0  0  0  0  0  0  0  0  0
    0.2270   -2.4591    0.4678 H   0  0  0  0  0  0  0  0  0  0  0  0
   -3.3715    1.6734   -1.3672 H   0  0  0  0  0  0  0  0  0  0  0  0
   -4.7469    2.6632   -0.9244 H   0  0  0  0  0  0  0  0  0  0  0  0
   -2.4688    3.4589   -2.8136 H   0  0  0  0  0  0  0  0  0  0  0  0
   -4.1562    3.2294   -3.2000 H   0  0  0  0  0  0  0  0  0  0  0  0
   -4.7472    5.1894   -2.1826 H   0  0  0  0  0  0  0  0  0  0  0  0
   -2.0354    5.6535   -1.1638 H   0  0  0  0  0  0  0  0  0  0  0  0
   -3.4972    6.5442   -0.8115 H   0  0  0  0  0  0  0  0  0  0  0  0
   -4.4420    4.6904    0.4999 H   0  0  0  0  0  0  0  0  0  0  0  0
   -2.8549    5.0876    1.1220 H   0  0  0  0  0  0  0  0  0  0  0  0
  1  2  2  0  0  0  0
  1 10  1  0  0  0  0
  1 20  1  0  0  0  0
  2  3  1  0  0  0  0
  3  4  2  0  0  0  0
  3 21  1  0  0  0  0
  4  5  1  0  0  0  0
  4 22  1  0  0  0  0
  5  6  1  0  0  0  0
  5 10  2  0  0  0  0
  6  7  2  0  0  0  0
  6 11  1  0  0  0  0
  7  8  1  0  0  0  0
  7 23  1  0  0  0  0
  8  9  2  0  0  0  0
  8 24  1  0  0  0  0
  9 10  1  0  0  0  0
  9 25  1  0  0  0  0
 11 12  2  0  0  0  0
 11 13  2  0  0  0  0
 11 14  1  0  0  0  0
 14 15  1  0  0  0  0
 14 19  1  0  0  0  0
 15 16  1  0  0  0  0
 15 26  1  0  0  0  0
 15 27  1  0  0  0  0
 16 17  1  0  0  0  0
 16 28  1  0  0  0  0
 16 29  1  0  0  0  0
 17 18  1  0  0  0  0
 17 30  1  0  0  0  0
 18 19  1  0  0  0  0
 18 31  1  0  0  0  0
 18 32  1  0  0  0  0
 19 33  1  0  0  0  0
 19 34  1  0  0  0  0
M  END
>  <Mol_ID>
6482

>  <Formula>
C13H15N3O2S

>  <MolWeight>
277.3421

>  <Cat>
E2646

>  <Name>
HA-100

>  <Target>
PKG

>  <Form>
free base

>  <CAS>
84468-24-6

>  <URL>
http://www.selleckchem.com/products/ha-100-free-base.html

$$$$
