Halazone
 OpenBabel08302520403D

 20 20  0  0  0  0  0  0  0  0999 V2000
    1.3740   -0.2274    0.0635 C   0  0  0  0  0  0  0  0  0  0  0  0
    3.0963   -0.5902    0.2632 S   0  0  0  0  0  0  0  0  0  0  0  0
    0.4748   -1.2960    0.0038 C   0  0  0  0  0  0  0  0  0  0  0  0
    0.9121    1.0920    0.0542 C   0  0  0  0  0  0  0  0  0  0  0  0
    3.6119   -0.7119   -1.3316 N   0  0  0  0  0  0  0  0  0  0  0  0
    3.7617    0.5658    0.8196 O   0  0  0  0  0  0  0  0  0  0  0  0
    3.2349   -1.9080    0.8236 O   0  0  0  0  0  0  0  0  0  0  0  0
   -0.8942   -1.0442   -0.0783 C   0  0  0  0  0  0  0  0  0  0  0  0
   -0.4656    1.3422   -0.0238 C   0  0  0  0  0  0  0  0  0  0  0  0
   -1.3728    0.2725   -0.0962 C   0  0  0  0  0  0  0  0  0  0  0  0
   -2.8486    0.4583   -0.1178 C   0  0  0  0  0  0  0  0  0  0  0  0
   -3.2603    1.6009   -0.7054 O   0  0  0  0  0  0  0  0  0  0  0  0
   -3.6192   -0.3715    0.3272 O   0  0  0  0  0  0  0  0  0  0  0  0
    0.8281   -2.3244    0.0441 H   0  0  0  0  0  0  0  0  0  0  0  0
    1.6111    1.9230    0.1317 H   0  0  0  0  0  0  0  0  0  0  0  0
    4.5298   -0.2720   -1.4144 H   0  0  0  0  0  0  0  0  0  0  0  0
    3.6134   -1.6886   -1.6284 H   0  0  0  0  0  0  0  0  0  0  0  0
   -1.5904   -1.8819   -0.1037 H   0  0  0  0  0  0  0  0  0  0  0  0
   -0.8096    2.3725    0.0231 H   0  0  0  0  0  0  0  0  0  0  0  0
   -2.5761    2.1054   -1.1774 H   0  0  0  0  0  0  0  0  0  0  0  0
  1  2  1  0  0  0  0
  1  3  2  0  0  0  0
  1  4  1  0  0  0  0
  2  5  1  0  0  0  0
  2  6  2  0  0  0  0
  2  7  2  0  0  0  0
  3  8  1  0  0  0  0
  3 14  1  0  0  0  0
  4  9  2  0  0  0  0
  4 15  1  0  0  0  0
  5 16  1  0  0  0  0
  5 17  1  0  0  0  0
  8 10  2  0  0  0  0
  8 18  1  0  0  0  0
  9 10  1  0  0  0  0
  9 19  1  0  0  0  0
 10 11  1  0  0  0  0
 11 12  1  0  0  0  0
 11 13  2  0  0  0  0
 12 20  1  0  0  0  0
M  END
>  <Mol_ID>
3756

>  <Formula>
C7H5Cl2NO4S

>  <MolWeight>
270.0899

>  <Cat>
S6440

>  <Name>
Halazone

>  <Synonyms>
Pantocide, p-sulfondichloramidobenzoic acid

>  <Target>
Others

>  <Form>
Free Base

>  <CAS>
80-13-7

>  <URL>
http://www.selleck.cn/products/halazone.html

$$$$
