Halcinonide.cdx
 OpenBabel08302522053D

 63 67  0  0  0  0  0  0  0  0999 V2000
    4.9017    1.6138   -1.9829 C   0  0  0  0  0  0  0  0  0  0  0  0
    5.2485    2.7727   -1.0956 C   0  0  0  0  0  0  0  0  0  0  0  0
    4.0934    3.5713   -0.6760 C   0  0  0  0  0  0  0  0  0  0  0  0
    2.9282    2.9208   -0.4652 C   0  0  0  0  0  0  0  0  0  0  0  0
    2.8654    1.3645   -0.3502 C   0  0  2  0  0  0  0  0  0  0  0  0
    3.9259    0.6767   -1.2853 C   0  0  0  0  0  0  0  0  0  0  0  0
    1.6935    3.7768   -0.2690 C   0  0  0  0  0  0  0  0  0  0  0  0
    0.3628    3.0951   -0.5731 C   0  0  0  0  0  0  0  0  0  0  0  0
    0.3719    1.6987    0.0350 C   0  0  2  0  0  0  0  0  0  0  0  0
    1.4302    0.8287   -0.6894 C   0  0  2  0  0  0  0  0  0  0  0  0
   -0.9528    0.9736    0.0062 C   0  0  1  0  0  0  0  0  0  0  0  0
   -0.9221   -0.2544    0.9590 C   0  0  2  0  0  0  0  0  0  0  0  0
    0.1630   -1.2426    0.4860 C   0  0  0  0  0  0  0  0  0  0  0  0
    1.1362   -0.7225   -0.5955 C   0  0  2  0  0  0  0  0  0  0  0  0
   -2.2099    1.7188    0.4279 C   0  0  0  0  0  0  0  0  0  0  0  0
   -3.2144    0.5712    0.5398 C   0  0  2  0  0  0  0  0  0  0  0  0
   -2.4105   -0.7151    0.8506 C   0  0  1  0  0  0  0  0  0  0  0  0
   -2.5939   -1.5486   -0.2933 O   0  0  0  0  0  0  0  0  0  0  0  0
   -2.9466   -1.4672    2.0774 C   0  0  0  0  0  0  0  0  0  0  0  0
   -3.5376   -0.8873    2.9913 O   0  0  0  0  0  0  0  0  0  0  0  0
   -2.6342   -2.9413    2.1953 C   0  0  0  0  0  0  0  0  0  0  0  0
   -0.5709    0.1156    2.4324 C   0  0  0  0  0  0  0  0  0  0  0  0
    1.2610    1.0953   -2.0485 F   0  0  0  0  0  0  0  0  0  0  0  0
    6.3909    3.1247   -0.8435 O   0  0  0  0  0  0  0  0  0  0  0  0
    3.2052    1.0116    1.1314 C   0  0  0  0  0  0  0  0  0  0  0  0
    2.3214   -1.5197   -0.5189 O   0  0  0  0  0  0  0  0  0  0  0  0
   -3.7838    0.3829   -0.7652 O   0  0  0  0  0  0  0  0  0  0  0  0
   -3.6682   -1.0027   -1.0527 C   0  0  0  0  0  0  0  0  0  0  0  0
   -3.3185   -1.2098   -2.5175 C   0  0  0  0  0  0  0  0  0  0  0  0
   -4.9824   -1.6782   -0.6777 C   0  0  0  0  0  0  0  0  0  0  0  0
    4.4448    2.0248   -2.8930 H   0  0  0  0  0  0  0  0  0  0  0  0
    5.8100    1.0855   -2.2887 H   0  0  0  0  0  0  0  0  0  0  0  0
    4.2108    4.6433   -0.6416 H   0  0  0  0  0  0  0  0  0  0  0  0
    3.4361    0.0978   -2.0755 H   0  0  0  0  0  0  0  0  0  0  0  0
    4.5120   -0.0518   -0.7108 H   0  0  0  0  0  0  0  0  0  0  0  0
    1.6754    4.1319    0.7677 H   0  0  0  0  0  0  0  0  0  0  0  0
    1.7555    4.6693   -0.9076 H   0  0  0  0  0  0  0  0  0  0  0  0
    0.1823    3.0563   -1.6553 H   0  0  0  0  0  0  0  0  0  0  0  0
   -0.4428    3.7055   -0.1501 H   0  0  0  0  0  0  0  0  0  0  0  0
    0.6557    1.8397    1.0805 H   0  0  0  0  0  0  0  0  0  0  0  0
   -1.1211    0.6384   -1.0293 H   0  0  0  0  0  0  0  0  0  0  0  0
    0.7494   -1.6080    1.3396 H   0  0  0  0  0  0  0  0  0  0  0  0
   -0.2942   -2.1639    0.0971 H   0  0  0  0  0  0  0  0  0  0  0  0
    0.6829   -0.9903   -1.5616 H   0  0  0  0  0  0  0  0  0  0  0  0
   -2.5086    2.4588   -0.3215 H   0  0  0  0  0  0  0  0  0  0  0  0
   -2.0753    2.2321    1.3846 H   0  0  0  0  0  0  0  0  0  0  0  0
   -4.0172    0.8128    1.2413 H   0  0  0  0  0  0  0  0  0  0  0  0
   -1.7754   -3.0817    2.8550 H   0  0  0  0  0  0  0  0  0  0  0  0
   -2.4106   -3.3876    1.2241 H   0  0  0  0  0  0  0  0  0  0  0  0
   -3.5085   -3.4574    2.6013 H   0  0  0  0  0  0  0  0  0  0  0  0
   -0.6714   -0.7543    3.0912 H   0  0  0  0  0  0  0  0  0  0  0  0
    0.4705    0.4347    2.5407 H   0  0  0  0  0  0  0  0  0  0  0  0
   -1.2041    0.9082    2.8388 H   0  0  0  0  0  0  0  0  0  0  0  0
    2.8189    1.7607    1.8303 H   0  0  0  0  0  0  0  0  0  0  0  0
    2.7794    0.0502    1.4312 H   0  0  0  0  0  0  0  0  0  0  0  0
    4.2837    0.9487    1.2931 H   0  0  0  0  0  0  0  0  0  0  0  0
    2.0650   -2.4486   -0.6605 H   0  0  0  0  0  0  0  0  0  0  0  0
   -3.1919   -2.2751   -2.7433 H   0  0  0  0  0  0  0  0  0  0  0  0
   -4.0741   -0.7828   -3.1805 H   0  0  0  0  0  0  0  0  0  0  0  0
   -2.3636   -0.7229   -2.7534 H   0  0  0  0  0  0  0  0  0  0  0  0
   -4.8681   -2.7621   -0.5837 H   0  0  0  0  0  0  0  0  0  0  0  0
   -5.3557   -1.3020    0.2825 H   0  0  0  0  0  0  0  0  0  0  0  0
   -5.7602   -1.4563   -1.4158 H   0  0  0  0  0  0  0  0  0  0  0  0
  1  2  1  0  0  0  0
  1 31  1  0  0  0  0
  1 32  1  0  0  0  0
  2  3  1  0  0  0  0
  2 24  2  0  0  0  0
  3  4  2  0  0  0  0
  3 33  1  0  0  0  0
  4  5  1  0  0  0  0
  4  7  1  0  0  0  0
  5  6  1  0  0  0  0
  5 25  1  1  0  0  0
  6  1  1  0  0  0  0
  6 34  1  0  0  0  0
  6 35  1  0  0  0  0
  7  8  1  0  0  0  0
  7 36  1  0  0  0  0
  7 37  1  0  0  0  0
  8 38  1  0  0  0  0
  8 39  1  0  0  0  0
  9  8  1  0  0  0  0
  9 10  1  0  0  0  0
  9 11  1  0  0  0  0
  9 40  1  1  0  0  0
 10  5  1  0  0  0  0
 10 23  1  6  0  0  0
 11 12  1  0  0  0  0
 11 15  1  0  0  0  0
 11 41  1  6  0  0  0
 12 13  1  0  0  0  0
 12 22  1  1  0  0  0
 13 14  1  0  0  0  0
 13 42  1  0  0  0  0
 13 43  1  0  0  0  0
 14 10  1  0  0  0  0
 14 26  1  0  0  0  0
 14 44  1  6  0  0  0
 15 45  1  0  0  0  0
 15 46  1  0  0  0  0
 16 15  1  0  0  0  0
 16 17  1  0  0  0  0
 16 27  1  0  0  0  0
 16 47  1  1  0  0  0
 17 12  1  0  0  0  0
 17 18  1  0  0  0  0
 17 19  1  1  0  0  0
 18 28  1  0  0  0  0
 19 20  2  0  0  0  0
 19 21  1  0  0  0  0
 21 48  1  0  0  0  0
 21 49  1  0  0  0  0
 21 50  1  0  0  0  0
 22 51  1  0  0  0  0
 22 52  1  0  0  0  0
 22 53  1  0  0  0  0
 25 54  1  0  0  0  0
 25 55  1  0  0  0  0
 25 56  1  0  0  0  0
 26 57  1  0  0  0  0
 27 28  1  0  0  0  0
 28 29  1  0  0  0  0
 28 30  1  0  0  0  0
 29 58  1  0  0  0  0
 29 59  1  0  0  0  0
 29 60  1  0  0  0  0
 30 61  1  0  0  0  0
 30 62  1  0  0  0  0
 30 63  1  0  0  0  0
M  END
>  <Mol_ID>
1327

>  <Formula>
C24H32ClFO5

>  <MolWeight>
454.9592832

>  <Cat>
S4098

>  <Name>
Halcinonide

>  <Synonyms>
SQ-18566

>  <Target>
Immunology & Inflammation related

>  <Form>
free base

>  <CAS>
3093-35-4

>  <URL>
http://selleckchem.com/products/halcinonide.html

$$$$
