HALDOL (haloperidol).cdx
 OpenBabel08302519503D

 49 51  0  0  0  0  0  0  0  0999 V2000
   -1.7104   -3.6370    6.0051 C   0  0  0  0  0  0  0  0  0  0  0  0
   -0.9363   -3.9823    4.9062 C   0  0  0  0  0  0  0  0  0  0  0  0
   -0.8663   -3.1114    3.8149 C   0  0  0  0  0  0  0  0  0  0  0  0
   -1.5665   -1.8915    3.8313 C   0  0  0  0  0  0  0  0  0  0  0  0
   -2.3702   -1.5782    4.9363 C   0  0  0  0  0  0  0  0  0  0  0  0
   -2.4363   -2.4532    6.0262 C   0  0  0  0  0  0  0  0  0  0  0  0
   -1.7584   -4.4549    7.0653 F   0  0  0  0  0  0  0  0  0  0  0  0
   -1.4005   -0.9528    2.6778 C   0  0  0  0  0  0  0  0  0  0  0  0
   -0.6918   -1.2934    1.7364 O   0  0  0  0  0  0  0  0  0  0  0  0
   -2.0981    0.4043    2.7319 C   0  0  0  0  0  0  0  0  0  0  0  0
   -1.6987    1.2829    1.5462 C   0  0  0  0  0  0  0  0  0  0  0  0
   -2.3657    2.6711    1.5622 C   0  0  0  0  0  0  0  0  0  0  0  0
   -2.0138    3.4555    0.3661 N   0  0  0  0  0  0  0  0  0  0  0  0
   -0.5859    3.7981    0.3108 C   0  0  0  0  0  0  0  0  0  0  0  0
   -0.2579    4.3436   -1.0746 C   0  0  0  0  0  0  0  0  0  0  0  0
   -1.0692    5.6130   -1.3800 C   0  0  0  0  0  0  0  0  0  0  0  0
   -2.5654    5.3737   -1.0980 C   0  0  0  0  0  0  0  0  0  0  0  0
   -2.8042    4.6961    0.2611 C   0  0  0  0  0  0  0  0  0  0  0  0
   -0.8253    6.0732   -2.8233 C   0  0  0  0  0  0  0  0  0  0  0  0
   -0.6237    6.6307   -0.4646 O   0  0  0  0  0  0  0  0  0  0  0  0
   -1.1411    5.2298   -3.9068 C   0  0  0  0  0  0  0  0  0  0  0  0
   -0.8987    5.6201   -5.2269 C   0  0  0  0  0  0  0  0  0  0  0  0
   -0.3334    6.8620   -5.4950 C   0  0  0  0  0  0  0  0  0  0  0  0
   -0.0186    7.7165   -4.4431 C   0  0  0  0  0  0  0  0  0  0  0  0
   -0.2690    7.3300   -3.1227 C   0  0  0  0  0  0  0  0  0  0  0  0
   -0.3851   -4.9173    4.9059 H   0  0  0  0  0  0  0  0  0  0  0  0
   -0.2514   -3.3827    2.9576 H   0  0  0  0  0  0  0  0  0  0  0  0
   -2.9442   -0.6578    4.9812 H   0  0  0  0  0  0  0  0  0  0  0  0
   -3.0416   -2.2114    6.8939 H   0  0  0  0  0  0  0  0  0  0  0  0
   -3.1813    0.2431    2.7274 H   0  0  0  0  0  0  0  0  0  0  0  0
   -1.8048    0.9117    3.6578 H   0  0  0  0  0  0  0  0  0  0  0  0
   -0.6083    1.3803    1.5716 H   0  0  0  0  0  0  0  0  0  0  0  0
   -1.9490    0.7699    0.6081 H   0  0  0  0  0  0  0  0  0  0  0  0
   -3.4519    2.5138    1.5759 H   0  0  0  0  0  0  0  0  0  0  0  0
   -2.1063    3.2118    2.4808 H   0  0  0  0  0  0  0  0  0  0  0  0
    0.0518    2.9234    0.4549 H   0  0  0  0  0  0  0  0  0  0  0  0
   -0.3179    4.5169    1.0973 H   0  0  0  0  0  0  0  0  0  0  0  0
   -0.4587    3.5542   -1.8111 H   0  0  0  0  0  0  0  0  0  0  0  0
    0.8181    4.5532   -1.1233 H   0  0  0  0  0  0  0  0  0  0  0  0
   -3.1074    6.3284   -1.1143 H   0  0  0  0  0  0  0  0  0  0  0  0
   -3.0125    4.7422   -1.8761 H   0  0  0  0  0  0  0  0  0  0  0  0
   -3.8749    4.4699    0.3387 H   0  0  0  0  0  0  0  0  0  0  0  0
   -2.5651    5.3889    1.0790 H   0  0  0  0  0  0  0  0  0  0  0  0
    0.3385    6.7091   -0.5800 H   0  0  0  0  0  0  0  0  0  0  0  0
   -1.5812    4.2493   -3.7334 H   0  0  0  0  0  0  0  0  0  0  0  0
   -1.1511    4.9502   -6.0454 H   0  0  0  0  0  0  0  0  0  0  0  0
   -0.1422    7.1657   -6.5204 H   0  0  0  0  0  0  0  0  0  0  0  0
    0.4196    8.6900   -4.6472 H   0  0  0  0  0  0  0  0  0  0  0  0
   -0.0238    8.0345   -2.3322 H   0  0  0  0  0  0  0  0  0  0  0  0
  1  2  2  0  0  0  0
  1  7  1  0  0  0  0
  2  3  1  0  0  0  0
  2 26  1  0  0  0  0
  3  4  2  0  0  0  0
  3 27  1  0  0  0  0
  4  5  1  0  0  0  0
  4  8  1  0  0  0  0
  5  6  2  0  0  0  0
  5 28  1  0  0  0  0
  6  1  1  0  0  0  0
  6 29  1  0  0  0  0
  8  9  2  0  0  0  0
  8 10  1  0  0  0  0
 10 11  1  0  0  0  0
 10 30  1  0  0  0  0
 10 31  1  0  0  0  0
 11 12  1  0  0  0  0
 11 32  1  0  0  0  0
 11 33  1  0  0  0  0
 12 13  1  0  0  0  0
 12 34  1  0  0  0  0
 12 35  1  0  0  0  0
 13 14  1  0  0  0  0
 14 15  1  0  0  0  0
 14 36  1  0  0  0  0
 14 37  1  0  0  0  0
 15 16  1  0  0  0  0
 15 38  1  0  0  0  0
 15 39  1  0  0  0  0
 16 17  1  0  0  0  0
 16 19  1  0  0  0  0
 16 20  1  0  0  0  0
 17 18  1  0  0  0  0
 17 40  1  0  0  0  0
 17 41  1  0  0  0  0
 18 13  1  0  0  0  0
 18 42  1  0  0  0  0
 18 43  1  0  0  0  0
 19 21  2  0  0  0  0
 20 44  1  0  0  0  0
 21 22  1  0  0  0  0
 21 45  1  0  0  0  0
 22 23  2  0  0  0  0
 22 46  1  0  0  0  0
 23 24  1  0  0  0  0
 23 47  1  0  0  0  0
 24 25  2  0  0  0  0
 24 48  1  0  0  0  0
 25 19  1  0  0  0  0
 25 49  1  0  0  0  0
M  END
>  <Mol_ID>
187

>  <Formula>
C21H23ClFNO2

>  <MolWeight>
375.8642232

>  <Cat>
S1920

>  <Name>
Haloperidol

>  <Synonyms>
N/A

>  <Target>
Dopamine Receptor

>  <Form>
free base

>  <CAS>
52-86-8

>  <URL>
http://selleckchem.com/products/Haloperidol(Haldol).html

$$$$
