Halothane.cdx
 OpenBabel08302520003D

  8  7  0  0  0  0  0  0  0  0999 V2000
    1.0912    0.0144    0.0601 C   0  0  0  0  0  0  0  0  0  0  0  0
    0.5954   -0.6935    1.3023 C   0  0  0  0  0  0  0  0  0  0  0  0
    1.1738    0.1459    2.9625 Br  0  0  0  0  0  0  0  0  0  0  0  0
    1.8698    1.0868    0.3067 F   0  0  0  0  0  0  0  0  0  0  0  0
    0.0467    0.4412   -0.6899 F   0  0  0  0  0  0  0  0  0  0  0  0
    1.8107   -0.8343   -0.7124 F   0  0  0  0  0  0  0  0  0  0  0  0
   -0.4972   -0.7104    1.3399 H   0  0  0  0  0  0  0  0  0  0  0  0
    0.9607   -1.7237    1.3452 H   0  0  0  0  0  0  0  0  0  0  0  0
  1  2  1  0  0  0  0
  1  4  1  0  0  0  0
  1  5  1  0  0  0  0
  1  6  1  0  0  0  0
  2  3  1  0  0  0  0
  2  7  1  0  0  0  0
  2  8  1  0  0  0  0
M  END
>  <Mol_ID>
2678

>  <Formula>
C2HBrClF3

>  <MolWeight>
197.3815496

>  <Cat>
S4570

>  <Name>
Halothane

>  <Synonyms>
Narcotane

>  <Target>
Others

>  <Form>
free base

>  <CAS>
151-67-7

>  <URL>
http://selleckchem.com/products/halothane.html

$$$$
