HAMNO
 OpenBabel08302521273D

 33 35  0  0  0  0  0  0  0  0999 V2000
    3.2780   -0.0187   -0.3392 O   0  0  0  0  0  0  0  0  0  0  0  0
    5.5161   -2.1974   -0.1703 O   0  0  0  0  0  0  0  0  0  0  0  0
    2.7437   -2.6874   -0.0991 N   0  0  0  0  0  0  0  0  0  0  0  0
   -0.4026   -0.5193    0.0163 C   0  0  0  0  0  0  0  0  0  0  0  0
   -0.7474    0.8462    0.0176 C   0  0  0  0  0  0  0  0  0  0  0  0
    1.0366   -0.8938   -0.0442 C   0  0  0  0  0  0  0  0  0  0  0  0
    2.0782    0.1912   -0.1630 C   0  0  0  0  0  0  0  0  0  0  0  0
    0.2894    1.8877    0.0219 C   0  0  0  0  0  0  0  0  0  0  0  0
   -1.4452   -1.4654    0.0162 C   0  0  0  0  0  0  0  0  0  0  0  0
   -2.0981    1.2387    0.0224 C   0  0  0  0  0  0  0  0  0  0  0  0
    1.5887    1.5882   -0.0572 C   0  0  0  0  0  0  0  0  0  0  0  0
    1.4675   -2.1690    0.0407 C   0  0  0  0  0  0  0  0  0  0  0  0
   -2.7857   -1.0660    0.0195 C   0  0  0  0  0  0  0  0  0  0  0  0
   -3.1158    0.2842    0.0186 C   0  0  0  0  0  0  0  0  0  0  0  0
    3.5649   -2.9432    1.0391 C   0  0  0  0  0  0  0  0  0  0  0  0
    4.9580   -2.7731    0.9428 C   0  0  0  0  0  0  0  0  0  0  0  0
    3.0482   -3.4526    2.2367 C   0  0  0  0  0  0  0  0  0  0  0  0
    5.8144   -3.1108    1.9867 C   0  0  0  0  0  0  0  0  0  0  0  0
    3.8993   -3.7627    3.3036 C   0  0  0  0  0  0  0  0  0  0  0  0
    5.2795   -3.6009    3.1751 C   0  0  0  0  0  0  0  0  0  0  0  0
    4.9985   -1.3821   -0.3346 H   0  0  0  0  0  0  0  0  0  0  0  0
    3.2916   -2.1082   -0.7378 H   0  0  0  0  0  0  0  0  0  0  0  0
   -0.0291    2.9222    0.0860 H   0  0  0  0  0  0  0  0  0  0  0  0
   -1.2486   -2.5318    0.0001 H   0  0  0  0  0  0  0  0  0  0  0  0
   -2.3724    2.2913    0.0161 H   0  0  0  0  0  0  0  0  0  0  0  0
    2.3478    2.3614   -0.0527 H   0  0  0  0  0  0  0  0  0  0  0  0
    0.7838   -2.9960    0.1952 H   0  0  0  0  0  0  0  0  0  0  0  0
   -3.5708   -1.8183    0.0130 H   0  0  0  0  0  0  0  0  0  0  0  0
   -4.1542    0.5917    0.0105 H   0  0  0  0  0  0  0  0  0  0  0  0
    1.9813   -3.6112    2.3535 H   0  0  0  0  0  0  0  0  0  0  0  0
    6.8854   -2.9705    1.8795 H   0  0  0  0  0  0  0  0  0  0  0  0
    3.4830   -4.1412    4.2339 H   0  0  0  0  0  0  0  0  0  0  0  0
    5.9371   -3.8522    4.0031 H   0  0  0  0  0  0  0  0  0  0  0  0
  1  7  2  0  0  0  0
  2 16  1  0  0  0  0
  2 21  1  0  0  0  0
  3 12  1  0  0  0  0
  3 15  1  0  0  0  0
  3 22  1  0  0  0  0
  4  5  2  0  0  0  0
  4  6  1  0  0  0  0
  4  9  1  0  0  0  0
  5  8  1  0  0  0  0
  5 10  1  0  0  0  0
  6  7  1  0  0  0  0
  6 12  2  0  0  0  0
  7 11  1  0  0  0  0
  8 11  2  0  0  0  0
  8 23  1  0  0  0  0
  9 13  2  0  0  0  0
  9 24  1  0  0  0  0
 10 14  2  0  0  0  0
 10 25  1  0  0  0  0
 11 26  1  0  0  0  0
 12 27  1  0  0  0  0
 13 14  1  0  0  0  0
 13 28  1  0  0  0  0
 14 29  1  0  0  0  0
 15 16  2  0  0  0  0
 15 17  1  0  0  0  0
 16 18  1  0  0  0  0
 17 19  2  0  0  0  0
 17 30  1  0  0  0  0
 18 20  2  0  0  0  0
 18 31  1  0  0  0  0
 19 20  1  0  0  0  0
 19 32  1  0  0  0  0
 20 33  1  0  0  0  0
M  END
>  <Mol_ID>
5344

>  <Formula>
C17H13NO2

>  <MolWeight>
263.29062

>  <Cat>
S0148

>  <Name>
HAMNO

>  <Synonyms>
NSC-111847

>  <Target>
ATM/ATR

>  <Form>
Free Base

>  <CAS>
138736-73-9

>  <URL>
https://www.selleckchem.com/products/nsc111847.html

$$$$
