HC 030031.cdx
 OpenBabel08302522013D

 47 49  0  0  0  0  0  0  0  0999 V2000
    3.5749    4.0122    1.2243 C   0  0  0  0  0  0  0  0  0  0  0  0
    4.9199    3.9712    1.4250 C   0  0  0  0  0  0  0  0  0  0  0  0
    3.2967    2.9292    0.4405 N   0  0  0  0  0  0  0  0  0  0  0  0
    2.7411    5.0233    1.7626 C   0  0  0  0  0  0  0  0  0  0  0  0
    5.5609    4.9060    2.2024 N   0  0  0  0  0  0  0  0  0  0  0  0
    5.4962    2.9242    0.7730 N   0  0  0  0  0  0  0  0  0  0  0  0
    4.4918    2.3124    0.1743 C   0  0  0  0  0  0  0  0  0  0  0  0
    1.9893    2.4817    0.0084 C   0  0  0  0  0  0  0  0  0  0  0  0
    3.4205    5.9013    2.6079 N   0  0  0  0  0  0  0  0  0  0  0  0
    1.5468    5.1109    1.4813 O   0  0  0  0  0  0  0  0  0  0  0  0
    4.8113    5.8991    2.8381 C   0  0  0  0  0  0  0  0  0  0  0  0
    7.0017    4.8459    2.3735 C   0  0  0  0  0  0  0  0  0  0  0  0
    1.6181    3.0852   -1.3269 C   0  0  0  0  0  0  0  0  0  0  0  0
    2.6107    6.9111    3.2598 C   0  0  0  0  0  0  0  0  0  0  0  0
    5.3410    6.7440    3.5676 O   0  0  0  0  0  0  0  0  0  0  0  0
    0.9595    4.3025   -1.2328 N   0  0  0  0  0  0  0  0  0  0  0  0
    1.9491    2.5128   -2.3623 O   0  0  0  0  0  0  0  0  0  0  0  0
    0.5186    5.0828   -2.3230 C   0  0  0  0  0  0  0  0  0  0  0  0
    0.3679    4.5723   -3.6123 C   0  0  0  0  0  0  0  0  0  0  0  0
    0.2212    6.4297   -2.0936 C   0  0  0  0  0  0  0  0  0  0  0  0
   -0.0407    5.3960   -4.6638 C   0  0  0  0  0  0  0  0  0  0  0  0
   -0.1723    7.2603   -3.1506 C   0  0  0  0  0  0  0  0  0  0  0  0
   -0.3059    6.7528   -4.4510 C   0  0  0  0  0  0  0  0  0  0  0  0
   -0.7186    7.6243   -5.6229 C   0  0  0  0  0  0  0  0  0  0  0  0
   -2.0944    8.2536   -5.4003 C   0  0  0  0  0  0  0  0  0  0  0  0
    0.3377    8.6903   -5.9233 C   0  0  0  0  0  0  0  0  0  0  0  0
    4.5730    1.4311   -0.4515 H   0  0  0  0  0  0  0  0  0  0  0  0
    2.0129    1.3906   -0.0877 H   0  0  0  0  0  0  0  0  0  0  0  0
    1.2499    2.7199    0.7777 H   0  0  0  0  0  0  0  0  0  0  0  0
    7.2692    3.8863    2.8260 H   0  0  0  0  0  0  0  0  0  0  0  0
    7.4816    4.9376    1.3942 H   0  0  0  0  0  0  0  0  0  0  0  0
    7.3698    5.6497    3.0171 H   0  0  0  0  0  0  0  0  0  0  0  0
    2.0668    7.4811    2.4996 H   0  0  0  0  0  0  0  0  0  0  0  0
    1.8763    6.4074    3.8983 H   0  0  0  0  0  0  0  0  0  0  0  0
    3.1973    7.6000    3.8706 H   0  0  0  0  0  0  0  0  0  0  0  0
    0.9153    4.7450   -0.3134 H   0  0  0  0  0  0  0  0  0  0  0  0
    0.5463    3.5253   -3.8351 H   0  0  0  0  0  0  0  0  0  0  0  0
    0.3233    6.8622   -1.1013 H   0  0  0  0  0  0  0  0  0  0  0  0
   -0.1456    4.9593   -5.6547 H   0  0  0  0  0  0  0  0  0  0  0  0
   -0.3635    8.3124   -2.9497 H   0  0  0  0  0  0  0  0  0  0  0  0
   -0.7992    6.9922   -6.5178 H   0  0  0  0  0  0  0  0  0  0  0  0
   -2.1001    8.9371   -4.5445 H   0  0  0  0  0  0  0  0  0  0  0  0
   -2.4056    8.8229   -6.2831 H   0  0  0  0  0  0  0  0  0  0  0  0
   -2.8498    7.4816   -5.2164 H   0  0  0  0  0  0  0  0  0  0  0  0
    1.3112    8.2284   -6.1234 H   0  0  0  0  0  0  0  0  0  0  0  0
    0.0570    9.2731   -6.8072 H   0  0  0  0  0  0  0  0  0  0  0  0
    0.4647    9.3875   -5.0885 H   0  0  0  0  0  0  0  0  0  0  0  0
  1  3  1  0  0  0  0
  1  4  1  0  0  0  0
  1  2  2  0  0  0  0
  2  5  1  0  0  0  0
  2  6  1  0  0  0  0
  3  7  1  0  0  0  0
  3  8  1  0  0  0  0
  4  9  1  0  0  0  0
  4 10  2  0  0  0  0
  5 11  1  0  0  0  0
  5 12  1  0  0  0  0
  6  7  2  0  0  0  0
  7 27  1  0  0  0  0
  8 13  1  0  0  0  0
  8 28  1  0  0  0  0
  8 29  1  0  0  0  0
  9 14  1  0  0  0  0
  9 11  1  0  0  0  0
 11 15  2  0  0  0  0
 12 30  1  0  0  0  0
 12 31  1  0  0  0  0
 12 32  1  0  0  0  0
 13 16  1  0  0  0  0
 13 17  2  0  0  0  0
 14 33  1  0  0  0  0
 14 34  1  0  0  0  0
 14 35  1  0  0  0  0
 16 18  1  0  0  0  0
 16 36  1  0  0  0  0
 18 19  2  0  0  0  0
 18 20  1  0  0  0  0
 19 21  1  0  0  0  0
 19 37  1  0  0  0  0
 20 22  2  0  0  0  0
 20 38  1  0  0  0  0
 21 23  2  0  0  0  0
 21 39  1  0  0  0  0
 22 23  1  0  0  0  0
 22 40  1  0  0  0  0
 23 24  1  0  0  0  0
 24 25  1  0  0  0  0
 24 26  1  0  0  0  0
 24 41  1  0  0  0  0
 25 42  1  0  0  0  0
 25 43  1  0  0  0  0
 25 44  1  0  0  0  0
 26 45  1  0  0  0  0
 26 46  1  0  0  0  0
 26 47  1  0  0  0  0
M  END
>  <Mol_ID>
1093

>  <Formula>
C18H21N5O3

>  <MolWeight>
355.39104

>  <Cat>
S2918

>  <Name>
HC-030031

>  <Synonyms>
TOSLAB 829227

>  <Target>
TRP Channel

>  <Form>
free base

>  <CAS>
349085-38-7

>  <URL>
http://selleckchem.com/products/hc-030031.html

$$$$
