HCH6-1
 OpenBabel08302521263D

 62 65  0  0  0  0  0  0  0  0999 V2000
    0.7523   -1.0739    4.1438 O   0  0  0  0  0  0  0  0  0  0  0  0
    2.6092   -1.9144   -0.5665 O   0  0  0  0  0  0  0  0  0  0  0  0
    0.5065   -1.0083   -0.7366 O   0  0  0  0  0  0  0  0  0  0  0  0
   -3.3762    2.0406    3.1255 O   0  0  0  0  0  0  0  0  0  0  0  0
    0.3025   -0.6240    1.9594 N   0  0  0  0  0  0  0  0  0  0  0  0
   -2.3331    0.0063    2.9808 N   0  0  0  0  0  0  0  0  0  0  0  0
   -3.0721   -2.0569    6.7504 N   0  0  0  0  0  0  0  0  0  0  0  0
   -1.1069    0.4526    3.6481 C   0  0  1  0  0  0  0  0  0  0  0  0
   -1.2389    0.7186    5.1618 C   0  0  0  0  0  0  0  0  0  0  0  0
   -1.7559   -0.4330    5.9755 C   0  0  0  0  0  0  0  0  0  0  0  0
   -1.0492   -1.1592    6.9925 C   0  0  0  0  0  0  0  0  0  0  0  0
    1.5540   -1.2138    1.4640 C   0  0  2  0  0  0  0  0  0  0  0  0
    0.0408   -0.5217    3.3111 C   0  0  0  0  0  0  0  0  0  0  0  0
   -1.8764   -2.2040    7.4086 C   0  0  0  0  0  0  0  0  0  0  0  0
   -3.0205   -0.9852    5.9077 C   0  0  0  0  0  0  0  0  0  0  0  0
    2.8033   -0.4175    1.9076 C   0  0  0  0  0  0  0  0  0  0  0  0
    0.2253   -1.0444    7.5875 C   0  0  0  0  0  0  0  0  0  0  0  0
   -1.4703   -3.1760    8.3309 C   0  0  0  0  0  0  0  0  0  0  0  0
    2.8167    1.0185    1.4278 C   0  0  0  0  0  0  0  0  0  0  0  0
    1.4757   -1.3451   -0.0637 C   0  0  0  0  0  0  0  0  0  0  0  0
   -3.4155    0.8491    2.8415 C   0  0  0  0  0  0  0  0  0  0  0  0
    0.6426   -1.9995    8.5231 C   0  0  0  0  0  0  0  0  0  0  0  0
   -0.1874   -3.0615    8.8714 C   0  0  0  0  0  0  0  0  0  0  0  0
    2.1990    2.0274    2.1754 C   0  0  0  0  0  0  0  0  0  0  0  0
    3.4103    1.3491    0.2036 C   0  0  0  0  0  0  0  0  0  0  0  0
   -4.6862    0.2264    2.3690 C   0  0  0  0  0  0  0  0  0  0  0  0
    2.1329    3.3335    1.6895 C   0  0  0  0  0  0  0  0  0  0  0  0
    3.3547    2.6575   -0.2791 C   0  0  0  0  0  0  0  0  0  0  0  0
   -4.6966   -0.8966    1.5314 C   0  0  0  0  0  0  0  0  0  0  0  0
   -5.9012    0.8082    2.7562 C   0  0  0  0  0  0  0  0  0  0  0  0
    2.7061    3.6460    0.4600 C   0  0  0  0  0  0  0  0  0  0  0  0
    2.6328   -2.0332   -1.9913 C   0  0  0  0  0  0  0  0  0  0  0  0
   -5.9112   -1.4233    1.0819 C   0  0  0  0  0  0  0  0  0  0  0  0
   -7.1128    0.2752    2.3089 C   0  0  0  0  0  0  0  0  0  0  0  0
   -7.1164   -0.8359    1.4669 C   0  0  0  0  0  0  0  0  0  0  0  0
   -0.2244   -0.0424    1.3111 H   0  0  0  0  0  0  0  0  0  0  0  0
   -2.4923   -0.9929    2.9698 H   0  0  0  0  0  0  0  0  0  0  0  0
   -3.8744   -2.6571    6.8848 H   0  0  0  0  0  0  0  0  0  0  0  0
   -0.8315    1.4108    3.1856 H   0  0  0  0  0  0  0  0  0  0  0  0
   -0.2570    1.0239    5.5466 H   0  0  0  0  0  0  0  0  0  0  0  0
   -1.9024    1.5763    5.3272 H   0  0  0  0  0  0  0  0  0  0  0  0
    1.6076   -2.2297    1.8749 H   0  0  0  0  0  0  0  0  0  0  0  0
   -3.8858   -0.7131    5.3176 H   0  0  0  0  0  0  0  0  0  0  0  0
    2.8849   -0.4161    3.0019 H   0  0  0  0  0  0  0  0  0  0  0  0
    3.7152   -0.9188    1.5594 H   0  0  0  0  0  0  0  0  0  0  0  0
    0.8890   -0.2287    7.3174 H   0  0  0  0  0  0  0  0  0  0  0  0
   -2.1214   -3.9965    8.6119 H   0  0  0  0  0  0  0  0  0  0  0  0
    1.6307   -1.9170    8.9690 H   0  0  0  0  0  0  0  0  0  0  0  0
    0.1650   -3.8112    9.5754 H   0  0  0  0  0  0  0  0  0  0  0  0
    1.7595    1.8069    3.1478 H   0  0  0  0  0  0  0  0  0  0  0  0
    3.9218    0.5917   -0.3850 H   0  0  0  0  0  0  0  0  0  0  0  0
    1.6318    4.1065    2.2680 H   0  0  0  0  0  0  0  0  0  0  0  0
    3.8096    2.9085   -1.2329 H   0  0  0  0  0  0  0  0  0  0  0  0
   -3.7718   -1.3534    1.1909 H   0  0  0  0  0  0  0  0  0  0  0  0
   -5.9068    1.6813    3.4064 H   0  0  0  0  0  0  0  0  0  0  0  0
    2.6509    4.6607    0.0767 H   0  0  0  0  0  0  0  0  0  0  0  0
    2.0035   -2.8710   -2.3045 H   0  0  0  0  0  0  0  0  0  0  0  0
    2.3138   -1.1052   -2.4775 H   0  0  0  0  0  0  0  0  0  0  0  0
    3.6634   -2.2368   -2.2963 H   0  0  0  0  0  0  0  0  0  0  0  0
   -5.9176   -2.2834    0.4162 H   0  0  0  0  0  0  0  0  0  0  0  0
   -8.0522    0.7344    2.6078 H   0  0  0  0  0  0  0  0  0  0  0  0
   -8.0590   -1.2370    1.1006 H   0  0  0  0  0  0  0  0  0  0  0  0
  1 13  2  0  0  0  0
  2 20  1  0  0  0  0
  2 32  1  0  0  0  0
  3 20  2  0  0  0  0
  4 21  2  0  0  0  0
  5 13  1  0  0  0  0
  5 36  1  0  0  0  0
  6 21  1  0  0  0  0
  6 37  1  0  0  0  0
  7 14  1  0  0  0  0
  7 15  1  0  0  0  0
  7 38  1  0  0  0  0
  8  6  1  0  0  0  0
  8  9  1  0  0  0  0
  8 13  1  0  0  0  0
  8 39  1  6  0  0  0
  9 10  1  0  0  0  0
  9 40  1  0  0  0  0
  9 41  1  0  0  0  0
 10 11  1  0  0  0  0
 10 15  2  0  0  0  0
 11 14  2  0  0  0  0
 11 17  1  0  0  0  0
 12 20  1  0  0  0  0
 12 42  1  1  0  0  0
 12 16  1  0  0  0  0
 12  5  1  0  0  0  0
 14 18  1  0  0  0  0
 15 43  1  0  0  0  0
 16 19  1  0  0  0  0
 16 44  1  0  0  0  0
 16 45  1  0  0  0  0
 17 22  2  0  0  0  0
 17 46  1  0  0  0  0
 18 23  2  0  0  0  0
 18 47  1  0  0  0  0
 19 24  2  0  0  0  0
 19 25  1  0  0  0  0
 21 26  1  0  0  0  0
 22 23  1  0  0  0  0
 22 48  1  0  0  0  0
 23 49  1  0  0  0  0
 24 27  1  0  0  0  0
 24 50  1  0  0  0  0
 25 28  2  0  0  0  0
 25 51  1  0  0  0  0
 26 29  2  0  0  0  0
 26 30  1  0  0  0  0
 27 31  2  0  0  0  0
 27 52  1  0  0  0  0
 28 31  1  0  0  0  0
 28 53  1  0  0  0  0
 29 33  1  0  0  0  0
 29 54  1  0  0  0  0
 30 34  2  0  0  0  0
 30 55  1  0  0  0  0
 31 56  1  0  0  0  0
 32 57  1  0  0  0  0
 32 58  1  0  0  0  0
 32 59  1  0  0  0  0
 33 35  2  0  0  0  0
 33 60  1  0  0  0  0
 34 35  1  0  0  0  0
 34 61  1  0  0  0  0
 35 62  1  0  0  0  0
M  END
>  <Mol_ID>
5271

>  <Formula>
C28H27N3O4

>  <MolWeight>
469.53168

>  <Cat>
S0547

>  <Name>
HCH6-1

>  <Synonyms>
N/A

>  <Target>
FPR

>  <Form>
Free Base

>  <CAS>
1435265-06-7

>  <URL>
https://www.selleckchem.com/products/hch6-1.html

$$$$
