HEPES
 OpenBabel08302521383D

 33 33  0  0  0  0  0  0  0  0999 V2000
   -1.5733   -0.0536    0.8403 N   0  0  0  0  0  0  0  0  0  0  0  0
   -1.0076   -1.3049    0.2841 C   0  0  0  0  0  0  0  0  0  0  0  0
    0.5188   -1.2694   -0.0205 C   0  0  0  0  0  0  0  0  0  0  0  0
    1.0850   -0.0358   -0.6195 N   0  0  0  0  0  0  0  0  0  0  0  0
    0.3423    1.1776   -0.2375 C   0  0  0  0  0  0  0  0  0  0  0  0
   -1.1835    1.0219   -0.0881 C   0  0  0  0  0  0  0  0  0  0  0  0
   -1.5932    1.4547    2.8809 C   0  0  0  0  0  0  0  0  0  0  0  0
   -1.1031    0.1592    2.2324 C   0  0  0  0  0  0  0  0  0  0  0  0
   -0.9679    1.5609    4.5523 S   0  0  0  0  0  0  0  0  0  0  0  0
   -1.4968    0.4891    5.3536 O   0  0  0  0  0  0  0  0  0  0  0  0
    0.4395    1.8888    4.5265 O   0  0  0  0  0  0  0  0  0  0  0  0
   -1.7681    2.8877    5.0184 O   0  0  0  0  0  0  0  0  0  0  0  0
    1.3469   -0.1897   -2.0615 C   0  0  0  0  0  0  0  0  0  0  0  0
    2.0425    1.0224   -2.7157 C   0  0  0  0  0  0  0  0  0  0  0  0
    3.1864    1.4233   -1.9639 O   0  0  0  0  0  0  0  0  0  0  0  0
   -1.2297   -2.1456    0.9544 H   0  0  0  0  0  0  0  0  0  0  0  0
   -1.5439   -1.5285   -0.6471 H   0  0  0  0  0  0  0  0  0  0  0  0
    1.0501   -1.4292    0.9251 H   0  0  0  0  0  0  0  0  0  0  0  0
    0.7618   -2.1487   -0.6330 H   0  0  0  0  0  0  0  0  0  0  0  0
    0.7549    1.5118    0.7220 H   0  0  0  0  0  0  0  0  0  0  0  0
    0.5333    2.0176   -0.9096 H   0  0  0  0  0  0  0  0  0  0  0  0
   -1.6233    0.8135   -1.0739 H   0  0  0  0  0  0  0  0  0  0  0  0
   -1.6306    1.9735    0.2187 H   0  0  0  0  0  0  0  0  0  0  0  0
   -1.2215    2.3416    2.3605 H   0  0  0  0  0  0  0  0  0  0  0  0
   -2.6843    1.4857    2.9278 H   0  0  0  0  0  0  0  0  0  0  0  0
   -1.4712   -0.6793    2.8388 H   0  0  0  0  0  0  0  0  0  0  0  0
   -0.0100    0.1163    2.3004 H   0  0  0  0  0  0  0  0  0  0  0  0
   -2.1845    2.6972    5.8884 H   0  0  0  0  0  0  0  0  0  0  0  0
    2.0498   -1.0279   -2.1669 H   0  0  0  0  0  0  0  0  0  0  0  0
    0.4388   -0.4442   -2.6174 H   0  0  0  0  0  0  0  0  0  0  0  0
    2.3798    0.7670   -3.7244 H   0  0  0  0  0  0  0  0  0  0  0  0
    1.3664    1.8775   -2.8084 H   0  0  0  0  0  0  0  0  0  0  0  0
    3.0675    1.0472   -1.0692 H   0  0  0  0  0  0  0  0  0  0  0  0
  1  2  1  0  0  0  0
  1  6  1  0  0  0  0
  1  8  1  0  0  0  0
  2  3  1  0  0  0  0
  2 16  1  0  0  0  0
  2 17  1  0  0  0  0
  3  4  1  0  0  0  0
  3 18  1  0  0  0  0
  3 19  1  0  0  0  0
  4  5  1  0  0  0  0
  4 13  1  0  0  0  0
  5  6  1  0  0  0  0
  5 20  1  0  0  0  0
  5 21  1  0  0  0  0
  6 22  1  0  0  0  0
  6 23  1  0  0  0  0
  7  8  1  0  0  0  0
  7  9  1  0  0  0  0
  7 24  1  0  0  0  0
  7 25  1  0  0  0  0
  8 26  1  0  0  0  0
  8 27  1  0  0  0  0
  9 10  2  0  0  0  0
  9 11  2  0  0  0  0
  9 12  1  0  0  0  0
 12 28  1  0  0  0  0
 13 14  1  0  0  0  0
 13 29  1  0  0  0  0
 13 30  1  0  0  0  0
 14 15  1  0  0  0  0
 14 31  1  0  0  0  0
 14 32  1  0  0  0  0
 15 33  1  0  0  0  0
M  END
>  <Mol_ID>
7938

>  <Formula>
C8H18N2O4S

>  <MolWeight>
238.30452

>  <Cat>
S6831

>  <Name>
HEPES

>  <Synonyms>
4-(2-hydroxyethyl)-1-piperazineethanesulfonic acid

>  <Target>
Others

>  <Form>
Free Base

>  <CAS>
7365-45-9

>  <URL>
http://www.selleckchem.com/products/hepes.html

$$$$
