Heptaethylene glycol
 OpenBabel08302521313D

 52 51  0  0  0  0  0  0  0  0999 V2000
    1.5812   -0.1476   -0.6682 O   0  0  0  0  0  0  0  0  0  0  0  0
    3.0999    2.2002   -1.7661 O   0  0  0  0  0  0  0  0  0  0  0  0
    0.8625   -3.5589    0.5307 O   0  0  0  0  0  0  0  0  0  0  0  0
    3.9437    2.2823   -5.4185 O   0  0  0  0  0  0  0  0  0  0  0  0
    1.7677   -5.1200    3.8320 O   0  0  0  0  0  0  0  0  0  0  0  0
    2.3380   -0.6959   -7.0469 O   0  0  0  0  0  0  0  0  0  0  0  0
    2.9564   -7.4035    5.1142 O   0  0  0  0  0  0  0  0  0  0  0  0
    1.0870   -2.5045   -5.1619 O   0  0  0  0  0  0  0  0  0  0  0  0
    1.0621    0.7155   -1.6863 C   0  0  0  0  0  0  0  0  0  0  0  0
    1.6821    2.1205   -1.6011 C   0  0  0  0  0  0  0  0  0  0  0  0
    0.9245   -1.4250   -0.6568 C   0  0  0  0  0  0  0  0  0  0  0  0
    3.6529    1.7625   -3.0040 C   0  0  0  0  0  0  0  0  0  0  0  0
    1.5250   -2.2953    0.4542 C   0  0  0  0  0  0  0  0  0  0  0  0
    3.2022    2.5655   -4.2290 C   0  0  0  0  0  0  0  0  0  0  0  0
    1.4915   -4.4912    1.4248 C   0  0  0  0  0  0  0  0  0  0  0  0
    3.8679    0.9548   -5.9394 C   0  0  0  0  0  0  0  0  0  0  0  0
    1.3518   -4.1044    2.9053 C   0  0  0  0  0  0  0  0  0  0  0  0
    2.4461    0.5014   -6.2775 C   0  0  0  0  0  0  0  0  0  0  0  0
    3.1866   -5.3121    3.8663 C   0  0  0  0  0  0  0  0  0  0  0  0
    2.9885   -1.8666   -6.5422 C   0  0  0  0  0  0  0  0  0  0  0  0
    3.5798   -6.1231    5.1045 C   0  0  0  0  0  0  0  0  0  0  0  0
    2.4968   -2.2999   -5.1639 C   0  0  0  0  0  0  0  0  0  0  0  0
    2.0042   -7.2341    5.2398 H   0  0  0  0  0  0  0  0  0  0  0  0
    0.7010   -1.8218   -5.7419 H   0  0  0  0  0  0  0  0  0  0  0  0
    1.2593    0.2680   -2.6643 H   0  0  0  0  0  0  0  0  0  0  0  0
   -0.0228    0.8105   -1.5543 H   0  0  0  0  0  0  0  0  0  0  0  0
    1.1974    2.7930   -2.3176 H   0  0  0  0  0  0  0  0  0  0  0  0
    1.4797    2.5243   -0.6024 H   0  0  0  0  0  0  0  0  0  0  0  0
   -0.1501   -1.2891   -0.4835 H   0  0  0  0  0  0  0  0  0  0  0  0
    1.0470   -1.9162   -1.6291 H   0  0  0  0  0  0  0  0  0  0  0  0
    4.7421    1.8589   -2.9121 H   0  0  0  0  0  0  0  0  0  0  0  0
    3.4593    0.6962   -3.1362 H   0  0  0  0  0  0  0  0  0  0  0  0
    2.5929   -2.4420    0.2602 H   0  0  0  0  0  0  0  0  0  0  0  0
    1.4236   -1.7682    1.4087 H   0  0  0  0  0  0  0  0  0  0  0  0
    2.1313    2.4432   -4.4229 H   0  0  0  0  0  0  0  0  0  0  0  0
    3.3409    3.6337   -4.0230 H   0  0  0  0  0  0  0  0  0  0  0  0
    1.0112   -5.4634    1.2659 H   0  0  0  0  0  0  0  0  0  0  0  0
    2.5430   -4.6228    1.1403 H   0  0  0  0  0  0  0  0  0  0  0  0
    4.4730    0.9390   -6.8493 H   0  0  0  0  0  0  0  0  0  0  0  0
    4.3588    0.2604   -5.2477 H   0  0  0  0  0  0  0  0  0  0  0  0
    1.8907   -3.1776    3.1228 H   0  0  0  0  0  0  0  0  0  0  0  0
    0.2966   -3.8973    3.1153 H   0  0  0  0  0  0  0  0  0  0  0  0
    1.8424    0.3947   -5.3707 H   0  0  0  0  0  0  0  0  0  0  0  0
    1.9616    1.2917   -6.8637 H   0  0  0  0  0  0  0  0  0  0  0  0
    3.4868   -5.8479    2.9610 H   0  0  0  0  0  0  0  0  0  0  0  0
    3.6948   -4.3424    3.9071 H   0  0  0  0  0  0  0  0  0  0  0  0
    2.7652   -2.6614   -7.2656 H   0  0  0  0  0  0  0  0  0  0  0  0
    4.0748   -1.7217   -6.5519 H   0  0  0  0  0  0  0  0  0  0  0  0
    4.6628   -6.2785    5.1207 H   0  0  0  0  0  0  0  0  0  0  0  0
    3.2892   -5.6053    6.0241 H   0  0  0  0  0  0  0  0  0  0  0  0
    2.9794   -3.2365   -4.8690 H   0  0  0  0  0  0  0  0  0  0  0  0
    2.7196   -1.5451   -4.4030 H   0  0  0  0  0  0  0  0  0  0  0  0
  1  9  1  0  0  0  0
  1 11  1  0  0  0  0
  2 10  1  0  0  0  0
  2 12  1  0  0  0  0
  3 13  1  0  0  0  0
  3 15  1  0  0  0  0
  4 14  1  0  0  0  0
  4 16  1  0  0  0  0
  5 17  1  0  0  0  0
  5 19  1  0  0  0  0
  6 18  1  0  0  0  0
  6 20  1  0  0  0  0
  7 21  1  0  0  0  0
  7 23  1  0  0  0  0
  8 22  1  0  0  0  0
  8 24  1  0  0  0  0
  9 10  1  0  0  0  0
  9 25  1  0  0  0  0
  9 26  1  0  0  0  0
 10 27  1  0  0  0  0
 10 28  1  0  0  0  0
 11 13  1  0  0  0  0
 11 29  1  0  0  0  0
 11 30  1  0  0  0  0
 12 14  1  0  0  0  0
 12 31  1  0  0  0  0
 12 32  1  0  0  0  0
 13 33  1  0  0  0  0
 13 34  1  0  0  0  0
 14 35  1  0  0  0  0
 14 36  1  0  0  0  0
 15 17  1  0  0  0  0
 15 37  1  0  0  0  0
 15 38  1  0  0  0  0
 16 18  1  0  0  0  0
 16 39  1  0  0  0  0
 16 40  1  0  0  0  0
 17 41  1  0  0  0  0
 17 42  1  0  0  0  0
 18 43  1  0  0  0  0
 18 44  1  0  0  0  0
 19 21  1  0  0  0  0
 19 45  1  0  0  0  0
 19 46  1  0  0  0  0
 20 22  1  0  0  0  0
 20 47  1  0  0  0  0
 20 48  1  0  0  0  0
 21 49  1  0  0  0  0
 21 50  1  0  0  0  0
 22 51  1  0  0  0  0
 22 52  1  0  0  0  0
M  END
>  <Mol_ID>
5999

>  <Formula>
C14H30O8

>  <MolWeight>
326.3832

>  <Cat>
S1697

>  <Name>
Heptaethylene glycol

>  <Synonyms>
HO-PEG7-OH

>  <Target>
PROTAC Linker

>  <Form>
Free Base

>  <CAS>
5617-32-3

>  <URL>
http://www.selleckchem.com/products/heptaethylene-glycol.html

$$$$
