Hesperetin.cdx
 OpenBabel08302521363D

 36 38  0  0  0  0  0  0  0  0999 V2000
   -2.3420   -0.2306   -0.0086 C   0  0  0  0  0  0  0  0  0  0  0  0
   -1.8866    1.0833   -0.0608 C   0  0  0  0  0  0  0  0  0  0  0  0
   -0.5173    1.3340   -0.0679 C   0  0  0  0  0  0  0  0  0  0  0  0
    0.3907    0.2706   -0.0211 C   0  0  0  0  0  0  0  0  0  0  0  0
   -0.0761   -1.0440    0.0157 C   0  0  0  0  0  0  0  0  0  0  0  0
   -1.4486   -1.2980    0.0295 C   0  0  0  0  0  0  0  0  0  0  0  0
    1.8434    0.5001    0.0549 C   0  0  0  0  0  0  0  0  0  0  0  0
    2.6990   -0.6953    0.3517 C   0  0  0  0  0  0  0  0  0  0  0  0
    2.0905   -1.9067   -0.3413 C   0  0  2  0  0  0  0  0  0  0  0  0
    0.7380   -2.1411    0.0858 O   0  0  0  0  0  0  0  0  0  0  0  0
    2.9139   -3.1463   -0.0393 C   0  0  0  0  0  0  0  0  0  0  0  0
    2.6398   -3.9643    1.0607 C   0  0  0  0  0  0  0  0  0  0  0  0
    3.4302   -5.0875    1.3187 C   0  0  0  0  0  0  0  0  0  0  0  0
    4.5183   -5.4305    0.5011 C   0  0  0  0  0  0  0  0  0  0  0  0
    4.8077   -4.5992   -0.5819 C   0  0  0  0  0  0  0  0  0  0  0  0
    4.0112   -3.4742   -0.8467 C   0  0  0  0  0  0  0  0  0  0  0  0
   -3.6899   -0.4357    0.0110 O   0  0  0  0  0  0  0  0  0  0  0  0
   -0.1278    2.6456   -0.0999 O   0  0  0  0  0  0  0  0  0  0  0  0
    2.2921    1.6394   -0.0447 O   0  0  0  0  0  0  0  0  0  0  0  0
    5.8374   -4.7478   -1.4662 O   0  0  0  0  0  0  0  0  0  0  0  0
    5.1428   -6.5576    0.9546 O   0  0  0  0  0  0  0  0  0  0  0  0
    6.2870   -7.0724    0.3078 C   0  0  0  0  0  0  0  0  0  0  0  0
   -2.5938    1.9077   -0.0825 H   0  0  0  0  0  0  0  0  0  0  0  0
   -1.8002   -2.3245    0.0699 H   0  0  0  0  0  0  0  0  0  0  0  0
    2.7357   -0.8178    1.4407 H   0  0  0  0  0  0  0  0  0  0  0  0
    3.7134   -0.5063   -0.0167 H   0  0  0  0  0  0  0  0  0  0  0  0
    2.0647   -1.7622   -1.4314 H   0  0  0  0  0  0  0  0  0  0  0  0
    1.8106   -3.7401    1.7287 H   0  0  0  0  0  0  0  0  0  0  0  0
    3.1936   -5.7093    2.1808 H   0  0  0  0  0  0  0  0  0  0  0  0
    4.2617   -2.8517   -1.7045 H   0  0  0  0  0  0  0  0  0  0  0  0
   -3.8669   -1.3896    0.0634 H   0  0  0  0  0  0  0  0  0  0  0  0
    0.8556    2.6755   -0.0999 H   0  0  0  0  0  0  0  0  0  0  0  0
    6.1063   -5.6726   -1.5001 H   0  0  0  0  0  0  0  0  0  0  0  0
    6.0318   -7.4596   -0.6816 H   0  0  0  0  0  0  0  0  0  0  0  0
    7.0925   -6.3339    0.2681 H   0  0  0  0  0  0  0  0  0  0  0  0
    6.6491   -7.9206    0.8957 H   0  0  0  0  0  0  0  0  0  0  0  0
  1  2  2  0  0  0  0
  1 17  1  0  0  0  0
  2  3  1  0  0  0  0
  2 23  1  0  0  0  0
  3  4  2  0  0  0  0
  3 18  1  0  0  0  0
  4  5  1  0  0  0  0
  4  7  1  0  0  0  0
  5  6  2  0  0  0  0
  6  1  1  0  0  0  0
  6 24  1  0  0  0  0
  7  8  1  0  0  0  0
  7 19  2  0  0  0  0
  8  9  1  0  0  0  0
  8 25  1  0  0  0  0
  8 26  1  0  0  0  0
  9 10  1  0  0  0  0
  9 11  1  0  0  0  0
  9 27  1  6  0  0  0
 10  5  1  0  0  0  0
 11 12  2  0  0  0  0
 12 13  1  0  0  0  0
 12 28  1  0  0  0  0
 13 14  2  0  0  0  0
 13 29  1  0  0  0  0
 14 15  1  0  0  0  0
 14 21  1  0  0  0  0
 15 16  2  0  0  0  0
 15 20  1  0  0  0  0
 16 11  1  0  0  0  0
 16 30  1  0  0  0  0
 17 31  1  0  0  0  0
 18 32  1  0  0  0  0
 20 33  1  0  0  0  0
 21 22  1  0  0  0  0
 22 34  1  0  0  0  0
 22 35  1  0  0  0  0
 22 36  1  0  0  0  0
M  END
>  <Mol_ID>
691

>  <Formula>
C16H14O6

>  <MolWeight>
302.27876

>  <Cat>
S2308

>  <Name>
Hesperetin

>  <Synonyms>
N/A

>  <Target>
Histamine Receptor,TGF-beta/Smad

>  <Form>
free base

>  <CAS>
520-33-2

>  <URL>
http://selleckchem.com/products/Hesperetin.html

$$$$
