Heteroclitin G
 OpenBabel08302521462D

 53 57  0  0  1  0  0  0  0  0999 V2000
    4.6686    7.1570    0.0000 C   0  0  0  0  0  0  0  0  0  0  0  0
    6.8782    5.6341    0.0000 O   0  0  0  0  0  0  0  0  0  0  0  0
    6.4956    1.1327    0.0000 O   0  0  0  0  0  0  0  0  0  0  0  0
    7.3185    0.0000    0.0000 C   0  0  0  0  0  0  0  0  0  0  0  0
    5.9175    7.1523    0.0000 O   0  0  0  0  0  0  0  0  0  0  0  0
    2.1163    7.0250    0.0000 C   0  0  0  0  0  0  0  0  0  0  0  0
    3.6373    7.1906    0.0000 O   0  0  0  0  0  0  0  0  0  0  0  0
    2.4249    7.8906    0.0000 C   0  0  0  0  0  0  0  0  0  0  0  0
    1.2125    5.7907    0.0000 O   0  0  0  0  0  0  0  0  0  0  0  0
    0.0000    5.0907    0.0000 C   0  0  0  0  0  0  0  0  0  0  0  0
    4.8499    3.6907    0.0000 C   0  0  1  0  0  0  0  0  0  0  0  0
    6.2421    3.5442    0.0000 C   0  0  0  0  0  0  0  0  0  0  0  0
    4.5587    5.0600    0.0000 C   0  0  1  0  0  0  0  0  0  0  0  0
    3.6373    2.9907    0.0000 C   0  0  0  0  0  0  0  0  0  0  0  0
    4.8499    5.0907    0.0000 C   0  0  0  0  0  0  0  0  0  0  0  0
    6.8116    4.8232    0.0000 C   0  0  0  0  0  0  0  0  0  0  0  0
    7.0650    2.4116    0.0000 C   0  0  0  0  0  0  0  0  0  0  0  0
    5.7712    5.7600    0.0000 C   0  0  2  0  0  0  0  0  0  0  0  0
    3.1663    5.2063    0.0000 C   0  0  1  0  0  0  0  0  0  0  0  0
    2.5970    3.9274    0.0000 C   0  0  0  0  0  0  0  0  0  0  0  0
    2.4249    3.6907    0.0000 C   0  0  0  0  0  0  0  0  0  0  0  0
    3.6373    5.7907    0.0000 C   0  0  0  0  0  0  0  0  0  0  0  0
    8.2038    4.9696    0.0000 C   0  0  0  0  0  0  0  0  0  0  0  0
    8.4574    2.5579    0.0000 C   0  0  0  0  0  0  0  0  0  0  0  0
    2.4249    5.0907    0.0000 C   0  0  0  0  0  0  0  0  0  0  0  0
    9.0267    3.8370    0.0000 C   0  0  0  0  0  0  0  0  0  0  0  0
    9.4977    1.6212    0.0000 O   0  0  0  0  0  0  0  0  0  0  0  0
   10.4190    3.6907    0.0000 O   0  0  0  0  0  0  0  0  0  0  0  0
   10.7102    2.3212    0.0000 C   0  0  0  0  0  0  0  0  0  0  0  0
    5.6220    7.6428    0.0000 H   0  0  0  0  0  0  0  0  0  0  0  0
    3.7712    7.7398    0.0000 H   0  0  0  0  0  0  0  0  0  0  0  0
    4.7246    8.2255    0.0000 H   0  0  0  0  0  0  0  0  0  0  0  0
    6.8833   -0.9775    0.0000 H   0  0  0  0  0  0  0  0  0  0  0  0
    8.3826    0.1118    0.0000 H   0  0  0  0  0  0  0  0  0  0  0  0
    7.9474   -0.8657    0.0000 H   0  0  0  0  0  0  0  0  0  0  0  0
    6.8036    7.5469    0.0000 H   0  0  0  0  0  0  0  0  0  0  0  0
    2.6513    7.9516    0.0000 H   0  0  0  0  0  0  0  0  0  0  0  0
    1.0463    7.0250    0.0000 H   0  0  0  0  0  0  0  0  0  0  0  0
    1.5813    7.9517    0.0000 H   0  0  0  0  0  0  0  0  0  0  0  0
    2.4249    8.9606    0.0000 H   0  0  0  0  0  0  0  0  0  0  0  0
    1.4982    7.3556    0.0000 H   0  0  0  0  0  0  0  0  0  0  0  0
    1.4983    8.4256    0.0000 H   0  0  0  0  0  0  0  0  0  0  0  0
   -0.9266    5.6257    0.0000 H   0  0  0  0  0  0  0  0  0  0  0  0
   -0.0000    4.0207    0.0000 H   0  0  0  0  0  0  0  0  0  0  0  0
   -0.9267    4.5557    0.0000 H   0  0  0  0  0  0  0  0  0  0  0  0
    4.8738    6.3428    0.0000 H   0  0  0  0  0  0  0  0  0  0  0  0
    3.7491    6.1037    0.0000 H   0  0  0  0  0  0  0  0  0  0  0  0
    1.5504    3.7049    0.0000 H   0  0  0  0  0  0  0  0  0  0  0  0
    1.9236    4.7589    0.0000 H   0  0  0  0  0  0  0  0  0  0  0  0
    1.5312    3.1747    0.0000 H   0  0  0  0  0  0  0  0  0  0  0  0
    8.6235    5.9124    0.0000 H   0  0  0  0  0  0  0  0  0  0  0  0
   11.6877    1.8860    0.0000 H   0  0  0  0  0  0  0  0  0  0  0  0
   11.5417    2.9946    0.0000 H   0  0  0  0  0  0  0  0  0  0  0  0
  1 30  1  0  0  0  0
  1 31  1  0  0  0  0
  1 32  1  0  0  0  0
  2 15  2  0  0  0  0
  3  4  1  0  0  0  0
  3 17  1  0  0  0  0
  4 33  1  0  0  0  0
  4 34  1  0  0  0  0
  4 35  1  0  0  0  0
  5 36  1  0  0  0  0
  6 37  1  0  0  0  0
  6 38  1  0  0  0  0
  6 39  1  0  0  0  0
  7  8  1  0  0  0  0
  7 22  1  0  0  0  0
  8 40  1  0  0  0  0
  8 41  1  0  0  0  0
  8 42  1  0  0  0  0
  9 10  1  0  0  0  0
  9 25  1  0  0  0  0
 10 43  1  0  0  0  0
 10 44  1  0  0  0  0
 10 45  1  0  0  0  0
 11 12  1  6  0  0  0
 11 13  1  0  0  0  0
 11 14  1  0  0  0  0
 11 15  1  0  0  0  0
 12 16  2  0  0  0  0
 12 17  1  0  0  0  0
 13  1  1  6  0  0  0
 13 18  1  0  0  0  0
 13 19  1  0  0  0  0
 14 20  1  0  0  0  0
 14 21  2  0  0  0  0
 15 22  1  0  0  0  0
 16 18  1  0  0  0  0
 16 23  1  0  0  0  0
 17 24  2  0  0  0  0
 18  5  1  0  0  0  0
 18 46  1  6  0  0  0
 19  6  1  0  0  0  0
 19 20  1  0  0  0  0
 19 47  1  6  0  0  0
 20 48  1  0  0  0  0
 20 49  1  0  0  0  0
 21 25  1  0  0  0  0
 21 50  1  0  0  0  0
 22 25  2  0  0  0  0
 23 26  2  0  0  0  0
 23 51  1  0  0  0  0
 24 26  1  0  0  0  0
 24 27  1  0  0  0  0
 26 28  1  0  0  0  0
 27 29  1  0  0  0  0
 28 29  1  0  0  0  0
 29 52  1  0  0  0  0
 29 53  1  0  0  0  0
M  END
>  <Mol_ID>
9664

>  <Formula>
C22H24O7

>  <MolWeight>
400.42176

>  <Cat>
E0587

>  <Name>
Heteroclitin G

>  <Synonyms>
N/A

>  <Target>
Others

>  <Form>
free base

>  <CAS>
144027-74-7

>  <URL>
https://www.selleckchem.com/products/heteroclitin-g.html

$$$$
