Heteroclitin D
 OpenBabel08302521453D

 65 69  0  0  0  0  0  0  0  0999 V2000
    0.1652   -0.6322   -3.3849 O   0  0  0  0  0  0  0  0  0  0  0  0
    1.8264   -2.8492   -3.5782 O   0  0  0  0  0  0  0  0  0  0  0  0
    1.8385   -4.2512   -3.2777 C   0  0  0  0  0  0  0  0  0  0  0  0
    1.9278    2.1262   -2.2103 O   0  0  0  0  0  0  0  0  0  0  0  0
    2.2593    2.9922   -3.2080 C   0  0  0  0  0  0  0  0  0  0  0  0
    2.9822    2.3012   -4.3319 C   0  0  0  0  0  0  0  0  0  0  0  0
    2.0191    4.1931   -3.2153 O   0  0  0  0  0  0  0  0  0  0  0  0
    3.6301    3.0857   -5.2178 C   0  0  0  0  0  0  0  0  0  0  0  0
    2.9058    0.8112   -4.4545 C   0  0  0  0  0  0  0  0  0  0  0  0
    4.2559    2.6448   -6.5057 C   0  0  0  0  0  0  0  0  0  0  0  0
    3.7886   -2.9474   -1.5863 O   0  0  0  0  0  0  0  0  0  0  0  0
    4.9422   -2.6692   -0.7944 C   0  0  0  0  0  0  0  0  0  0  0  0
    3.6044    1.1749   -0.3432 C   0  0  0  0  0  0  0  0  0  0  0  0
    0.8444    3.2571    1.3614 C   0  0  0  0  0  0  0  0  0  0  0  0
    0.2017   -0.5263   -0.9362 C   0  0  3  0  0  0  0  0  0  0  0  0
   -0.6956    0.7739   -1.1267 C   0  0  0  0  0  0  0  0  0  0  0  0
    1.3985   -0.7308    0.0985 C   0  0  0  0  0  0  0  0  0  0  0  0
    0.6736   -1.0230   -2.3317 C   0  0  0  0  0  0  0  0  0  0  0  0
   -0.9847   -1.5408   -0.6068 C   0  0  0  0  0  0  0  0  0  0  0  0
   -2.0523    0.4131   -0.9223 C   0  0  0  0  0  0  0  0  0  0  0  0
   -0.2859    2.0960   -1.4630 C   0  0  0  0  0  0  0  0  0  0  0  0
    2.3570   -1.6533   -0.1202 C   0  0  0  0  0  0  0  0  0  0  0  0
    1.8578    0.1461    1.2658 C   0  0  0  0  0  0  0  0  0  0  0  0
    1.7367   -2.1129   -2.4036 C   0  0  0  0  0  0  0  0  0  0  0  0
   -2.2732   -0.8782   -0.5073 O   0  0  0  0  0  0  0  0  0  0  0  0
   -3.0168    1.3868   -1.1097 C   0  0  0  0  0  0  0  0  0  0  0  0
    1.0890    2.6616   -1.1867 C   0  0  3  0  0  0  0  0  0  0  0  0
   -1.2830    3.0294   -1.7136 C   0  0  0  0  0  0  0  0  0  0  0  0
    2.5893   -2.2701   -1.3798 C   0  0  0  0  0  0  0  0  0  0  0  0
    2.5253    1.4476    0.7225 C   0  0  3  0  0  0  0  0  0  0  0  0
   -2.5688    2.6160   -1.5031 C   0  0  0  0  0  0  0  0  0  0  0  0
   -4.3771    1.3169   -0.9360 O   0  0  0  0  0  0  0  0  0  0  0  0
    1.3231    2.2902    0.3003 C   0  0  3  0  0  0  0  0  0  0  0  0
   -3.6080    3.5085   -1.6322 O   0  0  0  0  0  0  0  0  0  0  0  0
   -4.7380    2.6823   -1.2779 C   0  0  0  0  0  0  0  0  0  0  0  0
    2.7784   -4.5720   -2.8174 H   0  0  0  0  0  0  0  0  0  0  0  0
    1.0006   -4.5198   -2.6208 H   0  0  0  0  0  0  0  0  0  0  0  0
    1.7402   -4.8064   -4.2113 H   0  0  0  0  0  0  0  0  0  0  0  0
    3.6643    4.1618   -5.0519 H   0  0  0  0  0  0  0  0  0  0  0  0
    3.0295    0.3323   -3.4846 H   0  0  0  0  0  0  0  0  0  0  0  0
    1.9400    0.5187   -4.8803 H   0  0  0  0  0  0  0  0  0  0  0  0
    3.6930    0.4068   -5.0893 H   0  0  0  0  0  0  0  0  0  0  0  0
    4.0587    3.3948   -7.2803 H   0  0  0  0  0  0  0  0  0  0  0  0
    5.3387    2.5426   -6.3982 H   0  0  0  0  0  0  0  0  0  0  0  0
    3.8394    1.7023   -6.8751 H   0  0  0  0  0  0  0  0  0  0  0  0
    5.0094   -1.6342   -0.4423 H   0  0  0  0  0  0  0  0  0  0  0  0
    4.9557   -3.3634    0.0500 H   0  0  0  0  0  0  0  0  0  0  0  0
    5.8332   -2.8556   -1.4025 H   0  0  0  0  0  0  0  0  0  0  0  0
    3.2349    0.5881   -1.1884 H   0  0  0  0  0  0  0  0  0  0  0  0
    4.0163    2.1017   -0.7531 H   0  0  0  0  0  0  0  0  0  0  0  0
    4.4354    0.5992    0.0746 H   0  0  0  0  0  0  0  0  0  0  0  0
    1.2777    4.2501    1.3035 H   0  0  0  0  0  0  0  0  0  0  0  0
   -0.2627    3.3736    1.2958 H   0  0  0  0  0  0  0  0  0  0  0  0
    1.0054    2.8543    2.3765 H   0  0  0  0  0  0  0  0  0  0  0  0
   -1.1097   -2.2954   -1.3953 H   0  0  0  0  0  0  0  0  0  0  0  0
   -0.8266   -2.0799    0.3324 H   0  0  0  0  0  0  0  0  0  0  0  0
    3.1234   -1.8287    0.6282 H   0  0  0  0  0  0  0  0  0  0  0  0
    2.6193   -0.3469    1.8920 H   0  0  0  0  0  0  0  0  0  0  0  0
    1.0415    0.3322    1.9750 H   0  0  0  0  0  0  0  0  0  0  0  0
    1.0829    3.7579   -1.2181 H   0  0  0  0  0  0  0  0  0  0  0  0
   -1.0728    4.0668   -1.9546 H   0  0  0  0  0  0  0  0  0  0  0  0
    3.0469    1.9505    1.5463 H   0  0  0  0  0  0  0  0  0  0  0  0
    0.5116    1.6057    0.5252 H   0  0  0  0  0  0  0  0  0  0  0  0
   -5.2467    3.1439   -0.4220 H   0  0  0  0  0  0  0  0  0  0  0  0
   -5.4307    2.6734   -2.1281 H   0  0  0  0  0  0  0  0  0  0  0  0
  1 18  2  0  0  0  0
  2  3  1  0  0  0  0
  2 24  1  0  0  0  0
  3 36  1  0  0  0  0
  3 37  1  0  0  0  0
  3 38  1  0  0  0  0
  4  5  1  0  0  0  0
  4 27  1  0  0  0  0
  5  6  1  0  0  0  0
  5  7  2  0  0  0  0
  6  8  2  3  0  0  0
  6  9  1  0  0  0  0
  8 10  1  0  0  0  0
  8 39  1  0  0  0  0
  9 40  1  0  0  0  0
  9 41  1  0  0  0  0
  9 42  1  0  0  0  0
 10 43  1  0  0  0  0
 10 44  1  0  0  0  0
 10 45  1  0  0  0  0
 11 12  1  0  0  0  0
 11 29  1  0  0  0  0
 12 46  1  0  0  0  0
 12 47  1  0  0  0  0
 12 48  1  0  0  0  0
 13 30  1  0  0  0  0
 13 49  1  0  0  0  0
 13 50  1  0  0  0  0
 13 51  1  0  0  0  0
 14 33  1  0  0  0  0
 14 52  1  0  0  0  0
 14 53  1  0  0  0  0
 14 54  1  0  0  0  0
 15 16  1  0  0  0  0
 15 17  1  0  0  0  0
 15 18  1  0  0  0  0
 15 19  1  0  0  0  0
 16 20  1  0  0  0  0
 16 21  2  0  0  0  0
 17 22  2  0  0  0  0
 17 23  1  0  0  0  0
 18 24  1  0  0  0  0
 19 25  1  0  0  0  0
 19 55  1  0  0  0  0
 19 56  1  0  0  0  0
 20 25  1  0  0  0  0
 20 26  2  0  0  0  0
 21 27  1  0  0  0  0
 21 28  1  0  0  0  0
 22 29  1  0  0  0  0
 22 57  1  0  0  0  0
 23 30  1  0  0  0  0
 23 58  1  0  0  0  0
 23 59  1  0  0  0  0
 24 29  2  0  0  0  0
 26 31  1  0  0  0  0
 26 32  1  0  0  0  0
 27 33  1  0  0  0  0
 27 60  1  0  0  0  0
 28 31  2  0  0  0  0
 28 61  1  0  0  0  0
 30 33  1  0  0  0  0
 30 62  1  0  0  0  0
 31 34  1  0  0  0  0
 32 35  1  0  0  0  0
 33 63  1  0  0  0  0
 34 35  1  0  0  0  0
 35 64  1  0  0  0  0
 35 65  1  0  0  0  0
M  END
>  <Mol_ID>
9572

>  <Formula>
C27H30O8

>  <MolWeight>
482.5223

>  <Cat>
E2011

>  <Name>
Heteroclitin D

>  <Synonyms>
NA

>  <Target>
L-type calcium channels

>  <Form>
Free Base

>  <CAS>
140369-76-2

>  <URL>
https://www.selleckchem.com/products/heteroclitin-d.html

$$$$
