Hexaminolevulinate hydrochloride
 OpenBabel08302521313D

 36 35  0  0  0  0  0  0  0  0999 V2000
    1.5562    0.5717   -1.8355 C   0  0  0  0  0  0  0  0  0  0  0  0
    2.9214    0.4692   -1.1907 C   0  0  0  0  0  0  0  0  0  0  0  0
    0.5965    0.1048   -0.9843 O   0  0  0  0  0  0  0  0  0  0  0  0
    1.3464    1.0296   -2.9504 O   0  0  0  0  0  0  0  0  0  0  0  0
    4.0227    1.0735   -2.0669 C   0  0  0  0  0  0  0  0  0  0  0  0
   -0.7853    0.2991   -1.3565 C   0  0  0  0  0  0  0  0  0  0  0  0
    5.3927    1.0167   -1.4085 C   0  0  0  0  0  0  0  0  0  0  0  0
   -1.5077   -1.0499   -1.4341 C   0  0  0  0  0  0  0  0  0  0  0  0
    6.5610    1.6133   -2.1897 C   0  0  0  0  0  0  0  0  0  0  0  0
    5.5713    0.4787   -0.3145 O   0  0  0  0  0  0  0  0  0  0  0  0
   -3.0116   -0.8786   -1.6849 C   0  0  0  0  0  0  0  0  0  0  0  0
    7.2307    0.5693   -2.9685 N   0  0  0  0  0  0  0  0  0  0  0  0
   -3.7713   -2.1926   -1.9144 C   0  0  0  0  0  0  0  0  0  0  0  0
   -3.7628   -3.1941   -0.7541 C   0  0  0  0  0  0  0  0  0  0  0  0
   -4.4161   -2.6717    0.5164 C   0  0  0  0  0  0  0  0  0  0  0  0
    2.8822    1.0079   -0.2363 H   0  0  0  0  0  0  0  0  0  0  0  0
    3.1370   -0.5849   -0.9889 H   0  0  0  0  0  0  0  0  0  0  0  0
    4.0809    0.5406   -3.0225 H   0  0  0  0  0  0  0  0  0  0  0  0
    3.7980    2.1266   -2.2735 H   0  0  0  0  0  0  0  0  0  0  0  0
   -1.2364    0.9131   -0.5686 H   0  0  0  0  0  0  0  0  0  0  0  0
   -0.8913    0.8474   -2.2988 H   0  0  0  0  0  0  0  0  0  0  0  0
   -1.0575   -1.6521   -2.2326 H   0  0  0  0  0  0  0  0  0  0  0  0
   -1.3378   -1.6008   -0.5021 H   0  0  0  0  0  0  0  0  0  0  0  0
    6.1963    2.4061   -2.8485 H   0  0  0  0  0  0  0  0  0  0  0  0
    7.2624    2.0660   -1.4806 H   0  0  0  0  0  0  0  0  0  0  0  0
   -3.4678   -0.3274   -0.8543 H   0  0  0  0  0  0  0  0  0  0  0  0
   -3.1537   -0.2557   -2.5777 H   0  0  0  0  0  0  0  0  0  0  0  0
    8.0306    0.9777   -3.4511 H   0  0  0  0  0  0  0  0  0  0  0  0
    7.6251   -0.1144   -2.3182 H   0  0  0  0  0  0  0  0  0  0  0  0
   -4.8138   -1.9514   -2.1591 H   0  0  0  0  0  0  0  0  0  0  0  0
   -3.3578   -2.6899   -2.8006 H   0  0  0  0  0  0  0  0  0  0  0  0
   -4.3050   -4.0940   -1.0728 H   0  0  0  0  0  0  0  0  0  0  0  0
   -2.7386   -3.5132   -0.5359 H   0  0  0  0  0  0  0  0  0  0  0  0
   -5.4535   -2.3739    0.3316 H   0  0  0  0  0  0  0  0  0  0  0  0
   -4.4214   -3.4519    1.2844 H   0  0  0  0  0  0  0  0  0  0  0  0
   -3.8746   -1.8125    0.9209 H   0  0  0  0  0  0  0  0  0  0  0  0
  1  2  1  0  0  0  0
  1  3  1  0  0  0  0
  1  4  2  0  0  0  0
  2  5  1  0  0  0  0
  2 16  1  0  0  0  0
  2 17  1  0  0  0  0
  3  6  1  0  0  0  0
  5  7  1  0  0  0  0
  5 18  1  0  0  0  0
  5 19  1  0  0  0  0
  6  8  1  0  0  0  0
  6 20  1  0  0  0  0
  6 21  1  0  0  0  0
  7  9  1  0  0  0  0
  7 10  2  0  0  0  0
  8 11  1  0  0  0  0
  8 22  1  0  0  0  0
  8 23  1  0  0  0  0
  9 12  1  0  0  0  0
  9 24  1  0  0  0  0
  9 25  1  0  0  0  0
 11 13  1  0  0  0  0
 11 26  1  0  0  0  0
 11 27  1  0  0  0  0
 12 28  1  0  0  0  0
 12 29  1  0  0  0  0
 13 14  1  0  0  0  0
 13 30  1  0  0  0  0
 13 31  1  0  0  0  0
 14 15  1  0  0  0  0
 14 32  1  0  0  0  0
 14 33  1  0  0  0  0
 15 34  1  0  0  0  0
 15 35  1  0  0  0  0
 15 36  1  0  0  0  0
M  END
>  <Mol_ID>
5955

>  <Formula>
C11H22ClNO3

>  <MolWeight>
251.75028

>  <Cat>
E0160

>  <Name>
Hexaminolevulinate hydrochloride

>  <Synonyms>
5-Aminolevulinic acid hexyl ester hydrochloride

>  <Target>
Others

>  <Form>
Hydrochloride

>  <CAS>
140898-91-5

>  <URL>
http://www.selleckchem.com/products/hexaminolevulinate-hydrochloride.html

$$$$
