Hexamethonium bromide.cdx
 OpenBabel08302521383D

 46 43  0  0  0  0  0  0  0  0999 V2000
    0.7849   -0.3073   -0.1573 C   0  0  0  0  0  0  0  0  0  0  0  0
    0.3521   -0.0921    1.3067 N   0  3  0  0  0  0  0  0  0  0  0  0
    0.9073    1.2318    1.8127 C   0  0  0  0  0  0  0  0  0  0  0  0
   -1.1420   -0.2673    1.3997 C   0  0  0  0  0  0  0  0  0  0  0  0
    0.9989   -1.2017    2.1480 C   0  0  0  0  0  0  0  0  0  0  0  0
    0.4972    2.5027    1.0493 C   0  0  0  0  0  0  0  0  0  0  0  0
   -0.9456    2.9845    1.1918 C   0  0  0  0  0  0  0  0  0  0  0  0
   -1.4207    3.2312    2.6327 C   0  0  0  0  0  0  0  0  0  0  0  0
   -0.6445    4.3202    3.3863 C   0  0  0  0  0  0  0  0  0  0  0  0
   -0.7631    5.6774    2.6923 C   0  0  0  0  0  0  0  0  0  0  0  0
    0.0022    6.8055    3.3921 N   0  3  0  0  0  0  0  0  0  0  0  0
    1.5023    6.5297    3.4095 C   0  0  0  0  0  0  0  0  0  0  0  0
   -0.2406    8.0808    2.5658 C   0  0  0  0  0  0  0  0  0  0  0  0
   -0.5010    7.0412    4.8087 C   0  0  0  0  0  0  0  0  0  0  0  0
    4.4626   -2.0591    1.2479 Br  0  5  0  0  0  0  0  0  0  0  0  0
    0.2378    1.3301   -3.5174 Br  0  5  0  0  0  0  0  0  0  0  0  0
    0.1976    0.3858   -0.7556 H   0  0  0  0  0  0  0  0  0  0  0  0
    0.5447   -1.3343   -0.4429 H   0  0  0  0  0  0  0  0  0  0  0  0
    1.8551   -0.1058   -0.2435 H   0  0  0  0  0  0  0  0  0  0  0  0
    0.6473    1.3123    2.8737 H   0  0  0  0  0  0  0  0  0  0  0  0
    2.0019    1.1611    1.7519 H   0  0  0  0  0  0  0  0  0  0  0  0
   -1.3794   -1.3274    1.2713 H   0  0  0  0  0  0  0  0  0  0  0  0
   -1.4719    0.0687    2.3889 H   0  0  0  0  0  0  0  0  0  0  0  0
   -1.6319    0.2962    0.6062 H   0  0  0  0  0  0  0  0  0  0  0  0
    0.8667   -2.1603    1.6395 H   0  0  0  0  0  0  0  0  0  0  0  0
    2.0420   -0.9503    2.3029 H   0  0  0  0  0  0  0  0  0  0  0  0
    0.4965   -1.2157    3.1204 H   0  0  0  0  0  0  0  0  0  0  0  0
    1.1542    3.3108    1.3952 H   0  0  0  0  0  0  0  0  0  0  0  0
    0.7316    2.3990   -0.0164 H   0  0  0  0  0  0  0  0  0  0  0  0
   -1.0583    3.9065    0.6099 H   0  0  0  0  0  0  0  0  0  0  0  0
   -1.6340    2.2916    0.7083 H   0  0  0  0  0  0  0  0  0  0  0  0
   -2.4818    3.5125    2.6048 H   0  0  0  0  0  0  0  0  0  0  0  0
   -1.3761    2.3014    3.2079 H   0  0  0  0  0  0  0  0  0  0  0  0
   -1.0575    4.3768    4.3997 H   0  0  0  0  0  0  0  0  0  0  0  0
    0.3999    4.0114    3.4895 H   0  0  0  0  0  0  0  0  0  0  0  0
   -0.3650    5.6338    1.6750 H   0  0  0  0  0  0  0  0  0  0  0  0
   -1.8155    5.9832    2.6427 H   0  0  0  0  0  0  0  0  0  0  0  0
    1.8277    6.3005    2.3909 H   0  0  0  0  0  0  0  0  0  0  0  0
    2.0129    7.4246    3.7823 H   0  0  0  0  0  0  0  0  0  0  0  0
    1.7006    5.6892    4.0788 H   0  0  0  0  0  0  0  0  0  0  0  0
   -1.3098    8.2983    2.5787 H   0  0  0  0  0  0  0  0  0  0  0  0
    0.3245    8.8996    3.0274 H   0  0  0  0  0  0  0  0  0  0  0  0
    0.1101    7.9011    1.5472 H   0  0  0  0  0  0  0  0  0  0  0  0
   -1.5924    7.0965    4.7835 H   0  0  0  0  0  0  0  0  0  0  0  0
   -0.1710    6.2123    5.4417 H   0  0  0  0  0  0  0  0  0  0  0  0
   -0.0779    7.9803    5.1743 H   0  0  0  0  0  0  0  0  0  0  0  0
  1  2  1  0  0  0  0
  1 17  1  0  0  0  0
  1 18  1  0  0  0  0
  1 19  1  0  0  0  0
  2  3  1  0  0  0  0
  2  4  1  0  0  0  0
  2  5  1  0  0  0  0
  3  6  1  0  0  0  0
  3 20  1  0  0  0  0
  3 21  1  0  0  0  0
  4 22  1  0  0  0  0
  4 23  1  0  0  0  0
  4 24  1  0  0  0  0
  5 25  1  0  0  0  0
  5 26  1  0  0  0  0
  5 27  1  0  0  0  0
  6  7  1  0  0  0  0
  6 28  1  0  0  0  0
  6 29  1  0  0  0  0
  7  8  1  0  0  0  0
  7 30  1  0  0  0  0
  7 31  1  0  0  0  0
  8  9  1  0  0  0  0
  8 32  1  0  0  0  0
  8 33  1  0  0  0  0
  9 10  1  0  0  0  0
  9 34  1  0  0  0  0
  9 35  1  0  0  0  0
 10 11  1  0  0  0  0
 10 36  1  0  0  0  0
 10 37  1  0  0  0  0
 11 12  1  0  0  0  0
 11 13  1  0  0  0  0
 11 14  1  0  0  0  0
 12 38  1  0  0  0  0
 12 39  1  0  0  0  0
 12 40  1  0  0  0  0
 13 41  1  0  0  0  0
 13 42  1  0  0  0  0
 13 43  1  0  0  0  0
 14 44  1  0  0  0  0
 14 45  1  0  0  0  0
 14 46  1  0  0  0  0
M  CHG  4   2   1  11   1  15  -1  16  -1
M  END
>  <Mol_ID>
7741

>  <Formula>
C12H30Br2N2

>  <MolWeight>
362.188

>  <Cat>
S4069

>  <Name>
Hexamethonium?Dibromide

>  <Synonyms>
N/A

>  <Target>
AChR

>  <Form>
Bromide

>  <CAS>
55-97-0

>  <URL>
http://selleckchem.com/products/hexamethonium-bromide.html

$$$$
