Hexadecanedioic acid
 OpenBabel08302520393D

 50 49  0  0  0  0  0  0  0  0999 V2000
   -0.7691   -1.9759   -3.4271 C   0  0  0  0  0  0  0  0  0  0  0  0
   -1.5633   -1.0566   -2.5306 C   0  0  0  0  0  0  0  0  0  0  0  0
   -1.5655   -2.7837   -4.1653 O   0  0  0  0  0  0  0  0  0  0  0  0
    0.4501   -2.0180   -3.4980 O   0  0  0  0  0  0  0  0  0  0  0  0
   -0.6543   -0.1263   -1.7266 C   0  0  0  0  0  0  0  0  0  0  0  0
   -1.4297    0.8850   -0.8871 C   0  0  0  0  0  0  0  0  0  0  0  0
   -2.2678    0.2503    0.2253 C   0  0  0  0  0  0  0  0  0  0  0  0
   -3.0602    1.2975    1.0144 C   0  0  0  0  0  0  0  0  0  0  0  0
   -4.0510    2.0988    0.1602 C   0  0  0  0  0  0  0  0  0  0  0  0
   -5.0788    1.2278   -0.5701 C   0  0  0  0  0  0  0  0  0  0  0  0
   -5.9855    0.4424    0.3823 C   0  0  0  0  0  0  0  0  0  0  0  0
   -6.8412    1.3380    1.2879 C   0  0  0  0  0  0  0  0  0  0  0  0
   -7.7536    2.3039    0.5224 C   0  0  0  0  0  0  0  0  0  0  0  0
   -8.7506    1.5393   -0.3431 C   0  0  0  0  0  0  0  0  0  0  0  0
   -9.6663    2.4551   -1.1474 C   0  0  0  0  0  0  0  0  0  0  0  0
  -10.6547    1.6563   -2.0055 C   0  0  0  0  0  0  0  0  0  0  0  0
  -11.5959    0.7786   -1.1747 C   0  0  0  0  0  0  0  0  0  0  0  0
  -12.6058    0.0427   -2.0256 C   0  0  0  0  0  0  0  0  0  0  0  0
  -13.4243   -0.7396   -1.2830 O   0  0  0  0  0  0  0  0  0  0  0  0
  -12.6921    0.1203   -3.2402 O   0  0  0  0  0  0  0  0  0  0  0  0
   -2.2384   -0.4629   -3.1581 H   0  0  0  0  0  0  0  0  0  0  0  0
   -2.1575   -1.6840   -1.8587 H   0  0  0  0  0  0  0  0  0  0  0  0
   -2.5194   -2.6487   -4.0079 H   0  0  0  0  0  0  0  0  0  0  0  0
    0.0136   -0.7109   -1.0837 H   0  0  0  0  0  0  0  0  0  0  0  0
   -0.0116    0.4321   -2.4195 H   0  0  0  0  0  0  0  0  0  0  0  0
   -0.7192    1.5859   -0.4321 H   0  0  0  0  0  0  0  0  0  0  0  0
   -2.0603    1.4709   -1.5636 H   0  0  0  0  0  0  0  0  0  0  0  0
   -2.9572   -0.4964   -0.1810 H   0  0  0  0  0  0  0  0  0  0  0  0
   -1.6103   -0.2917    0.9151 H   0  0  0  0  0  0  0  0  0  0  0  0
   -3.5942    0.7958    1.8302 H   0  0  0  0  0  0  0  0  0  0  0  0
   -2.3638    1.9934    1.4961 H   0  0  0  0  0  0  0  0  0  0  0  0
   -4.5595    2.8291    0.7991 H   0  0  0  0  0  0  0  0  0  0  0  0
   -3.5097    2.7014   -0.5770 H   0  0  0  0  0  0  0  0  0  0  0  0
   -5.6802    1.8630   -1.2299 H   0  0  0  0  0  0  0  0  0  0  0  0
   -4.5755    0.5261   -1.2445 H   0  0  0  0  0  0  0  0  0  0  0  0
   -6.6265   -0.2233   -0.2062 H   0  0  0  0  0  0  0  0  0  0  0  0
   -5.3881   -0.2292    1.0084 H   0  0  0  0  0  0  0  0  0  0  0  0
   -7.4539    0.6980    1.9343 H   0  0  0  0  0  0  0  0  0  0  0  0
   -6.1974    1.9130    1.9629 H   0  0  0  0  0  0  0  0  0  0  0  0
   -8.2959    2.9244    1.2457 H   0  0  0  0  0  0  0  0  0  0  0  0
   -7.1639    2.9949   -0.0899 H   0  0  0  0  0  0  0  0  0  0  0  0
   -8.2281    0.8871   -1.0505 H   0  0  0  0  0  0  0  0  0  0  0  0
   -9.3367    0.8959    0.3204 H   0  0  0  0  0  0  0  0  0  0  0  0
  -10.2115    3.1284   -0.4769 H   0  0  0  0  0  0  0  0  0  0  0  0
   -9.0566    3.0840   -1.8087 H   0  0  0  0  0  0  0  0  0  0  0  0
  -11.2421    2.3596   -2.6077 H   0  0  0  0  0  0  0  0  0  0  0  0
  -10.0991    1.0303   -2.7159 H   0  0  0  0  0  0  0  0  0  0  0  0
  -11.0237    0.0177   -0.6343 H   0  0  0  0  0  0  0  0  0  0  0  0
  -12.1353    1.4029   -0.4537 H   0  0  0  0  0  0  0  0  0  0  0  0
  -13.2332   -0.7092   -0.3263 H   0  0  0  0  0  0  0  0  0  0  0  0
  1  2  1  0  0  0  0
  1  3  1  0  0  0  0
  1  4  2  0  0  0  0
  2  5  1  0  0  0  0
  2 21  1  0  0  0  0
  2 22  1  0  0  0  0
  3 23  1  0  0  0  0
  5  6  1  0  0  0  0
  5 24  1  0  0  0  0
  5 25  1  0  0  0  0
  6  7  1  0  0  0  0
  6 26  1  0  0  0  0
  6 27  1  0  0  0  0
  7  8  1  0  0  0  0
  7 28  1  0  0  0  0
  7 29  1  0  0  0  0
  8  9  1  0  0  0  0
  8 30  1  0  0  0  0
  8 31  1  0  0  0  0
  9 10  1  0  0  0  0
  9 32  1  0  0  0  0
  9 33  1  0  0  0  0
 10 11  1  0  0  0  0
 10 34  1  0  0  0  0
 10 35  1  0  0  0  0
 11 12  1  0  0  0  0
 11 36  1  0  0  0  0
 11 37  1  0  0  0  0
 12 13  1  0  0  0  0
 12 38  1  0  0  0  0
 12 39  1  0  0  0  0
 13 14  1  0  0  0  0
 13 40  1  0  0  0  0
 13 41  1  0  0  0  0
 14 15  1  0  0  0  0
 14 42  1  0  0  0  0
 14 43  1  0  0  0  0
 15 16  1  0  0  0  0
 15 44  1  0  0  0  0
 15 45  1  0  0  0  0
 16 17  1  0  0  0  0
 16 46  1  0  0  0  0
 16 47  1  0  0  0  0
 17 18  1  0  0  0  0
 17 48  1  0  0  0  0
 17 49  1  0  0  0  0
 18 19  1  0  0  0  0
 18 20  2  0  0  0  0
 19 50  1  0  0  0  0
M  END
>  <Mol_ID>
3590

>  <Formula>
C16H30O4

>  <MolWeight>
286.407

>  <Cat>
S6147

>  <Name>
Hexadecanedioic acid

>  <Synonyms>
Thapsic acid, Hexadecanedioate, Palmitic acid

>  <Target>
Others

>  <Form>
free base

>  <CAS>
505-54-4

>  <URL>
http://www.selleck.cn/products/hexadecanedioic-acid.html

$$$$
