Hexetidine
 OpenBabel08302520403D

 69 69  0  0  0  0  0  0  0  0999 V2000
    0.5941    1.0576   -0.1477 C   0  0  0  0  0  0  0  0  0  0  0  0
    1.2103   -0.1681    0.3734 N   0  0  0  0  0  0  0  0  0  0  0  0
   -0.8745    1.0949   -0.0017 N   0  0  0  0  0  0  0  0  0  0  0  0
    0.5591   -1.3791   -0.1396 C   0  0  0  0  0  0  0  0  0  0  0  0
    1.5113   -0.1283    1.8150 C   0  0  0  0  0  0  0  0  0  0  0  0
   -1.4485   -0.0354   -0.7581 C   0  0  0  0  0  0  0  0  0  0  0  0
   -1.4037    2.3869   -0.4927 C   0  0  0  0  0  0  0  0  0  0  0  0
   -0.9914   -1.3823   -0.1572 C   0  0  3  0  0  0  0  0  0  0  0  0
    2.3116   -1.3589    2.3693 C   0  0  3  0  0  0  0  0  0  0  0  0
   -2.9516    2.5857   -0.3877 C   0  0  3  0  0  0  0  0  0  0  0  0
   -1.4872   -2.5374   -1.0474 C   0  0  0  0  0  0  0  0  0  0  0  0
   -1.5696   -1.5725    1.1960 N   0  0  0  0  0  0  0  0  0  0  0  0
    3.6484   -1.5262    1.5966 C   0  0  0  0  0  0  0  0  0  0  0  0
    2.5871   -1.2837    3.8897 C   0  0  0  0  0  0  0  0  0  0  0  0
   -3.4421    2.4773    1.0793 C   0  0  0  0  0  0  0  0  0  0  0  0
   -3.3871    3.9289   -1.0193 C   0  0  0  0  0  0  0  0  0  0  0  0
    4.5245   -2.7395    1.9491 C   0  0  0  0  0  0  0  0  0  0  0  0
    1.3463   -1.1297    4.7575 C   0  0  0  0  0  0  0  0  0  0  0  0
   -4.9579    2.6417    1.2955 C   0  0  0  0  0  0  0  0  0  0  0  0
   -3.1141    4.0188   -2.5140 C   0  0  0  0  0  0  0  0  0  0  0  0
    3.8107   -4.0883    1.8539 C   0  0  0  0  0  0  0  0  0  0  0  0
   -5.8066    1.6016    0.5581 C   0  0  0  0  0  0  0  0  0  0  0  0
    4.7739   -5.2390    2.1167 C   0  0  0  0  0  0  0  0  0  0  0  0
   -7.2899    1.8481    0.7644 C   0  0  0  0  0  0  0  0  0  0  0  0
    1.0506    1.9331    0.3314 H   0  0  0  0  0  0  0  0  0  0  0  0
    0.8643    1.1396   -1.2093 H   0  0  0  0  0  0  0  0  0  0  0  0
    0.9045   -1.4793   -1.1787 H   0  0  0  0  0  0  0  0  0  0  0  0
    0.9274   -2.2909    0.3389 H   0  0  0  0  0  0  0  0  0  0  0  0
    2.1430    0.7541    1.9947 H   0  0  0  0  0  0  0  0  0  0  0  0
    0.5925    0.0240    2.3895 H   0  0  0  0  0  0  0  0  0  0  0  0
   -1.1653    0.0307   -1.8190 H   0  0  0  0  0  0  0  0  0  0  0  0
   -2.5420   -0.0166   -0.7277 H   0  0  0  0  0  0  0  0  0  0  0  0
   -0.9276    3.1972    0.0750 H   0  0  0  0  0  0  0  0  0  0  0  0
   -1.0966    2.5118   -1.5378 H   0  0  0  0  0  0  0  0  0  0  0  0
    1.6989   -2.2536    2.2204 H   0  0  0  0  0  0  0  0  0  0  0  0
   -3.4405    1.8013   -0.9728 H   0  0  0  0  0  0  0  0  0  0  0  0
   -1.1153   -3.5031   -0.6868 H   0  0  0  0  0  0  0  0  0  0  0  0
   -2.5838   -2.5803   -1.0746 H   0  0  0  0  0  0  0  0  0  0  0  0
   -1.1377   -2.4166   -2.0790 H   0  0  0  0  0  0  0  0  0  0  0  0
   -2.5004   -1.1497    1.2233 H   0  0  0  0  0  0  0  0  0  0  0  0
   -1.6857   -2.5579    1.4014 H   0  0  0  0  0  0  0  0  0  0  0  0
    3.4416   -1.5761    0.5223 H   0  0  0  0  0  0  0  0  0  0  0  0
    4.2582   -0.6250    1.7494 H   0  0  0  0  0  0  0  0  0  0  0  0
    3.0749   -2.2151    4.2031 H   0  0  0  0  0  0  0  0  0  0  0  0
    3.2916   -0.4732    4.1136 H   0  0  0  0  0  0  0  0  0  0  0  0
   -3.1434    1.5078    1.4956 H   0  0  0  0  0  0  0  0  0  0  0  0
   -2.9329    3.2412    1.6810 H   0  0  0  0  0  0  0  0  0  0  0  0
   -4.4666    4.0602   -0.8999 H   0  0  0  0  0  0  0  0  0  0  0  0
   -2.9038    4.7649   -0.5022 H   0  0  0  0  0  0  0  0  0  0  0  0
    5.3757   -2.7436    1.2552 H   0  0  0  0  0  0  0  0  0  0  0  0
    4.9552   -2.6163    2.9499 H   0  0  0  0  0  0  0  0  0  0  0  0
    0.5764   -1.8566    4.4836 H   0  0  0  0  0  0  0  0  0  0  0  0
    1.6082   -1.2970    5.8085 H   0  0  0  0  0  0  0  0  0  0  0  0
    0.9288   -0.1225    4.6809 H   0  0  0  0  0  0  0  0  0  0  0  0
   -5.1600    2.5579    2.3724 H   0  0  0  0  0  0  0  0  0  0  0  0
   -5.2754    3.6509    1.0171 H   0  0  0  0  0  0  0  0  0  0  0  0
   -3.5142    3.1461   -3.0408 H   0  0  0  0  0  0  0  0  0  0  0  0
   -3.5988    4.9107   -2.9244 H   0  0  0  0  0  0  0  0  0  0  0  0
   -2.0448    4.0982   -2.7275 H   0  0  0  0  0  0  0  0  0  0  0  0
    2.9961   -4.1439    2.5833 H   0  0  0  0  0  0  0  0  0  0  0  0
    3.3692   -4.2090    0.8584 H   0  0  0  0  0  0  0  0  0  0  0  0
   -5.6027    1.6250   -0.5169 H   0  0  0  0  0  0  0  0  0  0  0  0
   -5.5518    0.5978    0.9174 H   0  0  0  0  0  0  0  0  0  0  0  0
    5.2112   -5.1636    3.1180 H   0  0  0  0  0  0  0  0  0  0  0  0
    4.2523   -6.1982    2.0464 H   0  0  0  0  0  0  0  0  0  0  0  0
    5.5905   -5.2431    1.3870 H   0  0  0  0  0  0  0  0  0  0  0  0
   -7.5977    2.8015    0.3235 H   0  0  0  0  0  0  0  0  0  0  0  0
   -7.8768    1.0543    0.2745 H   0  0  0  0  0  0  0  0  0  0  0  0
   -7.5568    1.8545    1.8238 H   0  0  0  0  0  0  0  0  0  0  0  0
  1  2  1  0  0  0  0
  1  3  1  0  0  0  0
  1 25  1  0  0  0  0
  1 26  1  0  0  0  0
  2  4  1  0  0  0  0
  2  5  1  0  0  0  0
  3  6  1  0  0  0  0
  3  7  1  0  0  0  0
  4  8  1  0  0  0  0
  4 27  1  0  0  0  0
  4 28  1  0  0  0  0
  5  9  1  0  0  0  0
  5 29  1  0  0  0  0
  5 30  1  0  0  0  0
  6  8  1  0  0  0  0
  6 31  1  0  0  0  0
  6 32  1  0  0  0  0
  7 10  1  0  0  0  0
  7 33  1  0  0  0  0
  7 34  1  0  0  0  0
  8 11  1  0  0  0  0
  8 12  1  0  0  0  0
  9 13  1  0  0  0  0
  9 14  1  0  0  0  0
  9 35  1  0  0  0  0
 10 15  1  0  0  0  0
 10 16  1  0  0  0  0
 10 36  1  0  0  0  0
 11 37  1  0  0  0  0
 11 38  1  0  0  0  0
 11 39  1  0  0  0  0
 12 40  1  0  0  0  0
 12 41  1  0  0  0  0
 13 17  1  0  0  0  0
 13 42  1  0  0  0  0
 13 43  1  0  0  0  0
 14 18  1  0  0  0  0
 14 44  1  0  0  0  0
 14 45  1  0  0  0  0
 15 19  1  0  0  0  0
 15 46  1  0  0  0  0
 15 47  1  0  0  0  0
 16 20  1  0  0  0  0
 16 48  1  0  0  0  0
 16 49  1  0  0  0  0
 17 21  1  0  0  0  0
 17 50  1  0  0  0  0
 17 51  1  0  0  0  0
 18 52  1  0  0  0  0
 18 53  1  0  0  0  0
 18 54  1  0  0  0  0
 19 22  1  0  0  0  0
 19 55  1  0  0  0  0
 19 56  1  0  0  0  0
 20 57  1  0  0  0  0
 20 58  1  0  0  0  0
 20 59  1  0  0  0  0
 21 23  1  0  0  0  0
 21 60  1  0  0  0  0
 21 61  1  0  0  0  0
 22 24  1  0  0  0  0
 22 62  1  0  0  0  0
 22 63  1  0  0  0  0
 23 64  1  0  0  0  0
 23 65  1  0  0  0  0
 23 66  1  0  0  0  0
 24 67  1  0  0  0  0
 24 68  1  0  0  0  0
 24 69  1  0  0  0  0
M  END
>  <Mol_ID>
3729

>  <Formula>
C21H45N3

>  <MolWeight>
339.6021

>  <Cat>
S6408

>  <Name>
Hexetidine

>  <Synonyms>
N/A

>  <Target>
Fungal

>  <Form>
Free Base

>  <CAS>
141-94-6

>  <URL>
http://www.selleck.cn/products/hexetidine.html

$$$$
