Hexyl hexanoate
 OpenBabel08302521373D

 38 37  0  0  0  0  0  0  0  0999 V2000
    1.2592    0.1542    0.2735 C   0  0  0  0  0  0  0  0  0  0  0  0
    0.4002    1.1790    0.5237 O   0  0  0  0  0  0  0  0  0  0  0  0
    2.4831    0.6403   -0.4691 C   0  0  0  0  0  0  0  0  0  0  0  0
    1.0442   -1.0248    0.5125 O   0  0  0  0  0  0  0  0  0  0  0  0
   -0.9404    0.7990    0.8762 C   0  0  0  0  0  0  0  0  0  0  0  0
    3.2973    1.7100    0.2508 C   0  0  0  0  0  0  0  0  0  0  0  0
   -1.0912    0.3356    2.3239 C   0  0  0  0  0  0  0  0  0  0  0  0
    3.8613    1.2907    1.6107 C   0  0  0  0  0  0  0  0  0  0  0  0
   -0.6602    1.3935    3.3398 C   0  0  0  0  0  0  0  0  0  0  0  0
    4.8104    0.0938    1.5422 C   0  0  0  0  0  0  0  0  0  0  0  0
   -0.8386    0.9338    4.7924 C   0  0  0  0  0  0  0  0  0  0  0  0
    5.3597   -0.2552    2.9173 C   0  0  0  0  0  0  0  0  0  0  0  0
   -0.0644   -0.3270    5.1897 C   0  0  0  0  0  0  0  0  0  0  0  0
    1.4372   -0.2086    4.9794 C   0  0  0  0  0  0  0  0  0  0  0  0
    3.1104   -0.2283   -0.6979 H   0  0  0  0  0  0  0  0  0  0  0  0
    2.1399    1.0261   -1.4367 H   0  0  0  0  0  0  0  0  0  0  0  0
   -1.5719    1.6776    0.7027 H   0  0  0  0  0  0  0  0  0  0  0  0
   -1.2944    0.0213    0.1880 H   0  0  0  0  0  0  0  0  0  0  0  0
    4.1274    2.0103   -0.3998 H   0  0  0  0  0  0  0  0  0  0  0  0
    2.6793    2.6049    0.3944 H   0  0  0  0  0  0  0  0  0  0  0  0
   -2.1407    0.0705    2.4992 H   0  0  0  0  0  0  0  0  0  0  0  0
   -0.5017   -0.5743    2.4714 H   0  0  0  0  0  0  0  0  0  0  0  0
    4.4016    2.1479    2.0332 H   0  0  0  0  0  0  0  0  0  0  0  0
    3.0369    1.0735    2.2990 H   0  0  0  0  0  0  0  0  0  0  0  0
    0.3820    1.6848    3.1673 H   0  0  0  0  0  0  0  0  0  0  0  0
   -1.2618    2.2986    3.1901 H   0  0  0  0  0  0  0  0  0  0  0  0
    4.2919   -0.7853    1.1445 H   0  0  0  0  0  0  0  0  0  0  0  0
    5.6432    0.3167    0.8652 H   0  0  0  0  0  0  0  0  0  0  0  0
   -0.5392    1.7558    5.4545 H   0  0  0  0  0  0  0  0  0  0  0  0
   -1.9051    0.7588    4.9828 H   0  0  0  0  0  0  0  0  0  0  0  0
    4.5493   -0.5107    3.6071 H   0  0  0  0  0  0  0  0  0  0  0  0
    6.0299   -1.1175    2.8483 H   0  0  0  0  0  0  0  0  0  0  0  0
    5.9227    0.5834    3.3408 H   0  0  0  0  0  0  0  0  0  0  0  0
   -0.2547   -0.5316    6.2500 H   0  0  0  0  0  0  0  0  0  0  0  0
   -0.4423   -1.1956    4.6396 H   0  0  0  0  0  0  0  0  0  0  0  0
    1.8434    0.6453    5.5302 H   0  0  0  0  0  0  0  0  0  0  0  0
    1.9402   -1.1131    5.3361 H   0  0  0  0  0  0  0  0  0  0  0  0
    1.6852   -0.0911    3.9216 H   0  0  0  0  0  0  0  0  0  0  0  0
  1  2  1  0  0  0  0
  1  3  1  0  0  0  0
  1  4  2  0  0  0  0
  2  5  1  0  0  0  0
  3  6  1  0  0  0  0
  3 15  1  0  0  0  0
  3 16  1  0  0  0  0
  5  7  1  0  0  0  0
  5 17  1  0  0  0  0
  5 18  1  0  0  0  0
  6  8  1  0  0  0  0
  6 19  1  0  0  0  0
  6 20  1  0  0  0  0
  7  9  1  0  0  0  0
  7 21  1  0  0  0  0
  7 22  1  0  0  0  0
  8 10  1  0  0  0  0
  8 23  1  0  0  0  0
  8 24  1  0  0  0  0
  9 11  1  0  0  0  0
  9 25  1  0  0  0  0
  9 26  1  0  0  0  0
 10 12  1  0  0  0  0
 10 27  1  0  0  0  0
 10 28  1  0  0  0  0
 11 13  1  0  0  0  0
 11 29  1  0  0  0  0
 11 30  1  0  0  0  0
 12 31  1  0  0  0  0
 12 32  1  0  0  0  0
 12 33  1  0  0  0  0
 13 14  1  0  0  0  0
 13 34  1  0  0  0  0
 13 35  1  0  0  0  0
 14 36  1  0  0  0  0
 14 37  1  0  0  0  0
 14 38  1  0  0  0  0
M  END
>  <Mol_ID>
7338

>  <Formula>
C12H24O2

>  <MolWeight>
200.31776

>  <Cat>
E4383

>  <Name>
Hexyl hexanoate

>  <Synonyms>
Hexyl hexanoate

>  <Target>
Others

>  <Form>
free base

>  <CAS>
6378-65-0

>  <URL>
https://www.selleckchem.com/products/hexyl-hexanoate.html

$$$$
