¦Á-Hexylcinnamaldehyde
 OpenBabel08302521373D

 36 36  0  0  0  0  0  0  0  0999 V2000
    0.9091   -0.5440   -1.0632 C   0  0  0  0  0  0  0  0  0  0  0  0
    0.3370    0.6260   -0.7271 C   0  0  0  0  0  0  0  0  0  0  0  0
   -1.1512    0.9007   -0.7285 C   0  0  0  0  0  0  0  0  0  0  0  0
    1.3053    1.6936   -0.3299 C   0  0  0  0  0  0  0  0  0  0  0  0
   -1.5711    2.3123   -0.2922 C   0  0  0  0  0  0  0  0  0  0  0  0
    2.4907    1.6880   -0.6416 O   0  0  0  0  0  0  0  0  0  0  0  0
   -3.0853    2.5345   -0.3516 C   0  0  0  0  0  0  0  0  0  0  0  0
   -3.4433    3.9512    0.1148 C   0  0  0  0  0  0  0  0  0  0  0  0
   -4.9498    4.2073    0.0711 C   0  0  0  0  0  0  0  0  0  0  0  0
   -5.2909    5.6153    0.5387 C   0  0  0  0  0  0  0  0  0  0  0  0
    0.2158   -1.7547   -1.5046 C   0  0  0  0  0  0  0  0  0  0  0  0
   -0.0638   -1.9483   -2.8606 C   0  0  0  0  0  0  0  0  0  0  0  0
   -0.0829   -2.7656   -0.5859 C   0  0  0  0  0  0  0  0  0  0  0  0
   -0.6056   -3.1581   -3.2989 C   0  0  0  0  0  0  0  0  0  0  0  0
   -0.6149   -3.9795   -1.0273 C   0  0  0  0  0  0  0  0  0  0  0  0
   -0.8656   -4.1781   -2.3845 C   0  0  0  0  0  0  0  0  0  0  0  0
    1.9947   -0.6638   -1.0300 H   0  0  0  0  0  0  0  0  0  0  0  0
   -1.5365    0.7236   -1.7422 H   0  0  0  0  0  0  0  0  0  0  0  0
   -1.6412    0.1748   -0.0668 H   0  0  0  0  0  0  0  0  0  0  0  0
    0.8990    2.5067    0.2856 H   0  0  0  0  0  0  0  0  0  0  0  0
   -1.2397    2.4863    0.7391 H   0  0  0  0  0  0  0  0  0  0  0  0
   -1.0788    3.0565   -0.9304 H   0  0  0  0  0  0  0  0  0  0  0  0
   -3.4415    2.3807   -1.3770 H   0  0  0  0  0  0  0  0  0  0  0  0
   -3.5898    1.7982    0.2850 H   0  0  0  0  0  0  0  0  0  0  0  0
   -3.0775    4.1037    1.1379 H   0  0  0  0  0  0  0  0  0  0  0  0
   -2.9316    4.6850   -0.5204 H   0  0  0  0  0  0  0  0  0  0  0  0
   -5.3195    4.0706   -0.9515 H   0  0  0  0  0  0  0  0  0  0  0  0
   -5.4717    3.4823    0.7062 H   0  0  0  0  0  0  0  0  0  0  0  0
   -4.7718    6.3680   -0.0635 H   0  0  0  0  0  0  0  0  0  0  0  0
   -6.3672    5.7951    0.4505 H   0  0  0  0  0  0  0  0  0  0  0  0
   -5.0088    5.7606    1.5866 H   0  0  0  0  0  0  0  0  0  0  0  0
    0.1675   -1.1724   -3.5872 H   0  0  0  0  0  0  0  0  0  0  0  0
    0.1241   -2.6277    0.4733 H   0  0  0  0  0  0  0  0  0  0  0  0
   -0.8048   -3.3124   -4.3560 H   0  0  0  0  0  0  0  0  0  0  0  0
   -0.8151   -4.7751   -0.3156 H   0  0  0  0  0  0  0  0  0  0  0  0
   -1.2570   -5.1325   -2.7310 H   0  0  0  0  0  0  0  0  0  0  0  0
  1  2  2  3  0  0  0
  1 11  1  0  0  0  0
  1 17  1  0  0  0  0
  2  3  1  0  0  0  0
  2  4  1  0  0  0  0
  3  5  1  0  0  0  0
  3 18  1  0  0  0  0
  3 19  1  0  0  0  0
  4  6  2  0  0  0  0
  4 20  1  0  0  0  0
  5  7  1  0  0  0  0
  5 21  1  0  0  0  0
  5 22  1  0  0  0  0
  7  8  1  0  0  0  0
  7 23  1  0  0  0  0
  7 24  1  0  0  0  0
  8  9  1  0  0  0  0
  8 25  1  0  0  0  0
  8 26  1  0  0  0  0
  9 10  1  0  0  0  0
  9 27  1  0  0  0  0
  9 28  1  0  0  0  0
 10 29  1  0  0  0  0
 10 30  1  0  0  0  0
 10 31  1  0  0  0  0
 11 12  2  0  0  0  0
 11 13  1  0  0  0  0
 12 14  1  0  0  0  0
 12 32  1  0  0  0  0
 13 15  2  0  0  0  0
 13 33  1  0  0  0  0
 14 16  2  0  0  0  0
 14 34  1  0  0  0  0
 15 16  1  0  0  0  0
 15 35  1  0  0  0  0
 16 36  1  0  0  0  0
M  END
>  <Mol_ID>
7362

>  <Formula>
C15H20O

>  <MolWeight>
216.3187

>  <Cat>
E4411

>  <Name>
¦Á-Hexylcinnamaldehyde

>  <Target>
Carbohydrate Metabolism

>  <Form>
Free base

>  <CAS>
101-86-0

>  <URL>
https://www.selleckchem.com/products/alpha-hexylcinnamaldehyde.html

$$$$
