Hexylene glycol
 OpenBabel08302521303D

 22 21  0  0  0  0  0  0  0  0999 V2000
    1.0235   -0.0334   -0.0591 O   0  0  0  0  0  0  0  0  0  0  0  0
    3.2446   -1.8265    2.1280 O   0  0  0  0  0  0  0  0  0  0  0  0
    0.5689   -0.8100    1.0578 C   0  0  0  0  0  0  0  0  0  0  0  0
    1.1612   -2.2327    0.9658 C   0  0  0  0  0  0  0  0  0  0  0  0
    2.6898   -2.3263    0.9169 C   0  0  3  0  0  0  0  0  0  0  0  0
    0.9229   -0.0733    2.3534 C   0  0  0  0  0  0  0  0  0  0  0  0
   -0.9552   -0.8963    0.9401 C   0  0  0  0  0  0  0  0  0  0  0  0
    3.1399   -3.7761    0.7666 C   0  0  0  0  0  0  0  0  0  0  0  0
    1.9081    0.3063    0.1542 H   0  0  0  0  0  0  0  0  0  0  0  0
    4.0091   -1.2721    1.8954 H   0  0  0  0  0  0  0  0  0  0  0  0
    0.7877   -2.8222    1.8130 H   0  0  0  0  0  0  0  0  0  0  0  0
    0.7770   -2.7060    0.0501 H   0  0  0  0  0  0  0  0  0  0  0  0
    3.0823   -1.7395    0.0789 H   0  0  0  0  0  0  0  0  0  0  0  0
    0.3510    0.8574    2.4414 H   0  0  0  0  0  0  0  0  0  0  0  0
    0.7171   -0.6902    3.2343 H   0  0  0  0  0  0  0  0  0  0  0  0
    1.9737    0.2333    2.3764 H   0  0  0  0  0  0  0  0  0  0  0  0
   -1.4091    0.1014    0.9597 H   0  0  0  0  0  0  0  0  0  0  0  0
   -1.2530   -1.3502   -0.0120 H   0  0  0  0  0  0  0  0  0  0  0  0
   -1.3893   -1.4863    1.7567 H   0  0  0  0  0  0  0  0  0  0  0  0
    2.7560   -4.2207   -0.1563 H   0  0  0  0  0  0  0  0  0  0  0  0
    4.2330   -3.8400    0.7560 H   0  0  0  0  0  0  0  0  0  0  0  0
    2.7999   -4.3823    1.6147 H   0  0  0  0  0  0  0  0  0  0  0  0
  1  3  1  0  0  0  0
  1  9  1  0  0  0  0
  2  5  1  0  0  0  0
  2 10  1  0  0  0  0
  3  4  1  0  0  0  0
  3  6  1  0  0  0  0
  3  7  1  0  0  0  0
  4  5  1  0  0  0  0
  4 11  1  0  0  0  0
  4 12  1  0  0  0  0
  5  8  1  0  0  0  0
  5 13  1  0  0  0  0
  6 14  1  0  0  0  0
  6 15  1  0  0  0  0
  6 16  1  0  0  0  0
  7 17  1  0  0  0  0
  7 18  1  0  0  0  0
  7 19  1  0  0  0  0
  8 20  1  0  0  0  0
  8 21  1  0  0  0  0
  8 22  1  0  0  0  0
M  END
>  <Mol_ID>
5669

>  <Formula>
C6H14O2

>  <MolWeight>
118.17416

>  <Cat>
S3588

>  <Name>
Hexylene glycol

>  <Synonyms>
HG, 2-Methyl-2,4-pentanediol, MPD

>  <Target>
Fungal

>  <Form>
Free Base

>  <CAS>
107-41-5

>  <URL>
http://www.selleckchem.com/products/hexylene-glycol.html

$$$$
