Hexythiazox
 OpenBabel08302521353D

 44 46  0  0  0  0  0  0  0  0999 V2000
    3.1451    0.1108    1.4066 C   0  0  0  0  0  0  0  0  0  0  0  0
    2.7550   -2.5992   -0.0979 C   0  0  0  0  0  0  0  0  0  0  0  0
    3.4032   -3.7046   -0.5844 N   0  0  0  0  0  0  0  0  0  0  0  0
    1.8684   -2.6829    0.7500 O   0  0  0  0  0  0  0  0  0  0  0  0
    4.7840   -2.0877   -2.1518 O   0  0  0  0  0  0  0  0  0  0  0  0
    3.0823    1.0414   -0.9384 C   0  0  1  0  0  0  0  0  0  0  0  0
    2.6605   -0.1336   -0.0336 C   0  0  1  0  0  0  0  0  0  0  0  0
    4.6371    0.4776   -1.6931 S   0  0  0  0  0  0  0  0  0  0  0  0
    3.2031   -1.3760   -0.5872 N   0  0  0  0  0  0  0  0  0  0  0  0
    4.2280   -1.2132   -1.5026 C   0  0  0  0  0  0  0  0  0  0  0  0
    2.1058    1.4818   -2.0118 C   0  0  0  0  0  0  0  0  0  0  0  0
    2.1098    2.8324   -2.4127 C   0  0  0  0  0  0  0  0  0  0  0  0
    1.2312    0.6001   -2.6662 C   0  0  0  0  0  0  0  0  0  0  0  0
    1.2605    3.2894   -3.4212 C   0  0  0  0  0  0  0  0  0  0  0  0
    0.3816    1.0593   -3.6753 C   0  0  0  0  0  0  0  0  0  0  0  0
    0.3942    2.4012   -4.0522 C   0  0  0  0  0  0  0  0  0  0  0  0
    3.1205   -5.0650   -0.1506 C   0  0  0  0  0  0  0  0  0  0  0  0
    4.3540   -5.9504   -0.3742 C   0  0  0  0  0  0  0  0  0  0  0  0
    1.9005   -5.6438   -0.8775 C   0  0  0  0  0  0  0  0  0  0  0  0
    4.0958   -7.3978    0.0353 C   0  0  0  0  0  0  0  0  0  0  0  0
    1.6402   -7.0928   -0.4698 C   0  0  0  0  0  0  0  0  0  0  0  0
    2.8720   -7.9718   -0.6719 C   0  0  0  0  0  0  0  0  0  0  0  0
    2.6771    1.0136    1.8153 H   0  0  0  0  0  0  0  0  0  0  0  0
    2.8858   -0.7204    2.0691 H   0  0  0  0  0  0  0  0  0  0  0  0
    4.2315    0.2405    1.4528 H   0  0  0  0  0  0  0  0  0  0  0  0
    3.9824   -3.5788   -1.4129 H   0  0  0  0  0  0  0  0  0  0  0  0
    3.3022    1.9182   -0.3168 H   0  0  0  0  0  0  0  0  0  0  0  0
    1.5676   -0.2233    0.0140 H   0  0  0  0  0  0  0  0  0  0  0  0
    2.7917    3.5422   -1.9478 H   0  0  0  0  0  0  0  0  0  0  0  0
    1.2008   -0.4566   -2.4153 H   0  0  0  0  0  0  0  0  0  0  0  0
    1.2821    4.3329   -3.7194 H   0  0  0  0  0  0  0  0  0  0  0  0
   -0.2894    0.3648   -4.1782 H   0  0  0  0  0  0  0  0  0  0  0  0
   -0.2637    2.7520   -4.8432 H   0  0  0  0  0  0  0  0  0  0  0  0
    2.9015   -5.0304    0.9248 H   0  0  0  0  0  0  0  0  0  0  0  0
    4.6469   -5.9209   -1.4321 H   0  0  0  0  0  0  0  0  0  0  0  0
    5.2058   -5.5558    0.1929 H   0  0  0  0  0  0  0  0  0  0  0  0
    1.0099   -5.0410   -0.6643 H   0  0  0  0  0  0  0  0  0  0  0  0
    2.0561   -5.5932   -1.9634 H   0  0  0  0  0  0  0  0  0  0  0  0
    4.9756   -8.0090   -0.1956 H   0  0  0  0  0  0  0  0  0  0  0  0
    3.9477   -7.4482    1.1211 H   0  0  0  0  0  0  0  0  0  0  0  0
    0.8034   -7.4958   -1.0517 H   0  0  0  0  0  0  0  0  0  0  0  0
    1.3401   -7.1260    0.5850 H   0  0  0  0  0  0  0  0  0  0  0  0
    3.0814   -8.0655   -1.7445 H   0  0  0  0  0  0  0  0  0  0  0  0
    2.6709   -8.9819   -0.2973 H   0  0  0  0  0  0  0  0  0  0  0  0
  1 23  1  0  0  0  0
  1 24  1  0  0  0  0
  1 25  1  0  0  0  0
  2  3  1  0  0  0  0
  2  4  2  0  0  0  0
  2  9  1  0  0  0  0
  3 17  1  0  0  0  0
  3 26  1  0  0  0  0
  5 10  2  0  0  0  0
  6  7  1  0  0  0  0
  6  8  1  0  0  0  0
  6 11  1  0  0  0  0
  6 27  1  1  0  0  0
  7  9  1  0  0  0  0
  7 28  1  1  0  0  0
  7  1  1  0  0  0  0
  8 10  1  0  0  0  0
  9 10  1  0  0  0  0
 11 12  2  0  0  0  0
 11 13  1  0  0  0  0
 12 14  1  0  0  0  0
 12 29  1  0  0  0  0
 13 15  2  0  0  0  0
 13 30  1  0  0  0  0
 14 16  2  0  0  0  0
 14 31  1  0  0  0  0
 15 16  1  0  0  0  0
 15 32  1  0  0  0  0
 16 33  1  0  0  0  0
 17 18  1  0  0  0  0
 17 19  1  0  0  0  0
 17 34  1  0  0  0  0
 18 20  1  0  0  0  0
 18 35  1  0  0  0  0
 18 36  1  0  0  0  0
 19 21  1  0  0  0  0
 19 37  1  0  0  0  0
 19 38  1  0  0  0  0
 20 22  1  0  0  0  0
 20 39  1  0  0  0  0
 20 40  1  0  0  0  0
 21 22  1  0  0  0  0
 21 41  1  0  0  0  0
 21 42  1  0  0  0  0
 22 43  1  0  0  0  0
 22 44  1  0  0  0  0
M  END
>  <Mol_ID>
7014

>  <Formula>
C17H21ClN2O2S

>  <MolWeight>
352.87884

>  <Cat>
E4464

>  <Name>
Hexythiazox

>  <Target>
Others

>  <Form>
free base

>  <CAS>
78587-05-0

>  <URL>
https://www.selleckchem.com/products/hexythiazox.html

$$$$
