HG-10-102-01
 OpenBabel08302521323D

 46 48  0  0  0  0  0  0  0  0999 V2000
    0.8935   -0.0212   -0.1166 N   0  0  0  0  0  0  0  0  0  0  0  0
    1.9501    0.2565    2.4412 O   0  0  0  0  0  0  0  0  0  0  0  0
    2.4463    0.4144    3.7709 C   0  0  0  0  0  0  0  0  0  0  0  0
   -1.9061   -2.0392    4.4259 C   0  0  0  0  0  0  0  0  0  0  0  0
   -1.2193   -2.5032    5.3365 O   0  0  0  0  0  0  0  0  0  0  0  0
   -2.7972    2.0460   -2.2598 N   0  0  0  0  0  0  0  0  0  0  0  0
   -3.3283    2.2898   -0.9273 C   0  0  0  0  0  0  0  0  0  0  0  0
    0.2290   -0.5598    1.0092 C   0  0  0  0  0  0  0  0  0  0  0  0
    0.7512   -0.4054    2.3115 C   0  0  0  0  0  0  0  0  0  0  0  0
   -0.9399   -1.3268    0.8383 C   0  0  0  0  0  0  0  0  0  0  0  0
    0.0223   -0.9000    3.4012 C   0  0  0  0  0  0  0  0  0  0  0  0
   -1.6288   -1.8579    1.9247 C   0  0  0  0  0  0  0  0  0  0  0  0
   -1.1852   -1.5842    3.2132 C   0  0  0  0  0  0  0  0  0  0  0  0
    0.2471    0.3769   -1.3022 C   0  0  0  0  0  0  0  0  0  0  0  0
   -0.9542    0.9714   -1.2105 N   0  0  0  0  0  0  0  0  0  0  0  0
    0.8588    0.1173   -2.4669 N   0  0  0  0  0  0  0  0  0  0  0  0
   -1.5902    1.3364   -2.3299 C   0  0  0  0  0  0  0  0  0  0  0  0
    0.1937    0.4850   -3.5782 C   0  0  0  0  0  0  0  0  0  0  0  0
   -1.0359    1.1004   -3.5676 C   0  0  0  0  0  0  0  0  0  0  0  0
   -3.2838   -1.8834    4.5339 N   0  0  0  0  0  0  0  0  0  0  0  0
   -4.2007   -1.2802    3.5573 C   0  0  0  0  0  0  0  0  0  0  0  0
   -3.9490   -2.3836    5.7396 C   0  0  0  0  0  0  0  0  0  0  0  0
   -5.1825   -0.3071    4.2196 C   0  0  0  0  0  0  0  0  0  0  0  0
   -4.8674   -1.3111    6.3272 C   0  0  0  0  0  0  0  0  0  0  0  0
   -5.8364   -0.8915    5.3532 O   0  0  0  0  0  0  0  0  0  0  0  0
    1.7319   -0.5322   -0.3661 H   0  0  0  0  0  0  0  0  0  0  0  0
    1.7635    1.0210    4.3776 H   0  0  0  0  0  0  0  0  0  0  0  0
    2.6306   -0.5576    4.2440 H   0  0  0  0  0  0  0  0  0  0  0  0
    3.4022    0.9435    3.7247 H   0  0  0  0  0  0  0  0  0  0  0  0
   -3.4874    1.6391   -2.8830 H   0  0  0  0  0  0  0  0  0  0  0  0
   -3.8248    3.2653   -0.9241 H   0  0  0  0  0  0  0  0  0  0  0  0
   -4.0755    1.5320   -0.6696 H   0  0  0  0  0  0  0  0  0  0  0  0
   -2.5731    2.3224   -0.1348 H   0  0  0  0  0  0  0  0  0  0  0  0
   -1.3307   -1.5096   -0.1607 H   0  0  0  0  0  0  0  0  0  0  0  0
    0.3637   -0.7656    4.4229 H   0  0  0  0  0  0  0  0  0  0  0  0
   -2.5150   -2.4588    1.7488 H   0  0  0  0  0  0  0  0  0  0  0  0
    0.7025    0.2716   -4.5128 H   0  0  0  0  0  0  0  0  0  0  0  0
   -1.5202    1.4053   -4.4844 H   0  0  0  0  0  0  0  0  0  0  0  0
   -4.7520   -2.1121    3.1034 H   0  0  0  0  0  0  0  0  0  0  0  0
   -3.6724   -0.7400    2.7725 H   0  0  0  0  0  0  0  0  0  0  0  0
   -4.5388   -3.2543    5.4302 H   0  0  0  0  0  0  0  0  0  0  0  0
   -3.2288   -2.7123    6.4944 H   0  0  0  0  0  0  0  0  0  0  0  0
   -4.6658    0.6058    4.5386 H   0  0  0  0  0  0  0  0  0  0  0  0
   -5.9550   -0.0176    3.4997 H   0  0  0  0  0  0  0  0  0  0  0  0
   -5.4095   -1.7088    7.1893 H   0  0  0  0  0  0  0  0  0  0  0  0
   -4.2931   -0.4376    6.6606 H   0  0  0  0  0  0  0  0  0  0  0  0
  1  8  1  0  0  0  0
  1 14  1  0  0  0  0
  1 26  1  0  0  0  0
  2  3  1  0  0  0  0
  2  9  1  0  0  0  0
  3 27  1  0  0  0  0
  3 28  1  0  0  0  0
  3 29  1  0  0  0  0
  4  5  2  0  0  0  0
  4 13  1  0  0  0  0
  4 20  1  0  0  0  0
  6  7  1  0  0  0  0
  6 17  1  0  0  0  0
  6 30  1  0  0  0  0
  7 31  1  0  0  0  0
  7 32  1  0  0  0  0
  7 33  1  0  0  0  0
  8  9  2  0  0  0  0
  8 10  1  0  0  0  0
  9 11  1  0  0  0  0
 10 12  2  0  0  0  0
 10 34  1  0  0  0  0
 11 13  2  0  0  0  0
 11 35  1  0  0  0  0
 12 13  1  0  0  0  0
 12 36  1  0  0  0  0
 14 15  2  0  0  0  0
 14 16  1  0  0  0  0
 15 17  1  0  0  0  0
 16 18  2  0  0  0  0
 17 19  2  0  0  0  0
 18 19  1  0  0  0  0
 18 37  1  0  0  0  0
 19 38  1  0  0  0  0
 20 21  1  0  0  0  0
 20 22  1  0  0  0  0
 21 23  1  0  0  0  0
 21 39  1  0  0  0  0
 21 40  1  0  0  0  0
 22 24  1  0  0  0  0
 22 41  1  0  0  0  0
 22 42  1  0  0  0  0
 23 25  1  0  0  0  0
 23 43  1  0  0  0  0
 23 44  1  0  0  0  0
 24 25  1  0  0  0  0
 24 45  1  0  0  0  0
 24 46  1  0  0  0  0
M  END
>  <Mol_ID>
6209

>  <Formula>
C17H20ClN5O3

>  <MolWeight>
377.8254

>  <Cat>
S2948

>  <Name>
HG-10-102-01

>  <Synonyms>
N/A

>  <Target>
LRRK2

>  <Form>
free base

>  <CAS>
1351758-81-0

>  <URL>
http://www.selleckchem.com/products/hg-10-102-01.html

$$$$
