HG106
 OpenBabel08302521333D

 35 37  0  0  0  0  0  0  0  0999 V2000
    1.8659   -0.0444   -0.2087 C   0  0  0  0  0  0  0  0  0  0  0  0
    1.1468   -1.2123    0.0279 C   0  0  0  0  0  0  0  0  0  0  0  0
   -0.2429   -1.1129    0.2560 C   0  0  0  0  0  0  0  0  0  0  0  0
   -0.9045    0.1073    0.2758 C   0  0  0  0  0  0  0  0  0  0  0  0
   -0.1914    1.2783    0.0752 C   0  0  0  0  0  0  0  0  0  0  0  0
    1.1887    1.1951   -0.1810 C   0  0  0  0  0  0  0  0  0  0  0  0
   -0.7300    2.5376    0.1121 O   0  0  0  0  0  0  0  0  0  0  0  0
   -2.1169    2.6317    0.4399 C   0  0  0  0  0  0  0  0  0  0  0  0
    1.7211   -2.5200    0.0406 N   0  0  0  0  0  0  0  0  0  0  0  0
    3.0324   -2.8408   -0.1751 N   0  0  0  0  0  0  0  0  0  0  0  0
    3.0187   -4.2013   -0.1615 C   0  0  0  0  0  0  0  0  0  0  0  0
    1.6441   -4.6177    0.0993 C   0  0  0  0  0  0  0  0  0  0  0  0
    0.8846   -3.5482    0.2699 N   0  0  0  0  0  0  0  0  0  0  0  0
    4.0427   -5.1775   -0.3564 C   0  0  0  0  0  0  0  0  0  0  0  0
    3.5887   -6.5263   -0.3121 C   0  0  0  0  0  0  0  0  0  0  0  0
    2.2240   -6.8688   -0.0740 C   0  0  0  0  0  0  0  0  0  0  0  0
    1.2133   -5.9399    0.1534 C   0  0  0  0  0  0  0  0  0  0  0  0
    4.3885   -7.6759   -0.4964 N   0  0  0  0  0  0  0  0  0  0  0  0
    5.7423   -7.7912   -0.7337 C   0  0  0  0  0  0  0  0  0  0  0  0
    6.1639   -9.2415   -0.8768 C   0  0  0  0  0  0  0  0  0  0  0  0
    6.5396   -6.8699   -0.8134 O   0  0  0  0  0  0  0  0  0  0  0  0
    2.9338   -0.0639   -0.4102 H   0  0  0  0  0  0  0  0  0  0  0  0
   -0.8460   -2.0059    0.4327 H   0  0  0  0  0  0  0  0  0  0  0  0
   -1.9757    0.0970    0.4536 H   0  0  0  0  0  0  0  0  0  0  0  0
    1.7421    2.1156   -0.3626 H   0  0  0  0  0  0  0  0  0  0  0  0
   -2.7356    2.2704   -0.3891 H   0  0  0  0  0  0  0  0  0  0  0  0
   -2.3594    2.1001    1.3675 H   0  0  0  0  0  0  0  0  0  0  0  0
   -2.3571    3.6865    0.6039 H   0  0  0  0  0  0  0  0  0  0  0  0
    5.0725   -4.8967   -0.5337 H   0  0  0  0  0  0  0  0  0  0  0  0
    1.9209   -7.9151   -0.0642 H   0  0  0  0  0  0  0  0  0  0  0  0
    0.1828   -6.2088    0.3372 H   0  0  0  0  0  0  0  0  0  0  0  0
    3.8908   -8.5537   -0.4356 H   0  0  0  0  0  0  0  0  0  0  0  0
    6.7322   -9.3670   -1.8019 H   0  0  0  0  0  0  0  0  0  0  0  0
    6.7757   -9.5313   -0.0184 H   0  0  0  0  0  0  0  0  0  0  0  0
    5.3067   -9.9234   -0.9248 H   0  0  0  0  0  0  0  0  0  0  0  0
  1  2  2  0  0  0  0
  1 22  1  0  0  0  0
  2  3  1  0  0  0  0
  2  9  1  0  0  0  0
  3  4  2  0  0  0  0
  3 23  1  0  0  0  0
  4  5  1  0  0  0  0
  4 24  1  0  0  0  0
  5  6  2  0  0  0  0
  5  7  1  0  0  0  0
  6  1  1  0  0  0  0
  6 25  1  0  0  0  0
  7  8  1  0  0  0  0
  8 26  1  0  0  0  0
  8 27  1  0  0  0  0
  8 28  1  0  0  0  0
  9 10  1  0  0  0  0
 10 11  2  0  0  0  0
 11 12  1  0  0  0  0
 11 14  1  0  0  0  0
 12 13  2  0  0  0  0
 13  9  1  0  0  0  0
 14 15  2  0  0  0  0
 14 29  1  0  0  0  0
 15 16  1  0  0  0  0
 15 18  1  0  0  0  0
 16 17  2  0  0  0  0
 16 30  1  0  0  0  0
 17 12  1  0  0  0  0
 17 31  1  0  0  0  0
 18 19  1  0  0  0  0
 18 32  1  0  0  0  0
 19 20  1  0  0  0  0
 19 21  2  0  0  0  0
 20 33  1  0  0  0  0
 20 34  1  0  0  0  0
 20 35  1  0  0  0  0
M  END
>  <Mol_ID>
6394

>  <Formula>
C15H13ClN4O2

>  <MolWeight>
316.74232

>  <Cat>
E1080

>  <Name>
HG106

>  <Target>
Others

>  <Form>
free base

>  <CAS>
928712-10-1

>  <URL>
http://www.selleckchem.com/products/hg106.html

$$$$
