Hispidulin
 OpenBabel08302521253D

 34 36  0  0  0  0  0  0  0  0999 V2000
   -1.1076    1.0084   -0.6006 C   0  0  0  0  0  0  0  0  0  0  0  0
   -1.9208   -0.0872   -0.2534 C   0  0  0  0  0  0  0  0  0  0  0  0
   -1.3036   -1.1966    0.3475 C   0  0  0  0  0  0  0  0  0  0  0  0
    0.0839   -1.2352    0.5395 C   0  0  0  0  0  0  0  0  0  0  0  0
    0.8630   -0.1565    0.1376 C   0  0  0  0  0  0  0  0  0  0  0  0
    0.2760    0.9716   -0.4149 C   0  0  0  0  0  0  0  0  0  0  0  0
    2.2194   -0.1661    0.2654 O   0  0  0  0  0  0  0  0  0  0  0  0
   -3.3819   -0.0734   -0.5095 C   0  0  0  0  0  0  0  0  0  0  0  0
   -3.9000    0.6176   -1.5313 C   0  0  0  0  0  0  0  0  0  0  0  0
   -5.3590    0.6452   -1.7430 C   0  0  0  0  0  0  0  0  0  0  0  0
   -6.1742   -0.1433   -0.8035 C   0  0  0  0  0  0  0  0  0  0  0  0
   -5.5095   -0.8791    0.1781 C   0  0  0  0  0  0  0  0  0  0  0  0
   -4.1450   -0.8476    0.3544 O   0  0  0  0  0  0  0  0  0  0  0  0
   -7.5714   -0.2145   -0.8836 C   0  0  0  0  0  0  0  0  0  0  0  0
   -8.3099   -1.0488   -0.0265 C   0  0  0  0  0  0  0  0  0  0  0  0
   -7.6217   -1.8086    0.9213 C   0  0  0  0  0  0  0  0  0  0  0  0
   -6.2319   -1.7091    1.0385 C   0  0  0  0  0  0  0  0  0  0  0  0
   -8.2221   -2.7157    1.7438 O   0  0  0  0  0  0  0  0  0  0  0  0
   -9.6553   -1.0973   -0.2931 O   0  0  0  0  0  0  0  0  0  0  0  0
  -10.5435   -1.1335    0.8190 C   0  0  0  0  0  0  0  0  0  0  0  0
   -8.2641    0.5429   -1.7941 O   0  0  0  0  0  0  0  0  0  0  0  0
   -5.8005    1.2967   -2.6768 O   0  0  0  0  0  0  0  0  0  0  0  0
   -1.5354    1.9135   -1.0255 H   0  0  0  0  0  0  0  0  0  0  0  0
   -1.8952   -2.0549    0.6594 H   0  0  0  0  0  0  0  0  0  0  0  0
    0.5328   -2.1117    0.9960 H   0  0  0  0  0  0  0  0  0  0  0  0
    0.8901    1.8170   -0.7113 H   0  0  0  0  0  0  0  0  0  0  0  0
    2.4977   -1.0495    0.5571 H   0  0  0  0  0  0  0  0  0  0  0  0
   -3.3173    1.1840   -2.2470 H   0  0  0  0  0  0  0  0  0  0  0  0
   -5.7090   -2.3124    1.7761 H   0  0  0  0  0  0  0  0  0  0  0  0
   -9.0018   -3.0609    1.2801 H   0  0  0  0  0  0  0  0  0  0  0  0
  -10.7638   -2.1686    1.0926 H   0  0  0  0  0  0  0  0  0  0  0  0
  -10.1754   -0.5637    1.6771 H   0  0  0  0  0  0  0  0  0  0  0  0
  -11.4907   -0.6894    0.4950 H   0  0  0  0  0  0  0  0  0  0  0  0
   -9.2105    0.3496   -1.6624 H   0  0  0  0  0  0  0  0  0  0  0  0
  1  2  2  0  0  0  0
  1 23  1  0  0  0  0
  2  3  1  0  0  0  0
  2  8  1  0  0  0  0
  3  4  2  0  0  0  0
  3 24  1  0  0  0  0
  4  5  1  0  0  0  0
  4 25  1  0  0  0  0
  5  6  2  0  0  0  0
  5  7  1  0  0  0  0
  6  1  1  0  0  0  0
  6 26  1  0  0  0  0
  7 27  1  0  0  0  0
  8  9  2  0  0  0  0
  9 10  1  0  0  0  0
  9 28  1  0  0  0  0
 10 11  1  0  0  0  0
 10 22  2  0  0  0  0
 11 12  2  0  0  0  0
 11 14  1  0  0  0  0
 12 13  1  0  0  0  0
 13  8  1  0  0  0  0
 14 15  2  0  0  0  0
 14 21  1  0  0  0  0
 15 16  1  0  0  0  0
 15 19  1  0  0  0  0
 16 17  2  0  0  0  0
 16 18  1  0  0  0  0
 17 12  1  0  0  0  0
 17 29  1  0  0  0  0
 18 30  1  0  0  0  0
 19 20  1  0  0  0  0
 20 31  1  0  0  0  0
 20 32  1  0  0  0  0
 20 33  1  0  0  0  0
 21 34  1  0  0  0  0
M  END
>  <Mol_ID>
5167

>  <Formula>
C16H12O6

>  <MolWeight>
300.26288

>  <Cat>
S3296

>  <Name>
Hispidulin

>  <Synonyms>
Dinatin

>  <Target>
Akt,AMPK,Apoptosis related,Mitochondrial Metabolism,PI3K,Pim

>  <Form>
free base

>  <CAS>
1447-88-7

>  <URL>
http://www.selleckchem.com/products/hispidulin.html

$$$$
