Histamine dihydrochloride.cdx
 OpenBabel08302522043D

 17 17  0  0  0  0  0  0  0  0999 V2000
   -0.3100   -1.0760    0.0186 C   0  0  0  0  0  0  0  0  0  0  0  0
   -0.8524   -2.4654   -0.0183 C   0  0  0  0  0  0  0  0  0  0  0  0
    0.5342   -0.4958    0.9417 C   0  0  0  0  0  0  0  0  0  0  0  0
   -0.6514   -0.1587   -0.9492 N   0  0  0  0  0  0  0  0  0  0  0  0
   -0.4329   -3.2194   -1.2843 C   0  0  0  0  0  0  0  0  0  0  0  0
    0.7040    0.7937    0.5166 N   0  0  0  0  0  0  0  0  0  0  0  0
   -0.0326    0.9511   -0.6212 C   0  0  0  0  0  0  0  0  0  0  0  0
   -0.9349   -4.5982   -1.2943 N   0  0  0  0  0  0  0  0  0  0  0  0
   -0.5096   -3.0132    0.8689 H   0  0  0  0  0  0  0  0  0  0  0  0
   -1.9466   -2.4173    0.0415 H   0  0  0  0  0  0  0  0  0  0  0  0
    1.0064   -0.8730    1.8377 H   0  0  0  0  0  0  0  0  0  0  0  0
   -0.8149   -2.7029   -2.1720 H   0  0  0  0  0  0  0  0  0  0  0  0
    0.6601   -3.2406   -1.3688 H   0  0  0  0  0  0  0  0  0  0  0  0
    1.2642    1.5067    0.9622 H   0  0  0  0  0  0  0  0  0  0  0  0
   -0.0826    1.8882   -1.1600 H   0  0  0  0  0  0  0  0  0  0  0  0
   -0.6600   -5.0405   -2.1710 H   0  0  0  0  0  0  0  0  0  0  0  0
   -0.4858   -5.1314   -0.5522 H   0  0  0  0  0  0  0  0  0  0  0  0
  1  2  1  0  0  0  0
  1  3  2  0  0  0  0
  1  4  1  0  0  0  0
  2  5  1  0  0  0  0
  2  9  1  0  0  0  0
  2 10  1  0  0  0  0
  3  6  1  0  0  0  0
  3 11  1  0  0  0  0
  4  7  2  0  0  0  0
  5  8  1  0  0  0  0
  5 12  1  0  0  0  0
  5 13  1  0  0  0  0
  6  7  1  0  0  0  0
  6 14  1  0  0  0  0
  7 15  1  0  0  0  0
  8 16  1  0  0  0  0
  8 17  1  0  0  0  0
M  END
>  <Mol_ID>
1252

>  <Formula>
C5H11Cl2N3

>  <MolWeight>
184.06694

>  <Cat>
S4118

>  <Name>
Histamine 2HCl

>  <Synonyms>
Ceplene

>  <Target>
Histamine Receptor

>  <Form>
Dihydrochloride

>  <CAS>
56-92-8

>  <URL>
http://selleckchem.com/products/histamine-2hcl.html

$$$$
