HIVID (zalcitabine).cdx
 OpenBabel08302520433D

 28 29  0  0  0  0  0  0  0  0999 V2000
    0.2780   -1.1478    0.1270 C   0  0  2  0  0  0  0  0  0  0  0  0
   -1.1284   -0.7001   -0.2179 C   0  0  0  0  0  0  0  0  0  0  0  0
   -1.1011    0.7473    0.1997 C   0  0  0  0  0  0  0  0  0  0  0  0
    0.3060    1.1815   -0.2121 C   0  0  1  0  0  0  0  0  0  0  0  0
    1.1338    0.0096   -0.0192 O   0  0  0  0  0  0  0  0  0  0  0  0
    0.7690   -2.2796   -0.7753 C   0  0  0  0  0  0  0  0  0  0  0  0
    0.4012    1.6453   -1.5971 N   0  0  0  0  0  0  0  0  0  0  0  0
    2.0962   -2.6606   -0.4218 O   0  0  0  0  0  0  0  0  0  0  0  0
   -0.3169    2.7971   -1.9449 C   0  0  0  0  0  0  0  0  0  0  0  0
   -0.2950    3.2150   -3.2552 N   0  0  0  0  0  0  0  0  0  0  0  0
    0.4545    2.6021   -4.1167 C   0  0  0  0  0  0  0  0  0  0  0  0
    1.3312    1.4736   -3.7656 C   0  0  0  0  0  0  0  0  0  0  0  0
    1.2547    1.0520   -2.5042 C   0  0  0  0  0  0  0  0  0  0  0  0
   -0.9602    3.4200   -1.1016 O   0  0  0  0  0  0  0  0  0  0  0  0
    0.4218    3.0499   -5.4063 N   0  0  0  0  0  0  0  0  0  0  0  0
    0.3498   -1.4475    1.1792 H   0  0  0  0  0  0  0  0  0  0  0  0
   -1.3140   -0.7672   -1.2970 H   0  0  0  0  0  0  0  0  0  0  0  0
   -1.8972   -1.2840    0.2944 H   0  0  0  0  0  0  0  0  0  0  0  0
   -1.9193    1.3216   -0.2397 H   0  0  0  0  0  0  0  0  0  0  0  0
   -1.1960    0.8071    1.2913 H   0  0  0  0  0  0  0  0  0  0  0  0
    0.6778    1.9822    0.4362 H   0  0  0  0  0  0  0  0  0  0  0  0
    0.1235   -3.1588   -0.6861 H   0  0  0  0  0  0  0  0  0  0  0  0
    0.7914   -1.9695   -1.8247 H   0  0  0  0  0  0  0  0  0  0  0  0
    2.6167   -1.8366   -0.3987 H   0  0  0  0  0  0  0  0  0  0  0  0
    1.9793    1.0255   -4.5034 H   0  0  0  0  0  0  0  0  0  0  0  0
    1.8762    0.2306   -2.1671 H   0  0  0  0  0  0  0  0  0  0  0  0
    1.2574    2.9358   -5.9661 H   0  0  0  0  0  0  0  0  0  0  0  0
   -0.0017    3.9697   -5.4879 H   0  0  0  0  0  0  0  0  0  0  0  0
  1  2  1  0  0  0  0
  1 16  1  1  0  0  0
  1  6  1  0  0  0  0
  2  3  1  0  0  0  0
  2 17  1  0  0  0  0
  2 18  1  0  0  0  0
  3 19  1  0  0  0  0
  3 20  1  0  0  0  0
  4  3  1  0  0  0  0
  4  5  1  0  0  0  0
  4  7  1  0  0  0  0
  4 21  1  1  0  0  0
  5  1  1  0  0  0  0
  6  8  1  0  0  0  0
  6 22  1  0  0  0  0
  6 23  1  0  0  0  0
  7  9  1  0  0  0  0
  8 24  1  0  0  0  0
  9 10  1  0  0  0  0
  9 14  2  0  0  0  0
 10 11  2  0  0  0  0
 11 12  1  0  0  0  0
 11 15  1  0  0  0  0
 12 13  2  0  0  0  0
 12 25  1  0  0  0  0
 13  7  1  0  0  0  0
 13 26  1  0  0  0  0
 15 27  1  0  0  0  0
 15 28  1  0  0  0  0
M  END
>  <Mol_ID>
411

>  <Formula>
C9H13N3O3

>  <MolWeight>
211.21782

>  <Cat>
S1719

>  <Name>
Zalcitabine

>  <Synonyms>
NSC 606170, Ro 24-2027/000

>  <Target>
Reverse Transcriptase

>  <Form>
free base

>  <CAS>
7481-89-2

>  <URL>
http://selleckchem.com/products/Zalcitabine.html

$$$$
