HJC0152.cdx
 OpenBabel08302520433D

 37 38  0  0  0  0  0  0  0  0999 V2000
    1.2825   -0.2622   -0.3832 C   0  0  0  0  0  0  0  0  0  0  0  0
    0.3861   -1.3357   -0.3551 C   0  0  0  0  0  0  0  0  0  0  0  0
   -0.9596   -1.1112   -0.1131 C   0  0  0  0  0  0  0  0  0  0  0  0
   -1.4040    0.1886    0.1126 C   0  0  0  0  0  0  0  0  0  0  0  0
   -0.5153    1.2852    0.0930 C   0  0  0  0  0  0  0  0  0  0  0  0
    0.8467    1.0589   -0.1877 C   0  0  0  0  0  0  0  0  0  0  0  0
    1.7076    2.1296   -0.1897 O   0  0  0  0  0  0  0  0  0  0  0  0
    2.8736    2.0480   -1.0268 C   0  0  0  0  0  0  0  0  0  0  0  0
    4.1595    2.1587   -0.1926 C   0  0  0  0  0  0  0  0  0  0  0  0
    4.3326    1.0552    0.7528 N   0  0  0  0  0  0  0  0  0  0  0  0
   -1.1408    2.6146    0.3983 C   0  0  0  0  0  0  0  0  0  0  0  0
   -0.3415    3.7431    0.3335 N   0  0  0  0  0  0  0  0  0  0  0  0
   -2.3401    2.6310    0.6633 O   0  0  0  0  0  0  0  0  0  0  0  0
   -0.7511    5.0606    0.6334 C   0  0  0  0  0  0  0  0  0  0  0  0
   -1.9269    5.3513    1.3371 C   0  0  0  0  0  0  0  0  0  0  0  0
   -2.3186    6.6705    1.5791 C   0  0  0  0  0  0  0  0  0  0  0  0
   -1.5236    7.7175    1.1112 C   0  0  0  0  0  0  0  0  0  0  0  0
   -0.3280    7.4488    0.4316 C   0  0  0  0  0  0  0  0  0  0  0  0
    0.0600    6.1198    0.2077 C   0  0  0  0  0  0  0  0  0  0  0  0
   -1.9529    9.1042    1.3298 N   0  3  0  0  0  0  0  0  0  0  0  0
   -3.0094    9.2919    1.9509 O   0  0  0  0  0  0  0  0  0  0  0  0
   -1.2334   10.0067    0.8795 O   0  5  0  0  0  0  0  0  0  0  0  0
    2.3326   -0.4985   -0.5349 H   0  0  0  0  0  0  0  0  0  0  0  0
    0.7452   -2.3500   -0.5097 H   0  0  0  0  0  0  0  0  0  0  0  0
   -1.6648   -1.9374   -0.0808 H   0  0  0  0  0  0  0  0  0  0  0  0
   -2.4637    0.3434    0.3170 H   0  0  0  0  0  0  0  0  0  0  0  0
    2.8956    1.1755   -1.6885 H   0  0  0  0  0  0  0  0  0  0  0  0
    2.8292    2.9193   -1.6910 H   0  0  0  0  0  0  0  0  0  0  0  0
    5.0221    2.1786   -0.8672 H   0  0  0  0  0  0  0  0  0  0  0  0
    4.1516    3.0980    0.3710 H   0  0  0  0  0  0  0  0  0  0  0  0
    5.1936    1.1971    1.2822 H   0  0  0  0  0  0  0  0  0  0  0  0
    3.5766    1.0921    1.4401 H   0  0  0  0  0  0  0  0  0  0  0  0
    0.5956    3.6084   -0.0309 H   0  0  0  0  0  0  0  0  0  0  0  0
   -2.5614    4.5628    1.7332 H   0  0  0  0  0  0  0  0  0  0  0  0
   -3.2431    6.8510    2.1231 H   0  0  0  0  0  0  0  0  0  0  0  0
    0.3018    8.2558    0.0631 H   0  0  0  0  0  0  0  0  0  0  0  0
    0.9828    5.9283   -0.3342 H   0  0  0  0  0  0  0  0  0  0  0  0
  1  2  2  0  0  0  0
  1 23  1  0  0  0  0
  2  3  1  0  0  0  0
  2 24  1  0  0  0  0
  3  4  2  0  0  0  0
  3 25  1  0  0  0  0
  4  5  1  0  0  0  0
  4 26  1  0  0  0  0
  5  6  2  0  0  0  0
  5 11  1  0  0  0  0
  6  1  1  0  0  0  0
  6  7  1  0  0  0  0
  7  8  1  0  0  0  0
  8  9  1  0  0  0  0
  8 27  1  0  0  0  0
  8 28  1  0  0  0  0
  9 10  1  0  0  0  0
  9 29  1  0  0  0  0
  9 30  1  0  0  0  0
 10 31  1  0  0  0  0
 10 32  1  0  0  0  0
 11 12  1  0  0  0  0
 11 13  2  0  0  0  0
 12 14  1  0  0  0  0
 12 33  1  0  0  0  0
 14 15  2  0  0  0  0
 15 16  1  0  0  0  0
 15 34  1  0  0  0  0
 16 17  2  0  0  0  0
 16 35  1  0  0  0  0
 17 18  1  0  0  0  0
 17 20  1  0  0  0  0
 18 19  2  0  0  0  0
 18 36  1  0  0  0  0
 19 14  1  0  0  0  0
 19 37  1  0  0  0  0
 20 21  2  0  0  0  0
 20 22  1  0  0  0  0
M  CHG  2  20   1  22  -1
M  END
>  <Mol_ID>
4149

>  <Formula>
C15H14Cl3N3O4

>  <MolWeight>
406.64836

>  <Cat>
S8561

>  <Name>
HJC0152

>  <Synonyms>
N/A

>  <Target>
STAT

>  <Form>
hydrochloride

>  <CAS>
1420290-99-8

>  <URL>
http://selleckchem.com/products/hjc0152.html

$$$$
