HLY78
 OpenBabel08302521323D

 37 40  0  0  0  0  0  0  0  0999 V2000
    1.5179   -1.4676    0.0269 C   0  0  0  0  0  0  0  0  0  0  0  0
    2.8971   -1.4113   -0.0090 C   0  0  0  0  0  0  0  0  0  0  0  0
    3.5034   -0.1771   -0.0428 C   0  0  0  0  0  0  0  0  0  0  0  0
    2.7571    1.0324   -0.0226 C   0  0  0  0  0  0  0  0  0  0  0  0
    1.3284    1.0080    0.0764 C   0  0  0  0  0  0  0  0  0  0  0  0
    0.5152    2.1338    0.2316 N   0  0  0  0  0  0  0  0  0  0  0  0
   -0.9435    2.0544    0.0918 C   0  0  0  0  0  0  0  0  0  0  0  0
   -1.5705    0.7009    0.0981 C   0  0  0  0  0  0  0  0  0  0  0  0
   -2.9786    0.6336    0.0854 C   0  0  0  0  0  0  0  0  0  0  0  0
   -3.5740   -0.5988    0.0148 C   0  0  0  0  0  0  0  0  0  0  0  0
   -2.8202   -1.7374   -0.0286 C   0  0  0  0  0  0  0  0  0  0  0  0
   -1.4415   -1.7024    0.0036 C   0  0  0  0  0  0  0  0  0  0  0  0
   -0.7681   -0.4572    0.0654 C   0  0  0  0  0  0  0  0  0  0  0  0
    0.7110   -0.3012    0.0575 C   0  0  0  0  0  0  0  0  0  0  0  0
   -3.5868   -2.8601   -0.1264 O   0  0  0  0  0  0  0  0  0  0  0  0
   -4.9021   -2.2761   -0.2249 C   0  0  0  0  0  0  0  0  0  0  0  0
   -4.9071   -0.8439   -0.0472 O   0  0  0  0  0  0  0  0  0  0  0  0
    0.9253    3.5311    0.3110 C   0  0  0  0  0  0  0  0  0  0  0  0
    3.6557    2.2494   -0.1396 C   0  0  0  0  0  0  0  0  0  0  0  0
    4.2037    2.7161    1.2074 C   0  0  0  0  0  0  0  0  0  0  0  0
    1.0844   -2.4614    0.0368 H   0  0  0  0  0  0  0  0  0  0  0  0
    3.4880   -2.3231   -0.0245 H   0  0  0  0  0  0  0  0  0  0  0  0
    4.5916   -0.1483   -0.0915 H   0  0  0  0  0  0  0  0  0  0  0  0
   -1.3950    2.6183    0.9202 H   0  0  0  0  0  0  0  0  0  0  0  0
   -1.2292    2.5552   -0.8426 H   0  0  0  0  0  0  0  0  0  0  0  0
   -3.5875    1.5312    0.1041 H   0  0  0  0  0  0  0  0  0  0  0  0
   -0.9193   -2.6492   -0.0406 H   0  0  0  0  0  0  0  0  0  0  0  0
   -5.3112   -2.5024   -1.2166 H   0  0  0  0  0  0  0  0  0  0  0  0
   -5.5479   -2.7277    0.5355 H   0  0  0  0  0  0  0  0  0  0  0  0
    0.8232    4.0163   -0.6656 H   0  0  0  0  0  0  0  0  0  0  0  0
    0.2747    4.0679    1.0139 H   0  0  0  0  0  0  0  0  0  0  0  0
    1.9141    3.7152    0.6995 H   0  0  0  0  0  0  0  0  0  0  0  0
    4.5200    1.9827   -0.7663 H   0  0  0  0  0  0  0  0  0  0  0  0
    3.1863    3.0480   -0.7191 H   0  0  0  0  0  0  0  0  0  0  0  0
    4.6272    1.8847    1.7801 H   0  0  0  0  0  0  0  0  0  0  0  0
    4.9923    3.4589    1.0522 H   0  0  0  0  0  0  0  0  0  0  0  0
    3.4402    3.1720    1.8425 H   0  0  0  0  0  0  0  0  0  0  0  0
  1  2  2  0  0  0  0
  1 14  1  0  0  0  0
  1 21  1  0  0  0  0
  2  3  1  0  0  0  0
  2 22  1  0  0  0  0
  3  4  2  0  0  0  0
  3 23  1  0  0  0  0
  4  5  1  0  0  0  0
  4 19  1  0  0  0  0
  5  6  1  0  0  0  0
  5 14  2  0  0  0  0
  6  7  1  0  0  0  0
  6 18  1  0  0  0  0
  7  8  1  0  0  0  0
  7 24  1  0  0  0  0
  7 25  1  0  0  0  0
  8  9  1  0  0  0  0
  8 13  2  0  0  0  0
  9 10  2  0  0  0  0
  9 26  1  0  0  0  0
 10 11  1  0  0  0  0
 11 12  2  0  0  0  0
 12 13  1  0  0  0  0
 12 27  1  0  0  0  0
 13 14  1  0  0  0  0
 15 16  1  0  0  0  0
 15 11  1  0  0  0  0
 16 17  1  0  0  0  0
 16 28  1  0  0  0  0
 16 29  1  0  0  0  0
 17 10  1  0  0  0  0
 18 30  1  0  0  0  0
 18 31  1  0  0  0  0
 18 32  1  0  0  0  0
 19 20  1  0  0  0  0
 19 33  1  0  0  0  0
 19 34  1  0  0  0  0
 20 35  1  0  0  0  0
 20 36  1  0  0  0  0
 20 37  1  0  0  0  0
M  END
>  <Mol_ID>
6245

>  <Formula>
C17H17NO2

>  <MolWeight>
267.32238

>  <Cat>
S7274

>  <Name>
HLY78

>  <Target>
Apoptosis related

>  <Form>
free base

>  <CAS>
854847-61-3

>  <URL>
http://www.selleckchem.com/products/hly78.html

$$$$
