HMN-214.cdx
 OpenBabel08302520003D

 50 52  0  0  0  0  0  0  0  0999 V2000
    1.4643   -0.0370    0.0053 C   0  0  0  0  0  0  0  0  0  0  0  0
    0.5939   -1.1374    0.0791 C   0  0  0  0  0  0  0  0  0  0  0  0
   -0.7858   -0.9517    0.0688 C   0  0  0  0  0  0  0  0  0  0  0  0
   -1.2980    0.3390    0.0690 C   0  0  0  0  0  0  0  0  0  0  0  0
   -0.4375    1.4513    0.0451 C   0  0  0  0  0  0  0  0  0  0  0  0
    0.9603    1.2705   -0.0622 C   0  0  0  0  0  0  0  0  0  0  0  0
   -1.0895    2.7508    0.2058 C   0  0  0  0  0  0  0  0  0  0  0  0
   -1.4566    3.1628    1.4345 C   0  0  0  0  0  0  0  0  0  0  0  0
   -2.1063    4.4516    1.7170 C   0  0  0  0  0  0  0  0  0  0  0  0
   -2.9167    5.0895    0.7764 C   0  0  0  0  0  0  0  0  0  0  0  0
   -3.5042    6.3168    1.0794 C   0  0  0  0  0  0  0  0  0  0  0  0
   -3.3161    6.9260    2.3053 N   0  3  0  0  0  0  0  0  0  0  0  0
   -2.5191    6.2898    3.2382 C   0  0  0  0  0  0  0  0  0  0  0  0
   -1.9126    5.0619    2.9613 C   0  0  0  0  0  0  0  0  0  0  0  0
    1.8589    2.3823   -0.2943 N   0  0  0  0  0  0  0  0  0  0  0  0
    2.6548    3.0710    1.0399 S   0  0  0  0  0  0  0  0  0  0  0  0
    2.3785    2.6147   -1.6021 C   0  0  0  0  0  0  0  0  0  0  0  0
    1.6038    2.1815   -2.8142 C   0  0  0  0  0  0  0  0  0  0  0  0
    3.4104    3.2572   -1.7851 O   0  0  0  0  0  0  0  0  0  0  0  0
    2.4999    4.8214    0.6651 C   0  0  0  0  0  0  0  0  0  0  0  0
    1.8716    2.8519    2.2414 O   0  0  0  0  0  0  0  0  0  0  0  0
    4.0552    2.7129    1.0114 O   0  0  0  0  0  0  0  0  0  0  0  0
    1.2131    5.3481    0.6384 C   0  0  0  0  0  0  0  0  0  0  0  0
    0.9652    6.6776    0.3117 C   0  0  0  0  0  0  0  0  0  0  0  0
    2.0296    7.5142    0.0087 C   0  0  0  0  0  0  0  0  0  0  0  0
    3.3341    6.9939    0.0401 C   0  0  0  0  0  0  0  0  0  0  0  0
    3.5792    5.6459    0.3675 C   0  0  0  0  0  0  0  0  0  0  0  0
    1.9093    8.8357   -0.3344 O   0  0  0  0  0  0  0  0  0  0  0  0
    0.5949    9.3933   -0.2976 C   0  0  0  0  0  0  0  0  0  0  0  0
   -3.8555    8.0432    2.5590 O   0  5  0  0  0  0  0  0  0  0  0  0
    2.5363   -0.2206    0.0101 H   0  0  0  0  0  0  0  0  0  0  0  0
    0.9904   -2.1490    0.1402 H   0  0  0  0  0  0  0  0  0  0  0  0
   -1.4643   -1.8020    0.0914 H   0  0  0  0  0  0  0  0  0  0  0  0
   -2.3776    0.4809    0.1071 H   0  0  0  0  0  0  0  0  0  0  0  0
   -1.2613    3.3196   -0.7004 H   0  0  0  0  0  0  0  0  0  0  0  0
   -1.2057    2.5570    2.3070 H   0  0  0  0  0  0  0  0  0  0  0  0
   -3.1041    4.6494   -0.1985 H   0  0  0  0  0  0  0  0  0  0  0  0
   -4.1366    6.8794    0.4106 H   0  0  0  0  0  0  0  0  0  0  0  0
   -2.4219    6.8366    4.1640 H   0  0  0  0  0  0  0  0  0  0  0  0
   -1.2756    4.6081    3.7189 H   0  0  0  0  0  0  0  0  0  0  0  0
    1.2989    3.0882   -3.3485 H   0  0  0  0  0  0  0  0  0  0  0  0
    2.2680    1.6039   -3.4637 H   0  0  0  0  0  0  0  0  0  0  0  0
    0.7145    1.5970   -2.5957 H   0  0  0  0  0  0  0  0  0  0  0  0
    0.3841    4.7135    0.8785 H   0  0  0  0  0  0  0  0  0  0  0  0
   -0.0659    7.0139    0.2982 H   0  0  0  0  0  0  0  0  0  0  0  0
    4.1697    7.6466   -0.2028 H   0  0  0  0  0  0  0  0  0  0  0  0
    4.5950    5.2647    0.3629 H   0  0  0  0  0  0  0  0  0  0  0  0
   -0.0806    8.8739   -0.9864 H   0  0  0  0  0  0  0  0  0  0  0  0
    0.1929    9.3883    0.7216 H   0  0  0  0  0  0  0  0  0  0  0  0
    0.6586   10.4340   -0.6274 H   0  0  0  0  0  0  0  0  0  0  0  0
  1  2  2  0  0  0  0
  1 31  1  0  0  0  0
  2  3  1  0  0  0  0
  2 32  1  0  0  0  0
  3  4  2  0  0  0  0
  3 33  1  0  0  0  0
  4  5  1  0  0  0  0
  4 34  1  0  0  0  0
  5  6  2  0  0  0  0
  5  7  1  0  0  0  0
  6  1  1  0  0  0  0
  6 15  1  0  0  0  0
  7  8  2  0  0  0  0
  7 35  1  0  0  0  0
  8  9  1  0  0  0  0
  8 36  1  0  0  0  0
  9 10  2  0  0  0  0
 10 11  1  0  0  0  0
 10 37  1  0  0  0  0
 11 12  2  0  0  0  0
 11 38  1  0  0  0  0
 12 13  1  0  0  0  0
 12 30  1  0  0  0  0
 13 14  2  0  0  0  0
 13 39  1  0  0  0  0
 14  9  1  0  0  0  0
 14 40  1  0  0  0  0
 15 16  1  0  0  0  0
 15 17  1  0  0  0  0
 16 20  1  0  0  0  0
 16 21  2  0  0  0  0
 16 22  2  0  0  0  0
 17 18  1  0  0  0  0
 17 19  2  0  0  0  0
 18 41  1  0  0  0  0
 18 42  1  0  0  0  0
 18 43  1  0  0  0  0
 20 23  2  0  0  0  0
 23 24  1  0  0  0  0
 23 44  1  0  0  0  0
 24 25  2  0  0  0  0
 24 45  1  0  0  0  0
 25 26  1  0  0  0  0
 25 28  1  0  0  0  0
 26 27  2  0  0  0  0
 26 46  1  0  0  0  0
 27 20  1  0  0  0  0
 27 47  1  0  0  0  0
 28 29  1  0  0  0  0
 29 48  1  0  0  0  0
 29 49  1  0  0  0  0
 29 50  1  0  0  0  0
M  CHG  2  12   1  30  -1
M  END
>  <Mol_ID>
285

>  <Formula>
C22H20N2O5S

>  <MolWeight>
424.4696

>  <Cat>
S1485

>  <Name>
HMN-214

>  <Synonyms>
N/A

>  <Target>
PLK

>  <Form>
free base

>  <CAS>
173529-46-9

>  <URL>
http://selleckchem.com/products/HMN-214.html

$$$$
