Hodostin
 OpenBabel08302520403D

 44 43  0  0  0  0  0  0  0  0999 V2000
    1.4150   -0.5844   -0.7275 C   0  0  0  0  0  0  0  0  0  0  0  0
    0.3627   -1.4163   -0.3672 C   0  0  0  0  0  0  0  0  0  0  0  0
    1.1782    0.7318   -1.1188 C   0  0  0  0  0  0  0  0  0  0  0  0
    2.7768   -0.9777   -0.6690 O   0  0  0  0  0  0  0  0  0  0  0  0
   -0.9576   -0.9614   -0.4707 C   0  0  0  0  0  0  0  0  0  0  0  0
   -0.1227    1.2290   -1.1151 C   0  0  0  0  0  0  0  0  0  0  0  0
    3.2896   -2.2658   -0.4642 C   0  0  0  0  0  0  0  0  0  0  0  0
   -1.1886    0.3869   -0.7937 C   0  0  0  0  0  0  0  0  0  0  0  0
   -2.1063   -1.9630   -0.5697 N   0  3  0  0  0  0  0  0  0  0  0  0
    4.6686   -2.2701   -0.2915 N   0  0  0  0  0  0  0  0  0  0  0  0
    2.6079   -3.2881   -0.4808 O   0  0  0  0  0  0  0  0  0  0  0  0
   -3.2812   -1.5301    0.2917 C   0  0  0  0  0  0  0  0  0  0  0  0
   -1.6801   -3.3497   -0.1083 C   0  0  0  0  0  0  0  0  0  0  0  0
   -2.4827   -2.0131   -2.0448 C   0  0  0  0  0  0  0  0  0  0  0  0
    5.4491   -1.0507   -0.1592 C   0  0  0  0  0  0  0  0  0  0  0  0
    5.3334   -3.5168    0.0237 C   0  0  0  0  0  0  0  0  0  0  0  0
    1.5106    1.2145    2.4998 S   0  0  0  0  0  0  0  0  0  0  0  0
    0.6648    2.3909    1.7476 O   0  0  0  0  0  0  0  0  0  0  0  0
    0.6145    0.0615    2.4110 O   0  0  0  0  0  0  0  0  0  0  0  0
    1.7048    1.7309    3.8480 O   0  0  0  0  0  0  0  0  0  0  0  0
    2.7320    1.1003    1.7050 O   0  5  0  0  0  0  0  0  0  0  0  0
    1.2576    3.6678    1.6670 C   0  0  0  0  0  0  0  0  0  0  0  0
    0.5951   -2.4007    0.0080 H   0  0  0  0  0  0  0  0  0  0  0  0
    2.0155    1.3835   -1.3511 H   0  0  0  0  0  0  0  0  0  0  0  0
   -0.2992    2.2768   -1.3420 H   0  0  0  0  0  0  0  0  0  0  0  0
   -2.1871    0.8076   -0.8300 H   0  0  0  0  0  0  0  0  0  0  0  0
   -4.0856   -2.2613    0.1421 H   0  0  0  0  0  0  0  0  0  0  0  0
   -2.9760   -1.5194    1.3415 H   0  0  0  0  0  0  0  0  0  0  0  0
   -3.6501   -0.5516   -0.0257 H   0  0  0  0  0  0  0  0  0  0  0  0
   -2.5542   -4.0074   -0.1570 H   0  0  0  0  0  0  0  0  0  0  0  0
   -0.9186   -3.7373   -0.7927 H   0  0  0  0  0  0  0  0  0  0  0  0
   -1.3219   -3.2933    0.9238 H   0  0  0  0  0  0  0  0  0  0  0  0
   -3.0741   -1.1270   -2.2954 H   0  0  0  0  0  0  0  0  0  0  0  0
   -1.5666   -2.0434   -2.6455 H   0  0  0  0  0  0  0  0  0  0  0  0
   -3.0717   -2.9166   -2.2249 H   0  0  0  0  0  0  0  0  0  0  0  0
    5.9140   -1.0287    0.8309 H   0  0  0  0  0  0  0  0  0  0  0  0
    6.2295   -1.0685   -0.9262 H   0  0  0  0  0  0  0  0  0  0  0  0
    4.8559   -0.1441   -0.2896 H   0  0  0  0  0  0  0  0  0  0  0  0
    5.1047   -3.7910    1.0587 H   0  0  0  0  0  0  0  0  0  0  0  0
    4.9810   -4.3119   -0.6401 H   0  0  0  0  0  0  0  0  0  0  0  0
    6.4164   -3.4091   -0.0935 H   0  0  0  0  0  0  0  0  0  0  0  0
    1.3664    4.1090    2.6609 H   0  0  0  0  0  0  0  0  0  0  0  0
    2.2313    3.6256    1.1691 H   0  0  0  0  0  0  0  0  0  0  0  0
    0.6021    4.3148    1.0761 H   0  0  0  0  0  0  0  0  0  0  0  0
  1  2  2  0  0  0  0
  1  3  1  0  0  0  0
  1  4  1  0  0  0  0
  2  5  1  0  0  0  0
  2 23  1  0  0  0  0
  3  6  2  0  0  0  0
  3 24  1  0  0  0  0
  4  7  1  0  0  0  0
  5  8  2  0  0  0  0
  5  9  1  0  0  0  0
  6  8  1  0  0  0  0
  6 25  1  0  0  0  0
  7 10  1  0  0  0  0
  7 11  2  0  0  0  0
  8 26  1  0  0  0  0
  9 12  1  0  0  0  0
  9 13  1  0  0  0  0
  9 14  1  0  0  0  0
 10 15  1  0  0  0  0
 10 16  1  0  0  0  0
 12 27  1  0  0  0  0
 12 28  1  0  0  0  0
 12 29  1  0  0  0  0
 13 30  1  0  0  0  0
 13 31  1  0  0  0  0
 13 32  1  0  0  0  0
 14 33  1  0  0  0  0
 14 34  1  0  0  0  0
 14 35  1  0  0  0  0
 15 36  1  0  0  0  0
 15 37  1  0  0  0  0
 15 38  1  0  0  0  0
 16 39  1  0  0  0  0
 16 40  1  0  0  0  0
 16 41  1  0  0  0  0
 17 18  1  0  0  0  0
 17 19  2  0  0  0  0
 17 20  2  0  0  0  0
 17 21  1  0  0  0  0
 18 22  1  0  0  0  0
 22 42  1  0  0  0  0
 22 43  1  0  0  0  0
 22 44  1  0  0  0  0
M  CHG  2   9   1  21  -1
M  END
>  <Mol_ID>
3711

>  <Formula>
C13H22N2O6S

>  <MolWeight>
334.38858

>  <Cat>
S5886

>  <Name>
Hodostin

>  <Synonyms>
Neostigmine methyl sulfate, Syntostigmin, Neostigmeth

>  <Target>
AChR

>  <Form>
Free Base

>  <CAS>
51-60-5

>  <URL>
http://www.selleck.cn/products/hodostin.html

$$$$
