Hoechst 33342
 OpenBabel08302521243D

 62 67  0  0  0  0  0  0  0  0999 V2000
   -2.2737   -0.0149    0.0264 C   0  0  0  0  0  0  0  0  0  0  0  0
   -1.5543    1.0907   -0.0175 N   0  0  0  0  0  0  0  0  0  0  0  0
   -0.2461    0.6874   -0.0197 C   0  0  0  0  0  0  0  0  0  0  0  0
   -0.1476   -0.6948   -0.0149 C   0  0  0  0  0  0  0  0  0  0  0  0
   -1.4510   -1.1188    0.0067 N   0  0  0  0  0  0  0  0  0  0  0  0
    0.9193    1.4540   -0.0211 C   0  0  0  0  0  0  0  0  0  0  0  0
    2.1487    0.7839   -0.0292 C   0  0  0  0  0  0  0  0  0  0  0  0
    2.2531   -0.6230   -0.0441 C   0  0  0  0  0  0  0  0  0  0  0  0
    1.0717   -1.3829   -0.0257 C   0  0  0  0  0  0  0  0  0  0  0  0
    3.5148   -1.1961   -0.0162 N   0  0  0  0  0  0  0  0  0  0  0  0
    3.7443   -2.5584    0.4828 C   0  0  0  0  0  0  0  0  0  0  0  0
    5.1925   -2.6511    1.0286 C   0  0  0  0  0  0  0  0  0  0  0  0
    6.2169   -2.2625    0.0282 N   0  0  0  0  0  0  0  0  0  0  0  0
    5.9113   -0.9062   -0.4871 C   0  0  0  0  0  0  0  0  0  0  0  0
    4.4802   -0.7964   -1.0576 C   0  0  0  0  0  0  0  0  0  0  0  0
    7.5503   -2.2865    0.6253 C   0  0  0  0  0  0  0  0  0  0  0  0
   -8.0604    1.1354   -0.6746 C   0  0  0  0  0  0  0  0  0  0  0  0
   -7.8901    0.0326    0.0336 N   0  0  0  0  0  0  0  0  0  0  0  0
   -6.5353   -0.1515    0.1291 C   0  0  0  0  0  0  0  0  0  0  0  0
   -5.8527    0.8789   -0.4989 C   0  0  0  0  0  0  0  0  0  0  0  0
   -6.8407    1.6906   -0.9868 N   0  0  0  0  0  0  0  0  0  0  0  0
   -5.8090   -1.1791    0.7441 C   0  0  0  0  0  0  0  0  0  0  0  0
   -4.4074   -1.1333    0.6983 C   0  0  0  0  0  0  0  0  0  0  0  0
   -3.7328   -0.0804    0.0591 C   0  0  0  0  0  0  0  0  0  0  0  0
   -4.4617    0.9600   -0.5475 C   0  0  0  0  0  0  0  0  0  0  0  0
   -9.3431    1.7131   -1.0718 C   0  0  0  0  0  0  0  0  0  0  0  0
  -10.4767    1.4741   -0.2857 C   0  0  0  0  0  0  0  0  0  0  0  0
  -11.7269    1.9840   -0.6518 C   0  0  0  0  0  0  0  0  0  0  0  0
  -11.8640    2.7294   -1.8219 C   0  0  0  0  0  0  0  0  0  0  0  0
  -10.7363    2.9770   -2.6070 C   0  0  0  0  0  0  0  0  0  0  0  0
   -9.4839    2.4761   -2.2373 C   0  0  0  0  0  0  0  0  0  0  0  0
  -13.0304    3.2544   -2.3078 O   0  0  0  0  0  0  0  0  0  0  0  0
  -14.2107    2.9970   -1.5482 C   0  0  0  0  0  0  0  0  0  0  0  0
  -15.3978    3.5832   -2.2901 C   0  0  0  0  0  0  0  0  0  0  0  0
   -1.7617   -2.0782   -0.0046 H   0  0  0  0  0  0  0  0  0  0  0  0
    0.8696    2.5358    0.0034 H   0  0  0  0  0  0  0  0  0  0  0  0
    3.0521    1.3853    0.0194 H   0  0  0  0  0  0  0  0  0  0  0  0
    1.0933   -2.4663   -0.0360 H   0  0  0  0  0  0  0  0  0  0  0  0
    3.5931   -3.2914   -0.3201 H   0  0  0  0  0  0  0  0  0  0  0  0
    3.0587   -2.8030    1.3027 H   0  0  0  0  0  0  0  0  0  0  0  0
    5.3742   -3.6802    1.3594 H   0  0  0  0  0  0  0  0  0  0  0  0
    5.2691   -2.0026    1.9127 H   0  0  0  0  0  0  0  0  0  0  0  0
    6.0237   -0.1625    0.3142 H   0  0  0  0  0  0  0  0  0  0  0  0
    6.6214   -0.6457   -1.2806 H   0  0  0  0  0  0  0  0  0  0  0  0
    4.3718   -1.4534   -1.9309 H   0  0  0  0  0  0  0  0  0  0  0  0
    4.3260    0.2289   -1.4106 H   0  0  0  0  0  0  0  0  0  0  0  0
    8.3074   -2.0218   -0.1211 H   0  0  0  0  0  0  0  0  0  0  0  0
    7.6421   -1.5922    1.4686 H   0  0  0  0  0  0  0  0  0  0  0  0
    7.7931   -3.2943    0.9798 H   0  0  0  0  0  0  0  0  0  0  0  0
   -6.6999    2.5544   -1.4877 H   0  0  0  0  0  0  0  0  0  0  0  0
   -6.3286   -1.9854    1.2495 H   0  0  0  0  0  0  0  0  0  0  0  0
   -3.8554   -1.9233    1.2012 H   0  0  0  0  0  0  0  0  0  0  0  0
   -3.9534    1.7868   -1.0356 H   0  0  0  0  0  0  0  0  0  0  0  0
  -10.3889    0.8785    0.6222 H   0  0  0  0  0  0  0  0  0  0  0  0
  -12.5688    1.7689   -0.0030 H   0  0  0  0  0  0  0  0  0  0  0  0
  -10.8358    3.5529   -3.5239 H   0  0  0  0  0  0  0  0  0  0  0  0
   -8.6383    2.6653   -2.8922 H   0  0  0  0  0  0  0  0  0  0  0  0
  -14.3670    1.9179   -1.4341 H   0  0  0  0  0  0  0  0  0  0  0  0
  -14.1314    3.4734   -0.5644 H   0  0  0  0  0  0  0  0  0  0  0  0
  -15.5146    3.1048   -3.2682 H   0  0  0  0  0  0  0  0  0  0  0  0
  -16.3188    3.4406   -1.7175 H   0  0  0  0  0  0  0  0  0  0  0  0
  -15.2539    4.6532   -2.4712 H   0  0  0  0  0  0  0  0  0  0  0  0
  1  2  2  0  0  0  0
  1  5  1  0  0  0  0
  1 24  1  0  0  0  0
  2  3  1  0  0  0  0
  3  4  2  0  0  0  0
  3  6  1  0  0  0  0
  4  5  1  0  0  0  0
  4  9  1  0  0  0  0
  5 35  1  0  0  0  0
  6  7  2  0  0  0  0
  6 36  1  0  0  0  0
  7  8  1  0  0  0  0
  7 37  1  0  0  0  0
  8  9  2  0  0  0  0
  8 10  1  0  0  0  0
  9 38  1  0  0  0  0
 10 11  1  0  0  0  0
 10 15  1  0  0  0  0
 11 12  1  0  0  0  0
 11 39  1  0  0  0  0
 11 40  1  0  0  0  0
 12 13  1  0  0  0  0
 12 41  1  0  0  0  0
 12 42  1  0  0  0  0
 13 14  1  0  0  0  0
 13 16  1  0  0  0  0
 14 15  1  0  0  0  0
 14 43  1  0  0  0  0
 14 44  1  0  0  0  0
 15 45  1  0  0  0  0
 15 46  1  0  0  0  0
 16 47  1  0  0  0  0
 16 48  1  0  0  0  0
 16 49  1  0  0  0  0
 17 18  2  0  0  0  0
 17 21  1  0  0  0  0
 17 26  1  0  0  0  0
 18 19  1  0  0  0  0
 19 20  2  0  0  0  0
 19 22  1  0  0  0  0
 20 21  1  0  0  0  0
 20 25  1  0  0  0  0
 21 50  1  0  0  0  0
 22 23  2  0  0  0  0
 22 51  1  0  0  0  0
 23 24  1  0  0  0  0
 23 52  1  0  0  0  0
 24 25  2  0  0  0  0
 25 53  1  0  0  0  0
 26 27  2  0  0  0  0
 26 31  1  0  0  0  0
 27 28  1  0  0  0  0
 27 54  1  0  0  0  0
 28 29  2  0  0  0  0
 28 55  1  0  0  0  0
 29 30  1  0  0  0  0
 29 32  1  0  0  0  0
 30 31  2  0  0  0  0
 30 56  1  0  0  0  0
 31 57  1  0  0  0  0
 32 33  1  0  0  0  0
 33 34  1  0  0  0  0
 33 58  1  0  0  0  0
 33 59  1  0  0  0  0
 34 60  1  0  0  0  0
 34 61  1  0  0  0  0
 34 62  1  0  0  0  0
M  END
>  <Mol_ID>
5074

>  <Formula>
C27H28N6O

>  <MolWeight>
452.55082

>  <Cat>
S0485

>  <Name>
Hoechst 33342

>  <Synonyms>
Pibenzimol, bisBenzimide H 33342, HOE 33342, HO342

>  <Target>
Dyes

>  <Form>
free base

>  <CAS>
23491-52-3

>  <URL>
http://www.selleckchem.com/products/hoechst-33342.html

$$$$
