Homatropine bromide.cdx
 OpenBabel08302522043D

 43 44  0  0  0  0  0  0  0  0999 V2000
    1.0197   -1.5299   -0.0183 C   0  0  1  0  0  0  0  0  0  0  0  0
    0.2853   -1.0639    1.2564 C   0  0  0  0  0  0  0  0  0  0  0  0
    0.2359   -1.1189   -1.2817 C   0  0  0  0  0  0  0  0  0  0  0  0
    2.3263   -1.0425   -0.0868 O   0  0  0  0  0  0  0  0  0  0  0  0
   -0.3480    0.3513    1.1146 C   0  0  2  0  0  0  0  0  0  0  0  0
   -0.4131    0.2995   -1.1708 C   0  0  1  0  0  0  0  0  0  0  0  0
    3.4094   -1.8537    0.1116 C   0  0  0  0  0  0  0  0  0  0  0  0
   -1.2992    0.3917   -0.0055 N   0  0  0  0  0  0  0  0  0  0  0  0
    0.7052    1.3875    0.6909 C   0  0  0  0  0  0  0  0  0  0  0  0
    0.5915    1.4020   -0.8509 C   0  0  0  0  0  0  0  0  0  0  0  0
    4.6065   -1.7746   -0.8189 C   0  0  3  0  0  0  0  0  0  0  0  0
    3.3233   -2.7988    0.8860 O   0  0  0  0  0  0  0  0  0  0  0  0
   -2.4534   -0.5228    0.0270 C   0  0  0  0  0  0  0  0  0  0  0  0
    5.6685   -0.7500   -0.4618 C   0  0  0  0  0  0  0  0  0  0  0  0
    5.1905   -3.0464   -0.9707 O   0  0  0  0  0  0  0  0  0  0  0  0
    5.6115    0.0354    0.7074 C   0  0  0  0  0  0  0  0  0  0  0  0
    6.7534   -0.5756   -1.3430 C   0  0  0  0  0  0  0  0  0  0  0  0
    6.6032    0.9845    0.9700 C   0  0  0  0  0  0  0  0  0  0  0  0
    7.7461    0.3680   -1.0723 C   0  0  0  0  0  0  0  0  0  0  0  0
    7.6701    1.1536    0.0799 C   0  0  0  0  0  0  0  0  0  0  0  0
    4.2012    2.0048   -1.7808 Br  0  0  0  0  0  0  0  0  0  0  0  0
    1.0754   -2.6436    0.0039 H   0  0  0  0  0  0  0  0  0  0  0  0
   -0.5373   -1.7731    1.4799 H   0  0  0  0  0  0  0  0  0  0  0  0
    0.9786   -1.1192    2.1245 H   0  0  0  0  0  0  0  0  0  0  0  0
   -0.5848   -1.8438   -1.4469 H   0  0  0  0  0  0  0  0  0  0  0  0
    0.8984   -1.1956   -2.1712 H   0  0  0  0  0  0  0  0  0  0  0  0
   -0.8244    0.6224    2.0813 H   0  0  0  0  0  0  0  0  0  0  0  0
   -0.9453    0.5139   -2.1224 H   0  0  0  0  0  0  0  0  0  0  0  0
    0.3951    2.3961    1.0513 H   0  0  0  0  0  0  0  0  0  0  0  0
    1.7104    1.1712    1.1095 H   0  0  0  0  0  0  0  0  0  0  0  0
    1.5207    1.3823   -1.4394 H   0  0  0  0  0  0  0  0  0  0  0  0
    0.0683    2.3559   -1.1063 H   0  0  0  0  0  0  0  0  0  0  0  0
    4.2013   -1.4939   -1.8151 H   0  0  0  0  0  0  0  0  0  0  0  0
   -2.1678   -1.5914    0.0311 H   0  0  0  0  0  0  0  0  0  0  0  0
   -3.0628   -0.3166    0.9310 H   0  0  0  0  0  0  0  0  0  0  0  0
   -3.0902   -0.3397   -0.8630 H   0  0  0  0  0  0  0  0  0  0  0  0
    5.6612   -3.2682   -0.1230 H   0  0  0  0  0  0  0  0  0  0  0  0
    4.7983   -0.0703    1.4111 H   0  0  0  0  0  0  0  0  0  0  0  0
    6.8265   -1.1722   -2.2453 H   0  0  0  0  0  0  0  0  0  0  0  0
    6.5481    1.5918    1.8634 H   0  0  0  0  0  0  0  0  0  0  0  0
    8.5719    0.4973   -1.7613 H   0  0  0  0  0  0  0  0  0  0  0  0
    8.4345    1.8911    0.2830 H   0  0  0  0  0  0  0  0  0  0  0  0
    3.6225    1.4383   -0.4779 H   0  0  0  0  0  0  0  0  0  0  0  0
  1  2  1  0  0  0  0
  1  3  1  0  0  0  0
  1 22  1  1  0  0  0
  1  4  1  0  0  0  0
  2 23  1  0  0  0  0
  2 24  1  0  0  0  0
  3 25  1  0  0  0  0
  3 26  1  0  0  0  0
  4  7  1  0  0  0  0
  5  2  1  0  0  0  0
  5  8  1  0  0  0  0
  5  9  1  0  0  0  0
  5 27  1  1  0  0  0
  6  3  1  0  0  0  0
  6 10  1  0  0  0  0
  6  8  1  0  0  0  0
  6 28  1  6  0  0  0
  7 11  1  0  0  0  0
  7 12  2  0  0  0  0
  8 13  1  0  0  0  0
  9 10  1  0  0  0  0
  9 29  1  0  0  0  0
  9 30  1  0  0  0  0
 10 31  1  0  0  0  0
 10 32  1  0  0  0  0
 11 14  1  0  0  0  0
 11 15  1  0  0  0  0
 11 33  1  0  0  0  0
 13 34  1  0  0  0  0
 13 35  1  0  0  0  0
 13 36  1  0  0  0  0
 14 16  2  0  0  0  0
 14 17  1  0  0  0  0
 15 37  1  0  0  0  0
 16 18  1  0  0  0  0
 16 38  1  0  0  0  0
 17 19  2  0  0  0  0
 17 39  1  0  0  0  0
 18 20  2  0  0  0  0
 18 40  1  0  0  0  0
 19 20  1  0  0  0  0
 19 41  1  0  0  0  0
 20 42  1  0  0  0  0
 21 43  1  0  0  0  0
M  END
>  <Mol_ID>
1248

>  <Formula>
C16H22BrNO3

>  <MolWeight>
356.25478

>  <Cat>
S4025

>  <Name>
Homatropine Bromide

>  <Synonyms>
N/A

>  <Target>
AChR

>  <Form>
quaternary-N bromide salt

>  <CAS>
51-56-9

>  <URL>
http://selleckchem.com/products/homatropine-bromide.html

$$$$
