Homosalate
 OpenBabel08302521303D

 41 42  0  0  0  0  0  0  0  0999 V2000
    2.5288   -1.8141   -0.1888 C   0  0  0  0  0  0  0  0  0  0  0  0
    1.7951   -3.1388   -0.2118 C   0  0  0  0  0  0  0  0  0  0  0  0
    3.9139   -1.7378   -0.3876 C   0  0  0  0  0  0  0  0  0  0  0  0
    1.8366   -0.5974   -0.0455 C   0  0  0  0  0  0  0  0  0  0  0  0
    0.4756   -2.9359   -0.0553 O   0  0  0  0  0  0  0  0  0  0  0  0
    2.3526   -4.2085   -0.4196 O   0  0  0  0  0  0  0  0  0  0  0  0
    4.5754   -0.5015   -0.4268 C   0  0  0  0  0  0  0  0  0  0  0  0
    4.7074   -2.8393   -0.5609 O   0  0  0  0  0  0  0  0  0  0  0  0
    2.4881    0.6387   -0.0876 C   0  0  0  0  0  0  0  0  0  0  0  0
   -0.5816   -3.9212   -0.2344 C   0  0  3  0  0  0  0  0  0  0  0  0
    3.8625    0.6862   -0.2778 C   0  0  0  0  0  0  0  0  0  0  0  0
   -1.3550   -3.6906   -1.5625 C   0  0  0  0  0  0  0  0  0  0  0  0
   -1.6139   -3.6470    0.8701 C   0  0  0  0  0  0  0  0  0  0  0  0
   -1.6153   -2.1894   -1.8163 C   0  0  0  0  0  0  0  0  0  0  0  0
   -1.9967   -2.1595    0.9062 C   0  0  3  0  0  0  0  0  0  0  0  0
   -2.1734   -1.5060   -0.5069 C   0  0  0  0  0  0  0  0  0  0  0  0
   -0.3253   -1.5852   -2.4318 C   0  0  0  0  0  0  0  0  0  0  0  0
   -2.6567   -1.9387   -2.9404 C   0  0  0  0  0  0  0  0  0  0  0  0
   -1.0907   -1.3996    1.8895 C   0  0  0  0  0  0  0  0  0  0  0  0
    0.7571   -0.5834    0.0678 H   0  0  0  0  0  0  0  0  0  0  0  0
    5.6493   -0.4654   -0.5878 H   0  0  0  0  0  0  0  0  0  0  0  0
    4.1489   -3.6470   -0.5594 H   0  0  0  0  0  0  0  0  0  0  0  0
    1.9149    1.5574    0.0113 H   0  0  0  0  0  0  0  0  0  0  0  0
   -0.2039   -4.9433   -0.1641 H   0  0  0  0  0  0  0  0  0  0  0  0
    4.3746    1.6438   -0.3267 H   0  0  0  0  0  0  0  0  0  0  0  0
   -0.7909   -4.1277   -2.3940 H   0  0  0  0  0  0  0  0  0  0  0  0
   -2.3138   -4.2316   -1.5369 H   0  0  0  0  0  0  0  0  0  0  0  0
   -2.5214   -4.2452    0.7043 H   0  0  0  0  0  0  0  0  0  0  0  0
   -1.2223   -3.9596    1.8457 H   0  0  0  0  0  0  0  0  0  0  0  0
   -2.9863   -2.0988    1.3844 H   0  0  0  0  0  0  0  0  0  0  0  0
   -1.9251   -0.4388   -0.4873 H   0  0  0  0  0  0  0  0  0  0  0  0
   -3.2691   -1.5194   -0.6250 H   0  0  0  0  0  0  0  0  0  0  0  0
   -0.3005   -1.7494   -3.5177 H   0  0  0  0  0  0  0  0  0  0  0  0
   -0.2327   -0.5128   -2.2540 H   0  0  0  0  0  0  0  0  0  0  0  0
    0.5879   -2.0794   -2.1180 H   0  0  0  0  0  0  0  0  0  0  0  0
   -3.6773   -2.1946   -2.6455 H   0  0  0  0  0  0  0  0  0  0  0  0
   -2.6535   -0.8727   -3.2140 H   0  0  0  0  0  0  0  0  0  0  0  0
   -2.4182   -2.5052   -3.8476 H   0  0  0  0  0  0  0  0  0  0  0  0
   -1.1751   -0.3158    1.7828 H   0  0  0  0  0  0  0  0  0  0  0  0
   -1.3730   -1.6567    2.9184 H   0  0  0  0  0  0  0  0  0  0  0  0
   -0.0383   -1.6768    1.8146 H   0  0  0  0  0  0  0  0  0  0  0  0
  1  2  1  0  0  0  0
  1  3  2  0  0  0  0
  1  4  1  0  0  0  0
  2  5  1  0  0  0  0
  2  6  2  0  0  0  0
  3  7  1  0  0  0  0
  3  8  1  0  0  0  0
  4  9  2  0  0  0  0
  4 20  1  0  0  0  0
  5 10  1  0  0  0  0
  7 11  2  0  0  0  0
  7 21  1  0  0  0  0
  8 22  1  0  0  0  0
  9 11  1  0  0  0  0
  9 23  1  0  0  0  0
 10 12  1  0  0  0  0
 10 13  1  0  0  0  0
 10 24  1  0  0  0  0
 11 25  1  0  0  0  0
 12 14  1  0  0  0  0
 12 26  1  0  0  0  0
 12 27  1  0  0  0  0
 13 15  1  0  0  0  0
 13 28  1  0  0  0  0
 13 29  1  0  0  0  0
 14 16  1  0  0  0  0
 14 17  1  0  0  0  0
 14 18  1  0  0  0  0
 15 19  1  0  0  0  0
 15 16  1  0  0  0  0
 15 30  1  0  0  0  0
 16 31  1  0  0  0  0
 16 32  1  0  0  0  0
 17 33  1  0  0  0  0
 17 34  1  0  0  0  0
 17 35  1  0  0  0  0
 18 36  1  0  0  0  0
 18 37  1  0  0  0  0
 18 38  1  0  0  0  0
 19 39  1  0  0  0  0
 19 40  1  0  0  0  0
 19 41  1  0  0  0  0
M  END
>  <Mol_ID>
5678

>  <Formula>
C16H22O3

>  <MolWeight>
262.34408

>  <Cat>
S4572

>  <Name>
Homosalate

>  <Synonyms>
HMS, Homomenthyl salicylate

>  <Target>
Akt,PI3K

>  <Form>
Free Base

>  <CAS>
118-56-9

>  <URL>
http://www.selleckchem.com/products/homosalate.html

$$$$
