Honokiol.cdx
 OpenBabel08302521363D

 38 39  0  0  0  0  0  0  0  0999 V2000
    0.9631   -0.0119    0.0256 C   0  0  0  0  0  0  0  0  0  0  0  0
    0.2617   -1.2179    0.0043 C   0  0  0  0  0  0  0  0  0  0  0  0
   -1.1469   -1.1659   -0.0540 C   0  0  0  0  0  0  0  0  0  0  0  0
   -1.8739    0.0400   -0.0107 C   0  0  0  0  0  0  0  0  0  0  0  0
   -1.1153    1.2245    0.0366 C   0  0  0  0  0  0  0  0  0  0  0  0
    0.2832    1.2006    0.0397 C   0  0  0  0  0  0  0  0  0  0  0  0
   -3.3617    0.0630   -0.0132 C   0  0  0  0  0  0  0  0  0  0  0  0
   -4.0522    1.1147   -0.6564 C   0  0  0  0  0  0  0  0  0  0  0  0
   -5.4565    1.2041   -0.6683 C   0  0  0  0  0  0  0  0  0  0  0  0
   -6.2042    0.2110   -0.0324 C   0  0  0  0  0  0  0  0  0  0  0  0
   -5.5609   -0.8503    0.6004 C   0  0  0  0  0  0  0  0  0  0  0  0
   -4.1630   -0.9162    0.6155 C   0  0  0  0  0  0  0  0  0  0  0  0
    2.3260    0.0622    0.0409 O   0  0  0  0  0  0  0  0  0  0  0  0
   -3.5822   -1.9606    1.2890 O   0  0  0  0  0  0  0  0  0  0  0  0
   -6.1387    2.3831   -1.3193 C   0  0  0  0  0  0  0  0  0  0  0  0
   -6.3213    3.5317   -0.3646 C   0  0  0  0  0  0  0  0  0  0  0  0
   -5.8136    4.7581   -0.5498 C   0  0  0  0  0  0  0  0  0  0  0  0
    0.9239   -2.5737    0.0393 C   0  0  0  0  0  0  0  0  0  0  0  0
    1.2185   -3.1012   -1.3345 C   0  0  0  0  0  0  0  0  0  0  0  0
    2.4350   -3.4409   -1.7766 C   0  0  0  0  0  0  0  0  0  0  0  0
   -1.6885   -2.1081   -0.1215 H   0  0  0  0  0  0  0  0  0  0  0  0
   -1.6047    2.1942    0.0836 H   0  0  0  0  0  0  0  0  0  0  0  0
    0.8406    2.1332    0.0618 H   0  0  0  0  0  0  0  0  0  0  0  0
   -3.4888    1.8928   -1.1691 H   0  0  0  0  0  0  0  0  0  0  0  0
   -7.2897    0.2607   -0.0203 H   0  0  0  0  0  0  0  0  0  0  0  0
   -6.1631   -1.6093    1.0897 H   0  0  0  0  0  0  0  0  0  0  0  0
    2.6882   -0.8118   -0.1722 H   0  0  0  0  0  0  0  0  0  0  0  0
   -4.2752   -2.5511    1.6234 H   0  0  0  0  0  0  0  0  0  0  0  0
   -5.5678    2.6906   -2.2041 H   0  0  0  0  0  0  0  0  0  0  0  0
   -7.1218    2.0753   -1.6944 H   0  0  0  0  0  0  0  0  0  0  0  0
   -6.9111    3.3377    0.5274 H   0  0  0  0  0  0  0  0  0  0  0  0
   -5.9842    5.5438    0.1798 H   0  0  0  0  0  0  0  0  0  0  0  0
   -5.2178    5.0050   -1.4233 H   0  0  0  0  0  0  0  0  0  0  0  0
    1.8283   -2.5345    0.6594 H   0  0  0  0  0  0  0  0  0  0  0  0
    0.2645   -3.2861    0.5525 H   0  0  0  0  0  0  0  0  0  0  0  0
    0.3646   -3.2220   -2.0003 H   0  0  0  0  0  0  0  0  0  0  0  0
    2.5667   -3.8246   -2.7843 H   0  0  0  0  0  0  0  0  0  0  0  0
    3.3199   -3.3557   -1.1548 H   0  0  0  0  0  0  0  0  0  0  0  0
  1  2  2  0  0  0  0
  1 13  1  0  0  0  0
  2  3  1  0  0  0  0
  2 18  1  0  0  0  0
  3  4  2  0  0  0  0
  3 21  1  0  0  0  0
  4  5  1  0  0  0  0
  4  7  1  0  0  0  0
  5  6  2  0  0  0  0
  5 22  1  0  0  0  0
  6  1  1  0  0  0  0
  6 23  1  0  0  0  0
  7  8  2  0  0  0  0
  8  9  1  0  0  0  0
  8 24  1  0  0  0  0
  9 10  2  0  0  0  0
  9 15  1  0  0  0  0
 10 11  1  0  0  0  0
 10 25  1  0  0  0  0
 11 12  2  0  0  0  0
 11 26  1  0  0  0  0
 12  7  1  0  0  0  0
 12 14  1  0  0  0  0
 13 27  1  0  0  0  0
 14 28  1  0  0  0  0
 15 16  1  0  0  0  0
 15 29  1  0  0  0  0
 15 30  1  0  0  0  0
 16 17  2  0  0  0  0
 16 31  1  0  0  0  0
 17 32  1  0  0  0  0
 17 33  1  0  0  0  0
 18 19  1  0  0  0  0
 18 34  1  0  0  0  0
 18 35  1  0  0  0  0
 19 20  2  0  0  0  0
 19 36  1  0  0  0  0
 20 37  1  0  0  0  0
 20 38  1  0  0  0  0
M  END
>  <Mol_ID>
693

>  <Formula>
C18H18O2

>  <MolWeight>
266.33432

>  <Cat>
S2310

>  <Name>
Honokiol (NSC 293100)

>  <Synonyms>
N/A

>  <Target>
Akt,Antineoplastic and Immunosuppressive Antibiotics,Apoptosis related,Autophagy,HCV,MEK

>  <Form>
free base

>  <CAS>
35354-74-6

>  <URL>
http://selleckchem.com/products/Honokiol.html

$$$$
