Hordenine HCL
 OpenBabel08302521373D

 27 27  0  0  0  0  0  0  0  0999 V2000
    0.8774   -0.0731    0.0881 C   0  0  0  0  0  0  0  0  0  0  0  0
    0.4874    0.5229   -1.2802 C   0  0  0  0  0  0  0  0  0  0  0  0
    0.9364    1.9133   -1.4914 N   0  0  0  0  0  0  0  0  0  0  0  0
    0.5138    2.3803   -2.8179 C   0  0  0  0  0  0  0  0  0  0  0  0
    0.4345    2.8324   -0.4684 C   0  0  0  0  0  0  0  0  0  0  0  0
   -0.6963   -5.4561    0.9304 O   0  0  0  0  0  0  0  0  0  0  0  0
    0.4261   -1.5072    0.2665 C   0  0  0  0  0  0  0  0  0  0  0  0
    0.8603   -2.5144   -0.6043 C   0  0  0  0  0  0  0  0  0  0  0  0
   -0.4009   -1.8558    1.3461 C   0  0  0  0  0  0  0  0  0  0  0  0
    0.4836   -3.8432   -0.4027 C   0  0  0  0  0  0  0  0  0  0  0  0
   -0.7743   -3.1864    1.5512 C   0  0  0  0  0  0  0  0  0  0  0  0
   -0.3264   -4.1678    0.6804 C   0  0  0  0  0  0  0  0  0  0  0  0
    0.4284    0.5242    0.8902 H   0  0  0  0  0  0  0  0  0  0  0  0
    1.9616   -0.0256    0.2340 H   0  0  0  0  0  0  0  0  0  0  0  0
    0.9423   -0.0951   -2.0655 H   0  0  0  0  0  0  0  0  0  0  0  0
   -0.6009    0.4444   -1.4092 H   0  0  0  0  0  0  0  0  0  0  0  0
   -0.5768    2.4018   -2.9198 H   0  0  0  0  0  0  0  0  0  0  0  0
    0.8975    3.3880   -3.0098 H   0  0  0  0  0  0  0  0  0  0  0  0
    0.9211    1.7356   -3.6051 H   0  0  0  0  0  0  0  0  0  0  0  0
   -0.6604    2.8530   -0.4316 H   0  0  0  0  0  0  0  0  0  0  0  0
    0.8121    2.5678    0.5240 H   0  0  0  0  0  0  0  0  0  0  0  0
    0.7966    3.8476   -0.6558 H   0  0  0  0  0  0  0  0  0  0  0  0
   -0.2733   -6.0305    0.2704 H   0  0  0  0  0  0  0  0  0  0  0  0
    1.5087   -2.2729   -1.4451 H   0  0  0  0  0  0  0  0  0  0  0  0
   -0.7525   -1.0980    2.0425 H   0  0  0  0  0  0  0  0  0  0  0  0
    0.8398   -4.6054   -1.0886 H   0  0  0  0  0  0  0  0  0  0  0  0
   -1.4025   -3.4524    2.3975 H   0  0  0  0  0  0  0  0  0  0  0  0
  1  2  1  0  0  0  0
  1  7  1  0  0  0  0
  1 13  1  0  0  0  0
  1 14  1  0  0  0  0
  2  3  1  0  0  0  0
  2 15  1  0  0  0  0
  2 16  1  0  0  0  0
  3  4  1  0  0  0  0
  3  5  1  0  0  0  0
  4 17  1  0  0  0  0
  4 18  1  0  0  0  0
  4 19  1  0  0  0  0
  5 20  1  0  0  0  0
  5 21  1  0  0  0  0
  5 22  1  0  0  0  0
  6 12  1  0  0  0  0
  6 23  1  0  0  0  0
  7  8  2  0  0  0  0
  7  9  1  0  0  0  0
  8 10  1  0  0  0  0
  8 24  1  0  0  0  0
  9 11  2  0  0  0  0
  9 25  1  0  0  0  0
 10 12  2  0  0  0  0
 10 26  1  0  0  0  0
 11 12  1  0  0  0  0
 11 27  1  0  0  0  0
M  END
>  <Mol_ID>
7385

>  <Formula>
C10H16ClNO

>  <MolWeight>
201.69314

>  <Cat>
E4456

>  <Name>
Hordenine HCL

>  <Synonyms>
Ordenina hydrochloride; Peyocactine hydrochloride

>  <Target>
cAMP

>  <Form>
hydrochloride salt

>  <CAS>
6027-23-2

>  <URL>
https://www.selleckchem.com/products/hordenine-hcl.html

$$$$
