HPK1-IN-2
 OpenBabel08302521313D

 47 51  0  0  0  0  0  0  0  0999 V2000
   -0.1348   -0.5446    0.4350 C   0  0  0  0  0  0  0  0  0  0  0  0
    0.5520   -0.7079   -0.7355 C   0  0  0  0  0  0  0  0  0  0  0  0
    1.7855    0.0167   -0.9282 C   0  0  0  0  0  0  0  0  0  0  0  0
    2.2234    0.8374    0.0819 C   0  0  0  0  0  0  0  0  0  0  0  0
    1.3758    1.0049    1.3422 C   0  0  0  0  0  0  0  0  0  0  0  0
    0.2359    0.2677    1.4570 N   0  0  0  0  0  0  0  0  0  0  0  0
   -0.1197   -1.6478   -1.5751 C   0  0  0  0  0  0  0  0  0  0  0  0
   -1.2735   -2.1318   -0.9823 C   0  0  0  0  0  0  0  0  0  0  0  0
   -1.5390   -1.4472    0.5735 S   0  0  0  0  0  0  0  0  0  0  0  0
    1.7083    1.7762    2.2470 O   0  0  0  0  0  0  0  0  0  0  0  0
    3.4698    1.5253   -0.0126 C   0  0  0  0  0  0  0  0  0  0  0  0
    4.4032    1.4782   -0.9496 N   0  0  0  0  0  0  0  0  0  0  0  0
    5.4039    2.3112   -0.5251 C   0  0  0  0  0  0  0  0  0  0  0  0
    5.1036    2.8760    0.7047 C   0  0  0  0  0  0  0  0  0  0  0  0
    3.8745    2.3632    1.0138 N   0  0  0  0  0  0  0  0  0  0  0  0
    6.6136    2.6204   -1.1457 C   0  0  0  0  0  0  0  0  0  0  0  0
    7.4852    3.4957   -0.4901 C   0  0  0  0  0  0  0  0  0  0  0  0
    7.1932    4.0627    0.7627 C   0  0  0  0  0  0  0  0  0  0  0  0
    5.9635    3.7568    1.3728 C   0  0  0  0  0  0  0  0  0  0  0  0
    8.1058    4.9355    1.3246 N   0  0  0  0  0  0  0  0  0  0  0  0
    7.6977    6.0035    2.2399 C   0  0  0  0  0  0  0  0  0  0  0  0
    8.6191    7.2277    2.0287 C   0  0  0  0  0  0  0  0  0  0  0  0
   10.0552    6.8915    2.1915 N   0  0  0  0  0  0  0  0  0  0  0  0
   10.4081    5.8068    1.2452 C   0  0  0  0  0  0  0  0  0  0  0  0
    9.5246    4.5510    1.4295 C   0  0  0  0  0  0  0  0  0  0  0  0
   10.8890    8.0682    1.9649 C   0  0  0  0  0  0  0  0  0  0  0  0
    2.4645   -0.1951   -2.1198 N   0  0  0  0  0  0  0  0  0  0  0  0
   -0.3281    0.3512    2.2909 H   0  0  0  0  0  0  0  0  0  0  0  0
    0.2097   -1.9687   -2.5551 H   0  0  0  0  0  0  0  0  0  0  0  0
   -1.9735   -2.8534   -1.3812 H   0  0  0  0  0  0  0  0  0  0  0  0
    3.3369    2.5391    1.8570 H   0  0  0  0  0  0  0  0  0  0  0  0
    6.8656    2.1942   -2.1066 H   0  0  0  0  0  0  0  0  0  0  0  0
    8.4099    3.7586   -0.9959 H   0  0  0  0  0  0  0  0  0  0  0  0
    5.6943    4.1619    2.3424 H   0  0  0  0  0  0  0  0  0  0  0  0
    7.7603    5.6576    3.2778 H   0  0  0  0  0  0  0  0  0  0  0  0
    6.6663    6.3196    2.0463 H   0  0  0  0  0  0  0  0  0  0  0  0
    8.3354    8.0028    2.7488 H   0  0  0  0  0  0  0  0  0  0  0  0
    8.4424    7.6353    1.0213 H   0  0  0  0  0  0  0  0  0  0  0  0
   10.2962    6.1578    0.2104 H   0  0  0  0  0  0  0  0  0  0  0  0
   11.4565    5.5188    1.3832 H   0  0  0  0  0  0  0  0  0  0  0  0
    9.7145    4.0946    2.4108 H   0  0  0  0  0  0  0  0  0  0  0  0
    9.8183    3.8074    0.6799 H   0  0  0  0  0  0  0  0  0  0  0  0
   11.9462    7.8206    2.1104 H   0  0  0  0  0  0  0  0  0  0  0  0
   10.7662    8.4820    0.9577 H   0  0  0  0  0  0  0  0  0  0  0  0
   10.6466    8.8512    2.6916 H   0  0  0  0  0  0  0  0  0  0  0  0
    2.2791   -1.0857   -2.5626 H   0  0  0  0  0  0  0  0  0  0  0  0
    3.4647    0.0074   -2.0314 H   0  0  0  0  0  0  0  0  0  0  0  0
  1  2  2  0  0  0  0
  1  6  1  0  0  0  0
  2  3  1  0  0  0  0
  3  4  2  0  0  0  0
  3 27  1  0  0  0  0
  4  5  1  0  0  0  0
  4 11  1  0  0  0  0
  5  6  1  0  0  0  0
  5 10  2  0  0  0  0
  6 28  1  0  0  0  0
  7  8  2  0  0  0  0
  7  2  1  0  0  0  0
  7 29  1  0  0  0  0
  8  9  1  0  0  0  0
  8 30  1  0  0  0  0
  9  1  1  0  0  0  0
 11 12  2  0  0  0  0
 11 15  1  0  0  0  0
 12 13  1  0  0  0  0
 13 14  2  0  0  0  0
 14 15  1  0  0  0  0
 15 31  1  0  0  0  0
 16 17  2  0  0  0  0
 16 13  1  0  0  0  0
 16 32  1  0  0  0  0
 17 18  1  0  0  0  0
 17 33  1  0  0  0  0
 18 19  2  0  0  0  0
 18 20  1  0  0  0  0
 19 14  1  0  0  0  0
 19 34  1  0  0  0  0
 20 21  1  0  0  0  0
 20 25  1  0  0  0  0
 21 22  1  0  0  0  0
 21 35  1  0  0  0  0
 21 36  1  0  0  0  0
 22 23  1  0  0  0  0
 22 37  1  0  0  0  0
 22 38  1  0  0  0  0
 23 24  1  0  0  0  0
 23 26  1  0  0  0  0
 24 25  1  0  0  0  0
 24 39  1  0  0  0  0
 24 40  1  0  0  0  0
 25 41  1  0  0  0  0
 25 42  1  0  0  0  0
 26 43  1  0  0  0  0
 26 44  1  0  0  0  0
 26 45  1  0  0  0  0
 27 46  1  0  0  0  0
 27 47  1  0  0  0  0
M  END
>  <Mol_ID>
5884

>  <Formula>
C19H20N6OS

>  <MolWeight>
380.4667

>  <Cat>
S6060

>  <Name>
HPK1-IN-2

>  <Synonyms>
N/A

>  <Target>
FLT3,Serine/threonin kinase,Src

>  <Form>
Free Base

>  <CAS>
2056122-11-1

>  <URL>
http://www.selleckchem.com/products/hpk1-in-2.html

$$$$
