HPOB.cdx
 OpenBabel08302519583D

 41 42  0  0  0  0  0  0  0  0999 V2000
   -0.3218    0.9933   -0.6350 C   0  0  0  0  0  0  0  0  0  0  0  0
   -1.3362    0.1241   -0.2221 C   0  0  0  0  0  0  0  0  0  0  0  0
   -1.1550   -0.6715    0.9010 C   0  0  0  0  0  0  0  0  0  0  0  0
    0.0577   -0.6247    1.5903 C   0  0  0  0  0  0  0  0  0  0  0  0
    1.0813    0.2375    1.1674 C   0  0  0  0  0  0  0  0  0  0  0  0
    0.8945    1.0720    0.0608 C   0  0  0  0  0  0  0  0  0  0  0  0
    1.8474    2.0748   -0.3052 N   0  0  0  0  0  0  0  0  0  0  0  0
    1.3261    3.4553   -0.4355 C   0  0  0  0  0  0  0  0  0  0  0  0
    3.2400    1.9314   -0.2878 C   0  0  0  0  0  0  0  0  0  0  0  0
    3.8607    0.5397   -0.4033 C   0  0  0  0  0  0  0  0  0  0  0  0
    5.0359    0.4684   -1.3733 C   0  0  0  0  0  0  0  0  0  0  0  0
    6.3304    0.8430   -0.9772 C   0  0  0  0  0  0  0  0  0  0  0  0
    7.4134    0.7635   -1.8676 C   0  0  0  0  0  0  0  0  0  0  0  0
    7.2151    0.3087   -3.1760 C   0  0  0  0  0  0  0  0  0  0  0  0
    5.9242   -0.0403   -3.5871 C   0  0  0  0  0  0  0  0  0  0  0  0
    4.8458    0.0373   -2.6934 C   0  0  0  0  0  0  0  0  0  0  0  0
    1.2157    4.2119    0.9009 C   0  0  0  0  0  0  0  0  0  0  0  0
    2.4511    4.3488    1.5961 O   0  0  0  0  0  0  0  0  0  0  0  0
    3.9664    2.9320   -0.2165 O   0  0  0  0  0  0  0  0  0  0  0  0
    8.3299    0.2207   -4.1651 C   0  0  0  0  0  0  0  0  0  0  0  0
    9.5999    0.0658   -3.6560 N   0  0  0  0  0  0  0  0  0  0  0  0
   10.6154   -0.1695   -4.6155 O   0  0  0  0  0  0  0  0  0  0  0  0
    8.1224    0.2555   -5.3742 O   0  0  0  0  0  0  0  0  0  0  0  0
   -0.4941    1.5867   -1.5276 H   0  0  0  0  0  0  0  0  0  0  0  0
   -2.2763    0.0886   -0.7706 H   0  0  0  0  0  0  0  0  0  0  0  0
   -1.9588   -1.3198    1.2464 H   0  0  0  0  0  0  0  0  0  0  0  0
    0.1908   -1.2370    2.4798 H   0  0  0  0  0  0  0  0  0  0  0  0
    1.9840    0.2964    1.7694 H   0  0  0  0  0  0  0  0  0  0  0  0
    1.9990    4.0074   -1.1024 H   0  0  0  0  0  0  0  0  0  0  0  0
    0.3465    3.4566   -0.9220 H   0  0  0  0  0  0  0  0  0  0  0  0
    4.2086    0.2518    0.5961 H   0  0  0  0  0  0  0  0  0  0  0  0
    3.1185   -0.2019   -0.7123 H   0  0  0  0  0  0  0  0  0  0  0  0
    6.5057    1.2204    0.0289 H   0  0  0  0  0  0  0  0  0  0  0  0
    8.3916    1.0972   -1.5288 H   0  0  0  0  0  0  0  0  0  0  0  0
    5.7517   -0.3784   -4.6081 H   0  0  0  0  0  0  0  0  0  0  0  0
    3.8557   -0.2460   -3.0430 H   0  0  0  0  0  0  0  0  0  0  0  0
    0.8399    5.2226    0.7058 H   0  0  0  0  0  0  0  0  0  0  0  0
    0.5066    3.7212    1.5747 H   0  0  0  0  0  0  0  0  0  0  0  0
    3.1665    3.9925    1.0288 H   0  0  0  0  0  0  0  0  0  0  0  0
    9.7753   -0.3005   -2.7263 H   0  0  0  0  0  0  0  0  0  0  0  0
   10.1300   -0.0644   -5.4624 H   0  0  0  0  0  0  0  0  0  0  0  0
  1  2  2  0  0  0  0
  1 24  1  0  0  0  0
  2  3  1  0  0  0  0
  2 25  1  0  0  0  0
  3  4  2  0  0  0  0
  3 26  1  0  0  0  0
  4  5  1  0  0  0  0
  4 27  1  0  0  0  0
  5  6  2  0  0  0  0
  5 28  1  0  0  0  0
  6  1  1  0  0  0  0
  6  7  1  0  0  0  0
  7  8  1  0  0  0  0
  7  9  1  0  0  0  0
  8 17  1  0  0  0  0
  8 29  1  0  0  0  0
  8 30  1  0  0  0  0
  9 10  1  0  0  0  0
  9 19  2  0  0  0  0
 10 11  1  0  0  0  0
 10 31  1  0  0  0  0
 10 32  1  0  0  0  0
 11 12  2  0  0  0  0
 12 13  1  0  0  0  0
 12 33  1  0  0  0  0
 13 14  2  0  0  0  0
 13 34  1  0  0  0  0
 14 15  1  0  0  0  0
 14 20  1  0  0  0  0
 15 16  2  0  0  0  0
 15 35  1  0  0  0  0
 16 11  1  0  0  0  0
 16 36  1  0  0  0  0
 17 18  1  0  0  0  0
 17 37  1  0  0  0  0
 17 38  1  0  0  0  0
 18 39  1  0  0  0  0
 20 21  1  0  0  0  0
 20 23  2  0  0  0  0
 21 22  1  0  0  0  0
 21 40  1  0  0  0  0
 22 41  1  0  0  0  0
M  END
>  <Mol_ID>
2525

>  <Formula>
C17H18N2O4

>  <MolWeight>
314.33582

>  <Cat>
S7278

>  <Name>
HPOB

>  <Synonyms>
N/A

>  <Target>
HDAC

>  <Form>
free base

>  <CAS>
1429651-50-2

>  <URL>
http://selleckchem.com/products/hpob.html

$$$$
