HPPE
 OpenBabel08302521373D

 53 56  0  0  0  0  0  0  0  0999 V2000
   -1.9782   -1.0356    0.1150 C   0  0  0  0  0  0  0  0  0  0  0  0
   -0.8634   -1.7346    0.1573 N   0  0  0  0  0  0  0  0  0  0  0  0
    0.1649   -0.8439    0.1296 C   0  0  0  0  0  0  0  0  0  0  0  0
   -0.3112    0.4600    0.1233 C   0  0  0  0  0  0  0  0  0  0  0  0
   -1.6860    0.3159    0.1335 N   0  0  0  0  0  0  0  0  0  0  0  0
    1.5417   -1.0990    0.0817 C   0  0  0  0  0  0  0  0  0  0  0  0
    2.4232   -0.0135    0.0407 C   0  0  0  0  0  0  0  0  0  0  0  0
    1.9246    1.3005    0.0300 C   0  0  0  0  0  0  0  0  0  0  0  0
    0.5431    1.5650    0.0781 C   0  0  0  0  0  0  0  0  0  0  0  0
    3.9033   -0.2221   -0.0304 C   0  0  0  0  0  0  0  0  0  0  0  0
    4.6124    0.6020   -0.5855 O   0  0  0  0  0  0  0  0  0  0  0  0
    4.3823   -1.3688    0.5721 N   0  0  0  0  0  0  0  0  0  0  0  0
   -3.2415   -1.5158   -0.0071 N   0  0  0  0  0  0  0  0  0  0  0  0
   -2.5544   -4.1329   -0.4546 S   0  0  0  0  0  0  0  0  0  0  0  0
   -3.5860   -2.7492   -0.4648 C   0  0  0  0  0  0  0  0  0  0  0  0
   -4.7745   -2.9672   -0.9886 N   0  0  0  0  0  0  0  0  0  0  0  0
   -4.8324   -4.2342   -1.5497 C   0  0  0  0  0  0  0  0  0  0  0  0
   -3.6935   -5.0128   -1.3726 C   0  0  0  0  0  0  0  0  0  0  0  0
   -5.9084   -4.7771   -2.2802 C   0  0  0  0  0  0  0  0  0  0  0  0
   -5.8053   -6.0697   -2.8157 C   0  0  0  0  0  0  0  0  0  0  0  0
   -4.6495   -6.8382   -2.6296 C   0  0  0  0  0  0  0  0  0  0  0  0
   -3.5757   -6.3081   -1.8984 C   0  0  0  0  0  0  0  0  0  0  0  0
   -4.5246   -8.2321   -3.1948 C   0  0  0  0  0  0  0  0  0  0  0  0
   -5.6305   -8.6495   -3.8697 F   0  0  0  0  0  0  0  0  0  0  0  0
   -3.4862   -8.3495   -4.0666 F   0  0  0  0  0  0  0  0  0  0  0  0
   -4.3052   -9.1636   -2.2246 F   0  0  0  0  0  0  0  0  0  0  0  0
   -2.6081    1.4239    0.0502 C   0  0  0  0  0  0  0  0  0  0  0  0
    5.7608   -1.8123    0.4412 C   0  0  0  0  0  0  0  0  0  0  0  0
    6.1891   -2.6669    1.6385 C   0  0  0  0  0  0  0  0  0  0  0  0
    5.3294   -3.8155    1.7856 O   0  0  0  0  0  0  0  0  0  0  0  0
    5.7347   -4.5983    2.9212 C   0  0  0  0  0  0  0  0  0  0  0  0
    4.8637   -5.8452    3.0810 C   0  0  0  0  0  0  0  0  0  0  0  0
    5.0321   -6.7510    1.9946 O   0  0  0  0  0  0  0  0  0  0  0  0
    1.8746   -2.1275    0.0334 H   0  0  0  0  0  0  0  0  0  0  0  0
    2.6187    2.1368   -0.0218 H   0  0  0  0  0  0  0  0  0  0  0  0
    0.1709    2.5840    0.0628 H   0  0  0  0  0  0  0  0  0  0  0  0
    3.7491   -2.0348    0.9839 H   0  0  0  0  0  0  0  0  0  0  0  0
   -4.0197   -0.8747   -0.0701 H   0  0  0  0  0  0  0  0  0  0  0  0
   -6.8044   -4.1836   -2.4351 H   0  0  0  0  0  0  0  0  0  0  0  0
   -6.6441   -6.4702   -3.3851 H   0  0  0  0  0  0  0  0  0  0  0  0
   -2.6629   -6.8810   -1.7461 H   0  0  0  0  0  0  0  0  0  0  0  0
   -2.4206    2.0943    0.8929 H   0  0  0  0  0  0  0  0  0  0  0  0
   -2.4348    1.9417   -0.8966 H   0  0  0  0  0  0  0  0  0  0  0  0
   -3.6414    1.0824    0.0913 H   0  0  0  0  0  0  0  0  0  0  0  0
    5.8115   -2.4007   -0.4815 H   0  0  0  0  0  0  0  0  0  0  0  0
    6.4202   -0.9468    0.3351 H   0  0  0  0  0  0  0  0  0  0  0  0
    7.2200   -3.0052    1.4908 H   0  0  0  0  0  0  0  0  0  0  0  0
    6.1382   -2.0668    2.5551 H   0  0  0  0  0  0  0  0  0  0  0  0
    6.7822   -4.8939    2.7949 H   0  0  0  0  0  0  0  0  0  0  0  0
    5.6364   -3.9833    3.8231 H   0  0  0  0  0  0  0  0  0  0  0  0
    5.1528   -6.3779    3.9923 H   0  0  0  0  0  0  0  0  0  0  0  0
    3.8026   -5.5871    3.1498 H   0  0  0  0  0  0  0  0  0  0  0  0
    4.4365   -6.4461    1.2871 H   0  0  0  0  0  0  0  0  0  0  0  0
  1  2  2  0  0  0  0
  1  5  1  0  0  0  0
  1 13  1  0  0  0  0
  2  3  1  0  0  0  0
  3  4  2  0  0  0  0
  4  5  1  0  0  0  0
  5 27  1  0  0  0  0
  6  7  2  0  0  0  0
  6  3  1  0  0  0  0
  6 34  1  0  0  0  0
  7  8  1  0  0  0  0
  7 10  1  0  0  0  0
  8  9  2  0  0  0  0
  8 35  1  0  0  0  0
  9  4  1  0  0  0  0
  9 36  1  0  0  0  0
 10 11  2  0  0  0  0
 10 12  1  0  0  0  0
 12 28  1  0  0  0  0
 12 37  1  0  0  0  0
 13 15  1  0  0  0  0
 13 38  1  0  0  0  0
 14 15  1  0  0  0  0
 14 18  1  0  0  0  0
 15 16  2  0  0  0  0
 16 17  1  0  0  0  0
 17 18  2  0  0  0  0
 19 20  2  0  0  0  0
 19 17  1  0  0  0  0
 19 39  1  0  0  0  0
 20 21  1  0  0  0  0
 20 40  1  0  0  0  0
 21 22  2  0  0  0  0
 21 23  1  0  0  0  0
 22 18  1  0  0  0  0
 22 41  1  0  0  0  0
 23 24  1  0  0  0  0
 23 25  1  0  0  0  0
 23 26  1  0  0  0  0
 27 42  1  0  0  0  0
 27 43  1  0  0  0  0
 27 44  1  0  0  0  0
 28 29  1  0  0  0  0
 28 45  1  0  0  0  0
 28 46  1  0  0  0  0
 29 30  1  0  0  0  0
 29 47  1  0  0  0  0
 29 48  1  0  0  0  0
 30 31  1  0  0  0  0
 31 32  1  0  0  0  0
 31 49  1  0  0  0  0
 31 50  1  0  0  0  0
 32 33  1  0  0  0  0
 32 51  1  0  0  0  0
 32 52  1  0  0  0  0
 33 53  1  0  0  0  0
M  END
>  <Mol_ID>
7521

>  <Formula>
C21H20F3N5O3S

>  <MolWeight>
479.4754096

>  <Cat>
E1339

>  <Name>
HPPE

>  <Target>
Nrf2

>  <Form>
free base

>  <CAS>
1325721-55-8

>  <URL>
https://www.selleckchem.com/products/hppe.html

$$$$
