HQNO
 OpenBabel08302521243D

 40 41  0  0  0  0  0  0  0  0999 V2000
   -2.3624    1.3151   -1.0092 C   0  0  0  0  0  0  0  0  0  0  0  0
   -2.1198    0.3510   -1.9872 C   0  0  0  0  0  0  0  0  0  0  0  0
   -0.9029   -0.3413   -2.0094 C   0  0  0  0  0  0  0  0  0  0  0  0
    0.0906   -0.0770   -1.0571 C   0  0  0  0  0  0  0  0  0  0  0  0
   -0.1939    0.8609   -0.0516 C   0  0  0  0  0  0  0  0  0  0  0  0
   -1.4021    1.5623   -0.0299 C   0  0  0  0  0  0  0  0  0  0  0  0
    1.3575   -0.7237   -1.0952 N   0  0  0  0  0  0  0  0  0  0  0  0
    2.2996   -0.5119   -0.0874 C   0  0  0  0  0  0  0  0  0  0  0  0
    2.0816    0.3507    0.9217 C   0  0  0  0  0  0  0  0  0  0  0  0
    0.8236    1.1187    0.9943 C   0  0  0  0  0  0  0  0  0  0  0  0
    0.6440    1.9285    1.8932 O   0  0  0  0  0  0  0  0  0  0  0  0
    3.6131   -1.2783   -0.1299 C   0  0  0  0  0  0  0  0  0  0  0  0
    3.8803   -2.1802    1.0842 C   0  0  0  0  0  0  0  0  0  0  0  0
    2.8329   -3.2829    1.2643 C   0  0  0  0  0  0  0  0  0  0  0  0
    3.1558   -4.1639    2.4759 C   0  0  0  0  0  0  0  0  0  0  0  0
    2.1274   -5.2749    2.7171 C   0  0  0  0  0  0  0  0  0  0  0  0
    2.0146   -6.2589    1.5523 C   0  0  0  0  0  0  0  0  0  0  0  0
    1.0005   -7.3553    1.8357 C   0  0  0  0  0  0  0  0  0  0  0  0
    1.7502   -1.3687   -2.2668 O   0  0  0  0  0  0  0  0  0  0  0  0
   -3.2990    1.8676   -1.0054 H   0  0  0  0  0  0  0  0  0  0  0  0
   -2.8796    0.1373   -2.7364 H   0  0  0  0  0  0  0  0  0  0  0  0
   -0.7402   -1.0999   -2.7714 H   0  0  0  0  0  0  0  0  0  0  0  0
   -1.5944    2.3048    0.7431 H   0  0  0  0  0  0  0  0  0  0  0  0
    2.7998    0.5376    1.7111 H   0  0  0  0  0  0  0  0  0  0  0  0
    3.6877   -1.8971   -1.0325 H   0  0  0  0  0  0  0  0  0  0  0  0
    4.4295   -0.5494   -0.2132 H   0  0  0  0  0  0  0  0  0  0  0  0
    4.8666   -2.6454    0.9513 H   0  0  0  0  0  0  0  0  0  0  0  0
    3.9452   -1.5775    1.9972 H   0  0  0  0  0  0  0  0  0  0  0  0
    1.8370   -2.8455    1.3967 H   0  0  0  0  0  0  0  0  0  0  0  0
    2.8065   -3.8862    0.3508 H   0  0  0  0  0  0  0  0  0  0  0  0
    4.1510   -4.6092    2.3568 H   0  0  0  0  0  0  0  0  0  0  0  0
    3.1979   -3.5350    3.3744 H   0  0  0  0  0  0  0  0  0  0  0  0
    2.4165   -5.8217    3.6240 H   0  0  0  0  0  0  0  0  0  0  0  0
    1.1477   -4.8257    2.9207 H   0  0  0  0  0  0  0  0  0  0  0  0
    1.7013   -5.7385    0.6420 H   0  0  0  0  0  0  0  0  0  0  0  0
    2.9926   -6.7111    1.3508 H   0  0  0  0  0  0  0  0  0  0  0  0
    0.0131   -6.9306    2.0420 H   0  0  0  0  0  0  0  0  0  0  0  0
    0.9097   -8.0156    0.9673 H   0  0  0  0  0  0  0  0  0  0  0  0
    1.3038   -7.9614    2.6948 H   0  0  0  0  0  0  0  0  0  0  0  0
    2.3669   -0.7226   -2.6612 H   0  0  0  0  0  0  0  0  0  0  0  0
  1  2  2  0  0  0  0
  1 20  1  0  0  0  0
  2  3  1  0  0  0  0
  2 21  1  0  0  0  0
  3  4  2  0  0  0  0
  3 22  1  0  0  0  0
  4  5  1  0  0  0  0
  4  7  1  0  0  0  0
  5  6  2  0  0  0  0
  6  1  1  0  0  0  0
  6 23  1  0  0  0  0
  7  8  1  0  0  0  0
  7 19  1  0  0  0  0
  8  9  2  0  0  0  0
  8 12  1  0  0  0  0
  9 10  1  0  0  0  0
  9 24  1  0  0  0  0
 10  5  1  0  0  0  0
 10 11  2  0  0  0  0
 12 13  1  0  0  0  0
 12 25  1  0  0  0  0
 12 26  1  0  0  0  0
 13 14  1  0  0  0  0
 13 27  1  0  0  0  0
 13 28  1  0  0  0  0
 14 15  1  0  0  0  0
 14 29  1  0  0  0  0
 14 30  1  0  0  0  0
 15 16  1  0  0  0  0
 15 31  1  0  0  0  0
 15 32  1  0  0  0  0
 16 17  1  0  0  0  0
 16 33  1  0  0  0  0
 16 34  1  0  0  0  0
 17 18  1  0  0  0  0
 17 35  1  0  0  0  0
 17 36  1  0  0  0  0
 18 37  1  0  0  0  0
 18 38  1  0  0  0  0
 18 39  1  0  0  0  0
 19 40  1  0  0  0  0
M  END
>  <Mol_ID>
4911

>  <Formula>
C16H21NO2

>  <MolWeight>
259.34344

>  <Cat>
S8970

>  <Name>
HQNO

>  <Synonyms>
2-heptyl-4-hydroxyquinoline-N-oxide

>  <Target>
Others

>  <Form>
Free Base

>  <CAS>
341-88-8

>  <URL>
http://www.selleckchem.com/products/hqno.html

$$$$
