HS-173.cdx
 OpenBabel08302519583D

 48 51  0  0  0  0  0  0  0  0999 V2000
   -0.5781   -1.0222    0.9217 C   0  0  0  0  0  0  0  0  0  0  0  0
   -1.2999    0.1025    0.8633 N   0  0  0  0  0  0  0  0  0  0  0  0
   -0.6144    1.2120    0.5191 C   0  0  0  0  0  0  0  0  0  0  0  0
    0.7740    1.3031    0.2983 C   0  0  0  0  0  0  0  0  0  0  0  0
    1.4732    0.0842    0.2970 C   0  0  0  0  0  0  0  0  0  0  0  0
    0.7753   -1.1020    0.5970 C   0  0  0  0  0  0  0  0  0  0  0  0
    1.3213   -2.4210    0.5110 N   0  0  0  0  0  0  0  0  0  0  0  0
    2.6076   -2.9391    1.3969 S   0  0  0  0  0  0  0  0  0  0  0  0
    1.3198    2.6772    0.0461 C   0  0  0  0  0  0  0  0  0  0  0  0
    0.5806    3.8510    0.5946 C   0  0  0  0  0  0  0  0  0  0  0  0
    0.5149    5.0149   -0.0805 C   0  0  0  0  0  0  0  0  0  0  0  0
    1.2525    5.0700   -1.2759 C   0  0  0  0  0  0  0  0  0  0  0  0
    2.4219    4.3087   -1.2863 N   0  0  0  0  0  0  0  0  0  0  0  0
    2.3657    2.9869   -0.7695 C   0  0  0  0  0  0  0  0  0  0  0  0
    0.9437    5.3169   -2.5447 N   0  0  0  0  0  0  0  0  0  0  0  0
    2.0902    4.9654   -3.2434 C   0  0  0  0  0  0  0  0  0  0  0  0
    3.1290    4.9173   -2.3150 C   0  0  0  0  0  0  0  0  0  0  0  0
    4.0564    6.0226   -2.1362 C   0  0  0  0  0  0  0  0  0  0  0  0
    4.3975    6.4877   -1.0573 O   0  0  0  0  0  0  0  0  0  0  0  0
    4.3406    6.5822   -3.3503 O   0  0  0  0  0  0  0  0  0  0  0  0
    4.9081    7.9075   -3.3559 C   0  0  0  0  0  0  0  0  0  0  0  0
    3.8053    8.9409   -3.5357 C   0  0  0  0  0  0  0  0  0  0  0  0
    2.5952   -4.3666    1.2210 O   0  0  0  0  0  0  0  0  0  0  0  0
    3.7930   -2.1735    1.0279 O   0  0  0  0  0  0  0  0  0  0  0  0
    2.2250   -2.6288    3.1032 C   0  0  0  0  0  0  0  0  0  0  0  0
    1.4000   -3.4998    3.8283 C   0  0  0  0  0  0  0  0  0  0  0  0
    1.3277   -3.3801    5.2149 C   0  0  0  0  0  0  0  0  0  0  0  0
    2.0706   -2.4008    5.8750 C   0  0  0  0  0  0  0  0  0  0  0  0
    2.8639   -1.5128    5.1504 C   0  0  0  0  0  0  0  0  0  0  0  0
    2.9334   -1.6142    3.7619 C   0  0  0  0  0  0  0  0  0  0  0  0
   -1.1381   -1.9077    1.2154 H   0  0  0  0  0  0  0  0  0  0  0  0
   -1.2653    2.0803    0.4088 H   0  0  0  0  0  0  0  0  0  0  0  0
    2.5210    0.0458    0.0284 H   0  0  0  0  0  0  0  0  0  0  0  0
    0.7161   -3.1597    0.1651 H   0  0  0  0  0  0  0  0  0  0  0  0
    0.0714    3.7407    1.5493 H   0  0  0  0  0  0  0  0  0  0  0  0
   -0.0329    5.8786    0.2729 H   0  0  0  0  0  0  0  0  0  0  0  0
    3.0293    2.2657   -1.2279 H   0  0  0  0  0  0  0  0  0  0  0  0
    2.1511    5.1173   -4.3139 H   0  0  0  0  0  0  0  0  0  0  0  0
    5.4954    8.1148   -2.4543 H   0  0  0  0  0  0  0  0  0  0  0  0
    5.5913    7.9614   -4.2104 H   0  0  0  0  0  0  0  0  0  0  0  0
    3.1286    8.9465   -2.6751 H   0  0  0  0  0  0  0  0  0  0  0  0
    4.2240    9.9455   -3.6538 H   0  0  0  0  0  0  0  0  0  0  0  0
    3.1973    8.7122   -4.4180 H   0  0  0  0  0  0  0  0  0  0  0  0
    0.8712   -4.3081    3.3261 H   0  0  0  0  0  0  0  0  0  0  0  0
    0.7204   -4.0710    5.7885 H   0  0  0  0  0  0  0  0  0  0  0  0
    2.0461   -2.3387    6.9598 H   0  0  0  0  0  0  0  0  0  0  0  0
    3.4512   -0.7598    5.6659 H   0  0  0  0  0  0  0  0  0  0  0  0
    3.5988   -0.9540    3.2097 H   0  0  0  0  0  0  0  0  0  0  0  0
  1  2  2  0  0  0  0
  1 31  1  0  0  0  0
  2  3  1  0  0  0  0
  3  4  2  0  0  0  0
  3 32  1  0  0  0  0
  4  5  1  0  0  0  0
  4  9  1  0  0  0  0
  5  6  2  0  0  0  0
  5 33  1  0  0  0  0
  6  1  1  0  0  0  0
  6  7  1  0  0  0  0
  7  8  1  0  0  0  0
  7 34  1  0  0  0  0
  8 23  2  0  0  0  0
  8 24  2  0  0  0  0
  8 25  1  0  0  0  0
  9 10  1  0  0  0  0
 10 11  2  0  0  0  0
 10 35  1  0  0  0  0
 11 36  1  0  0  0  0
 12 13  1  0  0  0  0
 12 15  2  0  0  0  0
 12 11  1  0  0  0  0
 14  9  2  0  0  0  0
 14 13  1  0  0  0  0
 14 37  1  0  0  0  0
 15 16  1  0  0  0  0
 16 17  2  0  0  0  0
 16 38  1  0  0  0  0
 17 13  1  0  0  0  0
 17 18  1  0  0  0  0
 18 19  2  0  0  0  0
 18 20  1  0  0  0  0
 20 21  1  0  0  0  0
 21 22  1  0  0  0  0
 21 39  1  0  0  0  0
 21 40  1  0  0  0  0
 22 41  1  0  0  0  0
 22 42  1  0  0  0  0
 22 43  1  0  0  0  0
 25 26  2  0  0  0  0
 26 27  1  0  0  0  0
 26 44  1  0  0  0  0
 27 28  2  0  0  0  0
 27 45  1  0  0  0  0
 28 29  1  0  0  0  0
 28 46  1  0  0  0  0
 29 30  2  0  0  0  0
 29 47  1  0  0  0  0
 30 25  1  0  0  0  0
 30 48  1  0  0  0  0
M  END
>  <Mol_ID>
2404

>  <Formula>
C21H18N4O4S

>  <MolWeight>
422.45702

>  <Cat>
S7356

>  <Name>
HS-173

>  <Synonyms>
N/A

>  <Target>
PI3K

>  <Form>
free base

>  <CAS>
1276110-06-5

>  <URL>
http://selleckchem.com/products/hs-173.html

$$$$
