HS-276
 OpenBabel08302521453D

 60 63  0  0  0  0  0  0  0  0999 V2000
    4.7361    1.1364    2.6855 C   0  0  0  0  0  0  0  0  0  0  0  0
    5.9243    0.2147    2.4493 C   0  0  0  0  0  0  0  0  0  0  0  0
    6.2161    0.1253    0.9602 C   0  0  0  0  0  0  0  0  0  0  0  0
    4.9661   -0.2634    0.1676 C   0  0  0  0  0  0  0  0  0  0  0  0
    3.8314    0.6442    0.4133 N   0  0  0  0  0  0  0  0  0  0  0  0
    3.5264    0.7001    1.8564 C   0  0  0  0  0  0  0  0  0  0  0  0
    2.6066    0.2454   -0.3212 C   0  0  0  0  0  0  0  0  0  0  0  0
    2.7455    0.1957   -1.8339 C   0  0  0  0  0  0  0  0  0  0  0  0
    2.4104    1.2830   -2.6555 C   0  0  0  0  0  0  0  0  0  0  0  0
    2.5453    1.2136   -4.0609 C   0  0  0  0  0  0  0  0  0  0  0  0
    3.1043    0.0607   -4.6385 C   0  0  0  0  0  0  0  0  0  0  0  0
    3.4957   -0.9646   -3.7953 C   0  0  0  0  0  0  0  0  0  0  0  0
    3.2555   -0.9708   -2.4193 C   0  0  0  0  0  0  0  0  0  0  0  0
    3.3540   -0.2872   -5.9500 N   0  0  0  0  0  0  0  0  0  0  0  0
    3.9139   -1.4795   -5.9179 C   0  0  0  0  0  0  0  0  0  0  0  0
    4.1916   -1.8267   -4.6119 N   0  0  0  0  0  0  0  0  0  0  0  0
    4.2090   -2.3354   -6.9558 N   0  0  0  0  0  0  0  0  0  0  0  0
    3.9767   -2.0782   -8.2926 C   0  0  0  0  0  0  0  0  0  0  0  0
    3.5025   -1.0669   -8.7949 O   0  0  0  0  0  0  0  0  0  0  0  0
    4.3198   -3.2287   -9.1996 C   0  0  0  0  0  0  0  0  0  0  0  0
    3.6177   -3.3934  -10.4017 C   0  0  0  0  0  0  0  0  0  0  0  0
    3.8431   -4.5167  -11.2080 C   0  0  0  0  0  0  0  0  0  0  0  0
    4.7685   -5.4906  -10.8176 C   0  0  0  0  0  0  0  0  0  0  0  0
    5.5055   -5.3167   -9.6422 C   0  0  0  0  0  0  0  0  0  0  0  0
    5.2971   -4.1729   -8.8562 C   0  0  0  0  0  0  0  0  0  0  0  0
    6.4564   -6.3331   -9.1149 C   0  0  0  0  0  0  0  0  0  0  0  0
    6.9291   -7.2833   -9.9712 N   0  0  0  0  0  0  0  0  0  0  0  0
    6.8152   -6.3164   -7.9403 O   0  0  0  0  0  0  0  0  0  0  0  0
    5.0816   -2.8341   -4.0712 C   0  0  0  0  0  0  0  0  0  0  0  0
    6.4145   -3.1289   -4.7635 C   0  0  0  0  0  0  0  0  0  0  0  0
    7.2826   -1.9116   -5.0417 C   0  0  0  0  0  0  0  0  0  0  0  0
    4.4764    1.1355    3.7500 H   0  0  0  0  0  0  0  0  0  0  0  0
    5.0114    2.1654    2.4224 H   0  0  0  0  0  0  0  0  0  0  0  0
    6.8054    0.5844    2.9850 H   0  0  0  0  0  0  0  0  0  0  0  0
    5.7025   -0.7851    2.8428 H   0  0  0  0  0  0  0  0  0  0  0  0
    6.5918    1.0913    0.6005 H   0  0  0  0  0  0  0  0  0  0  0  0
    7.0086   -0.6110    0.7817 H   0  0  0  0  0  0  0  0  0  0  0  0
    5.2584   -0.2322   -0.8866 H   0  0  0  0  0  0  0  0  0  0  0  0
    4.6931   -1.2993    0.4094 H   0  0  0  0  0  0  0  0  0  0  0  0
    3.1804   -0.2791    2.2154 H   0  0  0  0  0  0  0  0  0  0  0  0
    2.7162    1.4165    2.0368 H   0  0  0  0  0  0  0  0  0  0  0  0
    2.2526   -0.7354    0.0285 H   0  0  0  0  0  0  0  0  0  0  0  0
    1.7995    0.9520   -0.0856 H   0  0  0  0  0  0  0  0  0  0  0  0
    2.0328    2.2014   -2.2091 H   0  0  0  0  0  0  0  0  0  0  0  0
    2.2514    2.0474   -4.6891 H   0  0  0  0  0  0  0  0  0  0  0  0
    3.5219   -1.8252   -1.8059 H   0  0  0  0  0  0  0  0  0  0  0  0
    4.4934   -3.2638   -6.6945 H   0  0  0  0  0  0  0  0  0  0  0  0
    2.8728   -2.6588  -10.7041 H   0  0  0  0  0  0  0  0  0  0  0  0
    3.2771   -4.6455  -12.1273 H   0  0  0  0  0  0  0  0  0  0  0  0
    4.8802   -6.3809  -11.4306 H   0  0  0  0  0  0  0  0  0  0  0  0
    5.9155   -4.0367   -7.9736 H   0  0  0  0  0  0  0  0  0  0  0  0
    7.6154   -7.9294   -9.5973 H   0  0  0  0  0  0  0  0  0  0  0  0
    6.8184   -7.2487  -10.9719 H   0  0  0  0  0  0  0  0  0  0  0  0
    5.3431   -2.5054   -3.0572 H   0  0  0  0  0  0  0  0  0  0  0  0
    4.4920   -3.7507   -3.9670 H   0  0  0  0  0  0  0  0  0  0  0  0
    6.9774   -3.7987   -4.1004 H   0  0  0  0  0  0  0  0  0  0  0  0
    6.2608   -3.6900   -5.6872 H   0  0  0  0  0  0  0  0  0  0  0  0
    7.3564   -1.2574   -4.1677 H   0  0  0  0  0  0  0  0  0  0  0  0
    8.2957   -2.2359   -5.3050 H   0  0  0  0  0  0  0  0  0  0  0  0
    6.8975   -1.3288   -5.8832 H   0  0  0  0  0  0  0  0  0  0  0  0
  1  2  1  0  0  0  0
  1 32  1  0  0  0  0
  1 33  1  0  0  0  0
  2  3  1  0  0  0  0
  2 34  1  0  0  0  0
  2 35  1  0  0  0  0
  3  4  1  0  0  0  0
  3 36  1  0  0  0  0
  3 37  1  0  0  0  0
  4  5  1  0  0  0  0
  4 38  1  0  0  0  0
  4 39  1  0  0  0  0
  5  6  1  0  0  0  0
  5  7  1  0  0  0  0
  6  1  1  0  0  0  0
  6 40  1  0  0  0  0
  6 41  1  0  0  0  0
  7  8  1  0  0  0  0
  7 42  1  0  0  0  0
  7 43  1  0  0  0  0
  8  9  2  0  0  0  0
  9 10  1  0  0  0  0
  9 44  1  0  0  0  0
 10 11  2  0  0  0  0
 10 45  1  0  0  0  0
 11 12  1  0  0  0  0
 11 14  1  0  0  0  0
 12 13  2  0  0  0  0
 13  8  1  0  0  0  0
 13 46  1  0  0  0  0
 14 15  2  0  0  0  0
 15 16  1  0  0  0  0
 15 17  1  0  0  0  0
 16 12  1  0  0  0  0
 16 29  1  0  0  0  0
 17 18  1  0  0  0  0
 17 47  1  0  0  0  0
 18 19  2  0  0  0  0
 18 20  1  0  0  0  0
 20 21  2  0  0  0  0
 21 22  1  0  0  0  0
 21 48  1  0  0  0  0
 22 23  2  0  0  0  0
 22 49  1  0  0  0  0
 23 24  1  0  0  0  0
 23 50  1  0  0  0  0
 24 25  2  0  0  0  0
 24 26  1  0  0  0  0
 25 20  1  0  0  0  0
 25 51  1  0  0  0  0
 26 27  1  0  0  0  0
 26 28  2  0  0  0  0
 27 52  1  0  0  0  0
 27 53  1  0  0  0  0
 29 30  1  0  0  0  0
 29 54  1  0  0  0  0
 29 55  1  0  0  0  0
 30 31  1  0  0  0  0
 30 56  1  0  0  0  0
 30 57  1  0  0  0  0
 31 58  1  0  0  0  0
 31 59  1  0  0  0  0
 31 60  1  0  0  0  0
M  END
>  <Mol_ID>
9470

>  <Formula>
C24H29N5O2

>  <MolWeight>
419.51936

>  <Cat>
E1155

>  <Name>
HS-276

>  <Synonyms>
N/A

>  <Target>
TAK1

>  <Form>
Free base

>  <CAS>
2767422-72-8

>  <URL>
http://www.selleckchem.com/products/hs-276.html

$$$$
