HS-243
 OpenBabel08302521303D

 40 42  0  0  0  0  0  0  0  0999 V2000
    2.1505    0.5203    0.2255 C   0  0  0  0  0  0  0  0  0  0  0  0
    2.0708   -0.8762    0.0606 C   0  0  0  0  0  0  0  0  0  0  0  0
    0.8327   -1.5280   -0.0074 C   0  0  0  0  0  0  0  0  0  0  0  0
   -0.3056   -0.7549    0.0739 C   0  0  0  0  0  0  0  0  0  0  0  0
   -0.2159    0.6417    0.2513 C   0  0  0  0  0  0  0  0  0  0  0  0
    0.9925    1.2962    0.3231 C   0  0  0  0  0  0  0  0  0  0  0  0
   -1.6607   -1.0668   -0.0471 N   0  0  0  0  0  0  0  0  0  0  0  0
   -2.4173    0.1164   -0.0052 C   0  0  0  0  0  0  0  0  0  0  0  0
   -1.5072    1.1571    0.1619 N   0  0  0  0  0  0  0  0  0  0  0  0
   -2.1997   -2.4093   -0.0661 C   0  0  0  0  0  0  0  0  0  0  0  0
   -2.5403   -2.9273    1.3374 C   0  0  0  0  0  0  0  0  0  0  0  0
   -3.6125   -2.1246    2.0600 C   0  0  0  0  0  0  0  0  0  0  0  0
   -3.7032    0.1686   -0.1185 N   0  0  0  0  0  0  0  0  0  0  0  0
   -4.3152    1.3943   -0.0887 C   0  0  0  0  0  0  0  0  0  0  0  0
   -5.6508    1.4580   -0.7648 C   0  0  0  0  0  0  0  0  0  0  0  0
   -3.8533    2.4097    0.4279 O   0  0  0  0  0  0  0  0  0  0  0  0
   -6.2363    0.3214   -1.3427 C   0  0  0  0  0  0  0  0  0  0  0  0
   -7.4477    0.4482   -2.0397 C   0  0  0  0  0  0  0  0  0  0  0  0
   -8.0937    1.6881   -2.1364 C   0  0  0  0  0  0  0  0  0  0  0  0
   -7.5216    2.8098   -1.5350 C   0  0  0  0  0  0  0  0  0  0  0  0
   -6.3063    2.6961   -0.8573 C   0  0  0  0  0  0  0  0  0  0  0  0
   -8.0327   -0.7250   -2.7032 N   0  3  0  0  0  0  0  0  0  0  0  0
   -7.4252   -1.8010   -2.6182 O   0  5  0  0  0  0  0  0  0  0  0  0
   -9.0993   -0.5681   -3.3176 O   0  0  0  0  0  0  0  0  0  0  0  0
    3.1252    1.0024    0.2531 H   0  0  0  0  0  0  0  0  0  0  0  0
    2.9885   -1.4533   -0.0398 H   0  0  0  0  0  0  0  0  0  0  0  0
    0.7884   -2.5983   -0.1635 H   0  0  0  0  0  0  0  0  0  0  0  0
    1.0481    2.3738    0.4215 H   0  0  0  0  0  0  0  0  0  0  0  0
   -1.8022    2.0700    0.4758 H   0  0  0  0  0  0  0  0  0  0  0  0
   -3.0963   -2.4413   -0.6957 H   0  0  0  0  0  0  0  0  0  0  0  0
   -1.4897   -3.1022   -0.5328 H   0  0  0  0  0  0  0  0  0  0  0  0
   -2.8970   -3.9602    1.2388 H   0  0  0  0  0  0  0  0  0  0  0  0
   -1.6369   -2.9611    1.9591 H   0  0  0  0  0  0  0  0  0  0  0  0
   -4.4860   -1.9596    1.4231 H   0  0  0  0  0  0  0  0  0  0  0  0
   -3.9507   -2.6595    2.9556 H   0  0  0  0  0  0  0  0  0  0  0  0
   -3.2274   -1.1538    2.3897 H   0  0  0  0  0  0  0  0  0  0  0  0
   -5.7422   -0.6441   -1.2625 H   0  0  0  0  0  0  0  0  0  0  0  0
   -9.0316    1.7991   -2.6790 H   0  0  0  0  0  0  0  0  0  0  0  0
   -8.0138    3.7788   -1.6069 H   0  0  0  0  0  0  0  0  0  0  0  0
   -5.8606    3.5838   -0.4103 H   0  0  0  0  0  0  0  0  0  0  0  0
  1  2  2  0  0  0  0
  1 25  1  0  0  0  0
  2  3  1  0  0  0  0
  2 26  1  0  0  0  0
  3  4  2  0  0  0  0
  3 27  1  0  0  0  0
  4  5  1  0  0  0  0
  4  7  1  0  0  0  0
  5  6  2  0  0  0  0
  6  1  1  0  0  0  0
  6 28  1  0  0  0  0
  7  8  1  0  0  0  0
  7 10  1  0  0  0  0
  8  9  1  0  0  0  0
  8 13  2  0  0  0  0
  9  5  1  0  0  0  0
  9 29  1  0  0  0  0
 10 11  1  0  0  0  0
 10 30  1  0  0  0  0
 10 31  1  0  0  0  0
 11 12  1  0  0  0  0
 11 32  1  0  0  0  0
 11 33  1  0  0  0  0
 12 34  1  0  0  0  0
 12 35  1  0  0  0  0
 12 36  1  0  0  0  0
 13 14  1  0  0  0  0
 14 15  1  0  0  0  0
 14 16  2  0  0  0  0
 15 17  2  0  0  0  0
 17 18  1  0  0  0  0
 17 37  1  0  0  0  0
 18 19  2  0  0  0  0
 18 22  1  0  0  0  0
 19 20  1  0  0  0  0
 19 38  1  0  0  0  0
 20 21  2  0  0  0  0
 20 39  1  0  0  0  0
 21 15  1  0  0  0  0
 21 40  1  0  0  0  0
 22 23  1  0  0  0  0
 22 24  2  0  0  0  0
M  CHG  2  22   1  23  -1
M  END
>  <Mol_ID>
5566

>  <Formula>
C17H16N4O3

>  <MolWeight>
324.33394

>  <Cat>
S9701

>  <Name>
HS-243

>  <Synonyms>
N/A

>  <Target>
IRAK

>  <Form>
Free Base

>  <CAS>
848249-10-5

>  <URL>
https://www.selleckchem.com/products/hs-243.html

$$$$
