HS148
 OpenBabel08302521453D

 38 40  0  0  0  0  0  0  0  0999 V2000
    1.0421    0.1304    0.1993 O   0  0  0  0  0  0  0  0  0  0  0  0
    5.2722    2.6876    0.0168 S   0  0  0  0  0  0  0  0  0  0  0  0
    4.1229    3.9153    0.7573 C   0  0  3  0  0  0  0  0  0  0  0  0
    3.9291    3.5695    2.2392 C   0  0  0  0  0  0  0  0  0  0  0  0
    4.6476    5.3534    0.5978 C   0  0  0  0  0  0  0  0  0  0  0  0
    2.7940    2.8683    2.5376 N   0  0  0  0  0  0  0  0  0  0  0  0
    4.7299    3.8446    3.1286 O   0  0  0  0  0  0  0  0  0  0  0  0
    4.6948    5.8299   -0.8527 C   0  0  0  0  0  0  0  0  0  0  0  0
    9.4194   -2.0069    1.3523 F   0  0  0  0  0  0  0  0  0  0  0  0
    4.3837   -1.0913    0.1220 C   0  0  0  0  0  0  0  0  0  0  0  0
    4.8265   -2.3915    0.0303 N   0  0  0  0  0  0  0  0  0  0  0  0
    3.0170   -1.1085    0.0901 C   0  0  0  0  0  0  0  0  0  0  0  0
    5.0543    0.0755    0.1360 N   0  0  0  0  0  0  0  0  0  0  0  0
    3.7711   -3.2426   -0.1297 N   0  0  0  0  0  0  0  0  0  0  0  0
    2.2595    0.1255    0.1327 C   0  0  0  0  0  0  0  0  0  0  0  0
    2.6852   -2.4608   -0.0266 C   0  0  0  0  0  0  0  0  0  0  0  0
    4.3070    1.2298    0.0953 C   0  0  0  0  0  0  0  0  0  0  0  0
    3.0114    1.2982    0.0802 N   0  0  0  0  0  0  0  0  0  0  0  0
    6.1573   -2.8692    0.0334 C   0  0  0  0  0  0  0  0  0  0  0  0
    7.1601   -2.1801    0.7263 C   0  0  0  0  0  0  0  0  0  0  0  0
    6.4705   -4.0360   -0.6813 C   0  0  0  0  0  0  0  0  0  0  0  0
    8.4650   -2.6486    0.6665 C   0  0  0  0  0  0  0  0  0  0  0  0
    7.7964   -4.4642   -0.7655 C   0  0  0  0  0  0  0  0  0  0  0  0
    8.7975   -3.7670   -0.0894 C   0  0  0  0  0  0  0  0  0  0  0  0
    3.1591    3.8576    0.2458 H   0  0  0  0  0  0  0  0  0  0  0  0
    3.9783    6.0309    1.1464 H   0  0  0  0  0  0  0  0  0  0  0  0
    5.6367    5.4767    1.0562 H   0  0  0  0  0  0  0  0  0  0  0  0
    2.6214    2.6150    3.5010 H   0  0  0  0  0  0  0  0  0  0  0  0
    2.0607    2.7062    1.8557 H   0  0  0  0  0  0  0  0  0  0  0  0
    3.7020    5.7804   -1.3118 H   0  0  0  0  0  0  0  0  0  0  0  0
    5.0332    6.8704   -0.9000 H   0  0  0  0  0  0  0  0  0  0  0  0
    5.3836    5.2340   -1.4584 H   0  0  0  0  0  0  0  0  0  0  0  0
    6.0577    0.1797    0.0254 H   0  0  0  0  0  0  0  0  0  0  0  0
    1.7031   -2.9172   -0.0799 H   0  0  0  0  0  0  0  0  0  0  0  0
    6.9514   -1.3296    1.3630 H   0  0  0  0  0  0  0  0  0  0  0  0
    5.6974   -4.5906   -1.2133 H   0  0  0  0  0  0  0  0  0  0  0  0
    8.0487   -5.3376   -1.3627 H   0  0  0  0  0  0  0  0  0  0  0  0
    9.8314   -4.0923   -0.1391 H   0  0  0  0  0  0  0  0  0  0  0  0
  1 15  2  0  0  0  0
  2  3  1  0  0  0  0
  2 17  1  0  0  0  0
  3  4  1  0  0  0  0
  3  5  1  0  0  0  0
  3 25  1  0  0  0  0
  4  6  1  0  0  0  0
  4  7  2  0  0  0  0
  5  8  1  0  0  0  0
  5 26  1  0  0  0  0
  5 27  1  0  0  0  0
  6 28  1  0  0  0  0
  6 29  1  0  0  0  0
  8 30  1  0  0  0  0
  8 31  1  0  0  0  0
  8 32  1  0  0  0  0
  9 22  1  0  0  0  0
 10 11  1  0  0  0  0
 10 12  2  0  0  0  0
 10 13  1  0  0  0  0
 11 14  1  0  0  0  0
 11 19  1  0  0  0  0
 12 15  1  0  0  0  0
 12 16  1  0  0  0  0
 13 17  1  0  0  0  0
 13 33  1  0  0  0  0
 14 16  2  0  0  0  0
 15 18  1  0  0  0  0
 16 34  1  0  0  0  0
 17 18  2  0  0  0  0
 19 20  2  0  0  0  0
 19 21  1  0  0  0  0
 20 22  1  0  0  0  0
 20 35  1  0  0  0  0
 21 23  2  0  0  0  0
 21 36  1  0  0  0  0
 22 24  2  0  0  0  0
 23 24  1  0  0  0  0
 23 37  1  0  0  0  0
 24 38  1  0  0  0  0
M  END
>  <Mol_ID>
9542

>  <Formula>
C15H14FN5O2S

>  <MolWeight>
347.3673632

>  <Cat>
E1345

>  <Name>
HS148

>  <Synonyms>
DAPK3 inhibitor HS148

>  <Target>
DAPK

>  <Form>
Free Base

>  <CAS>
1892595-16-2

>  <URL>
https://www.selleckchem.com/products/hs148.html

$$$$
