HS94
 OpenBabel08302521373D

 38 40  0  0  0  0  0  0  0  0999 V2000
    0.9259    0.0446    0.0493 O   0  0  0  0  0  0  0  0  0  0  0  0
    5.1607    2.6364    0.0319 S   0  0  0  0  0  0  0  0  0  0  0  0
    5.4215    2.9605   -1.7737 C   0  0  0  0  0  0  0  0  0  0  0  0
    6.2953    4.2438   -1.9383 C   0  0  0  0  0  0  0  0  0  0  0  0
    6.0176    1.7282   -2.4724 C   0  0  0  0  0  0  0  0  0  0  0  0
    4.0666    3.2638   -2.4135 C   0  0  0  0  0  0  0  0  0  0  0  0
    7.5336    4.2797   -1.3578 N   0  0  0  0  0  0  0  0  0  0  0  0
    5.9468    5.2176   -2.6066 O   0  0  0  0  0  0  0  0  0  0  0  0
    4.2682   -1.1630    0.0646 C   0  0  0  0  0  0  0  0  0  0  0  0
    4.7107   -2.4610   -0.0428 N   0  0  0  0  0  0  0  0  0  0  0  0
    2.9049   -1.1817    0.0115 C   0  0  0  0  0  0  0  0  0  0  0  0
    4.9447    0.0024    0.0960 N   0  0  0  0  0  0  0  0  0  0  0  0
    3.6627   -3.3133   -0.2144 N   0  0  0  0  0  0  0  0  0  0  0  0
    2.5742   -2.5360   -0.1070 C   0  0  0  0  0  0  0  0  0  0  0  0
    2.1420    0.0545    0.0364 C   0  0  0  0  0  0  0  0  0  0  0  0
    4.2004    1.1589    0.0341 C   0  0  0  0  0  0  0  0  0  0  0  0
    2.9073    1.2240    0.0177 N   0  0  0  0  0  0  0  0  0  0  0  0
    6.0403   -2.9306   -0.0477 C   0  0  0  0  0  0  0  0  0  0  0  0
    7.0342   -2.2389    0.6529 C   0  0  0  0  0  0  0  0  0  0  0  0
    6.3509   -4.0870   -0.7723 C   0  0  0  0  0  0  0  0  0  0  0  0
    8.3483   -2.7004    0.6105 C   0  0  0  0  0  0  0  0  0  0  0  0
    7.6781   -4.5012   -0.8632 C   0  0  0  0  0  0  0  0  0  0  0  0
    8.6726   -3.8112   -0.1689 C   0  0  0  0  0  0  0  0  0  0  0  0
    5.3587    0.8605   -2.3565 H   0  0  0  0  0  0  0  0  0  0  0  0
    6.1127    1.8975   -3.5525 H   0  0  0  0  0  0  0  0  0  0  0  0
    7.0114    1.4431   -2.1093 H   0  0  0  0  0  0  0  0  0  0  0  0
    3.3919    2.4111   -2.3362 H   0  0  0  0  0  0  0  0  0  0  0  0
    3.5861    4.1351   -1.9578 H   0  0  0  0  0  0  0  0  0  0  0  0
    4.1863    3.4876   -3.4800 H   0  0  0  0  0  0  0  0  0  0  0  0
    8.0040    5.1778   -1.4189 H   0  0  0  0  0  0  0  0  0  0  0  0
    7.7124    3.7545   -0.5100 H   0  0  0  0  0  0  0  0  0  0  0  0
    5.9495    0.0902    0.0025 H   0  0  0  0  0  0  0  0  0  0  0  0
    1.5943   -2.9924   -0.1620 H   0  0  0  0  0  0  0  0  0  0  0  0
    6.7951   -1.3872    1.2817 H   0  0  0  0  0  0  0  0  0  0  0  0
    5.5766   -4.6371   -1.3047 H   0  0  0  0  0  0  0  0  0  0  0  0
    9.1201   -2.2028    1.1913 H   0  0  0  0  0  0  0  0  0  0  0  0
    7.9365   -5.3612   -1.4756 H   0  0  0  0  0  0  0  0  0  0  0  0
    9.7043   -4.1499   -0.2274 H   0  0  0  0  0  0  0  0  0  0  0  0
  1 15  2  0  0  0  0
  2  3  1  0  0  0  0
  2 16  1  0  0  0  0
  3  4  1  0  0  0  0
  3  5  1  0  0  0  0
  3  6  1  0  0  0  0
  4  7  1  0  0  0  0
  4  8  2  0  0  0  0
  5 24  1  0  0  0  0
  5 25  1  0  0  0  0
  5 26  1  0  0  0  0
  6 27  1  0  0  0  0
  6 28  1  0  0  0  0
  6 29  1  0  0  0  0
  7 30  1  0  0  0  0
  7 31  1  0  0  0  0
  9 10  1  0  0  0  0
  9 11  2  0  0  0  0
  9 12  1  0  0  0  0
 10 13  1  0  0  0  0
 10 18  1  0  0  0  0
 11 14  1  0  0  0  0
 11 15  1  0  0  0  0
 12 16  1  0  0  0  0
 12 32  1  0  0  0  0
 13 14  2  0  0  0  0
 14 33  1  0  0  0  0
 15 17  1  0  0  0  0
 16 17  2  0  0  0  0
 18 19  2  0  0  0  0
 18 20  1  0  0  0  0
 19 21  1  0  0  0  0
 19 34  1  0  0  0  0
 20 22  2  0  0  0  0
 20 35  1  0  0  0  0
 21 23  2  0  0  0  0
 21 36  1  0  0  0  0
 22 23  1  0  0  0  0
 22 37  1  0  0  0  0
 23 38  1  0  0  0  0
M  END
>  <Mol_ID>
7523

>  <Formula>
C15H15N5O2S

>  <MolWeight>
329.3769

>  <Cat>
E1346

>  <Name>
HS94

>  <Synonyms>
DAPK3 inhibitor HS94

>  <Target>
DAPK

>  <Form>
free base

>  <CAS>
1892594-93-2

>  <URL>
https://www.selleckchem.com/products/hs94.html

$$$$
