HSF1A
 OpenBabel08302521243D

 47 50  0  0  0  0  0  0  0  0999 V2000
   -1.1382    1.4414   -1.1124 S   0  0  0  0  0  0  0  0  0  0  0  0
    4.8075    4.3082   -2.5861 S   0  0  0  0  0  0  0  0  0  0  0  0
   -1.9267    0.4506   -0.4152 O   0  0  0  0  0  0  0  0  0  0  0  0
   -0.7511    1.2217   -2.4949 O   0  0  0  0  0  0  0  0  0  0  0  0
    1.0194    3.8620    0.6112 N   0  0  0  0  0  0  0  0  0  0  0  0
    0.3281    1.5475   -0.2409 N   0  0  0  0  0  0  0  0  0  0  0  0
    1.9902    4.7796    0.3206 N   0  0  0  0  0  0  0  0  0  0  0  0
    1.0732    2.7866   -0.2685 C   0  0  0  0  0  0  0  0  0  0  0  0
   -2.0120    2.9821   -1.0475 C   0  0  0  0  0  0  0  0  0  0  0  0
    2.1104    3.0353   -1.1365 C   0  0  0  0  0  0  0  0  0  0  0  0
    2.6960    4.2370   -0.6787 C   0  0  0  0  0  0  0  0  0  0  0  0
   -3.4451    5.3893   -0.9712 C   0  0  0  0  0  0  0  0  0  0  0  0
    0.1540    4.0523    1.7203 C   0  0  0  0  0  0  0  0  0  0  0  0
   -1.5155    4.1047   -1.7098 C   0  0  0  0  0  0  0  0  0  0  0  0
   -3.2717    3.0293   -0.4385 C   0  0  0  0  0  0  0  0  0  0  0  0
   -2.2172    5.3107   -1.6449 C   0  0  0  0  0  0  0  0  0  0  0  0
   -3.9878    4.2275   -0.4087 C   0  0  0  0  0  0  0  0  0  0  0  0
   -4.1763    6.7039   -0.8698 C   0  0  0  0  0  0  0  0  0  0  0  0
    3.9707    4.8508   -1.1943 C   0  0  0  0  0  0  0  0  0  0  0  0
   -0.0638    5.3458    2.2153 C   0  0  0  0  0  0  0  0  0  0  0  0
   -0.4938    2.9661    2.3216 C   0  0  0  0  0  0  0  0  0  0  0  0
   -5.1104    6.9394   -2.0452 C   0  0  0  0  0  0  0  0  0  0  0  0
    4.6366    5.8957   -0.5828 C   0  0  0  0  0  0  0  0  0  0  0  0
   -0.9649    5.5473    3.2655 C   0  0  0  0  0  0  0  0  0  0  0  0
   -1.3793    3.1726    3.3792 C   0  0  0  0  0  0  0  0  0  0  0  0
   -1.6243    4.4609    3.8449 C   0  0  0  0  0  0  0  0  0  0  0  0
    5.8297    6.2633   -1.2775 C   0  0  0  0  0  0  0  0  0  0  0  0
    6.0274    5.4938   -2.4021 C   0  0  0  0  0  0  0  0  0  0  0  0
    0.8940    0.8104   -0.6748 H   0  0  0  0  0  0  0  0  0  0  0  0
    2.4464    2.4049   -1.9469 H   0  0  0  0  0  0  0  0  0  0  0  0
   -0.5898    4.0574   -2.2766 H   0  0  0  0  0  0  0  0  0  0  0  0
   -3.7166    2.1377   -0.0001 H   0  0  0  0  0  0  0  0  0  0  0  0
   -1.8012    6.1943   -2.1251 H   0  0  0  0  0  0  0  0  0  0  0  0
   -4.9698    4.2513    0.0609 H   0  0  0  0  0  0  0  0  0  0  0  0
   -4.7442    6.7386    0.0681 H   0  0  0  0  0  0  0  0  0  0  0  0
   -3.4463    7.5205   -0.8078 H   0  0  0  0  0  0  0  0  0  0  0  0
    0.4265    6.2074    1.7690 H   0  0  0  0  0  0  0  0  0  0  0  0
   -0.3047    1.9403    2.0243 H   0  0  0  0  0  0  0  0  0  0  0  0
   -5.9066    6.1883   -2.0740 H   0  0  0  0  0  0  0  0  0  0  0  0
   -5.5783    7.9260   -1.9626 H   0  0  0  0  0  0  0  0  0  0  0  0
   -4.5716    6.8977   -2.9973 H   0  0  0  0  0  0  0  0  0  0  0  0
    4.2972    6.3655    0.3331 H   0  0  0  0  0  0  0  0  0  0  0  0
   -1.1619    6.5520    3.6245 H   0  0  0  0  0  0  0  0  0  0  0  0
   -1.8744    2.3198    3.8392 H   0  0  0  0  0  0  0  0  0  0  0  0
   -2.3246    4.6179    4.6593 H   0  0  0  0  0  0  0  0  0  0  0  0
    6.5044    7.0534   -0.9695 H   0  0  0  0  0  0  0  0  0  0  0  0
    6.8355    5.5620   -3.1187 H   0  0  0  0  0  0  0  0  0  0  0  0
  1  3  2  0  0  0  0
  1  4  2  0  0  0  0
  1  6  1  0  0  0  0
  1  9  1  0  0  0  0
  2 19  1  0  0  0  0
  2 28  1  0  0  0  0
  5  7  1  0  0  0  0
  5  8  1  0  0  0  0
  5 13  1  0  0  0  0
  6  8  1  0  0  0  0
  6 29  1  0  0  0  0
  7 11  2  0  0  0  0
  8 10  2  0  0  0  0
  9 14  2  0  0  0  0
  9 15  1  0  0  0  0
 10 11  1  0  0  0  0
 10 30  1  0  0  0  0
 11 19  1  0  0  0  0
 12 16  2  0  0  0  0
 12 17  1  0  0  0  0
 12 18  1  0  0  0  0
 13 20  2  0  0  0  0
 13 21  1  0  0  0  0
 14 16  1  0  0  0  0
 14 31  1  0  0  0  0
 15 17  2  0  0  0  0
 15 32  1  0  0  0  0
 16 33  1  0  0  0  0
 17 34  1  0  0  0  0
 18 22  1  0  0  0  0
 18 35  1  0  0  0  0
 18 36  1  0  0  0  0
 19 23  2  0  0  0  0
 20 24  1  0  0  0  0
 20 37  1  0  0  0  0
 21 25  2  0  0  0  0
 21 38  1  0  0  0  0
 22 39  1  0  0  0  0
 22 40  1  0  0  0  0
 22 41  1  0  0  0  0
 23 27  1  0  0  0  0
 23 42  1  0  0  0  0
 24 26  2  0  0  0  0
 24 43  1  0  0  0  0
 25 26  1  0  0  0  0
 25 44  1  0  0  0  0
 26 45  1  0  0  0  0
 27 28  2  0  0  0  0
 27 46  1  0  0  0  0
 28 47  1  0  0  0  0
M  END
>  <Mol_ID>
5060

>  <Formula>
C21H19N3O2S2

>  <MolWeight>
409.52446

>  <Cat>
S0294

>  <Name>
HSF1A

>  <Synonyms>
N/A

>  <Target>
HSP (HSP90)

>  <Form>
free base

>  <CAS>
1196723-93-9

>  <URL>
http://www.selleckchem.com/products/hsf1a.html

$$$$
