HTH-01-015.cdx
 OpenBabel08302519593D

 63 68  0  0  0  0  0  0  0  0999 V2000
   -3.4474   -0.0303    0.3522 N   0  0  0  0  0  0  0  0  0  0  0  0
   -3.0100   -1.2860    0.3859 C   0  0  0  0  0  0  0  0  0  0  0  0
   -1.7526   -1.6476    0.0482 N   0  0  0  0  0  0  0  0  0  0  0  0
   -0.8951   -0.6867   -0.3667 C   0  0  0  0  0  0  0  0  0  0  0  0
   -1.2973    0.6396   -0.4700 C   0  0  0  0  0  0  0  0  0  0  0  0
   -2.5897    0.9310   -0.0292 C   0  0  0  0  0  0  0  0  0  0  0  0
    0.4200   -1.0777   -0.7423 N   0  0  0  0  0  0  0  0  0  0  0  0
    1.6080   -0.4134   -0.3736 C   0  0  0  0  0  0  0  0  0  0  0  0
    1.6244    0.8928    0.1424 C   0  0  0  0  0  0  0  0  0  0  0  0
    0.7317    1.9522   -0.4072 C   0  0  0  0  0  0  0  0  0  0  0  0
   -0.4448    1.6189   -1.0360 N   0  0  0  0  0  0  0  0  0  0  0  0
    2.8394   -1.1128   -0.3168 C   0  0  0  0  0  0  0  0  0  0  0  0
    3.9451   -0.6178    0.4065 C   0  0  0  0  0  0  0  0  0  0  0  0
    3.7668    0.5352    1.1936 C   0  0  0  0  0  0  0  0  0  0  0  0
    2.6480    1.3340    0.9678 C   0  0  0  0  0  0  0  0  0  0  0  0
    5.2091   -1.2390    0.4423 C   0  0  0  0  0  0  0  0  0  0  0  0
    6.1522   -0.8718    1.4059 C   0  0  0  0  0  0  0  0  0  0  0  0
    5.8288    0.0878    2.3591 C   0  0  0  0  0  0  0  0  0  0  0  0
    4.6872    0.8601    2.1888 C   0  0  0  0  0  0  0  0  0  0  0  0
   -0.9633    2.5452   -2.0161 C   0  0  0  0  0  0  0  0  0  0  0  0
    1.1452    3.1172   -0.3883 O   0  0  0  0  0  0  0  0  0  0  0  0
    0.3943   -1.8365   -1.9875 C   0  0  0  0  0  0  0  0  0  0  0  0
   -3.9595   -2.2255    0.7724 N   0  0  0  0  0  0  0  0  0  0  0  0
   -3.0747    2.3359    0.1705 C   0  0  0  0  0  0  0  0  0  0  0  0
   -3.8019   -3.4855    1.2089 C   0  0  0  0  0  0  0  0  0  0  0  0
   -4.8186   -4.3844    1.4117 C   0  0  0  0  0  0  0  0  0  0  0  0
   -4.2125   -5.5403    1.8287 N   0  0  0  0  0  0  0  0  0  0  0  0
   -2.8808   -5.4058    1.9948 N   0  0  0  0  0  0  0  0  0  0  0  0
   -2.6302   -4.1584    1.5925 C   0  0  0  0  0  0  0  0  0  0  0  0
   -4.8671   -6.8361    1.9965 C   0  0  0  0  0  0  0  0  0  0  0  0
   -5.5703   -6.9664    3.3487 C   0  0  0  0  0  0  0  0  0  0  0  0
   -4.5749   -7.1988    4.4790 C   0  0  0  0  0  0  0  0  0  0  0  0
   -3.7353   -8.3704    4.2308 N   0  0  0  0  0  0  0  0  0  0  0  0
   -3.0122   -8.2916    2.9590 C   0  0  0  0  0  0  0  0  0  0  0  0
   -3.9390   -8.0356    1.7694 C   0  0  0  0  0  0  0  0  0  0  0  0
    2.9154   -2.1169   -0.7317 H   0  0  0  0  0  0  0  0  0  0  0  0
    2.5999    2.3272    1.4094 H   0  0  0  0  0  0  0  0  0  0  0  0
    5.4568   -2.0301   -0.2615 H   0  0  0  0  0  0  0  0  0  0  0  0
    7.1217   -1.3612    1.4427 H   0  0  0  0  0  0  0  0  0  0  0  0
    6.4633    0.2425    3.2266 H   0  0  0  0  0  0  0  0  0  0  0  0
    4.4867    1.6814    2.8749 H   0  0  0  0  0  0  0  0  0  0  0  0
   -1.1748    3.5134   -1.5543 H   0  0  0  0  0  0  0  0  0  0  0  0
   -0.1846    2.6949   -2.7751 H   0  0  0  0  0  0  0  0  0  0  0  0
   -1.8431    2.1384   -2.5207 H   0  0  0  0  0  0  0  0  0  0  0  0
   -0.1843   -2.7607   -1.8764 H   0  0  0  0  0  0  0  0  0  0  0  0
   -0.0621   -1.2360   -2.7839 H   0  0  0  0  0  0  0  0  0  0  0  0
    1.3900   -2.1222   -2.3413 H   0  0  0  0  0  0  0  0  0  0  0  0
   -4.8594   -1.7668    0.7974 H   0  0  0  0  0  0  0  0  0  0  0  0
   -2.3229    2.9277    0.7105 H   0  0  0  0  0  0  0  0  0  0  0  0
   -3.3136    2.8113   -0.7784 H   0  0  0  0  0  0  0  0  0  0  0  0
   -3.9818    2.3447    0.7830 H   0  0  0  0  0  0  0  0  0  0  0  0
   -5.8854   -4.3254    1.2625 H   0  0  0  0  0  0  0  0  0  0  0  0
   -1.6118   -3.7932    1.6143 H   0  0  0  0  0  0  0  0  0  0  0  0
   -5.6325   -6.8567    1.2088 H   0  0  0  0  0  0  0  0  0  0  0  0
   -6.1813   -6.0824    3.5658 H   0  0  0  0  0  0  0  0  0  0  0  0
   -6.2617   -7.8200    3.3031 H   0  0  0  0  0  0  0  0  0  0  0  0
   -3.9614   -6.3062    4.6462 H   0  0  0  0  0  0  0  0  0  0  0  0
   -5.1350   -7.3741    5.4040 H   0  0  0  0  0  0  0  0  0  0  0  0
   -3.0407   -8.4271    4.9788 H   0  0  0  0  0  0  0  0  0  0  0  0
   -2.5000   -9.2466    2.7977 H   0  0  0  0  0  0  0  0  0  0  0  0
   -2.2211   -7.5391    3.0250 H   0  0  0  0  0  0  0  0  0  0  0  0
   -4.5596   -8.9283    1.6105 H   0  0  0  0  0  0  0  0  0  0  0  0
   -3.3460   -7.9030    0.8568 H   0  0  0  0  0  0  0  0  0  0  0  0
  1  2  2  0  0  0  0
  2  3  1  0  0  0  0
  2 23  1  0  0  0  0
  3  4  2  0  0  0  0
  4  5  1  0  0  0  0
  4  7  1  0  0  0  0
  5  6  2  0  0  0  0
  6  1  1  0  0  0  0
  6 24  1  0  0  0  0
  7  8  1  0  0  0  0
  7 22  1  0  0  0  0
  8  9  2  0  0  0  0
  8 12  1  0  0  0  0
  9 10  1  0  0  0  0
 10 11  1  0  0  0  0
 10 21  2  0  0  0  0
 11  5  1  0  0  0  0
 11 20  1  0  0  0  0
 12 13  2  0  0  0  0
 12 36  1  0  0  0  0
 13 14  1  0  0  0  0
 13 16  1  0  0  0  0
 14 15  2  0  0  0  0
 15  9  1  0  0  0  0
 15 37  1  0  0  0  0
 16 17  2  0  0  0  0
 16 38  1  0  0  0  0
 17 18  1  0  0  0  0
 17 39  1  0  0  0  0
 18 19  2  0  0  0  0
 18 40  1  0  0  0  0
 19 14  1  0  0  0  0
 19 41  1  0  0  0  0
 20 42  1  0  0  0  0
 20 43  1  0  0  0  0
 20 44  1  0  0  0  0
 22 45  1  0  0  0  0
 22 46  1  0  0  0  0
 22 47  1  0  0  0  0
 23 25  1  0  0  0  0
 23 48  1  0  0  0  0
 24 49  1  0  0  0  0
 24 50  1  0  0  0  0
 24 51  1  0  0  0  0
 25 26  2  0  0  0  0
 26 27  1  0  0  0  0
 26 52  1  0  0  0  0
 27 28  1  0  0  0  0
 27 30  1  0  0  0  0
 28 29  2  0  0  0  0
 29 25  1  0  0  0  0
 29 53  1  0  0  0  0
 30 31  1  0  0  0  0
 30 54  1  0  0  0  0
 31 32  1  0  0  0  0
 31 55  1  0  0  0  0
 31 56  1  0  0  0  0
 32 33  1  0  0  0  0
 32 57  1  0  0  0  0
 32 58  1  0  0  0  0
 33 34  1  0  0  0  0
 33 59  1  0  0  0  0
 34 35  1  0  0  0  0
 34 60  1  0  0  0  0
 34 61  1  0  0  0  0
 35 30  1  0  0  0  0
 35 62  1  0  0  0  0
 35 63  1  0  0  0  0
M  END
>  <Mol_ID>
2600

>  <Formula>
C26H28N8O

>  <MolWeight>
468.55352

>  <Cat>
S7318

>  <Name>
HTH-01-015

>  <Synonyms>
N/A

>  <Target>
AMPK

>  <Form>
free base

>  <CAS>
1613724-42-7

>  <URL>
http://selleckchem.com/products/hth-01-015.html

$$$$
