Hupehenine
 OpenBabel08302521322D

 75 80  0  0  0  0  0  0  0  0999 V2000
   10.3077    6.9693    0.0000 N   0  0  3  0  0  0  0  0  0  0  0  0
    4.2000    3.6463    0.0000 C   0  0  2  0  0  0  0  0  0  0  0  0
    5.6154    3.6616    0.0000 C   0  0  2  0  0  0  0  0  0  0  0  0
    9.1076    4.8771    0.0000 C   0  0  1  0  0  0  0  0  0  0  0  0
    7.9384    4.1540    0.0000 C   0  0  1  0  0  0  0  0  0  0  0  0
    6.3385    2.4616    0.0000 C   0  0  2  0  0  0  0  0  0  0  0  0
    7.9384    2.7540    0.0000 C   0  0  2  0  0  0  0  0  0  0  0  0
   10.3384    4.2002    0.0000 C   0  0  2  0  0  0  0  0  0  0  0  0
    3.5076    2.4155    0.0000 C   0  0  1  0  0  0  0  0  0  0  0  0
   11.5231    6.2771    0.0000 C   0  0  2  0  0  0  0  0  0  0  0  0
    9.1076    6.2309    0.0000 C   0  0  0  0  0  0  0  0  0  0  0  0
    6.6000    4.7386    0.0000 C   0  0  0  0  0  0  0  0  0  0  0  0
   11.5231    4.9078    0.0000 C   0  0  2  0  0  0  0  0  0  0  0  0
    5.6616    1.2308    0.0000 C   0  0  0  0  0  0  0  0  0  0  0  0
    4.2462    1.2155    0.0000 C   0  0  1  0  0  0  0  0  0  0  0  0
    9.1538    2.0771    0.0000 C   0  0  0  0  0  0  0  0  0  0  0  0
    3.4924    4.8616    0.0000 C   0  0  0  0  0  0  0  0  0  0  0  0
   10.3384    2.8002    0.0000 C   0  0  0  0  0  0  0  0  0  0  0  0
   10.3077    8.3693    0.0000 C   0  0  0  0  0  0  0  0  0  0  0  0
   12.7078    7.0002    0.0000 C   0  0  0  0  0  0  0  0  0  0  0  0
    2.1231    2.4155    0.0000 C   0  0  0  0  0  0  0  0  0  0  0  0
    4.4462    5.0154    0.0000 C   0  0  0  0  0  0  0  0  0  0  0  0
    3.5538    0.0000    0.0000 O   0  0  0  0  0  0  0  0  0  0  0  0
    2.0924    4.8616    0.0000 C   0  0  0  0  0  0  0  0  0  0  0  0
   12.7230    8.4154    0.0000 C   0  0  0  0  0  0  0  0  0  0  0  0
    1.4000    3.5847    0.0000 C   0  0  2  0  0  0  0  0  0  0  0  0
   11.4769    9.0924    0.0000 C   0  0  2  0  0  0  0  0  0  0  0  0
   12.7385    4.2462    0.0000 C   0  0  0  0  0  0  0  0  0  0  0  0
    0.0000    3.5692    0.0000 O   0  0  0  0  0  0  0  0  0  0  0  0
   11.4769   10.5232    0.0000 C   0  0  0  0  0  0  0  0  0  0  0  0
    5.1786    4.6384    0.0000 H   0  0  0  0  0  0  0  0  0  0  0  0
    8.1730    5.3980    0.0000 H   0  0  0  0  0  0  0  0  0  0  0  0
    7.8625    5.2213    0.0000 H   0  0  0  0  0  0  0  0  0  0  0  0
    5.2687    2.4405    0.0000 H   0  0  0  0  0  0  0  0  0  0  0  0
    7.7640    1.6983    0.0000 H   0  0  0  0  0  0  0  0  0  0  0  0
    9.4174    3.6556    0.0000 H   0  0  0  0  0  0  0  0  0  0  0  0
    2.9674    3.3391    0.0000 H   0  0  0  0  0  0  0  0  0  0  0  0
   11.5069    7.3470    0.0000 H   0  0  0  0  0  0  0  0  0  0  0  0
    8.1736    6.7529    0.0000 H   0  0  0  0  0  0  0  0  0  0  0  0
    9.0851    7.3007    0.0000 H   0  0  0  0  0  0  0  0  0  0  0  0
    6.3778    5.7853    0.0000 H   0  0  0  0  0  0  0  0  0  0  0  0
    7.4292    5.4148    0.0000 H   0  0  0  0  0  0  0  0  0  0  0  0
   11.5445    3.8380    0.0000 H   0  0  0  0  0  0  0  0  0  0  0  0
    6.2112    0.3127    0.0000 H   0  0  0  0  0  0  0  0  0  0  0  0
    5.1390    0.2971    0.0000 H   0  0  0  0  0  0  0  0  0  0  0  0
    3.1764    1.1973    0.0000 H   0  0  0  0  0  0  0  0  0  0  0  0
    9.1751    1.0073    0.0000 H   0  0  0  0  0  0  0  0  0  0  0  0
   10.0921    1.5628    0.0000 H   0  0  0  0  0  0  0  0  0  0  0  0
    4.0257    5.7892    0.0000 H   0  0  0  0  0  0  0  0  0  0  0  0
    2.9566    5.7878    0.0000 H   0  0  0  0  0  0  0  0  0  0  0  0
   11.2715    2.2766    0.0000 H   0  0  0  0  0  0  0  0  0  0  0  0
   10.3580    1.7304    0.0000 H   0  0  0  0  0  0  0  0  0  0  0  0
    9.3731    8.8902    0.0000 H   0  0  0  0  0  0  0  0  0  0  0  0
   10.2834    9.4390    0.0000 H   0  0  0  0  0  0  0  0  0  0  0  0
   13.6381    6.4715    0.0000 H   0  0  0  0  0  0  0  0  0  0  0  0
   13.6355    7.5334    0.0000 H   0  0  0  0  0  0  0  0  0  0  0  0
    1.6022    1.4809    0.0000 H   0  0  0  0  0  0  0  0  0  0  0  0
    1.0534    2.3912    0.0000 H   0  0  0  0  0  0  0  0  0  0  0  0
    5.4529    5.3779    0.0000 H   0  0  0  0  0  0  0  0  0  0  0  0
    3.6289    5.7060    0.0000 H   0  0  0  0  0  0  0  0  0  0  0  0
    4.6356    6.0685    0.0000 H   0  0  0  0  0  0  0  0  0  0  0  0
    2.5838   -0.0056    0.0000 H   0  0  0  0  0  0  0  0  0  0  0  0
    1.5451    5.7810    0.0000 H   0  0  0  0  0  0  0  0  0  0  0  0
    1.0226    4.8402    0.0000 H   0  0  0  0  0  0  0  0  0  0  0  0
   13.6456    8.9574    0.0000 H   0  0  0  0  0  0  0  0  0  0  0  0
   12.7051    9.4852    0.0000 H   0  0  0  0  0  0  0  0  0  0  0  0
    0.8843    2.6472    0.0000 H   0  0  0  0  0  0  0  0  0  0  0  0
   12.3965    9.6394    0.0000 H   0  0  0  0  0  0  0  0  0  0  0  0
   12.7654    3.1765    0.0000 H   0  0  0  0  0  0  0  0  0  0  0  0
   13.6514    4.8043    0.0000 H   0  0  0  0  0  0  0  0  0  0  0  0
   13.6783    3.7346    0.0000 H   0  0  0  0  0  0  0  0  0  0  0  0
   -0.4943    4.4038    0.0000 H   0  0  0  0  0  0  0  0  0  0  0  0
   12.4035   11.0582    0.0000 H   0  0  0  0  0  0  0  0  0  0  0  0
   10.5503   11.0582    0.0000 H   0  0  0  0  0  0  0  0  0  0  0  0
   11.4769   11.5932    0.0000 H   0  0  0  0  0  0  0  0  0  0  0  0
  2  3  1  0  0  0  0
  2 22  1  1  0  0  0
  3 12  1  0  0  0  0
  3 31  1  6  0  0  0
  4 11  1  0  0  0  0
  4 32  1  1  0  0  0
  5  4  1  0  0  0  0
  5 12  1  0  0  0  0
  5 33  1  6  0  0  0
  6  3  1  0  0  0  0
  6  7  1  0  0  0  0
  6 14  1  0  0  0  0
  6 34  1  1  0  0  0
  7  5  1  0  0  0  0
  7 16  1  0  0  0  0
  7 35  1  6  0  0  0
  8  4  1  0  0  0  0
  8 18  1  0  0  0  0
  8 36  1  1  0  0  0
  9  2  1  0  0  0  0
  9 21  1  0  0  0  0
  9 37  1  6  0  0  0
 10  1  1  0  0  0  0
 10 20  1  0  0  0  0
 10 38  1  6  0  0  0
 11  1  1  0  0  0  0
 11 39  1  0  0  0  0
 11 40  1  0  0  0  0
 12 41  1  0  0  0  0
 12 42  1  0  0  0  0
 13  8  1  0  0  0  0
 13 10  1  0  0  0  0
 13 28  1  0  0  0  0
 13 43  1  1  0  0  0
 14 44  1  0  0  0  0
 14 45  1  0  0  0  0
 15  9  1  0  0  0  0
 15 14  1  0  0  0  0
 15 23  1  0  0  0  0
 15 46  1  6  0  0  0
 16 18  1  0  0  0  0
 16 47  1  0  0  0  0
 16 48  1  0  0  0  0
 17  2  1  0  0  0  0
 17 49  1  0  0  0  0
 17 50  1  0  0  0  0
 18 51  1  0  0  0  0
 18 52  1  0  0  0  0
 19  1  1  0  0  0  0
 19 53  1  0  0  0  0
 19 54  1  0  0  0  0
 20 55  1  0  0  0  0
 20 56  1  0  0  0  0
 21 26  1  0  0  0  0
 21 57  1  0  0  0  0
 21 58  1  0  0  0  0
 22 59  1  0  0  0  0
 22 60  1  0  0  0  0
 22 61  1  0  0  0  0
 23 62  1  0  0  0  0
 24 17  1  0  0  0  0
 24 63  1  0  0  0  0
 24 64  1  0  0  0  0
 25 20  1  0  0  0  0
 25 27  1  0  0  0  0
 25 65  1  0  0  0  0
 25 66  1  0  0  0  0
 26 24  1  0  0  0  0
 26 29  1  0  0  0  0
 26 67  1  6  0  0  0
 27 19  1  0  0  0  0
 27 30  1  0  0  0  0
 27 68  1  6  0  0  0
 28 69  1  0  0  0  0
 28 70  1  0  0  0  0
 28 71  1  0  0  0  0
 29 72  1  0  0  0  0
 30 73  1  0  0  0  0
 30 74  1  0  0  0  0
 30 75  1  0  0  0  0
M  END
>  <Mol_ID>
4631

>  <Formula>
C27H45NO2

>  <MolWeight>
415.6517

>  <Cat>
S9475

>  <Name>
Hupehenine

>  <Synonyms>
N/A

>  <Target>
AChR

>  <Form>
Free Base

>  <CAS>
98243-57-3

>  <URL>
http://www.selleckchem.com/products/hupehenine.html

$$$$
