Hydroxyzine dihydrochloride.cdx
 OpenBabel08302522043D

 53 55  0  0  0  0  0  0  0  0999 V2000
    1.4831   -0.7202   -0.6899 C   0  0  0  0  0  0  0  0  0  0  0  0
    1.2093    0.6440   -0.2837 N   0  0  0  0  0  0  0  0  0  0  0  0
    1.5643   -0.8132   -2.2249 C   0  0  0  0  0  0  0  0  0  0  0  0
    0.5881   -1.7847   -0.0229 C   0  0  0  0  0  0  0  0  0  0  0  0
   -0.1172    1.2194   -0.3898 C   0  0  0  0  0  0  0  0  0  0  0  0
    2.1511    1.4299    0.5009 C   0  0  0  0  0  0  0  0  0  0  0  0
    2.7904   -1.0672   -2.8538 C   0  0  0  0  0  0  0  0  0  0  0  0
    0.4192   -0.7377   -3.0457 C   0  0  0  0  0  0  0  0  0  0  0  0
   -0.2296   -2.6806   -0.7422 C   0  0  0  0  0  0  0  0  0  0  0  0
    0.5890   -1.9203    1.3791 C   0  0  0  0  0  0  0  0  0  0  0  0
    0.0134    2.6264   -0.9796 C   0  0  0  0  0  0  0  0  0  0  0  0
    2.1425    2.9361    0.0705 C   0  0  0  0  0  0  0  0  0  0  0  0
    2.8412   -1.3824   -4.2094 C   0  0  0  0  0  0  0  0  0  0  0  0
    0.4600   -1.0938   -4.3867 C   0  0  0  0  0  0  0  0  0  0  0  0
   -1.0752   -3.5927   -0.1099 C   0  0  0  0  0  0  0  0  0  0  0  0
   -0.2291   -2.8647    2.0138 C   0  0  0  0  0  0  0  0  0  0  0  0
    0.7645    3.4544   -0.0180 N   0  0  0  0  0  0  0  0  0  0  0  0
    1.6726   -1.4428   -4.9717 C   0  0  0  0  0  0  0  0  0  0  0  0
   -1.0809   -3.6795    1.2674 C   0  0  0  0  0  0  0  0  0  0  0  0
    0.6530    4.8864   -0.2751 C   0  0  0  0  0  0  0  0  0  0  0  0
   -0.7907    5.4150   -0.0676 C   0  0  0  0  0  0  0  0  0  0  0  0
   -1.4020    5.0575    1.1747 O   0  0  0  0  0  0  0  0  0  0  0  0
   -0.7675    5.5345    2.3543 C   0  0  0  0  0  0  0  0  0  0  0  0
   -0.7394    7.0580    2.4501 C   0  0  0  0  0  0  0  0  0  0  0  0
   -0.1801    7.5008    3.6796 O   0  0  0  0  0  0  0  0  0  0  0  0
    2.4916   -0.9790   -0.3353 H   0  0  0  0  0  0  0  0  0  0  0  0
   -0.8016    0.6370   -1.0110 H   0  0  0  0  0  0  0  0  0  0  0  0
   -0.6002    1.2736    0.5958 H   0  0  0  0  0  0  0  0  0  0  0  0
    1.8779    1.3758    1.5649 H   0  0  0  0  0  0  0  0  0  0  0  0
    3.1729    1.0517    0.4142 H   0  0  0  0  0  0  0  0  0  0  0  0
    3.7125   -1.0643   -2.2761 H   0  0  0  0  0  0  0  0  0  0  0  0
   -0.5604   -0.5212   -2.6231 H   0  0  0  0  0  0  0  0  0  0  0  0
   -0.2316   -2.7077   -1.8260 H   0  0  0  0  0  0  0  0  0  0  0  0
    1.2389   -1.2947    1.9847 H   0  0  0  0  0  0  0  0  0  0  0  0
    0.5299    2.5962   -1.9617 H   0  0  0  0  0  0  0  0  0  0  0  0
   -0.9885    3.0055   -1.1725 H   0  0  0  0  0  0  0  0  0  0  0  0
    2.6542    3.0336   -0.8936 H   0  0  0  0  0  0  0  0  0  0  0  0
    2.7167    3.5118    0.8054 H   0  0  0  0  0  0  0  0  0  0  0  0
    3.7979   -1.6268   -4.6736 H   0  0  0  0  0  0  0  0  0  0  0  0
   -0.4602   -1.1451   -4.9635 H   0  0  0  0  0  0  0  0  0  0  0  0
   -1.7211   -4.2261   -0.7089 H   0  0  0  0  0  0  0  0  0  0  0  0
   -0.2125   -2.9492    3.0963 H   0  0  0  0  0  0  0  0  0  0  0  0
    1.7035   -1.7708   -6.0048 H   0  0  0  0  0  0  0  0  0  0  0  0
   -1.7407   -4.3859    1.7665 H   0  0  0  0  0  0  0  0  0  0  0  0
    1.3043    5.4210    0.4260 H   0  0  0  0  0  0  0  0  0  0  0  0
    0.9933    5.1435   -1.2859 H   0  0  0  0  0  0  0  0  0  0  0  0
   -0.8177    6.5005   -0.1892 H   0  0  0  0  0  0  0  0  0  0  0  0
   -1.4475    5.0261   -0.8516 H   0  0  0  0  0  0  0  0  0  0  0  0
   -1.3282    5.1362    3.2117 H   0  0  0  0  0  0  0  0  0  0  0  0
    0.2418    5.1116    2.4572 H   0  0  0  0  0  0  0  0  0  0  0  0
   -0.1537    7.4984    1.6371 H   0  0  0  0  0  0  0  0  0  0  0  0
   -1.7558    7.4564    2.3641 H   0  0  0  0  0  0  0  0  0  0  0  0
    0.7749    7.3174    3.6479 H   0  0  0  0  0  0  0  0  0  0  0  0
  1  2  1  0  0  0  0
  1  3  1  0  0  0  0
  1  4  1  0  0  0  0
  1 26  1  0  0  0  0
  2  5  1  0  0  0  0
  2  6  1  0  0  0  0
  3  7  2  0  0  0  0
  3  8  1  0  0  0  0
  4  9  2  0  0  0  0
  4 10  1  0  0  0  0
  5 11  1  0  0  0  0
  5 27  1  0  0  0  0
  5 28  1  0  0  0  0
  6 12  1  0  0  0  0
  6 29  1  0  0  0  0
  6 30  1  0  0  0  0
  7 13  1  0  0  0  0
  7 31  1  0  0  0  0
  8 14  2  0  0  0  0
  8 32  1  0  0  0  0
  9 15  1  0  0  0  0
  9 33  1  0  0  0  0
 10 16  2  0  0  0  0
 10 34  1  0  0  0  0
 11 17  1  0  0  0  0
 11 35  1  0  0  0  0
 11 36  1  0  0  0  0
 12 17  1  0  0  0  0
 12 37  1  0  0  0  0
 12 38  1  0  0  0  0
 13 18  2  0  0  0  0
 13 39  1  0  0  0  0
 14 18  1  0  0  0  0
 14 40  1  0  0  0  0
 15 19  2  0  0  0  0
 15 41  1  0  0  0  0
 16 19  1  0  0  0  0
 16 42  1  0  0  0  0
 17 20  1  0  0  0  0
 18 43  1  0  0  0  0
 19 44  1  0  0  0  0
 20 21  1  0  0  0  0
 20 45  1  0  0  0  0
 20 46  1  0  0  0  0
 21 22  1  0  0  0  0
 21 47  1  0  0  0  0
 21 48  1  0  0  0  0
 22 23  1  0  0  0  0
 23 24  1  0  0  0  0
 23 49  1  0  0  0  0
 23 50  1  0  0  0  0
 24 25  1  0  0  0  0
 24 51  1  0  0  0  0
 24 52  1  0  0  0  0
 25 53  1  0  0  0  0
M  END
>  <Mol_ID>
1249

>  <Formula>
C21H29Cl3N2O2

>  <MolWeight>
447.82616

>  <Cat>
S4026

>  <Name>
Hydroxyzine 2HCl

>  <Synonyms>
N/A

>  <Target>
Histamine Receptor

>  <Form>
dihydrochloride

>  <CAS>
2192-20-3

>  <URL>
http://selleckchem.com/products/hydroxyzine-2hcl.html

$$$$
