Hydroxy-PEG4-O-Boc
 OpenBabel08302521313D

 56 55  0  0  0  0  0  0  0  0999 V2000
    1.6539   -6.3083    1.2805 O   0  0  0  0  0  0  0  0  0  0  0  0
    3.9402   -3.4873    1.9916 O   0  0  0  0  0  0  0  0  0  0  0  0
    5.1421   -1.0574    1.1404 O   0  0  0  0  0  0  0  0  0  0  0  0
    5.2383   -1.0273   -2.5800 O   0  0  0  0  0  0  0  0  0  0  0  0
    8.9763   -0.9993   -3.1209 O   0  0  0  0  0  0  0  0  0  0  0  0
   10.3096    1.4232   -0.6124 O   0  0  0  0  0  0  0  0  0  0  0  0
    2.1535   -4.5244   -0.0807 O   0  0  0  0  0  0  0  0  0  0  0  0
   12.3695    2.9430    0.8238 O   0  0  0  0  0  0  0  0  0  0  0  0
    0.3454   -6.5458    0.6981 C   0  0  0  0  0  0  0  0  0  0  0  0
    0.3632   -6.7093   -0.8277 C   0  0  0  0  0  0  0  0  0  0  0  0
   -0.1670   -7.8623    1.3100 C   0  0  0  0  0  0  0  0  0  0  0  0
   -0.5872   -5.4110    1.1435 C   0  0  0  0  0  0  0  0  0  0  0  0
    2.3264   -5.1610    0.9417 C   0  0  0  0  0  0  0  0  0  0  0  0
    3.2192   -4.7134    2.1101 C   0  0  0  0  0  0  0  0  0  0  0  0
    3.1091   -2.3391    1.7856 C   0  0  0  0  0  0  0  0  0  0  0  0
    5.1018   -0.4658   -0.1569 C   0  0  0  0  0  0  0  0  0  0  0  0
    5.0248   -1.5265   -1.2565 C   0  0  0  0  0  0  0  0  0  0  0  0
    3.9227   -1.0396    1.8851 C   0  0  0  0  0  0  0  0  0  0  0  0
    6.5362   -0.5066   -2.8893 C   0  0  0  0  0  0  0  0  0  0  0  0
    7.7107   -1.4621   -2.6418 C   0  0  0  0  0  0  0  0  0  0  0  0
    9.4923    0.2150   -2.5709 C   0  0  0  0  0  0  0  0  0  0  0  0
    9.6831    0.2077   -1.0512 C   0  0  0  0  0  0  0  0  0  0  0  0
   10.4814    1.4175    0.8151 C   0  0  0  0  0  0  0  0  0  0  0  0
   11.0334    2.7625    1.2843 C   0  0  0  0  0  0  0  0  0  0  0  0
   12.3465    2.7676   -0.1350 H   0  0  0  0  0  0  0  0  0  0  0  0
    1.0123   -7.5403   -1.1247 H   0  0  0  0  0  0  0  0  0  0  0  0
   -0.6450   -6.9081   -1.2090 H   0  0  0  0  0  0  0  0  0  0  0  0
    0.7332   -5.8248   -1.3506 H   0  0  0  0  0  0  0  0  0  0  0  0
    0.1156   -7.9530    2.3647 H   0  0  0  0  0  0  0  0  0  0  0  0
   -1.2575   -7.9405    1.2333 H   0  0  0  0  0  0  0  0  0  0  0  0
    0.2580   -8.7329    0.7959 H   0  0  0  0  0  0  0  0  0  0  0  0
   -0.5667   -5.3092    2.2356 H   0  0  0  0  0  0  0  0  0  0  0  0
   -0.2728   -4.4445    0.7369 H   0  0  0  0  0  0  0  0  0  0  0  0
   -1.6195   -5.5868    0.8278 H   0  0  0  0  0  0  0  0  0  0  0  0
    2.5916   -4.6497    3.0086 H   0  0  0  0  0  0  0  0  0  0  0  0
    3.9641   -5.4984    2.2765 H   0  0  0  0  0  0  0  0  0  0  0  0
    2.6455   -2.3877    0.7991 H   0  0  0  0  0  0  0  0  0  0  0  0
    2.3170   -2.3183    2.5454 H   0  0  0  0  0  0  0  0  0  0  0  0
    4.3018    0.2764   -0.2589 H   0  0  0  0  0  0  0  0  0  0  0  0
    6.0399    0.0896   -0.2572 H   0  0  0  0  0  0  0  0  0  0  0  0
    5.6985   -2.3646   -1.0529 H   0  0  0  0  0  0  0  0  0  0  0  0
    4.0162   -1.9564   -1.2467 H   0  0  0  0  0  0  0  0  0  0  0  0
    3.3015   -0.1753    1.6207 H   0  0  0  0  0  0  0  0  0  0  0  0
    4.2198   -0.9074    2.9315 H   0  0  0  0  0  0  0  0  0  0  0  0
    6.5215   -0.2505   -3.9558 H   0  0  0  0  0  0  0  0  0  0  0  0
    6.6793    0.4416   -2.3644 H   0  0  0  0  0  0  0  0  0  0  0  0
    7.7994   -1.7283   -1.5853 H   0  0  0  0  0  0  0  0  0  0  0  0
    7.5057   -2.4044   -3.1666 H   0  0  0  0  0  0  0  0  0  0  0  0
   10.4710    0.3777   -3.0398 H   0  0  0  0  0  0  0  0  0  0  0  0
    8.8758    1.0624   -2.8891 H   0  0  0  0  0  0  0  0  0  0  0  0
    8.7092    0.1171   -0.5591 H   0  0  0  0  0  0  0  0  0  0  0  0
   10.2947   -0.6529   -0.7572 H   0  0  0  0  0  0  0  0  0  0  0  0
    9.5144    1.2378    1.2959 H   0  0  0  0  0  0  0  0  0  0  0  0
   11.1830    0.6175    1.0760 H   0  0  0  0  0  0  0  0  0  0  0  0
   10.4317    3.5954    0.9065 H   0  0  0  0  0  0  0  0  0  0  0  0
   11.0505    2.8058    2.3774 H   0  0  0  0  0  0  0  0  0  0  0  0
  1  9  1  0  0  0  0
  1 13  1  0  0  0  0
  2 14  1  0  0  0  0
  2 15  1  0  0  0  0
  3 16  1  0  0  0  0
  3 18  1  0  0  0  0
  4 17  1  0  0  0  0
  4 19  1  0  0  0  0
  5 20  1  0  0  0  0
  5 21  1  0  0  0  0
  6 22  1  0  0  0  0
  6 23  1  0  0  0  0
  7 13  2  0  0  0  0
  8 24  1  0  0  0  0
  8 25  1  0  0  0  0
  9 10  1  0  0  0  0
  9 11  1  0  0  0  0
  9 12  1  0  0  0  0
 10 26  1  0  0  0  0
 10 27  1  0  0  0  0
 10 28  1  0  0  0  0
 11 29  1  0  0  0  0
 11 30  1  0  0  0  0
 11 31  1  0  0  0  0
 12 32  1  0  0  0  0
 12 33  1  0  0  0  0
 12 34  1  0  0  0  0
 13 14  1  0  0  0  0
 14 35  1  0  0  0  0
 14 36  1  0  0  0  0
 15 18  1  0  0  0  0
 15 37  1  0  0  0  0
 15 38  1  0  0  0  0
 16 17  1  0  0  0  0
 16 39  1  0  0  0  0
 16 40  1  0  0  0  0
 17 41  1  0  0  0  0
 17 42  1  0  0  0  0
 18 43  1  0  0  0  0
 18 44  1  0  0  0  0
 19 20  1  0  0  0  0
 19 45  1  0  0  0  0
 19 46  1  0  0  0  0
 20 47  1  0  0  0  0
 20 48  1  0  0  0  0
 21 22  1  0  0  0  0
 21 49  1  0  0  0  0
 21 50  1  0  0  0  0
 22 51  1  0  0  0  0
 22 52  1  0  0  0  0
 23 24  1  0  0  0  0
 23 53  1  0  0  0  0
 23 54  1  0  0  0  0
 24 55  1  0  0  0  0
 24 56  1  0  0  0  0
M  END
>  <Mol_ID>
6000

>  <Formula>
C16H32O8

>  <MolWeight>
352.42048

>  <Cat>
S1846

>  <Name>
Hydroxy-PEG4-O-Boc

>  <Synonyms>
N/A

>  <Target>
Others,PROTAC Linker

>  <Form>
Free Base

>  <CAS>
1807530-05-7

>  <URL>
http://www.selleckchem.com/products/hydroxy-peg4-o-boc.html

$$$$
