Hydroxy-¦Â-sanshool
 OpenBabel08302521453D

 44 43  0  0  0  0  0  0  0  0999 V2000
    1.0743   -0.0235   -0.1009 C   0  0  0  0  0  0  0  0  0  0  0  0
    0.3523    0.0545    1.1972 C   0  0  0  0  0  0  0  0  0  0  0  0
    2.4374   -0.0394    0.0455 N   0  0  0  0  0  0  0  0  0  0  0  0
    0.4947   -0.0790   -1.1775 O   0  0  0  0  0  0  0  0  0  0  0  0
   -0.9899    0.0258    1.2391 C   0  0  0  0  0  0  0  0  0  0  0  0
    3.3352   -0.0620   -1.0983 C   0  0  0  0  0  0  0  0  0  0  0  0
   -1.7914    0.0607    2.5114 C   0  0  0  0  0  0  0  0  0  0  0  0
    4.6765   -0.7569   -0.7743 C   0  0  0  0  0  0  0  0  0  0  0  0
   -2.7393    1.2649    2.5584 C   0  0  0  0  0  0  0  0  0  0  0  0
    4.4722   -2.2102   -0.3391 C   0  0  0  0  0  0  0  0  0  0  0  0
    5.6027   -0.6966   -1.9920 C   0  0  0  0  0  0  0  0  0  0  0  0
    5.3020   -0.0517    0.3093 O   0  0  0  0  0  0  0  0  0  0  0  0
   -3.5142    1.3103    3.8492 C   0  0  0  0  0  0  0  0  0  0  0  0
   -3.4613    2.3352    4.7143 C   0  0  0  0  0  0  0  0  0  0  0  0
   -4.2113    2.3617    5.9502 C   0  0  0  0  0  0  0  0  0  0  0  0
   -4.1585    3.3870    6.8149 C   0  0  0  0  0  0  0  0  0  0  0  0
   -4.9003    3.4061    8.0564 C   0  0  0  0  0  0  0  0  0  0  0  0
   -4.8441    4.4272    8.9248 C   0  0  0  0  0  0  0  0  0  0  0  0
   -5.5983    4.4631   10.2140 C   0  0  0  0  0  0  0  0  0  0  0  0
    0.9413    0.1125    2.1038 H   0  0  0  0  0  0  0  0  0  0  0  0
    2.8651    0.1532    0.9425 H   0  0  0  0  0  0  0  0  0  0  0  0
   -1.5537   -0.0491    0.3093 H   0  0  0  0  0  0  0  0  0  0  0  0
    2.8396   -0.5462   -1.9470 H   0  0  0  0  0  0  0  0  0  0  0  0
    3.5094    0.9886   -1.3599 H   0  0  0  0  0  0  0  0  0  0  0  0
   -2.3707   -0.8691    2.5774 H   0  0  0  0  0  0  0  0  0  0  0  0
   -1.1258    0.0783    3.3836 H   0  0  0  0  0  0  0  0  0  0  0  0
   -2.1680    2.1914    2.4193 H   0  0  0  0  0  0  0  0  0  0  0  0
   -3.4552    1.2076    1.7288 H   0  0  0  0  0  0  0  0  0  0  0  0
    3.9669   -2.7951   -1.1143 H   0  0  0  0  0  0  0  0  0  0  0  0
    5.4335   -2.6879   -0.1164 H   0  0  0  0  0  0  0  0  0  0  0  0
    3.8846   -2.2702    0.5836 H   0  0  0  0  0  0  0  0  0  0  0  0
    5.8043    0.3413   -2.2797 H   0  0  0  0  0  0  0  0  0  0  0  0
    6.5752   -1.1505   -1.7689 H   0  0  0  0  0  0  0  0  0  0  0  0
    5.1695   -1.2182   -2.8519 H   0  0  0  0  0  0  0  0  0  0  0  0
    6.1746   -0.4566    0.4594 H   0  0  0  0  0  0  0  0  0  0  0  0
   -4.1515    0.4530    4.0575 H   0  0  0  0  0  0  0  0  0  0  0  0
   -2.8308    3.1944    4.4945 H   0  0  0  0  0  0  0  0  0  0  0  0
   -4.8370    1.4994    6.1685 H   0  0  0  0  0  0  0  0  0  0  0  0
   -3.5342    4.2509    6.5975 H   0  0  0  0  0  0  0  0  0  0  0  0
   -5.5237    2.5427    8.2798 H   0  0  0  0  0  0  0  0  0  0  0  0
   -4.2240    5.2951    8.7116 H   0  0  0  0  0  0  0  0  0  0  0  0
   -4.8992    4.5554   11.0522 H   0  0  0  0  0  0  0  0  0  0  0  0
   -6.2695    5.3274   10.2306 H   0  0  0  0  0  0  0  0  0  0  0  0
   -6.1989    3.5615   10.3701 H   0  0  0  0  0  0  0  0  0  0  0  0
  1  2  1  0  0  0  0
  1  3  1  0  0  0  0
  1  4  2  0  0  0  0
  2  5  2  0  0  0  0
  2 20  1  0  0  0  0
  3  6  1  0  0  0  0
  3 21  1  0  0  0  0
  5  7  1  0  0  0  0
  5 22  1  0  0  0  0
  6  8  1  0  0  0  0
  6 23  1  0  0  0  0
  6 24  1  0  0  0  0
  7  9  1  0  0  0  0
  7 25  1  0  0  0  0
  7 26  1  0  0  0  0
  8 10  1  0  0  0  0
  8 11  1  0  0  0  0
  8 12  1  0  0  0  0
  9 13  1  0  0  0  0
  9 27  1  0  0  0  0
  9 28  1  0  0  0  0
 10 29  1  0  0  0  0
 10 30  1  0  0  0  0
 10 31  1  0  0  0  0
 11 32  1  0  0  0  0
 11 33  1  0  0  0  0
 11 34  1  0  0  0  0
 12 35  1  0  0  0  0
 13 14  2  0  0  0  0
 13 36  1  0  0  0  0
 14 15  1  0  0  0  0
 14 37  1  0  0  0  0
 15 16  2  0  0  0  0
 15 38  1  0  0  0  0
 16 17  1  0  0  0  0
 16 39  1  0  0  0  0
 17 18  2  0  0  0  0
 17 40  1  0  0  0  0
 18 19  1  0  0  0  0
 18 41  1  0  0  0  0
 19 42  1  0  0  0  0
 19 43  1  0  0  0  0
 19 44  1  0  0  0  0
M  END
>  <Mol_ID>
9614

>  <Formula>
C16H25NO2

>  <MolWeight>
263.3752

>  <Cat>
E2196

>  <Name>
Hydroxy-¦Â-sanshool

>  <Synonyms>
NA

>  <Target>
Bmal1, Per1, Per2, Cry1, Gpx1, Sod2

>  <Form>
free base

>  <CAS>
97465-69-5

>  <URL>
https://www.selleckchem.com/products/hydroxy-beta-sanshool.html

$$$$
