Hydralazine hydrochloride.cdx
 OpenBabel08302521393D

 20 21  0  0  0  0  0  0  0  0999 V2000
   -2.4061   -0.7280    0.0102 C   0  0  0  0  0  0  0  0  0  0  0  0
   -1.1845   -1.4040    0.0460 C   0  0  0  0  0  0  0  0  0  0  0  0
    0.0015   -0.6679    0.0260 C   0  0  0  0  0  0  0  0  0  0  0  0
   -0.0245    0.7239   -0.0276 C   0  0  0  0  0  0  0  0  0  0  0  0
   -1.2463    1.4000   -0.0518 C   0  0  0  0  0  0  0  0  0  0  0  0
   -2.4370    0.6693   -0.0348 C   0  0  0  0  0  0  0  0  0  0  0  0
    1.3023   -1.3484    0.0442 C   0  0  0  0  0  0  0  0  0  0  0  0
    2.4531   -0.7435   -0.0143 N   0  0  0  0  0  0  0  0  0  0  0  0
    2.4031    0.6169   -0.0755 N   0  0  0  0  0  0  0  0  0  0  0  0
    1.2825    1.4222   -0.0787 C   0  0  0  0  0  0  0  0  0  0  0  0
    1.3005    2.7278   -0.1360 N   0  0  0  0  0  0  0  0  0  0  0  0
    2.5396    3.2855   -0.1465 N   0  0  0  0  0  0  0  0  0  0  0  0
   -3.3382   -1.2889    0.0129 H   0  0  0  0  0  0  0  0  0  0  0  0
   -1.1696   -2.4899    0.0782 H   0  0  0  0  0  0  0  0  0  0  0  0
   -1.2745    2.4861   -0.0938 H   0  0  0  0  0  0  0  0  0  0  0  0
   -3.3912    1.1912   -0.0642 H   0  0  0  0  0  0  0  0  0  0  0  0
    1.3027   -2.4488    0.1057 H   0  0  0  0  0  0  0  0  0  0  0  0
    3.2682    1.1186   -0.2670 H   0  0  0  0  0  0  0  0  0  0  0  0
    3.0142    3.1137    0.7441 H   0  0  0  0  0  0  0  0  0  0  0  0
    2.4410    4.3027   -0.2008 H   0  0  0  0  0  0  0  0  0  0  0  0
  1  2  2  0  0  0  0
  1 13  1  0  0  0  0
  2  3  1  0  0  0  0
  2 14  1  0  0  0  0
  3  4  2  0  0  0  0
  3  7  1  0  0  0  0
  4  5  1  0  0  0  0
  5  6  2  0  0  0  0
  5 15  1  0  0  0  0
  6  1  1  0  0  0  0
  6 16  1  0  0  0  0
  7  8  2  0  0  0  0
  7 17  1  0  0  0  0
  8  9  1  0  0  0  0
  9 10  1  0  0  0  0
  9 18  1  0  0  0  0
 10  4  1  0  0  0  0
 10 11  2  0  0  0  0
 11 12  1  0  0  0  0
 12 19  1  0  0  0  0
 12 20  1  0  0  0  0
M  END
>  <Mol_ID>
8176

>  <Formula>
C8H9ClN4

>  <MolWeight>
196.63686

>  <Cat>
S2562

>  <Name>
Hydralazine HCl

>  <Synonyms>
N/A

>  <Target>
Potassium Channel

>  <Form>
Hydrochloride

>  <CAS>
304-20-1

>  <URL>
http://selleckchem.com/products/Hydralazine-hydrochloride.html

$$$$
