Hydroxyurea.cdx
 OpenBabel08302519503D

  9  8  0  0  0  0  0  0  0  0999 V2000
    0.8634    0.0781    0.0381 N   0  0  0  0  0  0  0  0  0  0  0  0
    0.2995    0.8952   -0.8922 C   0  0  0  0  0  0  0  0  0  0  0  0
   -1.0543    0.8964   -0.8852 N   0  0  0  0  0  0  0  0  0  0  0  0
    2.2726    0.0435    0.0963 O   0  0  0  0  0  0  0  0  0  0  0  0
    0.9499    1.5744   -1.6768 O   0  0  0  0  0  0  0  0  0  0  0  0
    0.3552   -0.4676    0.7186 H   0  0  0  0  0  0  0  0  0  0  0  0
   -1.5251    1.4792   -1.5641 H   0  0  0  0  0  0  0  0  0  0  0  0
   -1.6057    0.3392   -0.2520 H   0  0  0  0  0  0  0  0  0  0  0  0
    2.5216    0.6655   -0.6219 H   0  0  0  0  0  0  0  0  0  0  0  0
  1  2  1  0  0  0  0
  1  4  1  0  0  0  0
  1  6  1  0  0  0  0
  2  3  1  0  0  0  0
  2  5  2  0  0  0  0
  3  7  1  0  0  0  0
  3  8  1  0  0  0  0
  4  9  1  0  0  0  0
M  END
>  <Mol_ID>
175

>  <Formula>
CH4N2O2

>  <MolWeight>
76.05466

>  <Cat>
S1896

>  <Name>
Hydroxyurea (NSC-32065)

>  <Synonyms>
NCI-C04831, Hydroxycarbamide,NSC-32065

>  <Target>
Apoptosis related,Autophagy,DNA/RNA Synthesis,HIV

>  <Form>
free base

>  <CAS>
127-07-1

>  <URL>
http://selleckchem.com/products/Hydroxyurea(Cytodrox).html

$$$$
