Hydrocinnamic acid
 OpenBabel08302520393D

 21 21  0  0  0  0  0  0  0  0999 V2000
    1.3327   -0.1922    0.1135 C   0  0  0  0  0  0  0  0  0  0  0  0
    2.8367   -0.3305    0.1618 C   0  0  0  0  0  0  0  0  0  0  0  0
    0.4807   -1.2988    0.0033 C   0  0  0  0  0  0  0  0  0  0  0  0
    0.7577    1.0838    0.2310 C   0  0  0  0  0  0  0  0  0  0  0  0
    3.4460   -1.4854   -0.6324 C   0  0  0  0  0  0  0  0  0  0  0  0
   -0.9050   -1.1321   -0.0381 C   0  0  0  0  0  0  0  0  0  0  0  0
   -0.6288    1.2493    0.1934 C   0  0  0  0  0  0  0  0  0  0  0  0
    3.1103   -1.4586   -2.1036 C   0  0  0  0  0  0  0  0  0  0  0  0
   -1.4597    0.1410    0.0516 C   0  0  0  0  0  0  0  0  0  0  0  0
    3.6071   -0.3892   -2.7624 O   0  0  0  0  0  0  0  0  0  0  0  0
    2.4990   -2.3499   -2.6734 O   0  0  0  0  0  0  0  0  0  0  0  0
    3.2873    0.6070   -0.1887 H   0  0  0  0  0  0  0  0  0  0  0  0
    3.1274   -0.4388    1.2145 H   0  0  0  0  0  0  0  0  0  0  0  0
    0.8734   -2.3101   -0.0676 H   0  0  0  0  0  0  0  0  0  0  0  0
    1.3850    1.9647    0.3474 H   0  0  0  0  0  0  0  0  0  0  0  0
    4.5379   -1.4787   -0.5357 H   0  0  0  0  0  0  0  0  0  0  0  0
    3.1151   -2.4488   -0.2270 H   0  0  0  0  0  0  0  0  0  0  0  0
   -1.5491   -2.0010   -0.1473 H   0  0  0  0  0  0  0  0  0  0  0  0
   -1.0608    2.2432    0.2712 H   0  0  0  0  0  0  0  0  0  0  0  0
   -2.5380    0.2675    0.0118 H   0  0  0  0  0  0  0  0  0  0  0  0
    4.1032    0.2364   -2.2042 H   0  0  0  0  0  0  0  0  0  0  0  0
  1  2  1  0  0  0  0
  1  3  2  0  0  0  0
  1  4  1  0  0  0  0
  2  5  1  0  0  0  0
  2 12  1  0  0  0  0
  2 13  1  0  0  0  0
  3  6  1  0  0  0  0
  3 14  1  0  0  0  0
  4  7  2  0  0  0  0
  4 15  1  0  0  0  0
  5  8  1  0  0  0  0
  5 16  1  0  0  0  0
  5 17  1  0  0  0  0
  6  9  2  0  0  0  0
  6 18  1  0  0  0  0
  7  9  1  0  0  0  0
  7 19  1  0  0  0  0
  8 10  1  0  0  0  0
  8 11  2  0  0  0  0
  9 20  1  0  0  0  0
 10 21  1  0  0  0  0
M  END
>  <Mol_ID>
3612

>  <Formula>
C9H10O2

>  <MolWeight>
150.1745

>  <Cat>
S6254

>  <Name>
Hydrocinnamic acid

>  <Synonyms>
3-phenylpropionic acid, Benzylacetic acid

>  <Target>
Fungal

>  <Form>
free base

>  <CAS>
501-52-0

>  <URL>
http://www.selleck.cn/products/hydrocinnamic-acid.html

$$$$
