Hydroxyflutamide (Hydroxyniphtholide)
 OpenBabel08302521323D

 31 31  0  0  0  0  0  0  0  0999 V2000
    1.0784    0.2569    0.1887 C   0  0  0  0  0  0  0  0  0  0  0  0
    0.4164   -0.7946    1.1044 C   0  0  0  0  0  0  0  0  0  0  0  0
    0.7830   -0.4938    2.5564 C   0  0  0  0  0  0  0  0  0  0  0  0
    0.4598    1.2682   -0.1494 O   0  0  0  0  0  0  0  0  0  0  0  0
    2.3974   -0.0184   -0.1640 N   0  0  0  0  0  0  0  0  0  0  0  0
    3.1893    0.8273   -0.9781 C   0  0  0  0  0  0  0  0  0  0  0  0
    2.8997    2.1931   -1.1185 C   0  0  0  0  0  0  0  0  0  0  0  0
    3.5461    3.0065   -2.0655 C   0  0  0  0  0  0  0  0  0  0  0  0
    4.5607    2.4197   -2.8262 C   0  0  0  0  0  0  0  0  0  0  0  0
    4.9420    1.0816   -2.6338 C   0  0  0  0  0  0  0  0  0  0  0  0
    4.2548    0.2896   -1.7025 C   0  0  0  0  0  0  0  0  0  0  0  0
    3.0604    4.4151   -2.2802 C   0  0  0  0  0  0  0  0  0  0  0  0
    1.9909    4.7387   -1.4992 F   0  0  0  0  0  0  0  0  0  0  0  0
    3.9959    5.3596   -2.0084 F   0  0  0  0  0  0  0  0  0  0  0  0
    2.6520    4.6231   -3.5605 F   0  0  0  0  0  0  0  0  0  0  0  0
    5.2231    3.1690   -3.8839 N   0  3  0  0  0  0  0  0  0  0  0  0
    5.7973    4.2138   -3.5625 O   0  0  0  0  0  0  0  0  0  0  0  0
    5.1815    2.6854   -5.0218 O   0  5  0  0  0  0  0  0  0  0  0  0
   -1.1049   -0.7064    0.9097 C   0  0  0  0  0  0  0  0  0  0  0  0
    0.8600   -2.1182    0.7977 O   0  0  0  0  0  0  0  0  0  0  0  0
    0.4950    0.5255    2.8395 H   0  0  0  0  0  0  0  0  0  0  0  0
    0.2906   -1.1951    3.2396 H   0  0  0  0  0  0  0  0  0  0  0  0
    1.8614   -0.5976    2.7195 H   0  0  0  0  0  0  0  0  0  0  0  0
    2.6690   -0.9913   -0.0493 H   0  0  0  0  0  0  0  0  0  0  0  0
    2.1264    2.6529   -0.5053 H   0  0  0  0  0  0  0  0  0  0  0  0
    5.7415    0.6437   -3.2297 H   0  0  0  0  0  0  0  0  0  0  0  0
    4.5323   -0.7575   -1.5984 H   0  0  0  0  0  0  0  0  0  0  0  0
   -1.3674   -0.8906   -0.1386 H   0  0  0  0  0  0  0  0  0  0  0  0
   -1.6363   -1.4547    1.5076 H   0  0  0  0  0  0  0  0  0  0  0  0
   -1.4909    0.2837    1.1799 H   0  0  0  0  0  0  0  0  0  0  0  0
    0.2045   -2.7373    1.1644 H   0  0  0  0  0  0  0  0  0  0  0  0
  1  2  1  0  0  0  0
  1  4  2  0  0  0  0
  1  5  1  0  0  0  0
  2  3  1  0  0  0  0
  2 19  1  0  0  0  0
  2 20  1  0  0  0  0
  3 21  1  0  0  0  0
  3 22  1  0  0  0  0
  3 23  1  0  0  0  0
  5  6  1  0  0  0  0
  5 24  1  0  0  0  0
  6  7  2  0  0  0  0
  6 11  1  0  0  0  0
  7  8  1  0  0  0  0
  7 25  1  0  0  0  0
  8  9  2  0  0  0  0
  8 12  1  0  0  0  0
  9 10  1  0  0  0  0
  9 16  1  0  0  0  0
 10 11  2  0  0  0  0
 10 26  1  0  0  0  0
 11 27  1  0  0  0  0
 12 13  1  0  0  0  0
 12 14  1  0  0  0  0
 12 15  1  0  0  0  0
 16 17  2  0  0  0  0
 16 18  1  0  0  0  0
 19 28  1  0  0  0  0
 19 29  1  0  0  0  0
 19 30  1  0  0  0  0
 20 31  1  0  0  0  0
M  CHG  2  16   1  18  -1
M  END
>  <Mol_ID>
6205

>  <Formula>
C11H11F3N2O4

>  <MolWeight>
292.2112496

>  <Cat>
S2174

>  <Name>
Hydroxyflutamide (Hydroxyniphtholide)

>  <Synonyms>
Hydroxy-flutamide, SCH-16423

>  <Target>
Adrenergic Receptor

>  <Form>
free base

>  <CAS>
52806-53-8

>  <URL>
http://www.selleckchem.com/products/hydroxyflutamide-sch-16423-hydroxyniphtholide.html

$$$$
