Hydrocortisone butyrate
 OpenBabel08302520403D

 67 70  0  0  0  0  0  0  0  0999 V2000
    0.4802   -0.4062   -0.7080 C   0  0  1  0  0  0  0  0  0  0  0  0
    0.4213   -1.9700   -1.0463 C   0  0  2  0  0  0  0  0  0  0  0  0
    0.4533    0.3374   -2.0496 C   0  0  0  0  0  0  0  0  0  0  0  0
   -0.4657    0.0715    0.2569 O   0  0  0  0  0  0  0  0  0  0  0  0
    1.9681   -0.0741   -0.1572 C   0  0  0  0  0  0  0  0  0  0  0  0
    1.0757   -1.9217   -2.4784 C   0  0  1  0  0  0  0  0  0  0  0  0
   -0.7248   -2.9777   -1.4302 C   0  0  0  0  0  0  0  0  0  0  0  0
    0.9752   -2.6422    0.2596 C   0  0  0  0  0  0  0  0  0  0  0  0
    1.4388   -0.4809   -2.8663 C   0  0  0  0  0  0  0  0  0  0  0  0
   -1.7808    0.0196   -0.0353 C   0  0  0  0  0  0  0  0  0  0  0  0
    2.2910    1.3028    0.4026 C   0  0  0  0  0  0  0  0  0  0  0  0
    2.9130   -0.8764   -0.2412 O   0  0  0  0  0  0  0  0  0  0  0  0
    2.0253   -3.0689   -2.6631 C   0  0  1  0  0  0  0  0  0  0  0  0
   -0.1114   -4.4234   -1.9221 C   0  0  1  0  0  0  0  0  0  0  0  0
   -2.6216    0.6438    1.0518 C   0  0  0  0  0  0  0  0  0  0  0  0
   -2.2630   -0.4681   -1.0566 O   0  0  0  0  0  0  0  0  0  0  0  0
    3.6990    1.5465    0.2693 O   0  0  0  0  0  0  0  0  0  0  0  0
    1.1966   -4.4292   -2.8653 C   0  0  3  0  0  0  0  0  0  0  0  0
    3.0318   -2.7932   -3.7760 C   0  0  0  0  0  0  0  0  0  0  0  0
    0.0319   -5.2830   -0.7987 O   0  0  0  0  0  0  0  0  0  0  0  0
   -3.2071   -0.3889    2.0051 C   0  0  0  0  0  0  0  0  0  0  0  0
    2.2855   -5.6657   -2.9467 C   0  0  3  0  0  0  0  0  0  0  0  0
    4.0560   -3.9085   -3.7720 C   0  0  0  0  0  0  0  0  0  0  0  0
   -2.1386   -1.1686    2.7569 C   0  0  0  0  0  0  0  0  0  0  0  0
    3.2688   -5.1495   -4.0501 C   0  0  0  0  0  0  0  0  0  0  0  0
    1.9151   -7.1604   -3.3418 C   0  0  0  0  0  0  0  0  0  0  0  0
    2.8600   -5.8750   -1.5154 C   0  0  0  0  0  0  0  0  0  0  0  0
    3.1476   -5.4797   -5.3505 C   0  0  0  0  0  0  0  0  0  0  0  0
    2.1792   -7.6516   -4.7723 C   0  0  0  0  0  0  0  0  0  0  0  0
    2.1562   -6.5022   -5.6926 C   0  0  0  0  0  0  0  0  0  0  0  0
    1.4153   -6.3914   -6.6748 O   0  0  0  0  0  0  0  0  0  0  0  0
   -0.5379    0.3348   -2.5120 H   0  0  0  0  0  0  0  0  0  0  0  0
    0.7585    1.3862   -1.9816 H   0  0  0  0  0  0  0  0  0  0  0  0
    0.2962   -2.0876   -3.2431 H   0  0  0  0  0  0  0  0  0  0  0  0
   -1.4180   -3.1348   -0.5921 H   0  0  0  0  0  0  0  0  0  0  0  0
   -1.3467   -2.5790   -2.2435 H   0  0  0  0  0  0  0  0  0  0  0  0
    1.8957   -3.2042    0.1239 H   0  0  0  0  0  0  0  0  0  0  0  0
    1.1406   -1.9310    1.0784 H   0  0  0  0  0  0  0  0  0  0  0  0
    0.2318   -3.2967    0.7330 H   0  0  0  0  0  0  0  0  0  0  0  0
    1.2947   -0.2939   -3.9364 H   0  0  0  0  0  0  0  0  0  0  0  0
    2.4747   -0.2212   -2.6341 H   0  0  0  0  0  0  0  0  0  0  0  0
    1.7753    2.0937   -0.1403 H   0  0  0  0  0  0  0  0  0  0  0  0
    2.0487    1.3310    1.4637 H   0  0  0  0  0  0  0  0  0  0  0  0
    2.6226   -3.1469   -1.7557 H   0  0  0  0  0  0  0  0  0  0  0  0
   -0.9170   -4.8897   -2.5037 H   0  0  0  0  0  0  0  0  0  0  0  0
   -2.0309    1.3943    1.5892 H   0  0  0  0  0  0  0  0  0  0  0  0
   -3.4337    1.1932    0.5596 H   0  0  0  0  0  0  0  0  0  0  0  0
    4.1408    0.6762    0.3641 H   0  0  0  0  0  0  0  0  0  0  0  0
    0.7620   -4.3598   -3.8767 H   0  0  0  0  0  0  0  0  0  0  0  0
    2.5111   -2.7171   -4.7415 H   0  0  0  0  0  0  0  0  0  0  0  0
    3.5539   -1.8440   -3.6245 H   0  0  0  0  0  0  0  0  0  0  0  0
    0.7765   -4.9726   -0.2628 H   0  0  0  0  0  0  0  0  0  0  0  0
   -3.8453    0.1285    2.7310 H   0  0  0  0  0  0  0  0  0  0  0  0
   -3.8473   -1.0918    1.4592 H   0  0  0  0  0  0  0  0  0  0  0  0
    4.8096   -3.7134   -4.5480 H   0  0  0  0  0  0  0  0  0  0  0  0
    4.5901   -3.9745   -2.8191 H   0  0  0  0  0  0  0  0  0  0  0  0
   -1.3896   -0.4981    3.1886 H   0  0  0  0  0  0  0  0  0  0  0  0
   -2.5916   -1.7457    3.5686 H   0  0  0  0  0  0  0  0  0  0  0  0
   -1.6299   -1.8728    2.0916 H   0  0  0  0  0  0  0  0  0  0  0  0
    0.9115   -7.4362   -3.0109 H   0  0  0  0  0  0  0  0  0  0  0  0
    2.5866   -7.8295   -2.7714 H   0  0  0  0  0  0  0  0  0  0  0  0
    3.0469   -4.9600   -0.9586 H   0  0  0  0  0  0  0  0  0  0  0  0
    2.1399   -6.4589   -0.9217 H   0  0  0  0  0  0  0  0  0  0  0  0
    3.7853   -6.4595   -1.5158 H   0  0  0  0  0  0  0  0  0  0  0  0
    3.6329   -4.9614   -6.1674 H   0  0  0  0  0  0  0  0  0  0  0  0
    1.4916   -8.4433   -5.0855 H   0  0  0  0  0  0  0  0  0  0  0  0
    3.1901   -8.0852   -4.8567 H   0  0  0  0  0  0  0  0  0  0  0  0
  1  2  1  0  0  0  0
  1  3  1  0  0  0  0
  1  4  1  1  0  0  0
  1  5  1  0  0  0  0
  2  6  1  0  0  0  0
  2  7  1  0  0  0  0
  2  8  1  1  0  0  0
  3  9  1  0  0  0  0
  3 32  1  0  0  0  0
  3 33  1  0  0  0  0
  4 10  1  0  0  0  0
  5 11  1  0  0  0  0
  5 12  2  0  0  0  0
  6 13  1  0  0  0  0
  6  9  1  0  0  0  0
  6 34  1  6  0  0  0
  7 14  1  0  0  0  0
  7 35  1  0  0  0  0
  7 36  1  0  0  0  0
  8 37  1  0  0  0  0
  8 38  1  0  0  0  0
  8 39  1  0  0  0  0
  9 40  1  0  0  0  0
  9 41  1  0  0  0  0
 10 15  1  0  0  0  0
 10 16  2  0  0  0  0
 11 17  1  0  0  0  0
 11 42  1  0  0  0  0
 11 43  1  0  0  0  0
 13 18  1  0  0  0  0
 13 19  1  0  0  0  0
 13 44  1  1  0  0  0
 14 20  1  0  0  0  0
 14 45  1  6  0  0  0
 15 21  1  0  0  0  0
 15 46  1  0  0  0  0
 15 47  1  0  0  0  0
 17 48  1  0  0  0  0
 18 14  1  0  0  0  0
 18 22  1  0  0  0  0
 18 49  1  0  0  0  0
 19 23  1  0  0  0  0
 19 50  1  0  0  0  0
 19 51  1  0  0  0  0
 20 52  1  0  0  0  0
 21 24  1  0  0  0  0
 21 53  1  0  0  0  0
 21 54  1  0  0  0  0
 22 25  1  0  0  0  0
 22 26  1  0  0  0  0
 22 27  1  0  0  0  0
 23 25  1  0  0  0  0
 23 55  1  0  0  0  0
 23 56  1  0  0  0  0
 24 57  1  0  0  0  0
 24 58  1  0  0  0  0
 24 59  1  0  0  0  0
 25 28  2  0  0  0  0
 26 29  1  0  0  0  0
 26 60  1  0  0  0  0
 26 61  1  0  0  0  0
 27 62  1  0  0  0  0
 27 63  1  0  0  0  0
 27 64  1  0  0  0  0
 28 30  1  0  0  0  0
 28 65  1  0  0  0  0
 29 30  1  0  0  0  0
 29 66  1  0  0  0  0
 29 67  1  0  0  0  0
 30 31  2  0  0  0  0
M  END
>  <Mol_ID>
3851

>  <Formula>
C25H36O6

>  <MolWeight>
432.54974

>  <Cat>
S6590

>  <Name>
Hydrocortisone butyrate

>  <Synonyms>
N/A

>  <Target>
Others

>  <Form>
free base

>  <CAS>
13609-67-1

>  <URL>
http://www.selleck.cn/products/hydrocortisone-butyrate.html

$$$$
