Hydroxychloroquine sulfate.cdx
 OpenBabel08302521363D

 56 56  0  0  0  0  0  0  0  0999 V2000
    3.4030   -1.4735    2.1068 C   0  0  0  0  0  0  0  0  0  0  0  0
    2.2078   -0.7905    1.8900 C   0  0  0  0  0  0  0  0  0  0  0  0
    1.2184   -1.3612    1.0774 C   0  0  0  0  0  0  0  0  0  0  0  0
    1.3965   -2.6354    0.5106 C   0  0  0  0  0  0  0  0  0  0  0  0
    2.6595   -3.2713    0.6685 C   0  0  0  0  0  0  0  0  0  0  0  0
    3.6243   -2.6882    1.4543 C   0  0  0  0  0  0  0  0  0  0  0  0
    0.3597   -3.3873   -0.0975 C   0  0  0  0  0  0  0  0  0  0  0  0
    0.6802   -4.6859   -0.4807 C   0  0  0  0  0  0  0  0  0  0  0  0
    1.9707   -5.1648   -0.3853 C   0  0  0  0  0  0  0  0  0  0  0  0
    2.9632   -4.4723    0.1691 N   0  0  0  0  0  0  0  0  0  0  0  0
   -0.9464   -2.8882   -0.1676 N   0  0  0  0  0  0  0  0  0  0  0  0
   -2.1762   -3.6988   -0.1369 C   0  0  3  0  0  0  0  0  0  0  0  0
   -2.3840   -4.5097   -1.4231 C   0  0  0  0  0  0  0  0  0  0  0  0
   -2.2629   -4.5317    1.1611 C   0  0  0  0  0  0  0  0  0  0  0  0
   -2.2820   -3.7063    2.4667 C   0  0  0  0  0  0  0  0  0  0  0  0
   -3.4756   -2.7424    2.6827 C   0  0  0  0  0  0  0  0  0  0  0  0
   -4.8186   -3.3648    2.6685 N   0  0  0  0  0  0  0  0  0  0  0  0
   -5.0234   -4.2302    3.8475 C   0  0  0  0  0  0  0  0  0  0  0  0
   -6.4186   -4.8697    4.0101 C   0  0  0  0  0  0  0  0  0  0  0  0
   -6.8385   -5.5784    2.8466 O   0  0  0  0  0  0  0  0  0  0  0  0
   -5.9056   -2.3937    2.4193 C   0  0  0  0  0  0  0  0  0  0  0  0
   -6.1191   -1.1941    3.3492 C   0  0  0  0  0  0  0  0  0  0  0  0
    1.1289    0.3085   -1.8799 O   0  0  0  0  0  0  0  0  0  0  0  0
    0.3240   -0.1943   -3.1543 S   0  0  0  0  0  0  0  0  0  0  0  0
    0.6127    1.0039   -4.1885 O   0  0  0  0  0  0  0  0  0  0  0  0
    0.9966   -1.3805   -3.6324 O   0  0  0  0  0  0  0  0  0  0  0  0
   -1.0762   -0.1830   -2.8358 O   0  0  0  0  0  0  0  0  0  0  0  0
    4.1440   -1.0951    2.7960 H   0  0  0  0  0  0  0  0  0  0  0  0
    2.0344    0.1548    2.3928 H   0  0  0  0  0  0  0  0  0  0  0  0
    0.2800   -0.8181    0.9610 H   0  0  0  0  0  0  0  0  0  0  0  0
    4.5527   -3.2301    1.6285 H   0  0  0  0  0  0  0  0  0  0  0  0
   -0.0336   -5.4031   -0.8361 H   0  0  0  0  0  0  0  0  0  0  0  0
    2.2079   -6.1669   -0.7263 H   0  0  0  0  0  0  0  0  0  0  0  0
   -1.0522   -1.9835   -0.6182 H   0  0  0  0  0  0  0  0  0  0  0  0
   -3.0164   -2.9955   -0.1144 H   0  0  0  0  0  0  0  0  0  0  0  0
   -1.6061   -5.2279   -1.6674 H   0  0  0  0  0  0  0  0  0  0  0  0
   -3.2999   -5.1029   -1.3664 H   0  0  0  0  0  0  0  0  0  0  0  0
   -2.4406   -3.8429   -2.2890 H   0  0  0  0  0  0  0  0  0  0  0  0
   -3.1452   -5.1793    1.1306 H   0  0  0  0  0  0  0  0  0  0  0  0
   -1.4015   -5.2092    1.2230 H   0  0  0  0  0  0  0  0  0  0  0  0
   -2.2206   -4.4054    3.3099 H   0  0  0  0  0  0  0  0  0  0  0  0
   -1.3596   -3.1146    2.5262 H   0  0  0  0  0  0  0  0  0  0  0  0
   -3.3129   -2.2346    3.6448 H   0  0  0  0  0  0  0  0  0  0  0  0
   -3.4144   -1.9577    1.9197 H   0  0  0  0  0  0  0  0  0  0  0  0
   -4.3225   -5.0681    3.7494 H   0  0  0  0  0  0  0  0  0  0  0  0
   -4.7775   -3.6997    4.7748 H   0  0  0  0  0  0  0  0  0  0  0  0
   -6.3904   -5.5901    4.8335 H   0  0  0  0  0  0  0  0  0  0  0  0
   -7.1762   -4.1201    4.2583 H   0  0  0  0  0  0  0  0  0  0  0  0
   -6.1091   -5.5297    2.2023 H   0  0  0  0  0  0  0  0  0  0  0  0
   -5.7650   -2.0045    1.4034 H   0  0  0  0  0  0  0  0  0  0  0  0
   -6.8622   -2.9252    2.3543 H   0  0  0  0  0  0  0  0  0  0  0  0
   -5.2453   -0.9303    3.9484 H   0  0  0  0  0  0  0  0  0  0  0  0
   -6.3802   -0.3117    2.7486 H   0  0  0  0  0  0  0  0  0  0  0  0
   -6.9623   -1.3674    4.0281 H   0  0  0  0  0  0  0  0  0  0  0  0
    1.6042   -0.4617   -1.5166 H   0  0  0  0  0  0  0  0  0  0  0  0
    0.7411    1.8248   -3.6682 H   0  0  0  0  0  0  0  0  0  0  0  0
  1  2  2  0  0  0  0
  1 28  1  0  0  0  0
  2  3  1  0  0  0  0
  2 29  1  0  0  0  0
  3  4  2  0  0  0  0
  3 30  1  0  0  0  0
  4  5  1  0  0  0  0
  4  7  1  0  0  0  0
  5  6  2  0  0  0  0
  6  1  1  0  0  0  0
  6 31  1  0  0  0  0
  7  8  2  0  0  0  0
  7 11  1  0  0  0  0
  8  9  1  0  0  0  0
  8 32  1  0  0  0  0
  9 10  2  0  0  0  0
  9 33  1  0  0  0  0
 10  5  1  0  0  0  0
 11 12  1  0  0  0  0
 11 34  1  0  0  0  0
 12 13  1  0  0  0  0
 12 14  1  0  0  0  0
 12 35  1  0  0  0  0
 13 36  1  0  0  0  0
 13 37  1  0  0  0  0
 13 38  1  0  0  0  0
 14 15  1  0  0  0  0
 14 39  1  0  0  0  0
 14 40  1  0  0  0  0
 15 16  1  0  0  0  0
 15 41  1  0  0  0  0
 15 42  1  0  0  0  0
 16 17  1  0  0  0  0
 16 43  1  0  0  0  0
 16 44  1  0  0  0  0
 17 18  1  0  0  0  0
 17 21  1  0  0  0  0
 18 19  1  0  0  0  0
 18 45  1  0  0  0  0
 18 46  1  0  0  0  0
 19 20  1  0  0  0  0
 19 47  1  0  0  0  0
 19 48  1  0  0  0  0
 20 49  1  0  0  0  0
 21 22  1  0  0  0  0
 21 50  1  0  0  0  0
 21 51  1  0  0  0  0
 22 52  1  0  0  0  0
 22 53  1  0  0  0  0
 22 54  1  0  0  0  0
 23 24  1  0  0  0  0
 23 55  1  0  0  0  0
 24 25  1  0  0  0  0
 24 26  2  0  0  0  0
 24 27  2  0  0  0  0
 25 56  1  0  0  0  0
M  END
>  <Mol_ID>
7135

>  <Formula>
C18H28ClN3O5S

>  <MolWeight>
433.95002

>  <Cat>
S4430

>  <Name>
Hydroxychloroquine Sulfate (NSC 4375)

>  <Synonyms>
HCQ

>  <Target>
Anti-infection,Autophagy,COVID-19,TLR

>  <Form>
Sulfate

>  <CAS>
747-36-4

>  <URL>
http://selleckchem.com/products/hydroxychloroquine-sulfate.html

$$$$
