Hygric acid
 OpenBabel08302521363D

 20 20  0  0  1  0  0  0  0  0999 V2000
    3.0190    0.1934    1.5679 C   0  0  0  0  0  0  0  0  0  0  0  0
    2.1891    0.9676    2.3136 O   0  0  0  0  0  0  0  0  0  0  0  0
    4.0238   -0.3159    2.0472 O   0  0  0  0  0  0  0  0  0  0  0  0
    2.9553    2.4898   -0.3173 C   0  0  0  0  0  0  0  0  0  0  0  0
    2.5668    0.0668    0.1023 C   0  0  1  0  0  0  0  0  0  0  0  0
    3.0928    1.1226   -0.7853 N   0  0  0  0  0  0  0  0  0  0  0  0
    3.1344   -1.2003   -0.5350 C   0  0  0  0  0  0  0  0  0  0  0  0
    4.4802    0.7532   -1.0699 C   0  0  0  0  0  0  0  0  0  0  0  0
    4.4224   -0.7605   -1.2281 C   0  0  0  0  0  0  0  0  0  0  0  0
    1.4442    1.3337    1.8006 H   0  0  0  0  0  0  0  0  0  0  0  0
    3.4914    2.6813    0.6181 H   0  0  0  0  0  0  0  0  0  0  0  0
    3.3360    3.1893   -1.0692 H   0  0  0  0  0  0  0  0  0  0  0  0
    1.8976    2.7333   -0.1696 H   0  0  0  0  0  0  0  0  0  0  0  0
    1.4724    0.0277    0.0751 H   0  0  0  0  0  0  0  0  0  0  0  0
    3.3240   -2.0031    0.1852 H   0  0  0  0  0  0  0  0  0  0  0  0
    2.4369   -1.5903   -1.2868 H   0  0  0  0  0  0  0  0  0  0  0  0
    4.8509    1.2320   -1.9823 H   0  0  0  0  0  0  0  0  0  0  0  0
    5.1528    1.0194   -0.2451 H   0  0  0  0  0  0  0  0  0  0  0  0
    5.3003   -1.2360   -0.7785 H   0  0  0  0  0  0  0  0  0  0  0  0
    4.3915   -1.0459   -2.2863 H   0  0  0  0  0  0  0  0  0  0  0  0
  1  2  1  0  0  0  0
  1  3  2  0  0  0  0
  2 10  1  0  0  0  0
  4  6  1  0  0  0  0
  4 11  1  0  0  0  0
  4 12  1  0  0  0  0
  4 13  1  0  0  0  0
  5  6  1  0  0  0  0
  5  7  1  0  0  0  0
  5 14  1  6  0  0  0
  5  1  1  0  0  0  0
  6  8  1  0  0  0  0
  7  9  1  0  0  0  0
  7 15  1  0  0  0  0
  7 16  1  0  0  0  0
  8  9  1  0  0  0  0
  8 17  1  0  0  0  0
  8 18  1  0  0  0  0
  9 19  1  0  0  0  0
  9 20  1  0  0  0  0
M  END
>  <Mol_ID>
7044

>  <Formula>
C6H11NO2

>  <MolWeight>
129.15704

>  <Cat>
E4050

>  <Name>
Hygric acid

>  <Synonyms>
N-Methyl-L-proline

>  <Target>
Others

>  <Form>
Free base

>  <CAS>
475-11-6

>  <URL>
https://www.selleckchem.com/products/hygric-acid.html

$$$$
