Hyodeoxycholic acid.cdx
 OpenBabel08302521363D

 68 71  0  0  0  0  0  0  0  0999 V2000
    5.4243    2.8212    1.2580 C   0  0  0  0  0  0  0  0  0  0  0  0
    6.0063    3.0660   -0.1250 C   0  0  2  0  0  0  0  0  0  0  0  0
    5.0472    2.7806   -1.2698 C   0  0  0  0  0  0  0  0  0  0  0  0
    3.5992    3.2563   -1.0400 C   0  0  2  0  0  0  0  0  0  0  0  0
    3.0149    2.8022    0.3643 C   0  0  2  0  0  0  0  0  0  0  0  0
    4.1007    2.0672    1.2002 C   0  0  0  0  0  0  0  0  0  0  0  0
    2.7417    2.9827   -2.3239 C   0  0  2  0  0  0  0  0  0  0  0  0
    1.3251    2.4536   -2.1664 C   0  0  0  0  0  0  0  0  0  0  0  0
    0.7815    2.5792   -0.7459 C   0  0  2  0  0  0  0  0  0  0  0  0
    1.7836    1.8616    0.1633 C   0  0  2  0  0  0  0  0  0  0  0  0
   -0.5687    1.9353   -0.6775 C   0  0  1  0  0  0  0  0  0  0  0  0
   -1.2371    1.8252    0.7153 C   0  0  2  0  0  0  0  0  0  0  0  0
   -0.2993    1.0771    1.6687 C   0  0  0  0  0  0  0  0  0  0  0  0
    1.2167    1.1942    1.4402 C   0  0  0  0  0  0  0  0  0  0  0  0
   -1.6256    2.5689   -1.5743 C   0  0  0  0  0  0  0  0  0  0  0  0
   -2.9333    2.0508   -0.9960 C   0  0  0  0  0  0  0  0  0  0  0  0
   -2.5147    1.0835    0.1532 C   0  0  2  0  0  0  0  0  0  0  0  0
    2.5647    4.0670    1.1588 C   0  0  0  0  0  0  0  0  0  0  0  0
   -1.5722    3.1773    1.3883 C   0  0  0  0  0  0  0  0  0  0  0  0
   -3.7221    0.5386    0.9509 C   0  0  2  0  0  0  0  0  0  0  0  0
    7.1564    2.2364   -0.2971 O   0  0  0  0  0  0  0  0  0  0  0  0
    3.4057    2.1076   -3.2501 O   0  0  0  0  0  0  0  0  0  0  0  0
   -3.3211   -0.4830    2.0211 C   0  0  0  0  0  0  0  0  0  0  0  0
   -4.6424   -0.1248   -0.1231 C   0  0  0  0  0  0  0  0  0  0  0  0
   -5.8459   -0.9396    0.3139 C   0  0  0  0  0  0  0  0  0  0  0  0
   -6.4604   -1.5469   -0.9280 C   0  0  0  0  0  0  0  0  0  0  0  0
   -5.9027   -2.7285   -1.2799 O   0  0  0  0  0  0  0  0  0  0  0  0
   -7.3243   -1.0050   -1.6006 O   0  0  0  0  0  0  0  0  0  0  0  0
    5.2728    3.7870    1.7556 H   0  0  0  0  0  0  0  0  0  0  0  0
    6.1265    2.2694    1.8907 H   0  0  0  0  0  0  0  0  0  0  0  0
    6.3605    4.0996   -0.1880 H   0  0  0  0  0  0  0  0  0  0  0  0
    5.0498    1.7026   -1.4790 H   0  0  0  0  0  0  0  0  0  0  0  0
    5.4464    3.2581   -2.1764 H   0  0  0  0  0  0  0  0  0  0  0  0
    3.6575    4.3543   -0.9919 H   0  0  0  0  0  0  0  0  0  0  0  0
    3.7624    1.9118    2.2294 H   0  0  0  0  0  0  0  0  0  0  0  0
    4.2791    1.0680    0.7798 H   0  0  0  0  0  0  0  0  0  0  0  0
    2.6667    3.9337   -2.8610 H   0  0  0  0  0  0  0  0  0  0  0  0
    0.6758    2.9643   -2.8859 H   0  0  0  0  0  0  0  0  0  0  0  0
    1.2828    1.3950   -2.4726 H   0  0  0  0  0  0  0  0  0  0  0  0
    0.6636    3.6373   -0.5057 H   0  0  0  0  0  0  0  0  0  0  0  0
    2.1714    0.9997   -0.4065 H   0  0  0  0  0  0  0  0  0  0  0  0
   -0.4070    0.9077   -1.0433 H   0  0  0  0  0  0  0  0  0  0  0  0
   -0.5173    0.0041    1.6633 H   0  0  0  0  0  0  0  0  0  0  0  0
   -0.4917    1.3930    2.7038 H   0  0  0  0  0  0  0  0  0  0  0  0
    1.6691    1.5984    2.3504 H   0  0  0  0  0  0  0  0  0  0  0  0
    1.5864    0.1555    1.4187 H   0  0  0  0  0  0  0  0  0  0  0  0
   -1.5870    3.6643   -1.5592 H   0  0  0  0  0  0  0  0  0  0  0  0
   -1.5077    2.2424   -2.6124 H   0  0  0  0  0  0  0  0  0  0  0  0
   -3.5442    2.8806   -0.6204 H   0  0  0  0  0  0  0  0  0  0  0  0
   -3.4970    1.5606   -1.7904 H   0  0  0  0  0  0  0  0  0  0  0  0
   -2.1187    0.1776   -0.3190 H   0  0  0  0  0  0  0  0  0  0  0  0
    1.9335    4.7369    0.5657 H   0  0  0  0  0  0  0  0  0  0  0  0
    1.9967    3.7995    2.0579 H   0  0  0  0  0  0  0  0  0  0  0  0
    3.4077    4.6803    1.4800 H   0  0  0  0  0  0  0  0  0  0  0  0
   -2.1178    3.0142    2.3286 H   0  0  0  0  0  0  0  0  0  0  0  0
   -2.1915    3.8472    0.7844 H   0  0  0  0  0  0  0  0  0  0  0  0
   -0.6630    3.7381    1.6379 H   0  0  0  0  0  0  0  0  0  0  0  0
   -4.2630    1.3644    1.4264 H   0  0  0  0  0  0  0  0  0  0  0  0
    6.8490    1.3030   -0.2651 H   0  0  0  0  0  0  0  0  0  0  0  0
    3.3723    1.2035   -2.8907 H   0  0  0  0  0  0  0  0  0  0  0  0
   -2.2518   -0.6526    2.0799 H   0  0  0  0  0  0  0  0  0  0  0  0
   -3.6510   -0.1507    3.0094 H   0  0  0  0  0  0  0  0  0  0  0  0
   -3.7421   -1.4754    1.8467 H   0  0  0  0  0  0  0  0  0  0  0  0
   -4.0178   -0.7635   -0.7670 H   0  0  0  0  0  0  0  0  0  0  0  0
   -5.0375    0.6613   -0.7778 H   0  0  0  0  0  0  0  0  0  0  0  0
   -5.6045   -1.7468    1.0083 H   0  0  0  0  0  0  0  0  0  0  0  0
   -6.5924   -0.3053    0.8015 H   0  0  0  0  0  0  0  0  0  0  0  0
   -5.1873   -3.0257   -0.6870 H   0  0  0  0  0  0  0  0  0  0  0  0
  1  2  1  0  0  0  0
  1 29  1  0  0  0  0
  1 30  1  0  0  0  0
  2  3  1  0  0  0  0
  2 21  1  0  0  0  0
  2 31  1  6  0  0  0
  3 32  1  0  0  0  0
  3 33  1  0  0  0  0
  4  3  1  0  0  0  0
  4  5  1  0  0  0  0
  4  7  1  0  0  0  0
  4 34  1  1  0  0  0
  5  6  1  0  0  0  0
  5 18  1  1  0  0  0
  6  1  1  0  0  0  0
  6 35  1  0  0  0  0
  6 36  1  0  0  0  0
  7  8  1  0  0  0  0
  7 37  1  6  0  0  0
  7 22  1  0  0  0  0
  8 38  1  0  0  0  0
  8 39  1  0  0  0  0
  9  8  1  0  0  0  0
  9 10  1  0  0  0  0
  9 11  1  0  0  0  0
  9 40  1  1  0  0  0
 10  5  1  0  0  0  0
 10 14  1  0  0  0  0
 10 41  1  6  0  0  0
 11 12  1  0  0  0  0
 11 15  1  0  0  0  0
 11 42  1  6  0  0  0
 12 13  1  0  0  0  0
 12 19  1  1  0  0  0
 13 14  1  0  0  0  0
 13 43  1  0  0  0  0
 13 44  1  0  0  0  0
 14 45  1  0  0  0  0
 14 46  1  0  0  0  0
 15 16  1  0  0  0  0
 15 47  1  0  0  0  0
 15 48  1  0  0  0  0
 16 49  1  0  0  0  0
 16 50  1  0  0  0  0
 17 16  1  0  0  0  0
 17 12  1  0  0  0  0
 17 51  1  6  0  0  0
 17 20  1  0  0  0  0
 18 52  1  0  0  0  0
 18 53  1  0  0  0  0
 18 54  1  0  0  0  0
 19 55  1  0  0  0  0
 19 56  1  0  0  0  0
 19 57  1  0  0  0  0
 20 58  1  1  0  0  0
 20 24  1  0  0  0  0
 20 23  1  0  0  0  0
 21 59  1  0  0  0  0
 22 60  1  0  0  0  0
 23 61  1  0  0  0  0
 23 62  1  0  0  0  0
 23 63  1  0  0  0  0
 24 25  1  0  0  0  0
 24 64  1  0  0  0  0
 24 65  1  0  0  0  0
 25 26  1  0  0  0  0
 25 66  1  0  0  0  0
 25 67  1  0  0  0  0
 26 27  1  0  0  0  0
 26 28  2  0  0  0  0
 27 68  1  0  0  0  0
M  END
>  <Mol_ID>
694

>  <Formula>
C24H40O4

>  <MolWeight>
392.572

>  <Cat>
S2311

>  <Name>
Hyodeoxycholic acid (HDCA)

>  <Synonyms>
NSC 60672

>  <Target>
GPCR19

>  <Form>
free base

>  <CAS>
83-49-8

>  <URL>
http://selleckchem.com/products/Hyodeoxycholic-acid(HDCA).html

$$$$
