Hyoscyamine (L).cdx
 OpenBabel08302522033D

 44 46  0  0  0  0  0  0  0  0999 V2000
   -1.5317    0.6933    0.2533 C   0  0  3  0  0  0  0  0  0  0  0  0
   -0.0498    0.9107   -0.0330 C   0  0  0  0  0  0  0  0  0  0  0  0
   -2.1235   -0.2589   -0.8207 C   0  0  0  0  0  0  0  0  0  0  0  0
   -1.8986    0.1368    1.5506 O   0  0  0  0  0  0  0  0  0  0  0  0
    0.7011   -0.4365   -0.2564 C   0  0  3  0  0  0  0  0  0  0  0  0
   -1.1401   -1.3798   -1.2493 C   0  0  3  0  0  0  0  0  0  0  0  0
   -1.0241   -0.2573    2.5132 C   0  0  0  0  0  0  0  0  0  0  0  0
   -0.2439   -1.5767   -0.1070 N   0  0  0  0  0  0  0  0  0  0  0  0
    1.0978   -0.5169   -1.7304 C   0  0  0  0  0  0  0  0  0  0  0  0
   -0.1870   -1.0078   -2.4015 C   0  0  0  0  0  0  0  0  0  0  0  0
   -1.7005   -1.1759    3.5295 C   0  0  1  0  0  0  0  0  0  0  0  0
    0.1520    0.0758    2.6049 O   0  0  0  0  0  0  0  0  0  0  0  0
    0.3923   -2.8895   -0.0923 C   0  0  0  0  0  0  0  0  0  0  0  0
   -1.9351   -0.4670    4.8508 C   0  0  0  0  0  0  0  0  0  0  0  0
   -2.9036   -1.9513    2.9521 C   0  0  0  0  0  0  0  0  0  0  0  0
   -3.0973    0.2565    5.1269 C   0  0  0  0  0  0  0  0  0  0  0  0
   -0.9163   -0.4937    5.8260 C   0  0  0  0  0  0  0  0  0  0  0  0
   -3.2539    0.9202    6.3462 C   0  0  0  0  0  0  0  0  0  0  0  0
   -1.0750    0.1676    7.0448 C   0  0  0  0  0  0  0  0  0  0  0  0
   -2.2444    0.8755    7.3042 C   0  0  0  0  0  0  0  0  0  0  0  0
   -3.9903   -1.1380    2.5132 O   0  0  0  0  0  0  0  0  0  0  0  0
   -2.0584    1.6543    0.2007 H   0  0  0  0  0  0  0  0  0  0  0  0
    0.0096    1.5328   -0.9380 H   0  0  0  0  0  0  0  0  0  0  0  0
    0.4314    1.5034    0.7518 H   0  0  0  0  0  0  0  0  0  0  0  0
   -3.0222   -0.7333   -0.4021 H   0  0  0  0  0  0  0  0  0  0  0  0
   -2.4387    0.3157   -1.6979 H   0  0  0  0  0  0  0  0  0  0  0  0
    1.5640   -0.5022    0.4141 H   0  0  0  0  0  0  0  0  0  0  0  0
   -1.7303   -2.2654   -1.5115 H   0  0  0  0  0  0  0  0  0  0  0  0
    1.4462    0.4342   -2.1449 H   0  0  0  0  0  0  0  0  0  0  0  0
    1.9112   -1.2370   -1.8765 H   0  0  0  0  0  0  0  0  0  0  0  0
   -0.6070   -0.2552   -3.0738 H   0  0  0  0  0  0  0  0  0  0  0  0
    0.0522   -1.8983   -2.9953 H   0  0  0  0  0  0  0  0  0  0  0  0
   -0.9573   -1.9687    3.7144 H   0  0  0  0  0  0  0  0  0  0  0  0
   -0.3278   -3.6717   -0.3605 H   0  0  0  0  0  0  0  0  0  0  0  0
    1.2478   -2.9871   -0.7658 H   0  0  0  0  0  0  0  0  0  0  0  0
    0.7313   -3.1154    0.9234 H   0  0  0  0  0  0  0  0  0  0  0  0
   -2.5848   -2.5532    2.0910 H   0  0  0  0  0  0  0  0  0  0  0  0
   -3.3026   -2.6420    3.7025 H   0  0  0  0  0  0  0  0  0  0  0  0
   -3.9042    0.3231    4.4021 H   0  0  0  0  0  0  0  0  0  0  0  0
    0.0162   -1.0220    5.6348 H   0  0  0  0  0  0  0  0  0  0  0  0
   -4.1670    1.4759    6.5439 H   0  0  0  0  0  0  0  0  0  0  0  0
   -0.2811    0.1361    7.7863 H   0  0  0  0  0  0  0  0  0  0  0  0
   -2.3667    1.3978    8.2487 H   0  0  0  0  0  0  0  0  0  0  0  0
   -3.6045   -0.4595    1.9253 H   0  0  0  0  0  0  0  0  0  0  0  0
  1  2  1  0  0  0  0
  1  3  1  0  0  0  0
  1  4  1  0  0  0  0
  1 22  1  0  0  0  0
  2  5  1  0  0  0  0
  2 23  1  0  0  0  0
  2 24  1  0  0  0  0
  3  6  1  0  0  0  0
  3 25  1  0  0  0  0
  3 26  1  0  0  0  0
  4  7  1  0  0  0  0
  5  8  1  0  0  0  0
  5  9  1  0  0  0  0
  5 27  1  0  0  0  0
  6 10  1  0  0  0  0
  6  8  1  0  0  0  0
  6 28  1  0  0  0  0
  7 11  1  0  0  0  0
  7 12  2  0  0  0  0
  8 13  1  0  0  0  0
  9 10  1  0  0  0  0
  9 29  1  0  0  0  0
  9 30  1  0  0  0  0
 10 31  1  0  0  0  0
 10 32  1  0  0  0  0
 11 14  1  0  0  0  0
 11 15  1  0  0  0  0
 11 33  1  1  0  0  0
 13 34  1  0  0  0  0
 13 35  1  0  0  0  0
 13 36  1  0  0  0  0
 14 16  2  0  0  0  0
 14 17  1  0  0  0  0
 15 21  1  0  0  0  0
 15 37  1  0  0  0  0
 15 38  1  0  0  0  0
 16 18  1  0  0  0  0
 16 39  1  0  0  0  0
 17 19  2  0  0  0  0
 17 40  1  0  0  0  0
 18 20  2  0  0  0  0
 18 41  1  0  0  0  0
 19 20  1  0  0  0  0
 19 42  1  0  0  0  0
 20 43  1  0  0  0  0
 21 44  1  0  0  0  0
M  END
>  <Mol_ID>
1198

>  <Formula>
C17H23NO3

>  <MolWeight>
289.36942

>  <Cat>
S4014

>  <Name>
Hyoscyamine

>  <Synonyms>
Daturine

>  <Target>
AChR

>  <Form>
free base

>  <CAS>
101-31-5

>  <URL>
http://selleckchem.com/products/hyoscyamine-daturine.html

$$$$
