Hypoxanthine.cdx
 OpenBabel08302521393D

 14 15  0  0  0  0  0  0  0  0999 V2000
   -0.8081   -0.6785   -0.0058 C   0  0  0  0  0  0  0  0  0  0  0  0
   -0.1428    0.5163    0.0102 C   0  0  0  0  0  0  0  0  0  0  0  0
    1.2686    0.6248    0.0252 C   0  0  0  0  0  0  0  0  0  0  0  0
    1.8710   -0.6087    0.0320 N   0  0  0  0  0  0  0  0  0  0  0  0
    1.1519   -1.7846    0.0119 C   0  0  0  0  0  0  0  0  0  0  0  0
   -0.1372   -1.9037   -0.0084 N   0  0  0  0  0  0  0  0  0  0  0  0
   -2.1571   -0.4868   -0.0155 N   0  0  0  0  0  0  0  0  0  0  0  0
   -2.3131    0.8213   -0.0039 C   0  0  0  0  0  0  0  0  0  0  0  0
   -1.1101    1.4765    0.0114 N   0  0  0  0  0  0  0  0  0  0  0  0
    1.8966    1.6763    0.0303 O   0  0  0  0  0  0  0  0  0  0  0  0
    2.8795   -0.6183    0.0457 H   0  0  0  0  0  0  0  0  0  0  0  0
    1.7937   -2.6806    0.0142 H   0  0  0  0  0  0  0  0  0  0  0  0
   -3.2599    1.3451   -0.0050 H   0  0  0  0  0  0  0  0  0  0  0  0
   -0.9636    2.4776    0.0245 H   0  0  0  0  0  0  0  0  0  0  0  0
  1  2  2  0  0  0  0
  1  7  1  0  0  0  0
  2  3  1  0  0  0  0
  3  4  1  0  0  0  0
  3 10  2  0  0  0  0
  4  5  1  0  0  0  0
  4 11  1  0  0  0  0
  5  6  2  0  0  0  0
  5 12  1  0  0  0  0
  6  1  1  0  0  0  0
  7  8  2  0  0  0  0
  8  9  1  0  0  0  0
  8 13  1  0  0  0  0
  9  2  1  0  0  0  0
  9 14  1  0  0  0  0
M  END
>  <Mol_ID>
8197

>  <Formula>
C5H4N4O

>  <MolWeight>
136.11146

>  <Cat>
S2424

>  <Name>
Hypoxanthine

>  <Synonyms>
N/A

>  <Target>
Others

>  <Form>
Free Base

>  <CAS>
68-94-0

>  <URL>
http://selleckchem.com/products/hypoxanthine.html

$$$$
