I-191
 OpenBabel08302521353D

 57 60  0  0  0  0  0  0  0  0999 V2000
    2.1360    0.0742    0.1073 F   0  0  0  0  0  0  0  0  0  0  0  0
  -13.4914   -0.0061    1.9376 O   0  0  0  0  0  0  0  0  0  0  0  0
   -8.9999   -2.1392    2.6608 O   0  0  0  0  0  0  0  0  0  0  0  0
   -9.8460   -0.0775    2.0199 N   0  0  0  0  0  0  0  0  0  0  0  0
  -12.0323    1.4045    0.9961 N   0  0  0  0  0  0  0  0  0  0  0  0
   -5.4601   -0.7012    0.8552 N   0  0  0  0  0  0  0  0  0  0  0  0
   -7.4938   -0.2115    0.0862 N   0  0  0  0  0  0  0  0  0  0  0  0
   -4.1114   -0.7408    0.9951 N   0  0  0  0  0  0  0  0  0  0  0  0
  -11.1603   -0.1800    2.7507 C   0  0  0  0  0  0  0  0  0  0  0  0
   -9.6100    1.2477    1.4227 C   0  0  0  0  0  0  0  0  0  0  0  0
   -6.2155    1.3945   -2.3244 C   0  0  0  0  0  0  0  0  0  0  0  0
  -12.3149    0.3387    1.8237 C   0  0  0  0  0  0  0  0  0  0  0  0
  -10.7127    1.5796    0.4291 C   0  0  0  0  0  0  0  0  0  0  0  0
  -11.5655   -1.5778    3.2554 C   0  0  0  0  0  0  0  0  0  0  0  0
  -11.1405    0.7533    3.9838 C   0  0  0  0  0  0  0  0  0  0  0  0
   -5.4993    0.6376   -1.1686 C   0  0  0  0  0  0  0  0  0  0  0  0
   -8.8696   -1.0908    2.0348 C   0  0  0  0  0  0  0  0  0  0  0  0
   -6.2012   -0.0710   -0.1273 C   0  0  0  0  0  0  0  0  0  0  0  0
   -7.6070   -0.8562    1.3082 C   0  0  0  0  0  0  0  0  0  0  0  0
   -7.0880    2.5337   -1.7526 C   0  0  0  0  0  0  0  0  0  0  0  0
   -5.2470    2.0492   -3.3403 C   0  0  0  0  0  0  0  0  0  0  0  0
   -7.1143    0.4223   -3.1123 C   0  0  0  0  0  0  0  0  0  0  0  0
   -6.3516   -1.2360    1.7438 C   0  0  0  0  0  0  0  0  0  0  0  0
   -4.1543    0.6051   -1.0772 C   0  0  0  0  0  0  0  0  0  0  0  0
   -3.4824   -0.0867    0.0665 C   0  0  0  0  0  0  0  0  0  0  0  0
   -1.9908   -0.0079    0.0957 C   0  0  0  0  0  0  0  0  0  0  0  0
   -1.2661   -1.0924    0.6094 C   0  0  0  0  0  0  0  0  0  0  0  0
   -1.3017    1.1228   -0.3746 C   0  0  0  0  0  0  0  0  0  0  0  0
    0.1308   -1.0622    0.6134 C   0  0  0  0  0  0  0  0  0  0  0  0
    0.0945    1.1449   -0.3756 C   0  0  0  0  0  0  0  0  0  0  0  0
    0.7973    0.0510    0.1138 C   0  0  0  0  0  0  0  0  0  0  0  0
  -12.8318    1.6904    0.4438 H   0  0  0  0  0  0  0  0  0  0  0  0
   -9.5871    1.9791    2.2352 H   0  0  0  0  0  0  0  0  0  0  0  0
   -8.6452    1.3667    0.9481 H   0  0  0  0  0  0  0  0  0  0  0  0
  -10.6509    0.9214   -0.4446 H   0  0  0  0  0  0  0  0  0  0  0  0
  -10.6278    2.6159    0.0889 H   0  0  0  0  0  0  0  0  0  0  0  0
  -10.8766   -1.9505    4.0210 H   0  0  0  0  0  0  0  0  0  0  0  0
  -12.5530   -1.5544    3.7348 H   0  0  0  0  0  0  0  0  0  0  0  0
  -11.6228   -2.3044    2.4388 H   0  0  0  0  0  0  0  0  0  0  0  0
  -11.0384    1.8087    3.7099 H   0  0  0  0  0  0  0  0  0  0  0  0
  -12.0784    0.6845    4.5467 H   0  0  0  0  0  0  0  0  0  0  0  0
  -10.3131    0.5007    4.6549 H   0  0  0  0  0  0  0  0  0  0  0  0
   -6.4805    3.2720   -1.2155 H   0  0  0  0  0  0  0  0  0  0  0  0
   -7.6173    3.0632   -2.5542 H   0  0  0  0  0  0  0  0  0  0  0  0
   -7.8519    2.1657   -1.0624 H   0  0  0  0  0  0  0  0  0  0  0  0
   -4.5953    1.3046   -3.8108 H   0  0  0  0  0  0  0  0  0  0  0  0
   -5.7958    2.5516   -4.1451 H   0  0  0  0  0  0  0  0  0  0  0  0
   -4.6161    2.8082   -2.8616 H   0  0  0  0  0  0  0  0  0  0  0  0
   -6.5307   -0.4102   -3.5206 H   0  0  0  0  0  0  0  0  0  0  0  0
   -7.9128    0.0022   -2.4919 H   0  0  0  0  0  0  0  0  0  0  0  0
   -7.6006    0.9317   -3.9525 H   0  0  0  0  0  0  0  0  0  0  0  0
   -6.0244   -1.7661    2.6272 H   0  0  0  0  0  0  0  0  0  0  0  0
   -3.5160    1.0651   -1.8185 H   0  0  0  0  0  0  0  0  0  0  0  0
   -1.7841   -1.9665    0.9983 H   0  0  0  0  0  0  0  0  0  0  0  0
   -1.8288    2.0037   -0.7303 H   0  0  0  0  0  0  0  0  0  0  0  0
    0.7022   -1.9006    0.9998 H   0  0  0  0  0  0  0  0  0  0  0  0
    0.6366    2.0080   -0.7504 H   0  0  0  0  0  0  0  0  0  0  0  0
  1 31  1  0  0  0  0
  2 12  2  0  0  0  0
  3 17  2  0  0  0  0
  4  9  1  0  0  0  0
  4 10  1  0  0  0  0
  4 17  1  0  0  0  0
  5 12  1  0  0  0  0
  5 13  1  0  0  0  0
  5 32  1  0  0  0  0
  6  8  1  0  0  0  0
  6 18  1  0  0  0  0
  6 23  1  0  0  0  0
  7 18  2  0  0  0  0
  7 19  1  0  0  0  0
  8 25  2  0  0  0  0
  9 12  1  0  0  0  0
  9 14  1  0  0  0  0
  9 15  1  0  0  0  0
 10 13  1  0  0  0  0
 10 33  1  0  0  0  0
 10 34  1  0  0  0  0
 11 16  1  0  0  0  0
 11 20  1  0  0  0  0
 11 21  1  0  0  0  0
 11 22  1  0  0  0  0
 13 35  1  0  0  0  0
 13 36  1  0  0  0  0
 14 37  1  0  0  0  0
 14 38  1  0  0  0  0
 14 39  1  0  0  0  0
 15 40  1  0  0  0  0
 15 41  1  0  0  0  0
 15 42  1  0  0  0  0
 16 18  1  0  0  0  0
 16 24  2  0  0  0  0
 17 19  1  0  0  0  0
 19 23  2  0  0  0  0
 20 43  1  0  0  0  0
 20 44  1  0  0  0  0
 20 45  1  0  0  0  0
 21 46  1  0  0  0  0
 21 47  1  0  0  0  0
 21 48  1  0  0  0  0
 22 49  1  0  0  0  0
 22 50  1  0  0  0  0
 22 51  1  0  0  0  0
 23 52  1  0  0  0  0
 24 25  1  0  0  0  0
 24 53  1  0  0  0  0
 25 26  1  0  0  0  0
 26 27  2  0  0  0  0
 26 28  1  0  0  0  0
 27 29  1  0  0  0  0
 27 54  1  0  0  0  0
 28 30  2  0  0  0  0
 28 55  1  0  0  0  0
 29 31  2  0  0  0  0
 29 56  1  0  0  0  0
 30 31  1  0  0  0  0
 30 57  1  0  0  0  0
M  END
>  <Mol_ID>
6790

>  <Formula>
C23H26FN5O2

>  <MolWeight>
423.4832432

>  <Cat>
E0102

>  <Name>
I-191

>  <Synonyms>
N/A

>  <Target>
ERK,PAR,Rho

>  <Form>
Free base

>  <CAS>
1690172-25-8

>  <URL>
http://www.selleckchem.com/products/i-191.html

$$$$
