I-BRD9 (GSK602).cdx
 OpenBabel08302520003D

 55 58  0  0  0  0  0  0  0  0999 V2000
   -0.3540    1.0116   -0.9532 C   0  0  0  0  0  0  0  0  0  0  0  0
   -1.1676   -0.1000   -0.7314 C   0  0  0  0  0  0  0  0  0  0  0  0
   -0.7151   -1.1553    0.0632 C   0  0  0  0  0  0  0  0  0  0  0  0
    0.5588   -1.1127    0.6473 C   0  0  0  0  0  0  0  0  0  0  0  0
    1.3702    0.0114    0.4186 C   0  0  0  0  0  0  0  0  0  0  0  0
    0.9184    1.0742   -0.3794 C   0  0  0  0  0  0  0  0  0  0  0  0
    1.7544    2.2803   -0.5286 C   0  0  0  0  0  0  0  0  0  0  0  0
    1.7971    3.3637    0.3958 C   0  0  0  0  0  0  0  0  0  0  0  0
    2.7415    4.3711    0.3763 C   0  0  0  0  0  0  0  0  0  0  0  0
    3.6915    4.4398   -0.7407 C   0  0  0  0  0  0  0  0  0  0  0  0
    3.5294    3.4205   -1.7135 N   0  0  0  0  0  0  0  0  0  0  0  0
    2.6273    2.3594   -1.5530 C   0  0  0  0  0  0  0  0  0  0  0  0
    0.6604    3.5803    1.6455 S   0  0  0  0  0  0  0  0  0  0  0  0
    1.5908    4.8181    2.3700 C   0  0  0  0  0  0  0  0  0  0  0  0
    2.6468    5.1941    1.5520 C   0  0  0  0  0  0  0  0  0  0  0  0
    4.5363    5.3224   -0.8131 O   0  0  0  0  0  0  0  0  0  0  0  0
    4.3497    3.4604   -2.9252 C   0  0  0  0  0  0  0  0  0  0  0  0
    5.6691    2.7202   -2.7804 C   0  0  0  0  0  0  0  0  0  0  0  0
    1.2105    5.2797    3.7035 C   0  0  0  0  0  0  0  0  0  0  0  0
    1.0605   -2.2423    1.5136 C   0  0  0  0  0  0  0  0  0  0  0  0
    0.1605   -3.2524    1.6697 F   0  0  0  0  0  0  0  0  0  0  0  0
    2.1853   -2.8206    1.0075 F   0  0  0  0  0  0  0  0  0  0  0  0
    1.3849   -1.8334    2.7714 F   0  0  0  0  0  0  0  0  0  0  0  0
   -0.0497    5.3930    3.9923 N   0  0  0  0  0  0  0  0  0  0  0  0
    2.1534    5.5644    4.6674 N   0  0  0  0  0  0  0  0  0  0  0  0
    1.8759    6.4028    5.8305 C   0  0  0  0  0  0  0  0  0  0  0  0
    3.2055    6.9890    6.3319 C   0  0  0  0  0  0  0  0  0  0  0  0
    4.1569    5.9280    6.8711 C   0  0  0  0  0  0  0  0  0  0  0  0
    3.4584    5.0819    8.2639 S   0  0  0  0  0  0  0  0  0  0  0  0
    1.9000    4.5295    7.6189 C   0  0  0  0  0  0  0  0  0  0  0  0
    1.1251    5.6572    6.9521 C   0  0  0  0  0  0  0  0  0  0  0  0
    4.2800    3.9181    8.5357 O   0  0  0  0  0  0  0  0  0  0  0  0
    3.2030    6.0666    9.3000 O   0  0  0  0  0  0  0  0  0  0  0  0
   -0.7306    1.8390   -1.5508 H   0  0  0  0  0  0  0  0  0  0  0  0
   -2.1632   -0.1384   -1.1674 H   0  0  0  0  0  0  0  0  0  0  0  0
   -1.3683   -2.0108    0.2323 H   0  0  0  0  0  0  0  0  0  0  0  0
    2.3527    0.0657    0.8887 H   0  0  0  0  0  0  0  0  0  0  0  0
    2.6760    1.5778   -2.3059 H   0  0  0  0  0  0  0  0  0  0  0  0
    3.3352    6.0007    1.7747 H   0  0  0  0  0  0  0  0  0  0  0  0
    3.7755    3.0370   -3.7577 H   0  0  0  0  0  0  0  0  0  0  0  0
    4.5492    4.5076   -3.1842 H   0  0  0  0  0  0  0  0  0  0  0  0
    5.5064    1.6577   -2.5701 H   0  0  0  0  0  0  0  0  0  0  0  0
    6.2483    2.7963   -3.7060 H   0  0  0  0  0  0  0  0  0  0  0  0
    6.2720    3.1377   -1.9665 H   0  0  0  0  0  0  0  0  0  0  0  0
   -0.6109    5.1154    3.1778 H   0  0  0  0  0  0  0  0  0  0  0  0
    3.0925    5.6344    4.2904 H   0  0  0  0  0  0  0  0  0  0  0  0
    1.2508    7.2463    5.5078 H   0  0  0  0  0  0  0  0  0  0  0  0
    2.9963    7.7314    7.1121 H   0  0  0  0  0  0  0  0  0  0  0  0
    3.6999    7.5239    5.5120 H   0  0  0  0  0  0  0  0  0  0  0  0
    5.0969    6.3835    7.1996 H   0  0  0  0  0  0  0  0  0  0  0  0
    4.3941    5.1689    6.1182 H   0  0  0  0  0  0  0  0  0  0  0  0
    2.0997    3.7097    6.9243 H   0  0  0  0  0  0  0  0  0  0  0  0
    1.3352    4.1291    8.4696 H   0  0  0  0  0  0  0  0  0  0  0  0
    0.8568    6.3932    7.7218 H   0  0  0  0  0  0  0  0  0  0  0  0
    0.1774    5.2509    6.5832 H   0  0  0  0  0  0  0  0  0  0  0  0
  1  2  2  0  0  0  0
  1 34  1  0  0  0  0
  2  3  1  0  0  0  0
  2 35  1  0  0  0  0
  3  4  2  0  0  0  0
  3 36  1  0  0  0  0
  4  5  1  0  0  0  0
  4 20  1  0  0  0  0
  5  6  2  0  0  0  0
  5 37  1  0  0  0  0
  6  1  1  0  0  0  0
  6  7  1  0  0  0  0
  7  8  1  0  0  0  0
  8  9  2  0  0  0  0
  8 13  1  0  0  0  0
  9 10  1  0  0  0  0
 10 11  1  0  0  0  0
 10 16  2  0  0  0  0
 11 12  1  0  0  0  0
 11 17  1  0  0  0  0
 12  7  2  0  0  0  0
 12 38  1  0  0  0  0
 13 14  1  0  0  0  0
 14 15  2  0  0  0  0
 14 19  1  0  0  0  0
 15  9  1  0  0  0  0
 15 39  1  0  0  0  0
 17 18  1  0  0  0  0
 17 40  1  0  0  0  0
 17 41  1  0  0  0  0
 18 42  1  0  0  0  0
 18 43  1  0  0  0  0
 18 44  1  0  0  0  0
 19 24  2  0  0  0  0
 19 25  1  0  0  0  0
 20 21  1  0  0  0  0
 20 22  1  0  0  0  0
 20 23  1  0  0  0  0
 24 45  1  0  0  0  0
 25 26  1  0  0  0  0
 25 46  1  0  0  0  0
 26 27  1  0  0  0  0
 26 47  1  0  0  0  0
 27 28  1  0  0  0  0
 27 48  1  0  0  0  0
 27 49  1  0  0  0  0
 28 29  1  0  0  0  0
 28 50  1  0  0  0  0
 28 51  1  0  0  0  0
 29 30  1  0  0  0  0
 29 32  2  0  0  0  0
 29 33  2  0  0  0  0
 30 31  1  0  0  0  0
 30 52  1  0  0  0  0
 30 53  1  0  0  0  0
 31 26  1  0  0  0  0
 31 54  1  0  0  0  0
 31 55  1  0  0  0  0
M  END
>  <Mol_ID>
2663

>  <Formula>
C22H22F3N3O3S2

>  <MolWeight>
497.5535896

>  <Cat>
S7835

>  <Name>
I-BRD9

>  <Synonyms>
GSK602

>  <Target>
Epigenetic Reader Domain

>  <Form>
free base

>  <CAS>
1714146-59-4

>  <URL>
http://selleckchem.com/products/i-brd9-gsk602.html

$$$$
