IACS-13909
 OpenBabel08302521303D

 43 46  0  0  0  0  0  0  0  0999 V2000
    0.7338    1.2657   -0.3362 N   0  0  0  0  0  0  0  0  0  0  0  0
    0.7287    1.3543    1.1139 C   0  0  0  0  0  0  0  0  0  0  0  0
    1.2144    0.0172    1.6907 C   0  0  0  0  0  0  0  0  0  0  0  0
    0.4208   -1.1832    1.1282 C   0  0  0  0  0  0  0  0  0  0  0  0
    0.4383   -1.1390   -0.4149 C   0  0  0  0  0  0  0  0  0  0  0  0
   -0.0520    0.2063   -0.9562 C   0  0  0  0  0  0  0  0  0  0  0  0
    1.0569   -2.4267    1.5982 N   0  0  0  0  0  0  0  0  0  0  0  0
   -1.0171   -1.2064    1.6734 C   0  0  0  0  0  0  0  0  0  0  0  0
    2.1000    4.3328   -1.4721 C   0  0  0  0  0  0  0  0  0  0  0  0
    2.6388    3.9932   -2.6963 C   0  0  0  0  0  0  0  0  0  0  0  0
    1.4296    3.5169   -0.6260 N   0  0  0  0  0  0  0  0  0  0  0  0
    2.5348    2.7319   -3.2013 N   0  0  0  0  0  0  0  0  0  0  0  0
    1.8839    1.9106   -2.3523 C   0  0  0  0  0  0  0  0  0  0  0  0
    1.3358    2.2491   -1.1028 C   0  0  0  0  0  0  0  0  0  0  0  0
    3.1441    6.1814   -2.3077 N   0  0  0  0  0  0  0  0  0  0  0  0
    2.4290    5.6446   -1.2948 N   0  0  0  0  0  0  0  0  0  0  0  0
    3.2619    5.1624   -3.1957 C   0  0  0  0  0  0  0  0  0  0  0  0
    3.9408    5.3246   -4.4766 C   0  0  0  0  0  0  0  0  0  0  0  0
    5.0193    6.2067   -4.6046 C   0  0  0  0  0  0  0  0  0  0  0  0
    5.6154    6.4270   -5.8448 C   0  0  0  0  0  0  0  0  0  0  0  0
    5.1292    5.7711   -6.9767 C   0  0  0  0  0  0  0  0  0  0  0  0
    4.0759    4.8681   -6.8590 C   0  0  0  0  0  0  0  0  0  0  0  0
    3.4948    4.6280   -5.6134 C   0  0  0  0  0  0  0  0  0  0  0  0
    1.3857    2.1503    1.4865 H   0  0  0  0  0  0  0  0  0  0  0  0
   -0.2819    1.5810    1.4705 H   0  0  0  0  0  0  0  0  0  0  0  0
    2.2792   -0.1016    1.4396 H   0  0  0  0  0  0  0  0  0  0  0  0
    1.1542    0.0449    2.7858 H   0  0  0  0  0  0  0  0  0  0  0  0
    1.4673   -1.2900   -0.7700 H   0  0  0  0  0  0  0  0  0  0  0  0
   -0.1638   -1.9498   -0.8422 H   0  0  0  0  0  0  0  0  0  0  0  0
   -1.1160    0.3586   -0.7493 H   0  0  0  0  0  0  0  0  0  0  0  0
    0.0292    0.2009   -2.0460 H   0  0  0  0  0  0  0  0  0  0  0  0
    0.5591   -3.2386    1.2348 H   0  0  0  0  0  0  0  0  0  0  0  0
    2.0105   -2.4927    1.2428 H   0  0  0  0  0  0  0  0  0  0  0  0
   -1.5800   -0.3070    1.4080 H   0  0  0  0  0  0  0  0  0  0  0  0
   -1.5760   -2.0648    1.2815 H   0  0  0  0  0  0  0  0  0  0  0  0
   -1.0242   -1.2795    2.7678 H   0  0  0  0  0  0  0  0  0  0  0  0
    1.8241    0.8888   -2.7152 H   0  0  0  0  0  0  0  0  0  0  0  0
    2.2123    6.2244   -0.4919 H   0  0  0  0  0  0  0  0  0  0  0  0
    5.3877    6.7427   -3.7309 H   0  0  0  0  0  0  0  0  0  0  0  0
    6.4431    7.1243   -5.9317 H   0  0  0  0  0  0  0  0  0  0  0  0
    5.5711    5.9713   -7.9487 H   0  0  0  0  0  0  0  0  0  0  0  0
    3.6936    4.3616   -7.7429 H   0  0  0  0  0  0  0  0  0  0  0  0
    2.6725    3.9220   -5.5408 H   0  0  0  0  0  0  0  0  0  0  0  0
  1  2  1  0  0  0  0
  1  6  1  0  0  0  0
  1 14  1  0  0  0  0
  2  3  1  0  0  0  0
  2 24  1  0  0  0  0
  2 25  1  0  0  0  0
  3  4  1  0  0  0  0
  3 26  1  0  0  0  0
  3 27  1  0  0  0  0
  4  5  1  0  0  0  0
  4  7  1  0  0  0  0
  4  8  1  0  0  0  0
  5  6  1  0  0  0  0
  5 28  1  0  0  0  0
  5 29  1  0  0  0  0
  6 30  1  0  0  0  0
  6 31  1  0  0  0  0
  7 32  1  0  0  0  0
  7 33  1  0  0  0  0
  8 34  1  0  0  0  0
  8 35  1  0  0  0  0
  8 36  1  0  0  0  0
  9 10  1  0  0  0  0
  9 11  2  0  0  0  0
 10 12  2  0  0  0  0
 11 14  1  0  0  0  0
 12 13  1  0  0  0  0
 13 14  2  0  0  0  0
 13 37  1  0  0  0  0
 15 16  1  0  0  0  0
 15 17  2  0  0  0  0
 16  9  1  0  0  0  0
 16 38  1  0  0  0  0
 17 10  1  0  0  0  0
 17 18  1  0  0  0  0
 18 19  2  0  0  0  0
 18 23  1  0  0  0  0
 19 20  1  0  0  0  0
 19 39  1  0  0  0  0
 20 21  2  0  0  0  0
 20 40  1  0  0  0  0
 21 22  1  0  0  0  0
 21 41  1  0  0  0  0
 22 23  2  0  0  0  0
 22 42  1  0  0  0  0
 23 43  1  0  0  0  0
M  END
>  <Mol_ID>
5567

>  <Formula>
C17H18Cl2N6

>  <MolWeight>
377.27102

>  <Cat>
S9703

>  <Name>
IACS-13909

>  <Synonyms>
BBP-398

>  <Target>
phosphatase

>  <Form>
Free Base

>  <CAS>
2160546-07-4

>  <URL>
https://www.selleckchem.com/products/iacs-13909.html

$$$$
