Iberdomide (CC220)
 OpenBabel08302521223D

 60 64  0  0  0  0  0  0  0  0999 V2000
    1.4975   -0.2165    0.3250 C   0  0  0  0  0  0  0  0  0  0  0  0
    0.6402   -1.2626    0.6606 C   0  0  0  0  0  0  0  0  0  0  0  0
   -0.7485   -1.0870    0.6477 C   0  0  0  0  0  0  0  0  0  0  0  0
   -1.3088    0.1623    0.3245 C   0  0  0  0  0  0  0  0  0  0  0  0
   -0.4448    1.2215    0.0278 C   0  0  0  0  0  0  0  0  0  0  0  0
    0.9410    1.0348    0.0214 C   0  0  0  0  0  0  0  0  0  0  0  0
    3.0011   -0.4364    0.1868 C   0  0  0  0  0  0  0  0  0  0  0  0
   -2.8076    0.3484    0.1907 C   0  0  0  0  0  0  0  0  0  0  0  0
    3.4117   -0.5400   -1.2204 N   0  0  0  0  0  0  0  0  0  0  0  0
    2.9477   -1.7727   -1.8925 C   0  0  0  0  0  0  0  0  0  0  0  0
    3.8038   -3.0229   -1.6280 C   0  0  0  0  0  0  0  0  0  0  0  0
    5.1837   -2.7841   -1.9228 O   0  0  0  0  0  0  0  0  0  0  0  0
    5.6745   -1.6924   -1.1387 C   0  0  0  0  0  0  0  0  0  0  0  0
    4.8713   -0.4089   -1.4045 C   0  0  0  0  0  0  0  0  0  0  0  0
   -3.3637    1.2713    1.1660 O   0  0  0  0  0  0  0  0  0  0  0  0
   -4.3786    0.6907    1.8950 C   0  0  0  0  0  0  0  0  0  0  0  0
   -5.3538   -0.0864    1.3078 C   0  0  0  0  0  0  0  0  0  0  0  0
   -5.5765   -1.3502    1.8183 C   0  0  0  0  0  0  0  0  0  0  0  0
   -5.2567   -1.6351    3.1378 C   0  0  0  0  0  0  0  0  0  0  0  0
   -4.6263   -0.6356    3.8885 C   0  0  0  0  0  0  0  0  0  0  0  0
   -4.1363    0.5141    3.2537 C   0  0  0  0  0  0  0  0  0  0  0  0
   -6.6523    0.3668    0.6689 C   0  0  0  0  0  0  0  0  0  0  0  0
   -7.6162   -0.7243    0.9815 N   0  0  0  0  0  0  0  0  0  0  0  0
   -6.7654   -1.8492    1.1265 C   0  0  0  0  0  0  0  0  0  0  0  0
   -6.9521   -2.9856    0.7468 O   0  0  0  0  0  0  0  0  0  0  0  0
   -8.4091   -0.5785    2.2380 C   0  0  1  0  0  0  0  0  0  0  0  0
   -9.4308    0.5527    2.2769 C   0  0  0  0  0  0  0  0  0  0  0  0
  -10.7091    0.2107    1.5336 C   0  0  0  0  0  0  0  0  0  0  0  0
  -11.2926   -1.1083    1.9801 C   0  0  0  0  0  0  0  0  0  0  0  0
  -10.4083   -2.0827    2.3422 N   0  0  0  0  0  0  0  0  0  0  0  0
   -9.0898   -1.9040    2.6729 C   0  0  0  0  0  0  0  0  0  0  0  0
   -8.4877   -2.7848    3.2844 O   0  0  0  0  0  0  0  0  0  0  0  0
  -12.5038   -1.3084    2.0081 O   0  0  0  0  0  0  0  0  0  0  0  0
    1.0492   -2.2532    0.8863 H   0  0  0  0  0  0  0  0  0  0  0  0
   -1.3839   -1.9449    0.8582 H   0  0  0  0  0  0  0  0  0  0  0  0
   -0.8545    2.1905   -0.2442 H   0  0  0  0  0  0  0  0  0  0  0  0
    1.5875    1.8641   -0.2607 H   0  0  0  0  0  0  0  0  0  0  0  0
    3.4838    0.4392    0.6453 H   0  0  0  0  0  0  0  0  0  0  0  0
    3.3244   -1.2990    0.7811 H   0  0  0  0  0  0  0  0  0  0  0  0
   -3.0268    0.7631   -0.8006 H   0  0  0  0  0  0  0  0  0  0  0  0
   -3.2653   -0.6490    0.2098 H   0  0  0  0  0  0  0  0  0  0  0  0
    2.9715   -1.5693   -2.9703 H   0  0  0  0  0  0  0  0  0  0  0  0
    1.9013   -1.9962   -1.6641 H   0  0  0  0  0  0  0  0  0  0  0  0
    3.7128   -3.3674   -0.5917 H   0  0  0  0  0  0  0  0  0  0  0  0
    3.4680   -3.8385   -2.2773 H   0  0  0  0  0  0  0  0  0  0  0  0
    6.7210   -1.5347   -1.4197 H   0  0  0  0  0  0  0  0  0  0  0  0
    5.6536   -1.9723   -0.0795 H   0  0  0  0  0  0  0  0  0  0  0  0
    5.0317   -0.1214   -2.4515 H   0  0  0  0  0  0  0  0  0  0  0  0
    5.2712    0.4149   -0.8014 H   0  0  0  0  0  0  0  0  0  0  0  0
   -5.6548   -2.5290    3.6179 H   0  0  0  0  0  0  0  0  0  0  0  0
   -4.4917   -0.7601    4.9601 H   0  0  0  0  0  0  0  0  0  0  0  0
   -3.5108    1.2183    3.7974 H   0  0  0  0  0  0  0  0  0  0  0  0
   -7.0065    1.3238    1.0608 H   0  0  0  0  0  0  0  0  0  0  0  0
   -6.5377    0.4237   -0.4193 H   0  0  0  0  0  0  0  0  0  0  0  0
   -7.7042   -0.3600    3.0511 H   0  0  0  0  0  0  0  0  0  0  0  0
   -9.6919    0.7212    3.3324 H   0  0  0  0  0  0  0  0  0  0  0  0
   -9.0176    1.4923    1.8940 H   0  0  0  0  0  0  0  0  0  0  0  0
  -11.4497    0.9938    1.7408 H   0  0  0  0  0  0  0  0  0  0  0  0
  -10.5419    0.1670    0.4538 H   0  0  0  0  0  0  0  0  0  0  0  0
  -10.8067   -2.9559    2.6408 H   0  0  0  0  0  0  0  0  0  0  0  0
  1  2  2  0  0  0  0
  1  7  1  0  0  0  0
  2  3  1  0  0  0  0
  2 34  1  0  0  0  0
  3  4  2  0  0  0  0
  3 35  1  0  0  0  0
  4  5  1  0  0  0  0
  4  8  1  0  0  0  0
  5  6  2  0  0  0  0
  5 36  1  0  0  0  0
  6  1  1  0  0  0  0
  6 37  1  0  0  0  0
  7  9  1  0  0  0  0
  7 38  1  0  0  0  0
  7 39  1  0  0  0  0
  8 15  1  0  0  0  0
  8 40  1  0  0  0  0
  8 41  1  0  0  0  0
  9 10  1  0  0  0  0
 10 11  1  0  0  0  0
 10 42  1  0  0  0  0
 10 43  1  0  0  0  0
 11 12  1  0  0  0  0
 11 44  1  0  0  0  0
 11 45  1  0  0  0  0
 12 13  1  0  0  0  0
 13 14  1  0  0  0  0
 13 46  1  0  0  0  0
 13 47  1  0  0  0  0
 14  9  1  0  0  0  0
 14 48  1  0  0  0  0
 14 49  1  0  0  0  0
 15 16  1  0  0  0  0
 16 17  2  0  0  0  0
 17 18  1  0  0  0  0
 17 22  1  0  0  0  0
 18 19  2  0  0  0  0
 19 20  1  0  0  0  0
 19 50  1  0  0  0  0
 20 21  2  0  0  0  0
 20 51  1  0  0  0  0
 21 16  1  0  0  0  0
 21 52  1  0  0  0  0
 22 23  1  0  0  0  0
 22 53  1  0  0  0  0
 22 54  1  0  0  0  0
 23 24  1  0  0  0  0
 24 18  1  0  0  0  0
 24 25  2  0  0  0  0
 26 23  1  0  0  0  0
 26 27  1  0  0  0  0
 26 55  1  1  0  0  0
 27 28  1  0  0  0  0
 27 56  1  0  0  0  0
 27 57  1  0  0  0  0
 28 29  1  0  0  0  0
 28 58  1  0  0  0  0
 28 59  1  0  0  0  0
 29 30  1  0  0  0  0
 29 33  2  0  0  0  0
 30 31  1  0  0  0  0
 30 60  1  0  0  0  0
 31 26  1  0  0  0  0
 31 32  2  0  0  0  0
M  END
>  <Mol_ID>
4662

>  <Formula>
C25H27N3O5

>  <MolWeight>
449.49898

>  <Cat>
S8760

>  <Name>
Iberdomide (CC220)

>  <Synonyms>
N/A

>  <Target>
Apoptosis related,E3 Ligase ,E3 ligase Ligand,Immunology & Inflammation related

>  <Form>
free base

>  <CAS>
1323403-33-3

>  <URL>
http://www.selleck.cn/products/iberdomide.html

$$$$
