Ibotenic acid
 OpenBabel08302521373D

 17 17  0  0  0  0  0  0  0  0999 V2000
    0.8331   -0.0029    0.0193 C   0  0  3  0  0  0  0  0  0  0  0  0
    0.4139   -1.0765   -1.0142 C   0  0  0  0  0  0  0  0  0  0  0  0
    0.3799   -0.3190    1.3894 N   0  0  0  0  0  0  0  0  0  0  0  0
   -0.2583   -2.1287   -0.4792 O   0  0  0  0  0  0  0  0  0  0  0  0
    0.6798   -1.0298   -2.2073 O   0  0  0  0  0  0  0  0  0  0  0  0
    0.2863    4.6228   -1.2131 O   0  0  0  0  0  0  0  0  0  0  0  0
    0.3201    1.3447   -0.3918 C   0  0  0  0  0  0  0  0  0  0  0  0
   -1.0571    1.4923   -0.5338 O   0  0  0  0  0  0  0  0  0  0  0  0
    1.0363    2.4445   -0.6279 C   0  0  0  0  0  0  0  0  0  0  0  0
   -1.1766    2.8476   -0.9065 N   0  0  0  0  0  0  0  0  0  0  0  0
    0.0430    3.4582   -0.9573 C   0  0  0  0  0  0  0  0  0  0  0  0
    1.9287   -0.0070    0.0353 H   0  0  0  0  0  0  0  0  0  0  0  0
   -0.6313   -0.2751    1.4879 H   0  0  0  0  0  0  0  0  0  0  0  0
    0.7986   -1.1628    1.7667 H   0  0  0  0  0  0  0  0  0  0  0  0
   -0.4110   -2.0012    0.4743 H   0  0  0  0  0  0  0  0  0  0  0  0
    2.0955    2.6170   -0.5750 H   0  0  0  0  0  0  0  0  0  0  0  0
   -2.0792    3.2749   -1.0519 H   0  0  0  0  0  0  0  0  0  0  0  0
  1  2  1  0  0  0  0
  1  3  1  0  0  0  0
  1  7  1  0  0  0  0
  1 12  1  0  0  0  0
  2  4  1  0  0  0  0
  2  5  2  0  0  0  0
  3 13  1  0  0  0  0
  3 14  1  0  0  0  0
  4 15  1  0  0  0  0
  6 11  2  0  0  0  0
  7  8  1  0  0  0  0
  7  9  2  0  0  0  0
  8 10  1  0  0  0  0
  9 11  1  0  0  0  0
  9 16  1  0  0  0  0
 10 11  1  0  0  0  0
 10 17  1  0  0  0  0
M  END
>  <Mol_ID>
7498

>  <Formula>
C5H6N2O4

>  <MolWeight>
158.11214

>  <Cat>
E1256

>  <Name>
Ibotenic acid

>  <Synonyms>
(RS)-Ibotenic acid; DL-Ibotenic acid

>  <Target>
Others

>  <Form>
free base

>  <CAS>
2552-55-8

>  <URL>
https://www.selleckchem.com/products/ibotenicacid.html

$$$$
