IBT6A
 OpenBabel08302521343D

 51 55  0  0  0  0  0  0  0  0999 V2000
   -1.8351    4.6067    1.3795 C   0  0  0  0  0  0  0  0  0  0  0  0
   -0.6112    4.1141    1.1268 N   0  0  0  0  0  0  0  0  0  0  0  0
   -0.6319    3.2300    0.1110 C   0  0  0  0  0  0  0  0  0  0  0  0
   -1.7406    2.8657   -0.6448 C   0  0  0  0  0  0  0  0  0  0  0  0
   -2.9685    3.4326   -0.2634 C   0  0  0  0  0  0  0  0  0  0  0  0
   -2.9893    4.3135    0.7535 N   0  0  0  0  0  0  0  0  0  0  0  0
    0.1016    1.7801   -1.4658 N   0  0  0  0  0  0  0  0  0  0  0  0
    0.4268    2.5053   -0.3726 N   0  0  0  0  0  0  0  0  0  0  0  0
   -1.2237    1.9532   -1.6223 C   0  0  0  0  0  0  0  0  0  0  0  0
   -4.1999    3.1635   -0.8448 N   0  0  0  0  0  0  0  0  0  0  0  0
    1.8417    0.8482    1.9446 N   0  0  0  0  0  0  0  0  0  0  0  0
    1.9902    2.2682    1.5960 C   0  0  0  0  0  0  0  0  0  0  0  0
    1.8128    2.5773    0.0889 C   0  0  1  0  0  0  0  0  0  0  0  0
    2.7891    1.6788   -0.6977 C   0  0  0  0  0  0  0  0  0  0  0  0
    2.6177    0.2042   -0.3232 C   0  0  0  0  0  0  0  0  0  0  0  0
    2.7522   -0.0062    1.1825 C   0  0  0  0  0  0  0  0  0  0  0  0
   -1.9364    1.2135   -2.6682 C   0  0  0  0  0  0  0  0  0  0  0  0
   -1.5339   -0.0828   -3.0120 C   0  0  0  0  0  0  0  0  0  0  0  0
   -2.2955   -0.8545   -3.8960 C   0  0  0  0  0  0  0  0  0  0  0  0
   -3.5084   -0.3645   -4.3825 C   0  0  0  0  0  0  0  0  0  0  0  0
   -3.8562    0.9610   -4.1344 C   0  0  0  0  0  0  0  0  0  0  0  0
   -3.0523    1.7561   -3.3132 C   0  0  0  0  0  0  0  0  0  0  0  0
   -4.3974   -1.0799   -5.1505 O   0  0  0  0  0  0  0  0  0  0  0  0
   -4.5008   -2.4437   -4.9937 C   0  0  0  0  0  0  0  0  0  0  0  0
   -4.3330   -3.1221   -3.7827 C   0  0  0  0  0  0  0  0  0  0  0  0
   -4.3834   -4.5163   -3.7501 C   0  0  0  0  0  0  0  0  0  0  0  0
   -4.6697   -5.2305   -4.9124 C   0  0  0  0  0  0  0  0  0  0  0  0
   -4.9250   -4.5512   -6.1030 C   0  0  0  0  0  0  0  0  0  0  0  0
   -4.8426   -3.1590   -6.1425 C   0  0  0  0  0  0  0  0  0  0  0  0
   -1.9043    5.3191    2.1924 H   0  0  0  0  0  0  0  0  0  0  0  0
   -4.3292    2.1981   -1.1231 H   0  0  0  0  0  0  0  0  0  0  0  0
   -4.9436    3.5461   -0.2707 H   0  0  0  0  0  0  0  0  0  0  0  0
    2.0218    0.7255    2.9416 H   0  0  0  0  0  0  0  0  0  0  0  0
    2.9943    2.5957    1.9021 H   0  0  0  0  0  0  0  0  0  0  0  0
    1.2925    2.8457    2.2080 H   0  0  0  0  0  0  0  0  0  0  0  0
    2.1013    3.6218   -0.0864 H   0  0  0  0  0  0  0  0  0  0  0  0
    2.6779    1.8127   -1.7793 H   0  0  0  0  0  0  0  0  0  0  0  0
    3.8175    1.9806   -0.4556 H   0  0  0  0  0  0  0  0  0  0  0  0
    1.6409   -0.1644   -0.6549 H   0  0  0  0  0  0  0  0  0  0  0  0
    3.3698   -0.3968   -0.8477 H   0  0  0  0  0  0  0  0  0  0  0  0
    2.5281   -1.0528    1.4177 H   0  0  0  0  0  0  0  0  0  0  0  0
    3.7872    0.1767    1.4943 H   0  0  0  0  0  0  0  0  0  0  0  0
   -0.6336   -0.5146   -2.5772 H   0  0  0  0  0  0  0  0  0  0  0  0
   -1.9473   -1.8508   -4.1582 H   0  0  0  0  0  0  0  0  0  0  0  0
   -4.7639    1.3772   -4.5625 H   0  0  0  0  0  0  0  0  0  0  0  0
   -3.3307    2.7960   -3.1647 H   0  0  0  0  0  0  0  0  0  0  0  0
   -4.1364   -2.5827   -2.8602 H   0  0  0  0  0  0  0  0  0  0  0  0
   -4.1947   -5.0434   -2.8184 H   0  0  0  0  0  0  0  0  0  0  0  0
   -4.7030   -6.3165   -4.8880 H   0  0  0  0  0  0  0  0  0  0  0  0
   -5.1778   -5.1047   -7.0032 H   0  0  0  0  0  0  0  0  0  0  0  0
   -5.0331   -2.6302   -7.0726 H   0  0  0  0  0  0  0  0  0  0  0  0
  1  2  2  0  0  0  0
  1  6  1  0  0  0  0
  1 30  1  0  0  0  0
  2  3  1  0  0  0  0
  3  4  2  0  0  0  0
  4  5  1  0  0  0  0
  5  6  2  0  0  0  0
  5 10  1  0  0  0  0
  7  8  1  0  0  0  0
  7  9  2  0  0  0  0
  8  3  1  0  0  0  0
  9  4  1  0  0  0  0
  9 17  1  0  0  0  0
 10 31  1  0  0  0  0
 10 32  1  0  0  0  0
 11 12  1  0  0  0  0
 11 16  1  0  0  0  0
 11 33  1  0  0  0  0
 12 34  1  0  0  0  0
 12 35  1  0  0  0  0
 13 12  1  0  0  0  0
 13 14  1  0  0  0  0
 13 36  1  6  0  0  0
 13  8  1  0  0  0  0
 14 15  1  0  0  0  0
 14 37  1  0  0  0  0
 14 38  1  0  0  0  0
 15 16  1  0  0  0  0
 15 39  1  0  0  0  0
 15 40  1  0  0  0  0
 16 41  1  0  0  0  0
 16 42  1  0  0  0  0
 17 18  2  0  0  0  0
 17 22  1  0  0  0  0
 18 19  1  0  0  0  0
 18 43  1  0  0  0  0
 19 20  2  0  0  0  0
 19 44  1  0  0  0  0
 20 21  1  0  0  0  0
 20 23  1  0  0  0  0
 21 22  2  0  0  0  0
 21 45  1  0  0  0  0
 22 46  1  0  0  0  0
 23 24  1  0  0  0  0
 24 25  2  0  0  0  0
 24 29  1  0  0  0  0
 25 26  1  0  0  0  0
 25 47  1  0  0  0  0
 26 27  2  0  0  0  0
 26 48  1  0  0  0  0
 27 28  1  0  0  0  0
 27 49  1  0  0  0  0
 28 29  2  0  0  0  0
 28 50  1  0  0  0  0
 29 51  1  0  0  0  0
M  END
>  <Mol_ID>
6435

>  <Formula>
C22H22N6O

>  <MolWeight>
386.44968

>  <Cat>
E2250

>  <Name>
IBT6A

>  <Target>
Others

>  <Form>
free base

>  <CAS>
1022150-12-4

>  <URL>
http://www.selleckchem.com/products/ibt6a.html

$$$$
