Ibuprofen piconol
 OpenBabel08302520403D

 45 46  0  0  0  0  0  0  0  0999 V2000
    0.9940   -0.2085    0.0337 C   0  0  0  0  0  0  0  0  0  0  0  0
    0.2298    0.7989    0.8852 C   0  0  3  0  0  0  0  0  0  0  0  0
    0.6059   -1.3494   -0.2043 O   0  0  0  0  0  0  0  0  0  0  0  0
    2.1798    0.3068   -0.3928 O   0  0  0  0  0  0  0  0  0  0  0  0
   -0.6170    1.7481    0.0542 C   0  0  0  0  0  0  0  0  0  0  0  0
   -1.6501    1.2903   -0.7760 C   0  0  0  0  0  0  0  0  0  0  0  0
   -2.3944    2.1852   -1.5568 C   0  0  0  0  0  0  0  0  0  0  0  0
   -2.1238    3.5582   -1.5229 C   0  0  0  0  0  0  0  0  0  0  0  0
   -1.1026    4.0172   -0.6818 C   0  0  0  0  0  0  0  0  0  0  0  0
   -0.3652    3.1258    0.1035 C   0  0  0  0  0  0  0  0  0  0  0  0
   -2.8557    4.5321   -2.4184 C   0  0  0  0  0  0  0  0  0  0  0  0
   -4.3843    4.6176   -2.2314 C   0  0  0  0  0  0  0  0  0  0  0  0
   -4.7805    5.0283   -0.8115 C   0  0  0  0  0  0  0  0  0  0  0  0
   -4.9648    5.6236   -3.2322 C   0  0  0  0  0  0  0  0  0  0  0  0
    3.0135   -0.5910   -1.1519 C   0  0  0  0  0  0  0  0  0  0  0  0
    2.6757   -0.5599   -2.6256 C   0  0  0  0  0  0  0  0  0  0  0  0
    1.7868   -1.4891   -3.1638 C   0  0  0  0  0  0  0  0  0  0  0  0
    1.4282   -1.3851   -4.5049 C   0  0  0  0  0  0  0  0  0  0  0  0
    1.9731   -0.3680   -5.2770 C   0  0  0  0  0  0  0  0  0  0  0  0
    2.8730    0.4957   -4.6765 C   0  0  0  0  0  0  0  0  0  0  0  0
    3.2354    0.4236   -3.3760 N   0  0  0  0  0  0  0  0  0  0  0  0
   -0.6073    0.0633    1.9374 C   0  0  0  0  0  0  0  0  0  0  0  0
    0.9818    1.3731    1.4427 H   0  0  0  0  0  0  0  0  0  0  0  0
   -1.8796    0.2274   -0.8366 H   0  0  0  0  0  0  0  0  0  0  0  0
   -3.1727    1.7955   -2.2077 H   0  0  0  0  0  0  0  0  0  0  0  0
   -0.8563    5.0758   -0.6430 H   0  0  0  0  0  0  0  0  0  0  0  0
    0.4193    3.5218    0.7448 H   0  0  0  0  0  0  0  0  0  0  0  0
   -2.4269    5.5353   -2.2908 H   0  0  0  0  0  0  0  0  0  0  0  0
   -2.6335    4.2495   -3.4564 H   0  0  0  0  0  0  0  0  0  0  0  0
   -4.8341    3.6393   -2.4417 H   0  0  0  0  0  0  0  0  0  0  0  0
   -4.2474    5.9300   -0.4923 H   0  0  0  0  0  0  0  0  0  0  0  0
   -5.8550    5.2351   -0.7524 H   0  0  0  0  0  0  0  0  0  0  0  0
   -4.5631    4.2295   -0.0957 H   0  0  0  0  0  0  0  0  0  0  0  0
   -4.7364    5.3276   -4.2613 H   0  0  0  0  0  0  0  0  0  0  0  0
   -6.0542    5.6850   -3.1371 H   0  0  0  0  0  0  0  0  0  0  0  0
   -4.5559    6.6272   -3.0690 H   0  0  0  0  0  0  0  0  0  0  0  0
    4.0484   -0.2547   -1.0193 H   0  0  0  0  0  0  0  0  0  0  0  0
    2.9748   -1.6117   -0.7498 H   0  0  0  0  0  0  0  0  0  0  0  0
    1.3596   -2.2736   -2.5459 H   0  0  0  0  0  0  0  0  0  0  0  0
    0.7183   -2.0847   -4.9365 H   0  0  0  0  0  0  0  0  0  0  0  0
    1.7000   -0.2483   -6.3192 H   0  0  0  0  0  0  0  0  0  0  0  0
    3.3357    1.2997   -5.2416 H   0  0  0  0  0  0  0  0  0  0  0  0
    0.0348   -0.5596    2.5703 H   0  0  0  0  0  0  0  0  0  0  0  0
   -1.1391    0.7686    2.5852 H   0  0  0  0  0  0  0  0  0  0  0  0
   -1.3516   -0.5994    1.4815 H   0  0  0  0  0  0  0  0  0  0  0  0
  1  2  1  0  0  0  0
  1  3  2  0  0  0  0
  1  4  1  0  0  0  0
  2  5  1  0  0  0  0
  2 22  1  0  0  0  0
  2 23  1  0  0  0  0
  4 15  1  0  0  0  0
  5  6  2  0  0  0  0
  5 10  1  0  0  0  0
  6  7  1  0  0  0  0
  6 24  1  0  0  0  0
  7  8  2  0  0  0  0
  7 25  1  0  0  0  0
  8  9  1  0  0  0  0
  8 11  1  0  0  0  0
  9 10  2  0  0  0  0
  9 26  1  0  0  0  0
 10 27  1  0  0  0  0
 11 12  1  0  0  0  0
 11 28  1  0  0  0  0
 11 29  1  0  0  0  0
 12 13  1  0  0  0  0
 12 14  1  0  0  0  0
 12 30  1  0  0  0  0
 13 31  1  0  0  0  0
 13 32  1  0  0  0  0
 13 33  1  0  0  0  0
 14 34  1  0  0  0  0
 14 35  1  0  0  0  0
 14 36  1  0  0  0  0
 15 16  1  0  0  0  0
 15 37  1  0  0  0  0
 15 38  1  0  0  0  0
 16 17  2  0  0  0  0
 16 21  1  0  0  0  0
 17 18  1  0  0  0  0
 17 39  1  0  0  0  0
 18 19  2  0  0  0  0
 18 40  1  0  0  0  0
 19 20  1  0  0  0  0
 19 41  1  0  0  0  0
 20 21  2  0  0  0  0
 20 42  1  0  0  0  0
 22 43  1  0  0  0  0
 22 44  1  0  0  0  0
 22 45  1  0  0  0  0
M  END
>  <Mol_ID>
3762

>  <Formula>
C19H23NO2

>  <MolWeight>
297.39142

>  <Cat>
S6448

>  <Name>
Ibuprofen piconol

>  <Synonyms>
U75630

>  <Target>
Immunology & Inflammation related

>  <Form>
Free Base

>  <CAS>
64622-45-3

>  <URL>
http://www.selleck.cn/products/ibuprofen-piconol.html

$$$$
