IC261.cdx
 OpenBabel08302520412D

 40 42  0  0  0  0  0  0  0  0999 V2000
    2.8000    1.2124    0.0000 C   0  0  0  0  0  0  0  0  0  0  0  0
    4.2000    1.2124    0.0000 C   0  0  0  0  0  0  0  0  0  0  0  0
    4.9000    2.4249    0.0000 C   0  0  0  0  0  0  0  0  0  0  0  0
    4.2000    3.6373    0.0000 C   0  0  0  0  0  0  0  0  0  0  0  0
    2.8000    3.6373    0.0000 C   0  0  0  0  0  0  0  0  0  0  0  0
    2.1000    2.4249    0.0000 C   0  0  0  0  0  0  0  0  0  0  0  0
    0.7000    2.4249    0.0000 O   0  0  0  0  0  0  0  0  0  0  0  0
    0.0000    3.6373    0.0000 C   0  0  0  0  0  0  0  0  0  0  0  0
    4.9000    0.0000    0.0000 O   0  0  0  0  0  0  0  0  0  0  0  0
    6.3000    0.0000    0.0000 C   0  0  0  0  0  0  0  0  0  0  0  0
    2.1000    4.8497    0.0000 C   0  0  0  0  0  0  0  0  0  0  0  0
    4.9000    4.8497    0.0000 O   0  0  0  0  0  0  0  0  0  0  0  0
    6.3000    4.8497    0.0000 C   0  0  0  0  0  0  0  0  0  0  0  0
    2.8000    6.0622    0.0000 C   0  0  0  0  0  0  0  0  0  0  0  0
    4.1923    6.2085    0.0000 C   0  0  0  0  0  0  0  0  0  0  0  0
    4.4834    7.5779    0.0000 C   0  0  0  0  0  0  0  0  0  0  0  0
    3.2710    8.2779    0.0000 N   0  0  0  0  0  0  0  0  0  0  0  0
    2.2306    7.3411    0.0000 C   0  0  0  0  0  0  0  0  0  0  0  0
    5.2327    5.2717    0.0000 C   0  0  0  0  0  0  0  0  0  0  0  0
    6.5642    5.7044    0.0000 C   0  0  0  0  0  0  0  0  0  0  0  0
    6.8553    7.0738    0.0000 C   0  0  0  0  0  0  0  0  0  0  0  0
    5.8149    8.0105    0.0000 C   0  0  0  0  0  0  0  0  0  0  0  0
    0.8612    7.6322    0.0000 O   0  0  0  0  0  0  0  0  0  0  0  0
    2.2840    0.3187    0.0000 H   0  0  0  0  0  0  0  0  0  0  0  0
    5.9320    2.4249    0.0000 H   0  0  0  0  0  0  0  0  0  0  0  0
    0.5350    4.5640    0.0000 H   0  0  0  0  0  0  0  0  0  0  0  0
   -1.0700    3.6373    0.0000 H   0  0  0  0  0  0  0  0  0  0  0  0
   -0.5350    4.5639    0.0000 H   0  0  0  0  0  0  0  0  0  0  0  0
    6.8350   -0.9266    0.0000 H   0  0  0  0  0  0  0  0  0  0  0  0
    6.8350    0.9266    0.0000 H   0  0  0  0  0  0  0  0  0  0  0  0
    7.3700    0.0000    0.0000 H   0  0  0  0  0  0  0  0  0  0  0  0
    1.0680    4.8497    0.0000 H   0  0  0  0  0  0  0  0  0  0  0  0
    6.8350    3.9231    0.0000 H   0  0  0  0  0  0  0  0  0  0  0  0
    6.8350    5.7763    0.0000 H   0  0  0  0  0  0  0  0  0  0  0  0
    7.3700    4.8497    0.0000 H   0  0  0  0  0  0  0  0  0  0  0  0
    3.1681    9.2570    0.0000 H   0  0  0  0  0  0  0  0  0  0  0  0
    5.0182    4.2622    0.0000 H   0  0  0  0  0  0  0  0  0  0  0  0
    7.3311    5.0139    0.0000 H   0  0  0  0  0  0  0  0  0  0  0  0
    7.8368    7.3927    0.0000 H   0  0  0  0  0  0  0  0  0  0  0  0
    6.0295    9.0200    0.0000 H   0  0  0  0  0  0  0  0  0  0  0  0
  1  2  2  0  0  0  0
  1 24  1  0  0  0  0
  2  3  1  0  0  0  0
  2  9  1  0  0  0  0
  3  4  2  0  0  0  0
  3 25  1  0  0  0  0
  4  5  1  0  0  0  0
  4 12  1  0  0  0  0
  5  6  2  0  0  0  0
  5 11  1  0  0  0  0
  6  1  1  0  0  0  0
  6  7  1  0  0  0  0
  7  8  1  0  0  0  0
  8 26  1  0  0  0  0
  8 27  1  0  0  0  0
  8 28  1  0  0  0  0
  9 10  1  0  0  0  0
 10 29  1  0  0  0  0
 10 30  1  0  0  0  0
 10 31  1  0  0  0  0
 11 14  2  0  0  0  0
 11 32  1  0  0  0  0
 12 13  1  0  0  0  0
 13 33  1  0  0  0  0
 13 34  1  0  0  0  0
 13 35  1  0  0  0  0
 14 15  1  0  0  0  0
 15 16  2  0  0  0  0
 15 19  1  0  0  0  0
 16 17  1  0  0  0  0
 17 18  1  0  0  0  0
 17 36  1  0  0  0  0
 18 14  1  0  0  0  0
 18 23  2  0  0  0  0
 19 20  2  0  0  0  0
 19 37  1  0  0  0  0
 20 21  1  0  0  0  0
 20 38  1  0  0  0  0
 21 22  2  0  0  0  0
 21 39  1  0  0  0  0
 22 16  1  0  0  0  0
 22 40  1  0  0  0  0
M  END
>  <Mol_ID>
3944

>  <Formula>
C18H17NO4

>  <MolWeight>
311.33188

>  <Cat>
S8237

>  <Name>
IC261

>  <Synonyms>
SU-5607

>  <Target>
Casein Kinase

>  <Form>
free base

>  <CAS>
186611-52-9

>  <URL>
http://selleckchem.com/products/ic261.html

$$$$
