ICA-27243
 OpenBabel08302521323D

 25 26  0  0  0  0  0  0  0  0999 V2000
    1.0503   -0.0199    0.2317 C   0  0  0  0  0  0  0  0  0  0  0  0
    0.3169    1.1185   -0.0503 N   0  0  0  0  0  0  0  0  0  0  0  0
    0.5924   -1.1227    0.5167 O   0  0  0  0  0  0  0  0  0  0  0  0
    5.2580   -2.1700   -0.7255 F   0  0  0  0  0  0  0  0  0  0  0  0
    6.6543    0.0935   -0.0791 F   0  0  0  0  0  0  0  0  0  0  0  0
    2.5280    0.0848    0.1101 C   0  0  0  0  0  0  0  0  0  0  0  0
    3.2214   -1.0712   -0.2860 C   0  0  0  0  0  0  0  0  0  0  0  0
    3.2429    1.2461    0.4384 C   0  0  0  0  0  0  0  0  0  0  0  0
    4.6078   -1.0612   -0.3550 C   0  0  0  0  0  0  0  0  0  0  0  0
    4.6425    1.2437    0.3664 C   0  0  0  0  0  0  0  0  0  0  0  0
    5.3158    0.0891   -0.0276 C   0  0  0  0  0  0  0  0  0  0  0  0
   -1.0988    1.1914   -0.0333 C   0  0  0  0  0  0  0  0  0  0  0  0
   -1.9169    0.2398    0.5757 C   0  0  0  0  0  0  0  0  0  0  0  0
   -1.7421    2.2555   -0.6631 C   0  0  0  0  0  0  0  0  0  0  0  0
   -3.3044    0.3540    0.4964 C   0  0  0  0  0  0  0  0  0  0  0  0
   -3.0884    2.3975   -0.7575 N   0  0  0  0  0  0  0  0  0  0  0  0
   -3.8383    1.4317   -0.1846 C   0  0  0  0  0  0  0  0  0  0  0  0
    0.8026    1.9096   -0.4563 H   0  0  0  0  0  0  0  0  0  0  0  0
    2.6870   -1.9874   -0.5280 H   0  0  0  0  0  0  0  0  0  0  0  0
    2.7356    2.1394    0.7925 H   0  0  0  0  0  0  0  0  0  0  0  0
    5.2170    2.1261    0.6357 H   0  0  0  0  0  0  0  0  0  0  0  0
   -1.5072   -0.5993    1.1278 H   0  0  0  0  0  0  0  0  0  0  0  0
   -1.1842    3.0455   -1.1558 H   0  0  0  0  0  0  0  0  0  0  0  0
   -3.9458   -0.3916    0.9537 H   0  0  0  0  0  0  0  0  0  0  0  0
   -4.9130    1.5489   -0.2887 H   0  0  0  0  0  0  0  0  0  0  0  0
  1  2  1  0  0  0  0
  1  3  2  0  0  0  0
  1  6  1  0  0  0  0
  2 12  1  0  0  0  0
  2 18  1  0  0  0  0
  4  9  1  0  0  0  0
  5 11  1  0  0  0  0
  6  7  2  0  0  0  0
  6  8  1  0  0  0  0
  7  9  1  0  0  0  0
  7 19  1  0  0  0  0
  8 10  2  0  0  0  0
  8 20  1  0  0  0  0
  9 11  2  0  0  0  0
 10 11  1  0  0  0  0
 10 21  1  0  0  0  0
 12 13  2  0  0  0  0
 12 14  1  0  0  0  0
 13 15  1  0  0  0  0
 13 22  1  0  0  0  0
 14 16  2  0  0  0  0
 14 23  1  0  0  0  0
 15 17  2  0  0  0  0
 15 24  1  0  0  0  0
 16 17  1  0  0  0  0
 17 25  1  0  0  0  0
M  END
>  <Mol_ID>
6123

>  <Formula>
C12H7ClF2N2O

>  <MolWeight>
268.6465864

>  <Cat>
E0105

>  <Name>
ICA-27243

>  <Synonyms>
N/A

>  <Target>
Potassium Channel

>  <Form>
free base

>  <CAS>
325457-89-4

>  <URL>
http://www.selleckchem.com/products/ica-27243.html

$$$$
