ICA-110381
 OpenBabel08302521273D

 25 26  0  0  0  0  0  0  0  0999 V2000
    0.9426    0.0348   -0.0176 O   0  0  0  0  0  0  0  0  0  0  0  0
    2.9854   -0.8218    0.7009 N   0  0  0  0  0  0  0  0  0  0  0  0
    3.2921   -3.3799    3.3527 N   0  0  0  0  0  0  0  0  0  0  0  0
    2.8684    0.9632   -0.9580 C   0  0  0  0  0  0  0  0  0  0  0  0
    2.5723   -1.7699    1.6664 C   0  0  0  0  0  0  0  0  0  0  0  0
    2.1680    0.0015   -0.0540 C   0  0  0  0  0  0  0  0  0  0  0  0
    2.2182    2.1672   -1.2650 C   0  0  0  0  0  0  0  0  0  0  0  0
    4.1250    0.6988   -1.5179 C   0  0  0  0  0  0  0  0  0  0  0  0
    1.2457   -2.0472    1.9844 C   0  0  0  0  0  0  0  0  0  0  0  0
    2.8286    3.1090   -2.0953 C   0  0  0  0  0  0  0  0  0  0  0  0
    4.7345    1.6464   -2.3459 C   0  0  0  0  0  0  0  0  0  0  0  0
    4.0895    2.8505   -2.6287 C   0  0  0  0  0  0  0  0  0  0  0  0
    3.5463   -2.4749    2.3756 C   0  0  0  0  0  0  0  0  0  0  0  0
    0.9477   -2.9692    2.9888 C   0  0  0  0  0  0  0  0  0  0  0  0
    1.9930   -3.5991    3.6416 C   0  0  0  0  0  0  0  0  0  0  0  0
    3.9840   -0.6818    0.6288 H   0  0  0  0  0  0  0  0  0  0  0  0
    1.2308    2.3760   -0.8564 H   0  0  0  0  0  0  0  0  0  0  0  0
    4.6348   -0.2450   -1.3513 H   0  0  0  0  0  0  0  0  0  0  0  0
    0.4186   -1.5587    1.4803 H   0  0  0  0  0  0  0  0  0  0  0  0
    2.3174    4.0403   -2.3263 H   0  0  0  0  0  0  0  0  0  0  0  0
    5.7100    1.4423   -2.7813 H   0  0  0  0  0  0  0  0  0  0  0  0
    4.5647    3.5845   -3.2753 H   0  0  0  0  0  0  0  0  0  0  0  0
    4.6047   -2.3300    2.1791 H   0  0  0  0  0  0  0  0  0  0  0  0
   -0.0817   -3.1815    3.2558 H   0  0  0  0  0  0  0  0  0  0  0  0
    1.8058   -4.3146    4.4372 H   0  0  0  0  0  0  0  0  0  0  0  0
  1  6  2  0  0  0  0
  2  5  1  0  0  0  0
  2  6  1  0  0  0  0
  2 16  1  0  0  0  0
  3 13  2  0  0  0  0
  3 15  1  0  0  0  0
  4  6  1  0  0  0  0
  4  7  2  0  0  0  0
  4  8  1  0  0  0  0
  5  9  2  0  0  0  0
  5 13  1  0  0  0  0
  7 10  1  0  0  0  0
  7 17  1  0  0  0  0
  8 11  2  0  0  0  0
  8 18  1  0  0  0  0
  9 14  1  0  0  0  0
  9 19  1  0  0  0  0
 10 12  2  0  0  0  0
 10 20  1  0  0  0  0
 11 12  1  0  0  0  0
 11 21  1  0  0  0  0
 12 22  1  0  0  0  0
 13 23  1  0  0  0  0
 14 15  2  0  0  0  0
 14 24  1  0  0  0  0
 15 25  1  0  0  0  0
M  END
>  <Mol_ID>
5335

>  <Formula>
C12H8Cl2N2O

>  <MolWeight>
267.11072

>  <Cat>
S0075

>  <Name>
ICA-110381

>  <Synonyms>
N/A

>  <Target>
Potassium Channel

>  <Form>
Free Base

>  <CAS>
325457-99-6

>  <URL>
https://www.selleckchem.com/products/ica-110381.html

$$$$
