ICA 069673
 OpenBabel08302521273D

 24 25  0  0  0  0  0  0  0  0999 V2000
    1.6426   -0.9795    0.2664 F   0  0  0  0  0  0  0  0  0  0  0  0
    1.4394    1.7262   -0.0897 F   0  0  0  0  0  0  0  0  0  0  0  0
   -4.2621   -0.7960   -0.4452 O   0  0  0  0  0  0  0  0  0  0  0  0
   -3.1927   -2.8027   -0.0444 N   0  0  0  0  0  0  0  0  0  0  0  0
   -6.7092   -4.0921    0.0455 N   0  0  0  0  0  0  0  0  0  0  0  0
   -5.1839   -5.8769    0.4628 N   0  0  0  0  0  0  0  0  0  0  0  0
   -1.9448   -0.6667   -0.2117 C   0  0  0  0  0  0  0  0  0  0  0  0
   -3.2313   -1.4341   -0.2474 C   0  0  0  0  0  0  0  0  0  0  0  0
   -0.6863   -1.2388    0.0096 C   0  0  0  0  0  0  0  0  0  0  0  0
   -2.0294    0.7300   -0.3996 C   0  0  0  0  0  0  0  0  0  0  0  0
   -4.3296   -3.6486    0.0368 C   0  0  0  0  0  0  0  0  0  0  0  0
    0.4450   -0.4198    0.0469 C   0  0  0  0  0  0  0  0  0  0  0  0
   -0.8910    1.5391   -0.3622 C   0  0  0  0  0  0  0  0  0  0  0  0
    0.3451    0.9552   -0.1348 C   0  0  0  0  0  0  0  0  0  0  0  0
   -5.6503   -3.2588   -0.1014 C   0  0  0  0  0  0  0  0  0  0  0  0
   -4.1688   -4.9982    0.3031 C   0  0  0  0  0  0  0  0  0  0  0  0
   -6.4170   -5.3656    0.3352 C   0  0  0  0  0  0  0  0  0  0  0  0
   -2.3027   -3.2541    0.1055 H   0  0  0  0  0  0  0  0  0  0  0  0
   -0.5324   -2.2994    0.1607 H   0  0  0  0  0  0  0  0  0  0  0  0
   -2.9970    1.2016   -0.5735 H   0  0  0  0  0  0  0  0  0  0  0  0
   -0.9693    2.6126   -0.5057 H   0  0  0  0  0  0  0  0  0  0  0  0
   -5.9424   -2.2417   -0.3367 H   0  0  0  0  0  0  0  0  0  0  0  0
   -3.1841   -5.4429    0.4121 H   0  0  0  0  0  0  0  0  0  0  0  0
   -7.2529   -6.0404    0.4836 H   0  0  0  0  0  0  0  0  0  0  0  0
  1 12  1  0  0  0  0
  2 14  1  0  0  0  0
  3  8  2  0  0  0  0
  4  8  1  0  0  0  0
  4 11  1  0  0  0  0
  4 18  1  0  0  0  0
  5 15  2  0  0  0  0
  5 17  1  0  0  0  0
  6 16  1  0  0  0  0
  6 17  2  0  0  0  0
  7  8  1  0  0  0  0
  7  9  2  0  0  0  0
  7 10  1  0  0  0  0
  9 12  1  0  0  0  0
  9 19  1  0  0  0  0
 10 13  2  0  0  0  0
 10 20  1  0  0  0  0
 11 15  1  0  0  0  0
 11 16  2  0  0  0  0
 12 14  2  0  0  0  0
 13 14  1  0  0  0  0
 13 21  1  0  0  0  0
 15 22  1  0  0  0  0
 16 23  1  0  0  0  0
 17 24  1  0  0  0  0
M  END
>  <Mol_ID>
5341

>  <Formula>
C11H6ClF2N3O

>  <MolWeight>
269.6346464

>  <Cat>
S0144

>  <Name>
ICA 069673

>  <Synonyms>
N/A

>  <Target>
Potassium Channel

>  <Form>
Free Base

>  <CAS>
582323-16-8

>  <URL>
https://www.selleckchem.com/products/ica069673.html

$$$$
