icFSP1
 OpenBabel08302521373D

 59 62  0  0  0  0  0  0  0  0999 V2000
   -0.1925   -3.8180    4.6722 C   0  0  0  0  0  0  0  0  0  0  0  0
   -0.5963   -4.5345    3.5127 O   0  0  0  0  0  0  0  0  0  0  0  0
    0.1478   -4.3638    2.3681 C   0  0  0  0  0  0  0  0  0  0  0  0
    1.5579   -4.4288    2.3551 C   0  0  0  0  0  0  0  0  0  0  0  0
    2.2744   -4.3973    1.1458 C   0  0  0  0  0  0  0  0  0  0  0  0
    3.8038   -4.5163    1.0318 C   0  0  0  0  0  0  0  0  0  0  0  0
    4.6514   -4.8244    2.2826 C   0  0  0  0  0  0  0  0  0  0  0  0
    5.0349   -5.9896    2.4580 O   0  0  0  0  0  0  0  0  0  0  0  0
    5.0759   -3.8905    3.2128 N   0  0  0  0  0  0  0  0  0  0  0  0
    4.7141   -2.5413    3.4013 C   0  0  0  0  0  0  0  0  0  0  0  0
    3.9343   -1.9165    2.4732 C   0  0  0  0  0  0  0  0  0  0  0  0
    3.3004   -0.7355    2.7161 C   0  0  0  0  0  0  0  0  0  0  0  0
    3.3558   -0.0815    3.9278 C   0  0  0  0  0  0  0  0  0  0  0  0
    2.2392    0.8274    4.1885 N   0  0  0  0  0  0  0  0  0  0  0  0
    1.2868    0.8797    3.1789 C   0  0  0  0  0  0  0  0  0  0  0  0
    0.2495    0.2287    3.1464 O   0  0  0  0  0  0  0  0  0  0  0  0
    1.7201    1.7618    2.0625 C   0  0  0  0  0  0  0  0  0  0  0  0
    2.5864    2.7965    2.4565 C   0  0  0  0  0  0  0  0  0  0  0  0
    3.1896    3.5293    1.4397 C   0  0  0  0  0  0  0  0  0  0  0  0
    3.0295    3.1352    0.0939 C   0  0  0  0  0  0  0  0  0  0  0  0
    2.2276    2.0406   -0.2582 C   0  0  0  0  0  0  0  0  0  0  0  0
    1.5300    1.3600    0.7294 C   0  0  0  0  0  0  0  0  0  0  0  0
    2.7164    3.1082    3.8323 N   0  0  0  0  0  0  0  0  0  0  0  0
    2.4189    2.1124    4.6270 C   0  0  0  0  0  0  0  0  0  0  0  0
    1.7214    2.4171    5.9288 C   0  0  0  0  0  0  0  0  0  0  0  0
    4.3335   -0.5434    4.8205 C   0  0  0  0  0  0  0  0  0  0  0  0
    5.0253   -1.7799    4.5421 C   0  0  0  0  0  0  0  0  0  0  0  0
    1.5293   -4.2661   -0.0494 C   0  0  0  0  0  0  0  0  0  0  0  0
    0.1207   -4.2738   -0.0590 C   0  0  0  0  0  0  0  0  0  0  0  0
   -0.6191   -4.3113   -1.2112 O   0  0  0  0  0  0  0  0  0  0  0  0
   -0.0021   -4.8013   -2.3932 C   0  0  0  0  0  0  0  0  0  0  0  0
   -0.5780   -4.2936    1.1591 C   0  0  0  0  0  0  0  0  0  0  0  0
   -1.9470   -4.4294    1.2591 O   0  0  0  0  0  0  0  0  0  0  0  0
   -2.7452   -3.5158    0.5130 C   0  0  0  0  0  0  0  0  0  0  0  0
   -0.8355   -4.1538    5.4944 H   0  0  0  0  0  0  0  0  0  0  0  0
   -0.3520   -2.7419    4.5487 H   0  0  0  0  0  0  0  0  0  0  0  0
    0.8375   -4.0292    4.9686 H   0  0  0  0  0  0  0  0  0  0  0  0
    2.0922   -4.5553    3.2903 H   0  0  0  0  0  0  0  0  0  0  0  0
    3.9984   -5.3346    0.3236 H   0  0  0  0  0  0  0  0  0  0  0  0
    4.2371   -3.6632    0.4940 H   0  0  0  0  0  0  0  0  0  0  0  0
    5.6403   -4.3212    3.9399 H   0  0  0  0  0  0  0  0  0  0  0  0
    3.6060   -2.3386    1.5494 H   0  0  0  0  0  0  0  0  0  0  0  0
    2.7025   -0.4506    1.8824 H   0  0  0  0  0  0  0  0  0  0  0  0
    3.8113    4.3799    1.6880 H   0  0  0  0  0  0  0  0  0  0  0  0
    3.5557    3.6812   -0.6868 H   0  0  0  0  0  0  0  0  0  0  0  0
    2.1778    1.7044   -1.2931 H   0  0  0  0  0  0  0  0  0  0  0  0
    0.9617    0.4599    0.4870 H   0  0  0  0  0  0  0  0  0  0  0  0
    1.0899    1.5740    6.2336 H   0  0  0  0  0  0  0  0  0  0  0  0
    2.4200    2.6727    6.7216 H   0  0  0  0  0  0  0  0  0  0  0  0
    1.0401    3.2625    5.7538 H   0  0  0  0  0  0  0  0  0  0  0  0
    4.5312   -0.0371    5.7641 H   0  0  0  0  0  0  0  0  0  0  0  0
    5.7498   -2.1518    5.2697 H   0  0  0  0  0  0  0  0  0  0  0  0
    2.0688   -4.1955   -0.9907 H   0  0  0  0  0  0  0  0  0  0  0  0
    0.4538   -3.9693   -2.9372 H   0  0  0  0  0  0  0  0  0  0  0  0
    0.7287   -5.5937   -2.2026 H   0  0  0  0  0  0  0  0  0  0  0  0
   -0.7855   -5.2312   -3.0264 H   0  0  0  0  0  0  0  0  0  0  0  0
   -2.5395   -2.4781    0.7930 H   0  0  0  0  0  0  0  0  0  0  0  0
   -2.6642   -3.6500   -0.5670 H   0  0  0  0  0  0  0  0  0  0  0  0
   -3.7928   -3.7266    0.7579 H   0  0  0  0  0  0  0  0  0  0  0  0
  1  2  1  0  0  0  0
  1 35  1  0  0  0  0
  1 36  1  0  0  0  0
  1 37  1  0  0  0  0
  2  3  1  0  0  0  0
  3  4  2  0  0  0  0
  4  5  1  0  0  0  0
  4 38  1  0  0  0  0
  5  6  1  0  0  0  0
  5 28  2  0  0  0  0
  6  7  1  0  0  0  0
  6 39  1  0  0  0  0
  6 40  1  0  0  0  0
  7  8  2  0  0  0  0
  7  9  1  0  0  0  0
  9 10  1  0  0  0  0
  9 41  1  0  0  0  0
 10 11  2  0  0  0  0
 11 12  1  0  0  0  0
 11 42  1  0  0  0  0
 12 13  2  0  0  0  0
 12 43  1  0  0  0  0
 13 14  1  0  0  0  0
 13 26  1  0  0  0  0
 14 15  1  0  0  0  0
 15 16  2  0  0  0  0
 15 17  1  0  0  0  0
 17 18  2  0  0  0  0
 18 19  1  0  0  0  0
 18 23  1  0  0  0  0
 19 20  2  0  0  0  0
 19 44  1  0  0  0  0
 20 21  1  0  0  0  0
 20 45  1  0  0  0  0
 21 22  2  0  0  0  0
 21 46  1  0  0  0  0
 22 17  1  0  0  0  0
 22 47  1  0  0  0  0
 23 24  2  0  0  0  0
 24 25  1  0  0  0  0
 24 14  1  0  0  0  0
 25 48  1  0  0  0  0
 25 49  1  0  0  0  0
 25 50  1  0  0  0  0
 26 27  2  0  0  0  0
 26 51  1  0  0  0  0
 27 10  1  0  0  0  0
 27 52  1  0  0  0  0
 28 29  1  0  0  0  0
 28 53  1  0  0  0  0
 29 30  1  0  0  0  0
 29 32  2  0  0  0  0
 30 31  1  0  0  0  0
 31 54  1  0  0  0  0
 31 55  1  0  0  0  0
 31 56  1  0  0  0  0
 32 33  1  0  0  0  0
 32  3  1  0  0  0  0
 33 34  1  0  0  0  0
 34 57  1  0  0  0  0
 34 58  1  0  0  0  0
 34 59  1  0  0  0  0
M  END
>  <Mol_ID>
7555

>  <Formula>
C26H25N3O5

>  <MolWeight>
459.4938

>  <Cat>
E1535

>  <Name>
icFSP1

>  <Target>
Ferroptosis

>  <Form>
free base

>  <URL>
https://www.selleckchem.com/products/icfsp1.html

$$$$
