ICI-118551 Hydrochloride
 OpenBabel08302521343D

 47 48  0  0  0  0  0  0  0  0999 V2000
    0.0745    3.4733   -2.2994 C   0  0  0  0  0  0  0  0  0  0  0  0
   -0.5688    3.2245   -3.5235 C   0  0  0  0  0  0  0  0  0  0  0  0
   -1.5519    2.2430   -3.6296 C   0  0  0  0  0  0  0  0  0  0  0  0
   -1.9095    1.5640   -2.4653 C   0  0  0  0  0  0  0  0  0  0  0  0
   -1.2569    1.7998   -1.2484 C   0  0  0  0  0  0  0  0  0  0  0  0
   -0.2246    2.7341   -1.1496 C   0  0  0  0  0  0  0  0  0  0  0  0
    0.4268    2.8401    0.0572 O   0  0  0  0  0  0  0  0  0  0  0  0
    1.5553    3.7319    0.0608 C   0  0  0  0  0  0  0  0  0  0  0  0
    2.3291    3.6837    1.3922 C   0  0  3  0  0  0  0  0  0  0  0  0
    2.8153    2.3457    1.5983 O   0  0  0  0  0  0  0  0  0  0  0  0
    3.5513    4.6689    1.3892 C   0  0  3  0  0  0  0  0  0  0  0  0
    3.1197    6.0678    1.1777 N   0  0  0  0  0  0  0  0  0  0  0  0
    4.1848    7.0820    1.1432 C   0  0  0  0  0  0  0  0  0  0  0  0
    5.2028    6.8415    0.0268 C   0  0  0  0  0  0  0  0  0  0  0  0
    3.5118    8.4461    0.9375 C   0  0  0  0  0  0  0  0  0  0  0  0
    4.3584    4.5078    2.6880 C   0  0  0  0  0  0  0  0  0  0  0  0
   -2.9778    0.5306   -2.3266 C   0  0  0  0  0  0  0  0  0  0  0  0
   -2.9487    0.1698   -0.8387 C   0  0  0  0  0  0  0  0  0  0  0  0
   -1.8058    0.9372   -0.1594 C   0  0  0  0  0  0  0  0  0  0  0  0
   -2.1767    1.9230   -4.9512 C   0  0  0  0  0  0  0  0  0  0  0  0
    0.8271    4.2618   -2.2959 H   0  0  0  0  0  0  0  0  0  0  0  0
   -0.2826    3.8123   -4.3946 H   0  0  0  0  0  0  0  0  0  0  0  0
    2.2459    3.4442   -0.7423 H   0  0  0  0  0  0  0  0  0  0  0  0
    1.1752    4.7456   -0.1026 H   0  0  0  0  0  0  0  0  0  0  0  0
    1.6592    3.9092    2.2294 H   0  0  0  0  0  0  0  0  0  0  0  0
    2.0258    1.7848    1.7110 H   0  0  0  0  0  0  0  0  0  0  0  0
    4.2025    4.3602    0.5621 H   0  0  0  0  0  0  0  0  0  0  0  0
    2.6017    6.1401    0.3044 H   0  0  0  0  0  0  0  0  0  0  0  0
    4.6999    7.1263    2.1070 H   0  0  0  0  0  0  0  0  0  0  0  0
    4.7168    6.7808   -0.9532 H   0  0  0  0  0  0  0  0  0  0  0  0
    5.9320    7.6584   -0.0115 H   0  0  0  0  0  0  0  0  0  0  0  0
    5.7664    5.9171    0.1854 H   0  0  0  0  0  0  0  0  0  0  0  0
    2.7879    8.6491    1.7346 H   0  0  0  0  0  0  0  0  0  0  0  0
    4.2583    9.2482    0.9579 H   0  0  0  0  0  0  0  0  0  0  0  0
    2.9874    8.4985   -0.0214 H   0  0  0  0  0  0  0  0  0  0  0  0
    4.7124    3.4787    2.8078 H   0  0  0  0  0  0  0  0  0  0  0  0
    5.2568    5.1341    2.6935 H   0  0  0  0  0  0  0  0  0  0  0  0
    3.7568    4.7657    3.5654 H   0  0  0  0  0  0  0  0  0  0  0  0
   -3.9573    0.9403   -2.6057 H   0  0  0  0  0  0  0  0  0  0  0  0
   -2.7641   -0.3458   -2.9483 H   0  0  0  0  0  0  0  0  0  0  0  0
   -3.9073    0.4234   -0.3692 H   0  0  0  0  0  0  0  0  0  0  0  0
   -2.8249   -0.9112   -0.7070 H   0  0  0  0  0  0  0  0  0  0  0  0
   -2.1857    1.5411    0.6684 H   0  0  0  0  0  0  0  0  0  0  0  0
   -1.0415    0.2473    0.2100 H   0  0  0  0  0  0  0  0  0  0  0  0
   -2.0838    0.8532   -5.1692 H   0  0  0  0  0  0  0  0  0  0  0  0
   -3.2367    2.1986   -4.9513 H   0  0  0  0  0  0  0  0  0  0  0  0
   -1.6862    2.4613   -5.7688 H   0  0  0  0  0  0  0  0  0  0  0  0
  1  2  2  0  0  0  0
  1 21  1  0  0  0  0
  2  3  1  0  0  0  0
  2 22  1  0  0  0  0
  3  4  2  0  0  0  0
  3 20  1  0  0  0  0
  4  5  1  0  0  0  0
  4 17  1  0  0  0  0
  5  6  2  0  0  0  0
  6  1  1  0  0  0  0
  6  7  1  0  0  0  0
  7  8  1  0  0  0  0
  8  9  1  0  0  0  0
  8 23  1  0  0  0  0
  8 24  1  0  0  0  0
  9 10  1  0  0  0  0
  9 11  1  0  0  0  0
  9 25  1  0  0  0  0
 10 26  1  0  0  0  0
 11 12  1  0  0  0  0
 11 16  1  0  0  0  0
 11 27  1  0  0  0  0
 12 13  1  0  0  0  0
 12 28  1  0  0  0  0
 13 14  1  0  0  0  0
 13 15  1  0  0  0  0
 13 29  1  0  0  0  0
 14 30  1  0  0  0  0
 14 31  1  0  0  0  0
 14 32  1  0  0  0  0
 15 33  1  0  0  0  0
 15 34  1  0  0  0  0
 15 35  1  0  0  0  0
 16 36  1  0  0  0  0
 16 37  1  0  0  0  0
 16 38  1  0  0  0  0
 17 18  1  0  0  0  0
 17 39  1  0  0  0  0
 17 40  1  0  0  0  0
 18 19  1  0  0  0  0
 18 41  1  0  0  0  0
 18 42  1  0  0  0  0
 19  5  1  0  0  0  0
 19 43  1  0  0  0  0
 19 44  1  0  0  0  0
 20 45  1  0  0  0  0
 20 46  1  0  0  0  0
 20 47  1  0  0  0  0
M  END
>  <Mol_ID>
6596

>  <Formula>
C17H28ClNO2

>  <MolWeight>
313.86272

>  <Cat>
S8114

>  <Name>
ICI-118551 Hydrochloride

>  <Synonyms>
ICI-118,551

>  <Target>
Adrenergic Receptor

>  <Form>
Hydrochloride

>  <CAS>
72795-01-8

>  <URL>
http://www.selleckchem.com/products/ici-118551-ici-118-551.html

$$$$
