Icilin
 OpenBabel08302521343D

 36 38  0  0  0  0  0  0  0  0999 V2000
    2.1256   -0.0247   -0.3125 O   0  0  0  0  0  0  0  0  0  0  0  0
   -3.3272   -5.2080   -1.9029 N   0  3  0  0  0  0  0  0  0  0  0  0
   -3.2371   -4.6542   -3.0080 O   0  5  0  0  0  0  0  0  0  0  0  0
   -3.8091   -6.3374   -1.7224 O   0  0  0  0  0  0  0  0  0  0  0  0
    2.3273    2.6522   -1.1688 O   0  0  0  0  0  0  0  0  0  0  0  0
   -1.1806   -1.1910    0.0670 C   0  0  0  0  0  0  0  0  0  0  0  0
    0.1585   -1.1307   -0.1920 N   0  0  0  0  0  0  0  0  0  0  0  0
   -1.8866   -0.0598    0.1399 C   0  0  0  0  0  0  0  0  0  0  0  0
    0.9088    0.0249   -0.1402 C   0  0  0  0  0  0  0  0  0  0  0  0
   -1.2259    1.2619   -0.0611 C   0  0  0  0  0  0  0  0  0  0  0  0
    0.2054    1.1717    0.1907 N   0  0  0  0  0  0  0  0  0  0  0  0
   -1.7955   -2.5128    0.2225 C   0  0  0  0  0  0  0  0  0  0  0  0
   -2.2777   -3.2051   -0.8962 C   0  0  0  0  0  0  0  0  0  0  0  0
   -1.8875   -3.0998    1.4928 C   0  0  0  0  0  0  0  0  0  0  0  0
   -2.8387   -4.4790   -0.7300 C   0  0  0  0  0  0  0  0  0  0  0  0
   -2.4501   -4.3707    1.6518 C   0  0  0  0  0  0  0  0  0  0  0  0
   -2.9246   -5.0666    0.5397 C   0  0  0  0  0  0  0  0  0  0  0  0
    0.8637    2.3084    0.7363 C   0  0  0  0  0  0  0  0  0  0  0  0
    1.9094    2.9807    0.0905 C   0  0  0  0  0  0  0  0  0  0  0  0
    0.4774    2.7386    2.0144 C   0  0  0  0  0  0  0  0  0  0  0  0
    2.5502    4.0577    0.7008 C   0  0  0  0  0  0  0  0  0  0  0  0
    1.1394    3.7961    2.6422 C   0  0  0  0  0  0  0  0  0  0  0  0
    2.1755    4.4555    1.9849 C   0  0  0  0  0  0  0  0  0  0  0  0
    2.1750    1.6919   -1.2635 H   0  0  0  0  0  0  0  0  0  0  0  0
    0.6987   -1.9794   -0.2840 H   0  0  0  0  0  0  0  0  0  0  0  0
   -2.9600   -0.0703    0.3153 H   0  0  0  0  0  0  0  0  0  0  0  0
   -1.6906    2.0162    0.5800 H   0  0  0  0  0  0  0  0  0  0  0  0
   -1.3608    1.5734   -1.1029 H   0  0  0  0  0  0  0  0  0  0  0  0
   -2.2076   -2.7497   -1.8799 H   0  0  0  0  0  0  0  0  0  0  0  0
   -1.5181   -2.5700    2.3685 H   0  0  0  0  0  0  0  0  0  0  0  0
   -2.5105   -4.8185    2.6435 H   0  0  0  0  0  0  0  0  0  0  0  0
   -3.3526   -6.0590    0.6796 H   0  0  0  0  0  0  0  0  0  0  0  0
   -0.3039    2.2125    2.5588 H   0  0  0  0  0  0  0  0  0  0  0  0
    3.3533    4.5745    0.1834 H   0  0  0  0  0  0  0  0  0  0  0  0
    0.8581    4.0917    3.6495 H   0  0  0  0  0  0  0  0  0  0  0  0
    2.6990    5.2731    2.4746 H   0  0  0  0  0  0  0  0  0  0  0  0
  1  9  2  0  0  0  0
  2  3  1  0  0  0  0
  2  4  2  0  0  0  0
  2 15  1  0  0  0  0
  5 19  1  0  0  0  0
  5 24  1  0  0  0  0
  6  7  1  0  0  0  0
  6  8  2  0  0  0  0
  6 12  1  0  0  0  0
  7  9  1  0  0  0  0
  7 25  1  0  0  0  0
  8 10  1  0  0  0  0
  8 26  1  0  0  0  0
  9 11  1  0  0  0  0
 10 11  1  0  0  0  0
 10 27  1  0  0  0  0
 10 28  1  0  0  0  0
 11 18  1  0  0  0  0
 12 13  2  0  0  0  0
 12 14  1  0  0  0  0
 13 15  1  0  0  0  0
 13 29  1  0  0  0  0
 14 16  2  0  0  0  0
 14 30  1  0  0  0  0
 15 17  2  0  0  0  0
 16 17  1  0  0  0  0
 16 31  1  0  0  0  0
 17 32  1  0  0  0  0
 18 19  2  0  0  0  0
 18 20  1  0  0  0  0
 19 21  1  0  0  0  0
 20 22  2  0  0  0  0
 20 33  1  0  0  0  0
 21 23  2  0  0  0  0
 21 34  1  0  0  0  0
 22 23  1  0  0  0  0
 22 35  1  0  0  0  0
 23 36  1  0  0  0  0
M  CHG  2   2   1   3  -1
M  END
>  <Mol_ID>
6493

>  <Formula>
C16H13N3O4

>  <MolWeight>
311.29212

>  <Cat>
E2684

>  <Name>
Icilin

>  <Target>
TRP Channel

>  <Form>
free base

>  <CAS>
36945-98-9

>  <URL>
http://www.selleckchem.com/products/icilin.html

$$$$
