iCRT14
 OpenBabel08302521223D

 44 47  0  0  0  0  0  0  0  0999 V2000
    0.2464   -0.4871   -1.0252 C   0  0  0  0  0  0  0  0  0  0  0  0
   -0.6904   -1.5077   -0.9259 C   0  0  0  0  0  0  0  0  0  0  0  0
   -2.0266   -1.1901   -0.7197 C   0  0  0  0  0  0  0  0  0  0  0  0
   -2.4198    0.1464   -0.5859 C   0  0  0  0  0  0  0  0  0  0  0  0
   -1.4888    1.1977   -0.6442 C   0  0  0  0  0  0  0  0  0  0  0  0
   -0.1497    0.8490   -0.8923 C   0  0  0  0  0  0  0  0  0  0  0  0
   -1.8741    2.5623   -0.4075 N   0  0  0  0  0  0  0  0  0  0  0  0
   -3.0236    2.8917    0.2936 C   0  0  0  0  0  0  0  0  0  0  0  0
   -3.1532    4.6304    0.4943 S   0  0  0  0  0  0  0  0  0  0  0  0
   -1.6727    4.9145   -0.3109 C   0  0  0  0  0  0  0  0  0  0  0  0
   -1.1017    3.6368   -0.8192 C   0  0  0  0  0  0  0  0  0  0  0  0
   -3.8687    2.1651    0.7921 O   0  0  0  0  0  0  0  0  0  0  0  0
   -0.1054    3.6389   -1.5306 O   0  0  0  0  0  0  0  0  0  0  0  0
   -1.0508    6.0891   -0.4786 C   0  0  0  0  0  0  0  0  0  0  0  0
   -1.5156    7.3410    0.0172 C   0  0  0  0  0  0  0  0  0  0  0  0
   -2.3939    8.1866   -0.6351 C   0  0  0  0  0  0  0  0  0  0  0  0
   -2.6345    9.2851    0.2058 N   0  0  0  0  0  0  0  0  0  0  0  0
   -1.8627    9.1029    1.3627 C   0  0  0  0  0  0  0  0  0  0  0  0
   -1.1558    7.9234    1.2380 C   0  0  0  0  0  0  0  0  0  0  0  0
   -2.9270    7.9962   -2.0201 C   0  0  0  0  0  0  0  0  0  0  0  0
   -1.8959    9.9613    2.5837 C   0  0  0  0  0  0  0  0  0  0  0  0
   -3.5124   10.3801   -0.0553 C   0  0  0  0  0  0  0  0  0  0  0  0
   -3.1902   11.6707    0.3482 C   0  0  0  0  0  0  0  0  0  0  0  0
   -3.9698   12.7584    0.1269 N   0  0  0  0  0  0  0  0  0  0  0  0
   -5.1183   12.5544   -0.5483 C   0  0  0  0  0  0  0  0  0  0  0  0
   -5.5286   11.3130   -1.0017 C   0  0  0  0  0  0  0  0  0  0  0  0
   -4.7207   10.2079   -0.7351 C   0  0  0  0  0  0  0  0  0  0  0  0
    1.2948   -0.7244   -1.1895 H   0  0  0  0  0  0  0  0  0  0  0  0
   -0.3808   -2.5459   -1.0088 H   0  0  0  0  0  0  0  0  0  0  0  0
   -2.7710   -1.9799   -0.6538 H   0  0  0  0  0  0  0  0  0  0  0  0
   -3.4828    0.3274   -0.4500 H   0  0  0  0  0  0  0  0  0  0  0  0
    0.6389    1.5946   -0.9453 H   0  0  0  0  0  0  0  0  0  0  0  0
   -0.1041    6.1162   -1.0156 H   0  0  0  0  0  0  0  0  0  0  0  0
   -0.4918    7.5100    1.9877 H   0  0  0  0  0  0  0  0  0  0  0  0
   -2.1099    7.7233   -2.6984 H   0  0  0  0  0  0  0  0  0  0  0  0
   -3.6547    7.1769   -2.0303 H   0  0  0  0  0  0  0  0  0  0  0  0
   -3.3882    8.8819   -2.4554 H   0  0  0  0  0  0  0  0  0  0  0  0
   -1.3544   10.8975    2.4310 H   0  0  0  0  0  0  0  0  0  0  0  0
   -2.9230   10.1680    2.8978 H   0  0  0  0  0  0  0  0  0  0  0  0
   -1.3995    9.4520    3.4183 H   0  0  0  0  0  0  0  0  0  0  0  0
   -2.2508   11.9150    0.8294 H   0  0  0  0  0  0  0  0  0  0  0  0
   -5.7196   13.4421   -0.7199 H   0  0  0  0  0  0  0  0  0  0  0  0
   -6.4615   11.2061   -1.5439 H   0  0  0  0  0  0  0  0  0  0  0  0
   -5.0704    9.2266   -1.0406 H   0  0  0  0  0  0  0  0  0  0  0  0
  1  2  2  0  0  0  0
  1 28  1  0  0  0  0
  2  3  1  0  0  0  0
  2 29  1  0  0  0  0
  3  4  2  0  0  0  0
  3 30  1  0  0  0  0
  4  5  1  0  0  0  0
  4 31  1  0  0  0  0
  5  6  2  0  0  0  0
  5  7  1  0  0  0  0
  6  1  1  0  0  0  0
  6 32  1  0  0  0  0
  7  8  1  0  0  0  0
  8  9  1  0  0  0  0
  8 12  2  0  0  0  0
  9 10  1  0  0  0  0
 10 14  2  0  0  0  0
 11  7  1  0  0  0  0
 11 13  2  0  0  0  0
 11 10  1  0  0  0  0
 14 15  1  0  0  0  0
 14 33  1  0  0  0  0
 15 16  2  0  0  0  0
 16 17  1  0  0  0  0
 16 20  1  0  0  0  0
 17 18  1  0  0  0  0
 17 22  1  0  0  0  0
 18 19  2  0  0  0  0
 18 21  1  0  0  0  0
 19 15  1  0  0  0  0
 19 34  1  0  0  0  0
 20 35  1  0  0  0  0
 20 36  1  0  0  0  0
 20 37  1  0  0  0  0
 21 38  1  0  0  0  0
 21 39  1  0  0  0  0
 21 40  1  0  0  0  0
 22 23  2  0  0  0  0
 23 24  1  0  0  0  0
 23 41  1  0  0  0  0
 24 25  2  0  0  0  0
 25 26  1  0  0  0  0
 25 42  1  0  0  0  0
 26 27  2  0  0  0  0
 26 43  1  0  0  0  0
 27 22  1  0  0  0  0
 27 44  1  0  0  0  0
M  END
>  <Mol_ID>
4695

>  <Formula>
C21H17N3O2S

>  <MolWeight>
375.44358

>  <Cat>
S8704

>  <Name>
iCRT14

>  <Synonyms>
N/A

>  <Target>
Wnt/beta-catenin

>  <Form>
free base

>  <CAS>
677331-12-3

>  <URL>
http://www.selleck.cn/products/icrt14.html

$$$$
