ID-8.cdx
 OpenBabel08302519583D

 36 38  0  0  0  0  0  0  0  0999 V2000
    1.6278   -1.0573    0.0621 N   0  0  0  0  0  0  0  0  0  0  0  0
    2.4276    0.0978    0.0497 C   0  0  0  0  0  0  0  0  0  0  0  0
    1.5804    1.2083    0.0590 C   0  0  0  0  0  0  0  0  0  0  0  0
    0.2342    0.7346    0.0194 C   0  0  0  0  0  0  0  0  0  0  0  0
   -1.0349    1.3713   -0.0158 C   0  0  0  0  0  0  0  0  0  0  0  0
   -2.2156    0.6255   -0.0240 C   0  0  0  0  0  0  0  0  0  0  0  0
   -2.1416   -0.7531    0.0313 C   0  0  0  0  0  0  0  0  0  0  0  0
   -0.9161   -1.4172    0.0834 C   0  0  0  0  0  0  0  0  0  0  0  0
    0.2803   -0.6686    0.0361 C   0  0  0  0  0  0  0  0  0  0  0  0
   -3.2715   -1.5175    0.0391 O   0  0  0  0  0  0  0  0  0  0  0  0
    1.9824    2.6084    0.0780 N   0  3  0  0  0  0  0  0  0  0  0  0
    3.1829    2.8653    0.2265 O   0  0  0  0  0  0  0  0  0  0  0  0
    1.0936    3.4601   -0.0445 O   0  5  0  0  0  0  0  0  0  0  0  0
    3.9236    0.0574   -0.0644 C   0  0  0  0  0  0  0  0  0  0  0  0
    2.1072   -2.4149    0.0439 C   0  0  0  0  0  0  0  0  0  0  0  0
    3.2635   -2.7746    0.7438 C   0  0  0  0  0  0  0  0  0  0  0  0
    3.8043   -4.0581    0.6176 C   0  0  0  0  0  0  0  0  0  0  0  0
    3.1652   -5.0262   -0.1530 C   0  0  0  0  0  0  0  0  0  0  0  0
    1.9784   -4.6994   -0.8044 C   0  0  0  0  0  0  0  0  0  0  0  0
    1.4598   -3.3967   -0.7194 C   0  0  0  0  0  0  0  0  0  0  0  0
    3.8289   -6.2160   -0.2538 O   0  0  0  0  0  0  0  0  0  0  0  0
    3.0207   -7.3745   -0.4154 C   0  0  0  0  0  0  0  0  0  0  0  0
   -1.1115    2.4572   -0.0387 H   0  0  0  0  0  0  0  0  0  0  0  0
   -3.1679    1.1429   -0.0610 H   0  0  0  0  0  0  0  0  0  0  0  0
   -0.9146   -2.4990    0.1683 H   0  0  0  0  0  0  0  0  0  0  0  0
   -4.0420   -0.9339   -0.0001 H   0  0  0  0  0  0  0  0  0  0  0  0
    4.3824   -0.1425    0.9078 H   0  0  0  0  0  0  0  0  0  0  0  0
    4.2421   -0.6983   -0.7885 H   0  0  0  0  0  0  0  0  0  0  0  0
    4.3508    0.9938   -0.4250 H   0  0  0  0  0  0  0  0  0  0  0  0
    3.7646   -2.0862    1.4156 H   0  0  0  0  0  0  0  0  0  0  0  0
    4.7320   -4.3053    1.1290 H   0  0  0  0  0  0  0  0  0  0  0  0
    1.4600   -5.4159   -1.4326 H   0  0  0  0  0  0  0  0  0  0  0  0
    0.5834   -3.1660   -1.3198 H   0  0  0  0  0  0  0  0  0  0  0  0
    2.3789   -7.5177    0.4593 H   0  0  0  0  0  0  0  0  0  0  0  0
    2.4334   -7.3485   -1.3369 H   0  0  0  0  0  0  0  0  0  0  0  0
    3.6929   -8.2361   -0.4853 H   0  0  0  0  0  0  0  0  0  0  0  0
  1  2  1  0  0  0  0
  1  9  1  0  0  0  0
  1 15  1  0  0  0  0
  2  3  2  0  0  0  0
  2 14  1  0  0  0  0
  3  4  1  0  0  0  0
  3 11  1  0  0  0  0
  4  5  2  0  0  0  0
  4  9  1  0  0  0  0
  5  6  1  0  0  0  0
  5 23  1  0  0  0  0
  6  7  2  0  0  0  0
  6 24  1  0  0  0  0
  7  8  1  0  0  0  0
  7 10  1  0  0  0  0
  8  9  2  0  0  0  0
  8 25  1  0  0  0  0
 10 26  1  0  0  0  0
 11 12  2  0  0  0  0
 11 13  1  0  0  0  0
 14 27  1  0  0  0  0
 14 28  1  0  0  0  0
 14 29  1  0  0  0  0
 15 16  2  0  0  0  0
 15 20  1  0  0  0  0
 16 17  1  0  0  0  0
 16 30  1  0  0  0  0
 17 18  2  0  0  0  0
 17 31  1  0  0  0  0
 18 19  1  0  0  0  0
 18 21  1  0  0  0  0
 19 20  2  0  0  0  0
 19 32  1  0  0  0  0
 20 33  1  0  0  0  0
 21 22  1  0  0  0  0
 22 34  1  0  0  0  0
 22 35  1  0  0  0  0
 22 36  1  0  0  0  0
M  CHG  2  11   1  13  -1
M  END
>  <Mol_ID>
2339

>  <Formula>
C16H14N2O4

>  <MolWeight>
298.29336

>  <Cat>
S7327

>  <Name>
ID-8

>  <Synonyms>
N/A

>  <Target>
DYRK

>  <Form>
free base

>  <CAS>
147591-46-6

>  <URL>
http://selleckchem.com/products/id-8.html

$$$$
