IDE397 (GSK-4362676)
 OpenBabel08302521373D

 31 33  0  0  0  0  0  0  0  0999 V2000
    0.9255   -0.2330    0.1058 O   0  0  0  0  0  0  0  0  0  0  0  0
    4.7440   -2.6204    0.1292 N   0  0  0  0  0  0  0  0  0  0  0  0
    7.0645    3.5429   -0.2944 C   0  0  0  0  0  0  0  0  0  0  0  0
    6.2809    4.6511   -0.1953 F   0  0  0  0  0  0  0  0  0  0  0  0
    7.9875    3.6491    0.7068 F   0  0  0  0  0  0  0  0  0  0  0  0
    7.7708    3.6819   -1.4540 F   0  0  0  0  0  0  0  0  0  0  0  0
    2.8546    1.0271    0.0514 N   0  0  0  0  0  0  0  0  0  0  0  0
    4.2704    1.0474   -0.0194 C   0  0  0  0  0  0  0  0  0  0  0  0
    2.1538   -0.1827    0.0769 C   0  0  0  0  0  0  0  0  0  0  0  0
    4.9502   -0.1606   -0.0452 C   0  0  0  0  0  0  0  0  0  0  0  0
    4.9466    2.2253   -0.1206 N   0  0  0  0  0  0  0  0  0  0  0  0
    2.8593   -1.3614    0.1102 N   0  0  0  0  0  0  0  0  0  0  0  0
    6.3414   -0.1744   -0.1667 C   0  0  0  0  0  0  0  0  0  0  0  0
    4.1489   -1.3866    0.0657 C   0  0  0  0  0  0  0  0  0  0  0  0
    6.3058    2.2218   -0.2287 C   0  0  0  0  0  0  0  0  0  0  0  0
    7.0276    1.0313   -0.2683 C   0  0  0  0  0  0  0  0  0  0  0  0
    2.1529    2.2727    0.0427 C   0  0  0  0  0  0  0  0  0  0  0  0
    2.4720    3.2907    0.9539 C   0  0  0  0  0  0  0  0  0  0  0  0
    1.0821    2.4774   -0.8401 C   0  0  0  0  0  0  0  0  0  0  0  0
    1.7325    4.4766    0.9863 C   0  0  0  0  0  0  0  0  0  0  0  0
    0.3573    3.6718   -0.8222 C   0  0  0  0  0  0  0  0  0  0  0  0
    0.6784    4.6677    0.0966 C   0  0  0  0  0  0  0  0  0  0  0  0
    5.5539   -2.7915   -0.4535 H   0  0  0  0  0  0  0  0  0  0  0  0
    4.0582   -3.3693    0.0510 H   0  0  0  0  0  0  0  0  0  0  0  0
    6.9030   -1.1031   -0.1780 H   0  0  0  0  0  0  0  0  0  0  0  0
    8.1109    1.0416   -0.3633 H   0  0  0  0  0  0  0  0  0  0  0  0
    3.2718    3.1564    1.6771 H   0  0  0  0  0  0  0  0  0  0  0  0
    0.8075    1.7127   -1.5634 H   0  0  0  0  0  0  0  0  0  0  0  0
    1.9745    5.2452    1.7157 H   0  0  0  0  0  0  0  0  0  0  0  0
   -0.4630    3.8166   -1.5200 H   0  0  0  0  0  0  0  0  0  0  0  0
    0.1015    5.5884    0.1241 H   0  0  0  0  0  0  0  0  0  0  0  0
  1  9  2  0  0  0  0
  2 14  1  0  0  0  0
  2 23  1  0  0  0  0
  2 24  1  0  0  0  0
  3  4  1  0  0  0  0
  3  5  1  0  0  0  0
  3  6  1  0  0  0  0
  3 15  1  0  0  0  0
  7  8  1  0  0  0  0
  7  9  1  0  0  0  0
  7 17  1  0  0  0  0
  8 10  2  0  0  0  0
  8 11  1  0  0  0  0
  9 12  1  0  0  0  0
 10 13  1  0  0  0  0
 10 14  1  0  0  0  0
 11 15  2  0  0  0  0
 12 14  2  0  0  0  0
 13 16  2  0  0  0  0
 13 25  1  0  0  0  0
 15 16  1  0  0  0  0
 16 26  1  0  0  0  0
 17 18  2  0  0  0  0
 17 19  1  0  0  0  0
 18 20  1  0  0  0  0
 18 27  1  0  0  0  0
 19 21  2  0  0  0  0
 19 28  1  0  0  0  0
 20 22  2  0  0  0  0
 20 29  1  0  0  0  0
 21 22  1  0  0  0  0
 21 30  1  0  0  0  0
 22 31  1  0  0  0  0
M  END
>  <Mol_ID>
7552

>  <Formula>
C14H8ClF3N4O

>  <MolWeight>
340.6877296

>  <Cat>
E1485

>  <Name>
IDE397 (GSK-4362676)

>  <Target>
MAT2A

>  <Form>
free base

>  <CAS>
2439277-80-0

>  <URL>
https://www.selleckchem.com/products/ide397-gsk-4362676.html

$$$$
