Idoxuridine.cdx
 OpenBabel08302522063D

 28 29  0  0  0  0  0  0  0  0999 V2000
   -1.2864   -0.1371    0.6606 C   0  0  0  0  0  0  0  0  0  0  0  0
   -0.6347    1.0300    0.6037 C   0  0  0  0  0  0  0  0  0  0  0  0
    0.5857    1.1834   -0.0315 N   0  0  0  0  0  0  0  0  0  0  0  0
    1.2060    0.1202   -0.6745 C   0  0  0  0  0  0  0  0  0  0  0  0
    0.5670   -1.0865   -0.5709 N   0  0  0  0  0  0  0  0  0  0  0  0
   -0.6591   -1.3102   -0.0020 C   0  0  0  0  0  0  0  0  0  0  0  0
   -3.0916   -0.3289    1.5983 I   0  0  0  0  0  0  0  0  0  0  0  0
   -1.1915   -2.4168   -0.0680 O   0  0  0  0  0  0  0  0  0  0  0  0
    2.2490    0.2200   -1.3143 O   0  0  0  0  0  0  0  0  0  0  0  0
    1.2237    2.4905   -0.1327 C   0  0  2  0  0  0  0  0  0  0  0  0
    0.8940    3.3045    1.0072 O   0  0  0  0  0  0  0  0  0  0  0  0
    0.6644    4.6634    0.5599 C   0  0  1  0  0  0  0  0  0  0  0  0
    0.9760    4.7010   -0.9350 C   0  0  2  0  0  0  0  0  0  0  0  0
    0.8006    3.2662   -1.3722 C   0  0  0  0  0  0  0  0  0  0  0  0
   -0.7947    5.0198    0.8588 C   0  0  0  0  0  0  0  0  0  0  0  0
   -1.0559    4.9252    2.2576 O   0  0  0  0  0  0  0  0  0  0  0  0
    2.3202    5.1136   -1.1809 O   0  0  0  0  0  0  0  0  0  0  0  0
   -1.0546    1.9194    1.0645 H   0  0  0  0  0  0  0  0  0  0  0  0
    0.9960   -1.8682   -1.0430 H   0  0  0  0  0  0  0  0  0  0  0  0
    2.3139    2.3640   -0.1228 H   0  0  0  0  0  0  0  0  0  0  0  0
    1.3339    5.3052    1.1427 H   0  0  0  0  0  0  0  0  0  0  0  0
    0.3293    5.3877   -1.4900 H   0  0  0  0  0  0  0  0  0  0  0  0
   -0.2542    3.0756   -1.6043 H   0  0  0  0  0  0  0  0  0  0  0  0
    1.3988    2.9910   -2.2467 H   0  0  0  0  0  0  0  0  0  0  0  0
   -1.0160    6.0436    0.5430 H   0  0  0  0  0  0  0  0  0  0  0  0
   -1.4869    4.3389    0.3542 H   0  0  0  0  0  0  0  0  0  0  0  0
   -0.7241    4.0549    2.5474 H   0  0  0  0  0  0  0  0  0  0  0  0
    2.9208    4.6715   -0.5553 H   0  0  0  0  0  0  0  0  0  0  0  0
  1  2  2  0  0  0  0
  1  7  1  0  0  0  0
  2  3  1  0  0  0  0
  2 18  1  0  0  0  0
  3  4  1  0  0  0  0
  4  5  1  0  0  0  0
  4  9  2  0  0  0  0
  5  6  1  0  0  0  0
  5 19  1  0  0  0  0
  6  1  1  0  0  0  0
  6  8  2  0  0  0  0
 10 11  1  0  0  0  0
 10 14  1  0  0  0  0
 10  3  1  0  0  0  0
 10 20  1  6  0  0  0
 11 12  1  0  0  0  0
 12 13  1  0  0  0  0
 12 21  1  1  0  0  0
 12 15  1  0  0  0  0
 13 14  1  0  0  0  0
 13 17  1  0  0  0  0
 13 22  1  6  0  0  0
 14 23  1  0  0  0  0
 14 24  1  0  0  0  0
 15 16  1  0  0  0  0
 15 25  1  0  0  0  0
 15 26  1  0  0  0  0
 16 27  1  0  0  0  0
 17 28  1  0  0  0  0
M  END
>  <Mol_ID>
1384

>  <Formula>
C9H11IN2O5

>  <MolWeight>
354.09851

>  <Cat>
S1883

>  <Name>
Idoxuridine

>  <Synonyms>
NSC 39661, SKF 14287,5-Iodo-2¡ä-deoxyuridine,5-IUdR,IdUrd

>  <Target>
Antiviral

>  <Form>
free base

>  <CAS>
54-42-2

>  <URL>
http://selleckchem.com/products/idoxuridine.html

$$$$
