IDRA-21
 OpenBabel08302521233D

 23 24  0  0  0  0  0  0  0  0999 V2000
   -1.3069    1.7529    0.0199 S   0  0  0  0  0  0  0  0  0  0  0  0
   -2.5495    0.6617   -0.2579 N   0  0  0  0  0  0  0  0  0  0  0  0
   -2.3887   -0.6263    0.3906 C   0  0  3  0  0  0  0  0  0  0  0  0
   -1.2037   -1.2794   -0.1110 N   0  0  0  0  0  0  0  0  0  0  0  0
    0.0222   -0.6233   -0.0311 C   0  0  0  0  0  0  0  0  0  0  0  0
    0.1424    0.7672    0.0143 C   0  0  0  0  0  0  0  0  0  0  0  0
    1.2075   -1.3658   -0.1067 C   0  0  0  0  0  0  0  0  0  0  0  0
    2.4594   -0.7396   -0.0658 C   0  0  0  0  0  0  0  0  0  0  0  0
    2.5481    0.6478    0.0204 C   0  0  0  0  0  0  0  0  0  0  0  0
    1.3847    1.4097    0.0509 C   0  0  0  0  0  0  0  0  0  0  0  0
   -2.4231   -0.5659    1.9136 C   0  0  0  0  0  0  0  0  0  0  0  0
   -1.2717    2.6499   -1.1112 O   0  0  0  0  0  0  0  0  0  0  0  0
   -1.4972    2.2604    1.3623 O   0  0  0  0  0  0  0  0  0  0  0  0
   -3.4375    1.1006   -0.0285 H   0  0  0  0  0  0  0  0  0  0  0  0
   -3.2496   -1.2313    0.0802 H   0  0  0  0  0  0  0  0  0  0  0  0
   -1.1651   -2.2767    0.0776 H   0  0  0  0  0  0  0  0  0  0  0  0
    1.1709   -2.4495   -0.1906 H   0  0  0  0  0  0  0  0  0  0  0  0
    3.3652   -1.3395   -0.1076 H   0  0  0  0  0  0  0  0  0  0  0  0
    3.5205    1.1330    0.0488 H   0  0  0  0  0  0  0  0  0  0  0  0
    1.4432    2.4954    0.0984 H   0  0  0  0  0  0  0  0  0  0  0  0
   -3.2762    0.0248    2.2670 H   0  0  0  0  0  0  0  0  0  0  0  0
   -2.5086   -1.5723    2.3369 H   0  0  0  0  0  0  0  0  0  0  0  0
   -1.5153   -0.1281    2.3458 H   0  0  0  0  0  0  0  0  0  0  0  0
  1  2  1  0  0  0  0
  1  6  1  0  0  0  0
  1 12  2  0  0  0  0
  1 13  2  0  0  0  0
  2  3  1  0  0  0  0
  2 14  1  0  0  0  0
  3  4  1  0  0  0  0
  3 11  1  0  0  0  0
  3 15  1  0  0  0  0
  4  5  1  0  0  0  0
  4 16  1  0  0  0  0
  5  6  2  0  0  0  0
  5  7  1  0  0  0  0
  6 10  1  0  0  0  0
  7  8  2  0  0  0  0
  7 17  1  0  0  0  0
  8  9  1  0  0  0  0
  8 18  1  0  0  0  0
  9 10  2  0  0  0  0
  9 19  1  0  0  0  0
 10 20  1  0  0  0  0
 11 21  1  0  0  0  0
 11 22  1  0  0  0  0
 11 23  1  0  0  0  0
M  END
>  <Mol_ID>
4878

>  <Formula>
C8H9ClN2O2S

>  <MolWeight>
232.68726

>  <Cat>
S2434

>  <Name>
IDRA-21

>  <Synonyms>
N/A

>  <Target>
GluR

>  <Form>
Free Base

>  <CAS>
22503-72-6

>  <URL>
http://www.selleck.cn/products/idra-21.html

$$$$
