Idramantone.cdx
 OpenBabel08302519503D

 26 28  0  0  0  0  0  0  0  0999 V2000
   -1.4984    0.2970    0.0977 C   0  0  3  0  0  0  0  0  0  0  0  0
   -0.7570    1.0502    1.2211 C   0  0  0  0  0  0  0  0  0  0  0  0
   -0.9745    0.7747   -1.2720 C   0  0  0  0  0  0  0  0  0  0  0  0
   -1.2402   -1.2128    0.2419 C   0  0  0  0  0  0  0  0  0  0  0  0
   -2.8927    0.5382    0.1928 O   0  0  0  0  0  0  0  0  0  0  0  0
    0.7471    0.7654    1.1406 C   0  0  3  0  0  0  0  0  0  0  0  0
    0.5264    0.4857   -1.3899 C   0  0  3  0  0  0  0  0  0  0  0  0
    0.2658   -1.5027    0.1427 C   0  0  3  0  0  0  0  0  0  0  0  0
    1.2157    1.2069   -0.2395 C   0  0  0  0  0  0  0  0  0  0  0  0
    1.0061   -0.7424    1.2613 C   0  0  0  0  0  0  0  0  0  0  0  0
    0.7893   -1.0171   -1.2238 C   0  0  0  0  0  0  0  0  0  0  0  0
    2.0510    2.0906   -0.4102 O   0  0  0  0  0  0  0  0  0  0  0  0
   -0.9507    2.1274    1.1383 H   0  0  0  0  0  0  0  0  0  0  0  0
   -1.1508    0.7472    2.1998 H   0  0  0  0  0  0  0  0  0  0  0  0
   -1.5244    0.2747   -2.0798 H   0  0  0  0  0  0  0  0  0  0  0  0
   -1.1715    1.8479   -1.3926 H   0  0  0  0  0  0  0  0  0  0  0  0
   -1.6375   -1.5740    1.1995 H   0  0  0  0  0  0  0  0  0  0  0  0
   -1.7884   -1.7651   -0.5325 H   0  0  0  0  0  0  0  0  0  0  0  0
   -3.0463    1.4946    0.1002 H   0  0  0  0  0  0  0  0  0  0  0  0
    1.2933    1.3176    1.9115 H   0  0  0  0  0  0  0  0  0  0  0  0
    0.9217    0.8471   -2.3443 H   0  0  0  0  0  0  0  0  0  0  0  0
    0.4449   -2.5786    0.2460 H   0  0  0  0  0  0  0  0  0  0  0  0
    2.0819   -0.9472    1.1971 H   0  0  0  0  0  0  0  0  0  0  0  0
    0.6664   -1.0997    2.2411 H   0  0  0  0  0  0  0  0  0  0  0  0
    0.2937   -1.5718   -2.0300 H   0  0  0  0  0  0  0  0  0  0  0  0
    1.8638   -1.2233   -1.3019 H   0  0  0  0  0  0  0  0  0  0  0  0
  1  2  1  0  0  0  0
  1  3  1  0  0  0  0
  1  4  1  0  0  0  0
  1  5  1  0  0  0  0
  2  6  1  0  0  0  0
  2 13  1  0  0  0  0
  2 14  1  0  0  0  0
  3  7  1  0  0  0  0
  3 15  1  0  0  0  0
  3 16  1  0  0  0  0
  4  8  1  0  0  0  0
  4 17  1  0  0  0  0
  4 18  1  0  0  0  0
  5 19  1  0  0  0  0
  6  9  1  0  0  0  0
  6 10  1  0  0  0  0
  6 20  1  0  0  0  0
  7 11  1  0  0  0  0
  7  9  1  0  0  0  0
  7 21  1  0  0  0  0
  8 10  1  0  0  0  0
  8 11  1  0  0  0  0
  8 22  1  0  0  0  0
  9 12  2  0  0  0  0
 10 23  1  0  0  0  0
 10 24  1  0  0  0  0
 11 25  1  0  0  0  0
 11 26  1  0  0  0  0
M  END
>  <Mol_ID>
1505

>  <Formula>
C10H14O2

>  <MolWeight>
166.21696

>  <Cat>
S4529

>  <Name>
Idramantone

>  <Synonyms>
Kemantane, 5-Hydroxy-2-adamantanone

>  <Target>
Immunology & Inflammation related

>  <Form>
free base

>  <CAS>
20098-14-0

>  <URL>
http://selleckchem.com/products/idramantone.html

$$$$
