IEM 1754 dihydrobroMide.cdx
 OpenBabel08302522003D

 52 52  0  0  0  0  0  0  0  0999 V2000
   -3.2774   -5.7358   -5.9254 C   0  0  0  0  0  0  0  0  0  0  0  0
   -1.7581   -5.6189   -5.7116 C   0  0  0  0  0  0  0  0  0  0  0  0
   -3.9185   -4.4220   -5.9253 N   0  0  0  0  0  0  0  0  0  0  0  0
   -1.3312   -4.9475   -4.3943 C   0  0  0  0  0  0  0  0  0  0  0  0
   -1.7677   -5.7311   -3.1482 C   0  0  0  0  0  0  0  0  0  0  0  0
   -1.2866   -5.0565   -1.8510 C   0  0  0  0  0  0  0  0  0  0  0  0
   -1.7353   -3.6588   -1.7114 N   0  0  0  0  0  0  0  0  0  0  0  0
   -3.2000   -3.5360   -1.5843 C   0  0  0  0  0  0  0  0  0  0  0  0
   -3.6683   -2.0664   -1.3856 C   0  0  3  0  0  0  0  0  0  0  0  0
   -3.1865   -1.1653   -2.5577 C   0  0  0  0  0  0  0  0  0  0  0  0
   -3.1484   -1.4724   -0.0430 C   0  0  0  0  0  0  0  0  0  0  0  0
   -3.6726   -0.0321    0.1397 C   0  0  3  0  0  0  0  0  0  0  0  0
   -5.2278   -2.0492   -1.3587 C   0  0  0  0  0  0  0  0  0  0  0  0
   -5.7446   -0.6065   -1.1722 C   0  0  3  0  0  0  0  0  0  0  0  0
   -5.2152   -0.0393    0.1619 C   0  0  0  0  0  0  0  0  0  0  0  0
   -3.7065    0.2787   -2.3637 C   0  0  3  0  0  0  0  0  0  0  0  0
   -5.2510    0.2731   -2.3404 C   0  0  0  0  0  0  0  0  0  0  0  0
   -3.1758    0.8475   -1.0299 C   0  0  0  0  0  0  0  0  0  0  0  0
    3.1963    0.9497    2.3961 Br  0  0  0  0  0  0  0  0  0  0  0  0
   -0.0279    2.8298    1.0343 Br  0  0  0  0  0  0  0  0  0  0  0  0
   -3.7494   -6.3933   -5.1631 H   0  0  0  0  0  0  0  0  0  0  0  0
   -3.4365   -6.2116   -6.9172 H   0  0  0  0  0  0  0  0  0  0  0  0
   -1.3114   -6.6354   -5.7642 H   0  0  0  0  0  0  0  0  0  0  0  0
   -1.3409   -5.0203   -6.5500 H   0  0  0  0  0  0  0  0  0  0  0  0
   -4.0426   -4.1076   -4.9359 H   0  0  0  0  0  0  0  0  0  0  0  0
   -4.8726   -4.5147   -6.3401 H   0  0  0  0  0  0  0  0  0  0  0  0
   -0.2212   -4.8763   -4.3927 H   0  0  0  0  0  0  0  0  0  0  0  0
   -1.7370   -3.9144   -4.3598 H   0  0  0  0  0  0  0  0  0  0  0  0
   -2.8683   -5.8420   -3.1230 H   0  0  0  0  0  0  0  0  0  0  0  0
   -1.3358   -6.7557   -3.1891 H   0  0  0  0  0  0  0  0  0  0  0  0
   -1.6176   -5.6576   -0.9746 H   0  0  0  0  0  0  0  0  0  0  0  0
   -0.1734   -5.0637   -1.8537 H   0  0  0  0  0  0  0  0  0  0  0  0
   -1.2877   -3.3034   -0.8381 H   0  0  0  0  0  0  0  0  0  0  0  0
   -3.6742   -3.9014   -2.5179 H   0  0  0  0  0  0  0  0  0  0  0  0
   -3.5630   -4.1634   -0.7405 H   0  0  0  0  0  0  0  0  0  0  0  0
   -2.0748   -1.1519   -2.6016 H   0  0  0  0  0  0  0  0  0  0  0  0
   -3.5566   -1.5651   -3.5285 H   0  0  0  0  0  0  0  0  0  0  0  0
   -3.4861   -2.1023    0.8097 H   0  0  0  0  0  0  0  0  0  0  0  0
   -2.0394   -1.4377   -0.0220 H   0  0  0  0  0  0  0  0  0  0  0  0
   -3.2914    0.3805    1.0995 H   0  0  0  0  0  0  0  0  0  0  0  0
   -5.6326   -2.4611   -2.3098 H   0  0  0  0  0  0  0  0  0  0  0  0
   -5.6037   -2.6869   -0.5282 H   0  0  0  0  0  0  0  0  0  0  0  0
   -6.8565   -0.6119   -1.1562 H   0  0  0  0  0  0  0  0  0  0  0  0
   -5.5789   -0.6607    1.0098 H   0  0  0  0  0  0  0  0  0  0  0  0
   -5.5969    0.9942    0.3124 H   0  0  0  0  0  0  0  0  0  0  0  0
   -3.3527    0.9154   -3.2051 H   0  0  0  0  0  0  0  0  0  0  0  0
   -5.6318    1.3111   -2.2189 H   0  0  0  0  0  0  0  0  0  0  0  0
   -5.6430   -0.1190   -3.3031 H   0  0  0  0  0  0  0  0  0  0  0  0
   -3.5324    1.8923   -0.8941 H   0  0  0  0  0  0  0  0  0  0  0  0
   -2.0636    0.8704   -1.0430 H   0  0  0  0  0  0  0  0  0  0  0  0
    3.8415    0.2409    1.2052 H   0  0  0  0  0  0  0  0  0  0  0  0
    1.3512    2.6878    0.3882 H   0  0  0  0  0  0  0  0  0  0  0  0
  1  2  1  0  0  0  0
  1  3  1  0  0  0  0
  1 21  1  0  0  0  0
  1 22  1  0  0  0  0
  2  4  1  0  0  0  0
  2 23  1  0  0  0  0
  2 24  1  0  0  0  0
  3 25  1  0  0  0  0
  3 26  1  0  0  0  0
  4  5  1  0  0  0  0
  4 27  1  0  0  0  0
  4 28  1  0  0  0  0
  5  6  1  0  0  0  0
  5 29  1  0  0  0  0
  5 30  1  0  0  0  0
  6  7  1  0  0  0  0
  6 31  1  0  0  0  0
  6 32  1  0  0  0  0
  7  8  1  0  0  0  0
  7 33  1  0  0  0  0
  8  9  1  0  0  0  0
  8 34  1  0  0  0  0
  8 35  1  0  0  0  0
  9 10  1  0  0  0  0
  9 11  1  0  0  0  0
  9 13  1  0  0  0  0
 10 16  1  0  0  0  0
 10 36  1  0  0  0  0
 10 37  1  0  0  0  0
 11 12  1  0  0  0  0
 11 38  1  0  0  0  0
 11 39  1  0  0  0  0
 12 15  1  0  0  0  0
 12 40  1  0  0  0  0
 13 14  1  0  0  0  0
 13 41  1  0  0  0  0
 13 42  1  0  0  0  0
 14 15  1  0  0  0  0
 14 43  1  0  0  0  0
 15 44  1  0  0  0  0
 15 45  1  0  0  0  0
 16 17  1  0  0  0  0
 16 18  1  0  0  0  0
 16 46  1  0  0  0  0
 17 14  1  0  0  0  0
 17 47  1  0  0  0  0
 17 48  1  0  0  0  0
 18 12  1  0  0  0  0
 18 49  1  0  0  0  0
 18 50  1  0  0  0  0
 19 51  1  0  0  0  0
 20 52  1  0  0  0  0
M  END
>  <Mol_ID>
1057

>  <Formula>
C16H32Br2N2

>  <MolWeight>
412.24668

>  <Cat>
S2860

>  <Name>
IEM 1754 2HBr

>  <Synonyms>
N/A

>  <Target>
GluR

>  <Form>
DihydrobroMide

>  <CAS>
162831-31-4

>  <URL>
http://selleckchem.com/products/iem-1754-dihydrobromide.html

$$$$
