Ifosfamide.cdx
 OpenBabel08302519513D

 29 29  0  0  0  0  0  0  0  0999 V2000
    0.8074    1.5463   -0.5232 C   0  0  0  0  0  0  0  0  0  0  0  0
    1.5986    0.3705    0.0262 C   0  0  0  0  0  0  0  0  0  0  0  0
    0.9246   -0.8525   -0.2337 O   0  0  0  0  0  0  0  0  0  0  0  0
   -0.5600   -1.0072    0.3919 P   0  0  3  0  0  0  0  0  0  0  0  0
   -1.2940    0.3723   -0.0558 N   0  0  0  0  0  0  0  0  0  0  0  0
   -0.6005    1.6392    0.0780 C   0  0  0  0  0  0  0  0  0  0  0  0
   -2.7199    0.4652   -0.3233 C   0  0  0  0  0  0  0  0  0  0  0  0
   -3.5860    0.1923    0.8933 C   0  0  0  0  0  0  0  0  0  0  0  0
   -0.2470   -0.9526    2.0003 N   0  0  0  0  0  0  0  0  0  0  0  0
   -1.2816   -1.2704    2.9677 C   0  0  0  0  0  0  0  0  0  0  0  0
   -0.6826   -1.3381    4.3649 C   0  0  0  0  0  0  0  0  0  0  0  0
   -1.1975   -2.2862   -0.0641 O   0  0  0  0  0  0  0  0  0  0  0  0
    1.3496    2.4780   -0.3302 H   0  0  0  0  0  0  0  0  0  0  0  0
    0.7194    1.4367   -1.6120 H   0  0  0  0  0  0  0  0  0  0  0  0
    2.5814    0.3197   -0.4548 H   0  0  0  0  0  0  0  0  0  0  0  0
    1.7736    0.4795    1.1037 H   0  0  0  0  0  0  0  0  0  0  0  0
   -0.5408    1.9179    1.1364 H   0  0  0  0  0  0  0  0  0  0  0  0
   -1.1212    2.4526   -0.4392 H   0  0  0  0  0  0  0  0  0  0  0  0
   -2.9921    1.4469   -0.7292 H   0  0  0  0  0  0  0  0  0  0  0  0
   -2.9810   -0.2530   -1.1097 H   0  0  0  0  0  0  0  0  0  0  0  0
   -3.3348    0.8645    1.7174 H   0  0  0  0  0  0  0  0  0  0  0  0
   -4.6402    0.3417    0.6516 H   0  0  0  0  0  0  0  0  0  0  0  0
   -3.4793   -0.8473    1.2282 H   0  0  0  0  0  0  0  0  0  0  0  0
    0.5216   -1.5982    2.1562 H   0  0  0  0  0  0  0  0  0  0  0  0
   -2.0521   -0.4990    2.9712 H   0  0  0  0  0  0  0  0  0  0  0  0
   -1.7498   -2.2293    2.7228 H   0  0  0  0  0  0  0  0  0  0  0  0
   -0.4059   -0.3381    4.7165 H   0  0  0  0  0  0  0  0  0  0  0  0
   -1.4113   -1.7547    5.0671 H   0  0  0  0  0  0  0  0  0  0  0  0
    0.2110   -1.9704    4.3934 H   0  0  0  0  0  0  0  0  0  0  0  0
  1  2  1  0  0  0  0
  1 13  1  0  0  0  0
  1 14  1  0  0  0  0
  2  3  1  0  0  0  0
  2 15  1  0  0  0  0
  2 16  1  0  0  0  0
  3  4  1  0  0  0  0
  4  5  1  0  0  0  0
  4  9  1  0  0  0  0
  4 12  2  0  0  0  0
  5  6  1  0  0  0  0
  5  7  1  0  0  0  0
  6  1  1  0  0  0  0
  6 17  1  0  0  0  0
  6 18  1  0  0  0  0
  7  8  1  0  0  0  0
  7 19  1  0  0  0  0
  7 20  1  0  0  0  0
  8 21  1  0  0  0  0
  8 22  1  0  0  0  0
  8 23  1  0  0  0  0
  9 10  1  0  0  0  0
  9 24  1  0  0  0  0
 10 11  1  0  0  0  0
 10 25  1  0  0  0  0
 10 26  1  0  0  0  0
 11 27  1  0  0  0  0
 11 28  1  0  0  0  0
 11 29  1  0  0  0  0
M  END
>  <Mol_ID>
198

>  <Formula>
C7H15Cl2N2O2P

>  <MolWeight>
261.085961

>  <Cat>
S1302

>  <Name>
Ifosfamide (NSC109724)

>  <Synonyms>
Mitoxana, Ifex,Isophosphamide,NSC109724

>  <Target>
DNA alkylator,DNA/RNA Synthesis

>  <Form>
free base

>  <CAS>
3778-73-2

>  <URL>
http://selleckchem.com/products/Ifosfamide.html

$$$$
