iGOT1-01
 OpenBabel08302521353D

 44 47  0  0  0  0  0  0  0  0999 V2000
    0.3715    0.6931   -2.2405 C   0  0  0  0  0  0  0  0  0  0  0  0
   -0.5200   -0.3757   -2.3146 C   0  0  0  0  0  0  0  0  0  0  0  0
   -1.5033   -0.5307   -1.3389 C   0  0  0  0  0  0  0  0  0  0  0  0
   -1.5748    0.3758   -0.2830 C   0  0  0  0  0  0  0  0  0  0  0  0
   -0.6701    1.4417   -0.1984 C   0  0  0  0  0  0  0  0  0  0  0  0
    0.3110    1.6125   -1.1824 C   0  0  0  0  0  0  0  0  0  0  0  0
    1.2455    2.6675   -1.2108 N   0  0  0  0  0  0  0  0  0  0  0  0
    1.3275    3.7764   -0.4034 C   0  0  0  0  0  0  0  0  0  0  0  0
    2.3726    4.6492   -0.6809 N   0  0  0  0  0  0  0  0  0  0  0  0
    3.2937    4.5123   -1.8218 C   0  0  0  0  0  0  0  0  0  0  0  0
    4.5870    5.3443   -1.6943 C   0  0  0  0  0  0  0  0  0  0  0  0
    4.2816    6.7634   -1.3722 N   0  0  0  0  0  0  0  0  0  0  0  0
    3.5117    6.8269   -0.0983 C   0  0  0  0  0  0  0  0  0  0  0  0
    2.2068    6.0189   -0.1929 C   0  0  0  0  0  0  0  0  0  0  0  0
    0.5481    4.0010    0.5468 O   0  0  0  0  0  0  0  0  0  0  0  0
    5.4028    7.6315   -1.4715 C   0  0  0  0  0  0  0  0  0  0  0  0
    6.4434    7.5246   -2.4364 C   0  0  0  0  0  0  0  0  0  0  0  0
    7.6596    8.1779   -2.2246 C   0  0  0  0  0  0  0  0  0  0  0  0
    7.8356    9.2105   -1.3115 C   0  0  0  0  0  0  0  0  0  0  0  0
    6.6910    9.5870   -0.6241 C   0  0  0  0  0  0  0  0  0  0  0  0
    5.5358    8.7938   -0.6690 C   0  0  0  0  0  0  0  0  0  0  0  0
    6.5619    6.9887   -3.7645 C   0  0  0  0  0  0  0  0  0  0  0  0
    7.8502    7.2062   -4.2019 C   0  0  0  0  0  0  0  0  0  0  0  0
    8.5388    7.5546   -3.0750 N   0  0  0  0  0  0  0  0  0  0  0  0
    1.1198    0.7864   -3.0269 H   0  0  0  0  0  0  0  0  0  0  0  0
   -0.4614   -1.0811   -3.1428 H   0  0  0  0  0  0  0  0  0  0  0  0
   -2.2085   -1.3559   -1.4012 H   0  0  0  0  0  0  0  0  0  0  0  0
   -2.3402    0.2600    0.4855 H   0  0  0  0  0  0  0  0  0  0  0  0
   -0.7651    2.1251    0.6358 H   0  0  0  0  0  0  0  0  0  0  0  0
    1.8378    2.6719   -2.0211 H   0  0  0  0  0  0  0  0  0  0  0  0
    3.5830    3.4628   -1.9375 H   0  0  0  0  0  0  0  0  0  0  0  0
    2.7406    4.8159   -2.7158 H   0  0  0  0  0  0  0  0  0  0  0  0
    5.2131    4.9141   -0.8986 H   0  0  0  0  0  0  0  0  0  0  0  0
    5.1243    5.2219   -2.6351 H   0  0  0  0  0  0  0  0  0  0  0  0
    4.1263    6.4312    0.7228 H   0  0  0  0  0  0  0  0  0  0  0  0
    3.2143    7.8471    0.1522 H   0  0  0  0  0  0  0  0  0  0  0  0
    1.5279    6.5179   -0.8957 H   0  0  0  0  0  0  0  0  0  0  0  0
    1.7135    6.0207    0.7855 H   0  0  0  0  0  0  0  0  0  0  0  0
    8.7565    9.7791   -1.2492 H   0  0  0  0  0  0  0  0  0  0  0  0
    6.6938   10.4932   -0.0235 H   0  0  0  0  0  0  0  0  0  0  0  0
    4.7104    9.1371   -0.0551 H   0  0  0  0  0  0  0  0  0  0  0  0
    5.7541    6.5967   -4.3661 H   0  0  0  0  0  0  0  0  0  0  0  0
    8.3461    7.0616   -5.1529 H   0  0  0  0  0  0  0  0  0  0  0  0
    9.4496    7.2024   -2.8099 H   0  0  0  0  0  0  0  0  0  0  0  0
  1  2  2  0  0  0  0
  1 25  1  0  0  0  0
  2  3  1  0  0  0  0
  2 26  1  0  0  0  0
  3  4  2  0  0  0  0
  3 27  1  0  0  0  0
  4  5  1  0  0  0  0
  4 28  1  0  0  0  0
  5  6  2  0  0  0  0
  5 29  1  0  0  0  0
  6  1  1  0  0  0  0
  6  7  1  0  0  0  0
  7  8  1  0  0  0  0
  7 30  1  0  0  0  0
  8  9  1  0  0  0  0
  8 15  2  0  0  0  0
  9 10  1  0  0  0  0
 10 11  1  0  0  0  0
 10 31  1  0  0  0  0
 10 32  1  0  0  0  0
 11 12  1  0  0  0  0
 11 33  1  0  0  0  0
 11 34  1  0  0  0  0
 12 13  1  0  0  0  0
 12 16  1  0  0  0  0
 13 14  1  0  0  0  0
 13 35  1  0  0  0  0
 13 36  1  0  0  0  0
 14  9  1  0  0  0  0
 14 37  1  0  0  0  0
 14 38  1  0  0  0  0
 16 17  2  0  0  0  0
 17 18  1  0  0  0  0
 17 22  1  0  0  0  0
 18 19  2  0  0  0  0
 19 20  1  0  0  0  0
 19 39  1  0  0  0  0
 20 21  2  0  0  0  0
 20 40  1  0  0  0  0
 21 16  1  0  0  0  0
 21 41  1  0  0  0  0
 22 23  2  0  0  0  0
 22 42  1  0  0  0  0
 23 24  1  0  0  0  0
 23 43  1  0  0  0  0
 24 18  1  0  0  0  0
 24 44  1  0  0  0  0
M  END
>  <Mol_ID>
6678

>  <Formula>
C19H20N4O

>  <MolWeight>
320.3883

>  <Cat>
S4455

>  <Name>
iGOT1-01

>  <Synonyms>
N/A

>  <Target>
GOT

>  <Form>
Free base

>  <CAS>
882256-55-5

>  <URL>
http://www.selleckchem.com/products/igot1-01.html

$$$$
