IITZ-01
 OpenBabel08302521043D

 59 64  0  0  0  0  0  0  0  0999 V2000
   -0.6970   -1.1575   -0.0242 N   0  0  0  0  0  0  0  0  0  0  0  0
   -1.3512   -0.0042   -0.0392 C   0  0  0  0  0  0  0  0  0  0  0  0
   -0.7511    1.1788   -0.0817 N   0  0  0  0  0  0  0  0  0  0  0  0
    0.5791    1.1330   -0.0285 C   0  0  0  0  0  0  0  0  0  0  0  0
    1.2936    0.0095   -0.0163 N   0  0  0  0  0  0  0  0  0  0  0  0
    0.6222   -1.1269   -0.0248 C   0  0  0  0  0  0  0  0  0  0  0  0
    1.2990   -2.3144    0.0918 N   0  0  0  0  0  0  0  0  0  0  0  0
    1.2497    2.3598    0.0093 N   0  0  0  0  0  0  0  0  0  0  0  0
    2.4870    2.6653    0.6022 C   0  0  0  0  0  0  0  0  0  0  0  0
   -2.7527   -0.0445    0.0099 N   0  0  0  0  0  0  0  0  0  0  0  0
   -3.5390   -1.0063    0.6771 C   0  0  0  0  0  0  0  0  0  0  0  0
    3.2285    3.7507    0.1115 C   0  0  0  0  0  0  0  0  0  0  0  0
    4.4971    4.0416    0.6236 C   0  0  0  0  0  0  0  0  0  0  0  0
    5.0205    3.2603    1.6458 C   0  0  0  0  0  0  0  0  0  0  0  0
    4.2976    2.1983    2.1689 C   0  0  0  0  0  0  0  0  0  0  0  0
    3.0385    1.8990    1.6418 C   0  0  0  0  0  0  0  0  0  0  0  0
   -3.0411   -1.7416    1.7570 C   0  0  0  0  0  0  0  0  0  0  0  0
   -3.7868   -2.7677    2.3349 C   0  0  0  0  0  0  0  0  0  0  0  0
   -5.0599   -3.1010    1.8580 C   0  0  0  0  0  0  0  0  0  0  0  0
   -5.5923   -2.3403    0.8110 C   0  0  0  0  0  0  0  0  0  0  0  0
   -4.8374   -1.2970    0.2330 C   0  0  0  0  0  0  0  0  0  0  0  0
    0.5586   -3.5758    0.0197 C   0  0  0  0  0  0  0  0  0  0  0  0
    1.2834   -4.5960    0.9076 C   0  0  0  0  0  0  0  0  0  0  0  0
    2.6541   -4.7618    0.4994 O   0  0  0  0  0  0  0  0  0  0  0  0
    3.3623   -3.5093    0.5735 C   0  0  0  0  0  0  0  0  0  0  0  0
    2.7045   -2.4206   -0.2953 C   0  0  0  0  0  0  0  0  0  0  0  0
   -5.6980   -4.2845    2.4401 C   0  0  0  0  0  0  0  0  0  0  0  0
   -7.0513   -4.5088    2.5737 N   0  0  0  0  0  0  0  0  0  0  0  0
   -7.2363   -5.7047    3.2354 C   0  0  0  0  0  0  0  0  0  0  0  0
   -5.9431   -6.1701    3.4497 C   0  0  0  0  0  0  0  0  0  0  0  0
   -5.0211   -5.2925    2.9635 N   0  0  0  0  0  0  0  0  0  0  0  0
   -8.3673   -6.4018    3.6635 C   0  0  0  0  0  0  0  0  0  0  0  0
   -8.1460   -7.6209    4.3208 C   0  0  0  0  0  0  0  0  0  0  0  0
   -6.8560   -8.1136    4.5361 C   0  0  0  0  0  0  0  0  0  0  0  0
   -5.7405   -7.3933    4.1016 C   0  0  0  0  0  0  0  0  0  0  0  0
    6.2402    3.5312    2.1283 F   0  0  0  0  0  0  0  0  0  0  0  0
    0.5965    3.1281   -0.0488 H   0  0  0  0  0  0  0  0  0  0  0  0
   -3.1508    0.8809   -0.0460 H   0  0  0  0  0  0  0  0  0  0  0  0
    2.8378    4.3537   -0.7045 H   0  0  0  0  0  0  0  0  0  0  0  0
    5.0838    4.8609    0.2214 H   0  0  0  0  0  0  0  0  0  0  0  0
    4.7161    1.6032    2.9740 H   0  0  0  0  0  0  0  0  0  0  0  0
    2.4868    1.0623    2.0643 H   0  0  0  0  0  0  0  0  0  0  0  0
   -2.0497   -1.5477    2.1580 H   0  0  0  0  0  0  0  0  0  0  0  0
   -3.3478   -3.3408    3.1507 H   0  0  0  0  0  0  0  0  0  0  0  0
   -6.5626   -2.5786    0.3838 H   0  0  0  0  0  0  0  0  0  0  0  0
   -5.2470   -0.7593   -0.6191 H   0  0  0  0  0  0  0  0  0  0  0  0
    0.5436   -3.9260   -1.0203 H   0  0  0  0  0  0  0  0  0  0  0  0
   -0.4762   -3.4931    0.3679 H   0  0  0  0  0  0  0  0  0  0  0  0
    1.2601   -4.2791    1.9580 H   0  0  0  0  0  0  0  0  0  0  0  0
    0.7899   -5.5698    0.8396 H   0  0  0  0  0  0  0  0  0  0  0  0
    4.3872   -3.6911    0.2359 H   0  0  0  0  0  0  0  0  0  0  0  0
    3.4057   -3.1914    1.6223 H   0  0  0  0  0  0  0  0  0  0  0  0
    2.7632   -2.7137   -1.3519 H   0  0  0  0  0  0  0  0  0  0  0  0
    3.2608   -1.4853   -0.1730 H   0  0  0  0  0  0  0  0  0  0  0  0
   -7.7834   -3.8804    2.2807 H   0  0  0  0  0  0  0  0  0  0  0  0
   -9.3727   -6.0286    3.5050 H   0  0  0  0  0  0  0  0  0  0  0  0
   -8.9964   -8.2018    4.6771 H   0  0  0  0  0  0  0  0  0  0  0  0
   -6.7109   -9.0626    5.0477 H   0  0  0  0  0  0  0  0  0  0  0  0
   -4.7325   -7.7575    4.2678 H   0  0  0  0  0  0  0  0  0  0  0  0
  1  2  2  0  0  0  0
  2  3  1  0  0  0  0
  2 10  1  0  0  0  0
  3  4  2  0  0  0  0
  4  5  1  0  0  0  0
  4  8  1  0  0  0  0
  5  6  2  0  0  0  0
  6  1  1  0  0  0  0
  6  7  1  0  0  0  0
  7 22  1  0  0  0  0
  8  9  1  0  0  0  0
  8 37  1  0  0  0  0
  9 12  2  0  0  0  0
 10 11  1  0  0  0  0
 10 38  1  0  0  0  0
 11 17  2  0  0  0  0
 12 13  1  0  0  0  0
 12 39  1  0  0  0  0
 13 14  2  0  0  0  0
 13 40  1  0  0  0  0
 14 15  1  0  0  0  0
 14 36  1  0  0  0  0
 15 16  2  0  0  0  0
 15 41  1  0  0  0  0
 16  9  1  0  0  0  0
 16 42  1  0  0  0  0
 17 18  1  0  0  0  0
 17 43  1  0  0  0  0
 18 19  2  0  0  0  0
 18 44  1  0  0  0  0
 19 20  1  0  0  0  0
 19 27  1  0  0  0  0
 20 21  2  0  0  0  0
 20 45  1  0  0  0  0
 21 11  1  0  0  0  0
 21 46  1  0  0  0  0
 22 23  1  0  0  0  0
 22 47  1  0  0  0  0
 22 48  1  0  0  0  0
 23 24  1  0  0  0  0
 23 49  1  0  0  0  0
 23 50  1  0  0  0  0
 24 25  1  0  0  0  0
 25 26  1  0  0  0  0
 25 51  1  0  0  0  0
 25 52  1  0  0  0  0
 26  7  1  0  0  0  0
 26 53  1  0  0  0  0
 26 54  1  0  0  0  0
 27 28  1  0  0  0  0
 28 29  1  0  0  0  0
 28 55  1  0  0  0  0
 29 30  2  0  0  0  0
 29 32  1  0  0  0  0
 30 31  1  0  0  0  0
 31 27  2  0  0  0  0
 32 33  2  0  0  0  0
 32 56  1  0  0  0  0
 33 34  1  0  0  0  0
 33 57  1  0  0  0  0
 34 35  2  0  0  0  0
 34 58  1  0  0  0  0
 35 30  1  0  0  0  0
 35 59  1  0  0  0  0
M  END
>  <Mol_ID>
4321

>  <Formula>
C26H23FN8O

>  <MolWeight>
482.5122232

>  <Cat>
S8764

>  <Name>
IITZ-01

>  <Synonyms>
N/A

>  <Target>
Autophagy

>  <Form>
Free Base

>  <CAS>
1807988-47-1

>  <URL>
http://www.selleckchem.com/products/iitz-01.html

$$$$
