IM-12.cdx
 OpenBabel08302519583D

 48 51  0  0  0  0  0  0  0  0999 V2000
    1.1661   -0.2078    0.0186 C   0  0  0  0  0  0  0  0  0  0  0  0
    0.7367   -1.6307   -0.0403 C   0  0  0  0  0  0  0  0  0  0  0  0
   -0.6056   -1.6576   -0.0486 C   0  0  0  0  0  0  0  0  0  0  0  0
   -1.0581   -0.2360   -0.0205 C   0  0  0  0  0  0  0  0  0  0  0  0
    0.0364    0.5479    0.0241 N   0  0  0  0  0  0  0  0  0  0  0  0
    1.6415   -2.7224   -0.0387 C   0  0  0  0  0  0  0  0  0  0  0  0
    2.2400   -3.3246    1.1113 C   0  0  0  0  0  0  0  0  0  0  0  0
    2.9941   -4.4075    0.6577 C   0  0  0  0  0  0  0  0  0  0  0  0
    2.8927   -4.4258   -0.7141 N   0  0  0  0  0  0  0  0  0  0  0  0
    2.0612   -3.4220   -1.1559 C   0  0  0  0  0  0  0  0  0  0  0  0
   -1.5304   -2.6935   -0.1371 N   0  0  0  0  0  0  0  0  0  0  0  0
   -1.9928   -3.4015    1.0671 C   0  0  0  0  0  0  0  0  0  0  0  0
   -2.8417   -2.5142    1.9858 C   0  0  0  0  0  0  0  0  0  0  0  0
   -3.4330   -3.3086    3.1292 C   0  0  0  0  0  0  0  0  0  0  0  0
    2.1946   -3.0758    2.4998 C   0  0  0  0  0  0  0  0  0  0  0  0
    2.8779   -3.9272    3.3770 C   0  0  0  0  0  0  0  0  0  0  0  0
    3.6080   -5.0093    2.8921 C   0  0  0  0  0  0  0  0  0  0  0  0
    3.6869   -5.2663    1.5206 C   0  0  0  0  0  0  0  0  0  0  0  0
   -2.7366   -3.4350    4.3409 C   0  0  0  0  0  0  0  0  0  0  0  0
   -3.2546   -4.2194    5.3727 C   0  0  0  0  0  0  0  0  0  0  0  0
   -4.4643   -4.8790    5.1925 C   0  0  0  0  0  0  0  0  0  0  0  0
   -5.1750   -4.7575    4.0048 C   0  0  0  0  0  0  0  0  0  0  0  0
   -4.6620   -3.9696    2.9731 C   0  0  0  0  0  0  0  0  0  0  0  0
    2.3153    0.1896    0.0435 O   0  0  0  0  0  0  0  0  0  0  0  0
   -2.2287    0.1217   -0.0408 O   0  0  0  0  0  0  0  0  0  0  0  0
    0.0039    1.9915    0.0255 C   0  0  0  0  0  0  0  0  0  0  0  0
   -4.9487   -5.6490    6.1759 F   0  0  0  0  0  0  0  0  0  0  0  0
    1.7704   -3.2621   -2.6034 C   0  0  0  0  0  0  0  0  0  0  0  0
    3.3486   -5.1066   -1.3064 H   0  0  0  0  0  0  0  0  0  0  0  0
   -1.2016   -3.3867   -0.8089 H   0  0  0  0  0  0  0  0  0  0  0  0
   -2.5938   -4.2562    0.7323 H   0  0  0  0  0  0  0  0  0  0  0  0
   -1.1365   -3.8205    1.6115 H   0  0  0  0  0  0  0  0  0  0  0  0
   -2.2362   -1.6945    2.3922 H   0  0  0  0  0  0  0  0  0  0  0  0
   -3.6492   -2.0380    1.4161 H   0  0  0  0  0  0  0  0  0  0  0  0
    1.6311   -2.2349    2.8920 H   0  0  0  0  0  0  0  0  0  0  0  0
    2.8347   -3.7427    4.4477 H   0  0  0  0  0  0  0  0  0  0  0  0
    4.1261   -5.6640    3.5897 H   0  0  0  0  0  0  0  0  0  0  0  0
    4.2590   -6.1095    1.1467 H   0  0  0  0  0  0  0  0  0  0  0  0
   -1.7853   -2.9278    4.4855 H   0  0  0  0  0  0  0  0  0  0  0  0
   -2.7199   -4.3259    6.3110 H   0  0  0  0  0  0  0  0  0  0  0  0
   -6.1186   -5.2809    3.8877 H   0  0  0  0  0  0  0  0  0  0  0  0
   -5.2222   -3.8785    2.0445 H   0  0  0  0  0  0  0  0  0  0  0  0
    0.5537    2.3606    0.8942 H   0  0  0  0  0  0  0  0  0  0  0  0
    0.4923    2.3554   -0.8825 H   0  0  0  0  0  0  0  0  0  0  0  0
   -1.0276    2.3558    0.0559 H   0  0  0  0  0  0  0  0  0  0  0  0
    2.6897   -3.0615   -3.1634 H   0  0  0  0  0  0  0  0  0  0  0  0
    1.3176   -4.1770   -2.9989 H   0  0  0  0  0  0  0  0  0  0  0  0
    1.0767   -2.4366   -2.7867 H   0  0  0  0  0  0  0  0  0  0  0  0
  1  2  1  0  0  0  0
  1 24  2  0  0  0  0
  2  3  2  0  0  0  0
  2  6  1  0  0  0  0
  3  4  1  0  0  0  0
  3 11  1  0  0  0  0
  4  5  1  0  0  0  0
  4 25  2  0  0  0  0
  5  1  1  0  0  0  0
  5 26  1  0  0  0  0
  6  7  1  0  0  0  0
  7  8  2  0  0  0  0
  7 15  1  0  0  0  0
  8  9  1  0  0  0  0
  9 10  1  0  0  0  0
  9 29  1  0  0  0  0
 10  6  2  0  0  0  0
 10 28  1  0  0  0  0
 11 12  1  0  0  0  0
 11 30  1  0  0  0  0
 12 13  1  0  0  0  0
 12 31  1  0  0  0  0
 12 32  1  0  0  0  0
 13 14  1  0  0  0  0
 13 33  1  0  0  0  0
 13 34  1  0  0  0  0
 14 19  2  0  0  0  0
 15 16  2  0  0  0  0
 15 35  1  0  0  0  0
 16 17  1  0  0  0  0
 16 36  1  0  0  0  0
 17 18  2  0  0  0  0
 17 37  1  0  0  0  0
 18  8  1  0  0  0  0
 18 38  1  0  0  0  0
 19 20  1  0  0  0  0
 19 39  1  0  0  0  0
 20 21  2  0  0  0  0
 20 40  1  0  0  0  0
 21 22  1  0  0  0  0
 21 27  1  0  0  0  0
 22 23  2  0  0  0  0
 22 41  1  0  0  0  0
 23 14  1  0  0  0  0
 23 42  1  0  0  0  0
 26 43  1  0  0  0  0
 26 44  1  0  0  0  0
 26 45  1  0  0  0  0
 28 46  1  0  0  0  0
 28 47  1  0  0  0  0
 28 48  1  0  0  0  0
M  END
>  <Mol_ID>
2458

>  <Formula>
C22H20FN3O2

>  <MolWeight>
377.4115032

>  <Cat>
S7566

>  <Name>
IM-12

>  <Synonyms>
N/A

>  <Target>
GSK-3

>  <Form>
free base

>  <CAS>
1129669-05-1

>  <URL>
http://selleckchem.com/products/im-12.html

$$$$
