IM156
 OpenBabel08302521263D

 38 39  0  0  0  0  0  0  0  0999 V2000
    0.7103   -0.5119    1.9181 C   0  0  0  0  0  0  0  0  0  0  0  0
   -0.3829   -1.3570    1.7516 C   0  0  0  0  0  0  0  0  0  0  0  0
   -1.5116   -0.9240    1.0317 C   0  0  0  0  0  0  0  0  0  0  0  0
   -1.5898    0.3735    0.5003 C   0  0  0  0  0  0  0  0  0  0  0  0
   -0.4940    1.2178    0.7174 C   0  0  0  0  0  0  0  0  0  0  0  0
    0.6325    0.7851    1.4191 C   0  0  0  0  0  0  0  0  0  0  0  0
    1.8432   -0.7853    2.6175 O   0  0  0  0  0  0  0  0  0  0  0  0
    2.4105   -2.0855    2.5645 C   0  0  0  0  0  0  0  0  0  0  0  0
   -2.7678    0.7766   -0.1729 N   0  0  0  0  0  0  0  0  0  0  0  0
   -3.2248    2.0749   -0.2765 C   0  0  0  0  0  0  0  0  0  0  0  0
   -4.5941    2.1838   -0.1919 N   0  0  0  0  0  0  0  0  0  0  0  0
   -2.4722    3.1283   -0.3595 N   0  0  0  0  0  0  0  0  0  0  0  0
   -5.3971    3.1998    0.2569 C   0  0  0  0  0  0  0  0  0  0  0  0
   -4.9831    3.8870    1.3686 N   0  0  0  0  0  0  0  0  0  0  0  0
   -6.4889    3.4423   -0.3927 N   0  0  0  0  0  0  0  0  0  0  0  0
   -5.5952    5.1021    1.8868 C   0  0  0  0  0  0  0  0  0  0  0  0
   -4.5756    5.5949    2.9031 C   0  0  0  0  0  0  0  0  0  0  0  0
   -4.0689    4.3124    3.5373 C   0  0  0  0  0  0  0  0  0  0  0  0
   -4.1803    3.2656    2.4329 C   0  0  0  0  0  0  0  0  0  0  0  0
    1.7225   -2.9670    1.8109 F   0  0  0  0  0  0  0  0  0  0  0  0
    3.6633   -1.9939    2.0628 F   0  0  0  0  0  0  0  0  0  0  0  0
    2.5005   -2.5731    3.8218 F   0  0  0  0  0  0  0  0  0  0  0  0
   -0.4002   -2.3534    2.1859 H   0  0  0  0  0  0  0  0  0  0  0  0
   -2.3485   -1.6101    0.9338 H   0  0  0  0  0  0  0  0  0  0  0  0
   -0.4933    2.2368    0.3464 H   0  0  0  0  0  0  0  0  0  0  0  0
    1.4550    1.4808    1.5699 H   0  0  0  0  0  0  0  0  0  0  0  0
   -3.4753    0.0569   -0.2266 H   0  0  0  0  0  0  0  0  0  0  0  0
   -5.0718    1.6910   -0.9358 H   0  0  0  0  0  0  0  0  0  0  0  0
   -3.0967    3.9442   -0.3593 H   0  0  0  0  0  0  0  0  0  0  0  0
   -6.9719    4.2270    0.0479 H   0  0  0  0  0  0  0  0  0  0  0  0
   -6.5472    4.8650    2.3762 H   0  0  0  0  0  0  0  0  0  0  0  0
   -5.7677    5.8526    1.1093 H   0  0  0  0  0  0  0  0  0  0  0  0
   -3.7517    6.1060    2.3899 H   0  0  0  0  0  0  0  0  0  0  0  0
   -5.0025    6.2848    3.6360 H   0  0  0  0  0  0  0  0  0  0  0  0
   -3.0379    4.4114    3.8934 H   0  0  0  0  0  0  0  0  0  0  0  0
   -4.6905    4.0268    4.3926 H   0  0  0  0  0  0  0  0  0  0  0  0
   -3.1790    2.9909    2.0998 H   0  0  0  0  0  0  0  0  0  0  0  0
   -4.6809    2.3658    2.8093 H   0  0  0  0  0  0  0  0  0  0  0  0
  1  2  2  0  0  0  0
  1  7  1  0  0  0  0
  2  3  1  0  0  0  0
  2 23  1  0  0  0  0
  3  4  2  0  0  0  0
  3 24  1  0  0  0  0
  4  5  1  0  0  0  0
  4  9  1  0  0  0  0
  5  6  2  0  0  0  0
  5 25  1  0  0  0  0
  6  1  1  0  0  0  0
  6 26  1  0  0  0  0
  7  8  1  0  0  0  0
  8 20  1  0  0  0  0
  8 21  1  0  0  0  0
  8 22  1  0  0  0  0
  9 10  1  0  0  0  0
  9 27  1  0  0  0  0
 10 11  1  0  0  0  0
 10 12  2  0  0  0  0
 11 13  1  0  0  0  0
 11 28  1  0  0  0  0
 12 29  1  0  0  0  0
 13 14  1  0  0  0  0
 13 15  2  0  0  0  0
 14 16  1  0  0  0  0
 15 30  1  0  0  0  0
 16 17  1  0  0  0  0
 16 31  1  0  0  0  0
 16 32  1  0  0  0  0
 17 18  1  0  0  0  0
 17 33  1  0  0  0  0
 17 34  1  0  0  0  0
 18 19  1  0  0  0  0
 18 35  1  0  0  0  0
 18 36  1  0  0  0  0
 19 14  1  0  0  0  0
 19 37  1  0  0  0  0
 19 38  1  0  0  0  0
M  END
>  <Mol_ID>
5240

>  <Formula>
C13H16F3N5O

>  <MolWeight>
315.2942496

>  <Cat>
S9604

>  <Name>
IM156

>  <Synonyms>
HL156A

>  <Target>
AMPK,Apoptosis related,OXPHOS

>  <Form>
free base

>  <CAS>
1422365-93-2

>  <URL>
http://www.selleckchem.com/products/im156.html

$$$$
