Imatinib.cdx
 OpenBabel08302521383D

 68 72  0  0  0  0  0  0  0  0999 V2000
   -1.5886    1.4427    0.4850 N   0  0  0  0  0  0  0  0  0  0  0  0
   -0.5756    2.2046    0.8964 C   0  0  0  0  0  0  0  0  0  0  0  0
   -0.6175    2.9005    2.0418 N   0  0  0  0  0  0  0  0  0  0  0  0
   -1.7069    2.8238    2.8478 C   0  0  0  0  0  0  0  0  0  0  0  0
   -2.7738    2.0650    2.4806 C   0  0  0  0  0  0  0  0  0  0  0  0
   -2.6673    1.4039    1.2839 C   0  0  0  0  0  0  0  0  0  0  0  0
   -1.6579    3.5573    4.1282 C   0  0  0  0  0  0  0  0  0  0  0  0
    0.5352    2.2437    0.0526 N   0  0  0  0  0  0  0  0  0  0  0  0
    1.5939    3.1631   -0.0402 C   0  0  0  0  0  0  0  0  0  0  0  0
   -0.5406    4.2721    4.4931 C   0  0  0  0  0  0  0  0  0  0  0  0
   -0.4260    4.9995    5.6783 C   0  0  0  0  0  0  0  0  0  0  0  0
   -1.4746    4.9354    6.5498 C   0  0  0  0  0  0  0  0  0  0  0  0
   -2.5946    4.2425    6.2811 N   0  0  0  0  0  0  0  0  0  0  0  0
   -2.6500    3.5941    5.0795 C   0  0  0  0  0  0  0  0  0  0  0  0
    1.8585    4.0869    0.9958 C   0  0  0  0  0  0  0  0  0  0  0  0
    2.9249    4.9792    0.9805 C   0  0  0  0  0  0  0  0  0  0  0  0
    3.7395    4.9821   -0.1454 C   0  0  0  0  0  0  0  0  0  0  0  0
    3.4753    4.1282   -1.2236 C   0  0  0  0  0  0  0  0  0  0  0  0
    2.4029    3.2218   -1.1907 C   0  0  0  0  0  0  0  0  0  0  0  0
    2.1335    2.3688   -2.4021 C   0  0  0  0  0  0  0  0  0  0  0  0
    3.2558    5.8846    2.0324 N   0  0  0  0  0  0  0  0  0  0  0  0
    2.6453    5.9552    3.2752 C   0  0  0  0  0  0  0  0  0  0  0  0
    1.7779    5.2394    3.6781 O   0  0  0  0  0  0  0  0  0  0  0  0
    3.1306    6.9394    4.2650 C   0  0  0  0  0  0  0  0  0  0  0  0
    3.7174    8.1225    3.8533 C   0  0  0  0  0  0  0  0  0  0  0  0
    4.1675    9.0168    4.8175 C   0  0  0  0  0  0  0  0  0  0  0  0
    3.9536    8.7886    6.1812 C   0  0  0  0  0  0  0  0  0  0  0  0
    3.3054    7.6284    6.5973 C   0  0  0  0  0  0  0  0  0  0  0  0
    2.9202    6.6970    5.6351 C   0  0  0  0  0  0  0  0  0  0  0  0
    4.2980    9.8826    7.1738 C   0  0  0  0  0  0  0  0  0  0  0  0
    3.5358   11.1017    6.8840 N   0  0  0  0  0  0  0  0  0  0  0  0
    2.0776   10.8972    6.9861 C   0  0  0  0  0  0  0  0  0  0  0  0
    1.3066   12.1811    6.6165 C   0  0  0  0  0  0  0  0  0  0  0  0
    1.6769   13.3637    7.4169 N   0  0  0  0  0  0  0  0  0  0  0  0
    3.1477   13.5120    7.4039 C   0  0  0  0  0  0  0  0  0  0  0  0
    3.9462   12.2262    7.7374 C   0  0  0  0  0  0  0  0  0  0  0  0
    1.1552   13.2608    8.7774 C   0  0  0  0  0  0  0  0  0  0  0  0
   -3.6471    1.9569    3.0979 H   0  0  0  0  0  0  0  0  0  0  0  0
   -3.4881    0.7878    0.9334 H   0  0  0  0  0  0  0  0  0  0  0  0
    0.4129    1.5765   -0.6945 H   0  0  0  0  0  0  0  0  0  0  0  0
    0.2497    4.2055    3.7760 H   0  0  0  0  0  0  0  0  0  0  0  0
    0.4444    5.5871    5.9071 H   0  0  0  0  0  0  0  0  0  0  0  0
   -1.4391    5.4464    7.5036 H   0  0  0  0  0  0  0  0  0  0  0  0
   -3.5796    3.0734    4.9260 H   0  0  0  0  0  0  0  0  0  0  0  0
    1.1990    4.1001    1.8463 H   0  0  0  0  0  0  0  0  0  0  0  0
    4.5902    5.6521   -0.2027 H   0  0  0  0  0  0  0  0  0  0  0  0
    4.1210    4.1833   -2.0978 H   0  0  0  0  0  0  0  0  0  0  0  0
    2.3182    1.3127   -2.1846 H   0  0  0  0  0  0  0  0  0  0  0  0
    1.0959    2.4964   -2.7327 H   0  0  0  0  0  0  0  0  0  0  0  0
    2.7707    2.6550   -3.2475 H   0  0  0  0  0  0  0  0  0  0  0  0
    4.0768    6.4385    1.8923 H   0  0  0  0  0  0  0  0  0  0  0  0
    3.7879    8.3816    2.8029 H   0  0  0  0  0  0  0  0  0  0  0  0
    4.6349    9.9505    4.4890 H   0  0  0  0  0  0  0  0  0  0  0  0
    3.0770    7.4451    7.6452 H   0  0  0  0  0  0  0  0  0  0  0  0
    2.4352    5.7791    5.9673 H   0  0  0  0  0  0  0  0  0  0  0  0
    5.3727   10.0776    7.0653 H   0  0  0  0  0  0  0  0  0  0  0  0
    4.1405    9.5417    8.2047 H   0  0  0  0  0  0  0  0  0  0  0  0
    1.7392   10.1218    6.2901 H   0  0  0  0  0  0  0  0  0  0  0  0
    1.8045   10.5614    7.9944 H   0  0  0  0  0  0  0  0  0  0  0  0
    1.4967   12.4090    5.5580 H   0  0  0  0  0  0  0  0  0  0  0  0
    0.2285   11.9943    6.6856 H   0  0  0  0  0  0  0  0  0  0  0  0
    3.4394   13.8449    6.3981 H   0  0  0  0  0  0  0  0  0  0  0  0
    3.4508   14.3207    8.0798 H   0  0  0  0  0  0  0  0  0  0  0  0
    3.8184   11.9748    8.7980 H   0  0  0  0  0  0  0  0  0  0  0  0
    5.0115   12.4371    7.5815 H   0  0  0  0  0  0  0  0  0  0  0  0
    1.5726   12.4208    9.3419 H   0  0  0  0  0  0  0  0  0  0  0  0
    1.3641   14.1809    9.3327 H   0  0  0  0  0  0  0  0  0  0  0  0
    0.0657   13.1462    8.7591 H   0  0  0  0  0  0  0  0  0  0  0  0
  1  2  2  0  0  0  0
  2  3  1  0  0  0  0
  2  8  1  0  0  0  0
  3  4  2  0  0  0  0
  4  5  1  0  0  0  0
  4  7  1  0  0  0  0
  5  6  2  0  0  0  0
  5 38  1  0  0  0  0
  6  1  1  0  0  0  0
  6 39  1  0  0  0  0
  7 10  2  0  0  0  0
  8  9  1  0  0  0  0
  8 40  1  0  0  0  0
  9 15  2  0  0  0  0
 10 11  1  0  0  0  0
 10 41  1  0  0  0  0
 11 12  2  0  0  0  0
 11 42  1  0  0  0  0
 12 13  1  0  0  0  0
 12 43  1  0  0  0  0
 13 14  2  0  0  0  0
 14  7  1  0  0  0  0
 14 44  1  0  0  0  0
 15 16  1  0  0  0  0
 15 45  1  0  0  0  0
 16 17  2  0  0  0  0
 16 21  1  0  0  0  0
 17 18  1  0  0  0  0
 17 46  1  0  0  0  0
 18 19  2  0  0  0  0
 18 47  1  0  0  0  0
 19  9  1  0  0  0  0
 19 20  1  0  0  0  0
 20 48  1  0  0  0  0
 20 49  1  0  0  0  0
 20 50  1  0  0  0  0
 21 22  1  0  0  0  0
 21 51  1  0  0  0  0
 22 23  2  0  0  0  0
 22 24  1  0  0  0  0
 24 25  2  0  0  0  0
 25 26  1  0  0  0  0
 25 52  1  0  0  0  0
 26 27  2  0  0  0  0
 26 53  1  0  0  0  0
 27 28  1  0  0  0  0
 27 30  1  0  0  0  0
 28 29  2  0  0  0  0
 28 54  1  0  0  0  0
 29 24  1  0  0  0  0
 29 55  1  0  0  0  0
 30 31  1  0  0  0  0
 30 56  1  0  0  0  0
 30 57  1  0  0  0  0
 31 32  1  0  0  0  0
 32 33  1  0  0  0  0
 32 58  1  0  0  0  0
 32 59  1  0  0  0  0
 33 34  1  0  0  0  0
 33 60  1  0  0  0  0
 33 61  1  0  0  0  0
 34 35  1  0  0  0  0
 34 37  1  0  0  0  0
 35 36  1  0  0  0  0
 35 62  1  0  0  0  0
 35 63  1  0  0  0  0
 36 31  1  0  0  0  0
 36 64  1  0  0  0  0
 36 65  1  0  0  0  0
 37 66  1  0  0  0  0
 37 67  1  0  0  0  0
 37 68  1  0  0  0  0
M  END
>  <Mol_ID>
748

>  <Formula>
C29H31N7O

>  <MolWeight>
493.60274

>  <Cat>
S2475

>  <Name>
Imatinib (STI571)

>  <Synonyms>
STI571,Gleevec, Glivec, CGP057148B

>  <Target>
Autophagy,Bcr-Abl,c-Kit,PDGFR

>  <Form>
free base

>  <CAS>
152459-95-5

>  <URL>
http://selleckchem.com/products/Imatinib(STI571).html

$$$$
