Imidacloprid-urea
 OpenBabel08302521323D

 24 25  0  0  0  0  0  0  0  0999 V2000
   -0.7031   -0.0434    0.2328 C   0  0  0  0  0  0  0  0  0  0  0  0
    0.0363   -1.1707   -0.1023 N   0  0  0  0  0  0  0  0  0  0  0  0
    1.4430   -0.8789   -0.0580 C   0  0  0  0  0  0  0  0  0  0  0  0
    1.4854    0.6376   -0.1947 C   0  0  0  0  0  0  0  0  0  0  0  0
    0.1732    1.0326    0.2718 N   0  0  0  0  0  0  0  0  0  0  0  0
   -1.9010   -0.0356    0.4503 O   0  0  0  0  0  0  0  0  0  0  0  0
   -0.2363    2.4083    0.4497 C   0  0  0  0  0  0  0  0  0  0  0  0
    1.5747    3.7085    1.6286 C   0  0  0  0  0  0  0  0  0  0  0  0
    0.3624    3.0285    1.6795 C   0  0  0  0  0  0  0  0  0  0  0  0
   -0.2648    2.9313    2.9252 C   0  0  0  0  0  0  0  0  0  0  0  0
    0.3174    3.5270    4.0406 C   0  0  0  0  0  0  0  0  0  0  0  0
    1.5226    4.1894    3.8764 C   0  0  0  0  0  0  0  0  0  0  0  0
    2.1696    4.2889    2.6955 N   0  0  0  0  0  0  0  0  0  0  0  0
   -0.3860   -2.0843   -0.0069 H   0  0  0  0  0  0  0  0  0  0  0  0
    1.8168   -1.1966    0.9202 H   0  0  0  0  0  0  0  0  0  0  0  0
    1.9790   -1.4058   -0.8500 H   0  0  0  0  0  0  0  0  0  0  0  0
    2.2853    1.0915    0.3944 H   0  0  0  0  0  0  0  0  0  0  0  0
    1.5750    0.9404   -1.2438 H   0  0  0  0  0  0  0  0  0  0  0  0
    0.0436    2.9704   -0.4483 H   0  0  0  0  0  0  0  0  0  0  0  0
   -1.3301    2.4573    0.5171 H   0  0  0  0  0  0  0  0  0  0  0  0
    2.1254    3.8091    0.6972 H   0  0  0  0  0  0  0  0  0  0  0  0
   -1.2077    2.3979    3.0264 H   0  0  0  0  0  0  0  0  0  0  0  0
   -0.1579    3.4758    5.0138 H   0  0  0  0  0  0  0  0  0  0  0  0
    2.0147    4.6718    4.7165 H   0  0  0  0  0  0  0  0  0  0  0  0
  1  2  1  0  0  0  0
  1  5  1  0  0  0  0
  1  6  2  0  0  0  0
  2  3  1  0  0  0  0
  2 14  1  0  0  0  0
  3  4  1  0  0  0  0
  3 15  1  0  0  0  0
  3 16  1  0  0  0  0
  4  5  1  0  0  0  0
  4 17  1  0  0  0  0
  4 18  1  0  0  0  0
  5  7  1  0  0  0  0
  7  9  1  0  0  0  0
  7 19  1  0  0  0  0
  7 20  1  0  0  0  0
  8  9  2  0  0  0  0
  8 13  1  0  0  0  0
  8 21  1  0  0  0  0
  9 10  1  0  0  0  0
 10 11  2  0  0  0  0
 10 22  1  0  0  0  0
 11 12  1  0  0  0  0
 11 23  1  0  0  0  0
 12 13  2  0  0  0  0
 12 24  1  0  0  0  0
M  END
>  <Mol_ID>
6229

>  <Formula>
C9H10ClN3O

>  <MolWeight>
211.6482

>  <Cat>
S4448

>  <Name>
Imidacloprid-urea

>  <Synonyms>
N/A

>  <Target>
Others

>  <Form>
free base

>  <CAS>
120868-66-8

>  <URL>
http://www.selleckchem.com/products/imidacloprid-urea.html

$$$$
