Imidapril hydrochloride.cdx
 OpenBabel08302519503D

 56 57  0  0  0  0  0  0  0  0999 V2000
    2.6234    1.6279    2.3707 C   0  0  0  0  0  0  0  0  0  0  0  0
    2.8878    0.9359    1.0466 C   0  0  0  0  0  0  0  0  0  0  0  0
    3.2775    1.8996    0.0565 O   0  0  0  0  0  0  0  0  0  0  0  0
    2.2614    2.4917   -0.6401 C   0  0  0  0  0  0  0  0  0  0  0  0
    1.0663    2.2838   -0.4558 O   0  0  0  0  0  0  0  0  0  0  0  0
    2.8298    3.5009   -1.6543 C   0  0  1  0  0  0  0  0  0  0  0  0
    2.2977    3.1649   -3.0012 N   0  0  0  0  0  0  0  0  0  0  0  0
    2.4676    4.9270   -1.2090 C   0  0  0  0  0  0  0  0  0  0  0  0
    3.1157    5.3211    0.1214 C   0  0  0  0  0  0  0  0  0  0  0  0
    2.7978    6.7527    0.4883 C   0  0  0  0  0  0  0  0  0  0  0  0
    2.8107    4.0266   -4.0918 C   0  0  2  0  0  0  0  0  0  0  0  0
    2.1084    3.6947   -5.4388 C   0  0  0  0  0  0  0  0  0  0  0  0
    2.6448    4.3176   -6.5564 N   0  0  0  0  0  0  0  0  0  0  0  0
    1.1240    2.9594   -5.5230 O   0  0  0  0  0  0  0  0  0  0  0  0
    1.4712    7.1487    0.7142 C   0  0  0  0  0  0  0  0  0  0  0  0
    1.1704    8.4695    1.0459 C   0  0  0  0  0  0  0  0  0  0  0  0
    2.1926    9.4077    1.1657 C   0  0  0  0  0  0  0  0  0  0  0  0
    3.5153    9.0259    0.9490 C   0  0  0  0  0  0  0  0  0  0  0  0
    3.8178    7.7052    0.6104 C   0  0  0  0  0  0  0  0  0  0  0  0
    4.3330    3.8519   -4.1885 C   0  0  0  0  0  0  0  0  0  0  0  0
    3.3065    5.5748   -6.6057 C   0  0  0  0  0  0  0  0  0  0  0  0
    3.6677    5.7890   -7.9440 N   0  0  0  0  0  0  0  0  0  0  0  0
    3.3827    4.5935   -8.7094 C   0  0  0  0  0  0  0  0  0  0  0  0
    2.2456    3.9689   -7.9065 C   0  0  1  0  0  0  0  0  0  0  0  0
    3.5536    6.3204   -5.6793 O   0  0  0  0  0  0  0  0  0  0  0  0
    4.6468    6.7730   -8.3437 C   0  0  0  0  0  0  0  0  0  0  0  0
    2.1342    2.4906   -8.2134 C   0  0  0  0  0  0  0  0  0  0  0  0
    1.3645    1.9967   -9.0248 O   0  0  0  0  0  0  0  0  0  0  0  0
    3.0521    1.7211   -7.5944 O   0  0  0  0  0  0  0  0  0  0  0  0
    3.5152    2.1684    2.7056 H   0  0  0  0  0  0  0  0  0  0  0  0
    2.3441    0.9021    3.1403 H   0  0  0  0  0  0  0  0  0  0  0  0
    1.8210    2.3655    2.2761 H   0  0  0  0  0  0  0  0  0  0  0  0
    3.7207    0.2343    1.1603 H   0  0  0  0  0  0  0  0  0  0  0  0
    2.0199    0.3529    0.7177 H   0  0  0  0  0  0  0  0  0  0  0  0
    3.9217    3.3786   -1.6572 H   0  0  0  0  0  0  0  0  0  0  0  0
    1.2747    3.2016   -2.9906 H   0  0  0  0  0  0  0  0  0  0  0  0
    2.8037    5.6558   -1.9547 H   0  0  0  0  0  0  0  0  0  0  0  0
    1.3766    5.0218   -1.1468 H   0  0  0  0  0  0  0  0  0  0  0  0
    2.7789    4.6727    0.9372 H   0  0  0  0  0  0  0  0  0  0  0  0
    4.2038    5.1910    0.0451 H   0  0  0  0  0  0  0  0  0  0  0  0
    2.5335    5.0666   -3.8935 H   0  0  0  0  0  0  0  0  0  0  0  0
    0.6597    6.4292    0.6279 H   0  0  0  0  0  0  0  0  0  0  0  0
    0.1375    8.7642    1.2109 H   0  0  0  0  0  0  0  0  0  0  0  0
    1.9580   10.4356    1.4280 H   0  0  0  0  0  0  0  0  0  0  0  0
    4.3127    9.7583    1.0428 H   0  0  0  0  0  0  0  0  0  0  0  0
    4.8559    7.4289    0.4406 H   0  0  0  0  0  0  0  0  0  0  0  0
    4.8361    4.4868   -3.4507 H   0  0  0  0  0  0  0  0  0  0  0  0
    4.6258    2.8110   -4.0020 H   0  0  0  0  0  0  0  0  0  0  0  0
    4.7550    4.0998   -5.1644 H   0  0  0  0  0  0  0  0  0  0  0  0
    3.1296    4.8329   -9.7423 H   0  0  0  0  0  0  0  0  0  0  0  0
    4.2861    3.9673   -8.6865 H   0  0  0  0  0  0  0  0  0  0  0  0
    1.2855    4.4607   -8.1168 H   0  0  0  0  0  0  0  0  0  0  0  0
    5.6277    6.2955   -8.4145 H   0  0  0  0  0  0  0  0  0  0  0  0
    4.3592    7.1820   -9.3158 H   0  0  0  0  0  0  0  0  0  0  0  0
    4.7000    7.5794   -7.6068 H   0  0  0  0  0  0  0  0  0  0  0  0
    2.7746    0.8049   -7.8099 H   0  0  0  0  0  0  0  0  0  0  0  0
  1  2  1  0  0  0  0
  1 30  1  0  0  0  0
  1 31  1  0  0  0  0
  1 32  1  0  0  0  0
  2  3  1  0  0  0  0
  2 33  1  0  0  0  0
  2 34  1  0  0  0  0
  3  4  1  0  0  0  0
  4  5  2  0  0  0  0
  6  4  1  0  0  0  0
  6  7  1  0  0  0  0
  6  8  1  0  0  0  0
  6 35  1  6  0  0  0
  7 36  1  0  0  0  0
  8  9  1  0  0  0  0
  8 37  1  0  0  0  0
  8 38  1  0  0  0  0
  9 10  1  0  0  0  0
  9 39  1  0  0  0  0
  9 40  1  0  0  0  0
 10 15  2  0  0  0  0
 11 12  1  0  0  0  0
 11  7  1  0  0  0  0
 11 41  1  1  0  0  0
 11 20  1  0  0  0  0
 12 13  1  0  0  0  0
 12 14  2  0  0  0  0
 13 21  1  0  0  0  0
 15 16  1  0  0  0  0
 15 42  1  0  0  0  0
 16 17  2  0  0  0  0
 16 43  1  0  0  0  0
 17 18  1  0  0  0  0
 17 44  1  0  0  0  0
 18 19  2  0  0  0  0
 18 45  1  0  0  0  0
 19 10  1  0  0  0  0
 19 46  1  0  0  0  0
 20 47  1  0  0  0  0
 20 48  1  0  0  0  0
 20 49  1  0  0  0  0
 21 22  1  0  0  0  0
 21 25  2  0  0  0  0
 22 23  1  0  0  0  0
 22 26  1  0  0  0  0
 23 24  1  0  0  0  0
 23 50  1  0  0  0  0
 23 51  1  0  0  0  0
 24 13  1  0  0  0  0
 24 27  1  0  0  0  0
 24 52  1  6  0  0  0
 26 53  1  0  0  0  0
 26 54  1  0  0  0  0
 26 55  1  0  0  0  0
 27 28  2  0  0  0  0
 27 29  1  0  0  0  0
 29 56  1  0  0  0  0
M  END
>  <Mol_ID>
1632

>  <Formula>
C20H28ClN3O6

>  <MolWeight>
441.90582

>  <Cat>
S2109

>  <Name>
Imidapril HCl

>  <Synonyms>
TA-6366

>  <Target>
ACE,RAAS

>  <Form>
Hydrochloride

>  <CAS>
89396-94-1

>  <URL>
http://selleckchem.com/products/imidapril-tanatril.html

$$$$
