Imidazole-4(5)-acetic Acid Hydrochloride
 OpenBabel08302520393D

 15 15  0  0  0  0  0  0  0  0999 V2000
   -0.3100   -1.1099   -0.0015 C   0  0  0  0  0  0  0  0  0  0  0  0
    1.0180   -0.7388   -0.0348 C   0  0  0  0  0  0  0  0  0  0  0  0
   -1.1089    0.0114    0.1194 N   0  0  0  0  0  0  0  0  0  0  0  0
   -0.9058   -2.4739   -0.0521 C   0  0  0  0  0  0  0  0  0  0  0  0
    1.0166    0.6275    0.0304 N   0  0  0  0  0  0  0  0  0  0  0  0
   -0.2846    1.0340    0.1136 C   0  0  0  0  0  0  0  0  0  0  0  0
   -2.2433   -2.5593   -0.7579 C   0  0  0  0  0  0  0  0  0  0  0  0
   -3.0354   -1.4648   -0.6722 O   0  0  0  0  0  0  0  0  0  0  0  0
   -2.6330   -3.5850   -1.3044 O   0  0  0  0  0  0  0  0  0  0  0  0
    1.9339   -1.3095   -0.1031 H   0  0  0  0  0  0  0  0  0  0  0  0
   -0.2153   -3.1426   -0.5816 H   0  0  0  0  0  0  0  0  0  0  0  0
   -1.0400   -2.8537    0.9658 H   0  0  0  0  0  0  0  0  0  0  0  0
    1.8268    1.2325    0.0156 H   0  0  0  0  0  0  0  0  0  0  0  0
   -0.5645    2.0788    0.1663 H   0  0  0  0  0  0  0  0  0  0  0  0
   -2.5530   -0.7056   -0.2554 H   0  0  0  0  0  0  0  0  0  0  0  0
  1  2  2  0  0  0  0
  1  3  1  0  0  0  0
  1  4  1  0  0  0  0
  2  5  1  0  0  0  0
  2 10  1  0  0  0  0
  3  6  2  0  0  0  0
  4  7  1  0  0  0  0
  4 11  1  0  0  0  0
  4 12  1  0  0  0  0
  5  6  1  0  0  0  0
  5 13  1  0  0  0  0
  6 14  1  0  0  0  0
  7  8  1  0  0  0  0
  7  9  2  0  0  0  0
  8 15  1  0  0  0  0
M  END
>  <Mol_ID>
3559

>  <Formula>
C5H7ClN2O2

>  <MolWeight>
162.57428

>  <Cat>
S6094

>  <Name>
Imidazole-4(5)-acetic Acid Hydrochloride

>  <Synonyms>
N/A

>  <Target>
GABA Receptor

>  <Form>
Hydrochloride

>  <CAS>
3251-69-2

>  <URL>
http://www.selleck.cn/products/imidazole-4-5-acetic-acid-hydrochloride.html

$$$$
