Iminodiacetic acid
 OpenBabel08302521453D

 16 15  0  0  0  0  0  0  0  0999 V2000
    1.1632    0.0318   -0.0385 N   0  0  0  0  0  0  0  0  0  0  0  0
    0.4964    1.0352    0.8518 C   0  0  0  0  0  0  0  0  0  0  0  0
    0.5343    0.1624   -1.3942 C   0  0  0  0  0  0  0  0  0  0  0  0
    1.1558    1.0476    2.2281 C   0  0  0  0  0  0  0  0  0  0  0  0
    1.1973   -0.7903   -2.3869 C   0  0  0  0  0  0  0  0  0  0  0  0
    1.6109   -0.1755    2.5917 O   0  0  0  0  0  0  0  0  0  0  0  0
    1.2398    2.0323    2.9444 O   0  0  0  0  0  0  0  0  0  0  0  0
    1.7486   -1.8677   -1.7721 O   0  0  0  0  0  0  0  0  0  0  0  0
    1.2048   -0.6341   -3.5959 O   0  0  0  0  0  0  0  0  0  0  0  0
    2.1357    0.3598   -0.1479 H   0  0  0  0  0  0  0  0  0  0  0  0
    0.5852    2.0402    0.4258 H   0  0  0  0  0  0  0  0  0  0  0  0
   -0.5580    0.7756    0.9910 H   0  0  0  0  0  0  0  0  0  0  0  0
   -0.5274   -0.0993   -1.3425 H   0  0  0  0  0  0  0  0  0  0  0  0
    0.6596    1.1833   -1.7706 H   0  0  0  0  0  0  0  0  0  0  0  0
    1.4373   -0.8045    1.8595 H   0  0  0  0  0  0  0  0  0  0  0  0
    1.6034   -1.7742   -0.8069 H   0  0  0  0  0  0  0  0  0  0  0  0
  1  2  1  0  0  0  0
  1  3  1  0  0  0  0
  1 10  1  0  0  0  0
  2  4  1  0  0  0  0
  2 11  1  0  0  0  0
  2 12  1  0  0  0  0
  3  5  1  0  0  0  0
  3 13  1  0  0  0  0
  3 14  1  0  0  0  0
  4  6  1  0  0  0  0
  4  7  2  0  0  0  0
  5  8  1  0  0  0  0
  5  9  2  0  0  0  0
  6 15  1  0  0  0  0
  8 16  1  0  0  0  0
M  END
>  <Mol_ID>
9523

>  <Formula>
C4H7NO4

>  <MolWeight>
133.10268

>  <Cat>
E4361

>  <Name>
Iminodiacetic acid

>  <Target>
Others

>  <Form>
free base

>  <CAS>
142-73-4

>  <URL>
https://www.selleckchem.com/products/iminodiacetic-acid.html

$$$$
