Imiquimod.cdx
 OpenBabel08302521393D

 34 36  0  0  0  0  0  0  0  0999 V2000
   -0.2556   -2.0555   -0.0361 N   0  0  0  0  0  0  0  0  0  0  0  0
   -1.0246   -0.9650    0.1066 C   0  0  0  0  0  0  0  0  0  0  0  0
   -0.5233    0.3455    0.2973 C   0  0  0  0  0  0  0  0  0  0  0  0
    0.8896    0.4653    0.2141 C   0  0  0  0  0  0  0  0  0  0  0  0
    1.6894   -0.6730    0.0535 C   0  0  0  0  0  0  0  0  0  0  0  0
    1.0924   -1.9478   -0.0583 C   0  0  0  0  0  0  0  0  0  0  0  0
   -2.4000   -1.1279    0.0415 C   0  0  0  0  0  0  0  0  0  0  0  0
   -3.2815   -0.0510    0.1814 C   0  0  0  0  0  0  0  0  0  0  0  0
   -2.7861    1.2187    0.4497 C   0  0  0  0  0  0  0  0  0  0  0  0
   -1.4096    1.4210    0.5227 C   0  0  0  0  0  0  0  0  0  0  0  0
    1.7974    1.5049    0.1790 N   0  0  0  0  0  0  0  0  0  0  0  0
    3.0552    0.9659    0.0562 C   0  0  0  0  0  0  0  0  0  0  0  0
    3.0309   -0.3419    0.0142 N   0  0  0  0  0  0  0  0  0  0  0  0
    1.8317   -3.1166   -0.2090 N   0  0  0  0  0  0  0  0  0  0  0  0
    1.5443    2.9275    0.0387 C   0  0  0  0  0  0  0  0  0  0  0  0
    1.5174    3.7267    1.3544 C   0  0  0  0  0  0  0  0  0  0  0  0
    2.8297    3.6522    2.1373 C   0  0  0  0  0  0  0  0  0  0  0  0
    1.2012    5.1952    1.0494 C   0  0  0  0  0  0  0  0  0  0  0  0
   -2.8019   -2.1223   -0.1432 H   0  0  0  0  0  0  0  0  0  0  0  0
   -4.3521   -0.2132    0.0861 H   0  0  0  0  0  0  0  0  0  0  0  0
   -3.4694    2.0519    0.5913 H   0  0  0  0  0  0  0  0  0  0  0  0
   -1.0544    2.4144    0.7611 H   0  0  0  0  0  0  0  0  0  0  0  0
    3.9450    1.5774   -0.0183 H   0  0  0  0  0  0  0  0  0  0  0  0
    2.7871   -3.0114    0.1144 H   0  0  0  0  0  0  0  0  0  0  0  0
    1.3098   -3.9228    0.1195 H   0  0  0  0  0  0  0  0  0  0  0  0
    2.3161    3.3265   -0.6327 H   0  0  0  0  0  0  0  0  0  0  0  0
    0.6018    3.0429   -0.5060 H   0  0  0  0  0  0  0  0  0  0  0  0
    0.7261    3.3304    2.0019 H   0  0  0  0  0  0  0  0  0  0  0  0
    3.6577    4.0966    1.5752 H   0  0  0  0  0  0  0  0  0  0  0  0
    2.7361    4.1972    3.0837 H   0  0  0  0  0  0  0  0  0  0  0  0
    3.0935    2.6213    2.3888 H   0  0  0  0  0  0  0  0  0  0  0  0
    0.1859    5.3007    0.6540 H   0  0  0  0  0  0  0  0  0  0  0  0
    1.2757    5.8115    1.9517 H   0  0  0  0  0  0  0  0  0  0  0  0
    1.8969    5.6049    0.3076 H   0  0  0  0  0  0  0  0  0  0  0  0
  1  2  2  0  0  0  0
  2  3  1  0  0  0  0
  2  7  1  0  0  0  0
  3  4  2  0  0  0  0
  4  5  1  0  0  0  0
  4 11  1  0  0  0  0
  5  6  2  0  0  0  0
  6  1  1  0  0  0  0
  6 14  1  0  0  0  0
  7  8  2  0  0  0  0
  7 19  1  0  0  0  0
  8  9  1  0  0  0  0
  8 20  1  0  0  0  0
  9 10  2  0  0  0  0
  9 21  1  0  0  0  0
 10  3  1  0  0  0  0
 10 22  1  0  0  0  0
 11 12  1  0  0  0  0
 11 15  1  0  0  0  0
 12 13  2  0  0  0  0
 12 23  1  0  0  0  0
 13  5  1  0  0  0  0
 14 24  1  0  0  0  0
 14 25  1  0  0  0  0
 15 16  1  0  0  0  0
 15 26  1  0  0  0  0
 15 27  1  0  0  0  0
 16 17  1  0  0  0  0
 16 18  1  0  0  0  0
 16 28  1  0  0  0  0
 17 29  1  0  0  0  0
 17 30  1  0  0  0  0
 17 31  1  0  0  0  0
 18 32  1  0  0  0  0
 18 33  1  0  0  0  0
 18 34  1  0  0  0  0
M  END
>  <Mol_ID>
8213

>  <Formula>
C14H16N4

>  <MolWeight>
240.30364

>  <Cat>
S1211

>  <Name>
Imiquimod (R-837)

>  <Synonyms>
Aldara,R-837, S-26308

>  <Target>
Immunology & Inflammation related

>  <Form>
free base

>  <CAS>
99011-02-6

>  <URL>
http://selleckchem.com/products/Imiquimod.html

$$$$
