Importazole.cdx
 OpenBabel08302520433D

 46 49  0  0  0  0  0  0  0  0999 V2000
    2.3577   -0.7586    0.0500 C   0  0  0  0  0  0  0  0  0  0  0  0
    2.4544    0.6227    0.0474 C   0  0  0  0  0  0  0  0  0  0  0  0
    1.2889    1.3851    0.0464 C   0  0  0  0  0  0  0  0  0  0  0  0
    0.0068    0.7730    0.0414 C   0  0  0  0  0  0  0  0  0  0  0  0
   -0.0829   -0.6212    0.0775 C   0  0  0  0  0  0  0  0  0  0  0  0
    1.0972   -1.3619    0.0738 C   0  0  0  0  0  0  0  0  0  0  0  0
   -1.2287    1.4430   -0.0388 C   0  0  0  0  0  0  0  0  0  0  0  0
   -2.3990    0.7754   -0.0298 N   0  0  0  0  0  0  0  0  0  0  0  0
   -2.3810   -0.5649    0.0797 C   0  0  0  0  0  0  0  0  0  0  0  0
   -1.2462   -1.2722    0.1201 N   0  0  0  0  0  0  0  0  0  0  0  0
   -3.5763   -1.2299    0.1752 N   0  0  0  0  0  0  0  0  0  0  0  0
   -1.2449    2.8576   -0.0130 N   0  0  0  0  0  0  0  0  0  0  0  0
   -2.3906    3.5244   -0.6357 C   0  0  3  0  0  0  0  0  0  0  0  0
   -2.7104    4.7758    0.1944 C   0  0  0  0  0  0  0  0  0  0  0  0
   -2.0273    3.8549   -2.0842 C   0  0  0  0  0  0  0  0  0  0  0  0
   -2.3205    2.9229   -3.0935 C   0  0  0  0  0  0  0  0  0  0  0  0
   -2.0031    3.1880   -4.4280 C   0  0  0  0  0  0  0  0  0  0  0  0
   -1.3757    4.3824   -4.7738 C   0  0  0  0  0  0  0  0  0  0  0  0
   -1.0436    5.3019   -3.7836 C   0  0  0  0  0  0  0  0  0  0  0  0
   -1.3562    5.0359   -2.4485 C   0  0  0  0  0  0  0  0  0  0  0  0
   -3.6522   -2.6760    0.3009 C   0  0  0  0  0  0  0  0  0  0  0  0
   -4.8318   -3.0574   -0.5903 C   0  0  0  0  0  0  0  0  0  0  0  0
   -5.7363   -1.8348   -0.5302 C   0  0  0  0  0  0  0  0  0  0  0  0
   -4.7589   -0.6622   -0.4498 C   0  0  0  0  0  0  0  0  0  0  0  0
    3.2557   -1.3704    0.0412 H   0  0  0  0  0  0  0  0  0  0  0  0
    3.4258    1.1104    0.0390 H   0  0  0  0  0  0  0  0  0  0  0  0
    1.3929    2.4659    0.0463 H   0  0  0  0  0  0  0  0  0  0  0  0
    1.0319   -2.4491    0.0844 H   0  0  0  0  0  0  0  0  0  0  0  0
   -0.3956    3.2244   -0.4238 H   0  0  0  0  0  0  0  0  0  0  0  0
   -3.3036    2.9161   -0.6291 H   0  0  0  0  0  0  0  0  0  0  0  0
   -1.8266    5.4061    0.3498 H   0  0  0  0  0  0  0  0  0  0  0  0
   -3.4814    5.3850   -0.2896 H   0  0  0  0  0  0  0  0  0  0  0  0
   -3.0720    4.4944    1.1891 H   0  0  0  0  0  0  0  0  0  0  0  0
   -2.7979    1.9776   -2.8392 H   0  0  0  0  0  0  0  0  0  0  0  0
   -2.2467    2.4605   -5.1979 H   0  0  0  0  0  0  0  0  0  0  0  0
   -1.1404    4.5941   -5.8137 H   0  0  0  0  0  0  0  0  0  0  0  0
   -0.5418    6.2292   -4.0488 H   0  0  0  0  0  0  0  0  0  0  0  0
   -1.0674    5.7706   -1.7015 H   0  0  0  0  0  0  0  0  0  0  0  0
   -3.8689   -2.9308    1.3438 H   0  0  0  0  0  0  0  0  0  0  0  0
   -2.7537   -3.2182   -0.0075 H   0  0  0  0  0  0  0  0  0  0  0  0
   -4.4867   -3.2200   -1.6184 H   0  0  0  0  0  0  0  0  0  0  0  0
   -5.3327   -3.9699   -0.2511 H   0  0  0  0  0  0  0  0  0  0  0  0
   -6.3972   -1.7638   -1.3984 H   0  0  0  0  0  0  0  0  0  0  0  0
   -6.3598   -1.8731    0.3707 H   0  0  0  0  0  0  0  0  0  0  0  0
   -4.5382   -0.2939   -1.4597 H   0  0  0  0  0  0  0  0  0  0  0  0
   -5.1800    0.1558    0.1451 H   0  0  0  0  0  0  0  0  0  0  0  0
  1  2  2  0  0  0  0
  1 25  1  0  0  0  0
  2  3  1  0  0  0  0
  2 26  1  0  0  0  0
  3  4  2  0  0  0  0
  3 27  1  0  0  0  0
  4  5  1  0  0  0  0
  4  7  1  0  0  0  0
  5  6  2  0  0  0  0
  6  1  1  0  0  0  0
  6 28  1  0  0  0  0
  7  8  2  0  0  0  0
  7 12  1  0  0  0  0
  8  9  1  0  0  0  0
  9 10  2  0  0  0  0
  9 11  1  0  0  0  0
 10  5  1  0  0  0  0
 11 21  1  0  0  0  0
 12 13  1  0  0  0  0
 12 29  1  0  0  0  0
 13 14  1  0  0  0  0
 13 15  1  0  0  0  0
 13 30  1  0  0  0  0
 14 31  1  0  0  0  0
 14 32  1  0  0  0  0
 14 33  1  0  0  0  0
 15 16  2  0  0  0  0
 16 17  1  0  0  0  0
 16 34  1  0  0  0  0
 17 18  2  0  0  0  0
 17 35  1  0  0  0  0
 18 19  1  0  0  0  0
 18 36  1  0  0  0  0
 19 20  2  0  0  0  0
 19 37  1  0  0  0  0
 20 15  1  0  0  0  0
 20 38  1  0  0  0  0
 21 22  1  0  0  0  0
 21 39  1  0  0  0  0
 21 40  1  0  0  0  0
 22 23  1  0  0  0  0
 22 41  1  0  0  0  0
 22 42  1  0  0  0  0
 23 24  1  0  0  0  0
 23 43  1  0  0  0  0
 23 44  1  0  0  0  0
 24 11  1  0  0  0  0
 24 45  1  0  0  0  0
 24 46  1  0  0  0  0
M  END
>  <Mol_ID>
4102

>  <Formula>
C20H22N4

>  <MolWeight>
318.41548

>  <Cat>
S8446

>  <Name>
Importazole

>  <Synonyms>
N/A

>  <Target>
Apoptosis related

>  <Form>
free base

>  <CAS>
662163-81-7

>  <URL>
http://selleckchem.com/products/importazole.html

$$$$
