IMURAN (azathioprine).cdx
 OpenBabel08302520433D

 26 28  0  0  0  0  0  0  0  0999 V2000
    1.1592   -0.6653    1.0302 N   0  0  0  0  0  0  0  0  0  0  0  0
    1.0043    0.6625    0.8462 C   0  0  0  0  0  0  0  0  0  0  0  0
    0.7819    1.3187   -0.3001 N   0  0  0  0  0  0  0  0  0  0  0  0
    0.7016    0.5004   -1.3622 C   0  0  0  0  0  0  0  0  0  0  0  0
    0.8290   -0.8738   -1.2735 C   0  0  0  0  0  0  0  0  0  0  0  0
    1.0690   -1.4686   -0.0514 C   0  0  0  0  0  0  0  0  0  0  0  0
    0.4791    0.8933   -2.6538 N   0  0  0  0  0  0  0  0  0  0  0  0
    0.4642   -0.2198   -3.3498 C   0  0  0  0  0  0  0  0  0  0  0  0
    0.6480   -1.3156   -2.5553 N   0  0  0  0  0  0  0  0  0  0  0  0
    1.0742   -3.2239    0.1584 S   0  0  0  0  0  0  0  0  0  0  0  0
    2.7574   -3.5814   -0.0887 C   0  0  0  0  0  0  0  0  0  0  0  0
    3.5197   -3.8815   -1.2060 C   0  0  0  0  0  0  0  0  0  0  0  0
    4.8195   -4.1919   -0.8510 N   0  0  0  0  0  0  0  0  0  0  0  0
    4.8425   -4.1192    0.4592 C   0  0  0  0  0  0  0  0  0  0  0  0
    3.6227   -3.7600    0.9698 N   0  0  0  0  0  0  0  0  0  0  0  0
    3.1264   -3.9500   -2.5958 N   0  3  0  0  0  0  0  0  0  0  0  0
    1.9337   -3.7312   -2.8662 O   0  0  0  0  0  0  0  0  0  0  0  0
    4.0017   -4.2055   -3.4321 O   0  5  0  0  0  0  0  0  0  0  0  0
    3.3388   -3.6573    2.3826 C   0  0  0  0  0  0  0  0  0  0  0  0
    1.0518    1.2805    1.7390 H   0  0  0  0  0  0  0  0  0  0  0  0
    0.3280   -0.2957   -4.4227 H   0  0  0  0  0  0  0  0  0  0  0  0
    0.7053   -2.2789   -2.8684 H   0  0  0  0  0  0  0  0  0  0  0  0
    5.7028   -4.3335    1.0820 H   0  0  0  0  0  0  0  0  0  0  0  0
    3.0380   -2.6318    2.6072 H   0  0  0  0  0  0  0  0  0  0  0  0
    2.5466   -4.3671    2.6329 H   0  0  0  0  0  0  0  0  0  0  0  0
    4.2383   -3.9083    2.9525 H   0  0  0  0  0  0  0  0  0  0  0  0
  1  2  2  0  0  0  0
  2  3  1  0  0  0  0
  2 20  1  0  0  0  0
  3  4  2  0  0  0  0
  4  5  1  0  0  0  0
  4  7  1  0  0  0  0
  5  6  2  0  0  0  0
  6  1  1  0  0  0  0
  6 10  1  0  0  0  0
  7  8  2  0  0  0  0
  8  9  1  0  0  0  0
  8 21  1  0  0  0  0
  9  5  1  0  0  0  0
  9 22  1  0  0  0  0
 10 11  1  0  0  0  0
 11 12  2  0  0  0  0
 12 13  1  0  0  0  0
 12 16  1  0  0  0  0
 13 14  2  0  0  0  0
 14 15  1  0  0  0  0
 14 23  1  0  0  0  0
 15 11  1  0  0  0  0
 15 19  1  0  0  0  0
 16 17  2  0  0  0  0
 16 18  1  0  0  0  0
 19 24  1  0  0  0  0
 19 25  1  0  0  0  0
 19 26  1  0  0  0  0
M  CHG  2  16   1  18  -1
M  END
>  <Mol_ID>
412

>  <Formula>
C9H7N7O2S

>  <MolWeight>
277.26258

>  <Cat>
S1721

>  <Name>
Azathioprine

>  <Synonyms>
BW 57-322

>  <Target>
Rho

>  <Form>
free base

>  <CAS>
446-86-6

>  <URL>
http://selleckchem.com/products/Azathioprine(Azasan).html

$$$$
