Inavolisib (GDC-0077)
 OpenBabel08302521313D

 48 51  0  0  0  0  0  0  0  0999 V2000
   -2.4972    0.0610   -0.6024 C   0  0  0  0  0  0  0  0  0  0  0  0
   -1.2630    0.1386   -1.5314 C   0  0  2  0  0  0  0  0  0  0  0  0
   -0.3249   -1.0430   -1.3169 C   0  0  0  0  0  0  0  0  0  0  0  0
   -2.7842   -0.8911    0.1137 O   0  0  0  0  0  0  0  0  0  0  0  0
   -3.2964    1.1745   -0.6315 N   0  0  0  0  0  0  0  0  0  0  0  0
   -0.5330    1.3889   -1.2532 N   0  0  0  0  0  0  0  0  0  0  0  0
    0.4321    5.8872   -2.0428 O   0  0  0  0  0  0  0  0  0  0  0  0
    1.0929    6.9968   -2.6506 C   0  0  0  0  0  0  0  0  0  0  0  0
    2.2162    6.6419   -3.6081 C   0  0  0  0  0  0  0  0  0  0  0  0
    1.6459    6.3346   -4.9015 N   0  0  0  0  0  0  0  0  0  0  0  0
    0.6602    5.4049   -5.1011 C   0  0  0  0  0  0  0  0  0  0  0  0
    0.2606    4.4423   -4.0780 C   0  0  0  0  0  0  0  0  0  0  0  0
    0.1958    4.7181   -2.7061 C   0  0  0  0  0  0  0  0  0  0  0  0
    0.0272    3.1209   -4.5017 C   0  0  0  0  0  0  0  0  0  0  0  0
   -0.2366    2.0956   -3.5870 C   0  0  0  0  0  0  0  0  0  0  0  0
   -0.3475    2.3643   -2.2242 C   0  0  0  0  0  0  0  0  0  0  0  0
   -0.1215    3.6816   -1.8116 C   0  0  0  0  0  0  0  0  0  0  0  0
    0.2424    5.4707   -6.3516 N   0  0  0  0  0  0  0  0  0  0  0  0
    0.9852    6.4407   -6.9670 C   0  0  0  0  0  0  0  0  0  0  0  0
    1.9108    6.9506   -6.0851 C   0  0  0  0  0  0  0  0  0  0  0  0
   -0.0326    6.8545  -10.3587 O   0  0  0  0  0  0  0  0  0  0  0  0
   -0.2149    6.3682   -9.0848 C   0  0  0  0  0  0  0  0  0  0  0  0
    0.8318    6.8054   -8.2881 N   0  0  0  0  0  0  0  0  0  0  0  0
    1.6908    7.6874   -9.0290 C   0  0  1  0  0  0  0  0  0  0  0  0
    1.2836    7.3989  -10.4579 C   0  0  0  0  0  0  0  0  0  0  0  0
   -1.1905    5.7031   -8.7991 O   0  0  0  0  0  0  0  0  0  0  0  0
    1.5142    9.1754   -8.7441 C   0  0  0  0  0  0  0  0  0  0  0  0
    1.8691    9.4737   -7.4692 F   0  0  0  0  0  0  0  0  0  0  0  0
    2.3816    9.8722   -9.5315 F   0  0  0  0  0  0  0  0  0  0  0  0
   -1.6535    0.1064   -2.5545 H   0  0  0  0  0  0  0  0  0  0  0  0
   -0.2171   -1.2920   -0.2554 H   0  0  0  0  0  0  0  0  0  0  0  0
   -0.7166   -1.9316   -1.8234 H   0  0  0  0  0  0  0  0  0  0  0  0
    0.6756   -0.8420   -1.7158 H   0  0  0  0  0  0  0  0  0  0  0  0
   -3.1085    1.9429   -1.2641 H   0  0  0  0  0  0  0  0  0  0  0  0
   -4.1357    1.1829   -0.0682 H   0  0  0  0  0  0  0  0  0  0  0  0
   -0.7297    1.7562   -0.3240 H   0  0  0  0  0  0  0  0  0  0  0  0
    0.3435    7.6570   -3.1033 H   0  0  0  0  0  0  0  0  0  0  0  0
    1.5320    7.5521   -1.8145 H   0  0  0  0  0  0  0  0  0  0  0  0
    2.8912    7.4950   -3.7397 H   0  0  0  0  0  0  0  0  0  0  0  0
    2.7959    5.7716   -3.2844 H   0  0  0  0  0  0  0  0  0  0  0  0
    0.1069    2.8759   -5.5610 H   0  0  0  0  0  0  0  0  0  0  0  0
   -0.3167    1.0830   -3.9713 H   0  0  0  0  0  0  0  0  0  0  0  0
   -0.1633    3.9210   -0.7490 H   0  0  0  0  0  0  0  0  0  0  0  0
    2.6772    7.7071   -6.1786 H   0  0  0  0  0  0  0  0  0  0  0  0
    2.7398    7.4074   -8.8746 H   0  0  0  0  0  0  0  0  0  0  0  0
    1.2630    8.2826  -11.1020 H   0  0  0  0  0  0  0  0  0  0  0  0
    1.9273    6.6456  -10.9248 H   0  0  0  0  0  0  0  0  0  0  0  0
    0.5014    9.5459   -8.9243 H   0  0  0  0  0  0  0  0  0  0  0  0
  1  4  2  0  0  0  0
  1  5  1  0  0  0  0
  2  6  1  0  0  0  0
  2 30  1  6  0  0  0
  2  3  1  0  0  0  0
  2  1  1  0  0  0  0
  3 31  1  0  0  0  0
  3 32  1  0  0  0  0
  3 33  1  0  0  0  0
  5 34  1  0  0  0  0
  5 35  1  0  0  0  0
  6 16  1  0  0  0  0
  6 36  1  0  0  0  0
  7  8  1  0  0  0  0
  7 13  1  0  0  0  0
  8  9  1  0  0  0  0
  8 37  1  0  0  0  0
  8 38  1  0  0  0  0
  9 10  1  0  0  0  0
  9 39  1  0  0  0  0
  9 40  1  0  0  0  0
 10 11  1  0  0  0  0
 10 20  1  0  0  0  0
 11 12  1  0  0  0  0
 11 18  2  0  0  0  0
 12 13  2  0  0  0  0
 12 14  1  0  0  0  0
 13 17  1  0  0  0  0
 14 15  2  0  0  0  0
 14 41  1  0  0  0  0
 15 16  1  0  0  0  0
 15 42  1  0  0  0  0
 16 17  2  0  0  0  0
 17 43  1  0  0  0  0
 18 19  1  0  0  0  0
 19 20  2  0  0  0  0
 19 23  1  0  0  0  0
 20 44  1  0  0  0  0
 21 22  1  0  0  0  0
 21 25  1  0  0  0  0
 22 23  1  0  0  0  0
 22 26  2  0  0  0  0
 23 24  1  0  0  0  0
 24 25  1  0  0  0  0
 24 27  1  0  0  0  0
 24 45  1  1  0  0  0
 25 46  1  0  0  0  0
 25 47  1  0  0  0  0
 27 28  1  0  0  0  0
 27 29  1  0  0  0  0
 27 48  1  0  0  0  0
M  END
>  <Mol_ID>
5922

>  <Formula>
C18H19F2N5O4

>  <MolWeight>
407.3713664

>  <Cat>
S8668

>  <Name>
Inavolisib (GDC-0077)

>  <Synonyms>
RG6114, RO-7113755

>  <Target>
PI3K

>  <Form>
Free Base

>  <CAS>
2060571-02-8

>  <URL>
http://www.selleckchem.com/products/gdc-0077.html

$$$$
