INCB054329
 OpenBabel08302521223D

 42 46  0  0  0  0  0  0  0  0999 V2000
   -5.4336   -1.1988    0.0958 C   0  0  0  0  0  0  0  0  0  0  0  0
   -4.8461   -1.8913    1.1352 C   0  0  0  0  0  0  0  0  0  0  0  0
   -3.5756   -2.3390    1.1076 N   0  0  0  0  0  0  0  0  0  0  0  0
   -2.8349   -2.1137   -0.0085 C   0  0  0  0  0  0  0  0  0  0  0  0
   -3.3591   -1.4204   -1.0978 C   0  0  0  0  0  0  0  0  0  0  0  0
   -4.6727   -0.9619   -1.0416 C   0  0  0  0  0  0  0  0  0  0  0  0
   -1.3894   -2.6095   -0.0222 C   0  0  1  0  0  0  0  0  0  0  0  0
   -1.0149   -3.3087    1.3144 C   0  0  0  0  0  0  0  0  0  0  0  0
   -1.6277   -4.6192    1.5000 O   0  0  0  0  0  0  0  0  0  0  0  0
   -1.4835   -5.4489    0.4207 C   0  0  0  0  0  0  0  0  0  0  0  0
   -1.2545   -4.9030   -0.8200 C   0  0  0  0  0  0  0  0  0  0  0  0
   -1.1365   -3.5507   -1.1001 N   0  0  0  0  0  0  0  0  0  0  0  0
   -1.5925   -6.8424    0.4765 C   0  0  0  0  0  0  0  0  0  0  0  0
   -1.4373   -7.5784   -0.7446 C   0  0  0  0  0  0  0  0  0  0  0  0
   -1.2410   -6.9734   -1.9960 C   0  0  0  0  0  0  0  0  0  0  0  0
   -1.1332   -5.6132   -1.9975 C   0  0  0  0  0  0  0  0  0  0  0  0
   -1.8476   -7.5546    1.7290 C   0  0  0  0  0  0  0  0  0  0  0  0
   -2.5949   -8.7171    1.8458 C   0  0  0  0  0  0  0  0  0  0  0  0
   -2.6285   -9.1015    3.1501 O   0  0  0  0  0  0  0  0  0  0  0  0
   -1.9120   -8.2195    3.9189 N   0  0  0  0  0  0  0  0  0  0  0  0
   -1.4415   -7.2899    3.0779 C   0  0  0  0  0  0  0  0  0  0  0  0
   -0.9210   -4.6965   -3.0212 N   0  0  0  0  0  0  0  0  0  0  0  0
   -0.9333   -3.3964   -2.4685 C   0  0  0  0  0  0  0  0  0  0  0  0
   -3.3464   -9.6177    0.9423 C   0  0  0  0  0  0  0  0  0  0  0  0
   -0.5987   -6.2106    3.6509 C   0  0  0  0  0  0  0  0  0  0  0  0
   -0.8069   -2.3555   -3.0963 O   0  0  0  0  0  0  0  0  0  0  0  0
   -6.4561   -0.8494    0.1720 H   0  0  0  0  0  0  0  0  0  0  0  0
   -5.3934   -2.1094    2.0486 H   0  0  0  0  0  0  0  0  0  0  0  0
   -2.7614   -1.2295   -1.9834 H   0  0  0  0  0  0  0  0  0  0  0  0
   -5.0964   -0.4193   -1.8821 H   0  0  0  0  0  0  0  0  0  0  0  0
   -0.7453   -1.7356   -0.1701 H   0  0  0  0  0  0  0  0  0  0  0  0
   -1.2883   -2.6949    2.1817 H   0  0  0  0  0  0  0  0  0  0  0  0
    0.0749   -3.4493    1.3730 H   0  0  0  0  0  0  0  0  0  0  0  0
   -1.4594   -8.6668   -0.7317 H   0  0  0  0  0  0  0  0  0  0  0  0
   -1.1866   -7.5636   -2.9057 H   0  0  0  0  0  0  0  0  0  0  0  0
   -0.8207   -4.8915   -4.0010 H   0  0  0  0  0  0  0  0  0  0  0  0
   -2.9688  -10.6412    1.0378 H   0  0  0  0  0  0  0  0  0  0  0  0
   -4.4105   -9.6134    1.1933 H   0  0  0  0  0  0  0  0  0  0  0  0
   -3.2786   -9.3440   -0.1094 H   0  0  0  0  0  0  0  0  0  0  0  0
   -1.2081   -5.5371    4.2649 H   0  0  0  0  0  0  0  0  0  0  0  0
    0.1911   -6.6293    4.2813 H   0  0  0  0  0  0  0  0  0  0  0  0
   -0.0857   -5.6218    2.8910 H   0  0  0  0  0  0  0  0  0  0  0  0
  1  2  2  0  0  0  0
  1 27  1  0  0  0  0
  2  3  1  0  0  0  0
  2 28  1  0  0  0  0
  3  4  2  0  0  0  0
  4  5  1  0  0  0  0
  5  6  2  0  0  0  0
  5 29  1  0  0  0  0
  6  1  1  0  0  0  0
  6 30  1  0  0  0  0
  7  8  1  0  0  0  0
  7 31  1  6  0  0  0
  7  4  1  0  0  0  0
  8  9  1  0  0  0  0
  8 32  1  0  0  0  0
  8 33  1  0  0  0  0
  9 10  1  0  0  0  0
 10 11  2  0  0  0  0
 10 13  1  0  0  0  0
 11 12  1  0  0  0  0
 12  7  1  0  0  0  0
 13 14  2  0  0  0  0
 13 17  1  0  0  0  0
 14 15  1  0  0  0  0
 14 34  1  0  0  0  0
 15 16  2  0  0  0  0
 15 35  1  0  0  0  0
 16 11  1  0  0  0  0
 17 18  2  0  0  0  0
 18 19  1  0  0  0  0
 18 24  1  0  0  0  0
 19 20  1  0  0  0  0
 20 21  2  0  0  0  0
 21 17  1  0  0  0  0
 21 25  1  0  0  0  0
 22 23  1  0  0  0  0
 22 16  1  0  0  0  0
 22 36  1  0  0  0  0
 23 12  1  0  0  0  0
 23 26  2  0  0  0  0
 24 37  1  0  0  0  0
 24 38  1  0  0  0  0
 24 39  1  0  0  0  0
 25 40  1  0  0  0  0
 25 41  1  0  0  0  0
 25 42  1  0  0  0  0
M  END
>  <Mol_ID>
4686

>  <Formula>
C19H16N4O3

>  <MolWeight>
348.35534

>  <Cat>
S8753

>  <Name>
INCB054329

>  <Synonyms>
INCB-054329, INCB-54329

>  <Target>
Epigenetic Reader Domain

>  <Form>
Free Base

>  <CAS>
1628607-64-6

>  <URL>
http://www.selleck.cn/products/incb054329.html

$$$$
