INCB057643
 OpenBabel08302521043D

 50 53  0  0  0  0  0  0  0  0999 V2000
    2.7916   -1.0073   -1.6185 N   0  0  0  0  0  0  0  0  0  0  0  0
    2.7880    0.3428   -1.3026 C   0  0  0  0  0  0  0  0  0  0  0  0
    1.6654    1.0783   -1.1640 C   0  0  0  0  0  0  0  0  0  0  0  0
    0.3873    0.4102   -1.5350 C   0  0  0  0  0  0  0  0  0  0  0  0
    0.4183   -0.9780   -1.7069 C   0  0  0  0  0  0  0  0  0  0  0  0
    1.6181   -1.7696   -1.7352 C   0  0  0  0  0  0  0  0  0  0  0  0
   -1.0079    0.7412   -1.6520 C   0  0  0  0  0  0  0  0  0  0  0  0
   -1.7499   -0.4387   -1.5702 C   0  0  0  0  0  0  0  0  0  0  0  0
   -0.8629   -1.4812   -1.6363 N   0  0  0  0  0  0  0  0  0  0  0  0
    4.0226   -1.7333   -1.4075 C   0  0  0  0  0  0  0  0  0  0  0  0
    1.6155   -2.9876   -1.8183 O   0  0  0  0  0  0  0  0  0  0  0  0
    2.0268    2.2815   -0.1935 C   0  0  0  0  0  0  0  0  0  0  0  0
    2.1551    3.4121   -0.9618 C   0  0  0  0  0  0  0  0  0  0  0  0
    1.0081    4.1856   -1.0414 C   0  0  0  0  0  0  0  0  0  0  0  0
   -0.1731    3.7414   -0.3445 C   0  0  0  0  0  0  0  0  0  0  0  0
   -0.0343    2.6449    0.5568 C   0  0  0  0  0  0  0  0  0  0  0  0
    1.2342    2.4213    0.9285 C   0  0  0  0  0  0  0  0  0  0  0  0
    1.2199    5.6601   -2.0141 S   0  0  0  0  0  0  0  0  0  0  0  0
   -0.9211    1.7126    1.2143 N   0  0  0  0  0  0  0  0  0  0  0  0
   -0.8984    1.9598    2.5806 C   0  0  0  0  0  0  0  0  0  0  0  0
    0.6036    2.0443    3.1643 C   0  0  0  0  0  0  0  0  0  0  0  0
    1.4705    2.8382    2.2547 O   0  0  0  0  0  0  0  0  0  0  0  0
   -0.4400    0.2778    1.2536 C   0  0  0  0  0  0  0  0  0  0  0  0
   -1.9419    1.8918    3.2245 O   0  0  0  0  0  0  0  0  0  0  0  0
    1.5320    0.8141    3.4094 C   0  0  0  0  0  0  0  0  0  0  0  0
    0.2184    2.4352    4.6141 C   0  0  0  0  0  0  0  0  0  0  0  0
    0.1579    6.5783   -1.6363 O   0  0  0  0  0  0  0  0  0  0  0  0
    2.6016    6.0670   -1.8728 O   0  0  0  0  0  0  0  0  0  0  0  0
    0.9914    5.2190   -3.7143 C   0  0  0  0  0  0  0  0  0  0  0  0
    3.7549    0.7514   -1.0476 H   0  0  0  0  0  0  0  0  0  0  0  0
   -1.4894    1.7064   -1.5427 H   0  0  0  0  0  0  0  0  0  0  0  0
   -2.7948   -0.6151   -1.3194 H   0  0  0  0  0  0  0  0  0  0  0  0
   -1.0839   -2.4626   -1.4684 H   0  0  0  0  0  0  0  0  0  0  0  0
    3.9634   -2.1669   -0.4044 H   0  0  0  0  0  0  0  0  0  0  0  0
    4.1253   -2.5280   -2.1493 H   0  0  0  0  0  0  0  0  0  0  0  0
    4.8764   -1.0537   -1.4651 H   0  0  0  0  0  0  0  0  0  0  0  0
    2.9824    3.5333   -1.6583 H   0  0  0  0  0  0  0  0  0  0  0  0
   -1.1258    4.2216   -0.5414 H   0  0  0  0  0  0  0  0  0  0  0  0
    0.6371    0.1487    1.0739 H   0  0  0  0  0  0  0  0  0  0  0  0
   -0.6025   -0.1855    2.2353 H   0  0  0  0  0  0  0  0  0  0  0  0
   -1.0041   -0.3798    0.6247 H   0  0  0  0  0  0  0  0  0  0  0  0
    2.1529    0.9923    4.3004 H   0  0  0  0  0  0  0  0  0  0  0  0
    1.0175   -0.1332    3.5649 H   0  0  0  0  0  0  0  0  0  0  0  0
    2.2822    0.6846    2.6171 H   0  0  0  0  0  0  0  0  0  0  0  0
    1.0449    2.6898    5.2711 H   0  0  0  0  0  0  0  0  0  0  0  0
   -0.5436    3.2202    4.6741 H   0  0  0  0  0  0  0  0  0  0  0  0
   -0.2725    1.5397    5.0579 H   0  0  0  0  0  0  0  0  0  0  0  0
    1.6775    4.4145   -3.9867 H   0  0  0  0  0  0  0  0  0  0  0  0
   -0.0461    4.9315   -3.8692 H   0  0  0  0  0  0  0  0  0  0  0  0
    1.2216    6.0985   -4.3275 H   0  0  0  0  0  0  0  0  0  0  0  0
  1  2  1  0  0  0  0
  1 10  1  0  0  0  0
  2  3  2  0  0  0  0
  2 30  1  0  0  0  0
  3  4  1  0  0  0  0
  3 12  1  0  0  0  0
  4  5  2  0  0  0  0
  4  7  1  0  0  0  0
  5  6  1  0  0  0  0
  6  1  1  0  0  0  0
  6 11  2  0  0  0  0
  7  8  2  0  0  0  0
  7 31  1  0  0  0  0
  8  9  1  0  0  0  0
  8 32  1  0  0  0  0
  9  5  1  0  0  0  0
  9 33  1  0  0  0  0
 10 34  1  0  0  0  0
 10 35  1  0  0  0  0
 10 36  1  0  0  0  0
 12 13  2  0  0  0  0
 13 14  1  0  0  0  0
 13 37  1  0  0  0  0
 14 15  2  0  0  0  0
 14 18  1  0  0  0  0
 15 16  1  0  0  0  0
 15 38  1  0  0  0  0
 16 17  2  0  0  0  0
 16 19  1  0  0  0  0
 17 12  1  0  0  0  0
 18 27  2  0  0  0  0
 18 28  2  0  0  0  0
 18 29  1  0  0  0  0
 19 20  1  0  0  0  0
 19 23  1  0  0  0  0
 20 21  1  0  0  0  0
 20 24  2  0  0  0  0
 21 22  1  0  0  0  0
 21 25  1  0  0  0  0
 21 26  1  0  0  0  0
 22 17  1  0  0  0  0
 23 39  1  0  0  0  0
 23 40  1  0  0  0  0
 23 41  1  0  0  0  0
 25 42  1  0  0  0  0
 25 43  1  0  0  0  0
 25 44  1  0  0  0  0
 26 45  1  0  0  0  0
 26 46  1  0  0  0  0
 26 47  1  0  0  0  0
 29 48  1  0  0  0  0
 29 49  1  0  0  0  0
 29 50  1  0  0  0  0
M  END
>  <Mol_ID>
4303

>  <Formula>
C20H21N3O5S

>  <MolWeight>
415.46284

>  <Cat>
S8714

>  <Name>
INCB057643

>  <Synonyms>
N/A

>  <Target>
Epigenetic Reader Domain

>  <Form>
Free Base

>  <CAS>
1820889-23-3

>  <URL>
http://www.selleckchem.com/products/incb057643.html

$$$$
