INCB28060.cdx
 OpenBabel08302521393D

 48 52  0  0  0  0  0  0  0  0999 V2000
    1.1183   -0.5726    0.3464 C   0  0  0  0  0  0  0  0  0  0  0  0
    0.3972   -1.3032   -0.7190 C   0  0  0  0  0  0  0  0  0  0  0  0
   -0.8033   -1.9779   -0.4985 C   0  0  0  0  0  0  0  0  0  0  0  0
   -1.4313   -2.6945   -1.5238 C   0  0  0  0  0  0  0  0  0  0  0  0
   -0.8554   -2.7400   -2.8089 C   0  0  0  0  0  0  0  0  0  0  0  0
    0.3358   -2.0484   -3.0439 C   0  0  0  0  0  0  0  0  0  0  0  0
    0.9485   -1.3275   -2.0129 C   0  0  0  0  0  0  0  0  0  0  0  0
    2.1538    0.0440    0.0490 O   0  0  0  0  0  0  0  0  0  0  0  0
    0.6403   -0.6220    1.6274 N   0  0  0  0  0  0  0  0  0  0  0  0
   -2.1915   -4.5769   -3.5911 N   0  0  0  0  0  0  0  0  0  0  0  0
   -2.7709   -5.1620   -4.6702 N   0  0  0  0  0  0  0  0  0  0  0  0
   -2.7279   -4.7190   -5.9808 C   0  0  0  0  0  0  0  0  0  0  0  0
   -1.9981   -3.6357   -6.3192 N   0  0  0  0  0  0  0  0  0  0  0  0
   -1.3989   -3.0542   -5.3215 C   0  0  0  0  0  0  0  0  0  0  0  0
   -1.5092   -3.5245   -3.8864 C   0  0  0  0  0  0  0  0  0  0  0  0
   -3.4469   -5.5108   -6.7528 N   0  0  0  0  0  0  0  0  0  0  0  0
   -3.9338   -6.4944   -5.9396 C   0  0  0  0  0  0  0  0  0  0  0  0
   -3.4889   -6.3013   -4.6511 C   0  0  0  0  0  0  0  0  0  0  0  0
   -3.6086   -7.2170   -3.4796 C   0  0  0  0  0  0  0  0  0  0  0  0
   -5.9592   -6.8188    1.5198 N   0  0  0  0  0  0  0  0  0  0  0  0
   -6.1223   -5.6395    2.1419 C   0  0  0  0  0  0  0  0  0  0  0  0
   -5.8066   -4.4152    1.5710 C   0  0  0  0  0  0  0  0  0  0  0  0
   -5.3567   -4.3956    0.2531 C   0  0  0  0  0  0  0  0  0  0  0  0
   -5.2568   -5.5932   -0.4610 C   0  0  0  0  0  0  0  0  0  0  0  0
   -4.7493   -5.6665   -1.7811 C   0  0  0  0  0  0  0  0  0  0  0  0
   -4.6593   -6.8982   -2.4351 C   0  0  0  0  0  0  0  0  0  0  0  0
   -5.1921   -8.0060   -1.7830 C   0  0  0  0  0  0  0  0  0  0  0  0
   -5.3775   -7.9753   -0.4055 C   0  0  0  0  0  0  0  0  0  0  0  0
   -5.5507   -6.7792    0.2450 C   0  0  0  0  0  0  0  0  0  0  0  0
    1.3502   -0.0646    2.7604 C   0  0  0  0  0  0  0  0  0  0  0  0
   -1.3977   -1.9769    0.7058 F   0  0  0  0  0  0  0  0  0  0  0  0
   -2.3517   -3.2372   -1.3070 H   0  0  0  0  0  0  0  0  0  0  0  0
    0.8415   -2.0825   -4.0056 H   0  0  0  0  0  0  0  0  0  0  0  0
    1.8952   -0.8169   -2.2037 H   0  0  0  0  0  0  0  0  0  0  0  0
   -0.2044   -1.1435    1.8085 H   0  0  0  0  0  0  0  0  0  0  0  0
   -0.7983   -2.1520   -5.5041 H   0  0  0  0  0  0  0  0  0  0  0  0
   -4.5226   -7.3108   -6.3450 H   0  0  0  0  0  0  0  0  0  0  0  0
   -3.7700   -8.2472   -3.8411 H   0  0  0  0  0  0  0  0  0  0  0  0
   -2.6431   -7.2543   -2.9519 H   0  0  0  0  0  0  0  0  0  0  0  0
   -6.5197   -5.7087    3.1494 H   0  0  0  0  0  0  0  0  0  0  0  0
   -5.9196   -3.5025    2.1382 H   0  0  0  0  0  0  0  0  0  0  0  0
   -5.0770   -3.4477   -0.1991 H   0  0  0  0  0  0  0  0  0  0  0  0
   -4.3789   -4.7673   -2.2606 H   0  0  0  0  0  0  0  0  0  0  0  0
   -5.9662   -8.5479   -2.3502 H   0  0  0  0  0  0  0  0  0  0  0  0
   -4.9837   -8.8099    0.1887 H   0  0  0  0  0  0  0  0  0  0  0  0
    0.6544    0.5703    3.3206 H   0  0  0  0  0  0  0  0  0  0  0  0
    1.6855   -0.9020    3.3833 H   0  0  0  0  0  0  0  0  0  0  0  0
    2.2123    0.5280    2.4352 H   0  0  0  0  0  0  0  0  0  0  0  0
  1  2  1  0  0  0  0
  1  8  2  0  0  0  0
  1  9  1  0  0  0  0
  2  3  2  0  0  0  0
  2  7  1  0  0  0  0
  3  4  1  0  0  0  0
  3 31  1  0  0  0  0
  4  5  2  0  0  0  0
  4 32  1  0  0  0  0
  5  6  1  0  0  0  0
  5 15  1  0  0  0  0
  6  7  2  0  0  0  0
  6 33  1  0  0  0  0
  7 34  1  0  0  0  0
  9 30  1  0  0  0  0
  9 35  1  0  0  0  0
 10 11  1  0  0  0  0
 10 15  2  0  0  0  0
 11 12  1  0  0  0  0
 11 18  1  0  0  0  0
 12 13  1  0  0  0  0
 12 16  2  0  0  0  0
 13 14  2  0  0  0  0
 14 15  1  0  0  0  0
 14 36  1  0  0  0  0
 16 17  1  0  0  0  0
 17 18  2  0  0  0  0
 17 37  1  0  0  0  0
 18 19  1  0  0  0  0
 19 26  1  0  0  0  0
 19 38  1  0  0  0  0
 19 39  1  0  0  0  0
 20 21  2  0  0  0  0
 20 29  1  0  0  0  0
 21 22  1  0  0  0  0
 21 40  1  0  0  0  0
 22 23  2  0  0  0  0
 22 41  1  0  0  0  0
 23 24  1  0  0  0  0
 23 42  1  0  0  0  0
 24 25  1  0  0  0  0
 24 29  2  0  0  0  0
 25 26  2  0  0  0  0
 25 43  1  0  0  0  0
 26 27  1  0  0  0  0
 27 28  2  0  0  0  0
 27 44  1  0  0  0  0
 28 29  1  0  0  0  0
 28 45  1  0  0  0  0
 30 46  1  0  0  0  0
 30 47  1  0  0  0  0
 30 48  1  0  0  0  0
M  END
>  <Mol_ID>
8186

>  <Formula>
C23H17FN6O

>  <MolWeight>
412.4190832

>  <Cat>
S2788

>  <Name>
Capmatinib (INCB28060)

>  <Synonyms>
INC280, NVP-INC280

>  <Target>
Apoptosis related,c-Met,Wnt/beta-catenin

>  <Form>
Free Base

>  <CAS>
1029712-80-8

>  <URL>
http://selleckchem.com/products/incb28060.html

$$$$
