Indisulam
 OpenBabel08302521303D

 36 38  0  0  0  0  0  0  0  0999 V2000
    0.8093    0.3861    0.4411 C   0  0  0  0  0  0  0  0  0  0  0  0
    1.5151   -0.6401    1.0663 C   0  0  0  0  0  0  0  0  0  0  0  0
    2.6472   -0.3554    1.8337 C   0  0  0  0  0  0  0  0  0  0  0  0
    3.0277    0.9857    2.0302 C   0  0  0  0  0  0  0  0  0  0  0  0
    2.2686    2.0042    1.4408 C   0  0  0  0  0  0  0  0  0  0  0  0
    1.1860    1.7264    0.5925 C   0  0  0  0  0  0  0  0  0  0  0  0
    4.1093    1.6036    2.7150 C   0  0  0  0  0  0  0  0  0  0  0  0
    3.9388    2.9648    2.6168 C   0  0  0  0  0  0  0  0  0  0  0  0
    2.8182    3.1990    1.8633 N   0  0  0  0  0  0  0  0  0  0  0  0
    0.5889    2.6862   -0.2719 N   0  0  0  0  0  0  0  0  0  0  0  0
   -0.6123    3.7390    0.2410 S   0  0  0  0  0  0  0  0  0  0  0  0
   -0.1171    4.4457    1.4024 O   0  0  0  0  0  0  0  0  0  0  0  0
   -1.0427    4.4646   -0.9374 O   0  0  0  0  0  0  0  0  0  0  0  0
   -1.9404    2.6623    0.7289 C   0  0  0  0  0  0  0  0  0  0  0  0
   -2.0785    2.3344    2.0832 C   0  0  0  0  0  0  0  0  0  0  0  0
   -2.9975    1.3578    2.4695 C   0  0  0  0  0  0  0  0  0  0  0  0
   -3.7845    0.7359    1.4973 C   0  0  0  0  0  0  0  0  0  0  0  0
   -3.7372    1.1547    0.1602 C   0  0  0  0  0  0  0  0  0  0  0  0
   -2.8090    2.1253   -0.2280 C   0  0  0  0  0  0  0  0  0  0  0  0
   -4.7423   -0.6971    1.9251 S   0  0  0  0  0  0  0  0  0  0  0  0
   -5.5982   -1.0358    0.8175 O   0  0  0  0  0  0  0  0  0  0  0  0
   -3.8642   -1.6614    2.5504 O   0  0  0  0  0  0  0  0  0  0  0  0
   -5.7750   -0.1462    3.1265 N   0  0  0  0  0  0  0  0  0  0  0  0
   -0.0262    0.1285   -0.2046 H   0  0  0  0  0  0  0  0  0  0  0  0
    1.2090   -1.6743    0.9250 H   0  0  0  0  0  0  0  0  0  0  0  0
    3.2273   -1.1626    2.2735 H   0  0  0  0  0  0  0  0  0  0  0  0
    4.9162    1.0994    3.2339 H   0  0  0  0  0  0  0  0  0  0  0  0
    4.5142    3.7833    3.0283 H   0  0  0  0  0  0  0  0  0  0  0  0
    2.4050    4.1047    1.6883 H   0  0  0  0  0  0  0  0  0  0  0  0
    1.2110    3.1128   -0.9577 H   0  0  0  0  0  0  0  0  0  0  0  0
   -1.4395    2.7995    2.8312 H   0  0  0  0  0  0  0  0  0  0  0  0
   -3.0603    1.0572    3.5126 H   0  0  0  0  0  0  0  0  0  0  0  0
   -4.3832    0.6963   -0.5870 H   0  0  0  0  0  0  0  0  0  0  0  0
   -2.7447    2.4209   -1.2735 H   0  0  0  0  0  0  0  0  0  0  0  0
   -6.7179   -0.0524    2.7463 H   0  0  0  0  0  0  0  0  0  0  0  0
   -5.7329   -0.7994    3.9116 H   0  0  0  0  0  0  0  0  0  0  0  0
  1  2  2  0  0  0  0
  1 24  1  0  0  0  0
  2  3  1  0  0  0  0
  2 25  1  0  0  0  0
  3  4  2  0  0  0  0
  3 26  1  0  0  0  0
  4  5  1  0  0  0  0
  4  7  1  0  0  0  0
  5  6  2  0  0  0  0
  6  1  1  0  0  0  0
  6 10  1  0  0  0  0
  7  8  2  0  0  0  0
  7 27  1  0  0  0  0
  8  9  1  0  0  0  0
  8 28  1  0  0  0  0
  9  5  1  0  0  0  0
  9 29  1  0  0  0  0
 10 11  1  0  0  0  0
 10 30  1  0  0  0  0
 11 12  2  0  0  0  0
 11 13  2  0  0  0  0
 11 14  1  0  0  0  0
 14 15  2  0  0  0  0
 15 16  1  0  0  0  0
 15 31  1  0  0  0  0
 16 17  2  0  0  0  0
 16 32  1  0  0  0  0
 17 18  1  0  0  0  0
 17 20  1  0  0  0  0
 18 19  2  0  0  0  0
 18 33  1  0  0  0  0
 19 14  1  0  0  0  0
 19 34  1  0  0  0  0
 20 21  2  0  0  0  0
 20 22  2  0  0  0  0
 20 23  1  0  0  0  0
 23 35  1  0  0  0  0
 23 36  1  0  0  0  0
M  END
>  <Mol_ID>
5738

>  <Formula>
C14H12ClN3O4S2

>  <MolWeight>
385.84578

>  <Cat>
S9742

>  <Name>
Indisulam

>  <Synonyms>
E7070

>  <Target>
Carbonic Anhydrase,CDK

>  <Form>
Free Base

>  <CAS>
165668-41-7

>  <URL>
http://www.selleckchem.com/products/indisulam.html

$$$$
