Indirubin-3'-monoxime
 OpenBabel08302521203D

 32 35  0  0  0  0  0  0  0  0999 V2000
   -1.5413   -1.1914   -0.0218 N   0  0  0  0  0  0  0  0  0  0  0  0
   -2.6129   -0.3115   -0.0193 C   0  0  0  0  0  0  0  0  0  0  0  0
   -1.9928    1.0732    0.0102 C   0  0  0  0  0  0  0  0  0  0  0  0
   -0.5198    0.8570    0.0073 C   0  0  0  0  0  0  0  0  0  0  0  0
    0.5995    1.6785    0.0174 C   0  0  0  0  0  0  0  0  0  0  0  0
    1.8769    1.0978    0.0028 C   0  0  0  0  0  0  0  0  0  0  0  0
    2.0369   -0.2935   -0.0118 C   0  0  0  0  0  0  0  0  0  0  0  0
    0.9209   -1.1271   -0.0150 C   0  0  0  0  0  0  0  0  0  0  0  0
   -0.3269   -0.5278   -0.0100 C   0  0  0  0  0  0  0  0  0  0  0  0
   -3.7721   -0.6707   -0.0353 O   0  0  0  0  0  0  0  0  0  0  0  0
   -2.0430    3.5200    0.1081 N   0  0  0  0  0  0  0  0  0  0  0  0
   -2.6334    2.2616    0.0546 C   0  0  0  0  0  0  0  0  0  0  0  0
   -4.1615    2.5185    0.0392 C   0  0  0  0  0  0  0  0  0  0  0  0
   -4.2979    4.0070    0.0127 C   0  0  0  0  0  0  0  0  0  0  0  0
   -5.3963    4.8527   -0.0019 C   0  0  0  0  0  0  0  0  0  0  0  0
   -5.1679    6.2360   -0.0128 C   0  0  0  0  0  0  0  0  0  0  0  0
   -3.8615    6.7472   -0.0098 C   0  0  0  0  0  0  0  0  0  0  0  0
   -2.7642    5.8856    0.0040 C   0  0  0  0  0  0  0  0  0  0  0  0
   -2.9988    4.5211   -0.0022 C   0  0  0  0  0  0  0  0  0  0  0  0
   -5.0904    1.6238    0.0403 N   0  0  0  0  0  0  0  0  0  0  0  0
   -6.3840    2.1429    0.0062 O   0  0  0  0  0  0  0  0  0  0  0  0
   -1.6723   -2.1912   -0.0305 H   0  0  0  0  0  0  0  0  0  0  0  0
    0.5440    2.7565    0.0419 H   0  0  0  0  0  0  0  0  0  0  0  0
    2.7576    1.7388    0.0062 H   0  0  0  0  0  0  0  0  0  0  0  0
    3.0368   -0.7214   -0.0166 H   0  0  0  0  0  0  0  0  0  0  0  0
    1.0348   -2.2051   -0.0228 H   0  0  0  0  0  0  0  0  0  0  0  0
   -1.1089    3.6758   -0.2196 H   0  0  0  0  0  0  0  0  0  0  0  0
   -6.4100    4.4762    0.0055 H   0  0  0  0  0  0  0  0  0  0  0  0
   -6.0135    6.9207   -0.0146 H   0  0  0  0  0  0  0  0  0  0  0  0
   -3.7032    7.8238   -0.0056 H   0  0  0  0  0  0  0  0  0  0  0  0
   -1.7537    6.2801    0.0295 H   0  0  0  0  0  0  0  0  0  0  0  0
   -6.9221    1.3287    0.0059 H   0  0  0  0  0  0  0  0  0  0  0  0
  1  2  1  0  0  0  0
  1  9  1  0  0  0  0
  1 22  1  0  0  0  0
  2  3  1  0  0  0  0
  2 10  2  0  0  0  0
  3  4  1  0  0  0  0
  3 12  2  0  0  0  0
  4  5  2  0  0  0  0
  4  9  1  0  0  0  0
  5  6  1  0  0  0  0
  5 23  1  0  0  0  0
  6  7  2  0  0  0  0
  6 24  1  0  0  0  0
  7  8  1  0  0  0  0
  7 25  1  0  0  0  0
  8  9  2  0  0  0  0
  8 26  1  0  0  0  0
 11 12  1  0  0  0  0
 11 19  1  0  0  0  0
 11 27  1  0  0  0  0
 12 13  1  0  0  0  0
 13 14  1  0  0  0  0
 13 20  2  0  0  0  0
 14 15  2  0  0  0  0
 14 19  1  0  0  0  0
 15 16  1  0  0  0  0
 15 28  1  0  0  0  0
 16 17  2  0  0  0  0
 16 29  1  0  0  0  0
 17 18  1  0  0  0  0
 17 30  1  0  0  0  0
 18 19  2  0  0  0  0
 18 31  1  0  0  0  0
 20 21  1  0  0  0  0
 21 32  1  0  0  0  0
M  END
>  <Mol_ID>
4473

>  <Formula>
C16H11N3O2

>  <MolWeight>
277.27744

>  <Cat>
S2009

>  <Name>
Indirubin-3'-monoxime

>  <Synonyms>
Indirubin-3'-oxime

>  <Target>
CDK

>  <Form>
Free Base

>  <CAS>
160807-49-8

>  <URL>
http://www.selleck.cn/products/indirubin-3-monoxime.html

$$$$
