Indirubin.cdx
 OpenBabel08302521273D

 30 33  0  0  0  0  0  0  0  0999 V2000
    1.9879    1.2051   -0.0029 C   0  0  0  0  0  0  0  0  0  0  0  0
    2.4012   -0.1352   -0.0046 C   0  0  0  0  0  0  0  0  0  0  0  0
    1.4654   -1.1779   -0.0076 C   0  0  0  0  0  0  0  0  0  0  0  0
    0.1155   -0.8660   -0.0058 C   0  0  0  0  0  0  0  0  0  0  0  0
   -0.2693    0.4790   -0.0024 C   0  0  0  0  0  0  0  0  0  0  0  0
    0.6324    1.5264   -0.0029 C   0  0  0  0  0  0  0  0  0  0  0  0
   -1.1365   -1.6573   -0.0048 C   0  0  0  0  0  0  0  0  0  0  0  0
   -2.2697   -0.6450    0.0092 C   0  0  0  0  0  0  0  0  0  0  0  0
   -1.6495    0.5941    0.0039 N   0  0  0  0  0  0  0  0  0  0  0  0
   -3.4706   -0.7969    0.0230 O   0  0  0  0  0  0  0  0  0  0  0  0
   -1.2466   -2.9970   -0.0276 C   0  0  0  0  0  0  0  0  0  0  0  0
   -0.2500   -3.9708   -0.0531 N   0  0  0  0  0  0  0  0  0  0  0  0
   -0.8038   -5.2433    0.0120 C   0  0  0  0  0  0  0  0  0  0  0  0
   -2.1961   -5.1830   -0.0021 C   0  0  0  0  0  0  0  0  0  0  0  0
   -2.5677   -3.7627   -0.0238 C   0  0  0  0  0  0  0  0  0  0  0  0
   -0.1710   -6.4688    0.0062 C   0  0  0  0  0  0  0  0  0  0  0  0
   -0.9685   -7.6235    0.0114 C   0  0  0  0  0  0  0  0  0  0  0  0
   -2.3749   -7.5388    0.0089 C   0  0  0  0  0  0  0  0  0  0  0  0
   -3.0083   -6.2984    0.0013 C   0  0  0  0  0  0  0  0  0  0  0  0
   -3.7167   -3.3822   -0.0317 O   0  0  0  0  0  0  0  0  0  0  0  0
    2.7339    1.9974   -0.0022 H   0  0  0  0  0  0  0  0  0  0  0  0
    3.4639   -0.3701   -0.0050 H   0  0  0  0  0  0  0  0  0  0  0  0
    1.8343   -2.1923   -0.0138 H   0  0  0  0  0  0  0  0  0  0  0  0
    0.3050    2.5598   -0.0009 H   0  0  0  0  0  0  0  0  0  0  0  0
   -2.1780    1.4532    0.0068 H   0  0  0  0  0  0  0  0  0  0  0  0
    0.7232   -3.7873    0.0986 H   0  0  0  0  0  0  0  0  0  0  0  0
    0.9104   -6.5513   -0.0035 H   0  0  0  0  0  0  0  0  0  0  0  0
   -0.4965   -8.6041    0.0107 H   0  0  0  0  0  0  0  0  0  0  0  0
   -2.9728   -8.4474    0.0072 H   0  0  0  0  0  0  0  0  0  0  0  0
   -4.0881   -6.1980   -0.0074 H   0  0  0  0  0  0  0  0  0  0  0  0
  1  2  2  0  0  0  0
  1 21  1  0  0  0  0
  2  3  1  0  0  0  0
  2 22  1  0  0  0  0
  3  4  2  0  0  0  0
  3 23  1  0  0  0  0
  4  5  1  0  0  0  0
  4  7  1  0  0  0  0
  5  6  2  0  0  0  0
  6  1  1  0  0  0  0
  6 24  1  0  0  0  0
  7  8  1  0  0  0  0
  7 11  2  0  0  0  0
  8  9  1  0  0  0  0
  8 10  2  0  0  0  0
  9  5  1  0  0  0  0
  9 25  1  0  0  0  0
 11 12  1  0  0  0  0
 12 13  1  0  0  0  0
 12 26  1  0  0  0  0
 13 14  2  0  0  0  0
 13 16  1  0  0  0  0
 14 15  1  0  0  0  0
 15 11  1  0  0  0  0
 15 20  2  0  0  0  0
 16 17  2  0  0  0  0
 16 27  1  0  0  0  0
 17 18  1  0  0  0  0
 17 28  1  0  0  0  0
 18 19  2  0  0  0  0
 18 29  1  0  0  0  0
 19 14  1  0  0  0  0
 19 30  1  0  0  0  0
M  END
>  <Mol_ID>
504

>  <Formula>
C16H10N2O2

>  <MolWeight>
262.2628

>  <Cat>
S2386

>  <Name>
Indirubin?(NSC 105327)

>  <Synonyms>
NSC 105327

>  <Target>
GSK-3

>  <Form>
free base

>  <CAS>
479-41-4

>  <URL>
http://selleckchem.com/products/Indirubin.html

$$$$
