Indoximod.cdx
 OpenBabel08302521393D

 30 31  0  0  0  0  0  0  0  0999 V2000
   -2.5149   -8.4086    3.1031 C   0  0  0  0  0  0  0  0  0  0  0  0
   -1.9029   -8.1363    1.8838 C   0  0  0  0  0  0  0  0  0  0  0  0
   -1.7270   -6.8166    1.4534 C   0  0  0  0  0  0  0  0  0  0  0  0
   -2.1354   -5.7516    2.2842 C   0  0  0  0  0  0  0  0  0  0  0  0
   -2.8028   -6.0543    3.4741 C   0  0  0  0  0  0  0  0  0  0  0  0
   -3.0056   -7.3754    3.9046 C   0  0  0  0  0  0  0  0  0  0  0  0
   -1.9779   -4.3263    2.2244 C   0  0  0  0  0  0  0  0  0  0  0  0
   -2.6484   -3.8109    3.3193 C   0  0  0  0  0  0  0  0  0  0  0  0
   -3.1627   -4.8534    4.0450 N   0  0  0  0  0  0  0  0  0  0  0  0
   -3.9551   -4.7192    5.2477 C   0  0  0  0  0  0  0  0  0  0  0  0
   -1.2198   -3.5408    1.1876 C   0  0  0  0  0  0  0  0  0  0  0  0
    0.2686   -3.3125    1.5255 C   0  0  2  0  0  0  0  0  0  0  0  0
    0.8823   -2.4398    0.4262 C   0  0  0  0  0  0  0  0  0  0  0  0
    1.0762   -4.5498    1.6837 N   0  0  0  0  0  0  0  0  0  0  0  0
    0.8037   -1.2178    0.3451 O   0  0  0  0  0  0  0  0  0  0  0  0
    1.5039   -3.1398   -0.5483 O   0  0  0  0  0  0  0  0  0  0  0  0
   -2.6173   -9.4390    3.4366 H   0  0  0  0  0  0  0  0  0  0  0  0
   -1.5439   -8.9550    1.2656 H   0  0  0  0  0  0  0  0  0  0  0  0
   -1.2561   -6.6193    0.4955 H   0  0  0  0  0  0  0  0  0  0  0  0
   -3.5027   -7.5964    4.8438 H   0  0  0  0  0  0  0  0  0  0  0  0
   -2.7896   -2.7868    3.6408 H   0  0  0  0  0  0  0  0  0  0  0  0
   -4.9281   -5.1885    5.0737 H   0  0  0  0  0  0  0  0  0  0  0  0
   -3.4300   -5.2173    6.0663 H   0  0  0  0  0  0  0  0  0  0  0  0
   -4.0936   -3.6617    5.4828 H   0  0  0  0  0  0  0  0  0  0  0  0
   -1.3166   -4.0341    0.2115 H   0  0  0  0  0  0  0  0  0  0  0  0
   -1.7087   -2.5640    1.0724 H   0  0  0  0  0  0  0  0  0  0  0  0
    0.3621   -2.7564    2.4669 H   0  0  0  0  0  0  0  0  0  0  0  0
    0.5786   -5.1931    2.3009 H   0  0  0  0  0  0  0  0  0  0  0  0
    1.1393   -5.0059    0.7739 H   0  0  0  0  0  0  0  0  0  0  0  0
    1.8987   -2.4479   -1.1244 H   0  0  0  0  0  0  0  0  0  0  0  0
  1  2  2  0  0  0  0
  1 17  1  0  0  0  0
  2  3  1  0  0  0  0
  2 18  1  0  0  0  0
  3  4  2  0  0  0  0
  3 19  1  0  0  0  0
  4  5  1  0  0  0  0
  4  7  1  0  0  0  0
  5  6  2  0  0  0  0
  6  1  1  0  0  0  0
  6 20  1  0  0  0  0
  7  8  2  0  0  0  0
  7 11  1  0  0  0  0
  8  9  1  0  0  0  0
  8 21  1  0  0  0  0
  9  5  1  0  0  0  0
  9 10  1  0  0  0  0
 10 22  1  0  0  0  0
 10 23  1  0  0  0  0
 10 24  1  0  0  0  0
 11 25  1  0  0  0  0
 11 26  1  0  0  0  0
 12 14  1  0  0  0  0
 12 27  1  1  0  0  0
 12 13  1  0  0  0  0
 12 11  1  0  0  0  0
 13 15  2  0  0  0  0
 13 16  1  0  0  0  0
 14 28  1  0  0  0  0
 14 29  1  0  0  0  0
 16 30  1  0  0  0  0
M  END
>  <Mol_ID>
8169

>  <Formula>
C12H14N2O2

>  <MolWeight>
218.25176

>  <Cat>
S7756

>  <Name>
Indoximod (NLG-8189£©

>  <Synonyms>
1-Methyl-D-tryptophan, 1-MT

>  <Target>
IDO/TDO

>  <Form>
Free Base

>  <CAS>
110117-83-4

>  <URL>
http://selleckchem.com/products/indoximod-nlg-8189.html

$$$$
