Indoprofen
 OpenBabel08302521233D

 36 38  0  0  0  0  0  0  0  0999 V2000
   -1.8747   -0.9685   -0.0401 N   0  0  0  0  0  0  0  0  0  0  0  0
   -3.2157   -1.4252   -0.0998 C   0  0  0  0  0  0  0  0  0  0  0  0
   -1.2977    0.0226   -0.8408 C   0  0  0  0  0  0  0  0  0  0  0  0
   -0.9076   -1.5199    0.9006 C   0  0  0  0  0  0  0  0  0  0  0  0
   -4.1108   -0.9608   -1.0685 C   0  0  0  0  0  0  0  0  0  0  0  0
   -3.6851   -2.3753    0.8175 C   0  0  0  0  0  0  0  0  0  0  0  0
    0.1075    0.1330   -0.4357 C   0  0  0  0  0  0  0  0  0  0  0  0
   -1.7701    0.7167   -1.7225 O   0  0  0  0  0  0  0  0  0  0  0  0
    0.3454   -0.7808    0.5841 C   0  0  0  0  0  0  0  0  0  0  0  0
   -5.4333   -1.4143   -1.1130 C   0  0  0  0  0  0  0  0  0  0  0  0
   -5.0002   -2.8476    0.7649 C   0  0  0  0  0  0  0  0  0  0  0  0
    1.0891    0.9682   -0.9342 C   0  0  0  0  0  0  0  0  0  0  0  0
    1.6055   -0.8949    1.1439 C   0  0  0  0  0  0  0  0  0  0  0  0
   -5.8961   -2.3642   -0.1942 C   0  0  0  0  0  0  0  0  0  0  0  0
    2.3621    0.8636   -0.3752 C   0  0  0  0  0  0  0  0  0  0  0  0
    2.6190   -0.0624    0.6528 C   0  0  0  0  0  0  0  0  0  0  0  0
   -7.3286   -2.8664   -0.2869 C   0  0  3  0  0  0  0  0  0  0  0  0
   -7.4733   -4.1742   -1.0649 C   0  0  0  0  0  0  0  0  0  0  0  0
   -7.9736   -3.0003    1.0998 C   0  0  0  0  0  0  0  0  0  0  0  0
   -6.6299   -4.3289   -2.1132 O   0  0  0  0  0  0  0  0  0  0  0  0
   -8.3332   -5.0131   -0.8276 O   0  0  0  0  0  0  0  0  0  0  0  0
   -1.2285   -1.3151    1.9277 H   0  0  0  0  0  0  0  0  0  0  0  0
   -0.7855   -2.5927    0.7187 H   0  0  0  0  0  0  0  0  0  0  0  0
   -3.8089   -0.2363   -1.8197 H   0  0  0  0  0  0  0  0  0  0  0  0
   -3.0493   -2.7710    1.6038 H   0  0  0  0  0  0  0  0  0  0  0  0
   -6.0908   -1.0135   -1.8835 H   0  0  0  0  0  0  0  0  0  0  0  0
   -5.3055   -3.5935    1.4957 H   0  0  0  0  0  0  0  0  0  0  0  0
    0.8687    1.6726   -1.7292 H   0  0  0  0  0  0  0  0  0  0  0  0
    1.8119   -1.6061    1.9357 H   0  0  0  0  0  0  0  0  0  0  0  0
    3.1668    1.5007   -0.7403 H   0  0  0  0  0  0  0  0  0  0  0  0
    3.6201   -0.1303    1.0725 H   0  0  0  0  0  0  0  0  0  0  0  0
   -7.9193   -2.1211   -0.8370 H   0  0  0  0  0  0  0  0  0  0  0  0
   -7.8702   -2.0738    1.6754 H   0  0  0  0  0  0  0  0  0  0  0  0
   -9.0421   -3.2248    1.0134 H   0  0  0  0  0  0  0  0  0  0  0  0
   -7.5271   -3.8143    1.6825 H   0  0  0  0  0  0  0  0  0  0  0  0
   -5.9690   -3.6183   -2.2191 H   0  0  0  0  0  0  0  0  0  0  0  0
  1  2  1  0  0  0  0
  1  3  1  0  0  0  0
  1  4  1  0  0  0  0
  2  5  2  0  0  0  0
  2  6  1  0  0  0  0
  3  7  1  0  0  0  0
  3  8  2  0  0  0  0
  4  9  1  0  0  0  0
  4 22  1  0  0  0  0
  4 23  1  0  0  0  0
  5 10  1  0  0  0  0
  5 24  1  0  0  0  0
  6 11  2  0  0  0  0
  6 25  1  0  0  0  0
  7 12  1  0  0  0  0
  7  9  2  0  0  0  0
  9 13  1  0  0  0  0
 10 14  2  0  0  0  0
 10 26  1  0  0  0  0
 11 14  1  0  0  0  0
 11 27  1  0  0  0  0
 12 15  2  0  0  0  0
 12 28  1  0  0  0  0
 13 16  2  0  0  0  0
 13 29  1  0  0  0  0
 14 17  1  0  0  0  0
 15 16  1  0  0  0  0
 15 30  1  0  0  0  0
 16 31  1  0  0  0  0
 17 18  1  0  0  0  0
 17 19  1  0  0  0  0
 17 32  1  0  0  0  0
 18 20  1  0  0  0  0
 18 21  2  0  0  0  0
 19 33  1  0  0  0  0
 19 34  1  0  0  0  0
 19 35  1  0  0  0  0
 20 36  1  0  0  0  0
M  END
>  <Mol_ID>
4871

>  <Formula>
C17H15NO3

>  <MolWeight>
281.3059

>  <Cat>
S2272

>  <Name>
Indoprofen

>  <Synonyms>
N/A

>  <Target>
COX,Others,PDPK1

>  <Form>
Free Base

>  <CAS>
31842-01-0

>  <URL>
http://www.selleck.cn/products/indoprofen.html

$$$$
