INDOCIN (indomethacin).cdx
 OpenBabel08302520433D

 41 43  0  0  0  0  0  0  0  0999 V2000
   -2.1321    0.7672   -0.0218 C   0  0  0  0  0  0  0  0  0  0  0  0
   -2.1849   -0.6198   -0.0346 C   0  0  0  0  0  0  0  0  0  0  0  0
   -0.9958   -1.3511   -0.0573 C   0  0  0  0  0  0  0  0  0  0  0  0
    0.2530   -0.6922   -0.0564 C   0  0  0  0  0  0  0  0  0  0  0  0
    0.2951    0.7043   -0.0232 C   0  0  0  0  0  0  0  0  0  0  0  0
   -0.9032    1.4459   -0.0219 C   0  0  0  0  0  0  0  0  0  0  0  0
    1.5884   -1.1622   -0.0174 C   0  0  0  0  0  0  0  0  0  0  0  0
    2.4235   -0.0582    0.0305 C   0  0  0  0  0  0  0  0  0  0  0  0
    1.6396    1.1020   -0.0492 N   0  0  0  0  0  0  0  0  0  0  0  0
    3.9093   -0.1127    0.2155 C   0  0  0  0  0  0  0  0  0  0  0  0
   -3.3140   -1.3912   -0.0200 O   0  0  0  0  0  0  0  0  0  0  0  0
   -4.5598   -0.7070   -0.0072 C   0  0  0  0  0  0  0  0  0  0  0  0
    2.0109   -2.6018    0.0524 C   0  0  0  0  0  0  0  0  0  0  0  0
    2.1731   -3.1200    1.4647 C   0  0  0  0  0  0  0  0  0  0  0  0
    1.3789   -2.5681    2.4126 O   0  0  0  0  0  0  0  0  0  0  0  0
    2.9408   -4.0353    1.7414 O   0  0  0  0  0  0  0  0  0  0  0  0
    2.0813    2.4621   -0.1183 C   0  0  0  0  0  0  0  0  0  0  0  0
    3.3998    2.8846   -0.6544 C   0  0  0  0  0  0  0  0  0  0  0  0
    3.9714    2.2071   -1.7361 C   0  0  0  0  0  0  0  0  0  0  0  0
    5.2983    2.4545   -2.0849 C   0  0  0  0  0  0  0  0  0  0  0  0
    6.0210    3.4392   -1.4127 C   0  0  0  0  0  0  0  0  0  0  0  0
    5.4098    4.2040   -0.4181 C   0  0  0  0  0  0  0  0  0  0  0  0
    4.0960    3.9282   -0.0343 C   0  0  0  0  0  0  0  0  0  0  0  0
    1.3275    3.3369    0.2994 O   0  0  0  0  0  0  0  0  0  0  0  0
   -3.0357    1.3693   -0.0102 H   0  0  0  0  0  0  0  0  0  0  0  0
   -1.0442   -2.4374   -0.0634 H   0  0  0  0  0  0  0  0  0  0  0  0
   -0.8951    2.5335   -0.0140 H   0  0  0  0  0  0  0  0  0  0  0  0
    4.1674   -0.8741    0.9592 H   0  0  0  0  0  0  0  0  0  0  0  0
    4.3896   -0.4062   -0.7246 H   0  0  0  0  0  0  0  0  0  0  0  0
    4.3463    0.8160    0.5800 H   0  0  0  0  0  0  0  0  0  0  0  0
   -4.6657   -0.0963    0.8954 H   0  0  0  0  0  0  0  0  0  0  0  0
   -4.6849   -0.1038   -0.9123 H   0  0  0  0  0  0  0  0  0  0  0  0
   -5.3542   -1.4595    0.0049 H   0  0  0  0  0  0  0  0  0  0  0  0
    1.2925   -3.2439   -0.4679 H   0  0  0  0  0  0  0  0  0  0  0  0
    2.9741   -2.7151   -0.4564 H   0  0  0  0  0  0  0  0  0  0  0  0
    0.7999   -1.8471    2.0987 H   0  0  0  0  0  0  0  0  0  0  0  0
    3.4190    1.4370   -2.2687 H   0  0  0  0  0  0  0  0  0  0  0  0
    5.7745    1.8599   -2.8609 H   0  0  0  0  0  0  0  0  0  0  0  0
    7.0638    3.6137   -1.6689 H   0  0  0  0  0  0  0  0  0  0  0  0
    5.9661    4.9965    0.0754 H   0  0  0  0  0  0  0  0  0  0  0  0
    3.6348    4.5033    0.7666 H   0  0  0  0  0  0  0  0  0  0  0  0
  1  2  2  0  0  0  0
  1 25  1  0  0  0  0
  2  3  1  0  0  0  0
  2 11  1  0  0  0  0
  3  4  2  0  0  0  0
  3 26  1  0  0  0  0
  4  5  1  0  0  0  0
  4  7  1  0  0  0  0
  5  6  2  0  0  0  0
  6  1  1  0  0  0  0
  6 27  1  0  0  0  0
  7  8  2  0  0  0  0
  7 13  1  0  0  0  0
  8  9  1  0  0  0  0
  8 10  1  0  0  0  0
  9  5  1  0  0  0  0
  9 17  1  0  0  0  0
 10 28  1  0  0  0  0
 10 29  1  0  0  0  0
 10 30  1  0  0  0  0
 11 12  1  0  0  0  0
 12 31  1  0  0  0  0
 12 32  1  0  0  0  0
 12 33  1  0  0  0  0
 13 14  1  0  0  0  0
 13 34  1  0  0  0  0
 13 35  1  0  0  0  0
 14 15  1  0  0  0  0
 14 16  2  0  0  0  0
 15 36  1  0  0  0  0
 17 18  1  0  0  0  0
 17 24  2  0  0  0  0
 18 19  2  0  0  0  0
 19 20  1  0  0  0  0
 19 37  1  0  0  0  0
 20 21  2  0  0  0  0
 20 38  1  0  0  0  0
 21 22  1  0  0  0  0
 21 39  1  0  0  0  0
 22 23  2  0  0  0  0
 22 40  1  0  0  0  0
 23 18  1  0  0  0  0
 23 41  1  0  0  0  0
M  END
>  <Mol_ID>
413

>  <Formula>
C19H16ClNO4

>  <MolWeight>
357.78764

>  <Cat>
S1723

>  <Name>
Indomethacin (NSC-77541)

>  <Synonyms>
Indometacin,NSC-77541

>  <Target>
COX

>  <Form>
free base

>  <CAS>
53-86-1

>  <URL>
http://selleckchem.com/products/Indomethacin(Indocid).html

$$$$
