Indole-3-carboxaldehyde
 OpenBabel08302521353D

 18 19  0  0  0  0  0  0  0  0999 V2000
    1.0244    0.0177    0.0258 C   0  0  0  0  0  0  0  0  0  0  0  0
    0.7646   -0.0580   -1.1732 O   0  0  0  0  0  0  0  0  0  0  0  0
    0.5865   -0.7335    2.4618 C   0  0  0  0  0  0  0  0  0  0  0  0
   -0.2830   -1.6612    3.0404 C   0  0  0  0  0  0  0  0  0  0  0  0
    0.3567   -0.7608    1.0502 C   0  0  0  0  0  0  0  0  0  0  0  0
    1.4440    0.0005    3.3079 C   0  0  0  0  0  0  0  0  0  0  0  0
   -1.0141   -2.2258    2.0211 N   0  0  0  0  0  0  0  0  0  0  0  0
   -0.3321   -1.8953    4.4198 C   0  0  0  0  0  0  0  0  0  0  0  0
   -0.6534   -1.6765    0.8222 C   0  0  0  0  0  0  0  0  0  0  0  0
    1.3956   -0.2109    4.6908 C   0  0  0  0  0  0  0  0  0  0  0  0
    0.5209   -1.1470    5.2354 C   0  0  0  0  0  0  0  0  0  0  0  0
    1.8071    0.7040    0.3856 H   0  0  0  0  0  0  0  0  0  0  0  0
    2.1300    0.7390    2.9029 H   0  0  0  0  0  0  0  0  0  0  0  0
   -1.7265   -2.9318    2.1480 H   0  0  0  0  0  0  0  0  0  0  0  0
   -1.0152   -2.6213    4.8486 H   0  0  0  0  0  0  0  0  0  0  0  0
   -1.1370   -1.9784   -0.0986 H   0  0  0  0  0  0  0  0  0  0  0  0
    2.0426    0.3680    5.3455 H   0  0  0  0  0  0  0  0  0  0  0  0
    0.4956   -1.2947    6.3128 H   0  0  0  0  0  0  0  0  0  0  0  0
  1  2  2  0  0  0  0
  1  5  1  0  0  0  0
  1 12  1  0  0  0  0
  3  4  2  0  0  0  0
  3  5  1  0  0  0  0
  3  6  1  0  0  0  0
  4  7  1  0  0  0  0
  4  8  1  0  0  0  0
  5  9  2  0  0  0  0
  6 10  2  0  0  0  0
  6 13  1  0  0  0  0
  7  9  1  0  0  0  0
  7 14  1  0  0  0  0
  8 11  2  0  0  0  0
  8 15  1  0  0  0  0
  9 16  1  0  0  0  0
 10 11  1  0  0  0  0
 10 17  1  0  0  0  0
 11 18  1  0  0  0  0
M  END
>  <Mol_ID>
7000

>  <Formula>
C9H7NO

>  <MolWeight>
145.15798

>  <Cat>
E4147

>  <Name>
Indole-3-carboxaldehyde

>  <Synonyms>
Indole-3-carboxaldehyde

>  <Target>
Endogenous Metabolite

>  <Form>
free base

>  <CAS>
487-89-8

>  <URL>
https://www.selleckchem.com/products/indole-3-carboxaldehyde.html

$$$$
