Indoxyl sulfate potassium salt
 OpenBabel08302521373D

 21 22  0  0  0  0  0  0  0  0999 V2000
    1.1228   -0.1406    0.2165 O   0  0  0  0  0  0  0  0  0  0  0  0
    0.2517    1.1136    0.7891 S   0  0  0  0  0  0  0  0  0  0  0  0
    0.5391    1.3082    2.1953 O   0  0  0  0  0  0  0  0  0  0  0  0
    0.3040    2.2260   -0.1365 O   0  0  0  0  0  0  0  0  0  0  0  0
   -1.2685    0.5815    0.7368 O   0  0  0  0  0  0  0  0  0  0  0  0
    3.3370   -1.2226    0.0741 C   0  0  0  0  0  0  0  0  0  0  0  0
    2.4698   -0.0945    0.1270 C   0  0  0  0  0  0  0  0  0  0  0  0
    4.6408   -0.7242    0.0257 C   0  0  0  0  0  0  0  0  0  0  0  0
    3.1535   -2.6211    0.0851 C   0  0  0  0  0  0  0  0  0  0  0  0
    3.2435    1.0413    0.0633 C   0  0  0  0  0  0  0  0  0  0  0  0
    4.5535    0.6488    0.0141 N   0  0  0  0  0  0  0  0  0  0  0  0
    5.7710   -1.5502    0.0019 C   0  0  0  0  0  0  0  0  0  0  0  0
    4.2747   -3.4615    0.0570 C   0  0  0  0  0  0  0  0  0  0  0  0
    5.5624   -2.9308    0.0207 C   0  0  0  0  0  0  0  0  0  0  0  0
   -1.8306    1.2785    1.1323 H   0  0  0  0  0  0  0  0  0  0  0  0
    2.1544   -3.0458    0.1205 H   0  0  0  0  0  0  0  0  0  0  0  0
    2.9919    2.0942    0.0488 H   0  0  0  0  0  0  0  0  0  0  0  0
    5.3477    1.2728   -0.0257 H   0  0  0  0  0  0  0  0  0  0  0  0
    6.7743   -1.1382   -0.0237 H   0  0  0  0  0  0  0  0  0  0  0  0
    4.1381   -4.5403    0.0695 H   0  0  0  0  0  0  0  0  0  0  0  0
    6.4204   -3.5996    0.0071 H   0  0  0  0  0  0  0  0  0  0  0  0
  1  2  1  0  0  0  0
  1  7  1  0  0  0  0
  2  3  2  0  0  0  0
  2  4  2  0  0  0  0
  2  5  1  0  0  0  0
  5 15  1  0  0  0  0
  6  7  1  0  0  0  0
  6  8  2  0  0  0  0
  6  9  1  0  0  0  0
  7 10  2  0  0  0  0
  8 11  1  0  0  0  0
  8 12  1  0  0  0  0
  9 13  2  0  0  0  0
  9 16  1  0  0  0  0
 10 11  1  0  0  0  0
 10 17  1  0  0  0  0
 11 18  1  0  0  0  0
 12 14  2  0  0  0  0
 12 19  1  0  0  0  0
 13 14  1  0  0  0  0
 13 20  1  0  0  0  0
 14 21  1  0  0  0  0
M  END
>  <Mol_ID>
7432

>  <Formula>
C8H7KNO4S

>  <MolWeight>
252.30878

>  <Cat>
E4532

>  <Name>
Indoxyl sulfate potassium salt

>  <Synonyms>
Indoxyl sulfate potassium salt

>  <Target>
AhR

>  <Form>
Potassium salt

>  <CAS>
2642-37-7

>  <URL>
https://www.selleckchem.com/products/indoxyl-sulfate-potassium-salt.html

$$$$
