Indole-2-carboxylic acid
 OpenBabel08302520383D

 19 20  0  0  0  0  0  0  0  0999 V2000
   -0.2309   -0.7955   -0.0108 C   0  0  0  0  0  0  0  0  0  0  0  0
   -0.2767    0.5956   -0.0200 C   0  0  0  0  0  0  0  0  0  0  0  0
   -1.5764   -1.2604   -0.0236 C   0  0  0  0  0  0  0  0  0  0  0  0
    1.0232   -1.4347    0.0014 C   0  0  0  0  0  0  0  0  0  0  0  0
   -1.6032    0.9514   -0.0334 N   0  0  0  0  0  0  0  0  0  0  0  0
    0.8756    1.3899   -0.0189 C   0  0  0  0  0  0  0  0  0  0  0  0
   -2.4203   -0.1615   -0.0561 C   0  0  0  0  0  0  0  0  0  0  0  0
    2.1865   -0.6572   -0.0057 C   0  0  0  0  0  0  0  0  0  0  0  0
    2.1110    0.7341   -0.0160 C   0  0  0  0  0  0  0  0  0  0  0  0
   -3.8558   -0.0151   -0.1049 C   0  0  0  0  0  0  0  0  0  0  0  0
   -4.5151   -1.1943   -0.1419 O   0  0  0  0  0  0  0  0  0  0  0  0
   -4.4368    1.0605   -0.1196 O   0  0  0  0  0  0  0  0  0  0  0  0
   -1.8610   -2.3033   -0.0213 H   0  0  0  0  0  0  0  0  0  0  0  0
    1.0916   -2.5184    0.0089 H   0  0  0  0  0  0  0  0  0  0  0  0
   -1.9513    1.9021   -0.0430 H   0  0  0  0  0  0  0  0  0  0  0  0
    0.8214    2.4739   -0.0258 H   0  0  0  0  0  0  0  0  0  0  0  0
    3.1580   -1.1456   -0.0054 H   0  0  0  0  0  0  0  0  0  0  0  0
    3.0273    1.3205   -0.0234 H   0  0  0  0  0  0  0  0  0  0  0  0
   -3.9299   -1.9697   -0.1359 H   0  0  0  0  0  0  0  0  0  0  0  0
  1  2  2  0  0  0  0
  1  3  1  0  0  0  0
  1  4  1  0  0  0  0
  2  5  1  0  0  0  0
  2  6  1  0  0  0  0
  3  7  2  0  0  0  0
  3 13  1  0  0  0  0
  4  8  2  0  0  0  0
  4 14  1  0  0  0  0
  5  7  1  0  0  0  0
  5 15  1  0  0  0  0
  6  9  2  0  0  0  0
  6 16  1  0  0  0  0
  7 10  1  0  0  0  0
  8  9  1  0  0  0  0
  8 17  1  0  0  0  0
  9 18  1  0  0  0  0
 10 11  1  0  0  0  0
 10 12  2  0  0  0  0
 11 19  1  0  0  0  0
M  END
>  <Mol_ID>
3501

>  <Formula>
C9H7NO2

>  <MolWeight>
161.15738

>  <Cat>
S6228

>  <Name>
Indole-2-carboxylic acid

>  <Synonyms>
N/A

>  <Target>
Lipoxygenase

>  <Form>
free base

>  <CAS>
1477-50-5

>  <URL>
http://www.selleck.cn/products/indole-2-carboxylic-acid.html

$$$$
