Indole-3-carbinol.cdx
 OpenBabel08302521363D

 20 21  0  0  0  0  0  0  0  0999 V2000
    1.0229   -1.4165    0.0060 C   0  0  0  0  0  0  0  0  0  0  0  0
    2.2000   -0.6601   -0.0045 C   0  0  0  0  0  0  0  0  0  0  0  0
    2.1486    0.7316   -0.0155 C   0  0  0  0  0  0  0  0  0  0  0  0
    0.9244    1.4059   -0.0147 C   0  0  0  0  0  0  0  0  0  0  0  0
   -0.2431    0.6333   -0.0091 C   0  0  0  0  0  0  0  0  0  0  0  0
   -0.2266   -0.7627   -0.0008 C   0  0  0  0  0  0  0  0  0  0  0  0
   -1.5624    1.0233   -0.0147 N   0  0  0  0  0  0  0  0  0  0  0  0
   -2.3782   -0.0755   -0.0175 C   0  0  0  0  0  0  0  0  0  0  0  0
   -1.5880   -1.2096   -0.0078 C   0  0  0  0  0  0  0  0  0  0  0  0
   -2.0684   -2.6208   -0.0157 C   0  0  0  0  0  0  0  0  0  0  0  0
   -2.8799   -2.9053    1.1193 O   0  0  0  0  0  0  0  0  0  0  0  0
    1.0809   -2.5013    0.0136 H   0  0  0  0  0  0  0  0  0  0  0  0
    3.1626   -1.1653   -0.0064 H   0  0  0  0  0  0  0  0  0  0  0  0
    3.0740    1.3026   -0.0269 H   0  0  0  0  0  0  0  0  0  0  0  0
    0.8881    2.4904   -0.0227 H   0  0  0  0  0  0  0  0  0  0  0  0
   -1.8766    1.9833   -0.0229 H   0  0  0  0  0  0  0  0  0  0  0  0
   -3.4551    0.0356   -0.0283 H   0  0  0  0  0  0  0  0  0  0  0  0
   -2.6630   -2.8111   -0.9150 H   0  0  0  0  0  0  0  0  0  0  0  0
   -1.2345   -3.3291   -0.0146 H   0  0  0  0  0  0  0  0  0  0  0  0
   -2.3877   -2.5720    1.8887 H   0  0  0  0  0  0  0  0  0  0  0  0
  1  2  2  0  0  0  0
  1 12  1  0  0  0  0
  2  3  1  0  0  0  0
  2 13  1  0  0  0  0
  3  4  2  0  0  0  0
  3 14  1  0  0  0  0
  4  5  1  0  0  0  0
  4 15  1  0  0  0  0
  5  6  2  0  0  0  0
  5  7  1  0  0  0  0
  6  1  1  0  0  0  0
  7  8  1  0  0  0  0
  7 16  1  0  0  0  0
  8  9  2  0  0  0  0
  8 17  1  0  0  0  0
  9  6  1  0  0  0  0
  9 10  1  0  0  0  0
 10 11  1  0  0  0  0
 10 18  1  0  0  0  0
 10 19  1  0  0  0  0
 11 20  1  0  0  0  0
M  END
>  <Mol_ID>
696

>  <Formula>
C9H9NO

>  <MolWeight>
147.17386

>  <Cat>
S2313

>  <Name>
Indole-3-carbinol

>  <Synonyms>
N/A

>  <Target>
NF-¦ÊB

>  <Form>
free base

>  <CAS>
700-06-1

>  <URL>
http://selleckchem.com/products/Indole-3-carbinol.html

$$$$
