Ingenol
 OpenBabel08302521193D

 53 56  0  0  0  0  0  0  0  0999 V2000
    0.3011    0.5702    0.0362 C   0  0  1  0  0  0  0  0  0  0  0  0
    1.7447    1.1866   -0.3510 C   0  0  2  0  0  0  0  0  0  0  0  0
    1.8419    2.0051   -1.7127 C   0  0  1  0  0  0  0  0  0  0  0  0
    1.1472    3.3677   -1.7672 C   0  0  0  0  0  0  0  0  0  0  0  0
   -0.2027    3.4692   -1.8476 C   0  0  0  0  0  0  0  0  0  0  0  0
   -0.9679    2.4851   -1.0387 C   0  0  2  0  0  0  0  0  0  0  0  0
   -0.5910    1.0015   -1.1130 C   0  0  0  0  0  0  0  0  0  0  0  0
    0.5989   -0.9199    0.0606 C   0  0  0  0  0  0  0  0  0  0  0  0
    1.9080   -1.1778    0.0800 C   0  0  0  0  0  0  0  0  0  0  0  0
    2.6836   -0.0588   -0.5077 C   0  0  2  0  0  0  0  0  0  0  0  0
   -1.4693    2.0020    1.7032 C   0  0  0  0  0  0  0  0  0  0  0  0
   -2.6199    2.0247    0.6987 C   0  0  2  0  0  0  0  0  0  0  0  0
   -0.3267    0.9312    1.5114 C   0  0  1  0  0  0  0  0  0  0  0  0
   -2.4194    2.5205   -0.7373 C   0  0  1  0  0  0  0  0  0  0  0  0
   -3.2245    3.3499    0.2483 C   0  0  0  0  0  0  0  0  0  0  0  0
    1.9718    4.5781   -1.4245 C   0  0  0  0  0  0  0  0  0  0  0  0
    3.9066    0.1575    0.1850 O   0  0  0  0  0  0  0  0  0  0  0  0
    2.2634    2.0212    0.7075 O   0  0  0  0  0  0  0  0  0  0  0  0
    3.2031    2.2147   -2.1148 O   0  0  0  0  0  0  0  0  0  0  0  0
   -0.7838   -0.2868    2.3591 C   0  0  0  0  0  0  0  0  0  0  0  0
   -2.6850    4.6846    0.6918 C   0  0  0  0  0  0  0  0  0  0  0  0
   -4.7265    3.3509    0.0648 C   0  0  0  0  0  0  0  0  0  0  0  0
   -0.9281    0.2644   -2.0360 O   0  0  0  0  0  0  0  0  0  0  0  0
    2.5194   -2.3791    0.7075 C   0  0  0  0  0  0  0  0  0  0  0  0
    2.6744    5.0452   -2.5551 O   0  0  0  0  0  0  0  0  0  0  0  0
    1.4303    1.3884   -2.5248 H   0  0  0  0  0  0  0  0  0  0  0  0
   -0.6500    4.4606   -1.9159 H   0  0  0  0  0  0  0  0  0  0  0  0
   -0.5166    2.8336   -0.1121 H   0  0  0  0  0  0  0  0  0  0  0  0
   -0.1537   -1.6495    0.3380 H   0  0  0  0  0  0  0  0  0  0  0  0
    2.8949   -0.2968   -1.5596 H   0  0  0  0  0  0  0  0  0  0  0  0
   -1.9350    1.8741    2.6890 H   0  0  0  0  0  0  0  0  0  0  0  0
   -0.9842    2.9791    1.7951 H   0  0  0  0  0  0  0  0  0  0  0  0
   -3.2644    1.1590    0.8167 H   0  0  0  0  0  0  0  0  0  0  0  0
    0.5164    1.3260    2.0945 H   0  0  0  0  0  0  0  0  0  0  0  0
   -2.9852    2.0553   -1.5425 H   0  0  0  0  0  0  0  0  0  0  0  0
    2.6906    4.3368   -0.6293 H   0  0  0  0  0  0  0  0  0  0  0  0
    1.3565    5.3932   -1.0285 H   0  0  0  0  0  0  0  0  0  0  0  0
    4.5542   -0.4414   -0.2338 H   0  0  0  0  0  0  0  0  0  0  0  0
    3.0283    1.5200    1.0703 H   0  0  0  0  0  0  0  0  0  0  0  0
    3.7171    2.3644   -1.3050 H   0  0  0  0  0  0  0  0  0  0  0  0
   -1.0576    0.0290    3.3729 H   0  0  0  0  0  0  0  0  0  0  0  0
   -1.6555   -0.7766    1.9148 H   0  0  0  0  0  0  0  0  0  0  0  0
    0.0182   -1.0173    2.5033 H   0  0  0  0  0  0  0  0  0  0  0  0
   -2.9545    5.4579   -0.0357 H   0  0  0  0  0  0  0  0  0  0  0  0
   -1.5971    4.7137    0.7909 H   0  0  0  0  0  0  0  0  0  0  0  0
   -3.1197    4.9622    1.6579 H   0  0  0  0  0  0  0  0  0  0  0  0
   -5.0716    2.4479   -0.4520 H   0  0  0  0  0  0  0  0  0  0  0  0
   -5.0450    4.2144   -0.5272 H   0  0  0  0  0  0  0  0  0  0  0  0
   -5.2239    3.3886    1.0395 H   0  0  0  0  0  0  0  0  0  0  0  0
    3.5841   -2.4695    0.4795 H   0  0  0  0  0  0  0  0  0  0  0  0
    2.4355   -2.2742    1.7986 H   0  0  0  0  0  0  0  0  0  0  0  0
    2.0158   -3.3036    0.4167 H   0  0  0  0  0  0  0  0  0  0  0  0
    3.0630    4.2508   -2.9789 H   0  0  0  0  0  0  0  0  0  0  0  0
  1  2  1  0  0  0  0
  1  7  1  6  0  0  0
  1  8  1  0  0  0  0
  2  3  1  0  0  0  0
  2 18  1  1  0  0  0
  3  4  1  0  0  0  0
  3 19  1  0  0  0  0
  3 26  1  6  0  0  0
  4  5  2  0  0  0  0
  4 16  1  0  0  0  0
  5 27  1  0  0  0  0
  6  5  1  0  0  0  0
  6  7  1  0  0  0  0
  6 28  1  1  0  0  0
  7 23  2  0  0  0  0
  8  9  2  0  0  0  0
  8 29  1  0  0  0  0
  9 10  1  0  0  0  0
  9 24  1  0  0  0  0
 10  2  1  0  0  0  0
 10 17  1  0  0  0  0
 10 30  1  6  0  0  0
 11 13  1  0  0  0  0
 11 31  1  0  0  0  0
 11 32  1  0  0  0  0
 12 11  1  0  0  0  0
 12 14  1  0  0  0  0
 12 15  1  0  0  0  0
 12 33  1  1  0  0  0
 13  1  1  0  0  0  0
 13 20  1  0  0  0  0
 13 34  1  1  0  0  0
 14  6  1  0  0  0  0
 14 15  1  0  0  0  0
 14 35  1  6  0  0  0
 15 21  1  0  0  0  0
 15 22  1  0  0  0  0
 16 25  1  0  0  0  0
 16 36  1  0  0  0  0
 16 37  1  0  0  0  0
 17 38  1  0  0  0  0
 18 39  1  0  0  0  0
 19 40  1  0  0  0  0
 20 41  1  0  0  0  0
 20 42  1  0  0  0  0
 20 43  1  0  0  0  0
 21 44  1  0  0  0  0
 21 45  1  0  0  0  0
 21 46  1  0  0  0  0
 22 47  1  0  0  0  0
 22 48  1  0  0  0  0
 22 49  1  0  0  0  0
 24 50  1  0  0  0  0
 24 51  1  0  0  0  0
 24 52  1  0  0  0  0
 25 53  1  0  0  0  0
M  END
>  <Mol_ID>
4384

>  <Formula>
C20H28O5

>  <MolWeight>
348.43332

>  <Cat>
S9101

>  <Name>
Ingenol

>  <Target>
PKC

>  <Form>
free base

>  <CAS>
30220-46-3

>  <URL>
https://www.selleckchem.com/products/ingenol.html

$$$$
