Ingliforib
 OpenBabel08302521353D

 56 59  0  0  0  0  0  0  0  0999 V2000
   -2.9321   -2.2060   -1.6315 C   0  0  0  0  0  0  0  0  0  0  0  0
   -1.6336   -2.3059   -1.1707 N   0  0  0  0  0  0  0  0  0  0  0  0
   -3.7338   -1.3997   -1.1754 O   0  0  0  0  0  0  0  0  0  0  0  0
   -1.1613   -1.4823   -0.0337 C   0  0  2  0  0  0  0  0  0  0  0  0
    0.4036   -1.4172    0.0712 C   0  0  2  0  0  0  0  0  0  0  0  0
   -1.8417   -2.0051    1.2591 C   0  0  0  0  0  0  0  0  0  0  0  0
    1.0183   -0.6443   -1.1261 C   0  0  0  0  0  0  0  0  0  0  0  0
    0.9752   -2.7088    0.2717 O   0  0  0  0  0  0  0  0  0  0  0  0
    0.3128   -0.2092   -2.0371 O   0  0  0  0  0  0  0  0  0  0  0  0
    4.9978   -0.7542   -2.7631 O   0  0  0  0  0  0  0  0  0  0  0  0
    5.8536   -0.5792   -0.2550 O   0  0  0  0  0  0  0  0  0  0  0  0
   -3.5470   -4.8261   -4.1909 C   0  0  0  0  0  0  0  0  0  0  0  0
   -4.7865   -4.2133   -4.0296 C   0  0  0  0  0  0  0  0  0  0  0  0
   -2.6287   -4.1503   -3.3364 C   0  0  0  0  0  0  0  0  0  0  0  0
   -3.4437   -5.9122   -5.0812 C   0  0  0  0  0  0  0  0  0  0  0  0
   -4.6135   -3.1991   -3.1178 N   0  0  0  0  0  0  0  0  0  0  0  0
   -5.9363   -4.6276   -4.7106 C   0  0  0  0  0  0  0  0  0  0  0  0
   -3.3128   -3.1570   -2.6545 C   0  0  0  0  0  0  0  0  0  0  0  0
   -4.5840   -6.3468   -5.7684 C   0  0  0  0  0  0  0  0  0  0  0  0
   -5.8108   -5.7127   -5.5833 C   0  0  0  0  0  0  0  0  0  0  0  0
   -1.6374   -1.1521    2.4866 C   0  0  0  0  0  0  0  0  0  0  0  0
   -2.4869   -0.0690    2.7574 C   0  0  0  0  0  0  0  0  0  0  0  0
   -0.6068   -1.4519    3.3829 C   0  0  0  0  0  0  0  0  0  0  0  0
   -2.3035    0.6971    3.9102 C   0  0  0  0  0  0  0  0  0  0  0  0
   -0.4227   -0.6808    4.5299 C   0  0  0  0  0  0  0  0  0  0  0  0
   -1.2709    0.3913    4.7948 C   0  0  0  0  0  0  0  0  0  0  0  0
    2.3816   -0.4254   -1.1617 N   0  0  0  0  0  0  0  0  0  0  0  0
    2.9414    0.4550   -2.1892 C   0  0  0  0  0  0  0  0  0  0  0  0
    3.4053   -0.8178   -0.1923 C   0  0  0  0  0  0  0  0  0  0  0  0
    4.4523    0.3489   -2.0211 C   0  0  1  0  0  0  0  0  0  0  0  0
    4.6167    0.0693   -0.5202 C   0  0  2  0  0  0  0  0  0  0  0  0
   -1.0142   -2.9589   -1.6199 H   0  0  0  0  0  0  0  0  0  0  0  0
   -1.5283   -0.4635   -0.2177 H   0  0  0  0  0  0  0  0  0  0  0  0
    0.6609   -0.8206    0.9536 H   0  0  0  0  0  0  0  0  0  0  0  0
   -2.9273   -2.0810    1.1060 H   0  0  0  0  0  0  0  0  0  0  0  0
   -1.5293   -3.0372    1.4642 H   0  0  0  0  0  0  0  0  0  0  0  0
    0.8419   -3.2218   -0.5412 H   0  0  0  0  0  0  0  0  0  0  0  0
    4.2910   -1.4168   -2.8750 H   0  0  0  0  0  0  0  0  0  0  0  0
    6.1216   -1.0002   -1.0989 H   0  0  0  0  0  0  0  0  0  0  0  0
   -1.5802   -4.3985   -3.2287 H   0  0  0  0  0  0  0  0  0  0  0  0
   -2.4930   -6.4151   -5.2308 H   0  0  0  0  0  0  0  0  0  0  0  0
   -5.3391   -2.5772   -2.7889 H   0  0  0  0  0  0  0  0  0  0  0  0
   -6.8923   -4.1356   -4.5678 H   0  0  0  0  0  0  0  0  0  0  0  0
   -4.5103   -7.1897   -6.4514 H   0  0  0  0  0  0  0  0  0  0  0  0
   -6.6858   -6.0665   -6.1251 H   0  0  0  0  0  0  0  0  0  0  0  0
   -3.3072    0.1728    2.0835 H   0  0  0  0  0  0  0  0  0  0  0  0
    0.0563   -2.2937    3.1924 H   0  0  0  0  0  0  0  0  0  0  0  0
   -2.9723    1.5278    4.1232 H   0  0  0  0  0  0  0  0  0  0  0  0
    0.3803   -0.9256    5.2212 H   0  0  0  0  0  0  0  0  0  0  0  0
   -1.1318    0.9840    5.6950 H   0  0  0  0  0  0  0  0  0  0  0  0
    2.5934    0.1419   -3.1753 H   0  0  0  0  0  0  0  0  0  0  0  0
    2.5849    1.4696   -1.9744 H   0  0  0  0  0  0  0  0  0  0  0  0
    3.6350   -1.8781   -0.3430 H   0  0  0  0  0  0  0  0  0  0  0  0
    3.0575   -0.6788    0.8333 H   0  0  0  0  0  0  0  0  0  0  0  0
    4.9804    1.2518   -2.3458 H   0  0  0  0  0  0  0  0  0  0  0  0
    4.5654    1.0052    0.0493 H   0  0  0  0  0  0  0  0  0  0  0  0
  1  2  1  0  0  0  0
  1  3  2  0  0  0  0
  1 18  1  0  0  0  0
  2 32  1  0  0  0  0
  4  6  1  0  0  0  0
  4 33  1  6  0  0  0
  4  5  1  0  0  0  0
  4  2  1  0  0  0  0
  5 34  1  1  0  0  0
  5  8  1  0  0  0  0
  5  7  1  0  0  0  0
  6 21  1  0  0  0  0
  6 35  1  0  0  0  0
  6 36  1  0  0  0  0
  7  9  2  0  0  0  0
  7 27  1  0  0  0  0
  8 37  1  0  0  0  0
 10 38  1  0  0  0  0
 11 39  1  0  0  0  0
 12 13  2  0  0  0  0
 12 14  1  0  0  0  0
 12 15  1  0  0  0  0
 13 16  1  0  0  0  0
 13 17  1  0  0  0  0
 14 18  2  0  0  0  0
 14 40  1  0  0  0  0
 15 19  2  0  0  0  0
 15 41  1  0  0  0  0
 16 18  1  0  0  0  0
 16 42  1  0  0  0  0
 17 20  2  0  0  0  0
 17 43  1  0  0  0  0
 19 20  1  0  0  0  0
 19 44  1  0  0  0  0
 20 45  1  0  0  0  0
 21 22  2  0  0  0  0
 21 23  1  0  0  0  0
 22 24  1  0  0  0  0
 22 46  1  0  0  0  0
 23 25  2  0  0  0  0
 23 47  1  0  0  0  0
 24 26  2  0  0  0  0
 24 48  1  0  0  0  0
 25 26  1  0  0  0  0
 25 49  1  0  0  0  0
 26 50  1  0  0  0  0
 27 28  1  0  0  0  0
 27 29  1  0  0  0  0
 28 30  1  0  0  0  0
 28 51  1  0  0  0  0
 28 52  1  0  0  0  0
 29 31  1  0  0  0  0
 29 53  1  0  0  0  0
 29 54  1  0  0  0  0
 30 10  1  0  0  0  0
 30 31  1  0  0  0  0
 30 55  1  6  0  0  0
 31 11  1  0  0  0  0
 31 56  1  1  0  0  0
M  END
>  <Mol_ID>
6608

>  <Formula>
C23H24ClN3O5

>  <MolWeight>
457.90676

>  <Cat>
S0031

>  <Name>
Ingliforib

>  <Synonyms>
CP 368296

>  <Target>
Phosphorylase

>  <Form>
Free base

>  <CAS>
186392-65-4

>  <URL>
http://www.selleckchem.com/products/ingliforib.html

$$$$
