INH1.cdx
 OpenBabel08302519583D

 38 40  0  0  0  0  0  0  0  0999 V2000
    0.8698    0.1299    0.1735 C   0  0  0  0  0  0  0  0  0  0  0  0
    0.1038    1.2441   -0.1034 N   0  0  0  0  0  0  0  0  0  0  0  0
   -1.2538    1.2289    0.0849 C   0  0  0  0  0  0  0  0  0  0  0  0
   -2.0816    2.6019   -0.4863 S   0  0  0  0  0  0  0  0  0  0  0  0
   -3.5642    1.8859    0.0251 C   0  0  0  0  0  0  0  0  0  0  0  0
   -3.3084    0.6845    0.6641 C   0  0  0  0  0  0  0  0  0  0  0  0
   -1.9838    0.3001    0.6379 N   0  0  0  0  0  0  0  0  0  0  0  0
   -4.3207   -0.1489    1.3103 C   0  0  0  0  0  0  0  0  0  0  0  0
   -4.0771   -0.8130    2.5299 C   0  0  0  0  0  0  0  0  0  0  0  0
   -5.0743   -1.6557    3.0646 C   0  0  0  0  0  0  0  0  0  0  0  0
   -6.3086   -1.8261    2.4276 C   0  0  0  0  0  0  0  0  0  0  0  0
   -6.5523   -1.1439    1.2386 C   0  0  0  0  0  0  0  0  0  0  0  0
   -5.5700   -0.3180    0.6825 C   0  0  0  0  0  0  0  0  0  0  0  0
   -2.7940   -0.7194    3.3170 C   0  0  0  0  0  0  0  0  0  0  0  0
   -7.3310   -2.7461    3.0236 C   0  0  0  0  0  0  0  0  0  0  0  0
    2.3264    0.2349   -0.1213 C   0  0  0  0  0  0  0  0  0  0  0  0
    0.4625   -0.9341    0.6290 O   0  0  0  0  0  0  0  0  0  0  0  0
    3.1807   -0.6711    0.5286 C   0  0  0  0  0  0  0  0  0  0  0  0
    4.5482   -0.6780    0.2545 C   0  0  0  0  0  0  0  0  0  0  0  0
    5.0742    0.2218   -0.6692 C   0  0  0  0  0  0  0  0  0  0  0  0
    4.2349    1.1295   -1.3163 C   0  0  0  0  0  0  0  0  0  0  0  0
    2.8625    1.1384   -1.0483 C   0  0  0  0  0  0  0  0  0  0  0  0
    0.4968    2.0981   -0.4583 H   0  0  0  0  0  0  0  0  0  0  0  0
   -4.5081    2.3889   -0.1321 H   0  0  0  0  0  0  0  0  0  0  0  0
   -4.8755   -2.1912    3.9907 H   0  0  0  0  0  0  0  0  0  0  0  0
   -7.5014   -1.2606    0.7187 H   0  0  0  0  0  0  0  0  0  0  0  0
   -5.7832    0.1679   -0.2649 H   0  0  0  0  0  0  0  0  0  0  0  0
   -3.0233   -0.5250    4.3723 H   0  0  0  0  0  0  0  0  0  0  0  0
   -2.2425   -1.6617    3.2465 H   0  0  0  0  0  0  0  0  0  0  0  0
   -2.1390    0.0950    3.0038 H   0  0  0  0  0  0  0  0  0  0  0  0
   -6.9284   -3.7616    3.0970 H   0  0  0  0  0  0  0  0  0  0  0  0
   -7.6156   -2.3992    4.0227 H   0  0  0  0  0  0  0  0  0  0  0  0
   -8.2387   -2.7894    2.4113 H   0  0  0  0  0  0  0  0  0  0  0  0
    2.7764   -1.3904    1.2374 H   0  0  0  0  0  0  0  0  0  0  0  0
    5.1954   -1.3942    0.7526 H   0  0  0  0  0  0  0  0  0  0  0  0
    6.1365    0.2057   -0.8952 H   0  0  0  0  0  0  0  0  0  0  0  0
    4.6502    1.8201   -2.0476 H   0  0  0  0  0  0  0  0  0  0  0  0
    2.2376    1.8273   -1.6058 H   0  0  0  0  0  0  0  0  0  0  0  0
  1  2  1  0  0  0  0
  1 16  1  0  0  0  0
  1 17  2  0  0  0  0
  2  3  1  0  0  0  0
  2 23  1  0  0  0  0
  3  4  1  0  0  0  0
  4  5  1  0  0  0  0
  5  6  2  0  0  0  0
  5 24  1  0  0  0  0
  6  7  1  0  0  0  0
  6  8  1  0  0  0  0
  7  3  2  0  0  0  0
  8  9  2  0  0  0  0
  9 10  1  0  0  0  0
  9 14  1  0  0  0  0
 10 11  2  0  0  0  0
 10 25  1  0  0  0  0
 11 12  1  0  0  0  0
 11 15  1  0  0  0  0
 12 13  2  0  0  0  0
 12 26  1  0  0  0  0
 13  8  1  0  0  0  0
 13 27  1  0  0  0  0
 14 28  1  0  0  0  0
 14 29  1  0  0  0  0
 14 30  1  0  0  0  0
 15 31  1  0  0  0  0
 15 32  1  0  0  0  0
 15 33  1  0  0  0  0
 16 18  2  0  0  0  0
 18 19  1  0  0  0  0
 18 34  1  0  0  0  0
 19 20  2  0  0  0  0
 19 35  1  0  0  0  0
 20 21  1  0  0  0  0
 20 36  1  0  0  0  0
 21 22  2  0  0  0  0
 21 37  1  0  0  0  0
 22 16  1  0  0  0  0
 22 38  1  0  0  0  0
M  END
>  <Mol_ID>
2420

>  <Formula>
C18H16N2OS

>  <MolWeight>
308.39744

>  <Cat>
S7493

>  <Name>
INH1

>  <Synonyms>
IBT 13131

>  <Target>
Microtubule Associated

>  <Form>
free base

>  <CAS>
313553-47-8

>  <URL>
http://selleckchem.com/products/inh1.html

$$$$
