INH14
 OpenBabel08302521233D

 34 35  0  0  0  0  0  0  0  0999 V2000
    2.7122   -0.7614    0.8466 O   0  0  0  0  0  0  0  0  0  0  0  0
    3.0280    0.7038   -0.9116 N   0  0  0  0  0  0  0  0  0  0  0  0
    0.9017    0.1733   -0.2390 N   0  0  0  0  0  0  0  0  0  0  0  0
    7.2456    0.6909   -1.3623 C   0  0  0  0  0  0  0  0  0  0  0  0
    8.7454    0.7263   -1.4971 C   0  0  0  0  0  0  0  0  0  0  0  0
    4.4373    0.6551   -1.0369 C   0  0  0  0  0  0  0  0  0  0  0  0
    6.6454   -0.1722   -0.4438 C   0  0  0  0  0  0  0  0  0  0  0  0
    6.4278    1.5134   -2.1448 C   0  0  0  0  0  0  0  0  0  0  0  0
    5.2566   -0.1883   -0.2847 C   0  0  0  0  0  0  0  0  0  0  0  0
    5.0363    1.4990   -1.9795 C   0  0  0  0  0  0  0  0  0  0  0  0
    9.2644   -0.2855   -2.5058 C   0  0  0  0  0  0  0  0  0  0  0  0
   -0.1494   -0.4613    0.4639 C   0  0  0  0  0  0  0  0  0  0  0  0
    2.2570   -0.0199   -0.0157 C   0  0  0  0  0  0  0  0  0  0  0  0
    0.0299   -1.1407    1.6733 C   0  0  0  0  0  0  0  0  0  0  0  0
   -1.4310   -0.4160   -0.0964 C   0  0  0  0  0  0  0  0  0  0  0  0
   -1.0392   -1.7953    2.2925 C   0  0  0  0  0  0  0  0  0  0  0  0
   -2.4999   -1.0745    0.5199 C   0  0  0  0  0  0  0  0  0  0  0  0
   -2.3017   -1.7691    1.7123 C   0  0  0  0  0  0  0  0  0  0  0  0
    2.5513    1.3815   -1.4844 H   0  0  0  0  0  0  0  0  0  0  0  0
    0.6437    0.6592   -1.0830 H   0  0  0  0  0  0  0  0  0  0  0  0
    9.0649    1.7350   -1.7845 H   0  0  0  0  0  0  0  0  0  0  0  0
    9.2013    0.5341   -0.5176 H   0  0  0  0  0  0  0  0  0  0  0  0
    7.2505   -0.8379    0.1684 H   0  0  0  0  0  0  0  0  0  0  0  0
    6.8691    2.1796   -2.8826 H   0  0  0  0  0  0  0  0  0  0  0  0
    4.8565   -0.8780    0.4501 H   0  0  0  0  0  0  0  0  0  0  0  0
    4.4353    2.1595   -2.5983 H   0  0  0  0  0  0  0  0  0  0  0  0
    8.8758   -0.0807   -3.5088 H   0  0  0  0  0  0  0  0  0  0  0  0
   10.3576   -0.2434   -2.5500 H   0  0  0  0  0  0  0  0  0  0  0  0
    8.9761   -1.3065   -2.2338 H   0  0  0  0  0  0  0  0  0  0  0  0
    0.9920   -1.1794    2.1710 H   0  0  0  0  0  0  0  0  0  0  0  0
   -1.6131    0.1046   -1.0324 H   0  0  0  0  0  0  0  0  0  0  0  0
   -0.8708   -2.3284    3.2238 H   0  0  0  0  0  0  0  0  0  0  0  0
   -3.4866   -1.0564    0.0659 H   0  0  0  0  0  0  0  0  0  0  0  0
   -3.1272   -2.2901    2.1895 H   0  0  0  0  0  0  0  0  0  0  0  0
  1 13  2  0  0  0  0
  2  6  1  0  0  0  0
  2 13  1  0  0  0  0
  2 19  1  0  0  0  0
  3 12  1  0  0  0  0
  3 13  1  0  0  0  0
  3 20  1  0  0  0  0
  4  5  1  0  0  0  0
  4  7  2  0  0  0  0
  4  8  1  0  0  0  0
  5 11  1  0  0  0  0
  5 21  1  0  0  0  0
  5 22  1  0  0  0  0
  6  9  2  0  0  0  0
  6 10  1  0  0  0  0
  7  9  1  0  0  0  0
  7 23  1  0  0  0  0
  8 10  2  0  0  0  0
  8 24  1  0  0  0  0
  9 25  1  0  0  0  0
 10 26  1  0  0  0  0
 11 27  1  0  0  0  0
 11 28  1  0  0  0  0
 11 29  1  0  0  0  0
 12 14  2  0  0  0  0
 12 15  1  0  0  0  0
 14 16  1  0  0  0  0
 14 30  1  0  0  0  0
 15 17  2  0  0  0  0
 15 31  1  0  0  0  0
 16 18  2  0  0  0  0
 16 32  1  0  0  0  0
 17 18  1  0  0  0  0
 17 33  1  0  0  0  0
 18 34  1  0  0  0  0
M  END
>  <Mol_ID>
4766

>  <Formula>
C15H16N2O

>  <MolWeight>
240.30034

>  <Cat>
S6714

>  <Name>
INH14

>  <Synonyms>
N/A

>  <Target>
I¦ÊB/IKK,NF-¦ÊB

>  <Form>
Free Base

>  <CAS>
200134-22-1

>  <URL>
http://www.selleck.cn/products/inh14.html

$$$$
