INH6.cdx
 OpenBabel08302519583D

 41 43  0  0  0  0  0  0  0  0999 V2000
   -1.2532    0.4666    0.0676 C   0  0  0  0  0  0  0  0  0  0  0  0
   -0.9426   -0.7326   -0.5654 C   0  0  0  0  0  0  0  0  0  0  0  0
    0.3662   -1.2629   -0.5500 C   0  0  0  0  0  0  0  0  0  0  0  0
    1.4191   -0.5408    0.0814 C   0  0  0  0  0  0  0  0  0  0  0  0
    1.0991    0.6854    0.7228 C   0  0  0  0  0  0  0  0  0  0  0  0
   -0.2334    1.1552    0.7205 C   0  0  0  0  0  0  0  0  0  0  0  0
    2.8135   -1.0093    0.0326 C   0  0  0  0  0  0  0  0  0  0  0  0
    2.0885    1.5555    1.4572 C   0  0  0  0  0  0  0  0  0  0  0  0
    0.5112   -2.5932   -1.2493 C   0  0  0  0  0  0  0  0  0  0  0  0
   -2.6522    1.0052    0.0639 C   0  0  0  0  0  0  0  0  0  0  0  0
    3.4032   -1.4840   -1.1249 C   0  0  0  0  0  0  0  0  0  0  0  0
    5.0171   -1.9357   -0.8248 S   0  0  0  0  0  0  0  0  0  0  0  0
    4.8965   -1.3019    0.7536 C   0  0  0  0  0  0  0  0  0  0  0  0
    3.6862   -0.9420    1.1247 N   0  0  0  0  0  0  0  0  0  0  0  0
    5.9967   -1.1895    1.5829 N   0  0  0  0  0  0  0  0  0  0  0  0
    7.3077   -1.3336    1.1807 C   0  0  0  0  0  0  0  0  0  0  0  0
    8.3637   -1.1495    2.2174 C   0  0  0  0  0  0  0  0  0  0  0  0
    7.6999   -1.5716    0.0427 O   0  0  0  0  0  0  0  0  0  0  0  0
    8.1540   -1.4053    3.5761 C   0  0  0  0  0  0  0  0  0  0  0  0
    9.2230   -1.2973    4.4742 C   0  0  0  0  0  0  0  0  0  0  0  0
   10.4962   -0.9403    4.0240 C   0  0  0  0  0  0  0  0  0  0  0  0
   10.7079   -0.6781    2.6735 C   0  0  0  0  0  0  0  0  0  0  0  0
    9.6467   -0.7821    1.7754 C   0  0  0  0  0  0  0  0  0  0  0  0
   -1.7320   -1.2811   -1.0789 H   0  0  0  0  0  0  0  0  0  0  0  0
   -0.4707    2.0879    1.2318 H   0  0  0  0  0  0  0  0  0  0  0  0
    1.9114    2.6092    1.2108 H   0  0  0  0  0  0  0  0  0  0  0  0
    1.9623    1.4256    2.5374 H   0  0  0  0  0  0  0  0  0  0  0  0
    3.1293    1.3663    1.1949 H   0  0  0  0  0  0  0  0  0  0  0  0
   -0.2819   -3.2738   -0.9189 H   0  0  0  0  0  0  0  0  0  0  0  0
    0.4197   -2.4529   -2.3325 H   0  0  0  0  0  0  0  0  0  0  0  0
    1.4481   -3.1085   -1.0366 H   0  0  0  0  0  0  0  0  0  0  0  0
   -3.0386    1.0575    1.0866 H   0  0  0  0  0  0  0  0  0  0  0  0
   -2.6724    2.0048   -0.3819 H   0  0  0  0  0  0  0  0  0  0  0  0
   -3.3266    0.3677   -0.5178 H   0  0  0  0  0  0  0  0  0  0  0  0
    2.9756   -1.6149   -2.1070 H   0  0  0  0  0  0  0  0  0  0  0  0
    5.7722   -0.8128    2.4946 H   0  0  0  0  0  0  0  0  0  0  0  0
    7.1887   -1.7281    3.9522 H   0  0  0  0  0  0  0  0  0  0  0  0
    9.0691   -1.5152    5.5298 H   0  0  0  0  0  0  0  0  0  0  0  0
   11.3267   -0.8825    4.7220 H   0  0  0  0  0  0  0  0  0  0  0  0
   11.6982   -0.4112    2.3130 H   0  0  0  0  0  0  0  0  0  0  0  0
    9.8271   -0.5933    0.7178 H   0  0  0  0  0  0  0  0  0  0  0  0
  1  2  2  0  0  0  0
  1 10  1  0  0  0  0
  2  3  1  0  0  0  0
  2 24  1  0  0  0  0
  3  4  2  0  0  0  0
  3  9  1  0  0  0  0
  4  5  1  0  0  0  0
  4  7  1  0  0  0  0
  5  6  2  0  0  0  0
  5  8  1  0  0  0  0
  6  1  1  0  0  0  0
  6 25  1  0  0  0  0
  7 11  2  0  0  0  0
  8 26  1  0  0  0  0
  8 27  1  0  0  0  0
  8 28  1  0  0  0  0
  9 29  1  0  0  0  0
  9 30  1  0  0  0  0
  9 31  1  0  0  0  0
 10 32  1  0  0  0  0
 10 33  1  0  0  0  0
 10 34  1  0  0  0  0
 11 12  1  0  0  0  0
 11 35  1  0  0  0  0
 12 13  1  0  0  0  0
 13 14  2  0  0  0  0
 13 15  1  0  0  0  0
 14  7  1  0  0  0  0
 15 16  1  0  0  0  0
 15 36  1  0  0  0  0
 16 17  1  0  0  0  0
 16 18  2  0  0  0  0
 17 19  2  0  0  0  0
 19 20  1  0  0  0  0
 19 37  1  0  0  0  0
 20 21  2  0  0  0  0
 20 38  1  0  0  0  0
 21 22  1  0  0  0  0
 21 39  1  0  0  0  0
 22 23  2  0  0  0  0
 22 40  1  0  0  0  0
 23 17  1  0  0  0  0
 23 41  1  0  0  0  0
M  END
>  <Mol_ID>
2428

>  <Formula>
C19H18N2OS

>  <MolWeight>
322.42402

>  <Cat>
S7494

>  <Name>
INH6

>  <Synonyms>
N/A

>  <Target>
Microtubule Associated

>  <Form>
free base

>  <CAS>
1001753-24-7

>  <URL>
http://selleckchem.com/products/inh6.html

$$$$
