INK 128.cdx
 OpenBabel08302521433D

 38 41  0  0  0  0  0  0  0  0999 V2000
   -2.1166   -0.6747   -0.0243 N   0  0  0  0  0  0  0  0  0  0  0  0
   -1.9920    0.6719   -0.0133 C   0  0  0  0  0  0  0  0  0  0  0  0
   -0.8665    1.3994   -0.0011 N   0  0  0  0  0  0  0  0  0  0  0  0
    0.2280    0.6187    0.0011 C   0  0  0  0  0  0  0  0  0  0  0  0
    0.2487   -0.7651   -0.0105 C   0  0  0  0  0  0  0  0  0  0  0  0
   -0.9961   -1.4199   -0.0134 C   0  0  0  0  0  0  0  0  0  0  0  0
    1.5363    1.0232    0.0069 N   0  0  0  0  0  0  0  0  0  0  0  0
    2.4075   -0.0079    0.0151 N   0  0  0  0  0  0  0  0  0  0  0  0
    1.6317   -1.1066   -0.0220 C   0  0  0  0  0  0  0  0  0  0  0  0
    2.0274    2.3969    0.0021 C   0  0  0  0  0  0  0  0  0  0  0  0
    2.8712    2.6960    1.2417 C   0  0  0  0  0  0  0  0  0  0  0  0
    2.8054    2.7134   -1.2761 C   0  0  0  0  0  0  0  0  0  0  0  0
   -1.1896   -2.7857   -0.0389 N   0  0  0  0  0  0  0  0  0  0  0  0
    2.2405   -2.4363   -0.0930 C   0  0  0  0  0  0  0  0  0  0  0  0
    3.4654   -2.6749    0.5512 C   0  0  0  0  0  0  0  0  0  0  0  0
    4.0621   -3.9313    0.3910 C   0  0  0  0  0  0  0  0  0  0  0  0
    3.4060   -4.9051   -0.3461 C   0  0  0  0  0  0  0  0  0  0  0  0
    2.1774   -4.7404   -0.9575 C   0  0  0  0  0  0  0  0  0  0  0  0
    1.6330   -3.4626   -0.8448 C   0  0  0  0  0  0  0  0  0  0  0  0
    5.2622   -4.4120    0.8340 N   0  0  0  0  0  0  0  0  0  0  0  0
    5.2991   -5.6269    0.3200 C   0  0  0  0  0  0  0  0  0  0  0  0
    4.2017   -6.0077   -0.3780 O   0  0  0  0  0  0  0  0  0  0  0  0
    6.2876   -6.5157    0.4037 N   0  0  0  0  0  0  0  0  0  0  0  0
   -2.9242    1.2184   -0.0110 H   0  0  0  0  0  0  0  0  0  0  0  0
    1.1467    3.0500    0.0303 H   0  0  0  0  0  0  0  0  0  0  0  0
    3.7733    2.0751    1.2772 H   0  0  0  0  0  0  0  0  0  0  0  0
    3.1874    3.7452    1.2515 H   0  0  0  0  0  0  0  0  0  0  0  0
    2.3007    2.5073    2.1572 H   0  0  0  0  0  0  0  0  0  0  0  0
    2.1868    2.5411   -2.1636 H   0  0  0  0  0  0  0  0  0  0  0  0
    3.1228    3.7620   -1.2865 H   0  0  0  0  0  0  0  0  0  0  0  0
    3.7021    2.0910   -1.3693 H   0  0  0  0  0  0  0  0  0  0  0  0
   -0.4484   -3.3878    0.3007 H   0  0  0  0  0  0  0  0  0  0  0  0
   -2.1320   -3.0913    0.1067 H   0  0  0  0  0  0  0  0  0  0  0  0
    3.9696   -1.9013    1.1186 H   0  0  0  0  0  0  0  0  0  0  0  0
    1.7083   -5.5269   -1.5379 H   0  0  0  0  0  0  0  0  0  0  0  0
    0.7129   -3.2707   -1.3900 H   0  0  0  0  0  0  0  0  0  0  0  0
    6.9882   -6.3498    1.1169 H   0  0  0  0  0  0  0  0  0  0  0  0
    6.0696   -7.4854    0.2236 H   0  0  0  0  0  0  0  0  0  0  0  0
  1  2  2  0  0  0  0
  2  3  1  0  0  0  0
  2 24  1  0  0  0  0
  3  4  2  0  0  0  0
  4  5  1  0  0  0  0
  4  7  1  0  0  0  0
  5  6  2  0  0  0  0
  6  1  1  0  0  0  0
  6 13  1  0  0  0  0
  7  8  1  0  0  0  0
  7 10  1  0  0  0  0
  8  9  2  0  0  0  0
  9  5  1  0  0  0  0
  9 14  1  0  0  0  0
 10 11  1  0  0  0  0
 10 12  1  0  0  0  0
 10 25  1  0  0  0  0
 11 26  1  0  0  0  0
 11 27  1  0  0  0  0
 11 28  1  0  0  0  0
 12 29  1  0  0  0  0
 12 30  1  0  0  0  0
 12 31  1  0  0  0  0
 13 32  1  0  0  0  0
 13 33  1  0  0  0  0
 14 15  2  0  0  0  0
 15 16  1  0  0  0  0
 15 34  1  0  0  0  0
 16 17  2  0  0  0  0
 16 20  1  0  0  0  0
 17 18  1  0  0  0  0
 18 19  2  0  0  0  0
 18 35  1  0  0  0  0
 19 14  1  0  0  0  0
 19 36  1  0  0  0  0
 20 21  2  0  0  0  0
 21 22  1  0  0  0  0
 21 23  1  0  0  0  0
 22 17  1  0  0  0  0
 23 37  1  0  0  0  0
 23 38  1  0  0  0  0
M  END
>  <Mol_ID>
892

>  <Formula>
C15H15N7O

>  <MolWeight>
309.3259

>  <Cat>
S2811

>  <Name>
Sapanisertib (MLN0128)

>  <Synonyms>
INK 128,TAK-228

>  <Target>
mTOR

>  <Form>
free base

>  <CAS>
1224844-38-5

>  <URL>
http://selleckchem.com/products/ink128.html

$$$$
