ino-1001.cdx
 OpenBabel08302521353D

 18 18  0  0  0  0  0  0  0  0999 V2000
   -1.8700    0.0254    0.0333 C   0  0  0  0  0  0  0  0  0  0  0  0
   -1.1471    1.2194    0.0109 C   0  0  0  0  0  0  0  0  0  0  0  0
    0.2482    1.1943   -0.0252 C   0  0  0  0  0  0  0  0  0  0  0  0
    0.9413   -0.0170    0.0005 C   0  0  0  0  0  0  0  0  0  0  0  0
    0.2097   -1.2076   -0.0253 C   0  0  0  0  0  0  0  0  0  0  0  0
   -1.1956   -1.2003    0.0099 C   0  0  0  0  0  0  0  0  0  0  0  0
    2.3278   -0.0365   -0.1887 N   0  0  0  0  0  0  0  0  0  0  0  0
   -1.8951   -2.5179    0.0043 C   0  0  0  0  0  0  0  0  0  0  0  0
   -1.2731   -3.5749   -0.0263 O   0  0  0  0  0  0  0  0  0  0  0  0
   -3.2610   -2.5394    0.0368 N   0  0  0  0  0  0  0  0  0  0  0  0
   -2.9516    0.0864    0.0498 H   0  0  0  0  0  0  0  0  0  0  0  0
   -1.6698    2.1727    0.0031 H   0  0  0  0  0  0  0  0  0  0  0  0
    0.7924    2.1338   -0.0777 H   0  0  0  0  0  0  0  0  0  0  0  0
    0.7358   -2.1591   -0.0751 H   0  0  0  0  0  0  0  0  0  0  0  0
    2.7763   -0.8916    0.1267 H   0  0  0  0  0  0  0  0  0  0  0  0
    2.8063    0.7960    0.1396 H   0  0  0  0  0  0  0  0  0  0  0  0
   -3.8597   -1.7303    0.0483 H   0  0  0  0  0  0  0  0  0  0  0  0
   -3.6988   -3.4516    0.0208 H   0  0  0  0  0  0  0  0  0  0  0  0
  1  2  2  0  0  0  0
  1 11  1  0  0  0  0
  2  3  1  0  0  0  0
  2 12  1  0  0  0  0
  3  4  2  0  0  0  0
  3 13  1  0  0  0  0
  4  5  1  0  0  0  0
  4  7  1  0  0  0  0
  5  6  2  0  0  0  0
  5 14  1  0  0  0  0
  6  1  1  0  0  0  0
  6  8  1  0  0  0  0
  7 15  1  0  0  0  0
  7 16  1  0  0  0  0
  8  9  2  0  0  0  0
  8 10  1  0  0  0  0
 10 17  1  0  0  0  0
 10 18  1  0  0  0  0
M  END
>  <Mol_ID>
76

>  <Formula>
C7H8N2O

>  <MolWeight>
136.15122

>  <Cat>
S1132

>  <Name>
3-Aminobenzamide

>  <Synonyms>
3-ABA , 3-amino Benzamide, 3-AB

>  <Target>
Apoptosis related,PARP

>  <Form>
free base

>  <CAS>
3544-24-9

>  <URL>
https://www.selleckchem.com/products/3-aminobenzamide.html

$$$$
