Inosine.cdx
 OpenBabel08302522003D

 31 33  0  0  0  0  0  0  0  0999 V2000
    1.6354    0.5073    0.2347 O   0  0  0  0  0  0  0  0  0  0  0  0
    1.3142   -0.7697   -0.3766 C   0  0  1  0  0  0  0  0  0  0  0  0
   -0.2083   -0.8604   -0.4223 C   0  0  2  0  0  0  0  0  0  0  0  0
   -0.6362    0.5917   -0.5313 C   0  0  2  0  0  0  0  0  0  0  0  0
    0.4225    1.2919    0.3249 C   0  0  2  0  0  0  0  0  0  0  0  0
   -0.7468   -1.3932    0.8017 O   0  0  0  0  0  0  0  0  0  0  0  0
   -1.9709    0.7787   -0.0711 O   0  0  0  0  0  0  0  0  0  0  0  0
    1.9659   -0.8123   -1.7610 C   0  0  0  0  0  0  0  0  0  0  0  0
    3.3838   -0.7338   -1.6304 O   0  0  0  0  0  0  0  0  0  0  0  0
    1.4802    3.0279   -1.1751 C   0  0  0  0  0  0  0  0  0  0  0  0
    1.2904    4.2896   -1.5065 N   0  0  0  0  0  0  0  0  0  0  0  0
    0.3499    4.7395   -0.6141 C   0  0  0  0  0  0  0  0  0  0  0  0
   -0.0035    3.7519    0.2812 C   0  0  0  0  0  0  0  0  0  0  0  0
    0.6780    2.6441   -0.1305 N   0  0  0  0  0  0  0  0  0  0  0  0
   -0.3200    6.0178   -0.5116 C   0  0  0  0  0  0  0  0  0  0  0  0
   -1.2275    6.0518    0.5376 N   0  0  0  0  0  0  0  0  0  0  0  0
   -1.4665    4.9816    1.3787 C   0  0  0  0  0  0  0  0  0  0  0  0
   -0.8927    3.8201    1.3016 N   0  0  0  0  0  0  0  0  0  0  0  0
   -0.1535    6.9794   -1.2552 O   0  0  0  0  0  0  0  0  0  0  0  0
    1.7518   -1.5438    0.2633 H   0  0  0  0  0  0  0  0  0  0  0  0
   -0.5942   -1.4780   -1.2384 H   0  0  0  0  0  0  0  0  0  0  0  0
   -0.5837    0.9258   -1.5737 H   0  0  0  0  0  0  0  0  0  0  0  0
    0.1364    1.3393    1.3831 H   0  0  0  0  0  0  0  0  0  0  0  0
   -0.1293   -1.2093    1.5336 H   0  0  0  0  0  0  0  0  0  0  0  0
   -2.1278    0.0982    0.6153 H   0  0  0  0  0  0  0  0  0  0  0  0
    1.7275   -1.7468   -2.2771 H   0  0  0  0  0  0  0  0  0  0  0  0
    1.6506    0.0265   -2.3879 H   0  0  0  0  0  0  0  0  0  0  0  0
    3.5788    0.0457   -1.0763 H   0  0  0  0  0  0  0  0  0  0  0  0
    2.1573    2.3496   -1.6759 H   0  0  0  0  0  0  0  0  0  0  0  0
   -1.7359    6.9157    0.6434 H   0  0  0  0  0  0  0  0  0  0  0  0
   -2.2177    5.1956    2.1593 H   0  0  0  0  0  0  0  0  0  0  0  0
  1  2  1  0  0  0  0
  2  3  1  0  0  0  0
  2 20  1  1  0  0  0
  2  8  1  0  0  0  0
  3  4  1  0  0  0  0
  3  6  1  0  0  0  0
  3 21  1  6  0  0  0
  4  5  1  0  0  0  0
  4  7  1  0  0  0  0
  4 22  1  6  0  0  0
  5  1  1  0  0  0  0
  5 23  1  1  0  0  0
  5 14  1  0  0  0  0
  6 24  1  0  0  0  0
  7 25  1  0  0  0  0
  8  9  1  0  0  0  0
  8 26  1  0  0  0  0
  8 27  1  0  0  0  0
  9 28  1  0  0  0  0
 10 11  2  0  0  0  0
 10 29  1  0  0  0  0
 11 12  1  0  0  0  0
 12 13  2  0  0  0  0
 12 15  1  0  0  0  0
 13 14  1  0  0  0  0
 14 10  1  0  0  0  0
 15 16  1  0  0  0  0
 15 19  2  0  0  0  0
 16 17  1  0  0  0  0
 16 30  1  0  0  0  0
 17 18  2  0  0  0  0
 17 31  1  0  0  0  0
 18 13  1  0  0  0  0
M  END
>  <Mol_ID>
1040

>  <Formula>
C10H12N4O5

>  <MolWeight>
268.22608

>  <Cat>
S2442

>  <Name>
Inosine

>  <Synonyms>
NSC 20262, INO 495

>  <Target>
Others

>  <Form>
free base

>  <CAS>
58-63-9

>  <URL>
http://selleckchem.com/products/inosine.html

$$$$
