inulicin
 OpenBabel08302521493D

 46 47  0  0  1  0  0  0  0  0999 V2000
    0.9851    0.1522   -0.4806 O   0  0  0  0  0  0  0  0  0  0  0  0
    5.0601   -1.6547   -0.7814 C   0  0  0  0  0  0  0  0  0  0  0  0
    3.9757    3.6100    0.2408 C   0  0  0  0  0  0  0  0  0  0  0  0
    5.9786   -0.9237   -3.4808 O   0  0  0  0  0  0  0  0  0  0  0  0
    2.6354    1.3838    1.9370 C   0  0  2  0  0  0  0  0  0  0  0  0
    3.4962    0.3813    2.7475 C   0  0  0  0  0  0  0  0  0  0  0  0
    1.1441    1.2351    2.2731 C   0  0  0  0  0  0  0  0  0  0  0  0
    5.0205    0.5160    2.5800 C   0  0  0  0  0  0  0  0  0  0  0  0
    5.5986    1.8456    3.0615 C   0  0  0  0  0  0  0  0  0  0  0  0
    7.0110    1.9232    2.7916 O   0  0  0  0  0  0  0  0  0  0  0  0
    7.8345    1.4192    3.7480 C   0  0  0  0  0  0  0  0  0  0  0  0
    9.2666    1.7320    3.4280 C   0  0  0  0  0  0  0  0  0  0  0  0
    7.4713    0.8453    4.7675 O   0  0  0  0  0  0  0  0  0  0  0  0
    3.2259    0.9054   -2.4778 C   0  0  1  0  0  0  0  0  0  0  0  0
    3.0236   -0.3138   -1.6042 C   0  0  2  0  0  0  0  0  0  0  0  0
    3.8253    2.1222   -1.7612 C   0  0  0  0  0  0  0  0  0  0  0  0
    4.1497    0.4702   -3.4914 O   0  0  0  0  0  0  0  0  0  0  0  0
    2.3957    0.0283   -0.2563 C   0  0  1  0  0  0  0  0  0  0  0  0
    4.3862   -0.9075   -1.6656 C   0  0  0  0  0  0  0  0  0  0  0  0
    3.5007    2.2775   -0.2910 C   0  0  0  0  0  0  0  0  0  0  0  0
    4.9692   -0.4888   -2.9632 C   0  0  0  0  0  0  0  0  0  0  0  0
    2.8835    1.3038    0.4225 C   0  0  0  0  0  0  0  0  0  0  0  0
    0.7734    1.0986   -0.5633 H   0  0  0  0  0  0  0  0  0  0  0  0
    6.0691   -1.9984   -0.9982 H   0  0  0  0  0  0  0  0  0  0  0  0
    4.6272   -1.9542    0.1665 H   0  0  0  0  0  0  0  0  0  0  0  0
    5.0659    3.6777    0.1611 H   0  0  0  0  0  0  0  0  0  0  0  0
    3.5362    4.4234   -0.3465 H   0  0  0  0  0  0  0  0  0  0  0  0
    3.7065    3.8131    1.2763 H   0  0  0  0  0  0  0  0  0  0  0  0
    2.8929    2.3748    2.3133 H   0  0  0  0  0  0  0  0  0  0  0  0
    3.2538    0.4866    3.8129 H   0  0  0  0  0  0  0  0  0  0  0  0
    3.2179   -0.6462    2.4829 H   0  0  0  0  0  0  0  0  0  0  0  0
    0.7691    0.2280    2.0650 H   0  0  0  0  0  0  0  0  0  0  0  0
    0.9623    1.4379    3.3335 H   0  0  0  0  0  0  0  0  0  0  0  0
    0.5462    1.9514    1.6966 H   0  0  0  0  0  0  0  0  0  0  0  0
    5.4997   -0.2941    3.1445 H   0  0  0  0  0  0  0  0  0  0  0  0
    5.3124    0.3470    1.5379 H   0  0  0  0  0  0  0  0  0  0  0  0
    5.1557    2.6783    2.5172 H   0  0  0  0  0  0  0  0  0  0  0  0
    5.3912    2.0223    4.1237 H   0  0  0  0  0  0  0  0  0  0  0  0
    9.5326    2.6983    3.8636 H   0  0  0  0  0  0  0  0  0  0  0  0
    9.9092    0.9499    3.8416 H   0  0  0  0  0  0  0  0  0  0  0  0
    9.4243    1.7562    2.3461 H   0  0  0  0  0  0  0  0  0  0  0  0
    2.2835    1.1886   -2.9623 H   0  0  0  0  0  0  0  0  0  0  0  0
    2.3607   -1.0105   -2.1397 H   0  0  0  0  0  0  0  0  0  0  0  0
    3.5007    3.0198   -2.3035 H   0  0  0  0  0  0  0  0  0  0  0  0
    4.9203    2.1101   -1.8567 H   0  0  0  0  0  0  0  0  0  0  0  0
    2.5209   -0.8314    0.4083 H   0  0  0  0  0  0  0  0  0  0  0  0
  1 23  1  0  0  0  0
  2 19  2  0  0  0  0
  2 24  1  0  0  0  0
  2 25  1  0  0  0  0
  3 20  1  0  0  0  0
  3 26  1  0  0  0  0
  3 27  1  0  0  0  0
  3 28  1  0  0  0  0
  4 21  2  0  0  0  0
  5 22  1  0  0  0  0
  5 29  1  1  0  0  0
  5  7  1  0  0  0  0
  5  6  1  0  0  0  0
  6  8  1  0  0  0  0
  6 30  1  0  0  0  0
  6 31  1  0  0  0  0
  7 32  1  0  0  0  0
  7 33  1  0  0  0  0
  7 34  1  0  0  0  0
  8  9  1  0  0  0  0
  8 35  1  0  0  0  0
  8 36  1  0  0  0  0
  9 10  1  0  0  0  0
  9 37  1  0  0  0  0
  9 38  1  0  0  0  0
 10 11  1  0  0  0  0
 11 12  1  0  0  0  0
 11 13  2  0  0  0  0
 12 39  1  0  0  0  0
 12 40  1  0  0  0  0
 12 41  1  0  0  0  0
 14 15  1  0  0  0  0
 14 16  1  0  0  0  0
 14 17  1  0  0  0  0
 14 42  1  6  0  0  0
 15 18  1  0  0  0  0
 15 19  1  0  0  0  0
 15 43  1  6  0  0  0
 16 20  1  0  0  0  0
 16 44  1  0  0  0  0
 16 45  1  0  0  0  0
 17 21  1  0  0  0  0
 18  1  1  0  0  0  0
 18 22  1  0  0  0  0
 18 46  1  1  0  0  0
 19 21  1  0  0  0  0
 20 22  2  0  0  0  0
M  END
>  <Mol_ID>
9848

>  <Formula>
C17H24O5

>  <MolWeight>
308.36946

>  <Cat>
E2534

>  <Name>
inulicin

>  <Synonyms>
1-O-Acetylbritannilactone

>  <Target>
VEGFR, Src, FAK, NF-¦ÊB, COX, I¦ÊB/IKK

>  <Form>
free base

>  <CAS>
33627-41-7

>  <URL>
https://www.selleckchem.com/products/inulicin.html

$$$$
