INVEGA (paliperidone).cdx
 OpenBabel08302521393D

 58 62  0  0  0  0  0  0  0  0999 V2000
    4.6484   -0.7702   -0.3595 C   0  0  0  0  0  0  0  0  0  0  0  0
    4.7270    0.4849    0.1197 C   0  0  0  0  0  0  0  0  0  0  0  0
    5.9538    0.8190    0.8849 C   0  0  0  0  0  0  0  0  0  0  0  0
    6.7236   -0.2539    1.2958 N   0  0  0  0  0  0  0  0  0  0  0  0
    6.5909   -1.4578    0.6506 C   0  0  0  0  0  0  0  0  0  0  0  0
    5.6304   -1.7152   -0.1838 N   0  0  0  0  0  0  0  0  0  0  0  0
    7.8470    0.0563    2.1728 C   0  0  0  0  0  0  0  0  0  0  0  0
    8.5667   -1.1598    2.7277 C   0  0  0  0  0  0  0  0  0  0  0  0
    8.8874   -2.0993    1.5857 C   0  0  0  0  0  0  0  0  0  0  0  0
    7.5975   -2.5929    0.9543 C   0  0  3  0  0  0  0  0  0  0  0  0
    6.2355    1.9919    1.1198 O   0  0  0  0  0  0  0  0  0  0  0  0
    3.4303   -1.2656   -1.0960 C   0  0  0  0  0  0  0  0  0  0  0  0
    3.6467    1.5417    0.0889 C   0  0  0  0  0  0  0  0  0  0  0  0
    3.7423    2.5528   -1.0767 C   0  0  0  0  0  0  0  0  0  0  0  0
    2.5617    3.4447   -1.1353 N   0  0  0  0  0  0  0  0  0  0  0  0
    2.5004    4.4022   -0.0242 C   0  0  0  0  0  0  0  0  0  0  0  0
    1.1186    5.0589   -0.0026 C   0  0  0  0  0  0  0  0  0  0  0  0
    0.7210    5.7265   -1.3436 C   0  0  3  0  0  0  0  0  0  0  0  0
    1.0950    4.8377   -2.5384 C   0  0  0  0  0  0  0  0  0  0  0  0
    2.4899    4.2010   -2.3931 C   0  0  0  0  0  0  0  0  0  0  0  0
   -0.7149    6.2451   -1.3140 C   0  0  0  0  0  0  0  0  0  0  0  0
   -1.7696    6.3196   -2.2927 C   0  0  0  0  0  0  0  0  0  0  0  0
   -2.7489    7.0819   -1.6630 C   0  0  0  0  0  0  0  0  0  0  0  0
   -2.3538    7.3682   -0.4016 O   0  0  0  0  0  0  0  0  0  0  0  0
   -1.1004    6.8591   -0.1793 N   0  0  0  0  0  0  0  0  0  0  0  0
   -2.0383    5.8997   -3.6136 C   0  0  0  0  0  0  0  0  0  0  0  0
   -3.2458    6.3026   -4.2261 C   0  0  0  0  0  0  0  0  0  0  0  0
   -4.1648    7.0989   -3.5435 C   0  0  0  0  0  0  0  0  0  0  0  0
   -3.9404    7.5111   -2.2374 C   0  0  0  0  0  0  0  0  0  0  0  0
   -5.2858    7.4916   -4.1671 F   0  0  0  0  0  0  0  0  0  0  0  0
    7.9546   -3.3406   -0.2026 O   0  0  0  0  0  0  0  0  0  0  0  0
    7.4764    0.6706    3.0026 H   0  0  0  0  0  0  0  0  0  0  0  0
    8.5475    0.6783    1.6027 H   0  0  0  0  0  0  0  0  0  0  0  0
    7.9399   -1.6713    3.4684 H   0  0  0  0  0  0  0  0  0  0  0  0
    9.4855   -0.8500    3.2371 H   0  0  0  0  0  0  0  0  0  0  0  0
    9.5083   -1.5933    0.8343 H   0  0  0  0  0  0  0  0  0  0  0  0
    9.4782   -2.9516    1.9422 H   0  0  0  0  0  0  0  0  0  0  0  0
    7.0911   -3.2825    1.6427 H   0  0  0  0  0  0  0  0  0  0  0  0
    2.5360   -1.1960   -0.4679 H   0  0  0  0  0  0  0  0  0  0  0  0
    3.2720   -0.6914   -2.0142 H   0  0  0  0  0  0  0  0  0  0  0  0
    3.5387   -2.3185   -1.3807 H   0  0  0  0  0  0  0  0  0  0  0  0
    2.6615    1.0600    0.0619 H   0  0  0  0  0  0  0  0  0  0  0  0
    3.6712    2.0710    1.0489 H   0  0  0  0  0  0  0  0  0  0  0  0
    4.6750    3.1273   -1.0253 H   0  0  0  0  0  0  0  0  0  0  0  0
    3.7772    1.9678   -2.0054 H   0  0  0  0  0  0  0  0  0  0  0  0
    3.2893    5.1637   -0.1072 H   0  0  0  0  0  0  0  0  0  0  0  0
    2.6423    3.9118    0.9438 H   0  0  0  0  0  0  0  0  0  0  0  0
    1.1165    5.8090    0.8001 H   0  0  0  0  0  0  0  0  0  0  0  0
    0.3712    4.3049    0.2781 H   0  0  0  0  0  0  0  0  0  0  0  0
    1.3442    6.6291   -1.4304 H   0  0  0  0  0  0  0  0  0  0  0  0
    0.3543    4.0402   -2.6705 H   0  0  0  0  0  0  0  0  0  0  0  0
    1.0832    5.4396   -3.4561 H   0  0  0  0  0  0  0  0  0  0  0  0
    2.6546    3.5404   -3.2521 H   0  0  0  0  0  0  0  0  0  0  0  0
    3.2701    4.9743   -2.4342 H   0  0  0  0  0  0  0  0  0  0  0  0
   -1.3465    5.2780   -4.1718 H   0  0  0  0  0  0  0  0  0  0  0  0
   -3.4798    6.0021   -5.2419 H   0  0  0  0  0  0  0  0  0  0  0  0
   -4.6537    8.1221   -1.6943 H   0  0  0  0  0  0  0  0  0  0  0  0
    7.5801   -2.8665   -0.9684 H   0  0  0  0  0  0  0  0  0  0  0  0
  1  2  2  0  0  0  0
  1 12  1  0  0  0  0
  2  3  1  0  0  0  0
  2 13  1  0  0  0  0
  3  4  1  0  0  0  0
  3 11  2  0  0  0  0
  4  5  1  0  0  0  0
  4  7  1  0  0  0  0
  5  6  2  0  0  0  0
  6  1  1  0  0  0  0
  7  8  1  0  0  0  0
  7 32  1  0  0  0  0
  7 33  1  0  0  0  0
  8  9  1  0  0  0  0
  8 34  1  0  0  0  0
  8 35  1  0  0  0  0
  9 10  1  0  0  0  0
  9 36  1  0  0  0  0
  9 37  1  0  0  0  0
 10  5  1  0  0  0  0
 10 31  1  0  0  0  0
 10 38  1  0  0  0  0
 12 39  1  0  0  0  0
 12 40  1  0  0  0  0
 12 41  1  0  0  0  0
 13 14  1  0  0  0  0
 13 42  1  0  0  0  0
 13 43  1  0  0  0  0
 14 15  1  0  0  0  0
 14 44  1  0  0  0  0
 14 45  1  0  0  0  0
 15 16  1  0  0  0  0
 16 17  1  0  0  0  0
 16 46  1  0  0  0  0
 16 47  1  0  0  0  0
 17 18  1  0  0  0  0
 17 48  1  0  0  0  0
 17 49  1  0  0  0  0
 18 19  1  0  0  0  0
 18 21  1  0  0  0  0
 18 50  1  0  0  0  0
 19 20  1  0  0  0  0
 19 51  1  0  0  0  0
 19 52  1  0  0  0  0
 20 15  1  0  0  0  0
 20 53  1  0  0  0  0
 20 54  1  0  0  0  0
 21 22  1  0  0  0  0
 22 23  2  0  0  0  0
 22 26  1  0  0  0  0
 23 24  1  0  0  0  0
 24 25  1  0  0  0  0
 25 21  2  0  0  0  0
 26 27  2  0  0  0  0
 26 55  1  0  0  0  0
 27 28  1  0  0  0  0
 27 56  1  0  0  0  0
 28 29  2  0  0  0  0
 28 30  1  0  0  0  0
 29 23  1  0  0  0  0
 29 57  1  0  0  0  0
 31 58  1  0  0  0  0
M  END
>  <Mol_ID>
8164

>  <Formula>
C23H27FN4O3

>  <MolWeight>
426.4838832

>  <Cat>
S1724

>  <Name>
Paliperidone

>  <Synonyms>
N/A

>  <Target>
Dopamine Receptor

>  <Form>
free base

>  <CAS>
144598-75-4

>  <URL>
http://selleckchem.com/products/Paliperidone(Invega).html

$$$$
