Iodoacetamide
 OpenBabel08302521303D

  9  8  0  0  0  0  0  0  0  0999 V2000
    0.9319    0.0862    0.0505 C   0  0  0  0  0  0  0  0  0  0  0  0
    0.2001   -1.0844   -0.5700 C   0  0  0  0  0  0  0  0  0  0  0  0
    0.3643    1.0561    0.5456 O   0  0  0  0  0  0  0  0  0  0  0  0
    2.2944    0.0194    0.0218 N   0  0  0  0  0  0  0  0  0  0  0  0
   -0.1907   -2.5073    0.9429 I   0  0  0  0  0  0  0  0  0  0  0  0
   -0.7232   -0.7110   -1.0264 H   0  0  0  0  0  0  0  0  0  0  0  0
    0.8068   -1.5138   -1.3727 H   0  0  0  0  0  0  0  0  0  0  0  0
    2.8042   -0.8037   -0.2680 H   0  0  0  0  0  0  0  0  0  0  0  0
    2.8048    0.7663    0.4764 H   0  0  0  0  0  0  0  0  0  0  0  0
  1  2  1  0  0  0  0
  1  3  2  0  0  0  0
  1  4  1  0  0  0  0
  2  5  1  0  0  0  0
  2  6  1  0  0  0  0
  2  7  1  0  0  0  0
  4  8  1  0  0  0  0
  4  9  1  0  0  0  0
M  END
>  <Mol_ID>
5719

>  <Formula>
C2H4INO

>  <MolWeight>
184.96373

>  <Cat>
S9827

>  <Name>
Iodoacetamide

>  <Synonyms>
IA, IAM, 2-Iodoacetamide

>  <Target>
Others

>  <Form>
Free Base

>  <CAS>
144-48-9

>  <URL>
http://www.selleckchem.com/products/iodoacetamide.html

$$$$
