IOX1.cdx
 OpenBabel08302519583D

 21 22  0  0  0  0  0  0  0  0999 V2000
    2.3045    1.1076   -0.0149 C   0  0  0  0  0  0  0  0  0  0  0  0
    2.7993   -0.1653    0.1087 C   0  0  0  0  0  0  0  0  0  0  0  0
    1.8878   -1.2155    0.1565 C   0  0  0  0  0  0  0  0  0  0  0  0
    0.4923   -0.9817    0.0508 C   0  0  0  0  0  0  0  0  0  0  0  0
    0.0927    0.3752   -0.0428 C   0  0  0  0  0  0  0  0  0  0  0  0
    0.9895    1.3849   -0.0855 N   0  0  0  0  0  0  0  0  0  0  0  0
   -0.5150   -1.9908    0.0592 C   0  0  0  0  0  0  0  0  0  0  0  0
   -1.8758   -1.6504    0.0175 C   0  0  0  0  0  0  0  0  0  0  0  0
   -2.2591   -0.3187   -0.0433 C   0  0  0  0  0  0  0  0  0  0  0  0
   -1.2776    0.6691   -0.0722 C   0  0  0  0  0  0  0  0  0  0  0  0
   -1.6759    1.9874   -0.1206 O   0  0  0  0  0  0  0  0  0  0  0  0
   -0.2425   -3.4499    0.1500 C   0  0  0  0  0  0  0  0  0  0  0  0
    0.7401   -3.8899   -0.6606 O   0  0  0  0  0  0  0  0  0  0  0  0
   -0.9215   -4.1966    0.8351 O   0  0  0  0  0  0  0  0  0  0  0  0
    2.9590    1.9759   -0.0531 H   0  0  0  0  0  0  0  0  0  0  0  0
    3.8674   -0.3395    0.1784 H   0  0  0  0  0  0  0  0  0  0  0  0
    2.2871   -2.2171    0.2988 H   0  0  0  0  0  0  0  0  0  0  0  0
   -2.6398   -2.4264    0.0431 H   0  0  0  0  0  0  0  0  0  0  0  0
   -3.3153   -0.0678   -0.0617 H   0  0  0  0  0  0  0  0  0  0  0  0
   -2.6380    2.0458   -0.0143 H   0  0  0  0  0  0  0  0  0  0  0  0
    1.0856   -3.2276   -1.2882 H   0  0  0  0  0  0  0  0  0  0  0  0
  1  2  2  0  0  0  0
  1 15  1  0  0  0  0
  2  3  1  0  0  0  0
  2 16  1  0  0  0  0
  3  4  2  0  0  0  0
  3 17  1  0  0  0  0
  4  5  1  0  0  0  0
  4  7  1  0  0  0  0
  5  6  2  0  0  0  0
  6  1  1  0  0  0  0
  7  8  2  0  0  0  0
  7 12  1  0  0  0  0
  8  9  1  0  0  0  0
  8 18  1  0  0  0  0
  9 10  2  0  0  0  0
  9 19  1  0  0  0  0
 10  5  1  0  0  0  0
 10 11  1  0  0  0  0
 11 20  1  0  0  0  0
 12 13  1  0  0  0  0
 12 14  2  0  0  0  0
 13 21  1  0  0  0  0
M  END
>  <Mol_ID>
2412

>  <Formula>
C10H7NO3

>  <MolWeight>
189.16748

>  <Cat>
S7234

>  <Name>
IOX1

>  <Synonyms>
N/A

>  <Target>
Histone Demethylase,JMJD

>  <Form>
free base

>  <CAS>
5852-78-8

>  <URL>
http://selleckchem.com/products/iox1.html

$$$$
