IOX4
 OpenBabel08302521233D

 40 42  0  0  0  0  0  0  0  0999 V2000
   -0.5984    1.1062   -0.0275 C   0  0  0  0  0  0  0  0  0  0  0  0
    0.7747    1.2552    0.0573 C   0  0  0  0  0  0  0  0  0  0  0  0
    1.5493    0.1005    0.1210 C   0  0  0  0  0  0  0  0  0  0  0  0
    0.9115   -1.1502    0.1067 C   0  0  0  0  0  0  0  0  0  0  0  0
   -0.4796   -1.2094    0.0230 C   0  0  0  0  0  0  0  0  0  0  0  0
   -1.2228   -0.0874   -0.0405 N   0  0  0  0  0  0  0  0  0  0  0  0
    1.2875    2.6332    0.0682 C   0  0  0  0  0  0  0  0  0  0  0  0
    0.5242    3.5864    0.0401 O   0  0  0  0  0  0  0  0  0  0  0  0
    2.6415    2.6854    0.1031 O   0  0  0  0  0  0  0  0  0  0  0  0
   -1.1621   -2.4358    0.0090 N   0  0  0  0  0  0  0  0  0  0  0  0
   -0.5363   -3.6792    0.1827 N   0  0  0  0  0  0  0  0  0  0  0  0
   -1.5629   -4.6018    0.1443 C   0  0  0  0  0  0  0  0  0  0  0  0
   -2.7667   -4.0795   -0.1401 C   0  0  0  0  0  0  0  0  0  0  0  0
   -2.5237   -2.6163   -0.2269 C   0  0  0  0  0  0  0  0  0  0  0  0
   -3.9820   -4.7236   -0.2881 N   0  0  0  0  0  0  0  0  0  0  0  0
   -4.2004   -6.0664   -0.1387 N   0  0  0  0  0  0  0  0  0  0  0  0
   -5.4756   -6.3363   -0.3856 N   0  0  0  0  0  0  0  0  0  0  0  0
   -6.1005   -5.1737   -0.6948 C   0  0  0  0  0  0  0  0  0  0  0  0
   -5.1967   -4.1458   -0.6303 C   0  0  0  0  0  0  0  0  0  0  0  0
   -3.4010   -1.7984   -0.4571 O   0  0  0  0  0  0  0  0  0  0  0  0
    3.2682    3.9979    0.0672 C   0  0  0  0  0  0  0  0  0  0  0  0
    2.9021    4.8198    1.3123 C   0  0  0  0  0  0  0  0  0  0  0  0
    4.7858    3.7546    0.0781 C   0  0  0  0  0  0  0  0  0  0  0  0
    2.9212    4.7334   -1.2358 C   0  0  0  0  0  0  0  0  0  0  0  0
   -1.2692    1.9614   -0.0826 H   0  0  0  0  0  0  0  0  0  0  0  0
    2.6319    0.1518    0.1739 H   0  0  0  0  0  0  0  0  0  0  0  0
    1.5128   -2.0522    0.1329 H   0  0  0  0  0  0  0  0  0  0  0  0
    0.0177   -3.7478    1.0386 H   0  0  0  0  0  0  0  0  0  0  0  0
   -1.3330   -5.6420    0.3437 H   0  0  0  0  0  0  0  0  0  0  0  0
   -7.1479   -5.1285   -0.9509 H   0  0  0  0  0  0  0  0  0  0  0  0
   -5.3037   -3.0880   -0.8147 H   0  0  0  0  0  0  0  0  0  0  0  0
    3.1885    4.2871    2.2265 H   0  0  0  0  0  0  0  0  0  0  0  0
    3.3996    5.7949    1.3064 H   0  0  0  0  0  0  0  0  0  0  0  0
    1.8277    5.0055    1.3924 H   0  0  0  0  0  0  0  0  0  0  0  0
    5.0904    3.1369   -0.7744 H   0  0  0  0  0  0  0  0  0  0  0  0
    5.3404    4.6991    0.0325 H   0  0  0  0  0  0  0  0  0  0  0  0
    5.0964    3.2170    0.9808 H   0  0  0  0  0  0  0  0  0  0  0  0
    3.1822    4.1176   -2.1043 H   0  0  0  0  0  0  0  0  0  0  0  0
    1.8540    4.9527   -1.3244 H   0  0  0  0  0  0  0  0  0  0  0  0
    3.4534    5.6869   -1.3090 H   0  0  0  0  0  0  0  0  0  0  0  0
  1  2  2  0  0  0  0
  1  6  1  0  0  0  0
  1 25  1  0  0  0  0
  2  3  1  0  0  0  0
  2  7  1  0  0  0  0
  3  4  2  0  0  0  0
  3 26  1  0  0  0  0
  4  5  1  0  0  0  0
  4 27  1  0  0  0  0
  5  6  2  0  0  0  0
  5 10  1  0  0  0  0
  7  8  2  0  0  0  0
  7  9  1  0  0  0  0
  9 21  1  0  0  0  0
 10 11  1  0  0  0  0
 10 14  1  0  0  0  0
 11 12  1  0  0  0  0
 11 28  1  0  0  0  0
 12 13  2  0  0  0  0
 12 29  1  0  0  0  0
 13 14  1  0  0  0  0
 13 15  1  0  0  0  0
 14 20  2  0  0  0  0
 15 16  1  0  0  0  0
 15 19  1  0  0  0  0
 16 17  2  0  0  0  0
 17 18  1  0  0  0  0
 18 19  2  0  0  0  0
 18 30  1  0  0  0  0
 19 31  1  0  0  0  0
 21 22  1  0  0  0  0
 21 23  1  0  0  0  0
 21 24  1  0  0  0  0
 22 32  1  0  0  0  0
 22 33  1  0  0  0  0
 22 34  1  0  0  0  0
 23 35  1  0  0  0  0
 23 36  1  0  0  0  0
 23 37  1  0  0  0  0
 24 38  1  0  0  0  0
 24 39  1  0  0  0  0
 24 40  1  0  0  0  0
M  END
>  <Mol_ID>
4888

>  <Formula>
C15H16N6O3

>  <MolWeight>
328.32594

>  <Cat>
S6684

>  <Name>
IOX4

>  <Synonyms>
N/A

>  <Target>
HIF

>  <Form>
Free Base

>  <CAS>
1154097-71-8

>  <URL>
http://www.selleck.cn/products/iox4.html

$$$$
