IPI-9119
 OpenBabel08302521353D

 55 58  0  0  0  0  0  0  0  0999 V2000
    0.8541    0.1049    0.0881 C   0  0  0  0  0  0  0  0  0  0  0  0
    0.2133    1.0426   -0.8670 C   0  0  0  0  0  0  0  0  0  0  0  0
    0.8468    1.5584   -1.9935 C   0  0  0  0  0  0  0  0  0  0  0  0
    0.1438    2.3397   -2.9625 C   0  0  0  0  0  0  0  0  0  0  0  0
   -1.1881    2.7710   -2.7309 C   0  0  0  0  0  0  0  0  0  0  0  0
   -1.7682    2.2154   -1.5653 C   0  0  0  0  0  0  0  0  0  0  0  0
   -1.1136    1.3607   -0.6681 C   0  0  0  0  0  0  0  0  0  0  0  0
    0.2209   -0.7412    0.6975 O   0  0  0  0  0  0  0  0  0  0  0  0
    2.1763    0.2937    0.2524 O   0  0  0  0  0  0  0  0  0  0  0  0
    0.8681    2.7425   -4.0659 O   0  0  0  0  0  0  0  0  0  0  0  0
    1.6105    1.8077   -4.7780 C   0  0  0  0  0  0  0  0  0  0  0  0
    1.4811    0.4138   -4.6932 C   0  0  0  0  0  0  0  0  0  0  0  0
    2.3482   -0.4221   -5.4012 C   0  0  0  0  0  0  0  0  0  0  0  0
    3.3041    0.1273   -6.2530 C   0  0  0  0  0  0  0  0  0  0  0  0
    3.3915    1.5117   -6.3972 C   0  0  0  0  0  0  0  0  0  0  0  0
    2.5517    2.3434   -5.6602 C   0  0  0  0  0  0  0  0  0  0  0  0
   -1.9854    3.7518   -3.5304 N   0  0  0  0  0  0  0  0  0  0  0  0
   -3.0717    4.4871   -2.8100 C   0  0  0  0  0  0  0  0  0  0  0  0
   -4.3864    3.6826   -2.7455 C   0  0  0  0  0  0  0  0  0  0  0  0
   -2.6904    5.1567   -1.4794 C   0  0  0  0  0  0  0  0  0  0  0  0
   -1.7664    3.9529   -4.9339 C   0  0  0  0  0  0  0  0  0  0  0  0
   -0.9720    3.2768   -5.5942 O   0  0  0  0  0  0  0  0  0  0  0  0
   -2.5225    4.9479   -5.6331 N   0  0  0  0  0  0  0  0  0  0  0  0
   -1.9742    5.3842   -6.8491 N   0  0  0  0  0  0  0  0  0  0  0  0
   -2.8220    6.0599   -7.5132 N   0  0  0  0  0  0  0  0  0  0  0  0
   -3.9839    6.1147   -6.8192 N   0  0  0  0  0  0  0  0  0  0  0  0
   -3.8917    5.3160   -5.6909 C   0  0  0  0  0  0  0  0  0  0  0  0
   -4.8282    4.9989   -4.9796 O   0  0  0  0  0  0  0  0  0  0  0  0
   -5.1466    6.7551   -7.2969 C   0  0  0  0  0  0  0  0  0  0  0  0
   -6.1336    7.2205   -6.4112 C   0  0  0  0  0  0  0  0  0  0  0  0
   -7.3306    7.7795   -6.8601 C   0  0  0  0  0  0  0  0  0  0  0  0
   -7.5691    7.9056   -8.2237 C   0  0  0  0  0  0  0  0  0  0  0  0
   -6.5915    7.4841   -9.1239 C   0  0  0  0  0  0  0  0  0  0  0  0
   -5.3920    6.9279   -8.6615 C   0  0  0  0  0  0  0  0  0  0  0  0
   -4.5141    6.4921   -9.5764 F   0  0  0  0  0  0  0  0  0  0  0  0
   -5.9259    7.2232   -5.0847 F   0  0  0  0  0  0  0  0  0  0  0  0
    1.8879    1.3068   -2.1811 H   0  0  0  0  0  0  0  0  0  0  0  0
   -2.7868    2.4115   -1.2771 H   0  0  0  0  0  0  0  0  0  0  0  0
   -1.6578    0.9644    0.1883 H   0  0  0  0  0  0  0  0  0  0  0  0
    2.5437    1.0942   -0.1630 H   0  0  0  0  0  0  0  0  0  0  0  0
    0.7214   -0.0525   -4.0737 H   0  0  0  0  0  0  0  0  0  0  0  0
    2.2726   -1.5029   -5.2910 H   0  0  0  0  0  0  0  0  0  0  0  0
    3.9670   -0.5254   -6.8145 H   0  0  0  0  0  0  0  0  0  0  0  0
    4.1117    1.9358   -7.0908 H   0  0  0  0  0  0  0  0  0  0  0  0
    2.6197    3.4210   -5.7812 H   0  0  0  0  0  0  0  0  0  0  0  0
   -3.2673    5.3803   -3.3999 H   0  0  0  0  0  0  0  0  0  0  0  0
   -4.4141    2.8794   -2.0136 H   0  0  0  0  0  0  0  0  0  0  0  0
   -5.2234    4.3431   -2.4977 H   0  0  0  0  0  0  0  0  0  0  0  0
   -4.5938    3.1859   -3.6998 H   0  0  0  0  0  0  0  0  0  0  0  0
   -1.8393    5.8312   -1.6277 H   0  0  0  0  0  0  0  0  0  0  0  0
   -3.5309    5.7609   -1.1166 H   0  0  0  0  0  0  0  0  0  0  0  0
   -2.4284    4.4704   -0.6751 H   0  0  0  0  0  0  0  0  0  0  0  0
   -8.0692    8.1175   -6.1331 H   0  0  0  0  0  0  0  0  0  0  0  0
   -8.5042    8.3306   -8.5794 H   0  0  0  0  0  0  0  0  0  0  0  0
   -6.7626    7.5668  -10.1941 H   0  0  0  0  0  0  0  0  0  0  0  0
  1  2  1  0  0  0  0
  1  8  2  0  0  0  0
  1  9  1  0  0  0  0
  2  3  2  0  0  0  0
  2  7  1  0  0  0  0
  3  4  1  0  0  0  0
  3 37  1  0  0  0  0
  4  5  2  0  0  0  0
  4 10  1  0  0  0  0
  5  6  1  0  0  0  0
  5 17  1  0  0  0  0
  6  7  2  0  0  0  0
  6 38  1  0  0  0  0
  7 39  1  0  0  0  0
  9 40  1  0  0  0  0
 10 11  1  0  0  0  0
 11 12  2  0  0  0  0
 11 16  1  0  0  0  0
 12 13  1  0  0  0  0
 12 41  1  0  0  0  0
 13 14  2  0  0  0  0
 13 42  1  0  0  0  0
 14 15  1  0  0  0  0
 14 43  1  0  0  0  0
 15 16  2  0  0  0  0
 15 44  1  0  0  0  0
 16 45  1  0  0  0  0
 17 18  1  0  0  0  0
 17 21  1  0  0  0  0
 18 19  1  0  0  0  0
 18 20  1  0  0  0  0
 18 46  1  0  0  0  0
 19 47  1  0  0  0  0
 19 48  1  0  0  0  0
 19 49  1  0  0  0  0
 20 50  1  0  0  0  0
 20 51  1  0  0  0  0
 20 52  1  0  0  0  0
 21 22  2  0  0  0  0
 21 23  1  0  0  0  0
 23 24  1  0  0  0  0
 23 27  1  0  0  0  0
 24 25  2  0  0  0  0
 25 26  1  0  0  0  0
 26 27  1  0  0  0  0
 26 29  1  0  0  0  0
 27 28  2  0  0  0  0
 29 30  2  0  0  0  0
 29 34  1  0  0  0  0
 30 31  1  0  0  0  0
 30 36  1  0  0  0  0
 31 32  2  0  0  0  0
 31 53  1  0  0  0  0
 32 33  1  0  0  0  0
 32 54  1  0  0  0  0
 33 34  2  0  0  0  0
 33 55  1  0  0  0  0
 34 35  1  0  0  0  0
M  END
>  <Mol_ID>
6864

>  <Formula>
C24H19F2N5O5

>  <MolWeight>
495.4349664

>  <Cat>
E2667

>  <Name>
IPI-9119

>  <Target>
Fatty Acid Synthase

>  <Form>
Free base

>  <CAS>
1346564-56-4

>  <URL>
http://www.selleckchem.com/products/ipi-9119.html

$$$$
