Iproniazid phosphate
 OpenBabel08302521303D

 34 33  0  0  0  0  0  0  0  0999 V2000
    1.0125    0.0910   -0.0395 P   0  0  0  0  0  0  0  0  0  0  0  0
    3.8494   -2.9263   -1.5870 O   0  0  0  0  0  0  0  0  0  0  0  0
    0.8653   -1.4544    0.4553 O   0  0  0  0  0  0  0  0  0  0  0  0
    0.8966    0.7802    1.4299 O   0  0  0  0  0  0  0  0  0  0  0  0
   -0.7175    0.0910   -0.0395 O   0  0  0  0  0  0  0  0  0  0  0  0
    2.5609    0.0910   -0.0395 O   0  0  0  0  0  0  0  0  0  0  0  0
    4.2336   -0.4131   -2.5134 N   0  0  0  0  0  0  0  0  0  0  0  0
    4.8391   -0.8718   -1.3007 N   0  0  0  0  0  0  0  0  0  0  0  0
    4.7031   -3.3139    3.2822 N   0  0  0  0  0  0  0  0  0  0  0  0
    5.1818   -0.2084   -3.6199 C   0  0  0  0  0  0  0  0  0  0  0  0
    5.9748   -1.4648   -3.9767 C   0  0  0  0  0  0  0  0  0  0  0  0
    4.3550    0.2365   -4.8346 C   0  0  0  0  0  0  0  0  0  0  0  0
    4.4120   -2.1228   -0.8398 C   0  0  0  0  0  0  0  0  0  0  0  0
    4.5831   -2.4788    0.6056 C   0  0  0  0  0  0  0  0  0  0  0  0
    4.4363   -3.8278    0.9475 C   0  0  0  0  0  0  0  0  0  0  0  0
    4.7894   -1.5479    1.6258 C   0  0  0  0  0  0  0  0  0  0  0  0
    4.5031   -4.1905    2.2817 C   0  0  0  0  0  0  0  0  0  0  0  0
    4.8336   -2.0143    2.9345 C   0  0  0  0  0  0  0  0  0  0  0  0
    1.1120   -2.0653   -0.2669 H   0  0  0  0  0  0  0  0  0  0  0  0
    1.7206    0.5518    1.9013 H   0  0  0  0  0  0  0  0  0  0  0  0
   -0.9451   -0.2344    0.8534 H   0  0  0  0  0  0  0  0  0  0  0  0
    3.5547   -1.1275   -2.7915 H   0  0  0  0  0  0  0  0  0  0  0  0
    4.9848   -0.1446   -0.5940 H   0  0  0  0  0  0  0  0  0  0  0  0
    5.8777    0.5994   -3.3678 H   0  0  0  0  0  0  0  0  0  0  0  0
    5.3225   -2.3366   -4.0940 H   0  0  0  0  0  0  0  0  0  0  0  0
    6.5149   -1.3257   -4.9203 H   0  0  0  0  0  0  0  0  0  0  0  0
    6.7167   -1.6909   -3.2044 H   0  0  0  0  0  0  0  0  0  0  0  0
    3.8617    1.1968   -4.6454 H   0  0  0  0  0  0  0  0  0  0  0  0
    4.9884    0.3579   -5.7198 H   0  0  0  0  0  0  0  0  0  0  0  0
    3.5770   -0.4964   -5.0831 H   0  0  0  0  0  0  0  0  0  0  0  0
    4.2579   -4.5855    0.1883 H   0  0  0  0  0  0  0  0  0  0  0  0
    4.8592   -0.4876    1.4489 H   0  0  0  0  0  0  0  0  0  0  0  0
    4.3818   -5.2270    2.5848 H   0  0  0  0  0  0  0  0  0  0  0  0
    4.9699   -1.3308    3.7713 H   0  0  0  0  0  0  0  0  0  0  0  0
  1  3  1  0  0  0  0
  1  4  1  0  0  0  0
  1  5  1  0  0  0  0
  1  6  2  0  0  0  0
  2 13  2  0  0  0  0
  3 19  1  0  0  0  0
  4 20  1  0  0  0  0
  5 21  1  0  0  0  0
  7  8  1  0  0  0  0
  7 10  1  0  0  0  0
  7 22  1  0  0  0  0
  8 13  1  0  0  0  0
  8 23  1  0  0  0  0
  9 17  2  0  0  0  0
  9 18  1  0  0  0  0
 10 11  1  0  0  0  0
 10 12  1  0  0  0  0
 10 24  1  0  0  0  0
 11 25  1  0  0  0  0
 11 26  1  0  0  0  0
 11 27  1  0  0  0  0
 12 28  1  0  0  0  0
 12 29  1  0  0  0  0
 12 30  1  0  0  0  0
 13 14  1  0  0  0  0
 14 15  2  0  0  0  0
 14 16  1  0  0  0  0
 15 17  1  0  0  0  0
 15 31  1  0  0  0  0
 16 18  2  0  0  0  0
 16 32  1  0  0  0  0
 17 33  1  0  0  0  0
 18 34  1  0  0  0  0
M  END
>  <Mol_ID>
5603

>  <Formula>
C9H16N3O5P

>  <MolWeight>
277.214201

>  <Cat>
S4483

>  <Name>
Iproniazid phosphate

>  <Synonyms>
N/A

>  <Target>
MAO

>  <Form>
Phosphate

>  <CAS>
305-33-9

>  <URL>
http://www.selleckchem.com/products/iproniazid-phosphate.html

$$$$
