IQ-1S
 OpenBabel08302521233D

 28 31  0  0  0  0  0  0  0  0999 V2000
    1.1406    1.6679   -0.0010 N   0  0  0  0  0  0  0  0  0  0  0  0
    0.5537   -1.1547   -0.0020 N   0  0  0  0  0  0  0  0  0  0  0  0
   -1.4478    3.1880   -0.0011 N   0  0  0  0  0  0  0  0  0  0  0  0
   -0.0988    1.1521   -0.0018 C   0  0  0  0  0  0  0  0  0  0  0  0
   -0.3896   -0.2000   -0.0020 C   0  0  0  0  0  0  0  0  0  0  0  0
   -1.8127   -0.4021   -0.0026 C   0  0  0  0  0  0  0  0  0  0  0  0
   -2.4527    0.8535   -0.0018 C   0  0  0  0  0  0  0  0  0  0  0  0
   -1.3786    1.8935   -0.0015 C   0  0  0  0  0  0  0  0  0  0  0  0
    2.1143    0.7298   -0.0007 C   0  0  0  0  0  0  0  0  0  0  0  0
    1.8216   -0.6788   -0.0013 C   0  0  0  0  0  0  0  0  0  0  0  0
   -2.5500   -1.5756   -0.0024 C   0  0  0  0  0  0  0  0  0  0  0  0
   -3.8333    0.9557   -0.0012 C   0  0  0  0  0  0  0  0  0  0  0  0
    3.4429    1.1345   -0.0002 C   0  0  0  0  0  0  0  0  0  0  0  0
   -3.9445   -1.4807   -0.0018 C   0  0  0  0  0  0  0  0  0  0  0  0
    2.8770   -1.5813   -0.0012 C   0  0  0  0  0  0  0  0  0  0  0  0
   -4.5795   -0.2269   -0.0014 C   0  0  0  0  0  0  0  0  0  0  0  0
    4.4883    0.2087   -0.0005 C   0  0  0  0  0  0  0  0  0  0  0  0
    4.2050   -1.1510   -0.0012 C   0  0  0  0  0  0  0  0  0  0  0  0
   -2.7605    3.6590   -0.0006 O   0  0  0  0  0  0  0  0  0  0  0  0
   -2.0575   -2.5438   -0.0025 H   0  0  0  0  0  0  0  0  0  0  0  0
   -4.3387    1.9139   -0.0005 H   0  0  0  0  0  0  0  0  0  0  0  0
    3.6697    2.1981    0.0003 H   0  0  0  0  0  0  0  0  0  0  0  0
   -4.5469   -2.3866   -0.0018 H   0  0  0  0  0  0  0  0  0  0  0  0
    2.6599   -2.6471   -0.0014 H   0  0  0  0  0  0  0  0  0  0  0  0
   -5.6666   -0.1754   -0.0008 H   0  0  0  0  0  0  0  0  0  0  0  0
    5.5206    0.5533    0.0001 H   0  0  0  0  0  0  0  0  0  0  0  0
    5.0127   -1.8794   -0.0011 H   0  0  0  0  0  0  0  0  0  0  0  0
   -2.6332    4.6261    0.0000 H   0  0  0  0  0  0  0  0  0  0  0  0
  1  4  2  0  0  0  0
  1  9  1  0  0  0  0
  2  5  2  0  0  0  0
  2 10  1  0  0  0  0
  3  8  2  0  0  0  0
  3 19  1  0  0  0  0
  4  5  1  0  0  0  0
  4  8  1  0  0  0  0
  5  6  1  0  0  0  0
  6  7  2  0  0  0  0
  6 11  1  0  0  0  0
  7  8  1  0  0  0  0
  7 12  1  0  0  0  0
  9 10  2  0  0  0  0
  9 13  1  0  0  0  0
 10 15  1  0  0  0  0
 11 14  2  0  0  0  0
 11 20  1  0  0  0  0
 12 16  2  0  0  0  0
 12 21  1  0  0  0  0
 13 17  2  0  0  0  0
 13 22  1  0  0  0  0
 14 16  1  0  0  0  0
 14 23  1  0  0  0  0
 15 18  2  0  0  0  0
 15 24  1  0  0  0  0
 16 25  1  0  0  0  0
 17 18  1  0  0  0  0
 17 26  1  0  0  0  0
 18 27  1  0  0  0  0
 19 28  1  0  0  0  0
M  END
>  <Mol_ID>
4763

>  <Formula>
C15H9N3O

>  <MolWeight>
247.25146

>  <Cat>
S6711

>  <Name>
IQ-1S

>  <Synonyms>
N/A

>  <Target>
JNK

>  <Form>
Free Base

>  <CAS>
23146-22-7

>  <URL>
http://www.selleck.cn/products/iq-1s.html

$$$$
