IRAK-1-4 Inhibitor I
 OpenBabel08302521223D

 50 53  0  0  0  0  0  0  0  0999 V2000
    2.4485    0.0107    1.1663 C   0  0  0  0  0  0  0  0  0  0  0  0
    1.7980   -1.1622    0.8014 N   0  0  0  0  0  0  0  0  0  0  0  0
    1.5997    1.0152    1.1709 N   0  0  0  0  0  0  0  0  0  0  0  0
    3.8019    0.1236    1.4339 N   0  0  0  0  0  0  0  0  0  0  0  0
    8.1613    4.1030    3.3831 N   0  3  0  0  0  0  0  0  0  0  0  0
    4.2998    1.2713    2.0457 C   0  0  0  0  0  0  0  0  0  0  0  0
    0.4503   -0.8574    0.6354 C   0  0  0  0  0  0  0  0  0  0  0  0
    0.3894    0.5205    0.7993 C   0  0  0  0  0  0  0  0  0  0  0  0
    7.6556    2.8080    2.9025 C   0  0  0  0  0  0  0  0  0  0  0  0
    2.3853   -2.4208    0.3683 C   0  0  0  0  0  0  0  0  0  0  0  0
    5.7863    1.3891    2.2298 C   0  0  0  0  0  0  0  0  0  0  0  0
    6.2812    2.6196    2.7129 C   0  0  0  0  0  0  0  0  0  0  0  0
    3.8507   -4.3892    0.7219 N   0  0  0  0  0  0  0  0  0  0  0  0
    7.3338    4.9841    3.6522 O   0  5  0  0  0  0  0  0  0  0  0  0
    9.3882    4.2341    3.4908 O   0  0  0  0  0  0  0  0  0  0  0  0
    3.6292    2.1997    2.4895 O   0  0  0  0  0  0  0  0  0  0  0  0
    3.2183   -3.2310    1.3857 C   0  0  0  0  0  0  0  0  0  0  0  0
    4.0178   -6.9446    2.1834 O   0  0  0  0  0  0  0  0  0  0  0  0
   -0.6873   -1.6119    0.3101 C   0  0  0  0  0  0  0  0  0  0  0  0
   -0.8134    1.2058    0.5644 C   0  0  0  0  0  0  0  0  0  0  0  0
    8.5547    1.7753    2.6242 C   0  0  0  0  0  0  0  0  0  0  0  0
    2.9389   -5.5330    0.4743 C   0  0  0  0  0  0  0  0  0  0  0  0
    5.0625   -4.8852    1.4088 C   0  0  0  0  0  0  0  0  0  0  0  0
    6.6946    0.3560    1.9642 C   0  0  0  0  0  0  0  0  0  0  0  0
    8.0703    0.5514    2.1616 C   0  0  0  0  0  0  0  0  0  0  0  0
    2.7619   -6.5185    1.6474 C   0  0  0  0  0  0  0  0  0  0  0  0
    4.7865   -5.8130    2.5996 C   0  0  0  0  0  0  0  0  0  0  0  0
   -1.8859   -0.9153    0.0963 C   0  0  0  0  0  0  0  0  0  0  0  0
   -1.9464    0.4744    0.1991 C   0  0  0  0  0  0  0  0  0  0  0  0
    4.4078   -0.6317    1.1728 H   0  0  0  0  0  0  0  0  0  0  0  0
    1.5646   -3.0519    0.0128 H   0  0  0  0  0  0  0  0  0  0  0  0
    2.9898   -2.1771   -0.5141 H   0  0  0  0  0  0  0  0  0  0  0  0
    5.5824    3.4268    2.9381 H   0  0  0  0  0  0  0  0  0  0  0  0
    4.0108   -2.5781    1.7643 H   0  0  0  0  0  0  0  0  0  0  0  0
    2.6198   -3.5277    2.2539 H   0  0  0  0  0  0  0  0  0  0  0  0
   -0.6609   -2.6914    0.2129 H   0  0  0  0  0  0  0  0  0  0  0  0
   -0.8443    2.2871    0.6524 H   0  0  0  0  0  0  0  0  0  0  0  0
    9.6277    1.9063    2.7641 H   0  0  0  0  0  0  0  0  0  0  0  0
    3.3683   -6.0949   -0.3657 H   0  0  0  0  0  0  0  0  0  0  0  0
    1.9535   -5.1995    0.1332 H   0  0  0  0  0  0  0  0  0  0  0  0
    5.6376   -5.4533    0.6651 H   0  0  0  0  0  0  0  0  0  0  0  0
    5.7068   -4.0538    1.7158 H   0  0  0  0  0  0  0  0  0  0  0  0
    6.3766   -0.6183    1.6140 H   0  0  0  0  0  0  0  0  0  0  0  0
    8.7686   -0.2562    1.9534 H   0  0  0  0  0  0  0  0  0  0  0  0
    2.1606   -6.0827    2.4524 H   0  0  0  0  0  0  0  0  0  0  0  0
    2.2418   -7.4159    1.2938 H   0  0  0  0  0  0  0  0  0  0  0  0
    5.7326   -6.1891    3.0027 H   0  0  0  0  0  0  0  0  0  0  0  0
    4.2617   -5.2924    3.4083 H   0  0  0  0  0  0  0  0  0  0  0  0
   -2.7867   -1.4662   -0.1689 H   0  0  0  0  0  0  0  0  0  0  0  0
   -2.8785    0.9971   -0.0023 H   0  0  0  0  0  0  0  0  0  0  0  0
  2  1  1  0  0  0  0
  3  1  2  0  0  0  0
  4  1  1  0  0  0  0
  4 30  1  0  0  0  0
  5  9  1  0  0  0  0
  6  4  1  0  0  0  0
  7  2  1  0  0  0  0
  8  3  1  0  0  0  0
  8  7  2  0  0  0  0
  9 12  2  0  0  0  0
 10  2  1  0  0  0  0
 10 31  1  0  0  0  0
 10 32  1  0  0  0  0
 11  6  1  0  0  0  0
 12 11  1  0  0  0  0
 12 33  1  0  0  0  0
 13 17  1  0  0  0  0
 14  5  1  0  0  0  0
 15  5  2  0  0  0  0
 16  6  2  0  0  0  0
 17 10  1  0  0  0  0
 17 34  1  0  0  0  0
 17 35  1  0  0  0  0
 18 27  1  0  0  0  0
 18 26  1  0  0  0  0
 19  7  1  0  0  0  0
 19 36  1  0  0  0  0
 20  8  1  0  0  0  0
 20 37  1  0  0  0  0
 21  9  1  0  0  0  0
 21 25  2  0  0  0  0
 21 38  1  0  0  0  0
 22 13  1  0  0  0  0
 22 39  1  0  0  0  0
 22 40  1  0  0  0  0
 23 13  1  0  0  0  0
 23 41  1  0  0  0  0
 23 42  1  0  0  0  0
 24 11  2  0  0  0  0
 24 43  1  0  0  0  0
 25 24  1  0  0  0  0
 25 44  1  0  0  0  0
 26 22  1  0  0  0  0
 26 45  1  0  0  0  0
 26 46  1  0  0  0  0
 27 23  1  0  0  0  0
 27 47  1  0  0  0  0
 27 48  1  0  0  0  0
 28 19  2  0  0  0  0
 28 29  1  0  0  0  0
 28 49  1  0  0  0  0
 29 20  2  0  0  0  0
 29 50  1  0  0  0  0
M  CHG  2   5   1  14  -1
M  END
>  <Mol_ID>
4736

>  <Formula>
C20H21N5O4

>  <MolWeight>
395.41184

>  <Cat>
S6598

>  <Name>
IRAK-1-4 Inhibitor I

>  <Synonyms>
N/A

>  <Target>
IRAK

>  <Form>
Free Base

>  <CAS>
509093-47-4

>  <URL>
http://www.selleck.cn/products/irak-1-4-inhibitor-i.html

$$$$
