IRAK inhibitor 6
 OpenBabel08302521203D

 48 51  0  0  0  0  0  0  0  0999 V2000
    3.7892    5.9494    0.7844 S   0  0  0  0  0  0  0  0  0  0  0  0
    2.4113    4.9242    0.9281 C   0  0  0  0  0  0  0  0  0  0  0  0
    2.6666    3.6304    0.8180 N   0  0  0  0  0  0  0  0  0  0  0  0
    4.0341    3.4253    0.6002 C   0  0  0  0  0  0  0  0  0  0  0  0
    4.7821    4.5832    0.5376 C   0  0  0  0  0  0  0  0  0  0  0  0
    4.6058    2.0850    0.4323 C   0  0  0  0  0  0  0  0  0  0  0  0
    5.8162    1.9048    0.3846 O   0  0  0  0  0  0  0  0  0  0  0  0
    3.6380    1.1148    0.2523 N   0  0  0  0  0  0  0  0  0  0  0  0
    0.6394    6.6695    0.5806 C   0  0  0  0  0  0  0  0  0  0  0  0
    1.0796    5.4861    1.1715 C   0  0  0  0  0  0  0  0  0  0  0  0
    0.1619    4.8163    1.9890 C   0  0  0  0  0  0  0  0  0  0  0  0
   -1.1197    5.3341    2.1754 C   0  0  0  0  0  0  0  0  0  0  0  0
   -1.4527    6.5138    1.5301 C   0  0  0  0  0  0  0  0  0  0  0  0
   -0.6002    7.1975    0.7404 N   0  0  0  0  0  0  0  0  0  0  0  0
    3.9012   -0.2459    0.0053 C   0  0  0  0  0  0  0  0  0  0  0  0
    3.0955   -0.9897   -0.8630 C   0  0  0  0  0  0  0  0  0  0  0  0
    3.2950   -2.3760   -0.9702 C   0  0  0  0  0  0  0  0  0  0  0  0
    4.2872   -3.0569   -0.2396 C   0  0  0  0  0  0  0  0  0  0  0  0
    5.1028   -2.2831    0.5903 C   0  0  0  0  0  0  0  0  0  0  0  0
    4.9212   -0.8983    0.7054 C   0  0  0  0  0  0  0  0  0  0  0  0
    5.7130   -6.5245   -0.5424 C   0  0  0  0  0  0  0  0  0  0  0  0
    5.6927   -5.0863    0.0044 C   0  0  0  0  0  0  0  0  0  0  0  0
    4.4222   -4.4407   -0.3893 N   0  0  0  0  0  0  0  0  0  0  0  0
    3.2524   -5.2235    0.0777 C   0  0  0  0  0  0  0  0  0  0  0  0
    3.3615   -6.6690   -0.4400 C   0  0  0  0  0  0  0  0  0  0  0  0
    4.5991   -7.2869   -0.0457 O   0  0  0  0  0  0  0  0  0  0  0  0
    2.0805   -0.4967   -1.6433 O   0  0  0  0  0  0  0  0  0  0  0  0
    2.3493    0.7243   -2.3326 C   0  0  0  0  0  0  0  0  0  0  0  0
    5.8463    4.6785    0.3622 H   0  0  0  0  0  0  0  0  0  0  0  0
    2.6942    1.4554    0.1067 H   0  0  0  0  0  0  0  0  0  0  0  0
    1.2770    7.2491   -0.0830 H   0  0  0  0  0  0  0  0  0  0  0  0
    0.4419    3.8885    2.4832 H   0  0  0  0  0  0  0  0  0  0  0  0
   -1.8437    4.8241    2.8015 H   0  0  0  0  0  0  0  0  0  0  0  0
   -2.4429    6.9493    1.6316 H   0  0  0  0  0  0  0  0  0  0  0  0
    2.6806   -2.9363   -1.6726 H   0  0  0  0  0  0  0  0  0  0  0  0
    5.8776   -2.7412    1.1989 H   0  0  0  0  0  0  0  0  0  0  0  0
    5.5518   -0.3536    1.4046 H   0  0  0  0  0  0  0  0  0  0  0  0
    5.6870   -6.5292   -1.6391 H   0  0  0  0  0  0  0  0  0  0  0  0
    6.6294   -7.0333   -0.2272 H   0  0  0  0  0  0  0  0  0  0  0  0
    5.7723   -5.1175    1.0994 H   0  0  0  0  0  0  0  0  0  0  0  0
    6.5521   -4.5416   -0.4017 H   0  0  0  0  0  0  0  0  0  0  0  0
    3.2425   -5.2311    1.1762 H   0  0  0  0  0  0  0  0  0  0  0  0
    2.3040   -4.7993   -0.2690 H   0  0  0  0  0  0  0  0  0  0  0  0
    2.5464   -7.2736   -0.0302 H   0  0  0  0  0  0  0  0  0  0  0  0
    3.2829   -6.6987   -1.5332 H   0  0  0  0  0  0  0  0  0  0  0  0
    1.8806    1.5532   -1.7924 H   0  0  0  0  0  0  0  0  0  0  0  0
    3.4159    0.9173   -2.4887 H   0  0  0  0  0  0  0  0  0  0  0  0
    1.8729    0.6754   -3.3160 H   0  0  0  0  0  0  0  0  0  0  0  0
  1  2  1  0  0  0  0
  1  5  1  0  0  0  0
  2  3  2  0  0  0  0
  2 10  1  0  0  0  0
  3  4  1  0  0  0  0
  4  5  2  0  0  0  0
  4  6  1  0  0  0  0
  5 29  1  0  0  0  0
  6  7  2  0  0  0  0
  6  8  1  0  0  0  0
  8 15  1  0  0  0  0
  8 30  1  0  0  0  0
  9 10  2  0  0  0  0
  9 14  1  0  0  0  0
  9 31  1  0  0  0  0
 10 11  1  0  0  0  0
 11 12  2  0  0  0  0
 11 32  1  0  0  0  0
 12 13  1  0  0  0  0
 12 33  1  0  0  0  0
 13 14  2  0  0  0  0
 13 34  1  0  0  0  0
 15 16  2  0  0  0  0
 15 20  1  0  0  0  0
 16 17  1  0  0  0  0
 16 27  1  0  0  0  0
 17 18  2  0  0  0  0
 17 35  1  0  0  0  0
 18 19  1  0  0  0  0
 18 23  1  0  0  0  0
 19 20  2  0  0  0  0
 19 36  1  0  0  0  0
 20 37  1  0  0  0  0
 21 22  1  0  0  0  0
 21 26  1  0  0  0  0
 21 38  1  0  0  0  0
 21 39  1  0  0  0  0
 22 23  1  0  0  0  0
 22 40  1  0  0  0  0
 22 41  1  0  0  0  0
 23 24  1  0  0  0  0
 24 25  1  0  0  0  0
 24 42  1  0  0  0  0
 24 43  1  0  0  0  0
 25 26  1  0  0  0  0
 25 44  1  0  0  0  0
 25 45  1  0  0  0  0
 27 28  1  0  0  0  0
 28 46  1  0  0  0  0
 28 47  1  0  0  0  0
 28 48  1  0  0  0  0
M  END
>  <Mol_ID>
4474

>  <Formula>
C20H20N4O3S

>  <MolWeight>
396.4628

>  <Cat>
S2039

>  <Name>
IRAK inhibitor 6

>  <Synonyms>
N/A

>  <Target>
IRAK

>  <Form>
Free Base

>  <CAS>
1042672-97-8

>  <URL>
http://www.selleck.cn/products/irak-inhibitor-6.html

$$$$
