IRBESARTAN (irbesartan).cdx
 OpenBabel08302521393D

 60 64  0  0  0  0  0  0  0  0999 V2000
    2.3965    0.6397    1.1766 C   0  0  0  0  0  0  0  0  0  0  0  0
    1.1842    1.3241    1.0228 C   0  0  0  0  0  0  0  0  0  0  0  0
    0.8841    2.4337    1.8298 C   0  0  0  0  0  0  0  0  0  0  0  0
    1.7553    2.8623    2.8483 C   0  0  0  0  0  0  0  0  0  0  0  0
    2.9015    2.0750    3.0614 C   0  0  0  0  0  0  0  0  0  0  0  0
    3.2461    1.0187    2.2157 C   0  0  0  0  0  0  0  0  0  0  0  0
    1.4850    4.0765    3.6784 C   0  0  0  0  0  0  0  0  0  0  0  0
    0.1533    4.3629    4.0622 C   0  0  0  0  0  0  0  0  0  0  0  0
   -0.1614    5.3949    4.9526 C   0  0  0  0  0  0  0  0  0  0  0  0
    0.8500    6.1629    5.5093 C   0  0  0  0  0  0  0  0  0  0  0  0
    2.1681    5.9447    5.1188 C   0  0  0  0  0  0  0  0  0  0  0  0
    2.4976    4.9453    4.1772 C   0  0  0  0  0  0  0  0  0  0  0  0
    3.8942    4.8775    3.7506 C   0  0  0  0  0  0  0  0  0  0  0  0
    4.2850    4.6579    2.4490 N   0  0  0  0  0  0  0  0  0  0  0  0
    5.6084    4.5843    2.4497 N   0  0  0  0  0  0  0  0  0  0  0  0
    5.9535    4.7965    3.7209 N   0  0  0  0  0  0  0  0  0  0  0  0
    4.9470    5.0035    4.5829 N   0  0  0  0  0  0  0  0  0  0  0  0
    2.8546   -0.3844    0.1702 C   0  0  0  0  0  0  0  0  0  0  0  0
    3.6263    0.1343   -0.9631 N   0  0  0  0  0  0  0  0  0  0  0  0
    3.7252    1.4470   -1.3206 C   0  0  0  0  0  0  0  0  0  0  0  0
    4.5433    1.4777   -2.5912 C   0  0  0  0  0  0  0  0  0  0  0  0
    4.8839    0.0611   -2.8359 N   0  0  0  0  0  0  0  0  0  0  0  0
    4.3008   -0.5918   -1.8748 C   0  0  0  0  0  0  0  0  0  0  0  0
    3.2415    2.4455   -0.8032 O   0  0  0  0  0  0  0  0  0  0  0  0
    3.7073    2.0400   -3.7442 C   0  0  0  0  0  0  0  0  0  0  0  0
    4.2140    3.4671   -3.8996 C   0  0  0  0  0  0  0  0  0  0  0  0
    5.7055    3.3281   -3.6460 C   0  0  0  0  0  0  0  0  0  0  0  0
    5.7969    2.3484   -2.4783 C   0  0  0  0  0  0  0  0  0  0  0  0
    4.3974   -2.1005   -1.8359 C   0  0  0  0  0  0  0  0  0  0  0  0
    3.3085   -2.8038   -2.6492 C   0  0  0  0  0  0  0  0  0  0  0  0
    3.3618   -2.4896   -4.1483 C   0  0  0  0  0  0  0  0  0  0  0  0
    2.3178   -3.2767   -4.9267 C   0  0  0  0  0  0  0  0  0  0  0  0
    0.5042    1.0635    0.2146 H   0  0  0  0  0  0  0  0  0  0  0  0
   -0.0256    2.9878    1.6087 H   0  0  0  0  0  0  0  0  0  0  0  0
    3.5957    2.3126    3.8628 H   0  0  0  0  0  0  0  0  0  0  0  0
    4.2128    0.5397    2.3476 H   0  0  0  0  0  0  0  0  0  0  0  0
   -0.6697    3.7567    3.6886 H   0  0  0  0  0  0  0  0  0  0  0  0
   -1.1975    5.5777    5.2273 H   0  0  0  0  0  0  0  0  0  0  0  0
    0.6169    6.9370    6.2356 H   0  0  0  0  0  0  0  0  0  0  0  0
    2.9519    6.5677    5.5479 H   0  0  0  0  0  0  0  0  0  0  0  0
    6.9260    4.7912    4.0137 H   0  0  0  0  0  0  0  0  0  0  0  0
    3.4807   -1.1229    0.6883 H   0  0  0  0  0  0  0  0  0  0  0  0
    2.0010   -0.9462   -0.2248 H   0  0  0  0  0  0  0  0  0  0  0  0
    3.8816    1.4789   -4.6673 H   0  0  0  0  0  0  0  0  0  0  0  0
    2.6284    2.0261   -3.5447 H   0  0  0  0  0  0  0  0  0  0  0  0
    3.9925    3.8789   -4.8881 H   0  0  0  0  0  0  0  0  0  0  0  0
    3.7592    4.1199   -3.1453 H   0  0  0  0  0  0  0  0  0  0  0  0
    6.1973    2.9020   -4.5284 H   0  0  0  0  0  0  0  0  0  0  0  0
    6.1813    4.2867   -3.4208 H   0  0  0  0  0  0  0  0  0  0  0  0
    5.8107    2.9086   -1.5355 H   0  0  0  0  0  0  0  0  0  0  0  0
    6.7265    1.7725   -2.5285 H   0  0  0  0  0  0  0  0  0  0  0  0
    5.3858   -2.3878   -2.2165 H   0  0  0  0  0  0  0  0  0  0  0  0
    4.3497   -2.4499   -0.8001 H   0  0  0  0  0  0  0  0  0  0  0  0
    3.4343   -3.8864   -2.5155 H   0  0  0  0  0  0  0  0  0  0  0  0
    2.3189   -2.5461   -2.2553 H   0  0  0  0  0  0  0  0  0  0  0  0
    3.1842   -1.4226   -4.3191 H   0  0  0  0  0  0  0  0  0  0  0  0
    4.3567   -2.7241   -4.5448 H   0  0  0  0  0  0  0  0  0  0  0  0
    1.3076   -3.0363   -4.5801 H   0  0  0  0  0  0  0  0  0  0  0  0
    2.3766   -3.0320   -5.9924 H   0  0  0  0  0  0  0  0  0  0  0  0
    2.4728   -4.3547   -4.8180 H   0  0  0  0  0  0  0  0  0  0  0  0
  1  2  2  0  0  0  0
  1 18  1  0  0  0  0
  2  3  1  0  0  0  0
  2 33  1  0  0  0  0
  3  4  2  0  0  0  0
  3 34  1  0  0  0  0
  4  5  1  0  0  0  0
  4  7  1  0  0  0  0
  5  6  2  0  0  0  0
  5 35  1  0  0  0  0
  6  1  1  0  0  0  0
  6 36  1  0  0  0  0
  7  8  2  0  0  0  0
  8  9  1  0  0  0  0
  8 37  1  0  0  0  0
  9 10  2  0  0  0  0
  9 38  1  0  0  0  0
 10 11  1  0  0  0  0
 10 39  1  0  0  0  0
 11 12  2  0  0  0  0
 11 40  1  0  0  0  0
 12  7  1  0  0  0  0
 12 13  1  0  0  0  0
 13 14  1  0  0  0  0
 14 15  2  0  0  0  0
 15 16  1  0  0  0  0
 16 17  1  0  0  0  0
 16 41  1  0  0  0  0
 17 13  2  0  0  0  0
 18 19  1  0  0  0  0
 18 42  1  0  0  0  0
 18 43  1  0  0  0  0
 19 20  1  0  0  0  0
 20 21  1  0  0  0  0
 20 24  2  0  0  0  0
 21 22  1  0  0  0  0
 21 25  1  0  0  0  0
 22 23  2  0  0  0  0
 23 19  1  0  0  0  0
 23 29  1  0  0  0  0
 25 26  1  0  0  0  0
 25 44  1  0  0  0  0
 25 45  1  0  0  0  0
 26 27  1  0  0  0  0
 26 46  1  0  0  0  0
 26 47  1  0  0  0  0
 27 28  1  0  0  0  0
 27 48  1  0  0  0  0
 27 49  1  0  0  0  0
 28 21  1  0  0  0  0
 28 50  1  0  0  0  0
 28 51  1  0  0  0  0
 29 30  1  0  0  0  0
 29 52  1  0  0  0  0
 29 53  1  0  0  0  0
 30 31  1  0  0  0  0
 30 54  1  0  0  0  0
 30 55  1  0  0  0  0
 31 32  1  0  0  0  0
 31 56  1  0  0  0  0
 31 57  1  0  0  0  0
 32 58  1  0  0  0  0
 32 59  1  0  0  0  0
 32 60  1  0  0  0  0
M  END
>  <Mol_ID>
8223

>  <Formula>
C25H28N6O

>  <MolWeight>
428.52942

>  <Cat>
S1507

>  <Name>
Irbesartan

>  <Synonyms>
BMS-186295, SR-47436,APROVEL

>  <Target>
Angiotensin Receptor

>  <Form>
free base

>  <CAS>
138402-11-6

>  <URL>
http://selleckchem.com/products/Irbesartan(Avapro).html

$$$$
