Iristectorigenin A
 OpenBabel08302521493D

 38 40  0  0  0  0  0  0  0  0999 V2000
   -2.3236    1.6652    0.0240 O   0  0  0  0  0  0  0  0  0  0  0  0
    0.2236    2.5950   -0.0403 O   0  0  0  0  0  0  0  0  0  0  0  0
    2.7376    2.1157   -0.0351 O   0  0  0  0  0  0  0  0  0  0  0  0
    4.1500    2.0621   -0.0397 C   0  0  0  0  0  0  0  0  0  0  0  0
    3.6299   -0.8715    0.0454 O   0  0  0  0  0  0  0  0  0  0  0  0
   -7.2760   -0.2834    1.8681 O   0  0  0  0  0  0  0  0  0  0  0  0
   -6.7296   -0.3395    3.1813 C   0  0  0  0  0  0  0  0  0  0  0  0
   -8.3039   -0.1531   -0.5937 O   0  0  0  0  0  0  0  0  0  0  0  0
   -0.3866    0.2661   -0.0040 C   0  0  0  0  0  0  0  0  0  0  0  0
    0.0307   -1.0619    0.0231 C   0  0  0  0  0  0  0  0  0  0  0  0
   -1.8466    0.5387   -0.0210 C   0  0  0  0  0  0  0  0  0  0  0  0
    0.5912    1.2702   -0.0177 C   0  0  0  0  0  0  0  0  0  0  0  0
   -0.8293   -2.1301    0.0339 O   0  0  0  0  0  0  0  0  0  0  0  0
    1.3898   -1.3733    0.0411 C   0  0  0  0  0  0  0  0  0  0  0  0
   -2.7356   -0.6542   -0.0904 C   0  0  0  0  0  0  0  0  0  0  0  0
    1.9786    0.9752   -0.0109 C   0  0  0  0  0  0  0  0  0  0  0  0
   -2.1709   -1.8659   -0.0539 C   0  0  0  0  0  0  0  0  0  0  0  0
    2.3629   -0.3675    0.0220 C   0  0  0  0  0  0  0  0  0  0  0  0
   -4.1931   -0.5226   -0.2063 C   0  0  0  0  0  0  0  0  0  0  0  0
   -4.9955   -0.4771    0.9461 C   0  0  0  0  0  0  0  0  0  0  0  0
   -4.7861   -0.4474   -1.4745 C   0  0  0  0  0  0  0  0  0  0  0  0
   -6.3810   -0.3500    0.8309 C   0  0  0  0  0  0  0  0  0  0  0  0
   -6.1691   -0.3252   -1.5953 C   0  0  0  0  0  0  0  0  0  0  0  0
   -6.9487   -0.2780   -0.4471 C   0  0  0  0  0  0  0  0  0  0  0  0
    1.0496    3.1137   -0.0287 H   0  0  0  0  0  0  0  0  0  0  0  0
    4.5282    1.6061    0.8802 H   0  0  0  0  0  0  0  0  0  0  0  0
    4.5215    1.5598   -0.9379 H   0  0  0  0  0  0  0  0  0  0  0  0
    4.5247    3.0898   -0.0728 H   0  0  0  0  0  0  0  0  0  0  0  0
    4.2944   -0.1898   -0.0867 H   0  0  0  0  0  0  0  0  0  0  0  0
   -6.2431   -1.3041    3.3605 H   0  0  0  0  0  0  0  0  0  0  0  0
   -6.0401    0.4920    3.3613 H   0  0  0  0  0  0  0  0  0  0  0  0
   -7.5557   -0.2453    3.8925 H   0  0  0  0  0  0  0  0  0  0  0  0
   -8.6512   -0.1065    0.3178 H   0  0  0  0  0  0  0  0  0  0  0  0
    1.6998   -2.4163    0.0646 H   0  0  0  0  0  0  0  0  0  0  0  0
   -2.7286   -2.7960   -0.0945 H   0  0  0  0  0  0  0  0  0  0  0  0
   -4.5114   -0.5268    1.9160 H   0  0  0  0  0  0  0  0  0  0  0  0
   -4.1742   -0.4684   -2.3734 H   0  0  0  0  0  0  0  0  0  0  0  0
   -6.6341   -0.2563   -2.5738 H   0  0  0  0  0  0  0  0  0  0  0  0
  1 11  2  0  0  0  0
  2 12  1  0  0  0  0
  2 25  1  0  0  0  0
  3  4  1  0  0  0  0
  3 16  1  0  0  0  0
  4 26  1  0  0  0  0
  4 27  1  0  0  0  0
  4 28  1  0  0  0  0
  5 18  1  0  0  0  0
  5 29  1  0  0  0  0
  6  7  1  0  0  0  0
  6 22  1  0  0  0  0
  7 30  1  0  0  0  0
  7 31  1  0  0  0  0
  7 32  1  0  0  0  0
  8 24  1  0  0  0  0
  8 33  1  0  0  0  0
  9 10  2  0  0  0  0
  9 11  1  0  0  0  0
  9 12  1  0  0  0  0
 10 13  1  0  0  0  0
 10 14  1  0  0  0  0
 11 15  1  0  0  0  0
 12 16  2  0  0  0  0
 13 17  1  0  0  0  0
 14 18  2  0  0  0  0
 14 34  1  0  0  0  0
 15 17  2  0  0  0  0
 15 19  1  0  0  0  0
 16 18  1  0  0  0  0
 17 35  1  0  0  0  0
 19 20  2  0  0  0  0
 19 21  1  0  0  0  0
 20 22  1  0  0  0  0
 20 36  1  0  0  0  0
 21 23  2  0  0  0  0
 21 37  1  0  0  0  0
 22 24  2  0  0  0  0
 23 24  1  0  0  0  0
 23 38  1  0  0  0  0
M  END
>  <Mol_ID>
9805

>  <Formula>
C17H14O7

>  <MolWeight>
330.28886

>  <Cat>
E2342

>  <Name>
Iristectorigenin A

>  <Synonyms>
N/A

>  <Target>
Antioxidant

>  <Form>
free base

>  <CAS>
39012-01-6

>  <URL>
https://www.selleckchem.com/products/iristectorigenin-a.html

$$$$
