Iristectorigenin B
 OpenBabel08302521533D

 38 40  0  0  0  0  0  0  0  0999 V2000
   -2.3247    1.6670    0.0177 O   0  0  0  0  0  0  0  0  0  0  0  0
    0.2227    2.6001   -0.0401 O   0  0  0  0  0  0  0  0  0  0  0  0
    2.7383    2.1225   -0.0310 O   0  0  0  0  0  0  0  0  0  0  0  0
    4.1511    2.0657   -0.0313 C   0  0  0  0  0  0  0  0  0  0  0  0
    3.6328   -0.8628    0.0591 O   0  0  0  0  0  0  0  0  0  0  0  0
   -7.0928   -0.3279    2.0477 O   0  0  0  0  0  0  0  0  0  0  0  0
   -8.3340   -0.2095   -0.6492 O   0  0  0  0  0  0  0  0  0  0  0  0
   -9.2434   -0.1404    0.4384 C   0  0  0  0  0  0  0  0  0  0  0  0
   -0.3845    0.2706   -0.0045 C   0  0  0  0  0  0  0  0  0  0  0  0
    0.0346   -1.0563    0.0244 C   0  0  0  0  0  0  0  0  0  0  0  0
   -1.8455    0.5413   -0.0210 C   0  0  0  0  0  0  0  0  0  0  0  0
    0.5914    1.2756   -0.0169 C   0  0  0  0  0  0  0  0  0  0  0  0
   -0.8243   -2.1265    0.0323 O   0  0  0  0  0  0  0  0  0  0  0  0
    1.3938   -1.3664    0.0469 C   0  0  0  0  0  0  0  0  0  0  0  0
   -2.7337   -0.6529   -0.0816 C   0  0  0  0  0  0  0  0  0  0  0  0
    1.9802    0.9809   -0.0070 C   0  0  0  0  0  0  0  0  0  0  0  0
   -2.1667   -1.8651   -0.0485 C   0  0  0  0  0  0  0  0  0  0  0  0
    2.3646   -0.3601    0.0292 C   0  0  0  0  0  0  0  0  0  0  0  0
   -4.1919   -0.5271   -0.1781 C   0  0  0  0  0  0  0  0  0  0  0  0
   -4.9791   -0.4792    0.9781 C   0  0  0  0  0  0  0  0  0  0  0  0
   -4.8107   -0.4672   -1.4288 C   0  0  0  0  0  0  0  0  0  0  0  0
   -6.3733   -0.3709    0.8838 C   0  0  0  0  0  0  0  0  0  0  0  0
   -6.1999   -0.3605   -1.5173 C   0  0  0  0  0  0  0  0  0  0  0  0
   -6.9992   -0.3145   -0.3667 C   0  0  0  0  0  0  0  0  0  0  0  0
    1.0473    3.1205   -0.0247 H   0  0  0  0  0  0  0  0  0  0  0  0
    4.5251    1.6082    0.8896 H   0  0  0  0  0  0  0  0  0  0  0  0
    4.5236    1.5620   -0.9284 H   0  0  0  0  0  0  0  0  0  0  0  0
    4.5296    3.0919   -0.0656 H   0  0  0  0  0  0  0  0  0  0  0  0
    4.2947   -0.1891   -0.1223 H   0  0  0  0  0  0  0  0  0  0  0  0
   -6.4802   -0.2509    2.7973 H   0  0  0  0  0  0  0  0  0  0  0  0
   -9.2169   -1.0574    1.0355 H   0  0  0  0  0  0  0  0  0  0  0  0
   -9.0708    0.7537    1.0460 H   0  0  0  0  0  0  0  0  0  0  0  0
  -10.2523   -0.0568    0.0219 H   0  0  0  0  0  0  0  0  0  0  0  0
    1.7046   -2.4095    0.0726 H   0  0  0  0  0  0  0  0  0  0  0  0
   -2.7217   -2.7950   -0.0843 H   0  0  0  0  0  0  0  0  0  0  0  0
   -4.4956   -0.5225    1.9500 H   0  0  0  0  0  0  0  0  0  0  0  0
   -4.2206   -0.4895   -2.3416 H   0  0  0  0  0  0  0  0  0  0  0  0
   -6.6709   -0.3066   -2.4965 H   0  0  0  0  0  0  0  0  0  0  0  0
  1 11  2  0  0  0  0
  2 12  1  0  0  0  0
  2 25  1  0  0  0  0
  3  4  1  0  0  0  0
  3 16  1  0  0  0  0
  4 26  1  0  0  0  0
  4 27  1  0  0  0  0
  4 28  1  0  0  0  0
  5 18  1  0  0  0  0
  5 29  1  0  0  0  0
  6 22  1  0  0  0  0
  6 30  1  0  0  0  0
  7  8  1  0  0  0  0
  7 24  1  0  0  0  0
  8 31  1  0  0  0  0
  8 32  1  0  0  0  0
  8 33  1  0  0  0  0
  9 10  2  0  0  0  0
  9 11  1  0  0  0  0
  9 12  1  0  0  0  0
 10 13  1  0  0  0  0
 10 14  1  0  0  0  0
 11 15  1  0  0  0  0
 12 16  2  0  0  0  0
 13 17  1  0  0  0  0
 14 18  2  0  0  0  0
 14 34  1  0  0  0  0
 15 17  2  0  0  0  0
 15 19  1  0  0  0  0
 16 18  1  0  0  0  0
 17 35  1  0  0  0  0
 19 20  2  0  0  0  0
 19 21  1  0  0  0  0
 20 22  1  0  0  0  0
 20 36  1  0  0  0  0
 21 23  2  0  0  0  0
 21 37  1  0  0  0  0
 22 24  2  0  0  0  0
 23 24  1  0  0  0  0
 23 38  1  0  0  0  0
M  END
>  <Mol_ID>
9975

>  <Formula>
C17H14O7

>  <MolWeight>
330.28886

>  <Cat>
E5309

>  <Name>
Iristectorigenin B

>  <Synonyms>
Iristectrigenin B

>  <Target>
liver X receptor

>  <Form>
Free Base

>  <CAS>
86849-77-6

>  <URL>
https://www.selleckchem.com/products/iristectorigenin-b.html

$$$$
