Irisolidone
 OpenBabel08302521493D

 37 39  0  0  0  0  0  0  0  0999 V2000
   -2.2860    1.6793   -0.0625 O   0  0  0  0  0  0  0  0  0  0  0  0
    0.2501    2.5967   -0.0874 O   0  0  0  0  0  0  0  0  0  0  0  0
    2.7564    2.1178   -0.0321 O   0  0  0  0  0  0  0  0  0  0  0  0
    4.1687    2.0719   -0.0130 C   0  0  0  0  0  0  0  0  0  0  0  0
    3.6555   -0.8490    0.1003 O   0  0  0  0  0  0  0  0  0  0  0  0
   -8.3038    0.0494   -0.4644 O   0  0  0  0  0  0  0  0  0  0  0  0
   -9.1020    0.1798    0.7051 C   0  0  0  0  0  0  0  0  0  0  0  0
   -0.3631    0.2682   -0.0487 C   0  0  0  0  0  0  0  0  0  0  0  0
    0.0510   -1.0603   -0.0136 C   0  0  0  0  0  0  0  0  0  0  0  0
   -1.8179    0.5477   -0.0771 C   0  0  0  0  0  0  0  0  0  0  0  0
    0.6142    1.2714   -0.0527 C   0  0  0  0  0  0  0  0  0  0  0  0
   -0.8155   -2.1253   -0.0236 O   0  0  0  0  0  0  0  0  0  0  0  0
    1.4102   -1.3725    0.0365 C   0  0  0  0  0  0  0  0  0  0  0  0
   -2.7169   -0.6383   -0.1155 C   0  0  0  0  0  0  0  0  0  0  0  0
    1.9992    0.9771   -0.0204 C   0  0  0  0  0  0  0  0  0  0  0  0
   -2.1585   -1.8543   -0.0869 C   0  0  0  0  0  0  0  0  0  0  0  0
    2.3823   -0.3648    0.0330 C   0  0  0  0  0  0  0  0  0  0  0  0
   -4.1744   -0.4864   -0.1731 C   0  0  0  0  0  0  0  0  0  0  0  0
   -4.9268   -0.4249    1.0044 C   0  0  0  0  0  0  0  0  0  0  0  0
   -4.8252   -0.3791   -1.4070 C   0  0  0  0  0  0  0  0  0  0  0  0
   -6.3134   -0.2478    0.9536 C   0  0  0  0  0  0  0  0  0  0  0  0
   -6.2110   -0.2034   -1.4536 C   0  0  0  0  0  0  0  0  0  0  0  0
   -6.9613   -0.1330   -0.2769 C   0  0  0  0  0  0  0  0  0  0  0  0
    1.0767    3.1130   -0.0552 H   0  0  0  0  0  0  0  0  0  0  0  0
    4.5395    1.5804    0.8909 H   0  0  0  0  0  0  0  0  0  0  0  0
    4.5563    1.6109   -0.9264 H   0  0  0  0  0  0  0  0  0  0  0  0
    4.5338    3.1038   -0.0005 H   0  0  0  0  0  0  0  0  0  0  0  0
    4.2873   -0.2058   -0.2397 H   0  0  0  0  0  0  0  0  0  0  0  0
   -9.0454   -0.7206    1.3257 H   0  0  0  0  0  0  0  0  0  0  0  0
   -8.8225    1.0720    1.2754 H   0  0  0  0  0  0  0  0  0  0  0  0
  -10.1427    0.2978    0.3884 H   0  0  0  0  0  0  0  0  0  0  0  0
    1.7196   -2.4154    0.0726 H   0  0  0  0  0  0  0  0  0  0  0  0
   -2.7237   -2.7783   -0.1079 H   0  0  0  0  0  0  0  0  0  0  0  0
   -4.4345   -0.4948    1.9726 H   0  0  0  0  0  0  0  0  0  0  0  0
   -4.2621   -0.4094   -2.3367 H   0  0  0  0  0  0  0  0  0  0  0  0
   -6.8523   -0.1900    1.8929 H   0  0  0  0  0  0  0  0  0  0  0  0
   -6.7083   -0.1046   -2.4154 H   0  0  0  0  0  0  0  0  0  0  0  0
  1 10  2  0  0  0  0
  2 11  1  0  0  0  0
  2 24  1  0  0  0  0
  3  4  1  0  0  0  0
  3 15  1  0  0  0  0
  4 25  1  0  0  0  0
  4 26  1  0  0  0  0
  4 27  1  0  0  0  0
  5 17  1  0  0  0  0
  5 28  1  0  0  0  0
  6  7  1  0  0  0  0
  6 23  1  0  0  0  0
  7 29  1  0  0  0  0
  7 30  1  0  0  0  0
  7 31  1  0  0  0  0
  8  9  2  0  0  0  0
  8 10  1  0  0  0  0
  8 11  1  0  0  0  0
  9 12  1  0  0  0  0
  9 13  1  0  0  0  0
 10 14  1  0  0  0  0
 11 15  2  0  0  0  0
 12 16  1  0  0  0  0
 13 17  2  0  0  0  0
 13 32  1  0  0  0  0
 14 16  2  0  0  0  0
 14 18  1  0  0  0  0
 15 17  1  0  0  0  0
 16 33  1  0  0  0  0
 18 19  2  0  0  0  0
 18 20  1  0  0  0  0
 19 21  1  0  0  0  0
 19 34  1  0  0  0  0
 20 22  2  0  0  0  0
 20 35  1  0  0  0  0
 21 23  2  0  0  0  0
 21 36  1  0  0  0  0
 22 23  1  0  0  0  0
 22 37  1  0  0  0  0
M  END
>  <Mol_ID>
9851

>  <Formula>
C17H14O6

>  <MolWeight>
314.28946

>  <Cat>
E2539

>  <Name>
Irisolidone

>  <Synonyms>
4'-O-Methyltectorigenin

>  <Target>
VRAC

>  <Form>
Free Base

>  <CAS>
2345-17-7

>  <URL>
https://www.selleckchem.com/products/irisolidone.html

$$$$
