Irsogladine.cdx
 OpenBabel08302521393D

 23 24  0  0  0  0  0  0  0  0999 V2000
    1.3436   -0.3282    0.0968 C   0  0  0  0  0  0  0  0  0  0  0  0
    0.4588   -0.8941    1.0101 C   0  0  0  0  0  0  0  0  0  0  0  0
   -0.9102   -0.6194    0.9236 C   0  0  0  0  0  0  0  0  0  0  0  0
   -1.4290    0.2219   -0.0795 C   0  0  0  0  0  0  0  0  0  0  0  0
   -0.5047    0.7908   -0.9795 C   0  0  0  0  0  0  0  0  0  0  0  0
    0.8631    0.5198   -0.8956 C   0  0  0  0  0  0  0  0  0  0  0  0
   -2.8777    0.4849   -0.2033 C   0  0  0  0  0  0  0  0  0  0  0  0
   -3.6994   -0.0941    0.6727 N   0  0  0  0  0  0  0  0  0  0  0  0
   -4.9837    0.1401    0.4676 C   0  0  0  0  0  0  0  0  0  0  0  0
   -5.4783    0.9067   -0.4904 N   0  0  0  0  0  0  0  0  0  0  0  0
   -4.5787    1.4516   -1.2909 C   0  0  0  0  0  0  0  0  0  0  0  0
   -3.2746    1.2667   -1.2084 N   0  0  0  0  0  0  0  0  0  0  0  0
   -5.8822   -0.4376    1.3439 N   0  0  0  0  0  0  0  0  0  0  0  0
   -5.0346    2.2455   -2.3255 N   0  0  0  0  0  0  0  0  0  0  0  0
    2.4058   -0.5483    0.1570 H   0  0  0  0  0  0  0  0  0  0  0  0
    0.8301   -1.5557    1.7886 H   0  0  0  0  0  0  0  0  0  0  0  0
   -1.5790   -1.0802    1.6493 H   0  0  0  0  0  0  0  0  0  0  0  0
   -0.8528    1.4558   -1.7689 H   0  0  0  0  0  0  0  0  0  0  0  0
    1.5477    0.9685   -1.6108 H   0  0  0  0  0  0  0  0  0  0  0  0
   -6.7401    0.0965    1.3615 H   0  0  0  0  0  0  0  0  0  0  0  0
   -5.4347   -0.6200    2.2313 H   0  0  0  0  0  0  0  0  0  0  0  0
   -5.9825    1.9901   -2.5660 H   0  0  0  0  0  0  0  0  0  0  0  0
   -4.3576    2.2562   -3.0749 H   0  0  0  0  0  0  0  0  0  0  0  0
  1  2  2  0  0  0  0
  1 15  1  0  0  0  0
  2  3  1  0  0  0  0
  2 16  1  0  0  0  0
  3  4  2  0  0  0  0
  3 17  1  0  0  0  0
  4  5  1  0  0  0  0
  4  7  1  0  0  0  0
  5  6  2  0  0  0  0
  5 18  1  0  0  0  0
  6  1  1  0  0  0  0
  6 19  1  0  0  0  0
  7  8  2  0  0  0  0
  8  9  1  0  0  0  0
  9 10  2  0  0  0  0
  9 13  1  0  0  0  0
 10 11  1  0  0  0  0
 11 12  2  0  0  0  0
 11 14  1  0  0  0  0
 12  7  1  0  0  0  0
 13 20  1  0  0  0  0
 13 21  1  0  0  0  0
 14 22  1  0  0  0  0
 14 23  1  0  0  0  0
M  END
>  <Mol_ID>
8216

>  <Formula>
C9H7Cl2N5

>  <MolWeight>
256.09138

>  <Cat>
S1929

>  <Name>
Irsogladine

>  <Synonyms>
Dicloguamine

>  <Target>
AChR,PDE

>  <Form>
free base

>  <CAS>
57381-26-7

>  <URL>
http://selleckchem.com/products/Irsogladine-maleate.html

$$$$
