ISA-2011B
 OpenBabel08302521373D

 48 53  0  0  1  0  0  0  0  0999 V2000
    1.1337    0.3173   -0.6748 O   0  0  0  0  0  0  0  0  0  0  0  0
    6.4999   -0.3451   -0.7721 O   0  0  0  0  0  0  0  0  0  0  0  0
    5.0638   -2.1745    0.6488 C   0  0  0  0  0  0  0  0  0  0  0  0
    2.5379    2.3658   -1.8227 C   0  0  2  0  0  0  0  0  0  0  0  0
    3.2653    3.6166   -1.2954 C   0  0  0  0  0  0  0  0  0  0  0  0
    3.1554    1.0801   -1.4761 N   0  0  0  0  0  0  0  0  0  0  0  0
    4.6096    3.5224   -0.8477 C   0  0  0  0  0  0  0  0  0  0  0  0
    2.5668    4.7819   -0.9094 C   0  0  0  0  0  0  0  0  0  0  0  0
    4.6188    1.0666   -1.3152 C   0  0  1  0  0  0  0  0  0  0  0  0
    2.3605    0.2147   -0.7289 C   0  0  0  0  0  0  0  0  0  0  0  0
    5.0888    2.1674   -0.3844 C   0  0  0  0  0  0  0  0  0  0  0  0
    5.3444    4.6280   -0.3967 C   0  0  0  0  0  0  0  0  0  0  0  0
    3.2573    5.7744   -0.2245 C   0  0  0  0  0  0  0  0  0  0  0  0
    5.2740   -0.2161   -0.7764 C   0  0  0  0  0  0  0  0  0  0  0  0
    3.0739   -0.8020    0.1664 C   0  0  0  0  0  0  0  0  0  0  0  0
    4.6209    5.7331   -0.0526 C   0  0  0  0  0  0  0  0  0  0  0  0
    2.7113    6.8063    0.4888 O   0  0  0  0  0  0  0  0  0  0  0  0
    4.4408   -1.1441   -0.1668 N   0  0  0  0  0  0  0  0  0  0  0  0
    5.0982    6.7658    0.6925 O   0  0  0  0  0  0  0  0  0  0  0  0
    3.8606    7.2099    1.2740 C   0  0  0  0  0  0  0  0  0  0  0  0
    2.0491    2.5491   -3.2825 C   0  0  0  0  0  0  0  0  0  0  0  0
    2.0961    1.7342   -4.5296 C   0  0  0  0  0  0  0  0  0  0  0  0
    0.6824    2.8923   -3.4269 C   0  0  0  0  0  0  0  0  0  0  0  0
    0.8535    1.0573   -4.5661 C   0  0  0  0  0  0  0  0  0  0  0  0
    2.7962    1.7785   -5.7622 C   0  0  0  0  0  0  0  0  0  0  0  0
    0.1918    1.5322   -3.4517 N   0  0  0  0  0  0  0  0  0  0  0  0
    0.3818    0.2703   -5.6381 C   0  0  0  0  0  0  0  0  0  0  0  0
    2.2660    1.1087   -6.9032 C   0  0  0  0  0  0  0  0  0  0  0  0
    1.0996    0.3479   -6.8291 C   0  0  0  0  0  0  0  0  0  0  0  0
    5.9196   -2.6099    0.1268 H   0  0  0  0  0  0  0  0  0  0  0  0
    5.4175   -1.7181    1.5809 H   0  0  0  0  0  0  0  0  0  0  0  0
    4.3403   -2.9627    0.8726 H   0  0  0  0  0  0  0  0  0  0  0  0
    1.6138    2.4098   -1.2282 H   0  0  0  0  0  0  0  0  0  0  0  0
    1.4851    4.8411   -0.9976 H   0  0  0  0  0  0  0  0  0  0  0  0
    5.0330    1.2274   -2.3185 H   0  0  0  0  0  0  0  0  0  0  0  0
    4.6441    2.0165    0.6246 H   0  0  0  0  0  0  0  0  0  0  0  0
    6.1641    2.1699   -0.2468 H   0  0  0  0  0  0  0  0  0  0  0  0
    6.3845    4.5489   -0.0983 H   0  0  0  0  0  0  0  0  0  0  0  0
    2.4948   -1.7267    0.0986 H   0  0  0  0  0  0  0  0  0  0  0  0
    3.0427   -0.4352    1.1999 H   0  0  0  0  0  0  0  0  0  0  0  0
    3.7903    6.7670    2.2798 H   0  0  0  0  0  0  0  0  0  0  0  0
    3.8724    8.2987    1.3791 H   0  0  0  0  0  0  0  0  0  0  0  0
    0.2408    3.4773   -4.2322 H   0  0  0  0  0  0  0  0  0  0  0  0
    3.6443    2.4343   -5.9091 H   0  0  0  0  0  0  0  0  0  0  0  0
    0.1976    0.9701   -2.6095 H   0  0  0  0  0  0  0  0  0  0  0  0
   -0.5873   -0.2137   -5.5931 H   0  0  0  0  0  0  0  0  0  0  0  0
    2.7271    1.2471   -7.8848 H   0  0  0  0  0  0  0  0  0  0  0  0
    0.6863   -0.1219   -7.7244 H   0  0  0  0  0  0  0  0  0  0  0  0
  1 10  2  0  0  0  0
  2 14  2  0  0  0  0
  3 18  1  0  0  0  0
  3 30  1  0  0  0  0
  3 31  1  0  0  0  0
  3 32  1  0  0  0  0
  4  5  1  0  0  0  0
  4  6  1  0  0  0  0
  4 33  1  1  0  0  0
  4 21  1  0  0  0  0
  5  7  1  0  0  0  0
  5  8  2  0  0  0  0
  6  9  1  0  0  0  0
  6 10  1  0  0  0  0
  7 11  1  0  0  0  0
  7 12  2  0  0  0  0
  8 13  1  0  0  0  0
  8 34  1  0  0  0  0
  9 11  1  0  0  0  0
  9 14  1  0  0  0  0
  9 35  1  6  0  0  0
 10 15  1  0  0  0  0
 11 36  1  0  0  0  0
 11 37  1  0  0  0  0
 12 16  1  0  0  0  0
 12 38  1  0  0  0  0
 13 16  2  0  0  0  0
 13 17  1  0  0  0  0
 14 18  1  0  0  0  0
 15 18  1  0  0  0  0
 15 39  1  0  0  0  0
 15 40  1  0  0  0  0
 16 19  1  0  0  0  0
 17 20  1  0  0  0  0
 19 20  1  0  0  0  0
 20 41  1  0  0  0  0
 20 42  1  0  0  0  0
 21 22  1  0  0  0  0
 21 23  2  0  0  0  0
 22 24  2  0  0  0  0
 22 25  1  0  0  0  0
 23 26  1  0  0  0  0
 23 43  1  0  0  0  0
 24 26  1  0  0  0  0
 24 27  1  0  0  0  0
 25 28  2  0  0  0  0
 25 44  1  0  0  0  0
 26 45  1  0  0  0  0
 27 29  2  0  0  0  0
 27 46  1  0  0  0  0
 28 29  1  0  0  0  0
 28 47  1  0  0  0  0
 29 48  1  0  0  0  0
M  END
>  <Mol_ID>
7532

>  <Formula>
C22H18ClN3O4

>  <MolWeight>
423.84902

>  <Cat>
E1388

>  <Name>
ISA-2011B

>  <Target>
Others

>  <Form>
free base

>  <CAS>
1395347-24-6

>  <URL>
https://www.selleckchem.com/products/isa-2011b.html

$$$$
