ISCK03
 OpenBabel08302521213D

 46 48  0  0  0  0  0  0  0  0999 V2000
    1.0923    0.0551   -0.0209 C   0  0  0  0  0  0  0  0  0  0  0  0
    0.5049   -0.6928    1.1946 C   0  0  0  0  0  0  0  0  0  0  0  0
    2.6306    0.0776    0.0615 C   0  0  0  0  0  0  0  0  0  0  0  0
    0.4571    1.4643   -0.0405 C   0  0  0  0  0  0  0  0  0  0  0  0
    0.6513   -0.6634   -1.3145 C   0  0  0  0  0  0  0  0  0  0  0  0
    8.8996    3.3080   -2.8372 C   0  0  0  0  0  0  0  0  0  0  0  0
    8.8503    2.0598   -2.2045 C   0  0  0  0  0  0  0  0  0  0  0  0
    7.6577    1.3426   -2.1640 C   0  0  0  0  0  0  0  0  0  0  0  0
    6.5071    1.8775   -2.7347 C   0  0  0  0  0  0  0  0  0  0  0  0
    6.5476    3.1286   -3.3612 C   0  0  0  0  0  0  0  0  0  0  0  0
    7.7477    3.8537   -3.4249 C   0  0  0  0  0  0  0  0  0  0  0  0
    7.7959    5.1187   -4.0817 N   0  0  0  0  0  0  0  0  0  0  0  0
    8.9007    5.9237   -4.2744 C   0  0  0  0  0  0  0  0  0  0  0  0
    8.6231    7.0250   -4.9375 N   0  0  0  0  0  0  0  0  0  0  0  0
    7.2850    6.9553   -5.1908 C   0  0  0  0  0  0  0  0  0  0  0  0
    6.7511    5.7987   -4.6738 C   0  0  0  0  0  0  0  0  0  0  0  0
    7.6053    0.0896   -1.4954 N   0  0  0  0  0  0  0  0  0  0  0  0
    4.7578   -1.1415    0.1280 C   0  0  0  0  0  0  0  0  0  0  0  0
    3.3591   -1.1305    0.0897 C   0  0  0  0  0  0  0  0  0  0  0  0
    3.3640    1.2768    0.1063 C   0  0  0  0  0  0  0  0  0  0  0  0
    4.7602    1.2760    0.1588 C   0  0  0  0  0  0  0  0  0  0  0  0
    5.4522    0.0667    0.1377 C   0  0  0  0  0  0  0  0  0  0  0  0
    7.2250    0.0767    0.1553 S   0  0  0  0  0  0  0  0  0  0  0  0
    7.6799    1.3045    0.7713 O   0  0  0  0  0  0  0  0  0  0  0  0
    7.6663   -1.2113    0.6463 O   0  0  0  0  0  0  0  0  0  0  0  0
    0.8382   -1.7351    1.2423 H   0  0  0  0  0  0  0  0  0  0  0  0
    0.7951   -0.2092    2.1346 H   0  0  0  0  0  0  0  0  0  0  0  0
   -0.5909   -0.7091    1.1533 H   0  0  0  0  0  0  0  0  0  0  0  0
    0.7887    2.0435   -0.9099 H   0  0  0  0  0  0  0  0  0  0  0  0
   -0.6374    1.4061   -0.0907 H   0  0  0  0  0  0  0  0  0  0  0  0
    0.7074    2.0313    0.8634 H   0  0  0  0  0  0  0  0  0  0  0  0
    1.0056   -1.6992   -1.3557 H   0  0  0  0  0  0  0  0  0  0  0  0
   -0.4418   -0.6950   -1.3944 H   0  0  0  0  0  0  0  0  0  0  0  0
    1.0354   -0.1488   -2.2031 H   0  0  0  0  0  0  0  0  0  0  0  0
    9.8548    3.8249   -2.8376 H   0  0  0  0  0  0  0  0  0  0  0  0
    9.7479    1.6650   -1.7353 H   0  0  0  0  0  0  0  0  0  0  0  0
    5.5719    1.3232   -2.7119 H   0  0  0  0  0  0  0  0  0  0  0  0
    5.6232    3.4985   -3.7945 H   0  0  0  0  0  0  0  0  0  0  0  0
    9.8899    5.6684   -3.9224 H   0  0  0  0  0  0  0  0  0  0  0  0
    6.7708    7.7405   -5.7302 H   0  0  0  0  0  0  0  0  0  0  0  0
    5.7363    5.4336   -4.6871 H   0  0  0  0  0  0  0  0  0  0  0  0
    8.3496   -0.5786   -1.6915 H   0  0  0  0  0  0  0  0  0  0  0  0
    5.2884   -2.0900    0.1454 H   0  0  0  0  0  0  0  0  0  0  0  0
    2.8414   -2.0878    0.0754 H   0  0  0  0  0  0  0  0  0  0  0  0
    2.8708    2.2452    0.0996 H   0  0  0  0  0  0  0  0  0  0  0  0
    5.2972    2.2223    0.1941 H   0  0  0  0  0  0  0  0  0  0  0  0
  1  4  1  0  0  0  0
  1  5  1  0  0  0  0
  1  2  1  0  0  0  0
  2 26  1  0  0  0  0
  2 27  1  0  0  0  0
  2 28  1  0  0  0  0
  3  1  1  0  0  0  0
  3 20  2  0  0  0  0
  4 29  1  0  0  0  0
  4 30  1  0  0  0  0
  4 31  1  0  0  0  0
  5 32  1  0  0  0  0
  5 33  1  0  0  0  0
  5 34  1  0  0  0  0
  6  7  2  0  0  0  0
  6 11  1  0  0  0  0
  6 35  1  0  0  0  0
  7  8  1  0  0  0  0
  7 36  1  0  0  0  0
  8 17  1  0  0  0  0
  8  9  2  0  0  0  0
  9 10  1  0  0  0  0
  9 37  1  0  0  0  0
 10 11  2  0  0  0  0
 10 38  1  0  0  0  0
 11 12  1  0  0  0  0
 12 13  1  0  0  0  0
 13 14  2  0  0  0  0
 13 39  1  0  0  0  0
 14 15  1  0  0  0  0
 15 16  2  0  0  0  0
 15 40  1  0  0  0  0
 16 12  1  0  0  0  0
 16 41  1  0  0  0  0
 17 42  1  0  0  0  0
 18 19  2  0  0  0  0
 18 22  1  0  0  0  0
 18 43  1  0  0  0  0
 19  3  1  0  0  0  0
 19 44  1  0  0  0  0
 20 21  1  0  0  0  0
 20 45  1  0  0  0  0
 21 22  2  0  0  0  0
 21 46  1  0  0  0  0
 22 23  1  0  0  0  0
 23 17  1  0  0  0  0
 23 24  2  0  0  0  0
 23 25  2  0  0  0  0
M  END
>  <Mol_ID>
4511

>  <Formula>
C19H21N3O2S

>  <MolWeight>
355.45394

>  <Cat>
S2070

>  <Name>
ISCK03

>  <Synonyms>
N-(4-imidazol-1-yl phenyl)sulfonamide

>  <Target>
c-Kit

>  <Form>
Free Base

>  <CAS>
945526-43-2

>  <URL>
http://www.selleck.cn/products/isck03.html

$$$$
