Isethionic acid sodium salt
 OpenBabel08302520383D

 12 11  0  0  0  0  0  0  0  0999 V2000
    3.1576    1.1325    0.7617 O   0  5  0  0  0  0  0  0  0  0  0  0
    2.7207   -0.0524    0.0309 S   0  0  0  0  0  0  0  0  0  0  0  0
    3.4928   -1.2638    0.3016 O   0  0  0  0  0  0  0  0  0  0  0  0
    1.2713   -0.2475   -0.0352 O   0  0  0  0  0  0  0  0  0  0  0  0
    3.1336    0.3321   -1.6514 C   0  0  0  0  0  0  0  0  0  0  0  0
    2.6761   -0.7680   -2.5908 C   0  0  0  0  0  0  0  0  0  0  0  0
    1.2550   -0.7858   -2.7415 O   0  0  0  0  0  0  0  0  0  0  0  0
    2.6474    1.2821   -1.8922 H   0  0  0  0  0  0  0  0  0  0  0  0
    4.2210    0.4577   -1.6975 H   0  0  0  0  0  0  0  0  0  0  0  0
    3.0916   -0.5854   -3.5866 H   0  0  0  0  0  0  0  0  0  0  0  0
    3.0064   -1.7582   -2.2705 H   0  0  0  0  0  0  0  0  0  0  0  0
    0.8972   -0.7688   -1.8193 H   0  0  0  0  0  0  0  0  0  0  0  0
  1  2  1  0  0  0  0
  2  3  2  0  0  0  0
  2  4  2  0  0  0  0
  2  5  1  0  0  0  0
  5  6  1  0  0  0  0
  5  8  1  0  0  0  0
  5  9  1  0  0  0  0
  6  7  1  0  0  0  0
  6 10  1  0  0  0  0
  6 11  1  0  0  0  0
  7 12  1  0  0  0  0
M  CHG  1   1  -1
M  END
>  <Mol_ID>
3482

>  <Formula>
C2H5NaO4S

>  <MolWeight>
148.11347

>  <Cat>
S6190

>  <Name>
Isethionic acid sodium salt

>  <Synonyms>
N/A

>  <Target>
Others

>  <Form>
free base

>  <CAS>
1562-00-1

>  <URL>
http://www.selleck.cn/products/Isethionic-acid-sodium-salt.html

$$$$
