ISO-1.cdx
 OpenBabel08302520013D

 30 31  0  0  0  0  0  0  0  0999 V2000
   -1.2633   -0.7433    0.9987 C   0  0  0  0  0  0  0  0  0  0  0  0
    0.1325   -0.8230    0.9993 C   0  0  0  0  0  0  0  0  0  0  0  0
    0.8586   -0.1331    0.0337 C   0  0  0  0  0  0  0  0  0  0  0  0
    0.2138    0.6359   -0.9271 C   0  0  0  0  0  0  0  0  0  0  0  0
   -1.1803    0.7159   -0.9310 C   0  0  0  0  0  0  0  0  0  0  0  0
   -1.9273    0.0257    0.0324 C   0  0  0  0  0  0  0  0  0  0  0  0
   -3.4073    0.1125   -0.0003 C   0  0  0  0  0  0  0  0  0  0  0  0
   -4.0638    0.7678   -0.9015 N   0  0  0  0  0  0  0  0  0  0  0  0
   -5.4430    0.6035   -0.6461 O   0  0  0  0  0  0  0  0  0  0  0  0
   -5.6183   -0.0826    0.6026 C   0  0  3  0  0  0  0  0  0  0  0  0
   -4.2474   -0.5798    1.0103 C   0  0  0  0  0  0  0  0  0  0  0  0
   -6.2539    0.8797    1.6008 C   0  0  0  0  0  0  0  0  0  0  0  0
   -6.4909    0.1942    2.9210 C   0  0  0  0  0  0  0  0  0  0  0  0
   -6.4515    1.0960    3.9385 O   0  0  0  0  0  0  0  0  0  0  0  0
   -6.6846   -1.0059    3.0536 O   0  0  0  0  0  0  0  0  0  0  0  0
   -6.6379    0.5250    5.2361 C   0  0  0  0  0  0  0  0  0  0  0  0
    2.2197   -0.1902   -0.0060 O   0  0  0  0  0  0  0  0  0  0  0  0
   -1.8099   -1.2955    1.7572 H   0  0  0  0  0  0  0  0  0  0  0  0
    0.6310   -1.4248    1.7531 H   0  0  0  0  0  0  0  0  0  0  0  0
    0.7927    1.1693   -1.6768 H   0  0  0  0  0  0  0  0  0  0  0  0
   -1.6771    1.3147   -1.6918 H   0  0  0  0  0  0  0  0  0  0  0  0
   -6.2885   -0.9316    0.4242 H   0  0  0  0  0  0  0  0  0  0  0  0
   -3.9640   -0.3015    2.0280 H   0  0  0  0  0  0  0  0  0  0  0  0
   -4.1638   -1.6637    0.8848 H   0  0  0  0  0  0  0  0  0  0  0  0
   -5.6088    1.7548    1.7391 H   0  0  0  0  0  0  0  0  0  0  0  0
   -7.2148    1.2430    1.2203 H   0  0  0  0  0  0  0  0  0  0  0  0
   -7.6703    0.1821    5.3515 H   0  0  0  0  0  0  0  0  0  0  0  0
   -5.9355   -0.2977    5.4088 H   0  0  0  0  0  0  0  0  0  0  0  0
   -6.4425    1.3016    5.9809 H   0  0  0  0  0  0  0  0  0  0  0  0
    2.5308   -0.7887    0.6926 H   0  0  0  0  0  0  0  0  0  0  0  0
  1  2  2  0  0  0  0
  1 18  1  0  0  0  0
  2  3  1  0  0  0  0
  2 19  1  0  0  0  0
  3  4  2  0  0  0  0
  3 17  1  0  0  0  0
  4  5  1  0  0  0  0
  4 20  1  0  0  0  0
  5  6  2  0  0  0  0
  5 21  1  0  0  0  0
  6  1  1  0  0  0  0
  6  7  1  0  0  0  0
  7  8  2  0  0  0  0
  8  9  1  0  0  0  0
  9 10  1  0  0  0  0
 10 11  1  0  0  0  0
 10 12  1  0  0  0  0
 10 22  1  0  0  0  0
 11  7  1  0  0  0  0
 11 23  1  0  0  0  0
 11 24  1  0  0  0  0
 12 13  1  0  0  0  0
 12 25  1  0  0  0  0
 12 26  1  0  0  0  0
 13 14  1  0  0  0  0
 13 15  2  0  0  0  0
 14 16  1  0  0  0  0
 16 27  1  0  0  0  0
 16 28  1  0  0  0  0
 16 29  1  0  0  0  0
 17 30  1  0  0  0  0
M  END
>  <Mol_ID>
2947

>  <Formula>
C12H13NO4

>  <MolWeight>
235.23592

>  <Cat>
S7732

>  <Name>
ISO-1

>  <Synonyms>
MIF Antagonist

>  <Target>
MIF

>  <Form>
free base

>  <CAS>
478336-92-4

>  <URL>
http://selleckchem.com/products/iso-1.html

$$$$
