Iso-H7 dihydrochloride
 OpenBabel08302520403D

 37 39  0  0  0  0  0  0  0  0999 V2000
   -0.2233    0.5512   -0.2583 C   0  0  0  0  0  0  0  0  0  0  0  0
   -1.3826    1.3606   -0.4370 C   0  0  0  0  0  0  0  0  0  0  0  0
   -0.4217   -0.8447   -0.1731 C   0  0  0  0  0  0  0  0  0  0  0  0
    1.1118    1.0054   -0.1778 C   0  0  0  0  0  0  0  0  0  0  0  0
   -1.3175    3.1464   -0.2790 S   0  0  0  0  0  0  0  0  0  0  0  0
   -2.6393    0.7840   -0.6776 C   0  0  0  0  0  0  0  0  0  0  0  0
   -1.6929   -1.4063   -0.3809 C   0  0  0  0  0  0  0  0  0  0  0  0
    0.6826   -1.6537    0.1160 C   0  0  0  0  0  0  0  0  0  0  0  0
    2.1404    0.1075    0.0723 C   0  0  0  0  0  0  0  0  0  0  0  0
   -0.8084    3.3494    1.3217 N   0  0  0  0  0  0  0  0  0  0  0  0
   -0.2838    3.6145   -1.1793 O   0  0  0  0  0  0  0  0  0  0  0  0
   -2.6747    3.6292   -0.3889 O   0  0  0  0  0  0  0  0  0  0  0  0
   -2.7882   -0.5988   -0.6722 C   0  0  0  0  0  0  0  0  0  0  0  0
    1.9490   -1.2092    0.2550 N   0  0  0  0  0  0  0  0  0  0  0  0
   -1.8199    3.4693    2.4033 C   0  0  0  0  0  0  0  0  0  0  0  0
    0.4252    4.1153    1.6086 C   0  0  0  0  0  0  0  0  0  0  0  0
   -2.0929    4.9530    2.7886 C   0  0  3  0  0  0  0  0  0  0  0  0
    0.0985    5.5860    1.9082 C   0  0  0  0  0  0  0  0  0  0  0  0
   -0.8706    5.7640    3.0079 N   0  0  0  0  0  0  0  0  0  0  0  0
   -3.0251    5.6664    1.8080 C   0  0  0  0  0  0  0  0  0  0  0  0
    1.3797    2.0420   -0.3463 H   0  0  0  0  0  0  0  0  0  0  0  0
   -3.5136    1.4045   -0.8698 H   0  0  0  0  0  0  0  0  0  0  0  0
   -1.8319   -2.4854   -0.3427 H   0  0  0  0  0  0  0  0  0  0  0  0
    0.5715   -2.7265    0.2483 H   0  0  0  0  0  0  0  0  0  0  0  0
    3.1720    0.4417    0.1274 H   0  0  0  0  0  0  0  0  0  0  0  0
   -3.7599   -1.0461   -0.8708 H   0  0  0  0  0  0  0  0  0  0  0  0
   -2.7462    2.9454    2.1483 H   0  0  0  0  0  0  0  0  0  0  0  0
   -1.4137    2.9502    3.2822 H   0  0  0  0  0  0  0  0  0  0  0  0
    0.9143    3.6571    2.4784 H   0  0  0  0  0  0  0  0  0  0  0  0
    1.1464    4.0481    0.7907 H   0  0  0  0  0  0  0  0  0  0  0  0
   -2.6278    4.9337    3.7475 H   0  0  0  0  0  0  0  0  0  0  0  0
   -0.2722    6.0789    1.0026 H   0  0  0  0  0  0  0  0  0  0  0  0
    1.0240    6.1049    2.1834 H   0  0  0  0  0  0  0  0  0  0  0  0
   -0.4309    5.4571    3.8753 H   0  0  0  0  0  0  0  0  0  0  0  0
   -3.9160    5.0602    1.6130 H   0  0  0  0  0  0  0  0  0  0  0  0
   -3.3643    6.6219    2.2229 H   0  0  0  0  0  0  0  0  0  0  0  0
   -2.5427    5.8815    0.8504 H   0  0  0  0  0  0  0  0  0  0  0  0
  1  2  1  0  0  0  0
  1  3  1  0  0  0  0
  1  4  2  0  0  0  0
  2  5  1  0  0  0  0
  2  6  2  0  0  0  0
  3  7  1  0  0  0  0
  3  8  2  0  0  0  0
  4  9  1  0  0  0  0
  4 21  1  0  0  0  0
  5 10  1  0  0  0  0
  5 11  2  0  0  0  0
  5 12  2  0  0  0  0
  6 13  1  0  0  0  0
  6 22  1  0  0  0  0
  7 13  2  0  0  0  0
  7 23  1  0  0  0  0
  8 14  1  0  0  0  0
  8 24  1  0  0  0  0
  9 14  2  0  0  0  0
  9 25  1  0  0  0  0
 10 15  1  0  0  0  0
 10 16  1  0  0  0  0
 13 26  1  0  0  0  0
 15 17  1  0  0  0  0
 15 27  1  0  0  0  0
 15 28  1  0  0  0  0
 16 18  1  0  0  0  0
 16 29  1  0  0  0  0
 16 30  1  0  0  0  0
 17 19  1  0  0  0  0
 17 20  1  0  0  0  0
 17 31  1  0  0  0  0
 18 19  1  0  0  0  0
 18 32  1  0  0  0  0
 18 33  1  0  0  0  0
 19 34  1  0  0  0  0
 20 35  1  0  0  0  0
 20 36  1  0  0  0  0
 20 37  1  0  0  0  0
M  END
>  <Mol_ID>
3810

>  <Formula>
C14H19Cl2N3O2S

>  <MolWeight>
364.29056

>  <Cat>
S6510

>  <Name>
Iso-H7 dihydrochloride

>  <Synonyms>
N/A

>  <Target>
Phosphorylase

>  <Form>
dihydrochloride

>  <CAS>
140663-38-3

>  <URL>
http://www.selleck.cn/products/iso-h7-dihydrochloride.html

$$$$
