Isoasatone A
 OpenBabel08302521553D

 64 66  0  0  0  0  0  0  0  0999 V2000
   -2.5169   -3.8096    0.7579 C   0  0  0  0  0  0  0  0  0  0  0  0
   -3.1186   -4.7388    1.8091 C   0  0  0  0  0  0  0  0  0  0  0  0
   -2.8701   -6.0606    1.8665 C   0  0  0  0  0  0  0  0  0  0  0  0
   -3.9315   -1.9747   -1.3304 O   0  0  0  0  0  0  0  0  0  0  0  0
   -4.3604   -3.1864   -1.8912 C   0  0  0  0  0  0  0  0  0  0  0  0
   -0.0452    0.6023    2.6113 O   0  0  0  0  0  0  0  0  0  0  0  0
    0.5492    1.6085    1.7860 C   0  0  0  0  0  0  0  0  0  0  0  0
   -2.0746    1.2331    1.6628 O   0  0  0  0  0  0  0  0  0  0  0  0
   -2.5210    2.1579    2.6852 C   0  0  0  0  0  0  0  0  0  0  0  0
   -3.3751    0.4095   -0.4480 O   0  0  0  0  0  0  0  0  0  0  0  0
   -4.4436   -0.2652    2.2652 O   0  0  0  0  0  0  0  0  0  0  0  0
   -5.6012   -0.2104    3.0511 C   0  0  0  0  0  0  0  0  0  0  0  0
   -0.2132   -0.2140   -2.5672 O   0  0  0  0  0  0  0  0  0  0  0  0
    0.4534    0.8824   -3.2155 C   0  0  0  0  0  0  0  0  0  0  0  0
   -1.7761    1.2262   -1.9590 O   0  0  0  0  0  0  0  0  0  0  0  0
   -2.5683    0.7511   -3.1502 C   0  0  0  0  0  0  0  0  0  0  0  0
    0.6544   -3.2236   -0.4754 C   0  0  0  0  0  0  0  0  0  0  0  0
    1.7144   -3.0913    0.3297 C   0  0  0  0  0  0  0  0  0  0  0  0
    2.2072   -4.2405    1.1713 C   0  0  0  0  0  0  0  0  0  0  0  0
   -1.9178   -0.4014    4.5561 O   0  0  0  0  0  0  0  0  0  0  0  0
   -2.4343   -2.1692    0.8528 C   0  0  3  0  0  0  0  0  0  0  0  0
   -1.0782   -1.1466    1.1592 C   0  0  3  0  0  0  0  0  0  0  0  0
   -2.6656   -1.8291   -0.7103 C   0  0  3  0  0  0  0  0  0  0  0  0
   -3.0022   -2.1251    2.2470 C   0  0  0  0  0  0  0  0  0  0  0  0
   -0.3458   -0.7392   -0.2170 C   0  0  3  0  0  0  0  0  0  0  0  0
   -1.3323    0.1254    2.1711 C   0  0  0  0  0  0  0  0  0  0  0  0
   -2.4955   -0.3572   -0.8620 C   0  0  0  0  0  0  0  0  0  0  0  0
   -1.4416   -2.4585   -1.4606 C   0  0  0  0  0  0  0  0  0  0  0  0
   -3.4891   -1.0651    2.9167 C   0  0  0  0  0  0  0  0  0  0  0  0
   -1.0750    0.0821   -1.4567 C   0  0  0  0  0  0  0  0  0  0  0  0
   -0.2668   -2.1807   -0.8541 C   0  0  0  0  0  0  0  0  0  0  0  0
   -2.2087   -0.4265    3.3623 C   0  0  0  0  0  0  0  0  0  0  0  0
   -3.3115   -3.9701    0.0300 H   0  0  0  0  0  0  0  0  0  0  0  0
   -1.6353   -4.2697    0.3217 H   0  0  0  0  0  0  0  0  0  0  0  0
   -3.9235   -4.3746    2.4374 H   0  0  0  0  0  0  0  0  0  0  0  0
   -3.4261   -6.6891    2.5604 H   0  0  0  0  0  0  0  0  0  0  0  0
   -2.1716   -6.5528    1.1961 H   0  0  0  0  0  0  0  0  0  0  0  0
   -3.5716   -3.9274   -2.0209 H   0  0  0  0  0  0  0  0  0  0  0  0
   -5.1499   -3.5857   -1.2519 H   0  0  0  0  0  0  0  0  0  0  0  0
   -4.7915   -2.9768   -2.8732 H   0  0  0  0  0  0  0  0  0  0  0  0
   -0.1329    2.0949    1.0795 H   0  0  0  0  0  0  0  0  0  0  0  0
    0.9645    2.3837    2.4334 H   0  0  0  0  0  0  0  0  0  0  0  0
    1.3757    1.1749    1.2212 H   0  0  0  0  0  0  0  0  0  0  0  0
   -3.4314    1.8022    3.1825 H   0  0  0  0  0  0  0  0  0  0  0  0
   -1.7560    2.3273    3.4518 H   0  0  0  0  0  0  0  0  0  0  0  0
   -2.7723    3.1134    2.2211 H   0  0  0  0  0  0  0  0  0  0  0  0
   -5.6132   -0.9701    3.8616 H   0  0  0  0  0  0  0  0  0  0  0  0
   -5.6744    0.7752    3.4920 H   0  0  0  0  0  0  0  0  0  0  0  0
   -6.4722   -0.3900    2.4131 H   0  0  0  0  0  0  0  0  0  0  0  0
   -0.1819    1.7571   -3.4005 H   0  0  0  0  0  0  0  0  0  0  0  0
    1.3454    1.2074   -2.6755 H   0  0  0  0  0  0  0  0  0  0  0  0
    0.7569    0.5328   -4.2099 H   0  0  0  0  0  0  0  0  0  0  0  0
   -2.3279   -0.2941   -3.4318 H   0  0  0  0  0  0  0  0  0  0  0  0
   -3.6396    0.7674   -2.9263 H   0  0  0  0  0  0  0  0  0  0  0  0
   -2.3602    1.3735   -4.0193 H   0  0  0  0  0  0  0  0  0  0  0  0
    0.2597   -4.2280   -0.6316 H   0  0  0  0  0  0  0  0  0  0  0  0
    2.1600   -2.1294    0.5351 H   0  0  0  0  0  0  0  0  0  0  0  0
    3.1256   -4.6786    0.7767 H   0  0  0  0  0  0  0  0  0  0  0  0
    2.4054   -3.8753    2.1869 H   0  0  0  0  0  0  0  0  0  0  0  0
    1.4512   -5.0292    1.2760 H   0  0  0  0  0  0  0  0  0  0  0  0
   -0.3736   -1.7874    1.7173 H   0  0  0  0  0  0  0  0  0  0  0  0
   -2.3216   -2.6801    2.9137 H   0  0  0  0  0  0  0  0  0  0  0  0
    0.6651   -0.3518   -0.0555 H   0  0  0  0  0  0  0  0  0  0  0  0
   -1.5752   -3.2948   -2.1298 H   0  0  0  0  0  0  0  0  0  0  0  0
  1  2  1  0  0  0  0
  1 21  1  0  0  0  0
  1 33  1  0  0  0  0
  1 34  1  0  0  0  0
  2  3  2  0  0  0  0
  2 35  1  0  0  0  0
  3 36  1  0  0  0  0
  3 37  1  0  0  0  0
  4  5  1  0  0  0  0
  4 23  1  0  0  0  0
  5 38  1  0  0  0  0
  5 39  1  0  0  0  0
  5 40  1  0  0  0  0
  6  7  1  0  0  0  0
  6 26  1  0  0  0  0
  7 41  1  0  0  0  0
  7 42  1  0  0  0  0
  7 43  1  0  0  0  0
  8  9  1  0  0  0  0
  8 26  1  0  0  0  0
  9 44  1  0  0  0  0
  9 45  1  0  0  0  0
  9 46  1  0  0  0  0
 10 27  2  0  0  0  0
 11 12  1  0  0  0  0
 11 29  1  0  0  0  0
 12 47  1  0  0  0  0
 12 48  1  0  0  0  0
 12 49  1  0  0  0  0
 13 14  1  0  0  0  0
 13 30  1  0  0  0  0
 14 50  1  0  0  0  0
 14 51  1  0  0  0  0
 14 52  1  0  0  0  0
 15 16  1  0  0  0  0
 15 30  1  0  0  0  0
 16 53  1  0  0  0  0
 16 54  1  0  0  0  0
 16 55  1  0  0  0  0
 17 18  2  3  0  0  0
 17 31  1  0  0  0  0
 17 56  1  0  0  0  0
 18 19  1  0  0  0  0
 18 57  1  0  0  0  0
 19 58  1  0  0  0  0
 19 59  1  0  0  0  0
 19 60  1  0  0  0  0
 20 32  2  0  0  0  0
 21 22  1  0  0  0  0
 21 23  1  0  0  0  0
 21 24  1  0  0  0  0
 22 25  1  0  0  0  0
 22 26  1  0  0  0  0
 22 61  1  0  0  0  0
 23 27  1  0  0  0  0
 23 28  1  0  0  0  0
 24 29  2  3  0  0  0
 24 62  1  0  0  0  0
 25 30  1  0  0  0  0
 25 31  1  0  0  0  0
 25 63  1  0  0  0  0
 26 32  1  0  0  0  0
 27 30  1  0  0  0  0
 28 31  2  0  0  0  0
 28 64  1  0  0  0  0
 29 32  1  0  0  0  0
M  END
>  <Mol_ID>
10041

>  <Formula>
C24H32O8

>  <MolWeight>
448.50608

>  <Cat>
E5589

>  <Name>
Isoasatone A

>  <Synonyms>
N/A

>  <Target>
P450 (e.g. CYP17)

>  <Form>
free base

>  <CAS>
67451-73-4

>  <URL>
https://www.selleckchem.com/products/isoasatone-a.html

$$$$
