Isobornyl acetate
 OpenBabel08302521363D

 34 35  0  0  0  0  0  0  0  0999 V2000
    1.4302   -1.6574    0.0511 C   0  0  0  0  0  0  0  0  0  0  0  0
   -0.3312   -1.2613    2.4755 O   0  0  0  0  0  0  0  0  0  0  0  0
    0.6538   -0.8181    3.2795 C   0  0  0  0  0  0  0  0  0  0  0  0
    0.7067   -1.6583    4.5223 C   0  0  0  0  0  0  0  0  0  0  0  0
    1.4348    0.0890    3.0552 O   0  0  0  0  0  0  0  0  0  0  0  0
    1.2391    1.0644   -1.7012 C   0  0  0  0  0  0  0  0  0  0  0  0
    1.4125    1.6289    0.6628 C   0  0  0  0  0  0  0  0  0  0  0  0
    0.2571   -0.7022   -0.0208 C   0  0  1  0  0  0  0  0  0  0  0  0
   -0.7136   -0.7143    1.2066 C   0  0  2  0  0  0  0  0  0  0  0  0
    0.5651    0.8131   -0.3247 C   0  0  0  0  0  0  0  0  0  0  0  0
   -0.7027   -1.0299   -1.2185 C   0  0  0  0  0  0  0  0  0  0  0  0
   -1.3570    0.6778    1.1622 C   0  0  0  0  0  0  0  0  0  0  0  0
   -0.9379    1.1843   -0.2527 C   0  0  2  0  0  0  0  0  0  0  0  0
   -1.5744    0.2443   -1.3056 C   0  0  0  0  0  0  0  0  0  0  0  0
    1.0821   -2.6842    0.2077 H   0  0  0  0  0  0  0  0  0  0  0  0
    2.0079   -1.6478   -0.8782 H   0  0  0  0  0  0  0  0  0  0  0  0
    2.1119   -1.4033    0.8658 H   0  0  0  0  0  0  0  0  0  0  0  0
    1.4267   -2.4693    4.3852 H   0  0  0  0  0  0  0  0  0  0  0  0
    1.0019   -1.0333    5.3701 H   0  0  0  0  0  0  0  0  0  0  0  0
   -0.2787   -2.0760    4.7484 H   0  0  0  0  0  0  0  0  0  0  0  0
    2.2488    0.6336   -1.7098 H   0  0  0  0  0  0  0  0  0  0  0  0
    0.7112    0.6481   -2.5602 H   0  0  0  0  0  0  0  0  0  0  0  0
    1.3345    2.1352   -1.9001 H   0  0  0  0  0  0  0  0  0  0  0  0
    0.9580    1.7744    1.6392 H   0  0  0  0  0  0  0  0  0  0  0  0
    2.4056    1.1886    0.7942 H   0  0  0  0  0  0  0  0  0  0  0  0
    1.5570    2.6498    0.2838 H   0  0  0  0  0  0  0  0  0  0  0  0
   -1.5302   -1.4080    0.9650 H   0  0  0  0  0  0  0  0  0  0  0  0
   -0.1610   -1.2102   -2.1518 H   0  0  0  0  0  0  0  0  0  0  0  0
   -1.3139   -1.9236   -1.0483 H   0  0  0  0  0  0  0  0  0  0  0  0
   -1.0101    1.3218    1.9737 H   0  0  0  0  0  0  0  0  0  0  0  0
   -2.4465    0.6142    1.2581 H   0  0  0  0  0  0  0  0  0  0  0  0
   -1.1716    2.2380   -0.4145 H   0  0  0  0  0  0  0  0  0  0  0  0
   -2.6262    0.0324   -1.0860 H   0  0  0  0  0  0  0  0  0  0  0  0
   -1.5267    0.6772   -2.3100 H   0  0  0  0  0  0  0  0  0  0  0  0
  1 15  1  0  0  0  0
  1 16  1  0  0  0  0
  1 17  1  0  0  0  0
  2  3  1  0  0  0  0
  3  4  1  0  0  0  0
  3  5  2  0  0  0  0
  4 18  1  0  0  0  0
  4 19  1  0  0  0  0
  4 20  1  0  0  0  0
  6 10  1  0  0  0  0
  6 21  1  0  0  0  0
  6 22  1  0  0  0  0
  6 23  1  0  0  0  0
  7 10  1  0  0  0  0
  7 24  1  0  0  0  0
  7 25  1  0  0  0  0
  7 26  1  0  0  0  0
  8  1  1  1  0  0  0
  8  9  1  0  0  0  0
  8 10  1  0  0  0  0
  8 11  1  0  0  0  0
  9  2  1  0  0  0  0
  9 12  1  0  0  0  0
  9 27  1  6  0  0  0
 10 13  1  0  0  0  0
 11 14  1  0  0  0  0
 11 28  1  0  0  0  0
 11 29  1  0  0  0  0
 12 30  1  0  0  0  0
 12 31  1  0  0  0  0
 13 12  1  0  0  0  0
 13 14  1  0  0  0  0
 13 32  1  6  0  0  0
 14 33  1  0  0  0  0
 14 34  1  0  0  0  0
M  END
>  <Mol_ID>
7335

>  <Formula>
C12H20O2

>  <MolWeight>
196.286

>  <Cat>
E4380

>  <Name>
Isobornyl acetate

>  <Synonyms>
Isobornyl acetate

>  <Target>
Others

>  <Form>
free base

>  <CAS>
125-12-2

>  <URL>
https://www.selleckchem.com/products/isobornyl-acetate.html

$$$$
