Isoborneol
 OpenBabel08302521363D

 29 30  0  0  0  0  0  0  0  0999 V2000
    0.4770   -1.5143   -1.5704 C   0  0  0  0  0  0  0  0  0  0  0  0
   -2.0470   -1.2712    0.4152 C   0  0  0  0  0  0  0  0  0  0  0  0
    0.0548   -1.3904    1.6716 C   0  0  0  0  0  0  0  0  0  0  0  0
    2.4752   -0.0960   -0.0077 O   0  0  0  0  0  0  0  0  0  0  0  0
    0.0918   -0.3022   -0.7437 C   0  0  1  0  0  0  0  0  0  0  0  0
   -0.6777   -0.5755    0.5905 C   0  0  0  0  0  0  0  0  0  0  0  0
    1.2884    0.6088   -0.3292 C   0  0  1  0  0  0  0  0  0  0  0  0
   -0.8864    0.6535   -1.4921 C   0  0  0  0  0  0  0  0  0  0  0  0
   -0.7655    0.9402    0.9009 C   0  0  1  0  0  0  0  0  0  0  0  0
    0.7133    1.4065    0.8574 C   0  0  0  0  0  0  0  0  0  0  0  0
   -1.4551    1.5213   -0.3543 C   0  0  0  0  0  0  0  0  0  0  0  0
   -0.4036   -2.1018   -1.8501 H   0  0  0  0  0  0  0  0  0  0  0  0
    0.9761   -1.2089   -2.4965 H   0  0  0  0  0  0  0  0  0  0  0  0
    1.1576   -2.1759   -1.0257 H   0  0  0  0  0  0  0  0  0  0  0  0
   -1.9103   -2.3146    0.1082 H   0  0  0  0  0  0  0  0  0  0  0  0
   -2.5992   -1.2737    1.3623 H   0  0  0  0  0  0  0  0  0  0  0  0
   -2.7054   -0.8112   -0.3240 H   0  0  0  0  0  0  0  0  0  0  0  0
   -0.5870   -1.5138    2.5528 H   0  0  0  0  0  0  0  0  0  0  0  0
    0.3038   -2.3915    1.3037 H   0  0  0  0  0  0  0  0  0  0  0  0
    0.9693   -0.9386    2.0510 H   0  0  0  0  0  0  0  0  0  0  0  0
    2.3917   -0.5066    0.8657 H   0  0  0  0  0  0  0  0  0  0  0  0
    1.5631    1.2887   -1.1431 H   0  0  0  0  0  0  0  0  0  0  0  0
   -0.3809    1.2660   -2.2472 H   0  0  0  0  0  0  0  0  0  0  0  0
   -1.6849    0.1106   -2.0089 H   0  0  0  0  0  0  0  0  0  0  0  0
   -1.2704    1.2050    1.8325 H   0  0  0  0  0  0  0  0  0  0  0  0
    1.2384    1.1993    1.7948 H   0  0  0  0  0  0  0  0  0  0  0  0
    0.7863    2.4850    0.6769 H   0  0  0  0  0  0  0  0  0  0  0  0
   -2.5440    1.4208   -0.2953 H   0  0  0  0  0  0  0  0  0  0  0  0
   -1.2322    2.5832   -0.5017 H   0  0  0  0  0  0  0  0  0  0  0  0
  1 12  1  0  0  0  0
  1 13  1  0  0  0  0
  1 14  1  0  0  0  0
  2  6  1  0  0  0  0
  2 15  1  0  0  0  0
  2 16  1  0  0  0  0
  2 17  1  0  0  0  0
  3  6  1  0  0  0  0
  3 18  1  0  0  0  0
  3 19  1  0  0  0  0
  3 20  1  0  0  0  0
  4 21  1  0  0  0  0
  5  1  1  6  0  0  0
  5  6  1  0  0  0  0
  5  7  1  0  0  0  0
  5  8  1  0  0  0  0
  6  9  1  0  0  0  0
  7  4  1  0  0  0  0
  7 10  1  0  0  0  0
  7 22  1  6  0  0  0
  8 11  1  0  0  0  0
  8 23  1  0  0  0  0
  8 24  1  0  0  0  0
  9 10  1  0  0  0  0
  9 11  1  0  0  0  0
  9 25  1  1  0  0  0
 10 26  1  0  0  0  0
 10 27  1  0  0  0  0
 11 28  1  0  0  0  0
 11 29  1  0  0  0  0
M  END
>  <Mol_ID>
7076

>  <Formula>
C10H18O

>  <MolWeight>
154.24932

>  <Cat>
E4090

>  <Name>
Isoborneol

>  <Synonyms>
Isoborneol

>  <Target>
HSV

>  <Form>
free base

>  <CAS>
124-76-5

>  <URL>
https://www.selleckchem.com/products/isoborneol.html

$$$$
