Isocitric acid trisodium salt
 OpenBabel08302521383D

 18 17  0  0  0  0  0  0  0  0999 V2000
    0.9220    0.0050   -0.0924 O   0  0  0  0  0  0  0  0  0  0  0  0
   -0.9606   -3.6751   -0.3661 O   0  5  0  0  0  0  0  0  0  0  0  0
    0.9666   -4.7897   -0.7612 O   0  0  0  0  0  0  0  0  0  0  0  0
   -0.2173   -0.6569    2.5486 O   0  5  0  0  0  0  0  0  0  0  0  0
    1.3852   -2.2581    2.3820 O   0  0  0  0  0  0  0  0  0  0  0  0
    3.6051   -0.3490   -0.4446 O   0  5  0  0  0  0  0  0  0  0  0  0
    3.8020   -1.4211   -2.4424 O   0  0  0  0  0  0  0  0  0  0  0  0
    1.0459   -2.3732   -0.6601 C   0  0  3  0  0  0  0  0  0  0  0  0
    0.4547   -1.3228    0.3184 C   0  0  3  0  0  0  0  0  0  0  0  0
    2.5866   -2.4868   -0.6818 C   0  0  0  0  0  0  0  0  0  0  0  0
    0.2995   -3.7316   -0.5322 C   0  0  0  0  0  0  0  0  0  0  0  0
    0.5507   -1.4420    1.8911 C   0  0  0  0  0  0  0  0  0  0  0  0
    3.3849   -1.3056   -1.2464 C   0  0  0  0  0  0  0  0  0  0  0  0
    1.8927   -0.0100    0.0897 H   0  0  0  0  0  0  0  0  0  0  0  0
    0.7742   -2.0228   -1.6691 H   0  0  0  0  0  0  0  0  0  0  0  0
   -0.6273   -1.2790    0.1296 H   0  0  0  0  0  0  0  0  0  0  0  0
    2.9600   -2.7103    0.3240 H   0  0  0  0  0  0  0  0  0  0  0  0
    2.8728   -3.3551   -1.2926 H   0  0  0  0  0  0  0  0  0  0  0  0
  1  9  1  0  0  0  0
  1 14  1  0  0  0  0
  2 11  1  0  0  0  0
  3 11  2  0  0  0  0
  4 12  1  0  0  0  0
  5 12  2  0  0  0  0
  6 13  1  0  0  0  0
  7 13  2  0  0  0  0
  8  9  1  0  0  0  0
  8 10  1  0  0  0  0
  8 11  1  0  0  0  0
  8 15  1  0  0  0  0
  9 12  1  0  0  0  0
  9 16  1  0  0  0  0
 10 13  1  0  0  0  0
 10 17  1  0  0  0  0
 10 18  1  0  0  0  0
M  CHG  3   2  -1   4  -1   6  -1
M  END
>  <Mol_ID>
7957

>  <Formula>
C6H5Na3O7

>  <MolWeight>
258.06901

>  <Cat>
S3040

>  <Name>
Isocitric acid trisodium salt

>  <Synonyms>
DL-Isocitric acid trisodium salt

>  <Target>
Others

>  <Form>
Trisodium salt

>  <CAS>
1637-73-6

>  <URL>
https://www.selleckchem.com/products/isocitric-acid-trisodium-salt.html

$$$$
