Isocytosine
 OpenBabel08302520393D

 13 13  0  0  0  0  0  0  0  0999 V2000
    0.0916    0.9380    0.0618 N   0  0  0  0  0  0  0  0  0  0  0  0
    1.2352    0.1958    0.0117 C   0  0  0  0  0  0  0  0  0  0  0  0
   -1.1480    0.3764    0.0917 C   0  0  0  0  0  0  0  0  0  0  0  0
    1.0339   -1.2574   -0.0363 C   0  0  0  0  0  0  0  0  0  0  0  0
    2.3561    0.6904    0.0079 O   0  0  0  0  0  0  0  0  0  0  0  0
   -1.3394   -0.9045    0.0475 N   0  0  0  0  0  0  0  0  0  0  0  0
   -2.2018    1.2244    0.1613 N   0  0  0  0  0  0  0  0  0  0  0  0
   -0.2257   -1.7005   -0.0154 C   0  0  0  0  0  0  0  0  0  0  0  0
    0.2069    1.9344    0.1335 H   0  0  0  0  0  0  0  0  0  0  0  0
    1.8997   -1.9009   -0.0783 H   0  0  0  0  0  0  0  0  0  0  0  0
   -2.1036    2.1214   -0.2932 H   0  0  0  0  0  0  0  0  0  0  0  0
   -3.0783    0.7598   -0.0546 H   0  0  0  0  0  0  0  0  0  0  0  0
   -0.4194   -2.7699   -0.0431 H   0  0  0  0  0  0  0  0  0  0  0  0
  1  2  1  0  0  0  0
  1  3  1  0  0  0  0
  1  9  1  0  0  0  0
  2  4  1  0  0  0  0
  2  5  2  0  0  0  0
  3  6  2  0  0  0  0
  3  7  1  0  0  0  0
  4  8  2  0  0  0  0
  4 10  1  0  0  0  0
  6  8  1  0  0  0  0
  7 11  1  0  0  0  0
  7 12  1  0  0  0  0
  8 13  1  0  0  0  0
M  END
>  <Mol_ID>
3613

>  <Formula>
C4H5N3O

>  <MolWeight>
111.102

>  <Cat>
S6256

>  <Name>
Isocytosine

>  <Synonyms>
2-aminouracil

>  <Target>
Others

>  <Form>
free base

>  <CAS>
108-53-2

>  <URL>
http://www.selleck.cn/products/isocytosine.html

$$$$
