Isohomovanillic acid
 OpenBabel08302520403D

 23 23  0  0  0  0  0  0  0  0999 V2000
    0.9317   -0.1309    0.0058 C   0  0  0  0  0  0  0  0  0  0  0  0
    0.1446   -1.2859   -0.0229 C   0  0  0  0  0  0  0  0  0  0  0  0
    0.2749    1.1089    0.0287 C   0  0  0  0  0  0  0  0  0  0  0  0
    2.2861    0.0122   -0.0048 O   0  0  0  0  0  0  0  0  0  0  0  0
   -1.2532   -1.1951   -0.0090 C   0  0  0  0  0  0  0  0  0  0  0  0
    0.6134   -2.5650   -0.0841 O   0  0  0  0  0  0  0  0  0  0  0  0
   -1.1185    1.2053    0.0244 C   0  0  0  0  0  0  0  0  0  0  0  0
    3.1381   -1.1143   -0.0800 C   0  0  0  0  0  0  0  0  0  0  0  0
   -1.8981    0.0475    0.0119 C   0  0  0  0  0  0  0  0  0  0  0  0
   -3.4043    0.1342   -0.0228 C   0  0  0  0  0  0  0  0  0  0  0  0
   -4.0208    0.2320   -1.4053 C   0  0  0  0  0  0  0  0  0  0  0  0
   -3.3461   -0.3720   -2.4056 O   0  0  0  0  0  0  0  0  0  0  0  0
   -5.1055    0.7634   -1.5999 O   0  0  0  0  0  0  0  0  0  0  0  0
    0.8667    2.0233    0.0398 H   0  0  0  0  0  0  0  0  0  0  0  0
   -1.8360   -2.1161   -0.0181 H   0  0  0  0  0  0  0  0  0  0  0  0
    1.3964   -2.6287    0.4779 H   0  0  0  0  0  0  0  0  0  0  0  0
   -1.5814    2.1907    0.0321 H   0  0  0  0  0  0  0  0  0  0  0  0
    3.0992   -1.6887    0.8506 H   0  0  0  0  0  0  0  0  0  0  0  0
    2.9205   -1.7327   -0.9548 H   0  0  0  0  0  0  0  0  0  0  0  0
    4.1645   -0.7474   -0.1811 H   0  0  0  0  0  0  0  0  0  0  0  0
   -3.8412   -0.7353    0.4799 H   0  0  0  0  0  0  0  0  0  0  0  0
   -3.7156    1.0192    0.5424 H   0  0  0  0  0  0  0  0  0  0  0  0
   -2.4882   -0.7612   -2.1528 H   0  0  0  0  0  0  0  0  0  0  0  0
  1  2  2  0  0  0  0
  1  3  1  0  0  0  0
  1  4  1  0  0  0  0
  2  5  1  0  0  0  0
  2  6  1  0  0  0  0
  3  7  2  0  0  0  0
  3 14  1  0  0  0  0
  4  8  1  0  0  0  0
  5  9  2  0  0  0  0
  5 15  1  0  0  0  0
  6 16  1  0  0  0  0
  7  9  1  0  0  0  0
  7 17  1  0  0  0  0
  8 18  1  0  0  0  0
  8 19  1  0  0  0  0
  8 20  1  0  0  0  0
  9 10  1  0  0  0  0
 10 11  1  0  0  0  0
 10 21  1  0  0  0  0
 10 22  1  0  0  0  0
 11 12  1  0  0  0  0
 11 13  2  0  0  0  0
 12 23  1  0  0  0  0
M  END
>  <Mol_ID>
3785

>  <Formula>
C9H10O4

>  <MolWeight>
182.1733

>  <Cat>
S6479

>  <Name>
Isohomovanillic acid

>  <Synonyms>
N/A

>  <Target>
Others

>  <Form>
Free Base

>  <CAS>
1131-94-8

>  <URL>
http://www.selleck.cn/products/isohomovanillic-acid.html

$$$$
