Isoliquiritigenin.cdx
 OpenBabel08302521373D

 31 32  0  0  0  0  0  0  0  0999 V2000
    0.1300   -0.9716   -0.7074 C   0  0  0  0  0  0  0  0  0  0  0  0
    0.8800   -0.0210   -0.0260 C   0  0  0  0  0  0  0  0  0  0  0  0
    0.2585    0.9952    0.6856 C   0  0  0  0  0  0  0  0  0  0  0  0
   -1.1360    1.0655    0.7144 C   0  0  0  0  0  0  0  0  0  0  0  0
   -1.9167    0.1326    0.0186 C   0  0  0  0  0  0  0  0  0  0  0  0
   -1.2678   -0.8963   -0.6823 C   0  0  0  0  0  0  0  0  0  0  0  0
    2.2427   -0.0493   -0.0246 O   0  0  0  0  0  0  0  0  0  0  0  0
   -3.3924    0.1835    0.0197 C   0  0  0  0  0  0  0  0  0  0  0  0
   -4.0710    1.3370    0.0987 C   0  0  0  0  0  0  0  0  0  0  0  0
   -5.5536    1.3824    0.0699 C   0  0  0  0  0  0  0  0  0  0  0  0
   -6.1860    2.6654   -0.3412 C   0  0  0  0  0  0  0  0  0  0  0  0
   -6.2499    0.4388    0.4307 O   0  0  0  0  0  0  0  0  0  0  0  0
   -7.4586    3.0076    0.1349 C   0  0  0  0  0  0  0  0  0  0  0  0
   -8.0516    4.2138   -0.2382 C   0  0  0  0  0  0  0  0  0  0  0  0
   -7.3726    5.0806   -1.0876 C   0  0  0  0  0  0  0  0  0  0  0  0
   -6.1134    4.7564   -1.5850 C   0  0  0  0  0  0  0  0  0  0  0  0
   -5.5266    3.5435   -1.2197 C   0  0  0  0  0  0  0  0  0  0  0  0
   -8.1752    2.2104    0.9879 O   0  0  0  0  0  0  0  0  0  0  0  0
   -7.9790    6.2550   -1.4235 O   0  0  0  0  0  0  0  0  0  0  0  0
    0.6087   -1.7733   -1.2610 H   0  0  0  0  0  0  0  0  0  0  0  0
    0.8531    1.7285    1.2222 H   0  0  0  0  0  0  0  0  0  0  0  0
   -1.5958    1.8576    1.2988 H   0  0  0  0  0  0  0  0  0  0  0  0
   -1.8435   -1.6441   -1.2236 H   0  0  0  0  0  0  0  0  0  0  0  0
    2.5388   -0.8187   -0.5388 H   0  0  0  0  0  0  0  0  0  0  0  0
   -3.9188   -0.7627   -0.0852 H   0  0  0  0  0  0  0  0  0  0  0  0
   -3.5603    2.2896    0.1729 H   0  0  0  0  0  0  0  0  0  0  0  0
   -9.0389    4.4747    0.1322 H   0  0  0  0  0  0  0  0  0  0  0  0
   -5.5813    5.4262   -2.2510 H   0  0  0  0  0  0  0  0  0  0  0  0
   -4.5569    3.2957   -1.6443 H   0  0  0  0  0  0  0  0  0  0  0  0
   -7.7131    1.3470    1.0647 H   0  0  0  0  0  0  0  0  0  0  0  0
   -7.3915    6.7598   -2.0104 H   0  0  0  0  0  0  0  0  0  0  0  0
  1  2  2  0  0  0  0
  1 20  1  0  0  0  0
  2  3  1  0  0  0  0
  2  7  1  0  0  0  0
  3  4  2  0  0  0  0
  3 21  1  0  0  0  0
  4  5  1  0  0  0  0
  4 22  1  0  0  0  0
  5  6  2  0  0  0  0
  5  8  1  0  0  0  0
  6  1  1  0  0  0  0
  6 23  1  0  0  0  0
  7 24  1  0  0  0  0
  8  9  2  0  0  0  0
  8 25  1  0  0  0  0
  9 10  1  0  0  0  0
  9 26  1  0  0  0  0
 10 11  1  0  0  0  0
 10 12  2  0  0  0  0
 11 13  2  0  0  0  0
 13 14  1  0  0  0  0
 13 18  1  0  0  0  0
 14 15  2  0  0  0  0
 14 27  1  0  0  0  0
 15 16  1  0  0  0  0
 15 19  1  0  0  0  0
 16 17  2  0  0  0  0
 16 28  1  0  0  0  0
 17 11  1  0  0  0  0
 17 29  1  0  0  0  0
 18 30  1  0  0  0  0
 19 31  1  0  0  0  0
M  END
>  <Mol_ID>
729

>  <Formula>
C15H12O4

>  <MolWeight>
256.25338

>  <Cat>
S2404

>  <Name>
Isoliquiritigenin

>  <Synonyms>
N/A

>  <Target>
Aldose Reductase

>  <Form>
free base

>  <CAS>
961-29-5

>  <URL>
http://selleckchem.com/products/Isoliquiritigenin.html

$$$$
