Isonipecotic acid
 OpenBabel08302521383D

 20 20  0  0  0  0  0  0  0  0999 V2000
   -1.5292    0.0229   -0.1258 C   0  0  0  0  0  0  0  0  0  0  0  0
   -0.7331    1.2842    0.2226 C   0  0  0  0  0  0  0  0  0  0  0  0
   -0.7702   -1.2592    0.2273 C   0  0  0  0  0  0  0  0  0  0  0  0
   -2.8870    0.0427    0.5411 C   0  0  0  0  0  0  0  0  0  0  0  0
    0.7010    1.1983   -0.2844 C   0  0  0  0  0  0  0  0  0  0  0  0
    0.6668   -1.2163   -0.2776 C   0  0  0  0  0  0  0  0  0  0  0  0
   -2.8546    0.0591    1.8922 O   0  0  0  0  0  0  0  0  0  0  0  0
   -3.9389    0.0419   -0.0812 O   0  0  0  0  0  0  0  0  0  0  0  0
    1.3470   -0.0171    0.2102 N   0  0  0  0  0  0  0  0  0  0  0  0
   -1.7040    0.0240   -1.2111 H   0  0  0  0  0  0  0  0  0  0  0  0
   -1.2271    2.1657   -0.2045 H   0  0  0  0  0  0  0  0  0  0  0  0
   -0.7136    1.4448    1.3072 H   0  0  0  0  0  0  0  0  0  0  0  0
   -0.7592   -1.4168    1.3126 H   0  0  0  0  0  0  0  0  0  0  0  0
   -1.2882   -2.1273   -0.1992 H   0  0  0  0  0  0  0  0  0  0  0  0
    0.7285    1.2313   -1.3800 H   0  0  0  0  0  0  0  0  0  0  0  0
    1.2588    2.0690    0.0777 H   0  0  0  0  0  0  0  0  0  0  0  0
    1.1993   -2.1004    0.0900 H   0  0  0  0  0  0  0  0  0  0  0  0
    0.6949   -1.2563   -1.3730 H   0  0  0  0  0  0  0  0  0  0  0  0
   -1.9583    0.0524    2.2767 H   0  0  0  0  0  0  0  0  0  0  0  0
    2.3162   -0.0317   -0.1117 H   0  0  0  0  0  0  0  0  0  0  0  0
  1  2  1  0  0  0  0
  1  3  1  0  0  0  0
  1  4  1  0  0  0  0
  1 10  1  0  0  0  0
  2  5  1  0  0  0  0
  2 11  1  0  0  0  0
  2 12  1  0  0  0  0
  3  6  1  0  0  0  0
  3 13  1  0  0  0  0
  3 14  1  0  0  0  0
  4  7  1  0  0  0  0
  4  8  2  0  0  0  0
  5  9  1  0  0  0  0
  5 15  1  0  0  0  0
  5 16  1  0  0  0  0
  6  9  1  0  0  0  0
  6 17  1  0  0  0  0
  6 18  1  0  0  0  0
  7 19  1  0  0  0  0
  9 20  1  0  0  0  0
M  END
>  <Mol_ID>
7883

>  <Formula>
C6H11NO2

>  <MolWeight>
129.15704

>  <Cat>
S5612

>  <Name>
Isonipecotic acid

>  <Synonyms>
4-Piperidinecarboxylic acid, 4-Carboxypiperidine, Hexahydroisonicotinic acid

>  <Target>
GABA Receptor

>  <Form>
Free Base

>  <CAS>
498-94-2

>  <URL>
http://www.selleckchem.com/products/isonipecotic-acid.html

$$$$
