Isopropamide Iodide
 OpenBabel08302520343D

 60 60  0  0  0  0  0  0  0  0999 V2000
    0.9640    0.2214    0.2194 C   0  0  0  0  0  0  0  0  0  0  0  0
    0.3501    1.6284   -0.0238 C   0  0  0  0  0  0  0  0  0  0  0  0
    2.5080    0.2739    0.3761 C   0  0  0  0  0  0  0  0  0  0  0  0
    0.6204   -0.8918   -0.8489 C   0  0  0  0  0  0  0  0  0  0  0  0
    0.2437   -0.1471    1.5477 C   0  0  0  0  0  0  0  0  0  0  0  0
   -0.7737    1.8298   -0.8471 C   0  0  0  0  0  0  0  0  0  0  0  0
    0.8017    2.7213    0.7508 C   0  0  0  0  0  0  0  0  0  0  0  0
    3.2058   -0.6316    1.2124 C   0  0  0  0  0  0  0  0  0  0  0  0
    3.2835    1.2253   -0.3355 C   0  0  0  0  0  0  0  0  0  0  0  0
    1.2540   -0.7643   -2.3058 C   0  0  0  0  0  0  0  0  0  0  0  0
   -1.1085   -0.2780    1.5919 N   0  0  0  0  0  0  0  0  0  0  0  0
    0.8603   -0.2681    2.5927 O   0  0  0  0  0  0  0  0  0  0  0  0
   -1.4007    3.0752   -0.9022 C   0  0  0  0  0  0  0  0  0  0  0  0
    0.1818    3.9616    0.6723 C   0  0  0  0  0  0  0  0  0  0  0  0
    4.5897   -0.5558    1.3773 C   0  0  0  0  0  0  0  0  0  0  0  0
    4.6714    1.2855   -0.1740 C   0  0  0  0  0  0  0  0  0  0  0  0
    0.9075   -1.8532   -3.3362 N   0  3  0  0  0  0  0  0  0  0  0  0
   -0.9345    4.1425   -0.1538 C   0  0  0  0  0  0  0  0  0  0  0  0
    5.3222    0.4064    0.6905 C   0  0  0  0  0  0  0  0  0  0  0  0
   -0.6214   -1.9932   -3.4044 C   0  0  0  0  0  0  0  0  0  0  0  0
    1.5366   -1.4622   -4.6872 C   0  0  0  0  0  0  0  0  0  0  0  0
    1.5229   -3.1376   -2.8564 C   0  0  0  0  0  0  0  0  0  0  0  0
   -1.3357   -0.7218   -3.9340 C   0  0  0  0  0  0  0  0  0  0  0  0
   -1.2592   -3.2058   -4.1551 C   0  0  0  0  0  0  0  0  0  0  0  0
    3.0775   -1.2033   -4.6635 C   0  0  0  0  0  0  0  0  0  0  0  0
    1.3011   -2.4685   -5.8476 C   0  0  0  0  0  0  0  0  0  0  0  0
    2.5412   -4.3668    1.5307 I   0  5  0  0  0  0  0  0  0  0  0  0
    0.9501   -1.8418   -0.3907 H   0  0  0  0  0  0  0  0  0  0  0  0
   -0.4720   -0.9370   -0.9078 H   0  0  0  0  0  0  0  0  0  0  0  0
   -1.2240    1.0253   -1.3970 H   0  0  0  0  0  0  0  0  0  0  0  0
    1.6393    2.6109    1.4296 H   0  0  0  0  0  0  0  0  0  0  0  0
    2.6900   -1.4004    1.7624 H   0  0  0  0  0  0  0  0  0  0  0  0
    2.8156    1.9223   -1.0151 H   0  0  0  0  0  0  0  0  0  0  0  0
    0.9849    0.2370   -2.7034 H   0  0  0  0  0  0  0  0  0  0  0  0
    2.3491   -0.7422   -2.1436 H   0  0  0  0  0  0  0  0  0  0  0  0
   -1.5831   -0.4903    2.4807 H   0  0  0  0  0  0  0  0  0  0  0  0
   -1.6969   -0.1563    0.7564 H   0  0  0  0  0  0  0  0  0  0  0  0
   -2.2929    3.1962   -1.5177 H   0  0  0  0  0  0  0  0  0  0  0  0
    0.5380    4.7896    1.2727 H   0  0  0  0  0  0  0  0  0  0  0  0
    5.0909   -1.2452    2.0473 H   0  0  0  0  0  0  0  0  0  0  0  0
    5.2500    2.0209   -0.7195 H   0  0  0  0  0  0  0  0  0  0  0  0
   -1.4361    5.0981   -0.1873 H   0  0  0  0  0  0  0  0  0  0  0  0
    6.3956    0.4600    0.8226 H   0  0  0  0  0  0  0  0  0  0  0  0
   -0.9896   -2.2025   -2.3896 H   0  0  0  0  0  0  0  0  0  0  0  0
    1.1225   -0.4868   -5.0181 H   0  0  0  0  0  0  0  0  0  0  0  0
    2.6068   -3.1975   -3.0490 H   0  0  0  0  0  0  0  0  0  0  0  0
    1.4289   -3.2992   -1.7729 H   0  0  0  0  0  0  0  0  0  0  0  0
    1.1063   -4.0341   -3.3356 H   0  0  0  0  0  0  0  0  0  0  0  0
   -1.1004   -0.5365   -5.0013 H   0  0  0  0  0  0  0  0  0  0  0  0
   -2.4381   -0.8368   -3.8557 H   0  0  0  0  0  0  0  0  0  0  0  0
   -1.0772    0.1840   -3.3690 H   0  0  0  0  0  0  0  0  0  0  0  0
   -0.8973   -4.1969   -3.8357 H   0  0  0  0  0  0  0  0  0  0  0  0
   -2.3458   -3.2215   -3.9173 H   0  0  0  0  0  0  0  0  0  0  0  0
   -1.2618   -3.1522   -5.2493 H   0  0  0  0  0  0  0  0  0  0  0  0
    3.6818   -2.1123   -4.4770 H   0  0  0  0  0  0  0  0  0  0  0  0
    3.4021   -0.8490   -5.6720 H   0  0  0  0  0  0  0  0  0  0  0  0
    3.3781   -0.3986   -3.9757 H   0  0  0  0  0  0  0  0  0  0  0  0
    0.2849   -2.3980   -6.2463 H   0  0  0  0  0  0  0  0  0  0  0  0
    1.9063   -2.2010   -6.7371 H   0  0  0  0  0  0  0  0  0  0  0  0
    1.5694   -3.5054   -5.5629 H   0  0  0  0  0  0  0  0  0  0  0  0
  1  2  1  0  0  0  0
  1  3  1  0  0  0  0
  1  4  1  0  0  0  0
  1  5  1  0  0  0  0
  2  6  2  0  0  0  0
  2  7  1  0  0  0  0
  3  8  2  0  0  0  0
  3  9  1  0  0  0  0
  4 10  1  0  0  0  0
  4 28  1  0  0  0  0
  4 29  1  0  0  0  0
  5 11  1  0  0  0  0
  5 12  2  0  0  0  0
  6 13  1  0  0  0  0
  6 30  1  0  0  0  0
  7 14  2  0  0  0  0
  7 31  1  0  0  0  0
  8 15  1  0  0  0  0
  8 32  1  0  0  0  0
  9 16  2  0  0  0  0
  9 33  1  0  0  0  0
 10 17  1  0  0  0  0
 10 34  1  0  0  0  0
 10 35  1  0  0  0  0
 11 36  1  0  0  0  0
 11 37  1  0  0  0  0
 13 18  2  0  0  0  0
 13 38  1  0  0  0  0
 14 18  1  0  0  0  0
 14 39  1  0  0  0  0
 15 19  2  0  0  0  0
 15 40  1  0  0  0  0
 16 19  1  0  0  0  0
 16 41  1  0  0  0  0
 17 20  1  0  0  0  0
 17 21  1  0  0  0  0
 17 22  1  0  0  0  0
 18 42  1  0  0  0  0
 19 43  1  0  0  0  0
 20 23  1  0  0  0  0
 20 24  1  0  0  0  0
 20 44  1  0  0  0  0
 21 25  1  0  0  0  0
 21 26  1  0  0  0  0
 21 45  1  0  0  0  0
 22 46  1  0  0  0  0
 22 47  1  0  0  0  0
 22 48  1  0  0  0  0
 23 49  1  0  0  0  0
 23 50  1  0  0  0  0
 23 51  1  0  0  0  0
 24 52  1  0  0  0  0
 24 53  1  0  0  0  0
 24 54  1  0  0  0  0
 25 55  1  0  0  0  0
 25 56  1  0  0  0  0
 25 57  1  0  0  0  0
 26 58  1  0  0  0  0
 26 59  1  0  0  0  0
 26 60  1  0  0  0  0
M  CHG  2  17   1  27  -1
M  END
>  <Mol_ID>
3370

>  <Formula>
C23H33IN2O

>  <MolWeight>
480.42539

>  <Cat>
S5697

>  <Name>
Isopropamide Iodide

>  <Synonyms>
N/A

>  <Target>
Others

>  <Form>
Iodide

>  <CAS>
71-81-8

>  <URL>
http://www.selleckchem.com/products/isopropamide-Iodide.html

$$$$
