Isosorbide.cdx
 OpenBabel08302522053D

 20 21  0  0  0  0  0  0  0  0999 V2000
    0.9949   -1.3171    0.4338 C   0  0  1  0  0  0  0  0  0  0  0  0
    2.0268   -0.1912    0.4709 C   0  0  0  0  0  0  0  0  0  0  0  0
    1.5136    0.9257   -0.2733 O   0  0  0  0  0  0  0  0  0  0  0  0
    0.1292    0.6994   -0.5161 C   0  0  1  0  0  0  0  0  0  0  0  0
   -0.1208   -0.7898   -0.4579 C   0  0  2  0  0  0  0  0  0  0  0  0
   -0.8279    1.2584    0.5321 C   0  0  1  0  0  0  0  0  0  0  0  0
   -2.0024    0.3007    0.3863 C   0  0  0  0  0  0  0  0  0  0  0  0
   -1.4229   -0.9941    0.1201 O   0  0  0  0  0  0  0  0  0  0  0  0
    1.5569   -2.5252   -0.0804 O   0  0  0  0  0  0  0  0  0  0  0  0
   -0.2984    1.1925    1.8604 O   0  0  0  0  0  0  0  0  0  0  0  0
    0.6375   -1.5486    1.4426 H   0  0  0  0  0  0  0  0  0  0  0  0
    2.9933   -0.4803    0.0475 H   0  0  0  0  0  0  0  0  0  0  0  0
    2.1961    0.1433    1.5000 H   0  0  0  0  0  0  0  0  0  0  0  0
   -0.1325    1.0972   -1.5040 H   0  0  0  0  0  0  0  0  0  0  0  0
   -0.0992   -1.2507   -1.4516 H   0  0  0  0  0  0  0  0  0  0  0  0
   -1.1023    2.2989    0.3416 H   0  0  0  0  0  0  0  0  0  0  0  0
   -2.6108    0.2239    1.2920 H   0  0  0  0  0  0  0  0  0  0  0  0
   -2.6392    0.5647   -0.4639 H   0  0  0  0  0  0  0  0  0  0  0  0
    1.9120   -2.3446   -0.9699 H   0  0  0  0  0  0  0  0  0  0  0  0
   -0.4689    0.3041    2.2190 H   0  0  0  0  0  0  0  0  0  0  0  0
  1  2  1  0  0  0  0
  1  9  1  0  0  0  0
  1 11  1  1  0  0  0
  2  3  1  0  0  0  0
  2 12  1  0  0  0  0
  2 13  1  0  0  0  0
  4  3  1  0  0  0  0
  4  5  1  0  0  0  0
  4  6  1  0  0  0  0
  4 14  1  6  0  0  0
  5  1  1  0  0  0  0
  5  8  1  0  0  0  0
  5 15  1  6  0  0  0
  6  7  1  0  0  0  0
  6 10  1  0  0  0  0
  6 16  1  6  0  0  0
  7  8  1  0  0  0  0
  7 17  1  0  0  0  0
  7 18  1  0  0  0  0
  9 19  1  0  0  0  0
 10 20  1  0  0  0  0
M  END
>  <Mol_ID>
1352

>  <Formula>
C6H10O4

>  <MolWeight>
146.1412

>  <Cat>
S4204

>  <Name>
Isosorbide

>  <Synonyms>
D-Isosorbide,Dianhydro-D-glucitol

>  <Target>
Others

>  <Form>
free base

>  <CAS>
652-67-5

>  <URL>
http://selleckchem.com/products/isosorbide.html

$$$$
