isoxicam.cdx
 OpenBabel08302519573D

 36 38  0  0  0  0  0  0  0  0999 V2000
   -3.0929    0.9338    0.2863 C   0  0  0  0  0  0  0  0  0  0  0  0
   -2.3142    2.0892    0.2326 C   0  0  0  0  0  0  0  0  0  0  0  0
   -0.9358    1.9911    0.0470 C   0  0  0  0  0  0  0  0  0  0  0  0
   -0.3558    0.7262   -0.0881 C   0  0  0  0  0  0  0  0  0  0  0  0
   -1.1068   -0.4465   -0.0056 C   0  0  0  0  0  0  0  0  0  0  0  0
   -2.4931   -0.3234    0.1714 C   0  0  0  0  0  0  0  0  0  0  0  0
    1.3775    0.5500   -0.3406 S   0  0  0  0  0  0  0  0  0  0  0  0
    1.7136   -0.9053    0.5163 N   0  0  0  0  0  0  0  0  0  0  0  0
    0.8540   -1.9882    0.0823 C   0  0  0  0  0  0  0  0  0  0  0  0
   -0.4649   -1.7689   -0.1284 C   0  0  0  0  0  0  0  0  0  0  0  0
   -1.3563   -2.7731   -0.4812 O   0  0  0  0  0  0  0  0  0  0  0  0
    1.4065   -3.3768   -0.0540 C   0  0  0  0  0  0  0  0  0  0  0  0
    2.7781   -3.4529   -0.1216 N   0  0  0  0  0  0  0  0  0  0  0  0
    0.6148   -4.3156   -0.1197 O   0  0  0  0  0  0  0  0  0  0  0  0
    3.4430   -4.6545   -0.3142 C   0  0  0  0  0  0  0  0  0  0  0  0
    4.8464   -4.8048   -0.4537 C   0  0  0  0  0  0  0  0  0  0  0  0
    5.0363   -6.1560   -0.6310 C   0  0  0  0  0  0  0  0  0  0  0  0
    3.8322   -6.7778   -0.6010 O   0  0  0  0  0  0  0  0  0  0  0  0
    2.8443   -5.8470   -0.3982 N   0  0  0  0  0  0  0  0  0  0  0  0
    6.1977   -7.0365   -0.8412 C   0  0  0  0  0  0  0  0  0  0  0  0
    1.7956   -0.7216    1.9916 C   0  0  0  0  0  0  0  0  0  0  0  0
    2.0450    1.6340    0.3502 O   0  0  0  0  0  0  0  0  0  0  0  0
    1.5958    0.3016   -1.7488 O   0  0  0  0  0  0  0  0  0  0  0  0
   -4.1709    1.0056    0.4145 H   0  0  0  0  0  0  0  0  0  0  0  0
   -2.7868    3.0641    0.3255 H   0  0  0  0  0  0  0  0  0  0  0  0
   -0.3283    2.8916   -0.0022 H   0  0  0  0  0  0  0  0  0  0  0  0
   -3.1231   -1.2110    0.2166 H   0  0  0  0  0  0  0  0  0  0  0  0
   -0.8805   -3.6368   -0.4877 H   0  0  0  0  0  0  0  0  0  0  0  0
    3.3186   -2.5986   -0.0977 H   0  0  0  0  0  0  0  0  0  0  0  0
    5.6110   -4.0439   -0.4346 H   0  0  0  0  0  0  0  0  0  0  0  0
    6.1605   -7.8883   -0.1537 H   0  0  0  0  0  0  0  0  0  0  0  0
    6.1994   -7.4267   -1.8639 H   0  0  0  0  0  0  0  0  0  0  0  0
    7.1371   -6.5036   -0.6724 H   0  0  0  0  0  0  0  0  0  0  0  0
    2.6216   -0.0477    2.2406 H   0  0  0  0  0  0  0  0  0  0  0  0
    0.8641   -0.3210    2.4030 H   0  0  0  0  0  0  0  0  0  0  0  0
    2.0063   -1.6783    2.4801 H   0  0  0  0  0  0  0  0  0  0  0  0
  1  2  2  0  0  0  0
  1 24  1  0  0  0  0
  2  3  1  0  0  0  0
  2 25  1  0  0  0  0
  3  4  2  0  0  0  0
  3 26  1  0  0  0  0
  4  5  1  0  0  0  0
  4  7  1  0  0  0  0
  5  6  2  0  0  0  0
  6  1  1  0  0  0  0
  6 27  1  0  0  0  0
  7  8  1  0  0  0  0
  7 22  2  0  0  0  0
  7 23  2  0  0  0  0
  8  9  1  0  0  0  0
  8 21  1  0  0  0  0
  9 10  2  0  0  0  0
  9 12  1  0  0  0  0
 10  5  1  0  0  0  0
 10 11  1  0  0  0  0
 11 28  1  0  0  0  0
 12 13  1  0  0  0  0
 12 14  2  0  0  0  0
 13 15  1  0  0  0  0
 13 29  1  0  0  0  0
 15 16  1  0  0  0  0
 16 17  2  0  0  0  0
 16 30  1  0  0  0  0
 17 18  1  0  0  0  0
 17 20  1  0  0  0  0
 18 19  1  0  0  0  0
 19 15  2  0  0  0  0
 20 31  1  0  0  0  0
 20 32  1  0  0  0  0
 20 33  1  0  0  0  0
 21 34  1  0  0  0  0
 21 35  1  0  0  0  0
 21 36  1  0  0  0  0
M  END
>  <Mol_ID>
2293

>  <Formula>
C14H13N3O5S

>  <MolWeight>
335.33512

>  <Cat>
S4398

>  <Name>
Isoxicam

>  <Synonyms>
N/A

>  <Target>
Others

>  <Form>
Free Base

>  <CAS>
34552-84-6

>  <URL>
http://www.selleckchem.com/products/isoxicam.html

$$$$
