ISRIB (trans-isomer).cdx
 OpenBabel08302521393D

 54 56  0  0  0  0  0  0  0  0999 V2000
   -1.9927    7.3617   -2.2295 C   0  0  0  0  0  0  0  0  0  0  0  0
   -3.1905    8.0440   -2.0411 C   0  0  0  0  0  0  0  0  0  0  0  0
   -4.3844    7.3331   -1.9488 C   0  0  0  0  0  0  0  0  0  0  0  0
   -4.3850    5.9349   -2.0331 C   0  0  0  0  0  0  0  0  0  0  0  0
   -3.1891    5.2421   -2.2214 C   0  0  0  0  0  0  0  0  0  0  0  0
   -1.9962    5.9661   -2.3228 C   0  0  0  0  0  0  0  0  0  0  0  0
   -3.0428    3.8833   -2.3025 O   0  0  0  0  0  0  0  0  0  0  0  0
   -4.2081    3.0775   -2.3499 C   0  0  0  0  0  0  0  0  0  0  0  0
   -4.6895    2.5666   -0.9801 C   0  0  0  0  0  0  0  0  0  0  0  0
   -4.2117    1.3093   -0.6536 N   0  0  0  0  0  0  0  0  0  0  0  0
   -5.4588    3.2015   -0.2679 O   0  0  0  0  0  0  0  0  0  0  0  0
   -4.5338    0.6274    0.5995 C   0  0  2  0  0  0  0  0  0  0  0  0
   -3.5576    1.0456    1.7023 C   0  0  0  0  0  0  0  0  0  0  0  0
   -3.6971    0.2054    2.9690 C   0  0  0  0  0  0  0  0  0  0  0  0
   -3.5567   -1.3002    2.6907 C   0  0  2  0  0  0  0  0  0  0  0  0
   -4.6087   -1.7107    1.6486 C   0  0  0  0  0  0  0  0  0  0  0  0
   -4.5129   -0.8889    0.3654 C   0  0  0  0  0  0  0  0  0  0  0  0
   -3.7304   -2.1095    3.8981 N   0  0  0  0  0  0  0  0  0  0  0  0
   -2.9738   -1.9247    5.0450 C   0  0  0  0  0  0  0  0  0  0  0  0
   -3.3695   -2.8387    6.1992 C   0  0  0  0  0  0  0  0  0  0  0  0
   -2.0854   -1.0823    5.1500 O   0  0  0  0  0  0  0  0  0  0  0  0
   -2.3899   -3.8503    6.3752 O   0  0  0  0  0  0  0  0  0  0  0  0
   -2.6085   -4.7411    7.3944 C   0  0  0  0  0  0  0  0  0  0  0  0
   -3.7092   -4.7412    8.2564 C   0  0  0  0  0  0  0  0  0  0  0  0
   -3.8287   -5.7319    9.2372 C   0  0  0  0  0  0  0  0  0  0  0  0
   -2.8527   -6.7181    9.3651 C   0  0  0  0  0  0  0  0  0  0  0  0
   -1.7476   -6.7081    8.5195 C   0  0  0  0  0  0  0  0  0  0  0  0
   -1.6276   -5.7231    7.5387 C   0  0  0  0  0  0  0  0  0  0  0  0
   -1.0574    7.9084   -2.2982 H   0  0  0  0  0  0  0  0  0  0  0  0
   -3.1940    9.1284   -1.9576 H   0  0  0  0  0  0  0  0  0  0  0  0
   -5.3214    7.8634   -1.7959 H   0  0  0  0  0  0  0  0  0  0  0  0
   -5.3377    5.4273   -1.9280 H   0  0  0  0  0  0  0  0  0  0  0  0
   -1.0563    5.4404   -2.4709 H   0  0  0  0  0  0  0  0  0  0  0  0
   -5.0429    3.5375   -2.8901 H   0  0  0  0  0  0  0  0  0  0  0  0
   -3.9474    2.2011   -2.9563 H   0  0  0  0  0  0  0  0  0  0  0  0
   -3.3998    0.9830   -1.1638 H   0  0  0  0  0  0  0  0  0  0  0  0
   -5.5464    0.9244    0.9012 H   0  0  0  0  0  0  0  0  0  0  0  0
   -2.5270    0.9661    1.3358 H   0  0  0  0  0  0  0  0  0  0  0  0
   -3.7129    2.1017    1.9550 H   0  0  0  0  0  0  0  0  0  0  0  0
   -2.9362    0.5473    3.6771 H   0  0  0  0  0  0  0  0  0  0  0  0
   -4.6685    0.4030    3.4435 H   0  0  0  0  0  0  0  0  0  0  0  0
   -2.5516   -1.5126    2.3043 H   0  0  0  0  0  0  0  0  0  0  0  0
   -4.4988   -2.7737    1.4032 H   0  0  0  0  0  0  0  0  0  0  0  0
   -5.6145   -1.5993    2.0757 H   0  0  0  0  0  0  0  0  0  0  0  0
   -5.3421   -1.1622   -0.3006 H   0  0  0  0  0  0  0  0  0  0  0  0
   -3.5930   -1.1704   -0.1638 H   0  0  0  0  0  0  0  0  0  0  0  0
   -4.0717   -3.0545    3.7654 H   0  0  0  0  0  0  0  0  0  0  0  0
   -3.4483   -2.2053    7.0947 H   0  0  0  0  0  0  0  0  0  0  0  0
   -4.3475   -3.2843    5.9850 H   0  0  0  0  0  0  0  0  0  0  0  0
   -4.4902   -3.9930    8.1982 H   0  0  0  0  0  0  0  0  0  0  0  0
   -4.6892   -5.7307    9.9025 H   0  0  0  0  0  0  0  0  0  0  0  0
   -2.9525   -7.4857   10.1279 H   0  0  0  0  0  0  0  0  0  0  0  0
   -0.9760   -7.4700    8.6205 H   0  0  0  0  0  0  0  0  0  0  0  0
   -0.7605   -5.7177    6.8834 H   0  0  0  0  0  0  0  0  0  0  0  0
  1  2  2  0  0  0  0
  1 29  1  0  0  0  0
  2  3  1  0  0  0  0
  2 30  1  0  0  0  0
  3  4  2  0  0  0  0
  3 31  1  0  0  0  0
  4  5  1  0  0  0  0
  4 32  1  0  0  0  0
  5  6  2  0  0  0  0
  5  7  1  0  0  0  0
  6  1  1  0  0  0  0
  6 33  1  0  0  0  0
  7  8  1  0  0  0  0
  8  9  1  0  0  0  0
  8 34  1  0  0  0  0
  8 35  1  0  0  0  0
  9 10  1  0  0  0  0
  9 11  2  0  0  0  0
 10 36  1  0  0  0  0
 12 10  1  0  0  0  0
 12 13  1  0  0  0  0
 12 37  1  1  0  0  0
 13 14  1  0  0  0  0
 13 38  1  0  0  0  0
 13 39  1  0  0  0  0
 14 15  1  0  0  0  0
 14 40  1  0  0  0  0
 14 41  1  0  0  0  0
 15 16  1  0  0  0  0
 15 42  1  6  0  0  0
 15 18  1  0  0  0  0
 16 17  1  0  0  0  0
 16 43  1  0  0  0  0
 16 44  1  0  0  0  0
 17 12  1  0  0  0  0
 17 45  1  0  0  0  0
 17 46  1  0  0  0  0
 18 19  1  0  0  0  0
 18 47  1  0  0  0  0
 19 20  1  0  0  0  0
 19 21  2  0  0  0  0
 20 22  1  0  0  0  0
 20 48  1  0  0  0  0
 20 49  1  0  0  0  0
 22 23  1  0  0  0  0
 23 24  2  0  0  0  0
 24 25  1  0  0  0  0
 24 50  1  0  0  0  0
 25 26  2  0  0  0  0
 25 51  1  0  0  0  0
 26 27  1  0  0  0  0
 26 52  1  0  0  0  0
 27 28  2  0  0  0  0
 27 53  1  0  0  0  0
 28 23  1  0  0  0  0
 28 54  1  0  0  0  0
M  END
>  <Mol_ID>
8161

>  <Formula>
C22H24Cl2N2O4

>  <MolWeight>
451.34296

>  <Cat>
S7400

>  <Name>
ISRIB (trans-isomer)

>  <Synonyms>
N/A

>  <Target>
PERK

>  <Form>
Free Base

>  <CAS>
1597403-47-8

>  <URL>
http://selleckchem.com/products/isrib-trans-isomer.html

$$$$
