ISRIB
 OpenBabel08302521303D

 54 56  0  0  0  0  0  0  0  0999 V2000
   -1.4063    0.4113   -0.2872 C   0  0  3  0  0  0  0  0  0  0  0  0
   -0.9583   -0.9706    0.2022 C   0  0  0  0  0  0  0  0  0  0  0  0
    0.4934   -1.2906   -0.1618 C   0  0  0  0  0  0  0  0  0  0  0  0
    1.4736   -0.1954    0.2882 C   0  0  3  0  0  0  0  0  0  0  0  0
    1.0249    1.1814   -0.2132 C   0  0  0  0  0  0  0  0  0  0  0  0
   -0.4253    1.5056    0.1527 C   0  0  0  0  0  0  0  0  0  0  0  0
   -2.4994    1.2763   -2.3388 C   0  0  0  0  0  0  0  0  0  0  0  0
   -2.6029    1.1338   -3.8649 C   0  0  0  0  0  0  0  0  0  0  0  0
   -3.1882    2.0673   -1.6983 O   0  0  0  0  0  0  0  0  0  0  0  0
   -1.6048    0.4120   -1.7341 N   0  0  0  0  0  0  0  0  0  0  0  0
   -1.7391    1.9778   -4.6122 O   0  0  0  0  0  0  0  0  0  0  0  0
   -2.2775    3.1507   -5.0707 C   0  0  0  0  0  0  0  0  0  0  0  0
   -3.2593    3.8927   -4.4139 C   0  0  0  0  0  0  0  0  0  0  0  0
   -3.6983    5.1101   -4.9425 C   0  0  0  0  0  0  0  0  0  0  0  0
   -3.1601    5.5931   -6.1324 C   0  0  0  0  0  0  0  0  0  0  0  0
   -2.1801    4.8572   -6.7953 C   0  0  0  0  0  0  0  0  0  0  0  0
   -1.7364    3.6441   -6.2615 C   0  0  0  0  0  0  0  0  0  0  0  0
    2.5428   -1.0154    2.3842 C   0  0  0  0  0  0  0  0  0  0  0  0
    2.3904   -1.0483    3.9081 C   0  0  0  0  0  0  0  0  0  0  0  0
    3.3705   -1.6973    1.7876 O   0  0  0  0  0  0  0  0  0  0  0  0
    1.6295   -0.1975    1.7400 N   0  0  0  0  0  0  0  0  0  0  0  0
    3.2176   -0.1098    4.5777 O   0  0  0  0  0  0  0  0  0  0  0  0
    3.1641   -0.1442    5.9512 C   0  0  0  0  0  0  0  0  0  0  0  0
    2.2976   -0.9355    6.7109 C   0  0  0  0  0  0  0  0  0  0  0  0
    2.3225   -0.8812    8.1080 C   0  0  0  0  0  0  0  0  0  0  0  0
    3.2191   -0.0363    8.7576 C   0  0  0  0  0  0  0  0  0  0  0  0
    4.0891    0.7537    8.0116 C   0  0  0  0  0  0  0  0  0  0  0  0
    4.0602    0.7011    6.6128 C   0  0  0  0  0  0  0  0  0  0  0  0
   -2.3810    0.6301    0.1677 H   0  0  0  0  0  0  0  0  0  0  0  0
   -1.0691   -1.0142    1.2936 H   0  0  0  0  0  0  0  0  0  0  0  0
   -1.6159   -1.7466   -0.2090 H   0  0  0  0  0  0  0  0  0  0  0  0
    0.7681   -2.2575    0.2767 H   0  0  0  0  0  0  0  0  0  0  0  0
    0.5692   -1.4108   -1.2497 H   0  0  0  0  0  0  0  0  0  0  0  0
    2.4551   -0.4194   -0.1471 H   0  0  0  0  0  0  0  0  0  0  0  0
    1.6821    1.9600    0.1923 H   0  0  0  0  0  0  0  0  0  0  0  0
    1.1318    1.2158   -1.3049 H   0  0  0  0  0  0  0  0  0  0  0  0
   -0.7006    2.4718   -0.2870 H   0  0  0  0  0  0  0  0  0  0  0  0
   -0.5006    1.6300    1.2404 H   0  0  0  0  0  0  0  0  0  0  0  0
   -2.3212    0.1041   -4.1199 H   0  0  0  0  0  0  0  0  0  0  0  0
   -3.6538    1.2209   -4.1691 H   0  0  0  0  0  0  0  0  0  0  0  0
   -0.9481   -0.0831   -2.3241 H   0  0  0  0  0  0  0  0  0  0  0  0
   -3.6897    3.5695   -3.4733 H   0  0  0  0  0  0  0  0  0  0  0  0
   -4.4534    5.6852   -4.4121 H   0  0  0  0  0  0  0  0  0  0  0  0
   -3.4985    6.5440   -6.5355 H   0  0  0  0  0  0  0  0  0  0  0  0
   -1.7566    5.2321   -7.7235 H   0  0  0  0  0  0  0  0  0  0  0  0
   -0.9668    3.0806   -6.7823 H   0  0  0  0  0  0  0  0  0  0  0  0
    1.3372   -0.8441    4.1406 H   0  0  0  0  0  0  0  0  0  0  0  0
    2.6314   -2.0717    4.2199 H   0  0  0  0  0  0  0  0  0  0  0  0
    0.9651    0.3168    2.3045 H   0  0  0  0  0  0  0  0  0  0  0  0
    1.5816   -1.6111    6.2538 H   0  0  0  0  0  0  0  0  0  0  0  0
    1.6429   -1.4998    8.6860 H   0  0  0  0  0  0  0  0  0  0  0  0
    3.2381    0.0033    9.8441 H   0  0  0  0  0  0  0  0  0  0  0  0
    4.7924    1.4126    8.5157 H   0  0  0  0  0  0  0  0  0  0  0  0
    4.7461    1.3205    6.0406 H   0  0  0  0  0  0  0  0  0  0  0  0
  1  2  1  0  0  0  0
  1  6  1  0  0  0  0
  1 10  1  0  0  0  0
  1 29  1  0  0  0  0
  2  3  1  0  0  0  0
  2 30  1  0  0  0  0
  2 31  1  0  0  0  0
  3  4  1  0  0  0  0
  3 32  1  0  0  0  0
  3 33  1  0  0  0  0
  4  5  1  0  0  0  0
  4 21  1  0  0  0  0
  4 34  1  0  0  0  0
  5  6  1  0  0  0  0
  5 35  1  0  0  0  0
  5 36  1  0  0  0  0
  6 37  1  0  0  0  0
  6 38  1  0  0  0  0
  7  8  1  0  0  0  0
  7  9  2  0  0  0  0
  7 10  1  0  0  0  0
  8 11  1  0  0  0  0
  8 39  1  0  0  0  0
  8 40  1  0  0  0  0
 10 41  1  0  0  0  0
 11 12  1  0  0  0  0
 12 13  2  0  0  0  0
 12 17  1  0  0  0  0
 13 14  1  0  0  0  0
 13 42  1  0  0  0  0
 14 15  2  0  0  0  0
 14 43  1  0  0  0  0
 15 16  1  0  0  0  0
 15 44  1  0  0  0  0
 16 17  2  0  0  0  0
 16 45  1  0  0  0  0
 17 46  1  0  0  0  0
 18 19  1  0  0  0  0
 18 20  2  0  0  0  0
 18 21  1  0  0  0  0
 19 22  1  0  0  0  0
 19 47  1  0  0  0  0
 19 48  1  0  0  0  0
 21 49  1  0  0  0  0
 22 23  1  0  0  0  0
 23 24  2  0  0  0  0
 23 28  1  0  0  0  0
 24 25  1  0  0  0  0
 24 50  1  0  0  0  0
 25 26  2  0  0  0  0
 25 51  1  0  0  0  0
 26 27  1  0  0  0  0
 26 52  1  0  0  0  0
 27 28  2  0  0  0  0
 27 53  1  0  0  0  0
 28 54  1  0  0  0  0
M  END
>  <Mol_ID>
5640

>  <Formula>
C22H24Cl2N2O4

>  <MolWeight>
451.34296

>  <Cat>
S0706

>  <Name>
ISRIB

>  <Synonyms>
N/A

>  <Target>
eIF

>  <Form>
Free Base

>  <CAS>
548470-11-7

>  <URL>
http://www.selleckchem.com/products/isrib.html

$$$$
