Istradefylline (KW-6002).cdx
 OpenBabel08302521313D

 52 54  0  0  0  0  0  0  0  0999 V2000
   -1.3260   -1.4840   -0.0224 N   0  0  0  0  0  0  0  0  0  0  0  0
   -2.3479   -0.5331    0.0137 C   0  0  0  0  0  0  0  0  0  0  0  0
   -1.7948    0.6856    0.0371 N   0  0  0  0  0  0  0  0  0  0  0  0
   -0.4180    0.4986    0.0017 C   0  0  0  0  0  0  0  0  0  0  0  0
    0.6142    1.4347    0.0101 N   0  0  0  0  0  0  0  0  0  0  0  0
    1.9631    0.9937    0.0314 C   0  0  0  0  0  0  0  0  0  0  0  0
    2.1852   -0.3963    0.0139 N   0  0  0  0  0  0  0  0  0  0  0  0
    1.1919   -1.3377   -0.1714 C   0  0  0  0  0  0  0  0  0  0  0  0
   -0.1234   -0.8257   -0.0737 C   0  0  0  0  0  0  0  0  0  0  0  0
    2.9073    1.7865    0.0537 O   0  0  0  0  0  0  0  0  0  0  0  0
    1.4404   -2.5229   -0.4178 O   0  0  0  0  0  0  0  0  0  0  0  0
   -1.4904   -2.9231    0.0172 C   0  0  0  0  0  0  0  0  0  0  0  0
    0.3777    2.8769    0.0135 C   0  0  0  0  0  0  0  0  0  0  0  0
    0.3127    3.4717    1.4148 C   0  0  0  0  0  0  0  0  0  0  0  0
    3.5619   -0.8912    0.0356 C   0  0  0  0  0  0  0  0  0  0  0  0
    4.1449   -1.0825   -1.3577 C   0  0  0  0  0  0  0  0  0  0  0  0
   -3.6999   -1.0365    0.0182 C   0  0  0  0  0  0  0  0  0  0  0  0
   -4.8467   -0.3359    0.0508 C   0  0  0  0  0  0  0  0  0  0  0  0
   -6.1958   -0.9963    0.0402 C   0  0  0  0  0  0  0  0  0  0  0  0
   -6.4442   -2.2770    0.5889 C   0  0  0  0  0  0  0  0  0  0  0  0
   -7.7317   -2.8691    0.5904 C   0  0  0  0  0  0  0  0  0  0  0  0
   -8.8097   -2.1640    0.0341 C   0  0  0  0  0  0  0  0  0  0  0  0
   -8.5706   -0.8925   -0.5075 C   0  0  0  0  0  0  0  0  0  0  0  0
   -7.2909   -0.3153   -0.5036 C   0  0  0  0  0  0  0  0  0  0  0  0
  -10.1259   -2.5434   -0.0591 O   0  0  0  0  0  0  0  0  0  0  0  0
  -10.5363   -3.8058    0.4553 C   0  0  0  0  0  0  0  0  0  0  0  0
   -8.0029   -4.1037    1.1122 O   0  0  0  0  0  0  0  0  0  0  0  0
   -6.9647   -4.8699    1.6954 C   0  0  0  0  0  0  0  0  0  0  0  0
   -2.0651   -3.1805    0.9109 H   0  0  0  0  0  0  0  0  0  0  0  0
   -2.0044   -3.2345   -0.8952 H   0  0  0  0  0  0  0  0  0  0  0  0
   -0.5359   -3.4385    0.0828 H   0  0  0  0  0  0  0  0  0  0  0  0
    1.1776    3.3699   -0.5617 H   0  0  0  0  0  0  0  0  0  0  0  0
   -0.5571    3.1066   -0.5002 H   0  0  0  0  0  0  0  0  0  0  0  0
    1.2709    3.3923    1.9393 H   0  0  0  0  0  0  0  0  0  0  0  0
    0.0443    4.5327    1.3594 H   0  0  0  0  0  0  0  0  0  0  0  0
   -0.4489    2.9644    2.0148 H   0  0  0  0  0  0  0  0  0  0  0  0
    4.1870   -0.1927    0.6040 H   0  0  0  0  0  0  0  0  0  0  0  0
    3.6034   -1.8522    0.5728 H   0  0  0  0  0  0  0  0  0  0  0  0
    4.1580   -0.1434   -1.9175 H   0  0  0  0  0  0  0  0  0  0  0  0
    5.1745   -1.4492   -1.2934 H   0  0  0  0  0  0  0  0  0  0  0  0
    3.5607   -1.8056   -1.9365 H   0  0  0  0  0  0  0  0  0  0  0  0
   -3.8206   -2.1125   -0.0337 H   0  0  0  0  0  0  0  0  0  0  0  0
   -4.8387    0.7507    0.0586 H   0  0  0  0  0  0  0  0  0  0  0  0
   -5.6141   -2.8136    1.0339 H   0  0  0  0  0  0  0  0  0  0  0  0
   -9.4053   -0.3425   -0.9426 H   0  0  0  0  0  0  0  0  0  0  0  0
   -7.1685    0.6730   -0.9416 H   0  0  0  0  0  0  0  0  0  0  0  0
  -10.0588   -4.6315   -0.0826 H   0  0  0  0  0  0  0  0  0  0  0  0
  -10.3771   -3.8718    1.5368 H   0  0  0  0  0  0  0  0  0  0  0  0
  -11.6150   -3.9033    0.2896 H   0  0  0  0  0  0  0  0  0  0  0  0
   -6.2023   -5.1252    0.9543 H   0  0  0  0  0  0  0  0  0  0  0  0
   -6.5346   -4.3586    2.5609 H   0  0  0  0  0  0  0  0  0  0  0  0
   -7.4097   -5.8061    2.0505 H   0  0  0  0  0  0  0  0  0  0  0  0
  1  2  1  0  0  0  0
  1  9  1  0  0  0  0
  1 12  1  0  0  0  0
  2  3  2  0  0  0  0
  2 17  1  0  0  0  0
  3  4  1  0  0  0  0
  4  5  1  0  0  0  0
  4  9  2  0  0  0  0
  5  6  1  0  0  0  0
  5 13  1  0  0  0  0
  6  7  1  0  0  0  0
  6 10  2  0  0  0  0
  7  8  1  0  0  0  0
  7 15  1  0  0  0  0
  8  9  1  0  0  0  0
  8 11  2  0  0  0  0
 12 29  1  0  0  0  0
 12 30  1  0  0  0  0
 12 31  1  0  0  0  0
 13 14  1  0  0  0  0
 13 32  1  0  0  0  0
 13 33  1  0  0  0  0
 14 34  1  0  0  0  0
 14 35  1  0  0  0  0
 14 36  1  0  0  0  0
 15 16  1  0  0  0  0
 15 37  1  0  0  0  0
 15 38  1  0  0  0  0
 16 39  1  0  0  0  0
 16 40  1  0  0  0  0
 16 41  1  0  0  0  0
 17 18  2  0  0  0  0
 17 42  1  0  0  0  0
 18 19  1  0  0  0  0
 18 43  1  0  0  0  0
 19 20  2  0  0  0  0
 19 24  1  0  0  0  0
 20 21  1  0  0  0  0
 20 44  1  0  0  0  0
 21 22  2  0  0  0  0
 21 27  1  0  0  0  0
 22 23  1  0  0  0  0
 22 25  1  0  0  0  0
 23 24  2  0  0  0  0
 23 45  1  0  0  0  0
 24 46  1  0  0  0  0
 25 26  1  0  0  0  0
 26 47  1  0  0  0  0
 26 48  1  0  0  0  0
 26 49  1  0  0  0  0
 27 28  1  0  0  0  0
 28 50  1  0  0  0  0
 28 51  1  0  0  0  0
 28 52  1  0  0  0  0
M  END
>  <Mol_ID>
563

>  <Formula>
C20H24N4O4

>  <MolWeight>
384.42896

>  <Cat>
S2790

>  <Name>
Istradefylline

>  <Synonyms>
KW-6002

>  <Target>
Adenosine Receptor

>  <Form>
free base

>  <CAS>
155270-99-8

>  <URL>
http://selleckchem.com/products/istradefylline-kw-6002.html

$$$$
