Itanapraced (CHF 5074)
 OpenBabel08302520143D

 32 34  0  0  0  0  0  0  0  0999 V2000
    1.4462   -0.3865   -0.5140 C   0  0  0  0  0  0  0  0  0  0  0  0
    0.6578   -1.4951   -0.2235 C   0  0  0  0  0  0  0  0  0  0  0  0
   -0.6327   -1.3145    0.2565 C   0  0  0  0  0  0  0  0  0  0  0  0
   -1.1306   -0.0234    0.4635 C   0  0  0  0  0  0  0  0  0  0  0  0
   -0.3407    1.1174    0.2257 C   0  0  0  0  0  0  0  0  0  0  0  0
    0.9512    0.9006   -0.2892 C   0  0  0  0  0  0  0  0  0  0  0  0
   -0.8229    2.4860    0.5295 C   0  0  0  0  0  0  0  0  0  0  0  0
   -1.7032    2.7562    1.5882 C   0  0  0  0  0  0  0  0  0  0  0  0
   -2.1557    4.0470    1.8682 C   0  0  0  0  0  0  0  0  0  0  0  0
   -1.7435    5.1457    1.1027 C   0  0  0  0  0  0  0  0  0  0  0  0
   -0.8193    4.8984    0.0817 C   0  0  0  0  0  0  0  0  0  0  0  0
   -0.3884    3.5981   -0.2144 C   0  0  0  0  0  0  0  0  0  0  0  0
   -2.1515    1.7716    2.3832 F   0  0  0  0  0  0  0  0  0  0  0  0
   -2.3300    6.5305    1.3339 C   0  0  0  0  0  0  0  0  0  0  0  0
   -1.6648    7.3770    2.3792 C   0  0  0  0  0  0  0  0  0  0  0  0
   -2.2344    7.2920    3.6039 O   0  0  0  0  0  0  0  0  0  0  0  0
   -0.6974    8.0831    2.1298 O   0  0  0  0  0  0  0  0  0  0  0  0
   -3.8368    6.6365    1.0792 C   0  0  0  0  0  0  0  0  0  0  0  0
   -2.8911    7.3038    0.1359 C   0  0  0  0  0  0  0  0  0  0  0  0
    2.4544   -0.5166   -0.8988 H   0  0  0  0  0  0  0  0  0  0  0  0
    1.0546   -2.4960   -0.3685 H   0  0  0  0  0  0  0  0  0  0  0  0
   -1.2548   -2.1772    0.4832 H   0  0  0  0  0  0  0  0  0  0  0  0
   -2.1503    0.0726    0.8312 H   0  0  0  0  0  0  0  0  0  0  0  0
    1.6126    1.7389   -0.5000 H   0  0  0  0  0  0  0  0  0  0  0  0
   -2.8571    4.1711    2.6882 H   0  0  0  0  0  0  0  0  0  0  0  0
   -0.4431    5.7267   -0.5180 H   0  0  0  0  0  0  0  0  0  0  0  0
    0.2884    3.4732   -1.0571 H   0  0  0  0  0  0  0  0  0  0  0  0
   -2.9799    6.6644    3.6190 H   0  0  0  0  0  0  0  0  0  0  0  0
   -4.3654    5.7668    0.6963 H   0  0  0  0  0  0  0  0  0  0  0  0
   -4.4434    7.2633    1.7233 H   0  0  0  0  0  0  0  0  0  0  0  0
   -2.8404    8.3870    0.1578 H   0  0  0  0  0  0  0  0  0  0  0  0
   -2.7557    6.8880   -0.8544 H   0  0  0  0  0  0  0  0  0  0  0  0
  1  2  2  0  0  0  0
  1 20  1  0  0  0  0
  2  3  1  0  0  0  0
  2 21  1  0  0  0  0
  3  4  2  0  0  0  0
  3 22  1  0  0  0  0
  4  5  1  0  0  0  0
  4 23  1  0  0  0  0
  5  6  2  0  0  0  0
  5  7  1  0  0  0  0
  6  1  1  0  0  0  0
  6 24  1  0  0  0  0
  7  8  2  0  0  0  0
  8  9  1  0  0  0  0
  8 13  1  0  0  0  0
  9 10  2  0  0  0  0
  9 25  1  0  0  0  0
 10 11  1  0  0  0  0
 10 14  1  0  0  0  0
 11 12  2  0  0  0  0
 11 26  1  0  0  0  0
 12  7  1  0  0  0  0
 12 27  1  0  0  0  0
 14 15  1  0  0  0  0
 14 18  1  0  0  0  0
 15 16  1  0  0  0  0
 15 17  2  0  0  0  0
 16 28  1  0  0  0  0
 18 19  1  0  0  0  0
 18 29  1  0  0  0  0
 18 30  1  0  0  0  0
 19 14  1  0  0  0  0
 19 31  1  0  0  0  0
 19 32  1  0  0  0  0
M  END
>  <Mol_ID>
3199

>  <Formula>
C16H11Cl2FO2

>  <MolWeight>
325.1617432

>  <Cat>
S7323

>  <Name>
Itanapraced (CHF 5074)

>  <Synonyms>
CSP-1103

>  <Target>
Secretase,Secretase

>  <Form>
Free Base

>  <CAS>
749269-83-8

>  <URL>
http://www.selleckchem.com/products/chf-5074.html

$$$$
