ITE
 OpenBabel08302521313D

 30 32  0  0  0  0  0  0  0  0999 V2000
   -2.3664   -2.3198   -1.4905 S   0  0  0  0  0  0  0  0  0  0  0  0
   -0.0373   -1.6484    0.4599 O   0  0  0  0  0  0  0  0  0  0  0  0
   -2.2758   -7.1718   -1.3018 O   0  0  0  0  0  0  0  0  0  0  0  0
   -4.1263   -6.4571   -2.4542 O   0  0  0  0  0  0  0  0  0  0  0  0
    2.7169   -5.1219   -0.5968 N   0  0  0  0  0  0  0  0  0  0  0  0
   -1.4096   -4.6277   -0.8914 N   0  0  0  0  0  0  0  0  0  0  0  0
    2.1683   -3.6594    0.9944 C   0  0  0  0  0  0  0  0  0  0  0  0
    1.1638   -3.6108   -0.0324 C   0  0  0  0  0  0  0  0  0  0  0  0
    3.1051   -4.6269    0.6234 C   0  0  0  0  0  0  0  0  0  0  0  0
    1.5615   -4.5173   -1.0045 C   0  0  0  0  0  0  0  0  0  0  0  0
    2.3559   -2.9913    2.2240 C   0  0  0  0  0  0  0  0  0  0  0  0
   -0.0324   -2.7568   -0.0715 C   0  0  0  0  0  0  0  0  0  0  0  0
    4.2062   -4.9679    1.4174 C   0  0  0  0  0  0  0  0  0  0  0  0
    3.4494   -3.3245    3.0337 C   0  0  0  0  0  0  0  0  0  0  0  0
   -1.1800   -3.3330   -0.7733 C   0  0  0  0  0  0  0  0  0  0  0  0
    4.3577   -4.3017    2.6355 C   0  0  0  0  0  0  0  0  0  0  0  0
   -2.5940   -4.8620   -1.5901 C   0  0  0  0  0  0  0  0  0  0  0  0
   -3.2318   -3.7081   -2.0109 C   0  0  0  0  0  0  0  0  0  0  0  0
   -3.0930   -6.2180   -1.8387 C   0  0  0  0  0  0  0  0  0  0  0  0
   -2.7142   -8.5163   -1.4847 C   0  0  0  0  0  0  0  0  0  0  0  0
    3.2137   -5.8371   -1.1097 H   0  0  0  0  0  0  0  0  0  0  0  0
    1.1073   -4.7948   -1.9469 H   0  0  0  0  0  0  0  0  0  0  0  0
    1.6537   -2.2278    2.5492 H   0  0  0  0  0  0  0  0  0  0  0  0
    4.9159   -5.7281    1.1076 H   0  0  0  0  0  0  0  0  0  0  0  0
    3.5858   -2.8166    3.9853 H   0  0  0  0  0  0  0  0  0  0  0  0
    5.1964   -4.5522    3.2806 H   0  0  0  0  0  0  0  0  0  0  0  0
   -4.1512   -3.6194   -2.5738 H   0  0  0  0  0  0  0  0  0  0  0  0
   -3.6882   -8.6730   -1.0113 H   0  0  0  0  0  0  0  0  0  0  0  0
   -2.7521   -8.7665   -2.5490 H   0  0  0  0  0  0  0  0  0  0  0  0
   -1.9861   -9.1745   -1.0012 H   0  0  0  0  0  0  0  0  0  0  0  0
  1 15  1  0  0  0  0
  1 18  1  0  0  0  0
  2 12  2  0  0  0  0
  3 19  1  0  0  0  0
  3 20  1  0  0  0  0
  4 19  2  0  0  0  0
  5  9  1  0  0  0  0
  5 10  1  0  0  0  0
  5 21  1  0  0  0  0
  6 15  2  0  0  0  0
  6 17  1  0  0  0  0
  7  8  1  0  0  0  0
  7  9  2  0  0  0  0
  7 11  1  0  0  0  0
  8 10  2  0  0  0  0
  8 12  1  0  0  0  0
  9 13  1  0  0  0  0
 10 22  1  0  0  0  0
 11 14  2  0  0  0  0
 11 23  1  0  0  0  0
 12 15  1  0  0  0  0
 13 16  2  0  0  0  0
 13 24  1  0  0  0  0
 14 16  1  0  0  0  0
 14 25  1  0  0  0  0
 16 26  1  0  0  0  0
 17 18  2  0  0  0  0
 17 19  1  0  0  0  0
 18 27  1  0  0  0  0
 20 28  1  0  0  0  0
 20 29  1  0  0  0  0
 20 30  1  0  0  0  0
M  END
>  <Mol_ID>
6086

>  <Formula>
C14H10N2O3S

>  <MolWeight>
286.3058

>  <Cat>
E0143

>  <Name>
ITE

>  <Synonyms>
2-(1¡äH-indole-3¡ä-carbonyl)-thiazole-4-carboxylic acid methyl ester

>  <Target>
AhR

>  <Form>
Free Base

>  <CAS>
448906-42-1

>  <URL>
http://www.selleckchem.com/products/ite.html

$$$$
