ITF3756
 OpenBabel08302521353D

 32 34  0  0  0  0  0  0  0  0999 V2000
    0.9510    0.1090    0.0590 C   0  0  0  0  0  0  0  0  0  0  0  0
   -0.9691    2.8374   -4.6872 C   0  0  0  0  0  0  0  0  0  0  0  0
   -0.0370    3.3969   -5.5312 N   0  0  0  0  0  0  0  0  0  0  0  0
   -2.1731    2.8843   -4.9240 O   0  0  0  0  0  0  0  0  0  0  0  0
   -0.5530    3.9553   -6.7233 O   0  0  0  0  0  0  0  0  0  0  0  0
    0.8437    0.3187    2.5957 C   0  0  0  0  0  0  0  0  0  0  0  0
    0.5344    0.7124    1.3132 N   0  0  0  0  0  0  0  0  0  0  0  0
    0.3482    1.2204    3.4190 N   0  0  0  0  0  0  0  0  0  0  0  0
   -0.1665    1.8633    1.3591 N   0  0  0  0  0  0  0  0  0  0  0  0
   -0.2831    2.1555    2.6439 N   0  0  0  0  0  0  0  0  0  0  0  0
    1.6216   -0.8112    3.0246 C   0  0  0  0  0  0  0  0  0  0  0  0
    2.3518   -0.8852    4.1975 C   0  0  0  0  0  0  0  0  0  0  0  0
    1.7252   -2.2876    2.1600 S   0  0  0  0  0  0  0  0  0  0  0  0
    3.0522   -2.1202    4.3384 C   0  0  0  0  0  0  0  0  0  0  0  0
    2.8105   -2.9685    3.2832 C   0  0  0  0  0  0  0  0  0  0  0  0
    0.4728    0.8148   -1.1857 C   0  0  0  0  0  0  0  0  0  0  0  0
    1.2539    1.8119   -1.7857 C   0  0  0  0  0  0  0  0  0  0  0  0
   -0.7734    0.4912   -1.7438 C   0  0  0  0  0  0  0  0  0  0  0  0
    0.7995    2.4712   -2.9290 C   0  0  0  0  0  0  0  0  0  0  0  0
   -1.2280    1.1490   -2.8870 C   0  0  0  0  0  0  0  0  0  0  0  0
   -0.4407    2.1377   -3.4889 C   0  0  0  0  0  0  0  0  0  0  0  0
    0.5590   -0.9116    0.0416 H   0  0  0  0  0  0  0  0  0  0  0  0
    2.0465    0.0622    0.0668 H   0  0  0  0  0  0  0  0  0  0  0  0
    0.9380    3.1208   -5.5490 H   0  0  0  0  0  0  0  0  0  0  0  0
   -1.5228    3.8655   -6.5891 H   0  0  0  0  0  0  0  0  0  0  0  0
    2.3984   -0.0757    4.9187 H   0  0  0  0  0  0  0  0  0  0  0  0
    3.6986   -2.3716    5.1703 H   0  0  0  0  0  0  0  0  0  0  0  0
    3.2070   -3.9621    3.1235 H   0  0  0  0  0  0  0  0  0  0  0  0
    2.2114    2.0988   -1.3544 H   0  0  0  0  0  0  0  0  0  0  0  0
   -1.4074   -0.2648   -1.2829 H   0  0  0  0  0  0  0  0  0  0  0  0
    1.4084    3.2701   -3.3428 H   0  0  0  0  0  0  0  0  0  0  0  0
   -2.2026    0.8952   -3.3002 H   0  0  0  0  0  0  0  0  0  0  0  0
  1  7  1  0  0  0  0
  1 16  1  0  0  0  0
  1 22  1  0  0  0  0
  1 23  1  0  0  0  0
  2  3  1  0  0  0  0
  2  4  2  0  0  0  0
  2 21  1  0  0  0  0
  3  5  1  0  0  0  0
  3 24  1  0  0  0  0
  5 25  1  0  0  0  0
  6  7  1  0  0  0  0
  6  8  2  0  0  0  0
  6 11  1  0  0  0  0
  7  9  1  0  0  0  0
  8 10  1  0  0  0  0
  9 10  2  0  0  0  0
 11 12  2  0  0  0  0
 11 13  1  0  0  0  0
 12 14  1  0  0  0  0
 12 26  1  0  0  0  0
 13 15  1  0  0  0  0
 14 15  2  0  0  0  0
 14 27  1  0  0  0  0
 15 28  1  0  0  0  0
 16 17  2  0  0  0  0
 16 18  1  0  0  0  0
 17 19  1  0  0  0  0
 17 29  1  0  0  0  0
 18 20  2  0  0  0  0
 18 30  1  0  0  0  0
 19 21  2  0  0  0  0
 19 31  1  0  0  0  0
 20 21  1  0  0  0  0
 20 32  1  0  0  0  0
M  END
>  <Mol_ID>
6937

>  <Formula>
C13H11N5O2S

>  <MolWeight>
301.32374

>  <Cat>
E1469

>  <Name>
ITF3756

>  <Target>
HDAC6?selective inhibitors

>  <Form>
free base

>  <CAS>
2247608-27-9

>  <URL>
https://www.selleckchem.com/products/itf3756.html

$$$$
