ITSA-1 (ITSA1).cdx
 OpenBabel08302520433D

 26 28  0  0  0  0  0  0  0  0999 V2000
   -2.1260   -0.7321    0.0343 C   0  0  0  0  0  0  0  0  0  0  0  0
   -2.1851    0.6633    0.0607 C   0  0  0  0  0  0  0  0  0  0  0  0
   -1.0220    1.4408    0.0639 C   0  0  0  0  0  0  0  0  0  0  0  0
    0.1980    0.7525    0.0228 C   0  0  0  0  0  0  0  0  0  0  0  0
    0.2788   -0.6332   -0.0228 C   0  0  0  0  0  0  0  0  0  0  0  0
   -0.8953   -1.3974   -0.0023 C   0  0  0  0  0  0  0  0  0  0  0  0
    1.5198    1.1563   -0.0535 N   0  0  0  0  0  0  0  0  0  0  0  0
    2.3356    0.0722   -0.1441 N   0  0  0  0  0  0  0  0  0  0  0  0
    1.5862   -1.0201   -0.1061 N   0  0  0  0  0  0  0  0  0  0  0  0
    2.0615    2.4512   -0.0664 C   0  0  0  0  0  0  0  0  0  0  0  0
    3.4091    2.7690   -0.6045 C   0  0  0  0  0  0  0  0  0  0  0  0
    1.3656    3.3706    0.3644 O   0  0  0  0  0  0  0  0  0  0  0  0
    3.8824    2.1188   -1.7519 C   0  0  0  0  0  0  0  0  0  0  0  0
    5.1282    2.4530   -2.2815 C   0  0  0  0  0  0  0  0  0  0  0  0
    5.8982    3.4436   -1.6752 C   0  0  0  0  0  0  0  0  0  0  0  0
    5.4196    4.1107   -0.5465 C   0  0  0  0  0  0  0  0  0  0  0  0
    4.1711    3.7826   -0.0140 C   0  0  0  0  0  0  0  0  0  0  0  0
   -3.0474   -1.3105    0.0331 H   0  0  0  0  0  0  0  0  0  0  0  0
   -3.1550    1.1578    0.0711 H   0  0  0  0  0  0  0  0  0  0  0  0
   -1.0699    2.5265    0.0729 H   0  0  0  0  0  0  0  0  0  0  0  0
   -0.8470   -2.4816   -0.0346 H   0  0  0  0  0  0  0  0  0  0  0  0
    3.2907    1.3582   -2.2561 H   0  0  0  0  0  0  0  0  0  0  0  0
    5.4938    1.9419   -3.1687 H   0  0  0  0  0  0  0  0  0  0  0  0
    6.8709    3.7006   -2.0883 H   0  0  0  0  0  0  0  0  0  0  0  0
    6.0199    4.8905   -0.0843 H   0  0  0  0  0  0  0  0  0  0  0  0
    3.7991    4.3174    0.8575 H   0  0  0  0  0  0  0  0  0  0  0  0
  1  2  2  0  0  0  0
  1 18  1  0  0  0  0
  2  3  1  0  0  0  0
  2 19  1  0  0  0  0
  3  4  2  0  0  0  0
  3 20  1  0  0  0  0
  4  5  1  0  0  0  0
  4  7  1  0  0  0  0
  5  6  2  0  0  0  0
  6  1  1  0  0  0  0
  6 21  1  0  0  0  0
  7  8  1  0  0  0  0
  7 10  1  0  0  0  0
  8  9  2  0  0  0  0
  9  5  1  0  0  0  0
 10 11  1  0  0  0  0
 10 12  2  0  0  0  0
 11 13  2  0  0  0  0
 13 14  1  0  0  0  0
 13 22  1  0  0  0  0
 14 15  2  0  0  0  0
 14 23  1  0  0  0  0
 15 16  1  0  0  0  0
 15 24  1  0  0  0  0
 16 17  2  0  0  0  0
 16 25  1  0  0  0  0
 17 11  1  0  0  0  0
 17 26  1  0  0  0  0
M  END
>  <Mol_ID>
4051

>  <Formula>
C13H7Cl2N3O

>  <MolWeight>
292.12018

>  <Cat>
S8323

>  <Name>
ITSA-1 (ITSA1)

>  <Synonyms>
N/A

>  <Target>
HDAC

>  <Form>
free base

>  <CAS>
200626-61-5

>  <URL>
http://selleckchem.com/products/itsa-1-itsa1.html

$$$$
