IUN76750
 OpenBabel08302521323D

 32 33  0  0  0  0  0  0  0  0999 V2000
    0.9438    0.1873    0.0345 C   0  0  0  0  0  0  0  0  0  0  0  0
    0.4304   -0.5305    1.3013 C   0  0  0  0  0  0  0  0  0  0  0  0
    0.3507    1.6160    0.0330 C   0  0  0  0  0  0  0  0  0  0  0  0
    0.3793   -0.5401   -1.2046 C   0  0  0  0  0  0  0  0  0  0  0  0
    4.0174   -4.5484    0.0235 C   0  0  0  0  0  0  0  0  0  0  0  0
    2.7505   -5.0635    0.0095 O   0  0  0  0  0  0  0  0  0  0  0  0
    5.0382   -5.2285    0.0336 O   0  0  0  0  0  0  0  0  0  0  0  0
    2.6619   -6.4890    0.0043 C   0  0  0  0  0  0  0  0  0  0  0  0
    3.2602   -1.0498    0.0168 C   0  0  0  0  0  0  0  0  0  0  0  0
    4.6455   -0.9702    0.0306 N   0  0  0  0  0  0  0  0  0  0  0  0
    2.4960    0.1695    0.0167 C   0  0  0  0  0  0  0  0  0  0  0  0
    2.8642   -2.3079    0.0115 N   0  0  0  0  0  0  0  0  0  0  0  0
    5.1241   -2.2511    0.0431 C   0  0  0  0  0  0  0  0  0  0  0  0
    5.4152    0.1488    0.0328 N   0  0  0  0  0  0  0  0  0  0  0  0
    3.2245    1.3074    0.0154 C   0  0  0  0  0  0  0  0  0  0  0  0
    4.0179   -3.0808    0.0270 C   0  0  0  0  0  0  0  0  0  0  0  0
    4.7040    1.2322    0.0213 C   0  0  0  0  0  0  0  0  0  0  0  0
    0.7609   -0.0172    2.2113 H   0  0  0  0  0  0  0  0  0  0  0  0
   -0.6652   -0.5657    1.3168 H   0  0  0  0  0  0  0  0  0  0  0  0
    0.7792   -1.5669    1.3604 H   0  0  0  0  0  0  0  0  0  0  0  0
    0.6741    2.1811   -0.8494 H   0  0  0  0  0  0  0  0  0  0  0  0
   -0.7447    1.5956    0.0170 H   0  0  0  0  0  0  0  0  0  0  0  0
    0.6513    2.1749    0.9270 H   0  0  0  0  0  0  0  0  0  0  0  0
    0.7010   -0.0559   -2.1333 H   0  0  0  0  0  0  0  0  0  0  0  0
    0.6889   -1.5894   -1.2478 H   0  0  0  0  0  0  0  0  0  0  0  0
   -0.7179   -0.5360   -1.1924 H   0  0  0  0  0  0  0  0  0  0  0  0
    3.1287   -6.9056   -0.8939 H   0  0  0  0  0  0  0  0  0  0  0  0
    3.1115   -6.9111    0.9087 H   0  0  0  0  0  0  0  0  0  0  0  0
    1.6007   -6.7576   -0.0067 H   0  0  0  0  0  0  0  0  0  0  0  0
    6.1847   -2.4517    0.0586 H   0  0  0  0  0  0  0  0  0  0  0  0
    2.8108    2.3062    0.0200 H   0  0  0  0  0  0  0  0  0  0  0  0
    5.2175    2.2075    0.0229 H   0  0  0  0  0  0  0  0  0  0  0  0
  1  2  1  0  0  0  0
  1  3  1  0  0  0  0
  1  4  1  0  0  0  0
  1 11  1  0  0  0  0
  2 18  1  0  0  0  0
  2 19  1  0  0  0  0
  2 20  1  0  0  0  0
  3 21  1  0  0  0  0
  3 22  1  0  0  0  0
  3 23  1  0  0  0  0
  4 24  1  0  0  0  0
  4 25  1  0  0  0  0
  4 26  1  0  0  0  0
  5  6  1  0  0  0  0
  5  7  2  0  0  0  0
  5 16  1  0  0  0  0
  6  8  1  0  0  0  0
  8 27  1  0  0  0  0
  8 28  1  0  0  0  0
  8 29  1  0  0  0  0
  9 10  1  0  0  0  0
  9 11  1  0  0  0  0
  9 12  2  0  0  0  0
 10 13  1  0  0  0  0
 10 14  1  0  0  0  0
 11 15  2  0  0  0  0
 12 16  1  0  0  0  0
 13 16  2  0  0  0  0
 13 30  1  0  0  0  0
 14 17  2  0  0  0  0
 15 17  1  0  0  0  0
 15 31  1  0  0  0  0
 17 32  1  0  0  0  0
M  END
>  <Mol_ID>
6252

>  <Formula>
C12H14ClN3O2

>  <MolWeight>
267.71146

>  <Cat>
E0341

>  <Name>
IUN76750

>  <Synonyms>
PAR-2-IN-1

>  <Target>
PAR

>  <Form>
free base

>  <CAS>
1690176-75-0

>  <URL>
http://www.selleckchem.com/products/iun76750.html

$$$$
