IWP-2.cdx
 OpenBabel08302521393D

 49 53  0  0  0  0  0  0  0  0999 V2000
   -0.0808    0.4357    0.1381 C   0  0  0  0  0  0  0  0  0  0  0  0
   -0.1778   -0.8657   -0.1028 C   0  0  0  0  0  0  0  0  0  0  0  0
    1.0488   -1.6417   -0.3034 C   0  0  0  0  0  0  0  0  0  0  0  0
    2.2204   -0.8671   -0.4233 N   0  0  0  0  0  0  0  0  0  0  0  0
    2.1897    0.4741   -0.0024 C   0  0  0  0  0  0  0  0  0  0  0  0
    1.0940    1.1177    0.2738 N   0  0  0  0  0  0  0  0  0  0  0  0
   -1.4054    1.1370    0.2044 C   0  0  0  0  0  0  0  0  0  0  0  0
   -2.4899    0.1643   -0.2792 C   0  0  0  0  0  0  0  0  0  0  0  0
   -1.7628   -1.5042   -0.2273 S   0  0  0  0  0  0  0  0  0  0  0  0
    0.9922   -2.8709   -0.3453 O   0  0  0  0  0  0  0  0  0  0  0  0
    3.6159    1.5060    0.0104 S   0  0  0  0  0  0  0  0  0  0  0  0
    3.5073    2.4170    1.5990 C   0  0  0  0  0  0  0  0  0  0  0  0
    2.4857    3.5509    1.7694 C   0  0  0  0  0  0  0  0  0  0  0  0
    1.7507    3.8672    0.6662 N   0  0  0  0  0  0  0  0  0  0  0  0
    3.3446   -1.5915   -0.9718 C   0  0  0  0  0  0  0  0  0  0  0  0
    3.1173   -2.4290   -2.0928 C   0  0  0  0  0  0  0  0  0  0  0  0
    4.0690   -3.3428   -2.5446 C   0  0  0  0  0  0  0  0  0  0  0  0
    5.2939   -3.4212   -1.9022 C   0  0  0  0  0  0  0  0  0  0  0  0
    5.5663   -2.5631   -0.8318 C   0  0  0  0  0  0  0  0  0  0  0  0
    4.6032   -1.6483   -0.3701 C   0  0  0  0  0  0  0  0  0  0  0  0
    2.4078    4.1207    2.8590 O   0  0  0  0  0  0  0  0  0  0  0  0
    0.7002    4.7416    0.6455 C   0  0  0  0  0  0  0  0  0  0  0  0
    0.2454    5.6164    1.5145 N   0  0  0  0  0  0  0  0  0  0  0  0
   -0.9258    6.2010    1.0160 C   0  0  0  0  0  0  0  0  0  0  0  0
   -1.3344    5.7063   -0.2247 C   0  0  0  0  0  0  0  0  0  0  0  0
   -0.1670    4.6052   -0.8129 S   0  0  0  0  0  0  0  0  0  0  0  0
   -1.7224    7.2038    1.6182 C   0  0  0  0  0  0  0  0  0  0  0  0
   -2.8820    7.6682    0.9640 C   0  0  0  0  0  0  0  0  0  0  0  0
   -3.2846    7.1251   -0.2596 C   0  0  0  0  0  0  0  0  0  0  0  0
   -2.5183    6.1159   -0.8503 C   0  0  0  0  0  0  0  0  0  0  0  0
   -4.4715    7.6598   -1.0102 C   0  0  0  0  0  0  0  0  0  0  0  0
   -1.6064    1.4691    1.2279 H   0  0  0  0  0  0  0  0  0  0  0  0
   -1.4159    2.0153   -0.4451 H   0  0  0  0  0  0  0  0  0  0  0  0
   -3.3900    0.2188    0.3385 H   0  0  0  0  0  0  0  0  0  0  0  0
   -2.7677    0.3807   -1.3168 H   0  0  0  0  0  0  0  0  0  0  0  0
    3.3778    1.7102    2.4240 H   0  0  0  0  0  0  0  0  0  0  0  0
    4.4867    2.8966    1.7256 H   0  0  0  0  0  0  0  0  0  0  0  0
    1.8066    3.2480   -0.1298 H   0  0  0  0  0  0  0  0  0  0  0  0
    2.1542   -2.4147   -2.6009 H   0  0  0  0  0  0  0  0  0  0  0  0
    3.8299   -4.0128   -3.3683 H   0  0  0  0  0  0  0  0  0  0  0  0
    6.0216   -4.1648   -2.2157 H   0  0  0  0  0  0  0  0  0  0  0  0
    6.5247   -2.6459   -0.3256 H   0  0  0  0  0  0  0  0  0  0  0  0
    4.8383   -1.0725    0.5205 H   0  0  0  0  0  0  0  0  0  0  0  0
   -1.4257    7.6289    2.5743 H   0  0  0  0  0  0  0  0  0  0  0  0
   -3.4626    8.4679    1.4239 H   0  0  0  0  0  0  0  0  0  0  0  0
   -2.8094    5.6750   -1.7988 H   0  0  0  0  0  0  0  0  0  0  0  0
   -5.3411    7.7699   -0.3572 H   0  0  0  0  0  0  0  0  0  0  0  0
   -4.2203    8.6267   -1.4577 H   0  0  0  0  0  0  0  0  0  0  0  0
   -4.7569    6.9819   -1.8240 H   0  0  0  0  0  0  0  0  0  0  0  0
  1  2  2  0  0  0  0
  1  7  1  0  0  0  0
  2  3  1  0  0  0  0
  3  4  1  0  0  0  0
  3 10  2  0  0  0  0
  4  5  1  0  0  0  0
  4 15  1  0  0  0  0
  5  6  2  0  0  0  0
  5 11  1  0  0  0  0
  6  1  1  0  0  0  0
  7  8  1  0  0  0  0
  7 32  1  0  0  0  0
  7 33  1  0  0  0  0
  8  9  1  0  0  0  0
  8 34  1  0  0  0  0
  8 35  1  0  0  0  0
  9  2  1  0  0  0  0
 11 12  1  0  0  0  0
 12 13  1  0  0  0  0
 12 36  1  0  0  0  0
 12 37  1  0  0  0  0
 13 14  1  0  0  0  0
 13 21  2  0  0  0  0
 14 22  1  0  0  0  0
 14 38  1  0  0  0  0
 15 16  2  0  0  0  0
 16 17  1  0  0  0  0
 16 39  1  0  0  0  0
 17 18  2  0  0  0  0
 17 40  1  0  0  0  0
 18 19  1  0  0  0  0
 18 41  1  0  0  0  0
 19 20  2  0  0  0  0
 19 42  1  0  0  0  0
 20 15  1  0  0  0  0
 20 43  1  0  0  0  0
 22 23  2  0  0  0  0
 23 24  1  0  0  0  0
 24 25  2  0  0  0  0
 24 27  1  0  0  0  0
 25 26  1  0  0  0  0
 26 22  1  0  0  0  0
 27 28  2  0  0  0  0
 27 44  1  0  0  0  0
 28 29  1  0  0  0  0
 28 45  1  0  0  0  0
 29 30  2  0  0  0  0
 29 31  1  0  0  0  0
 30 25  1  0  0  0  0
 30 46  1  0  0  0  0
 31 47  1  0  0  0  0
 31 48  1  0  0  0  0
 31 49  1  0  0  0  0
M  END
>  <Mol_ID>
8163

>  <Formula>
C22H18N4O2S3

>  <MolWeight>
466.59892

>  <Cat>
S7085

>  <Name>
IWP-2

>  <Synonyms>
N/A

>  <Target>
Casein Kinase,Wnt/beta-catenin

>  <Form>
Free Base

>  <CAS>
686770-61-6

>  <URL>
http://selleckchem.com/products/iwp-2.html

$$$$
