IWP-4
 OpenBabel08302521453D

 53 57  0  0  0  0  0  0  0  0999 V2000
   -1.9062   -1.2116    0.0822 S   0  0  0  0  0  0  0  0  0  0  0  0
    3.7220    1.3348   -0.5172 S   0  0  0  0  0  0  0  0  0  0  0  0
    4.4324    6.0034    3.0620 S   0  0  0  0  0  0  0  0  0  0  0  0
    0.7651   -2.7134   -0.0625 O   0  0  0  0  0  0  0  0  0  0  0  0
    3.2821   -2.0312   -2.8945 O   0  0  0  0  0  0  0  0  0  0  0  0
    3.0280    3.2017    1.7847 O   0  0  0  0  0  0  0  0  0  0  0  0
    2.0654   -0.7976   -0.3971 N   0  0  0  0  0  0  0  0  0  0  0  0
    1.0532    1.3594   -0.2998 N   0  0  0  0  0  0  0  0  0  0  0  0
    3.5576    5.1919    0.6969 N   0  0  0  0  0  0  0  0  0  0  0  0
    2.1358    6.5528    2.0280 N   0  0  0  0  0  0  0  0  0  0  0  0
   -1.4535    1.4294   -0.0262 C   0  0  0  0  0  0  0  0  0  0  0  0
   -0.1468    0.6972   -0.1642 C   0  0  0  0  0  0  0  0  0  0  0  0
   -0.3018   -0.6273   -0.0969 C   0  0  0  0  0  0  0  0  0  0  0  0
   -2.5845    0.4283   -0.3144 C   0  0  0  0  0  0  0  0  0  0  0  0
    0.8700   -1.4995   -0.1748 C   0  0  0  0  0  0  0  0  0  0  0  0
    2.1172    0.6098   -0.3831 C   0  0  0  0  0  0  0  0  0  0  0  0
    3.2124   -1.6337   -0.4339 C   0  0  0  0  0  0  0  0  0  0  0  0
    3.6583   -2.2795   -1.5993 C   0  0  0  0  0  0  0  0  0  0  0  0
    3.7859   -1.9603    0.8107 C   0  0  0  0  0  0  0  0  0  0  0  0
    3.4951    3.1274   -0.6000 C   0  0  0  0  0  0  0  0  0  0  0  0
    4.6843   -3.2239   -1.4938 C   0  0  0  0  0  0  0  0  0  0  0  0
    4.7865   -2.9212    0.8991 C   0  0  0  0  0  0  0  0  0  0  0  0
    5.2320   -3.5622   -0.2529 C   0  0  0  0  0  0  0  0  0  0  0  0
    3.2946    6.8372    4.0631 C   0  0  0  0  0  0  0  0  0  0  0  0
    2.1013    6.9820    3.3485 C   0  0  0  0  0  0  0  0  0  0  0  0
    3.3266    3.8049    0.7603 C   0  0  0  0  0  0  0  0  0  0  0  0
    3.2443    5.8861    1.8457 C   0  0  0  0  0  0  0  0  0  0  0  0
    2.2982    7.8258    6.0350 C   0  0  0  0  0  0  0  0  0  0  0  0
    3.4278    7.2935    5.3899 C   0  0  0  0  0  0  0  0  0  0  0  0
    0.9803    7.5167    4.0128 C   0  0  0  0  0  0  0  0  0  0  0  0
    1.0797    7.8998    5.3554 C   0  0  0  0  0  0  0  0  0  0  0  0
    2.3682    8.2436    7.4776 C   0  0  0  0  0  0  0  0  0  0  0  0
    1.8960   -1.9097   -3.1786 C   0  0  0  0  0  0  0  0  0  0  0  0
    3.1279    5.6124   -0.1174 H   0  0  0  0  0  0  0  0  0  0  0  0
   -1.5478    1.8102    0.9980 H   0  0  0  0  0  0  0  0  0  0  0  0
   -1.5234    2.2774   -0.7140 H   0  0  0  0  0  0  0  0  0  0  0  0
   -3.4848    0.6281    0.2733 H   0  0  0  0  0  0  0  0  0  0  0  0
   -2.8513    0.4335   -1.3769 H   0  0  0  0  0  0  0  0  0  0  0  0
    3.4211   -1.4855    1.7196 H   0  0  0  0  0  0  0  0  0  0  0  0
    4.4385    3.5098   -1.0139 H   0  0  0  0  0  0  0  0  0  0  0  0
    2.6964    3.4140   -1.2883 H   0  0  0  0  0  0  0  0  0  0  0  0
    5.0376   -3.7399   -2.3838 H   0  0  0  0  0  0  0  0  0  0  0  0
    5.1992   -3.1851    1.8724 H   0  0  0  0  0  0  0  0  0  0  0  0
    5.9959   -4.3344   -0.1846 H   0  0  0  0  0  0  0  0  0  0  0  0
    4.3751    7.1960    5.9133 H   0  0  0  0  0  0  0  0  0  0  0  0
    0.0332    7.5875    3.4880 H   0  0  0  0  0  0  0  0  0  0  0  0
    0.1874    8.2552    5.8679 H   0  0  0  0  0  0  0  0  0  0  0  0
    1.7934    9.1622    7.6399 H   0  0  0  0  0  0  0  0  0  0  0  0
    1.9628    7.4528    8.1169 H   0  0  0  0  0  0  0  0  0  0  0  0
    3.3992    8.4465    7.7848 H   0  0  0  0  0  0  0  0  0  0  0  0
    1.2896   -2.6447   -2.6426 H   0  0  0  0  0  0  0  0  0  0  0  0
    1.5557   -0.8875   -2.9938 H   0  0  0  0  0  0  0  0  0  0  0  0
    1.7584   -2.1012   -4.2486 H   0  0  0  0  0  0  0  0  0  0  0  0
  1 13  1  0  0  0  0
  1 14  1  0  0  0  0
  2 16  1  0  0  0  0
  2 20  1  0  0  0  0
  3 24  1  0  0  0  0
  3 27  1  0  0  0  0
  4 15  2  0  0  0  0
  5 18  1  0  0  0  0
  5 33  1  0  0  0  0
  6 26  2  0  0  0  0
  7 15  1  0  0  0  0
  7 16  1  0  0  0  0
  7 17  1  0  0  0  0
  8 12  1  0  0  0  0
  8 16  2  0  0  0  0
  9 26  1  0  0  0  0
  9 27  1  0  0  0  0
  9 34  1  0  0  0  0
 10 25  1  0  0  0  0
 10 27  2  0  0  0  0
 11 12  1  0  0  0  0
 11 14  1  0  0  0  0
 11 35  1  0  0  0  0
 11 36  1  0  0  0  0
 12 13  2  0  0  0  0
 13 15  1  0  0  0  0
 14 37  1  0  0  0  0
 14 38  1  0  0  0  0
 17 18  2  0  0  0  0
 17 19  1  0  0  0  0
 18 21  1  0  0  0  0
 19 22  2  0  0  0  0
 19 39  1  0  0  0  0
 20 26  1  0  0  0  0
 20 40  1  0  0  0  0
 20 41  1  0  0  0  0
 21 23  2  0  0  0  0
 21 42  1  0  0  0  0
 22 23  1  0  0  0  0
 22 43  1  0  0  0  0
 23 44  1  0  0  0  0
 24 25  2  0  0  0  0
 24 29  1  0  0  0  0
 25 30  1  0  0  0  0
 28 29  2  0  0  0  0
 28 31  1  0  0  0  0
 28 32  1  0  0  0  0
 29 45  1  0  0  0  0
 30 31  2  0  0  0  0
 30 46  1  0  0  0  0
 31 47  1  0  0  0  0
 32 48  1  0  0  0  0
 32 49  1  0  0  0  0
 32 50  1  0  0  0  0
 33 51  1  0  0  0  0
 33 52  1  0  0  0  0
 33 53  1  0  0  0  0
M  END
>  <Mol_ID>
9469

>  <Formula>
C23H20N4O3S3

>  <MolWeight>
496.6249

>  <Cat>
E0033

>  <Name>
IWP-4

>  <Synonyms>
N/A

>  <Target>
Wnt/beta-catenin

>  <Form>
Free base

>  <CAS>
686772-17-8

>  <URL>
http://www.selleckchem.com/products/iwp-4.html

$$$$
