IWR-1(endo-IWR 1).cdx
 OpenBabel08302519553D

 53 58  0  0  0  0  0  0  0  0999 V2000
   -0.7410    0.4159    0.5097 C   0  0  1  0  0  0  0  0  0  0  0  0
   -0.4686   -0.3984    1.7986 C   0  0  2  0  0  0  0  0  0  0  0  0
    0.2193    0.6960    2.6927 C   0  0  0  0  0  0  0  0  0  0  0  0
    0.1094    1.9168    2.0532 N   0  0  0  0  0  0  0  0  0  0  0  0
   -0.8746    1.7780    1.1274 C   0  0  0  0  0  0  0  0  0  0  0  0
    0.5157    0.0081   -0.3524 C   0  0  1  0  0  0  0  0  0  0  0  0
    1.8951    0.0197    0.3284 C   0  0  0  0  0  0  0  0  0  0  0  0
    1.9097   -0.9160    1.2940 C   0  0  0  0  0  0  0  0  0  0  0  0
    0.5247   -1.5043    1.3029 C   0  0  2  0  0  0  0  0  0  0  0  0
   -1.8085    2.5535    0.9542 O   0  0  0  0  0  0  0  0  0  0  0  0
    0.7600    0.4639    3.7666 O   0  0  0  0  0  0  0  0  0  0  0  0
    1.2006    2.7742    1.6720 C   0  0  0  0  0  0  0  0  0  0  0  0
    0.9891    3.6079    0.5600 C   0  0  0  0  0  0  0  0  0  0  0  0
    2.0460    4.0520   -0.2190 C   0  0  0  0  0  0  0  0  0  0  0  0
    3.3708    3.8138    0.1568 C   0  0  0  0  0  0  0  0  0  0  0  0
    3.6035    3.1442    1.3658 C   0  0  0  0  0  0  0  0  0  0  0  0
    2.5189    2.6224    2.1233 C   0  0  0  0  0  0  0  0  0  0  0  0
    4.3963    4.3097   -0.8104 C   0  0  0  0  0  0  0  0  0  0  0  0
    3.9705    4.8706   -1.8233 O   0  0  0  0  0  0  0  0  0  0  0  0
    5.7556    4.0512   -0.5904 N   0  0  0  0  0  0  0  0  0  0  0  0
    6.5781    4.2170   -1.7517 C   0  0  0  0  0  0  0  0  0  0  0  0
    6.6273    5.4818   -2.4061 C   0  0  0  0  0  0  0  0  0  0  0  0
    6.8413    5.5171   -3.7818 C   0  0  0  0  0  0  0  0  0  0  0  0
    6.8193    4.3259   -4.4944 C   0  0  0  0  0  0  0  0  0  0  0  0
    6.7505    3.0929   -3.8155 C   0  0  0  0  0  0  0  0  0  0  0  0
    6.8819    3.0456   -2.4157 C   0  0  0  0  0  0  0  0  0  0  0  0
    6.4007    1.8952   -4.4276 C   0  0  0  0  0  0  0  0  0  0  0  0
    6.3655    0.7123   -3.6883 C   0  0  0  0  0  0  0  0  0  0  0  0
    6.8136    0.7480   -2.3863 C   0  0  0  0  0  0  0  0  0  0  0  0
    7.0078    1.8953   -1.7186 N   0  0  0  0  0  0  0  0  0  0  0  0
   -2.0483    0.1725   -0.2606 C   0  0  0  0  0  0  0  0  0  0  0  0
    0.3722   -1.5180   -0.2313 C   0  0  0  0  0  0  0  0  0  0  0  0
   -1.3803   -0.7882    2.2606 H   0  0  0  0  0  0  0  0  0  0  0  0
    0.5451    0.4145   -1.3652 H   0  0  0  0  0  0  0  0  0  0  0  0
    2.7287    0.6481    0.0677 H   0  0  0  0  0  0  0  0  0  0  0  0
    2.6996   -1.1645    1.9801 H   0  0  0  0  0  0  0  0  0  0  0  0
    0.4320   -2.4841    1.7725 H   0  0  0  0  0  0  0  0  0  0  0  0
   -0.0074    3.8330    0.1818 H   0  0  0  0  0  0  0  0  0  0  0  0
    1.8057    4.5483   -1.1600 H   0  0  0  0  0  0  0  0  0  0  0  0
    4.6162    2.9588    1.7113 H   0  0  0  0  0  0  0  0  0  0  0  0
    2.7355    2.0148    3.0005 H   0  0  0  0  0  0  0  0  0  0  0  0
    5.9139    3.1340   -0.1765 H   0  0  0  0  0  0  0  0  0  0  0  0
    6.3793    6.3799   -1.8732 H   0  0  0  0  0  0  0  0  0  0  0  0
    6.8620    6.4716   -4.3016 H   0  0  0  0  0  0  0  0  0  0  0  0
    6.7995    4.3580   -5.5863 H   0  0  0  0  0  0  0  0  0  0  0  0
    6.0171    1.8965   -5.4483 H   0  0  0  0  0  0  0  0  0  0  0  0
    5.9858   -0.2094   -4.1109 H   0  0  0  0  0  0  0  0  0  0  0  0
    6.9731   -0.1563   -1.8080 H   0  0  0  0  0  0  0  0  0  0  0  0
   -2.8996    0.0745    0.4206 H   0  0  0  0  0  0  0  0  0  0  0  0
   -2.2547    1.0218   -0.9309 H   0  0  0  0  0  0  0  0  0  0  0  0
   -2.0403   -0.7027   -0.9077 H   0  0  0  0  0  0  0  0  0  0  0  0
    1.1721   -2.0602   -0.7603 H   0  0  0  0  0  0  0  0  0  0  0  0
   -0.5697   -1.9387   -0.5767 H   0  0  0  0  0  0  0  0  0  0  0  0
  1  2  1  0  0  0  0
  1  6  1  0  0  0  0
  1 31  1  6  0  0  0
  2  3  1  0  0  0  0
  2 33  1  1  0  0  0
  3  4  1  0  0  0  0
  3 11  2  0  0  0  0
  4  5  1  0  0  0  0
  4 12  1  0  0  0  0
  5  1  1  0  0  0  0
  5 10  2  0  0  0  0
  6  7  1  0  0  0  0
  6 32  1  0  0  0  0
  6 34  1  6  0  0  0
  7  8  2  0  0  0  0
  7 35  1  0  0  0  0
  8 36  1  0  0  0  0
  9  8  1  0  0  0  0
  9  2  1  0  0  0  0
  9 32  1  0  0  0  0
  9 37  1  1  0  0  0
 12 13  2  0  0  0  0
 13 14  1  0  0  0  0
 13 38  1  0  0  0  0
 14 15  2  0  0  0  0
 14 39  1  0  0  0  0
 15 16  1  0  0  0  0
 15 18  1  0  0  0  0
 16 17  2  0  0  0  0
 16 40  1  0  0  0  0
 17 12  1  0  0  0  0
 17 41  1  0  0  0  0
 18 19  2  0  0  0  0
 18 20  1  0  0  0  0
 20 21  1  0  0  0  0
 20 42  1  0  0  0  0
 21 22  2  0  0  0  0
 22 23  1  0  0  0  0
 22 43  1  0  0  0  0
 23 24  2  0  0  0  0
 23 44  1  0  0  0  0
 24 25  1  0  0  0  0
 24 45  1  0  0  0  0
 25 26  2  0  0  0  0
 25 27  1  0  0  0  0
 26 21  1  0  0  0  0
 27 28  2  0  0  0  0
 27 46  1  0  0  0  0
 28 29  1  0  0  0  0
 28 47  1  0  0  0  0
 29 30  2  0  0  0  0
 29 48  1  0  0  0  0
 30 26  1  0  0  0  0
 31 49  1  0  0  0  0
 31 50  1  0  0  0  0
 31 51  1  0  0  0  0
 32 52  1  0  0  0  0
 32 53  1  0  0  0  0
M  END
>  <Mol_ID>
2138

>  <Formula>
C26H21N3O3

>  <MolWeight>
423.46324

>  <Cat>
S7086

>  <Name>
IWR-1-endo

>  <Synonyms>
endo-IWR 1, IWR-1

>  <Target>
Wnt/beta-catenin

>  <Form>
free base

>  <CAS>
1127442-82-3

>  <URL>
http://selleckchem.com/products/iwr-1-endo.html

$$$$
