IXA4
 OpenBabel08302521313D

 60 62  0  0  0  0  0  0  0  0999 V2000
    0.8865    0.0094   -0.0219 C   0  0  0  0  0  0  0  0  0  0  0  0
    0.5163   -1.4797    0.0298 C   0  0  0  0  0  0  0  0  0  0  0  0
    0.8386   -2.2494   -1.1060 N   0  0  0  0  0  0  0  0  0  0  0  0
   -0.0236   -1.9813    1.0138 O   0  0  0  0  0  0  0  0  0  0  0  0
    0.5852   -3.7042   -1.1898 C   0  0  0  0  0  0  0  0  0  0  0  0
    1.7706   -1.7537   -2.1172 C   0  0  0  0  0  0  0  0  0  0  0  0
   -0.5252   -4.4268   -0.4183 C   0  0  0  0  0  0  0  0  0  0  0  0
   -1.8560   -4.2531   -0.9585 O   0  0  0  0  0  0  0  0  0  0  0  0
    0.3149    2.1676    4.4315 N   0  0  0  0  0  0  0  0  0  0  0  0
    1.2345    1.6956    5.3431 C   0  0  0  0  0  0  0  0  0  0  0  0
    1.2097    2.3115    6.7449 C   0  0  0  0  0  0  0  0  0  0  0  0
    2.1477    0.9147    5.0654 O   0  0  0  0  0  0  0  0  0  0  0  0
   -0.0714    2.8319    7.3928 C   0  0  0  0  0  0  0  0  0  0  0  0
   -0.9805    1.7931    7.7819 O   0  0  0  0  0  0  0  0  0  0  0  0
   -5.0772   -5.8608    3.3667 C   0  0  0  0  0  0  0  0  0  0  0  0
    0.4176    0.7942    1.1216 N   0  0  0  0  0  0  0  0  0  0  0  0
    1.0301    0.9429    2.3457 C   0  0  0  0  0  0  0  0  0  0  0  0
   -0.6179    1.6493    0.9591 N   0  0  0  0  0  0  0  0  0  0  0  0
    0.2274    1.7791    3.0936 C   0  0  0  0  0  0  0  0  0  0  0  0
   -0.7564    2.2008    2.1679 C   0  0  0  0  0  0  0  0  0  0  0  0
   -2.7873   -4.8016   -0.0933 C   0  0  0  0  0  0  0  0  0  0  0  0
   -3.8665   -4.0052    0.2775 C   0  0  0  0  0  0  0  0  0  0  0  0
   -2.6512   -6.0758    0.4676 C   0  0  0  0  0  0  0  0  0  0  0  0
   -4.6715   -4.3866    1.3573 C   0  0  0  0  0  0  0  0  0  0  0  0
   -3.4480   -6.4529    1.5502 C   0  0  0  0  0  0  0  0  0  0  0  0
   -4.3993   -5.5664    2.0614 C   0  0  0  0  0  0  0  0  0  0  0  0
   -2.1301    2.2741    8.3754 C   0  0  0  0  0  0  0  0  0  0  0  0
   -3.3219    1.6361    8.0395 C   0  0  0  0  0  0  0  0  0  0  0  0
   -2.1688    3.3423    9.2863 C   0  0  0  0  0  0  0  0  0  0  0  0
   -4.5461    2.1156    8.5258 C   0  0  0  0  0  0  0  0  0  0  0  0
   -3.3922    3.8206    9.7677 C   0  0  0  0  0  0  0  0  0  0  0  0
   -4.5822    3.2249    9.3764 C   0  0  0  0  0  0  0  0  0  0  0  0
    0.4615    0.4650   -0.9291 H   0  0  0  0  0  0  0  0  0  0  0  0
    1.9746    0.1229   -0.0389 H   0  0  0  0  0  0  0  0  0  0  0  0
    0.4483   -3.9349   -2.2529 H   0  0  0  0  0  0  0  0  0  0  0  0
    1.5336   -4.1597   -0.8708 H   0  0  0  0  0  0  0  0  0  0  0  0
    1.2159   -1.1957   -2.8766 H   0  0  0  0  0  0  0  0  0  0  0  0
    2.5386   -1.1199   -1.6685 H   0  0  0  0  0  0  0  0  0  0  0  0
    2.2873   -2.5939   -2.5978 H   0  0  0  0  0  0  0  0  0  0  0  0
   -0.2808   -5.4937   -0.5315 H   0  0  0  0  0  0  0  0  0  0  0  0
   -0.4980   -4.2009    0.6491 H   0  0  0  0  0  0  0  0  0  0  0  0
   -0.4209    2.7822    4.7491 H   0  0  0  0  0  0  0  0  0  0  0  0
    1.6473    1.5618    7.4165 H   0  0  0  0  0  0  0  0  0  0  0  0
    1.9103    3.1562    6.6968 H   0  0  0  0  0  0  0  0  0  0  0  0
    0.2631    3.3562    8.2964 H   0  0  0  0  0  0  0  0  0  0  0  0
   -0.5841    3.5493    6.7446 H   0  0  0  0  0  0  0  0  0  0  0  0
   -5.9580   -6.4914    3.2283 H   0  0  0  0  0  0  0  0  0  0  0  0
   -4.3802   -6.3676    4.0449 H   0  0  0  0  0  0  0  0  0  0  0  0
   -5.3677   -4.9308    3.8685 H   0  0  0  0  0  0  0  0  0  0  0  0
    1.9406    0.4084    2.5810 H   0  0  0  0  0  0  0  0  0  0  0  0
   -1.5703    2.8944    2.3271 H   0  0  0  0  0  0  0  0  0  0  0  0
   -4.0353   -3.0509   -0.2126 H   0  0  0  0  0  0  0  0  0  0  0  0
   -1.8913   -6.7663    0.1182 H   0  0  0  0  0  0  0  0  0  0  0  0
   -5.4645   -3.7209    1.6899 H   0  0  0  0  0  0  0  0  0  0  0  0
   -3.2736   -7.4126    2.0315 H   0  0  0  0  0  0  0  0  0  0  0  0
   -3.3135    0.7638    7.3902 H   0  0  0  0  0  0  0  0  0  0  0  0
   -1.2577    3.8044    9.6516 H   0  0  0  0  0  0  0  0  0  0  0  0
   -5.4757    1.6296    8.2388 H   0  0  0  0  0  0  0  0  0  0  0  0
   -3.4037    4.6634   10.4578 H   0  0  0  0  0  0  0  0  0  0  0  0
   -5.5299    3.6165    9.7254 H   0  0  0  0  0  0  0  0  0  0  0  0
  1  2  1  0  0  0  0
  1 16  1  0  0  0  0
  1 33  1  0  0  0  0
  1 34  1  0  0  0  0
  2  3  1  0  0  0  0
  2  4  2  0  0  0  0
  3  5  1  0  0  0  0
  3  6  1  0  0  0  0
  5  7  1  0  0  0  0
  5 35  1  0  0  0  0
  5 36  1  0  0  0  0
  6 37  1  0  0  0  0
  6 38  1  0  0  0  0
  6 39  1  0  0  0  0
  7  8  1  0  0  0  0
  7 40  1  0  0  0  0
  7 41  1  0  0  0  0
  8 21  1  0  0  0  0
  9 10  1  0  0  0  0
  9 19  1  0  0  0  0
  9 42  1  0  0  0  0
 10 11  1  0  0  0  0
 10 12  2  0  0  0  0
 11 13  1  0  0  0  0
 11 43  1  0  0  0  0
 11 44  1  0  0  0  0
 13 14  1  0  0  0  0
 13 45  1  0  0  0  0
 13 46  1  0  0  0  0
 14 27  1  0  0  0  0
 15 26  1  0  0  0  0
 15 47  1  0  0  0  0
 15 48  1  0  0  0  0
 15 49  1  0  0  0  0
 16 17  1  0  0  0  0
 16 18  1  0  0  0  0
 17 19  2  0  0  0  0
 17 50  1  0  0  0  0
 18 20  2  0  0  0  0
 19 20  1  0  0  0  0
 20 51  1  0  0  0  0
 21 22  2  0  0  0  0
 21 23  1  0  0  0  0
 22 24  1  0  0  0  0
 22 52  1  0  0  0  0
 23 25  2  0  0  0  0
 23 53  1  0  0  0  0
 24 26  2  0  0  0  0
 24 54  1  0  0  0  0
 25 26  1  0  0  0  0
 25 55  1  0  0  0  0
 27 28  2  0  0  0  0
 27 29  1  0  0  0  0
 28 30  1  0  0  0  0
 28 56  1  0  0  0  0
 29 31  2  0  0  0  0
 29 57  1  0  0  0  0
 30 32  2  0  0  0  0
 30 58  1  0  0  0  0
 31 32  1  0  0  0  0
 31 59  1  0  0  0  0
 32 60  1  0  0  0  0
M  END
>  <Mol_ID>
6098

>  <Formula>
C24H28N4O4

>  <MolWeight>
436.50352

>  <Cat>
S9797

>  <Name>
IXA4

>  <Target>
IRE1

>  <Form>
free base

>  <CAS>
1185329-96-7

>  <URL>
http://www.selleckchem.com/products/ixa4.html

$$$$
