JAK Inhibitor I (Pyridone 6)
 OpenBabel08302521353D

 39 42  0  0  0  0  0  0  0  0999 V2000
    1.5270   -2.2750    0.0022 C   0  0  0  0  0  0  0  0  0  0  0  0
    2.8975   -2.1113    0.0015 N   0  0  0  0  0  0  0  0  0  0  0  0
    3.5426   -0.9080    0.0005 C   0  0  0  0  0  0  0  0  0  0  0  0
    2.8616    0.2401   -0.0004 C   0  0  0  0  0  0  0  0  0  0  0  0
    1.4006    0.1940   -0.0016 C   0  0  0  0  0  0  0  0  0  0  0  0
    0.6992    1.4129   -0.0044 C   0  0  0  0  0  0  0  0  0  0  0  0
   -0.6886    1.3938   -0.0047 C   0  0  0  0  0  0  0  0  0  0  0  0
   -1.4419    0.1953   -0.0036 C   0  0  0  0  0  0  0  0  0  0  0  0
   -0.7399   -1.0465   -0.0016 C   0  0  0  0  0  0  0  0  0  0  0  0
    0.6885   -1.0274   -0.0015 C   0  0  0  0  0  0  0  0  0  0  0  0
    0.1071    3.4913   -0.0051 C   0  0  0  0  0  0  0  0  0  0  0  0
    1.1689    2.7110   -0.0053 N   0  0  0  0  0  0  0  0  0  0  0  0
   -1.0371    2.7253   -0.0055 N   0  0  0  0  0  0  0  0  0  0  0  0
   -1.5471   -2.2113   -0.0012 C   0  0  0  0  0  0  0  0  0  0  0  0
   -2.9384   -2.1426   -0.0026 C   0  0  0  0  0  0  0  0  0  0  0  0
   -3.5970   -0.9241   -0.0044 C   0  0  0  0  0  0  0  0  0  0  0  0
   -2.8533    0.2519   -0.0051 C   0  0  0  0  0  0  0  0  0  0  0  0
    1.0689   -3.4117    0.0047 O   0  0  0  0  0  0  0  0  0  0  0  0
   -3.6528   -3.2756   -0.0019 F   0  0  0  0  0  0  0  0  0  0  0  0
    0.0890    5.0085    0.0059 C   0  0  0  0  0  0  0  0  0  0  0  0
    1.5293    5.5585   -0.0020 C   0  0  0  0  0  0  0  0  0  0  0  0
   -0.6452    5.5454   -1.2360 C   0  0  0  0  0  0  0  0  0  0  0  0
   -0.6193    5.5214    1.2719 C   0  0  0  0  0  0  0  0  0  0  0  0
    3.4307   -2.9720    0.0025 H   0  0  0  0  0  0  0  0  0  0  0  0
    4.6277   -0.9371    0.0011 H   0  0  0  0  0  0  0  0  0  0  0  0
    3.3614    1.2026   -0.0007 H   0  0  0  0  0  0  0  0  0  0  0  0
   -1.9786    3.0884   -0.0021 H   0  0  0  0  0  0  0  0  0  0  0  0
   -1.1195   -3.2089    0.0003 H   0  0  0  0  0  0  0  0  0  0  0  0
   -4.6824   -0.9046   -0.0056 H   0  0  0  0  0  0  0  0  0  0  0  0
   -3.3867    1.1973   -0.0066 H   0  0  0  0  0  0  0  0  0  0  0  0
    2.0726    5.2468   -0.9021 H   0  0  0  0  0  0  0  0  0  0  0  0
    1.5363    6.6544    0.0257 H   0  0  0  0  0  0  0  0  0  0  0  0
    2.0982    5.2026    0.8652 H   0  0  0  0  0  0  0  0  0  0  0  0
   -1.6820    5.1924   -1.2780 H   0  0  0  0  0  0  0  0  0  0  0  0
   -0.6735    6.6415   -1.2337 H   0  0  0  0  0  0  0  0  0  0  0  0
   -0.1513    5.2268   -2.1614 H   0  0  0  0  0  0  0  0  0  0  0  0
   -1.6602    5.1816    1.3191 H   0  0  0  0  0  0  0  0  0  0  0  0
   -0.1160    5.1700    2.1800 H   0  0  0  0  0  0  0  0  0  0  0  0
   -0.6316    6.6175    1.3002 H   0  0  0  0  0  0  0  0  0  0  0  0
  1  2  1  0  0  0  0
  1 10  1  0  0  0  0
  1 18  2  0  0  0  0
  2  3  1  0  0  0  0
  2 24  1  0  0  0  0
  3  4  2  0  0  0  0
  3 25  1  0  0  0  0
  4  5  1  0  0  0  0
  4 26  1  0  0  0  0
  5  6  1  0  0  0  0
  5 10  2  0  0  0  0
  6  7  2  0  0  0  0
  7  8  1  0  0  0  0
  8  9  2  0  0  0  0
  9 10  1  0  0  0  0
 11 12  2  0  0  0  0
 11 13  1  0  0  0  0
 11 20  1  0  0  0  0
 12  6  1  0  0  0  0
 13  7  1  0  0  0  0
 13 27  1  0  0  0  0
 14 15  2  0  0  0  0
 14  9  1  0  0  0  0
 14 28  1  0  0  0  0
 15 16  1  0  0  0  0
 15 19  1  0  0  0  0
 16 17  2  0  0  0  0
 16 29  1  0  0  0  0
 17  8  1  0  0  0  0
 17 30  1  0  0  0  0
 20 21  1  0  0  0  0
 20 22  1  0  0  0  0
 20 23  1  0  0  0  0
 21 31  1  0  0  0  0
 21 32  1  0  0  0  0
 21 33  1  0  0  0  0
 22 34  1  0  0  0  0
 22 35  1  0  0  0  0
 22 36  1  0  0  0  0
 23 37  1  0  0  0  0
 23 38  1  0  0  0  0
 23 39  1  0  0  0  0
M  END
>  <Mol_ID>
6705

>  <Formula>
C18H16FN3O

>  <MolWeight>
309.3375432

>  <Cat>
S6789

>  <Name>
JAK Inhibitor I (Pyridone 6)

>  <Synonyms>
CMP 6, Compound 6

>  <Target>
JAK

>  <Form>
Free base

>  <CAS>
457081-03-7

>  <URL>
http://www.selleckchem.com/products/jak-inhibitor-i.html

$$$$
