JBSNF-000088
 OpenBabel08302521243D

 19 19  0  0  0  0  0  0  0  0999 V2000
   -0.6196    1.1504    0.0192 C   0  0  0  0  0  0  0  0  0  0  0  0
    0.7689    1.2277    0.0112 C   0  0  0  0  0  0  0  0  0  0  0  0
    1.4810    0.0253   -0.0011 C   0  0  0  0  0  0  0  0  0  0  0  0
    0.7829   -1.1858   -0.0042 C   0  0  0  0  0  0  0  0  0  0  0  0
   -0.6047   -1.1519    0.0058 C   0  0  0  0  0  0  0  0  0  0  0  0
   -1.3203   -0.0092    0.0174 N   0  0  0  0  0  0  0  0  0  0  0  0
    1.3811    2.5783    0.0161 C   0  0  0  0  0  0  0  0  0  0  0  0
    0.6898    3.5904    0.0250 O   0  0  0  0  0  0  0  0  0  0  0  0
    2.7439    2.6817    0.0138 N   0  0  0  0  0  0  0  0  0  0  0  0
   -1.2593   -2.3658    0.0017 O   0  0  0  0  0  0  0  0  0  0  0  0
   -2.6779   -2.2155    0.0209 C   0  0  0  0  0  0  0  0  0  0  0  0
   -1.2358    2.0467    0.0274 H   0  0  0  0  0  0  0  0  0  0  0  0
    2.5632   -0.0027   -0.0089 H   0  0  0  0  0  0  0  0  0  0  0  0
    1.3063   -2.1354   -0.0139 H   0  0  0  0  0  0  0  0  0  0  0  0
    3.3906    1.9100    0.0123 H   0  0  0  0  0  0  0  0  0  0  0  0
    3.1246    3.6190    0.0211 H   0  0  0  0  0  0  0  0  0  0  0  0
   -3.0097   -1.7152    0.9377 H   0  0  0  0  0  0  0  0  0  0  0  0
   -3.0326   -1.6816   -0.8679 H   0  0  0  0  0  0  0  0  0  0  0  0
   -3.1245   -3.2147    0.0073 H   0  0  0  0  0  0  0  0  0  0  0  0
  1  2  2  0  0  0  0
  1  6  1  0  0  0  0
  1 12  1  0  0  0  0
  2  3  1  0  0  0  0
  2  7  1  0  0  0  0
  3  4  2  0  0  0  0
  3 13  1  0  0  0  0
  4  5  1  0  0  0  0
  4 14  1  0  0  0  0
  5  6  2  0  0  0  0
  5 10  1  0  0  0  0
  7  8  2  0  0  0  0
  7  9  1  0  0  0  0
  9 15  1  0  0  0  0
  9 16  1  0  0  0  0
 10 11  1  0  0  0  0
 11 17  1  0  0  0  0
 11 18  1  0  0  0  0
 11 19  1  0  0  0  0
M  END
>  <Mol_ID>
4927

>  <Formula>
C7H8N2O2

>  <MolWeight>
152.15062

>  <Cat>
S6779

>  <Name>
JBSNF-000088

>  <Synonyms>
6-Methoxynicotinamide

>  <Target>
NNMT

>  <Form>
Free Base

>  <CAS>
7150-23-4

>  <URL>
http://www.selleckchem.com/products/jbsnf-000088.html

$$$$
