JH-X-119-01
 OpenBabel08302521313D

 54 57  0  0  0  0  0  0  0  0999 V2000
   -0.6222   -1.1889    0.1328 C   0  0  0  0  0  0  0  0  0  0  0  0
   -1.3414   -0.1530   -0.3909 N   0  0  0  0  0  0  0  0  0  0  0  0
   -0.6544    1.0137   -0.5412 C   0  0  0  0  0  0  0  0  0  0  0  0
    0.6914    1.1746   -0.1998 C   0  0  0  0  0  0  0  0  0  0  0  0
    1.3888    0.0998    0.3249 C   0  0  0  0  0  0  0  0  0  0  0  0
    0.7256   -1.1010    0.4943 C   0  0  0  0  0  0  0  0  0  0  0  0
   -1.2929   -2.5112    0.3487 C   0  0  0  0  0  0  0  0  0  0  0  0
   -1.4028    2.1322   -1.0918 C   0  0  0  0  0  0  0  0  0  0  0  0
   -1.0384    3.4277   -1.4239 C   0  0  0  0  0  0  0  0  0  0  0  0
   -2.2078    4.0392   -1.8996 C   0  0  0  0  0  0  0  0  0  0  0  0
   -3.2513    3.2086   -1.8849 N   0  0  0  0  0  0  0  0  0  0  0  0
   -2.7385    2.0659   -1.3900 N   0  0  0  0  0  0  0  0  0  0  0  0
   -2.6223   -2.6176   -0.0385 N   0  0  0  0  0  0  0  0  0  0  0  0
   -0.6100   -3.4180    0.8211 O   0  0  0  0  0  0  0  0  0  0  0  0
   -3.4144   -3.7835    0.1108 C   0  0  0  0  0  0  0  0  0  0  0  0
   -3.0366   -4.8402    0.9378 C   0  0  0  0  0  0  0  0  0  0  0  0
   -3.8138   -5.9948    1.0462 C   0  0  0  0  0  0  0  0  0  0  0  0
   -5.0012   -6.1313    0.3375 C   0  0  0  0  0  0  0  0  0  0  0  0
   -5.3946   -5.0773   -0.4974 C   0  0  0  0  0  0  0  0  0  0  0  0
   -4.6187   -3.9012   -0.5912 C   0  0  0  0  0  0  0  0  0  0  0  0
   -5.7946   -7.3024    0.4133 N   0  0  0  0  0  0  0  0  0  0  0  0
   -5.6404   -8.3121    1.3585 C   0  0  0  0  0  0  0  0  0  0  0  0
   -6.4317   -9.5533    1.1616 C   0  0  0  0  0  0  0  0  0  0  0  0
   -4.9025   -8.2852    2.3395 O   0  0  0  0  0  0  0  0  0  0  0  0
   -7.7162   -9.5392    0.6149 C   0  0  0  0  0  0  0  0  0  0  0  0
   -8.4274  -10.7307    0.4365 C   0  0  0  0  0  0  0  0  0  0  0  0
   -7.8443  -11.9390    0.8449 C   0  0  0  0  0  0  0  0  0  0  0  0
   -6.5720  -11.9558    1.4226 C   0  0  0  0  0  0  0  0  0  0  0  0
   -5.8691  -10.7654    1.5813 C   0  0  0  0  0  0  0  0  0  0  0  0
   -9.7160  -10.7825   -0.1430 N   0  0  0  0  0  0  0  0  0  0  0  0
  -10.4275   -9.7059   -0.6375 C   0  0  0  0  0  0  0  0  0  0  0  0
  -11.7410  -10.0966   -1.2181 C   0  0  0  0  0  0  0  0  0  0  0  0
  -12.5411   -9.1451   -1.7183 C   0  0  0  0  0  0  0  0  0  0  0  0
  -10.0712   -8.5336   -0.6470 O   0  0  0  0  0  0  0  0  0  0  0  0
    1.1991    2.1227   -0.3316 H   0  0  0  0  0  0  0  0  0  0  0  0
    2.4364    0.1947    0.5998 H   0  0  0  0  0  0  0  0  0  0  0  0
    1.2499   -1.9607    0.9046 H   0  0  0  0  0  0  0  0  0  0  0  0
   -0.0591    3.8746   -1.3345 H   0  0  0  0  0  0  0  0  0  0  0  0
   -2.3397    5.0530   -2.2554 H   0  0  0  0  0  0  0  0  0  0  0  0
   -3.3497    1.2653   -1.2736 H   0  0  0  0  0  0  0  0  0  0  0  0
   -3.0089   -1.8257   -0.5389 H   0  0  0  0  0  0  0  0  0  0  0  0
   -2.1359   -4.8110    1.5412 H   0  0  0  0  0  0  0  0  0  0  0  0
   -3.4285   -6.7833    1.6844 H   0  0  0  0  0  0  0  0  0  0  0  0
   -6.3138   -5.1432   -1.0748 H   0  0  0  0  0  0  0  0  0  0  0  0
   -4.9609   -3.1000   -1.2407 H   0  0  0  0  0  0  0  0  0  0  0  0
   -6.5252   -7.3939   -0.2812 H   0  0  0  0  0  0  0  0  0  0  0  0
   -8.1597   -8.5839    0.3699 H   0  0  0  0  0  0  0  0  0  0  0  0
   -8.3685  -12.8844    0.7274 H   0  0  0  0  0  0  0  0  0  0  0  0
   -6.1272  -12.8923    1.7512 H   0  0  0  0  0  0  0  0  0  0  0  0
   -4.8796  -10.7765    2.0374 H   0  0  0  0  0  0  0  0  0  0  0  0
  -10.1373  -11.6997   -0.2096 H   0  0  0  0  0  0  0  0  0  0  0  0
  -12.0308  -11.1384   -1.2421 H   0  0  0  0  0  0  0  0  0  0  0  0
  -13.5004   -9.3851   -2.1613 H   0  0  0  0  0  0  0  0  0  0  0  0
  -12.2525   -8.0957   -1.6976 H   0  0  0  0  0  0  0  0  0  0  0  0
  1  2  2  0  0  0  0
  1  7  1  0  0  0  0
  2  3  1  0  0  0  0
  3  4  2  0  0  0  0
  3  8  1  0  0  0  0
  4  5  1  0  0  0  0
  4 35  1  0  0  0  0
  5  6  2  0  0  0  0
  5 36  1  0  0  0  0
  6  1  1  0  0  0  0
  6 37  1  0  0  0  0
  7 13  1  0  0  0  0
  7 14  2  0  0  0  0
  8  9  2  0  0  0  0
  9 10  1  0  0  0  0
  9 38  1  0  0  0  0
 10 11  2  0  0  0  0
 10 39  1  0  0  0  0
 11 12  1  0  0  0  0
 12  8  1  0  0  0  0
 12 40  1  0  0  0  0
 13 15  1  0  0  0  0
 13 41  1  0  0  0  0
 15 16  2  0  0  0  0
 16 17  1  0  0  0  0
 16 42  1  0  0  0  0
 17 18  2  0  0  0  0
 17 43  1  0  0  0  0
 18 19  1  0  0  0  0
 18 21  1  0  0  0  0
 19 20  2  0  0  0  0
 19 44  1  0  0  0  0
 20 15  1  0  0  0  0
 20 45  1  0  0  0  0
 21 22  1  0  0  0  0
 21 46  1  0  0  0  0
 22 23  1  0  0  0  0
 22 24  2  0  0  0  0
 23 25  2  0  0  0  0
 25 26  1  0  0  0  0
 25 47  1  0  0  0  0
 26 27  2  0  0  0  0
 26 30  1  0  0  0  0
 27 28  1  0  0  0  0
 27 48  1  0  0  0  0
 28 29  2  0  0  0  0
 28 49  1  0  0  0  0
 29 23  1  0  0  0  0
 29 50  1  0  0  0  0
 30 31  1  0  0  0  0
 30 51  1  0  0  0  0
 31 32  1  0  0  0  0
 31 34  2  0  0  0  0
 32 33  2  0  0  0  0
 32 52  1  0  0  0  0
 33 53  1  0  0  0  0
 33 54  1  0  0  0  0
M  END
>  <Mol_ID>
5816

>  <Formula>
C25H20N6O3

>  <MolWeight>
452.4647

>  <Cat>
S9780

>  <Name>
JH-X-119-01

>  <Synonyms>
N/A

>  <Target>
IRAK

>  <Form>
Free Base

>  <CAS>
2227368-54-7

>  <URL>
http://www.selleckchem.com/products/jh-x-119-01.html

$$$$
