JHU37160
 OpenBabel08302521303D

 45 48  0  0  0  0  0  0  0  0999 V2000
   -3.5117   -0.2294    0.9342 C   0  0  0  0  0  0  0  0  0  0  0  0
   -2.6582    0.8531    0.7026 C   0  0  0  0  0  0  0  0  0  0  0  0
   -1.5230    0.7196   -0.1185 C   0  0  0  0  0  0  0  0  0  0  0  0
   -1.2135   -0.5316   -0.6658 C   0  0  0  0  0  0  0  0  0  0  0  0
   -2.0899   -1.6030   -0.4253 C   0  0  0  0  0  0  0  0  0  0  0  0
   -3.2312   -1.4621    0.3563 C   0  0  0  0  0  0  0  0  0  0  0  0
   -1.7898   -2.8161   -0.9184 F   0  0  0  0  0  0  0  0  0  0  0  0
    0.0155   -0.7946   -1.3164 N   0  0  0  0  0  0  0  0  0  0  0  0
   -0.6711    1.9335   -0.4040 C   0  0  0  0  0  0  0  0  0  0  0  0
    0.6365    1.9264   -0.3526 N   0  0  0  0  0  0  0  0  0  0  0  0
    1.2134   -0.4817   -0.6241 C   0  0  0  0  0  0  0  0  0  0  0  0
    1.4412    0.8040   -0.0945 C   0  0  0  0  0  0  0  0  0  0  0  0
    2.6098    1.0275    0.6455 C   0  0  0  0  0  0  0  0  0  0  0  0
    3.5138   -0.0045    0.9059 C   0  0  0  0  0  0  0  0  0  0  0  0
    3.2700   -1.2791    0.4072 C   0  0  0  0  0  0  0  0  0  0  0  0
    2.1305   -1.5149   -0.3611 C   0  0  0  0  0  0  0  0  0  0  0  0
   -1.2871    3.1570   -0.7216 N   0  0  0  0  0  0  0  0  0  0  0  0
   -2.6658    3.2855   -1.2160 C   0  0  0  0  0  0  0  0  0  0  0  0
   -2.8369    4.4341   -2.2361 C   0  0  0  0  0  0  0  0  0  0  0  0
   -2.2657    5.7388   -1.8452 N   0  0  0  0  0  0  0  0  0  0  0  0
   -0.8436    5.5037   -1.5031 C   0  0  0  0  0  0  0  0  0  0  0  0
   -0.5948    4.4275   -0.4255 C   0  0  0  0  0  0  0  0  0  0  0  0
   -2.9718    6.4011   -0.7400 C   0  0  0  0  0  0  0  0  0  0  0  0
   -4.3828    6.8488   -1.1078 C   0  0  0  0  0  0  0  0  0  0  0  0
   -4.3852   -0.1112    1.5713 H   0  0  0  0  0  0  0  0  0  0  0  0
   -2.8689    1.8049    1.1844 H   0  0  0  0  0  0  0  0  0  0  0  0
   -3.8676   -2.3230    0.5344 H   0  0  0  0  0  0  0  0  0  0  0  0
    0.0296   -1.7341   -1.7053 H   0  0  0  0  0  0  0  0  0  0  0  0
    2.8140    2.0284    1.0158 H   0  0  0  0  0  0  0  0  0  0  0  0
    4.4072    0.1950    1.4929 H   0  0  0  0  0  0  0  0  0  0  0  0
    3.9605   -2.0908    0.6195 H   0  0  0  0  0  0  0  0  0  0  0  0
    1.9433   -2.5207   -0.7275 H   0  0  0  0  0  0  0  0  0  0  0  0
   -2.9749    2.3629   -1.7212 H   0  0  0  0  0  0  0  0  0  0  0  0
   -3.3430    3.4505   -0.3714 H   0  0  0  0  0  0  0  0  0  0  0  0
   -2.3509    4.1312   -3.1740 H   0  0  0  0  0  0  0  0  0  0  0  0
   -3.8971    4.5365   -2.4931 H   0  0  0  0  0  0  0  0  0  0  0  0
   -0.3206    5.2063   -2.4221 H   0  0  0  0  0  0  0  0  0  0  0  0
   -0.3739    6.4461   -1.1946 H   0  0  0  0  0  0  0  0  0  0  0  0
   -0.9320    4.7866    0.5537 H   0  0  0  0  0  0  0  0  0  0  0  0
    0.4898    4.2943   -0.3489 H   0  0  0  0  0  0  0  0  0  0  0  0
   -3.0163    5.7778    0.1599 H   0  0  0  0  0  0  0  0  0  0  0  0
   -2.4174    7.3087   -0.4679 H   0  0  0  0  0  0  0  0  0  0  0  0
   -5.0581    5.9989   -1.2423 H   0  0  0  0  0  0  0  0  0  0  0  0
   -4.7951    7.4699   -0.3050 H   0  0  0  0  0  0  0  0  0  0  0  0
   -4.3846    7.4468   -2.0249 H   0  0  0  0  0  0  0  0  0  0  0  0
  1  2  2  0  0  0  0
  1 25  1  0  0  0  0
  2  3  1  0  0  0  0
  2 26  1  0  0  0  0
  3  4  2  0  0  0  0
  3  9  1  0  0  0  0
  4  5  1  0  0  0  0
  4  8  1  0  0  0  0
  5  6  2  0  0  0  0
  5  7  1  0  0  0  0
  6  1  1  0  0  0  0
  6 27  1  0  0  0  0
  8 11  1  0  0  0  0
  8 28  1  0  0  0  0
  9 10  2  0  0  0  0
  9 17  1  0  0  0  0
 10 12  1  0  0  0  0
 11 12  2  0  0  0  0
 12 13  1  0  0  0  0
 13 14  2  0  0  0  0
 13 29  1  0  0  0  0
 14 15  1  0  0  0  0
 14 30  1  0  0  0  0
 15 16  2  0  0  0  0
 15 31  1  0  0  0  0
 16 11  1  0  0  0  0
 16 32  1  0  0  0  0
 17 18  1  0  0  0  0
 18 19  1  0  0  0  0
 18 33  1  0  0  0  0
 18 34  1  0  0  0  0
 19 20  1  0  0  0  0
 19 35  1  0  0  0  0
 19 36  1  0  0  0  0
 20 21  1  0  0  0  0
 20 23  1  0  0  0  0
 21 22  1  0  0  0  0
 21 37  1  0  0  0  0
 21 38  1  0  0  0  0
 22 17  1  0  0  0  0
 22 39  1  0  0  0  0
 22 40  1  0  0  0  0
 23 24  1  0  0  0  0
 23 41  1  0  0  0  0
 23 42  1  0  0  0  0
 24 43  1  0  0  0  0
 24 44  1  0  0  0  0
 24 45  1  0  0  0  0
M  END
>  <Mol_ID>
5593

>  <Formula>
C19H20ClFN4

>  <MolWeight>
358.8403032

>  <Cat>
S9790

>  <Name>
JHU37160

>  <Synonyms>
N/A

>  <Target>
AChR

>  <Form>
Free Base

>  <CAS>
2369979-68-8

>  <URL>
http://www.selleckchem.com/products/jhu37160.html

$$$$
