JIB04 (NSC693627).cdx
 OpenBabel08302519583D

 35 37  0  0  0  0  0  0  0  0999 V2000
    0.8073    1.1562   -0.0707 C   0  0  0  0  0  0  0  0  0  0  0  0
   -0.4974    1.0449   -0.5240 C   0  0  0  0  0  0  0  0  0  0  0  0
   -1.2142   -0.1000   -0.4854 N   0  0  0  0  0  0  0  0  0  0  0  0
   -0.5960   -1.1945    0.0279 C   0  0  0  0  0  0  0  0  0  0  0  0
    0.7165   -1.1770    0.4925 C   0  0  0  0  0  0  0  0  0  0  0  0
    1.4238    0.0223    0.4460 C   0  0  0  0  0  0  0  0  0  0  0  0
   -1.4005   -2.4700    0.1009 C   0  0  0  0  0  0  0  0  0  0  0  0
   -2.8954   -2.3359    0.2964 C   0  0  0  0  0  0  0  0  0  0  0  0
   -0.7188   -3.5874    0.0430 N   0  0  0  0  0  0  0  0  0  0  0  0
   -3.8087   -3.1952   -0.3262 C   0  0  0  0  0  0  0  0  0  0  0  0
   -5.1776   -3.1088   -0.0517 C   0  0  0  0  0  0  0  0  0  0  0  0
   -5.6590   -2.1243    0.8062 C   0  0  0  0  0  0  0  0  0  0  0  0
   -4.7723   -1.2249    1.3902 C   0  0  0  0  0  0  0  0  0  0  0  0
   -3.3993   -1.3395    1.1502 C   0  0  0  0  0  0  0  0  0  0  0  0
   -1.3789   -4.7762    0.1211 N   0  0  0  0  0  0  0  0  0  0  0  0
   -0.6292   -5.9309    0.4305 C   0  0  0  0  0  0  0  0  0  0  0  0
   -0.9777   -7.0643   -0.2230 N   0  0  0  0  0  0  0  0  0  0  0  0
   -0.3030   -8.1955    0.0793 C   0  0  0  0  0  0  0  0  0  0  0  0
    0.7118   -8.2600    1.0163 C   0  0  0  0  0  0  0  0  0  0  0  0
    1.0507   -7.0965    1.6912 C   0  0  0  0  0  0  0  0  0  0  0  0
    0.3658   -5.9157    1.4011 C   0  0  0  0  0  0  0  0  0  0  0  0
    1.3316    2.1044   -0.1207 H   0  0  0  0  0  0  0  0  0  0  0  0
   -1.0185    1.9031   -0.9396 H   0  0  0  0  0  0  0  0  0  0  0  0
    1.1769   -2.0722    0.8968 H   0  0  0  0  0  0  0  0  0  0  0  0
    2.4459    0.0701    0.8118 H   0  0  0  0  0  0  0  0  0  0  0  0
   -3.4834   -3.9421   -1.0388 H   0  0  0  0  0  0  0  0  0  0  0  0
   -5.8659   -3.8131   -0.5122 H   0  0  0  0  0  0  0  0  0  0  0  0
   -6.7236   -2.0547    1.0129 H   0  0  0  0  0  0  0  0  0  0  0  0
   -5.1453   -0.4372    2.0397 H   0  0  0  0  0  0  0  0  0  0  0  0
   -2.7325   -0.6328    1.6377 H   0  0  0  0  0  0  0  0  0  0  0  0
   -1.8793   -5.0651   -0.7203 H   0  0  0  0  0  0  0  0  0  0  0  0
   -0.6150   -9.0796   -0.4701 H   0  0  0  0  0  0  0  0  0  0  0  0
    1.2195   -9.1955    1.2205 H   0  0  0  0  0  0  0  0  0  0  0  0
    1.8331   -7.0994    2.4420 H   0  0  0  0  0  0  0  0  0  0  0  0
    0.6022   -4.9942    1.9208 H   0  0  0  0  0  0  0  0  0  0  0  0
  1  2  2  0  0  0  0
  1 22  1  0  0  0  0
  2  3  1  0  0  0  0
  2 23  1  0  0  0  0
  3  4  2  0  0  0  0
  4  5  1  0  0  0  0
  4  7  1  0  0  0  0
  5  6  2  0  0  0  0
  5 24  1  0  0  0  0
  6  1  1  0  0  0  0
  6 25  1  0  0  0  0
  7  8  1  0  0  0  0
  7  9  2  0  0  0  0
  8 10  2  0  0  0  0
  9 15  1  0  0  0  0
 10 11  1  0  0  0  0
 10 26  1  0  0  0  0
 11 12  2  0  0  0  0
 11 27  1  0  0  0  0
 12 13  1  0  0  0  0
 12 28  1  0  0  0  0
 13 14  2  0  0  0  0
 13 29  1  0  0  0  0
 14  8  1  0  0  0  0
 14 30  1  0  0  0  0
 15 16  1  0  0  0  0
 15 31  1  0  0  0  0
 16 17  2  0  0  0  0
 17 18  1  0  0  0  0
 18 19  2  0  0  0  0
 18 32  1  0  0  0  0
 19 20  1  0  0  0  0
 19 33  1  0  0  0  0
 20 21  2  0  0  0  0
 20 34  1  0  0  0  0
 21 16  1  0  0  0  0
 21 35  1  0  0  0  0
M  END
>  <Mol_ID>
2326

>  <Formula>
C17H13ClN4

>  <MolWeight>
308.76492

>  <Cat>
S7281

>  <Name>
JIB-04

>  <Synonyms>
NSC 693627

>  <Target>
Apoptosis related,Histone Demethylase,JMJD

>  <Form>
free base

>  <CAS>
199596-05-9

>  <URL>
http://selleckchem.com/products/jib-04.html

$$$$
