JK184
 OpenBabel08302520403D

 43 46  0  0  0  0  0  0  0  0999 V2000
    1.5807   -1.1185    0.0661 C   0  0  0  0  0  0  0  0  0  0  0  0
    0.3459   -0.7142   -0.4163 N   0  0  0  0  0  0  0  0  0  0  0  0
    2.1117   -2.5120    0.1557 C   0  0  0  0  0  0  0  0  0  0  0  0
    2.2304    0.0531    0.4295 C   0  0  0  0  0  0  0  0  0  0  0  0
    0.2917    0.6698   -0.2383 C   0  0  0  0  0  0  0  0  0  0  0  0
   -0.7348   -1.4402   -0.9288 C   0  0  0  0  0  0  0  0  0  0  0  0
    1.6315   -3.5242   -0.6435 N   0  0  0  0  0  0  0  0  0  0  0  0
    3.0946   -2.9087    1.0372 C   0  0  0  0  0  0  0  0  0  0  0  0
    1.4157    1.1451    0.2473 N   0  0  0  0  0  0  0  0  0  0  0  0
    3.6198    0.2725    0.8966 C   0  0  0  0  0  0  0  0  0  0  0  0
   -0.9191    1.3377   -0.5778 C   0  0  0  0  0  0  0  0  0  0  0  0
   -1.8771   -0.8036   -1.2459 C   0  0  0  0  0  0  0  0  0  0  0  0
    2.3103   -4.6390   -0.4590 C   0  0  0  0  0  0  0  0  0  0  0  0
    3.5176   -4.5434    0.7646 S   0  0  0  0  0  0  0  0  0  0  0  0
   -1.9636    0.6346   -1.0520 C   0  0  0  0  0  0  0  0  0  0  0  0
    2.1429   -5.7955   -1.1419 N   0  0  0  0  0  0  0  0  0  0  0  0
    1.0045   -6.1357   -1.8897 C   0  0  0  0  0  0  0  0  0  0  0  0
    1.1330   -6.9234   -3.0378 C   0  0  0  0  0  0  0  0  0  0  0  0
   -0.2589   -5.6224   -1.5806 C   0  0  0  0  0  0  0  0  0  0  0  0
    0.0261   -7.1756   -3.8537 C   0  0  0  0  0  0  0  0  0  0  0  0
   -1.3697   -5.8824   -2.3802 C   0  0  0  0  0  0  0  0  0  0  0  0
   -1.2301   -6.6647   -3.5218 C   0  0  0  0  0  0  0  0  0  0  0  0
   -2.2380   -6.9461   -4.4030 O   0  0  0  0  0  0  0  0  0  0  0  0
   -3.5608   -6.8968   -3.8666 C   0  0  0  0  0  0  0  0  0  0  0  0
   -4.5318   -7.2641   -4.9718 C   0  0  0  0  0  0  0  0  0  0  0  0
   -0.6121   -2.5073   -1.0487 H   0  0  0  0  0  0  0  0  0  0  0  0
    3.5770   -2.3500    1.8220 H   0  0  0  0  0  0  0  0  0  0  0  0
    3.7682   -0.1498    1.8927 H   0  0  0  0  0  0  0  0  0  0  0  0
    4.3354   -0.1805    0.2029 H   0  0  0  0  0  0  0  0  0  0  0  0
    3.8471    1.3423    0.9566 H   0  0  0  0  0  0  0  0  0  0  0  0
   -0.9723    2.4108   -0.4318 H   0  0  0  0  0  0  0  0  0  0  0  0
   -2.7404   -1.3310   -1.6372 H   0  0  0  0  0  0  0  0  0  0  0  0
   -2.8977    1.1307   -1.2986 H   0  0  0  0  0  0  0  0  0  0  0  0
    2.8295   -6.5306   -1.0419 H   0  0  0  0  0  0  0  0  0  0  0  0
    2.1044   -7.3134   -3.3346 H   0  0  0  0  0  0  0  0  0  0  0  0
   -0.3957   -5.0035   -0.6950 H   0  0  0  0  0  0  0  0  0  0  0  0
    0.1430   -7.7678   -4.7570 H   0  0  0  0  0  0  0  0  0  0  0  0
   -2.3121   -5.4337   -2.0916 H   0  0  0  0  0  0  0  0  0  0  0  0
   -3.6521   -7.6140   -3.0420 H   0  0  0  0  0  0  0  0  0  0  0  0
   -3.8114   -5.8896   -3.5166 H   0  0  0  0  0  0  0  0  0  0  0  0
   -4.2862   -8.2421   -5.3965 H   0  0  0  0  0  0  0  0  0  0  0  0
   -5.5580   -7.2845   -4.5943 H   0  0  0  0  0  0  0  0  0  0  0  0
   -4.4718   -6.5349   -5.7868 H   0  0  0  0  0  0  0  0  0  0  0  0
  1  2  1  0  0  0  0
  1  3  1  0  0  0  0
  1  4  2  0  0  0  0
  2  5  1  0  0  0  0
  2  6  1  0  0  0  0
  3  7  1  0  0  0  0
  3  8  2  0  0  0  0
  4  9  1  0  0  0  0
  4 10  1  0  0  0  0
  5 11  1  0  0  0  0
  5  9  2  0  0  0  0
  6 12  2  0  0  0  0
  6 26  1  0  0  0  0
  7 13  2  0  0  0  0
  8 14  1  0  0  0  0
  8 27  1  0  0  0  0
 10 28  1  0  0  0  0
 10 29  1  0  0  0  0
 10 30  1  0  0  0  0
 11 15  2  0  0  0  0
 11 31  1  0  0  0  0
 12 15  1  0  0  0  0
 12 32  1  0  0  0  0
 13 16  1  0  0  0  0
 13 14  1  0  0  0  0
 15 33  1  0  0  0  0
 16 17  1  0  0  0  0
 16 34  1  0  0  0  0
 17 18  2  0  0  0  0
 17 19  1  0  0  0  0
 18 20  1  0  0  0  0
 18 35  1  0  0  0  0
 19 21  2  0  0  0  0
 19 36  1  0  0  0  0
 20 22  2  0  0  0  0
 20 37  1  0  0  0  0
 21 22  1  0  0  0  0
 21 38  1  0  0  0  0
 22 23  1  0  0  0  0
 23 24  1  0  0  0  0
 24 25  1  0  0  0  0
 24 39  1  0  0  0  0
 24 40  1  0  0  0  0
 25 41  1  0  0  0  0
 25 42  1  0  0  0  0
 25 43  1  0  0  0  0
M  END
>  <Mol_ID>
3837

>  <Formula>
C19H18N4OS

>  <MolWeight>
350.43742

>  <Cat>
S6565

>  <Name>
JK184

>  <Synonyms>
N/A

>  <Target>
Hedgehog/Smoothened

>  <Form>
free base

>  <CAS>
315703-52-7

>  <URL>
http://www.selleck.cn/products/jk184.html

$$$$
