JNJ-47965567
 OpenBabel08302521353D

 67 71  0  0  0  0  0  0  0  0999 V2000
    1.0520   -0.0714   -0.0105 C   0  0  0  0  0  0  0  0  0  0  0  0
    0.8857   -0.7980    1.2476 N   0  0  0  0  0  0  0  0  0  0  0  0
   -0.0966   -1.7004    1.5798 C   0  0  0  0  0  0  0  0  0  0  0  0
   -0.8414   -2.2559    0.7833 O   0  0  0  0  0  0  0  0  0  0  0  0
    2.3644   -1.6475    3.8220 S   0  0  0  0  0  0  0  0  0  0  0  0
    0.8093   -0.7284   -1.4391 C   0  0  0  0  0  0  0  0  0  0  0  0
    1.6592   -2.0184   -1.5635 C   0  0  0  0  0  0  0  0  0  0  0  0
    1.4267    0.2984   -2.4527 C   0  0  0  0  0  0  0  0  0  0  0  0
    1.8952   -2.4546   -3.0115 C   0  0  0  0  0  0  0  0  0  0  0  0
    1.6595   -0.2585   -3.8504 C   0  0  0  0  0  0  0  0  0  0  0  0
    2.4946   -1.4111   -3.7763 O   0  0  0  0  0  0  0  0  0  0  0  0
   -0.6375   -0.9317   -1.6322 N   0  0  0  0  0  0  0  0  0  0  0  0
   -1.2635   -2.0707   -2.3016 C   0  0  0  0  0  0  0  0  0  0  0  0
   -1.5492    0.2019   -1.6377 C   0  0  0  0  0  0  0  0  0  0  0  0
   -1.7791   -1.7824   -3.7390 C   0  0  0  0  0  0  0  0  0  0  0  0
   -1.8911    0.6457   -3.0609 C   0  0  0  0  0  0  0  0  0  0  0  0
   -2.4283   -0.4640   -3.8655 N   0  0  0  0  0  0  0  0  0  0  0  0
   -0.3275   -1.9718    3.0308 C   0  0  0  0  0  0  0  0  0  0  0  0
    0.6154   -1.9051    4.0590 C   0  0  0  0  0  0  0  0  0  0  0  0
   -1.6426   -2.3239    3.3875 C   0  0  0  0  0  0  0  0  0  0  0  0
    0.2753   -2.0642    5.3724 N   0  0  0  0  0  0  0  0  0  0  0  0
   -1.9872   -2.5340    4.7184 C   0  0  0  0  0  0  0  0  0  0  0  0
   -1.0051   -2.3667    5.6709 C   0  0  0  0  0  0  0  0  0  0  0  0
   -3.6285   -0.2256   -4.5121 C   0  0  0  0  0  0  0  0  0  0  0  0
   -4.6440   -1.1770   -4.6070 C   0  0  0  0  0  0  0  0  0  0  0  0
   -3.9035    1.0550   -5.0305 C   0  0  0  0  0  0  0  0  0  0  0  0
   -5.9156   -0.8283   -5.0822 C   0  0  0  0  0  0  0  0  0  0  0  0
   -5.1694    1.4180   -5.4823 C   0  0  0  0  0  0  0  0  0  0  0  0
   -6.1856    0.4763   -5.4877 C   0  0  0  0  0  0  0  0  0  0  0  0
    2.9569   -3.3349    3.7428 C   0  0  0  0  0  0  0  0  0  0  0  0
    3.6888   -3.7371    2.6203 C   0  0  0  0  0  0  0  0  0  0  0  0
    2.7550   -4.2460    4.7883 C   0  0  0  0  0  0  0  0  0  0  0  0
    4.2050   -5.0323    2.5314 C   0  0  0  0  0  0  0  0  0  0  0  0
    3.2676   -5.5482    4.6934 C   0  0  0  0  0  0  0  0  0  0  0  0
    3.9930   -5.9380    3.5706 C   0  0  0  0  0  0  0  0  0  0  0  0
    2.0928    0.2780    0.0321 H   0  0  0  0  0  0  0  0  0  0  0  0
    0.4601    0.8442    0.0963 H   0  0  0  0  0  0  0  0  0  0  0  0
    1.3552   -0.3527    2.0267 H   0  0  0  0  0  0  0  0  0  0  0  0
    2.6459   -1.8226   -1.1229 H   0  0  0  0  0  0  0  0  0  0  0  0
    1.2243   -2.8407   -0.9861 H   0  0  0  0  0  0  0  0  0  0  0  0
    0.8553    1.2306   -2.4958 H   0  0  0  0  0  0  0  0  0  0  0  0
    2.4199    0.5898   -2.0810 H   0  0  0  0  0  0  0  0  0  0  0  0
    2.5792   -3.3095   -3.0295 H   0  0  0  0  0  0  0  0  0  0  0  0
    0.9901   -2.7804   -3.5249 H   0  0  0  0  0  0  0  0  0  0  0  0
    0.7314   -0.4902   -4.3738 H   0  0  0  0  0  0  0  0  0  0  0  0
    2.1858    0.4857   -4.4539 H   0  0  0  0  0  0  0  0  0  0  0  0
   -0.6629   -2.9827   -2.2771 H   0  0  0  0  0  0  0  0  0  0  0  0
   -2.1466   -2.3446   -1.7059 H   0  0  0  0  0  0  0  0  0  0  0  0
   -2.4783   -0.1023   -1.1336 H   0  0  0  0  0  0  0  0  0  0  0  0
   -1.1905    1.0599   -1.0668 H   0  0  0  0  0  0  0  0  0  0  0  0
   -0.9403   -1.8225   -4.4411 H   0  0  0  0  0  0  0  0  0  0  0  0
   -2.4380   -2.6080   -4.0318 H   0  0  0  0  0  0  0  0  0  0  0  0
   -1.0216    1.0640   -3.5744 H   0  0  0  0  0  0  0  0  0  0  0  0
   -2.6104    1.4648   -2.9401 H   0  0  0  0  0  0  0  0  0  0  0  0
   -2.4076   -2.4322    2.6195 H   0  0  0  0  0  0  0  0  0  0  0  0
   -2.9976   -2.8108    4.9985 H   0  0  0  0  0  0  0  0  0  0  0  0
   -1.2218   -2.4833    6.7292 H   0  0  0  0  0  0  0  0  0  0  0  0
   -4.5000   -2.1893   -4.2453 H   0  0  0  0  0  0  0  0  0  0  0  0
   -3.1191    1.8094   -5.0561 H   0  0  0  0  0  0  0  0  0  0  0  0
   -6.7054   -1.5732   -5.0960 H   0  0  0  0  0  0  0  0  0  0  0  0
   -5.3531    2.4407   -5.8000 H   0  0  0  0  0  0  0  0  0  0  0  0
   -7.1854    0.7585   -5.8026 H   0  0  0  0  0  0  0  0  0  0  0  0
    3.8685   -3.0422    1.8031 H   0  0  0  0  0  0  0  0  0  0  0  0
    2.2025   -3.9614    5.6767 H   0  0  0  0  0  0  0  0  0  0  0  0
    4.7822   -5.3302    1.6596 H   0  0  0  0  0  0  0  0  0  0  0  0
    3.1095   -6.2517    5.5062 H   0  0  0  0  0  0  0  0  0  0  0  0
    4.4035   -6.9440    3.5082 H   0  0  0  0  0  0  0  0  0  0  0  0
  1  2  1  0  0  0  0
  1  6  1  0  0  0  0
  1 36  1  0  0  0  0
  1 37  1  0  0  0  0
  2  3  1  0  0  0  0
  2 38  1  0  0  0  0
  3  4  2  0  0  0  0
  3 18  1  0  0  0  0
  5 19  1  0  0  0  0
  5 30  1  0  0  0  0
  6  7  1  0  0  0  0
  6  8  1  0  0  0  0
  6 12  1  0  0  0  0
  7  9  1  0  0  0  0
  7 39  1  0  0  0  0
  7 40  1  0  0  0  0
  8 10  1  0  0  0  0
  8 41  1  0  0  0  0
  8 42  1  0  0  0  0
  9 11  1  0  0  0  0
  9 43  1  0  0  0  0
  9 44  1  0  0  0  0
 10 11  1  0  0  0  0
 10 45  1  0  0  0  0
 10 46  1  0  0  0  0
 12 13  1  0  0  0  0
 12 14  1  0  0  0  0
 13 15  1  0  0  0  0
 13 47  1  0  0  0  0
 13 48  1  0  0  0  0
 14 16  1  0  0  0  0
 14 49  1  0  0  0  0
 14 50  1  0  0  0  0
 15 17  1  0  0  0  0
 15 51  1  0  0  0  0
 15 52  1  0  0  0  0
 16 17  1  0  0  0  0
 16 53  1  0  0  0  0
 16 54  1  0  0  0  0
 17 24  1  0  0  0  0
 18 19  1  0  0  0  0
 18 20  2  0  0  0  0
 19 21  2  0  0  0  0
 20 22  1  0  0  0  0
 20 55  1  0  0  0  0
 21 23  1  0  0  0  0
 22 23  2  0  0  0  0
 22 56  1  0  0  0  0
 23 57  1  0  0  0  0
 24 25  2  0  0  0  0
 24 26  1  0  0  0  0
 25 27  1  0  0  0  0
 25 58  1  0  0  0  0
 26 28  2  0  0  0  0
 26 59  1  0  0  0  0
 27 29  2  0  0  0  0
 27 60  1  0  0  0  0
 28 29  1  0  0  0  0
 28 61  1  0  0  0  0
 29 62  1  0  0  0  0
 30 31  2  0  0  0  0
 30 32  1  0  0  0  0
 31 33  1  0  0  0  0
 31 63  1  0  0  0  0
 32 34  2  0  0  0  0
 32 64  1  0  0  0  0
 33 35  2  0  0  0  0
 33 65  1  0  0  0  0
 34 35  1  0  0  0  0
 34 66  1  0  0  0  0
 35 67  1  0  0  0  0
M  END
>  <Mol_ID>
6899

>  <Formula>
C28H32N4O2S

>  <MolWeight>
488.64428

>  <Cat>
S8513

>  <Name>
JNJ-47965567

>  <Target>
P2 Receptor

>  <Form>
Free base

>  <CAS>
1428327-31-4

>  <URL>
https://www.selleckchem.com/products/jnj-47965567.html

$$$$
