JNJ-7706621.cdx
 OpenBabel08302522033D

 39 41  0  0  0  0  0  0  0  0999 V2000
   -3.9125   -1.9248    3.0792 C   0  0  0  0  0  0  0  0  0  0  0  0
   -4.8970   -1.1021    2.5326 C   0  0  0  0  0  0  0  0  0  0  0  0
   -4.5565   -0.1876    1.5372 C   0  0  0  0  0  0  0  0  0  0  0  0
   -3.2442   -0.0869    1.0607 C   0  0  0  0  0  0  0  0  0  0  0  0
   -2.2721   -0.9478    1.6019 C   0  0  0  0  0  0  0  0  0  0  0  0
   -2.5984   -1.8614    2.6131 C   0  0  0  0  0  0  0  0  0  0  0  0
   -4.3427   -3.0090    4.4034 S   0  0  0  0  0  0  0  0  0  0  0  0
   -4.0118   -4.5280    3.7641 N   0  0  0  0  0  0  0  0  0  0  0  0
   -3.4106   -2.8122    5.4882 O   0  0  0  0  0  0  0  0  0  0  0  0
   -5.7741   -2.9890    4.5969 O   0  0  0  0  0  0  0  0  0  0  0  0
   -2.8566    0.9146    0.1538 N   0  0  0  0  0  0  0  0  0  0  0  0
   -3.3900    2.1303   -0.0791 C   0  0  0  0  0  0  0  0  0  0  0  0
   -2.8273    2.8488   -1.0960 N   0  0  0  0  0  0  0  0  0  0  0  0
   -3.4557    3.9913   -1.0550 C   0  0  0  0  0  0  0  0  0  0  0  0
   -4.3804    3.9826   -0.0199 N   0  0  0  0  0  0  0  0  0  0  0  0
   -4.3630    2.7643    0.5845 N   0  0  0  0  0  0  0  0  0  0  0  0
   -3.2194    5.0749   -1.8246 N   0  0  0  0  0  0  0  0  0  0  0  0
   -5.2391    5.0154    0.3722 C   0  0  0  0  0  0  0  0  0  0  0  0
   -5.8158    5.2028    1.7211 C   0  0  0  0  0  0  0  0  0  0  0  0
   -5.1111    4.8399    2.8674 C   0  0  0  0  0  0  0  0  0  0  0  0
   -5.5696    5.1933    4.1385 C   0  0  0  0  0  0  0  0  0  0  0  0
   -6.7318    5.9496    4.2778 C   0  0  0  0  0  0  0  0  0  0  0  0
   -7.4429    6.3275    3.1416 C   0  0  0  0  0  0  0  0  0  0  0  0
   -6.9881    5.9481    1.8766 C   0  0  0  0  0  0  0  0  0  0  0  0
   -7.7034    6.3459    0.8146 F   0  0  0  0  0  0  0  0  0  0  0  0
   -3.9225    4.2293    2.7885 F   0  0  0  0  0  0  0  0  0  0  0  0
   -5.4654    5.8866   -0.4728 O   0  0  0  0  0  0  0  0  0  0  0  0
   -5.9247   -1.1431    2.8858 H   0  0  0  0  0  0  0  0  0  0  0  0
   -5.3382    0.4508    1.1318 H   0  0  0  0  0  0  0  0  0  0  0  0
   -1.2396   -0.8836    1.2668 H   0  0  0  0  0  0  0  0  0  0  0  0
   -1.8267   -2.4939    3.0433 H   0  0  0  0  0  0  0  0  0  0  0  0
   -3.4346   -5.0468    4.4271 H   0  0  0  0  0  0  0  0  0  0  0  0
   -4.8867   -4.9996    3.5325 H   0  0  0  0  0  0  0  0  0  0  0  0
   -2.0164    0.7070   -0.3718 H   0  0  0  0  0  0  0  0  0  0  0  0
   -3.9253    5.8154   -1.8601 H   0  0  0  0  0  0  0  0  0  0  0  0
   -2.6958    4.9481   -2.6832 H   0  0  0  0  0  0  0  0  0  0  0  0
   -4.9892    4.9077    5.0119 H   0  0  0  0  0  0  0  0  0  0  0  0
   -7.0689    6.2599    5.2645 H   0  0  0  0  0  0  0  0  0  0  0  0
   -8.3380    6.9379    3.2267 H   0  0  0  0  0  0  0  0  0  0  0  0
  1  2  2  0  0  0  0
  1  7  1  0  0  0  0
  2  3  1  0  0  0  0
  2 28  1  0  0  0  0
  3  4  2  0  0  0  0
  3 29  1  0  0  0  0
  4  5  1  0  0  0  0
  4 11  1  0  0  0  0
  5  6  2  0  0  0  0
  5 30  1  0  0  0  0
  6  1  1  0  0  0  0
  6 31  1  0  0  0  0
  7  8  1  0  0  0  0
  7  9  2  0  0  0  0
  7 10  2  0  0  0  0
  8 32  1  0  0  0  0
  8 33  1  0  0  0  0
 11 12  1  0  0  0  0
 11 34  1  0  0  0  0
 12 13  1  0  0  0  0
 13 14  2  0  0  0  0
 14 15  1  0  0  0  0
 14 17  1  0  0  0  0
 15 16  1  0  0  0  0
 15 18  1  0  0  0  0
 16 12  2  0  0  0  0
 17 35  1  0  0  0  0
 17 36  1  0  0  0  0
 18 19  1  0  0  0  0
 18 27  2  0  0  0  0
 19 20  2  0  0  0  0
 20 21  1  0  0  0  0
 20 26  1  0  0  0  0
 21 22  2  0  0  0  0
 21 37  1  0  0  0  0
 22 23  1  0  0  0  0
 22 38  1  0  0  0  0
 23 24  2  0  0  0  0
 23 39  1  0  0  0  0
 24 19  1  0  0  0  0
 24 25  1  0  0  0  0
M  END
>  <Mol_ID>
138

>  <Formula>
C15H12F2N6O3S

>  <MolWeight>
394.3559864

>  <Cat>
S1249

>  <Name>
JNJ-7706621

>  <Synonyms>
N/A

>  <Target>
Aurora Kinase,CDK

>  <Form>
free base

>  <CAS>
443797-96-4

>  <URL>
http://selleckchem.com/products/JNJ-7706621.html

$$$$
