JNJ-632
 OpenBabel08302521303D

 45 47  0  0  0  0  0  0  0  0999 V2000
    0.8400   -0.2809   -0.4353 S   0  0  0  0  0  0  0  0  0  0  0  0
    7.7912    8.0605    1.5358 F   0  0  0  0  0  0  0  0  0  0  0  0
    0.5580   -1.2886   -5.3876 O   0  0  0  0  0  0  0  0  0  0  0  0
    0.3537   -1.0179    0.7118 O   0  0  0  0  0  0  0  0  0  0  0  0
    0.3545    1.0377   -0.7562 O   0  0  0  0  0  0  0  0  0  0  0  0
    6.6358    2.1955   -0.3634 O   0  0  0  0  0  0  0  0  0  0  0  0
    0.5828   -1.2893   -1.7629 N   0  0  0  0  0  0  0  0  0  0  0  0
    4.8412    3.5175    0.3256 N   0  0  0  0  0  0  0  0  0  0  0  0
    0.3296   -0.6840   -3.0893 C   0  0  1  0  0  0  0  0  0  0  0  0
    1.5403    0.0235   -3.6470 C   0  0  0  0  0  0  0  0  0  0  0  0
    0.0533   -1.7589   -4.1364 C   0  0  0  0  0  0  0  0  0  0  0  0
    1.4836   -0.2287   -5.1395 C   0  0  0  0  0  0  0  0  0  0  0  0
    2.6111   -0.2049   -0.2761 C   0  0  0  0  0  0  0  0  0  0  0  0
    3.2666    1.0390   -0.3051 C   0  0  0  0  0  0  0  0  0  0  0  0
    3.3132   -1.3885   -0.0164 C   0  0  0  0  0  0  0  0  0  0  0  0
    4.6387    1.0827   -0.0483 C   0  0  0  0  0  0  0  0  0  0  0  0
    4.6822   -1.3410    0.2253 C   0  0  0  0  0  0  0  0  0  0  0  0
    5.3368   -0.1120    0.2130 C   0  0  0  0  0  0  0  0  0  0  0  0
    5.4499    2.3288   -0.0710 C   0  0  0  0  0  0  0  0  0  0  0  0
    5.5526    4.7335    0.5099 C   0  0  0  0  0  0  0  0  0  0  0  0
    6.8084    4.9600   -0.0685 C   0  0  0  0  0  0  0  0  0  0  0  0
    7.5882    6.0705    0.2742 C   0  0  0  0  0  0  0  0  0  0  0  0
    5.0156    5.7161    1.3493 C   0  0  0  0  0  0  0  0  0  0  0  0
    7.0587    7.0023    1.1609 C   0  0  0  0  0  0  0  0  0  0  0  0
    5.7750    6.8472    1.6796 C   0  0  0  0  0  0  0  0  0  0  0  0
    8.9740    6.2151   -0.2754 C   0  0  0  0  0  0  0  0  0  0  0  0
   -0.0476   -2.0463   -1.4946 H   0  0  0  0  0  0  0  0  0  0  0  0
    3.9191    3.4658    0.7390 H   0  0  0  0  0  0  0  0  0  0  0  0
   -0.5381   -0.0155   -3.0433 H   0  0  0  0  0  0  0  0  0  0  0  0
    1.5359    1.0954   -3.4226 H   0  0  0  0  0  0  0  0  0  0  0  0
    2.4735   -0.3835   -3.2436 H   0  0  0  0  0  0  0  0  0  0  0  0
    0.5539   -2.7054   -3.9049 H   0  0  0  0  0  0  0  0  0  0  0  0
   -1.0182   -1.9634   -4.2382 H   0  0  0  0  0  0  0  0  0  0  0  0
    1.1470    0.6557   -5.6888 H   0  0  0  0  0  0  0  0  0  0  0  0
    2.4645   -0.5181   -5.5306 H   0  0  0  0  0  0  0  0  0  0  0  0
    2.7111    1.9436   -0.5332 H   0  0  0  0  0  0  0  0  0  0  0  0
    2.7989   -2.3465    0.0183 H   0  0  0  0  0  0  0  0  0  0  0  0
    5.2445   -2.2463    0.4359 H   0  0  0  0  0  0  0  0  0  0  0  0
    6.4078   -0.0804    0.4175 H   0  0  0  0  0  0  0  0  0  0  0  0
    7.2199    4.2601   -0.7897 H   0  0  0  0  0  0  0  0  0  0  0  0
    4.0337    5.5990    1.7993 H   0  0  0  0  0  0  0  0  0  0  0  0
    5.3884    7.5951    2.3657 H   0  0  0  0  0  0  0  0  0  0  0  0
    9.0548    7.1208   -0.8828 H   0  0  0  0  0  0  0  0  0  0  0  0
    9.7024    6.2529    0.5405 H   0  0  0  0  0  0  0  0  0  0  0  0
    9.2410    5.3618   -0.9099 H   0  0  0  0  0  0  0  0  0  0  0  0
  1  4  2  0  0  0  0
  1  5  2  0  0  0  0
  1  7  1  0  0  0  0
  1 13  1  0  0  0  0
  2 24  1  0  0  0  0
  3 11  1  0  0  0  0
  3 12  1  0  0  0  0
  6 19  2  0  0  0  0
  7 27  1  0  0  0  0
  8 19  1  0  0  0  0
  8 20  1  0  0  0  0
  8 28  1  0  0  0  0
  9  7  1  0  0  0  0
  9 10  1  0  0  0  0
  9 11  1  0  0  0  0
  9 29  1  1  0  0  0
 10 12  1  0  0  0  0
 10 30  1  0  0  0  0
 10 31  1  0  0  0  0
 11 32  1  0  0  0  0
 11 33  1  0  0  0  0
 12 34  1  0  0  0  0
 12 35  1  0  0  0  0
 13 14  2  0  0  0  0
 13 15  1  0  0  0  0
 14 16  1  0  0  0  0
 14 36  1  0  0  0  0
 15 17  2  0  0  0  0
 15 37  1  0  0  0  0
 16 18  2  0  0  0  0
 16 19  1  0  0  0  0
 17 18  1  0  0  0  0
 17 38  1  0  0  0  0
 18 39  1  0  0  0  0
 20 21  2  0  0  0  0
 20 23  1  0  0  0  0
 21 22  1  0  0  0  0
 21 40  1  0  0  0  0
 22 24  2  0  0  0  0
 22 26  1  0  0  0  0
 23 25  2  0  0  0  0
 23 41  1  0  0  0  0
 24 25  1  0  0  0  0
 25 42  1  0  0  0  0
 26 43  1  0  0  0  0
 26 44  1  0  0  0  0
 26 45  1  0  0  0  0
M  END
>  <Mol_ID>
5729

>  <Formula>
C18H19FN2O4S

>  <MolWeight>
378.4178632

>  <Cat>
S0796

>  <Name>
JNJ-632

>  <Synonyms>
N/A

>  <Target>
HBV

>  <Form>
Free Base

>  <CAS>
1572510-42-9

>  <URL>
http://www.selleckchem.com/products/jnj-632.html

$$$$
