JNJ-10198409
 OpenBabel08302521343D

 40 43  0  0  0  0  0  0  0  0999 V2000
   -3.1507   -0.6235    0.0849 N   0  0  0  0  0  0  0  0  0  0  0  0
   -1.9802   -1.2907    0.1090 N   0  0  0  0  0  0  0  0  0  0  0  0
   -0.9409   -0.4476    0.0959 C   0  0  0  0  0  0  0  0  0  0  0  0
   -1.4251    0.8320    0.0794 C   0  0  0  0  0  0  0  0  0  0  0  0
   -2.8207    0.6844    0.0459 C   0  0  0  0  0  0  0  0  0  0  0  0
   -0.3412    1.8576    0.0297 C   0  0  0  0  0  0  0  0  0  0  0  0
    0.8531    0.8804    0.0252 C   0  0  0  0  0  0  0  0  0  0  0  0
    2.2021    1.1784   -0.0071 C   0  0  0  0  0  0  0  0  0  0  0  0
    3.1948    0.1502   -0.0121 C   0  0  0  0  0  0  0  0  0  0  0  0
    2.7816   -1.2017    0.0058 C   0  0  0  0  0  0  0  0  0  0  0  0
    1.3910   -1.4872    0.0386 C   0  0  0  0  0  0  0  0  0  0  0  0
    0.4728   -0.4667    0.0569 C   0  0  0  0  0  0  0  0  0  0  0  0
   -3.7001    1.7136   -0.0264 N   0  0  0  0  0  0  0  0  0  0  0  0
    3.4078   -2.4091   -0.0011 O   0  0  0  0  0  0  0  0  0  0  0  0
    4.7895   -2.6389   -0.0258 C   0  0  0  0  0  0  0  0  0  0  0  0
    4.3948    0.7912   -0.0370 O   0  0  0  0  0  0  0  0  0  0  0  0
    5.6628    0.1951   -0.0301 C   0  0  0  0  0  0  0  0  0  0  0  0
   -5.0097    1.6605   -0.5583 C   0  0  0  0  0  0  0  0  0  0  0  0
   -6.0136    2.4909   -0.0563 C   0  0  0  0  0  0  0  0  0  0  0  0
   -7.3271    2.3499   -0.5130 C   0  0  0  0  0  0  0  0  0  0  0  0
   -7.6630    1.3998   -1.4717 C   0  0  0  0  0  0  0  0  0  0  0  0
   -6.6747    0.5740   -1.9874 C   0  0  0  0  0  0  0  0  0  0  0  0
   -5.3651    0.7028   -1.5262 C   0  0  0  0  0  0  0  0  0  0  0  0
   -8.2883    3.1333   -0.0055 F   0  0  0  0  0  0  0  0  0  0  0  0
   -1.9950   -2.3066    0.1197 H   0  0  0  0  0  0  0  0  0  0  0  0
   -0.3264    2.4892    0.9211 H   0  0  0  0  0  0  0  0  0  0  0  0
   -0.3691    2.4418   -0.8934 H   0  0  0  0  0  0  0  0  0  0  0  0
    2.5153    2.2209   -0.0263 H   0  0  0  0  0  0  0  0  0  0  0  0
    1.0514   -2.5200    0.0495 H   0  0  0  0  0  0  0  0  0  0  0  0
   -3.4021    2.6491    0.2174 H   0  0  0  0  0  0  0  0  0  0  0  0
    5.2381   -2.2666   -0.9457 H   0  0  0  0  0  0  0  0  0  0  0  0
    5.2656   -2.2844    0.8873 H   0  0  0  0  0  0  0  0  0  0  0  0
    4.9382   -3.7245   -0.0375 H   0  0  0  0  0  0  0  0  0  0  0  0
    5.8328   -0.3751    0.8822 H   0  0  0  0  0  0  0  0  0  0  0  0
    5.8433   -0.3590   -0.9506 H   0  0  0  0  0  0  0  0  0  0  0  0
    6.4013    1.0042   -0.0178 H   0  0  0  0  0  0  0  0  0  0  0  0
   -5.8099    3.2214    0.7190 H   0  0  0  0  0  0  0  0  0  0  0  0
   -8.6929    1.3008   -1.7989 H   0  0  0  0  0  0  0  0  0  0  0  0
   -6.9110   -0.1821   -2.7305 H   0  0  0  0  0  0  0  0  0  0  0  0
   -4.6047    0.0395   -1.9336 H   0  0  0  0  0  0  0  0  0  0  0  0
  1  2  1  0  0  0  0
  1  5  2  0  0  0  0
  2  3  1  0  0  0  0
  2 25  1  0  0  0  0
  3  4  2  0  0  0  0
  4  5  1  0  0  0  0
  5 13  1  0  0  0  0
  6  7  1  0  0  0  0
  6  4  1  0  0  0  0
  6 26  1  0  0  0  0
  6 27  1  0  0  0  0
  7  8  1  0  0  0  0
  7 12  2  0  0  0  0
  8  9  2  0  0  0  0
  8 28  1  0  0  0  0
  9 10  1  0  0  0  0
  9 16  1  0  0  0  0
 10 11  2  0  0  0  0
 10 14  1  0  0  0  0
 11 12  1  0  0  0  0
 11 29  1  0  0  0  0
 12  3  1  0  0  0  0
 13 18  1  0  0  0  0
 13 30  1  0  0  0  0
 14 15  1  0  0  0  0
 15 31  1  0  0  0  0
 15 32  1  0  0  0  0
 15 33  1  0  0  0  0
 16 17  1  0  0  0  0
 17 34  1  0  0  0  0
 17 35  1  0  0  0  0
 17 36  1  0  0  0  0
 18 19  2  0  0  0  0
 18 23  1  0  0  0  0
 19 20  1  0  0  0  0
 19 37  1  0  0  0  0
 20 21  2  0  0  0  0
 20 24  1  0  0  0  0
 21 22  1  0  0  0  0
 21 38  1  0  0  0  0
 22 23  2  0  0  0  0
 22 39  1  0  0  0  0
 23 40  1  0  0  0  0
M  END
>  <Mol_ID>
6453

>  <Formula>
C18H16FN3O2

>  <MolWeight>
325.3369432

>  <Cat>
E2393

>  <Name>
JNJ-10198409

>  <Target>
PDGFR

>  <Form>
free base

>  <CAS>
627518-40-5

>  <URL>
http://www.selleckchem.com/products/jnj-10198409.html

$$$$
