JNJ-42756493 (Erdafitinib).cdx
 OpenBabel08302520433D

 63 66  0  0  0  0  0  0  0  0999 V2000
    2.1193   -0.3918   -1.3368 C   0  0  0  0  0  0  0  0  0  0  0  0
    2.2725    0.7501   -0.5657 C   0  0  0  0  0  0  0  0  0  0  0  0
    1.2736    1.2832    0.1755 N   0  0  0  0  0  0  0  0  0  0  0  0
    0.0978    0.6338    0.1413 C   0  0  0  0  0  0  0  0  0  0  0  0
   -0.0845   -0.5348   -0.6357 C   0  0  0  0  0  0  0  0  0  0  0  0
    0.9249   -1.0425   -1.3800 N   0  0  0  0  0  0  0  0  0  0  0  0
   -0.9579    1.1193    0.8908 C   0  0  0  0  0  0  0  0  0  0  0  0
   -2.1942    0.4701    0.8984 C   0  0  0  0  0  0  0  0  0  0  0  0
   -2.4077   -0.6940    0.1488 C   0  0  0  0  0  0  0  0  0  0  0  0
   -1.3301   -1.1678   -0.6174 C   0  0  0  0  0  0  0  0  0  0  0  0
    3.2211   -0.9518   -2.0930 C   0  0  0  0  0  0  0  0  0  0  0  0
   -3.6760   -1.3198    0.2074 N   0  0  0  0  0  0  0  0  0  0  0  0
   -3.7559   -2.7848   -0.0473 C   0  0  0  0  0  0  0  0  0  0  0  0
   -4.9115   -0.6302    0.0135 C   0  0  0  0  0  0  0  0  0  0  0  0
   -2.9908   -3.6132    1.0167 C   0  0  0  0  0  0  0  0  0  0  0  0
   -3.1956   -5.0596    0.8248 N   0  0  0  0  0  0  0  0  0  0  0  0
   -2.3598   -5.8974    1.6962 C   0  0  0  0  0  0  0  0  0  0  0  0
   -2.6819   -5.7428    3.1849 C   0  0  0  0  0  0  0  0  0  0  0  0
   -2.5652   -7.3614    1.2906 C   0  0  0  0  0  0  0  0  0  0  0  0
   -4.9913    0.5039   -0.8187 C   0  0  0  0  0  0  0  0  0  0  0  0
   -6.2023    1.1746   -1.0206 C   0  0  0  0  0  0  0  0  0  0  0  0
   -7.3639    0.6955   -0.4126 C   0  0  0  0  0  0  0  0  0  0  0  0
   -7.3142   -0.4348    0.3986 C   0  0  0  0  0  0  0  0  0  0  0  0
   -6.0897   -1.0585    0.6451 C   0  0  0  0  0  0  0  0  0  0  0  0
   -8.3991   -1.0011    1.0129 O   0  0  0  0  0  0  0  0  0  0  0  0
   -6.3875    2.2922   -1.7898 O   0  0  0  0  0  0  0  0  0  0  0  0
   -5.2354    2.8508   -2.4086 C   0  0  0  0  0  0  0  0  0  0  0  0
   -9.6296   -0.8714    0.3020 C   0  0  0  0  0  0  0  0  0  0  0  0
    4.5640   -0.5261   -2.2366 C   0  0  0  0  0  0  0  0  0  0  0  0
    5.2863   -1.3334   -3.0108 N   0  0  0  0  0  0  0  0  0  0  0  0
    4.4094   -2.2892   -3.3732 N   0  0  0  0  0  0  0  0  0  0  0  0
    3.1598   -2.0980   -2.8636 C   0  0  0  0  0  0  0  0  0  0  0  0
    4.8573   -3.3771   -4.2023 C   0  0  0  0  0  0  0  0  0  0  0  0
    3.2125    1.2872   -0.5050 H   0  0  0  0  0  0  0  0  0  0  0  0
   -0.8159    2.0143    1.4905 H   0  0  0  0  0  0  0  0  0  0  0  0
   -2.9920    0.8732    1.5194 H   0  0  0  0  0  0  0  0  0  0  0  0
   -1.4403   -2.0497   -1.2420 H   0  0  0  0  0  0  0  0  0  0  0  0
   -4.7956   -3.1347   -0.0360 H   0  0  0  0  0  0  0  0  0  0  0  0
   -3.3973   -3.0167   -1.0584 H   0  0  0  0  0  0  0  0  0  0  0  0
   -1.9202   -3.3906    0.9579 H   0  0  0  0  0  0  0  0  0  0  0  0
   -3.3378   -3.3110    2.0111 H   0  0  0  0  0  0  0  0  0  0  0  0
   -4.1795   -5.2924    0.9594 H   0  0  0  0  0  0  0  0  0  0  0  0
   -1.3042   -5.6506    1.5276 H   0  0  0  0  0  0  0  0  0  0  0  0
   -3.7373   -5.9572    3.3897 H   0  0  0  0  0  0  0  0  0  0  0  0
   -2.0811   -6.4400    3.7813 H   0  0  0  0  0  0  0  0  0  0  0  0
   -2.4617   -4.7348    3.5471 H   0  0  0  0  0  0  0  0  0  0  0  0
   -2.5088   -7.4915    0.2043 H   0  0  0  0  0  0  0  0  0  0  0  0
   -1.7883   -7.9928    1.7366 H   0  0  0  0  0  0  0  0  0  0  0  0
   -3.5375   -7.7404    1.6267 H   0  0  0  0  0  0  0  0  0  0  0  0
   -4.0918    0.8384   -1.3238 H   0  0  0  0  0  0  0  0  0  0  0  0
   -8.2945    1.2277   -0.5804 H   0  0  0  0  0  0  0  0  0  0  0  0
   -6.0671   -1.8939    1.3395 H   0  0  0  0  0  0  0  0  0  0  0  0
   -4.4621    3.0963   -1.6731 H   0  0  0  0  0  0  0  0  0  0  0  0
   -4.8486    2.1808   -3.1833 H   0  0  0  0  0  0  0  0  0  0  0  0
   -5.5372    3.7847   -2.8928 H   0  0  0  0  0  0  0  0  0  0  0  0
  -10.1198    0.0718    0.5645 H   0  0  0  0  0  0  0  0  0  0  0  0
   -9.4974   -0.9515   -0.7838 H   0  0  0  0  0  0  0  0  0  0  0  0
  -10.2808   -1.6924    0.6118 H   0  0  0  0  0  0  0  0  0  0  0  0
    5.0533    0.3361   -1.8035 H   0  0  0  0  0  0  0  0  0  0  0  0
    2.3459   -2.7807   -3.0655 H   0  0  0  0  0  0  0  0  0  0  0  0
    5.3273   -2.9673   -5.0991 H   0  0  0  0  0  0  0  0  0  0  0  0
    5.5763   -3.9718   -3.6302 H   0  0  0  0  0  0  0  0  0  0  0  0
    4.0020   -4.0004   -4.4793 H   0  0  0  0  0  0  0  0  0  0  0  0
  1  2  2  0  0  0  0
  1 11  1  0  0  0  0
  2  3  1  0  0  0  0
  2 34  1  0  0  0  0
  3  4  2  0  0  0  0
  4  5  1  0  0  0  0
  4  7  1  0  0  0  0
  5  6  2  0  0  0  0
  6  1  1  0  0  0  0
  7  8  2  0  0  0  0
  7 35  1  0  0  0  0
  8  9  1  0  0  0  0
  8 36  1  0  0  0  0
  9 10  2  0  0  0  0
  9 12  1  0  0  0  0
 10  5  1  0  0  0  0
 10 37  1  0  0  0  0
 11 29  1  0  0  0  0
 12 13  1  0  0  0  0
 12 14  1  0  0  0  0
 13 15  1  0  0  0  0
 13 38  1  0  0  0  0
 13 39  1  0  0  0  0
 14 20  2  0  0  0  0
 15 16  1  0  0  0  0
 15 40  1  0  0  0  0
 15 41  1  0  0  0  0
 16 17  1  0  0  0  0
 16 42  1  0  0  0  0
 17 18  1  0  0  0  0
 17 19  1  0  0  0  0
 17 43  1  0  0  0  0
 18 44  1  0  0  0  0
 18 45  1  0  0  0  0
 18 46  1  0  0  0  0
 19 47  1  0  0  0  0
 19 48  1  0  0  0  0
 19 49  1  0  0  0  0
 20 21  1  0  0  0  0
 20 50  1  0  0  0  0
 21 22  2  0  0  0  0
 21 26  1  0  0  0  0
 22 23  1  0  0  0  0
 22 51  1  0  0  0  0
 23 24  2  0  0  0  0
 23 25  1  0  0  0  0
 24 14  1  0  0  0  0
 24 52  1  0  0  0  0
 25 28  1  0  0  0  0
 26 27  1  0  0  0  0
 27 53  1  0  0  0  0
 27 54  1  0  0  0  0
 27 55  1  0  0  0  0
 28 56  1  0  0  0  0
 28 57  1  0  0  0  0
 28 58  1  0  0  0  0
 29 30  2  0  0  0  0
 29 59  1  0  0  0  0
 30 31  1  0  0  0  0
 31 32  1  0  0  0  0
 31 33  1  0  0  0  0
 32 11  2  0  0  0  0
 32 60  1  0  0  0  0
 33 61  1  0  0  0  0
 33 62  1  0  0  0  0
 33 63  1  0  0  0  0
M  END
>  <Mol_ID>
4090

>  <Formula>
C25H30N6O2

>  <MolWeight>
446.5447

>  <Cat>
S8401

>  <Name>
Erdafitinib (JNJ-42756493)

>  <Synonyms>
N/A

>  <Target>
Apoptosis related,c-Kit,c-RET,CSF-1R,FGFR,PDGFR,VEGFR

>  <Form>
free base

>  <CAS>
1346242-81-6

>  <URL>
http://selleckchem.com/products/jnj-42756493-erdafitinib.html

$$$$
