JNJ-42165279
 OpenBabel08302521283D

 45 48  0  0  0  0  0  0  0  0999 V2000
   10.8094   -2.8181    0.4730 F   0  0  0  0  0  0  0  0  0  0  0  0
    9.9868   -4.5694   -0.5472 F   0  0  0  0  0  0  0  0  0  0  0  0
    8.5699   -3.1434    0.5028 O   0  0  0  0  0  0  0  0  0  0  0  0
   -0.0725   -2.0056    5.6929 O   0  0  0  0  0  0  0  0  0  0  0  0
   10.0920   -4.5714    1.7201 O   0  0  0  0  0  0  0  0  0  0  0  0
    4.7241   -3.2937    5.1491 N   0  0  0  0  0  0  0  0  0  0  0  0
    1.8579   -2.6509    4.6723 N   0  0  0  0  0  0  0  0  0  0  0  0
   -0.2158   -2.9817    3.6189 N   0  0  0  0  0  0  0  0  0  0  0  0
   -3.3737   -3.0647    1.6865 N   0  0  0  0  0  0  0  0  0  0  0  0
    3.8527   -4.0547    4.2332 C   0  0  0  0  0  0  0  0  0  0  0  0
    3.8987   -2.5686    6.1425 C   0  0  0  0  0  0  0  0  0  0  0  0
    2.6742   -3.2652    3.6225 C   0  0  0  0  0  0  0  0  0  0  0  0
    2.6390   -1.8468    5.6187 C   0  0  0  0  0  0  0  0  0  0  0  0
    5.6636   -2.4054    4.4579 C   0  0  0  0  0  0  0  0  0  0  0  0
    6.7796   -3.1295    3.7178 C   0  0  0  0  0  0  0  0  0  0  0  0
    0.4720   -2.5287    4.7222 C   0  0  0  0  0  0  0  0  0  0  0  0
    7.0228   -2.8491    2.3622 C   0  0  0  0  0  0  0  0  0  0  0  0
    7.6620   -3.9984    4.4072 C   0  0  0  0  0  0  0  0  0  0  0  0
    8.1542   -3.3814    1.7773 C   0  0  0  0  0  0  0  0  0  0  0  0
    9.0199   -4.1999    2.4667 C   0  0  0  0  0  0  0  0  0  0  0  0
    8.7854   -4.5473    3.7820 C   0  0  0  0  0  0  0  0  0  0  0  0
   -1.5755   -2.7287    3.3038 C   0  0  0  0  0  0  0  0  0  0  0  0
    9.8545   -3.7813    0.5463 C   0  0  0  0  0  0  0  0  0  0  0  0
   -2.4147   -1.8924    4.0375 C   0  0  0  0  0  0  0  0  0  0  0  0
   -2.1187   -3.2941    2.1488 C   0  0  0  0  0  0  0  0  0  0  0  0
   -3.7114   -1.6330    3.5912 C   0  0  0  0  0  0  0  0  0  0  0  0
   -4.1387   -2.2278    2.4173 C   0  0  0  0  0  0  0  0  0  0  0  0
    0.2765   -3.5582    2.9607 H   0  0  0  0  0  0  0  0  0  0  0  0
    4.4364   -4.5200    3.4315 H   0  0  0  0  0  0  0  0  0  0  0  0
    3.4317   -4.8891    4.8103 H   0  0  0  0  0  0  0  0  0  0  0  0
    3.5722   -3.3068    6.8854 H   0  0  0  0  0  0  0  0  0  0  0  0
    4.5108   -1.8492    6.7023 H   0  0  0  0  0  0  0  0  0  0  0  0
    3.0350   -2.4575    2.9746 H   0  0  0  0  0  0  0  0  0  0  0  0
    2.0912   -3.9480    3.0036 H   0  0  0  0  0  0  0  0  0  0  0  0
    2.9222   -0.9294    5.0876 H   0  0  0  0  0  0  0  0  0  0  0  0
    2.0292   -1.5402    6.4757 H   0  0  0  0  0  0  0  0  0  0  0  0
    6.1800   -1.7736    5.1941 H   0  0  0  0  0  0  0  0  0  0  0  0
    5.1412   -1.7168    3.7838 H   0  0  0  0  0  0  0  0  0  0  0  0
    6.3704   -2.1941    1.7945 H   0  0  0  0  0  0  0  0  0  0  0  0
    7.4792   -4.2226    5.4602 H   0  0  0  0  0  0  0  0  0  0  0  0
    9.4700   -5.1961    4.3177 H   0  0  0  0  0  0  0  0  0  0  0  0
   -2.0893   -1.4076    4.9514 H   0  0  0  0  0  0  0  0  0  0  0  0
   -1.5418   -3.9688    1.5231 H   0  0  0  0  0  0  0  0  0  0  0  0
   -4.3639   -0.9677    4.1462 H   0  0  0  0  0  0  0  0  0  0  0  0
   -5.1327   -2.0361    2.0227 H   0  0  0  0  0  0  0  0  0  0  0  0
  1 23  1  0  0  0  0
  2 23  1  0  0  0  0
  3 19  1  0  0  0  0
  3 23  1  0  0  0  0
  4 16  2  0  0  0  0
  5 20  1  0  0  0  0
  5 23  1  0  0  0  0
  6 10  1  0  0  0  0
  6 11  1  0  0  0  0
  6 14  1  0  0  0  0
  7 12  1  0  0  0  0
  7 13  1  0  0  0  0
  7 16  1  0  0  0  0
  8 16  1  0  0  0  0
  8 22  1  0  0  0  0
  8 28  1  0  0  0  0
  9 25  2  0  0  0  0
  9 27  1  0  0  0  0
 10 12  1  0  0  0  0
 10 29  1  0  0  0  0
 10 30  1  0  0  0  0
 11 13  1  0  0  0  0
 11 31  1  0  0  0  0
 11 32  1  0  0  0  0
 12 33  1  0  0  0  0
 12 34  1  0  0  0  0
 13 35  1  0  0  0  0
 13 36  1  0  0  0  0
 14 15  1  0  0  0  0
 14 37  1  0  0  0  0
 14 38  1  0  0  0  0
 15 17  1  0  0  0  0
 15 18  2  0  0  0  0
 17 19  2  0  0  0  0
 17 39  1  0  0  0  0
 18 21  1  0  0  0  0
 18 40  1  0  0  0  0
 19 20  1  0  0  0  0
 20 21  2  0  0  0  0
 21 41  1  0  0  0  0
 22 24  2  0  0  0  0
 22 25  1  0  0  0  0
 24 26  1  0  0  0  0
 24 42  1  0  0  0  0
 25 43  1  0  0  0  0
 26 27  2  0  0  0  0
 26 44  1  0  0  0  0
 27 45  1  0  0  0  0
M  END
>  <Mol_ID>
5388

>  <Formula>
C18H17ClF2N4O3

>  <MolWeight>
410.8023864

>  <Cat>
S0497

>  <Name>
JNJ-42165279

>  <Synonyms>
JNJ-5279

>  <Target>
FAAH

>  <Form>
Free Base

>  <CAS>
1346528-50-4

>  <URL>
https://www.selleckchem.com/products/jnj-42165279.html

$$$$
