JNJ-67856633
 OpenBabel08302521313D

 44 47  0  0  0  0  0  0  0  0999 V2000
   -0.3082   -1.5436   -0.6536 N   0  0  0  0  0  0  0  0  0  0  0  0
   -1.6067   -1.4387   -1.0585 N   0  0  0  0  0  0  0  0  0  0  0  0
   -1.9402   -0.1641   -0.9593 C   0  0  0  0  0  0  0  0  0  0  0  0
   -0.8673    0.6351   -0.5740 C   0  0  0  0  0  0  0  0  0  0  0  0
    0.2181   -0.2539   -0.4932 C   0  0  0  0  0  0  0  0  0  0  0  0
   -0.8108    2.0756   -0.3623 C   0  0  0  0  0  0  0  0  0  0  0  0
    0.2617    2.6637   -0.4115 O   0  0  0  0  0  0  0  0  0  0  0  0
   -2.0212    2.6734   -0.0336 N   0  0  0  0  0  0  0  0  0  0  0  0
   -1.3513    6.3271    0.3113 C   0  0  0  0  0  0  0  0  0  0  0  0
   -1.2379    5.0086   -0.1436 C   0  0  0  0  0  0  0  0  0  0  0  0
   -2.1740    4.0479    0.2477 C   0  0  0  0  0  0  0  0  0  0  0  0
   -3.2685    4.4602    1.0105 C   0  0  0  0  0  0  0  0  0  0  0  0
   -3.3317    5.7968    1.3856 C   0  0  0  0  0  0  0  0  0  0  0  0
   -2.4056    6.7177    1.0704 N   0  0  0  0  0  0  0  0  0  0  0  0
   -0.2083    7.2962    0.0284 C   0  0  0  0  0  0  0  0  0  0  0  0
    0.7620    6.7758   -0.7865 F   0  0  0  0  0  0  0  0  0  0  0  0
   -0.6147    8.4406   -0.5859 F   0  0  0  0  0  0  0  0  0  0  0  0
    0.4442    7.6804    1.1608 F   0  0  0  0  0  0  0  0  0  0  0  0
    1.6239    0.1760   -0.2599 C   0  0  0  0  0  0  0  0  0  0  0  0
    2.5737   -0.7758   -0.3045 F   0  0  0  0  0  0  0  0  0  0  0  0
    2.0187    1.0762   -1.1943 F   0  0  0  0  0  0  0  0  0  0  0  0
    1.7386    0.7635    0.9561 F   0  0  0  0  0  0  0  0  0  0  0  0
   -0.7045   -6.5615    0.1382 C   0  0  0  0  0  0  0  0  0  0  0  0
   -1.9300   -6.5586   -0.4694 N   0  0  0  0  0  0  0  0  0  0  0  0
   -2.4730   -5.4602   -1.0693 C   0  0  0  0  0  0  0  0  0  0  0  0
   -1.8430   -4.2866   -1.1012 C   0  0  0  0  0  0  0  0  0  0  0  0
   -0.5522   -4.0860   -0.4026 C   0  0  0  0  0  0  0  0  0  0  0  0
    0.1588   -2.8612   -0.2809 C   0  0  0  0  0  0  0  0  0  0  0  0
    1.3675   -2.9321    0.4375 C   0  0  0  0  0  0  0  0  0  0  0  0
    1.6530   -3.9633    1.3216 C   0  0  0  0  0  0  0  0  0  0  0  0
    1.0642   -5.1836    1.0996 C   0  0  0  0  0  0  0  0  0  0  0  0
   -0.0144   -5.2504    0.2271 C   0  0  0  0  0  0  0  0  0  0  0  0
   -0.2291   -7.5878    0.6201 O   0  0  0  0  0  0  0  0  0  0  0  0
   -2.9537    0.1264   -1.2009 H   0  0  0  0  0  0  0  0  0  0  0  0
   -2.7868    2.0715    0.2348 H   0  0  0  0  0  0  0  0  0  0  0  0
   -0.4003    4.7505   -0.7868 H   0  0  0  0  0  0  0  0  0  0  0  0
   -4.0359    3.7734    1.3429 H   0  0  0  0  0  0  0  0  0  0  0  0
   -4.1602    6.1623    1.9952 H   0  0  0  0  0  0  0  0  0  0  0  0
   -2.4196   -7.4443   -0.4654 H   0  0  0  0  0  0  0  0  0  0  0  0
   -3.4444   -5.6007   -1.5278 H   0  0  0  0  0  0  0  0  0  0  0  0
   -2.3119   -3.4701   -1.6222 H   0  0  0  0  0  0  0  0  0  0  0  0
    2.2619   -2.5794   -0.0708 H   0  0  0  0  0  0  0  0  0  0  0  0
    2.3099   -3.8042    2.1697 H   0  0  0  0  0  0  0  0  0  0  0  0
    1.3975   -6.0578    1.6526 H   0  0  0  0  0  0  0  0  0  0  0  0
  1  2  1  0  0  0  0
  1  5  1  0  0  0  0
  1 28  1  0  0  0  0
  2  3  2  0  0  0  0
  3  4  1  0  0  0  0
  3 34  1  0  0  0  0
  4  5  2  0  0  0  0
  4  6  1  0  0  0  0
  5 19  1  0  0  0  0
  6  7  2  0  0  0  0
  6  8  1  0  0  0  0
  8 11  1  0  0  0  0
  8 35  1  0  0  0  0
  9 10  2  0  0  0  0
  9 14  1  0  0  0  0
  9 15  1  0  0  0  0
 10 11  1  0  0  0  0
 10 36  1  0  0  0  0
 11 12  2  0  0  0  0
 12 13  1  0  0  0  0
 12 37  1  0  0  0  0
 13 14  2  0  0  0  0
 13 38  1  0  0  0  0
 15 16  1  0  0  0  0
 15 17  1  0  0  0  0
 15 18  1  0  0  0  0
 19 20  1  0  0  0  0
 19 21  1  0  0  0  0
 19 22  1  0  0  0  0
 23 24  1  0  0  0  0
 23 32  1  0  0  0  0
 23 33  2  0  0  0  0
 24 25  1  0  0  0  0
 24 39  1  0  0  0  0
 25 26  2  0  0  0  0
 25 40  1  0  0  0  0
 26 27  1  0  0  0  0
 26 41  1  0  0  0  0
 27 28  1  0  0  0  0
 27 32  2  0  0  0  0
 28 29  2  0  0  0  0
 29 30  1  0  0  0  0
 29 42  1  0  0  0  0
 30 31  2  0  0  0  0
 30 43  1  0  0  0  0
 31 32  1  0  0  0  0
 31 44  1  0  0  0  0
M  END
>  <Mol_ID>
6039

>  <Formula>
C20H11F6N5O2

>  <MolWeight>
467.3240592

>  <Cat>
S9896

>  <Name>
JNJ-67856633

>  <Synonyms>
JNJ-6633

>  <Target>
MALT

>  <Form>
Free Base

>  <CAS>
2230273-76-2

>  <URL>
http://www.selleckchem.com/products/jnj-67856633.html

$$$$
