JNJ1661010.cdx
 OpenBabel08302521453D

 45 48  0  0  0  0  0  0  0  0999 V2000
   -1.4016    0.1363    0.3253 N   0  0  0  0  0  0  0  0  0  0  0  0
   -0.7806   -1.1773    0.1228 C   0  0  0  0  0  0  0  0  0  0  0  0
    0.6822   -1.1526    0.6132 C   0  0  0  0  0  0  0  0  0  0  0  0
    1.4295   -0.0493   -0.0124 N   0  0  0  0  0  0  0  0  0  0  0  0
    0.7913    1.2638    0.1856 C   0  0  0  0  0  0  0  0  0  0  0  0
   -0.6857    1.2720   -0.2630 C   0  0  0  0  0  0  0  0  0  0  0  0
    2.5559   -0.1081   -0.8218 C   0  0  0  0  0  0  0  0  0  0  0  0
   -2.5898    0.2365    0.9808 C   0  0  0  0  0  0  0  0  0  0  0  0
    2.9569    0.9088   -1.3814 O   0  0  0  0  0  0  0  0  0  0  0  0
    3.1493   -1.3415   -0.9533 N   0  0  0  0  0  0  0  0  0  0  0  0
    4.2599   -1.6748   -1.7665 C   0  0  0  0  0  0  0  0  0  0  0  0
    4.9766   -0.7482   -2.5271 C   0  0  0  0  0  0  0  0  0  0  0  0
    6.0106   -1.1602   -3.3729 C   0  0  0  0  0  0  0  0  0  0  0  0
    6.3503   -2.5060   -3.4586 C   0  0  0  0  0  0  0  0  0  0  0  0
    5.6754   -3.4371   -2.6739 C   0  0  0  0  0  0  0  0  0  0  0  0
    4.6408   -3.0235   -1.8273 C   0  0  0  0  0  0  0  0  0  0  0  0
   -3.1533   -0.7499    1.6470 N   0  0  0  0  0  0  0  0  0  0  0  0
   -4.3341   -0.3150    2.2564 C   0  0  0  0  0  0  0  0  0  0  0  0
   -4.7254    0.9458    2.0427 N   0  0  0  0  0  0  0  0  0  0  0  0
   -3.5760    1.6591    1.0842 S   0  0  0  0  0  0  0  0  0  0  0  0
   -5.0768   -1.2145    3.1473 C   0  0  0  0  0  0  0  0  0  0  0  0
   -4.6193   -2.5192    3.3871 C   0  0  0  0  0  0  0  0  0  0  0  0
   -5.2815   -3.3517    4.2944 C   0  0  0  0  0  0  0  0  0  0  0  0
   -6.4120   -2.8920    4.9672 C   0  0  0  0  0  0  0  0  0  0  0  0
   -6.8926   -1.6080    4.7219 C   0  0  0  0  0  0  0  0  0  0  0  0
   -6.2314   -0.7758    3.8152 C   0  0  0  0  0  0  0  0  0  0  0  0
   -1.3152   -1.9851    0.6362 H   0  0  0  0  0  0  0  0  0  0  0  0
   -0.8026   -1.4107   -0.9492 H   0  0  0  0  0  0  0  0  0  0  0  0
    0.7042   -0.9739    1.6952 H   0  0  0  0  0  0  0  0  0  0  0  0
    1.1337   -2.1283    0.4326 H   0  0  0  0  0  0  0  0  0  0  0  0
    0.8543    1.4801    1.2584 H   0  0  0  0  0  0  0  0  0  0  0  0
    1.3254    2.0632   -0.3355 H   0  0  0  0  0  0  0  0  0  0  0  0
   -0.7438    1.1991   -1.3555 H   0  0  0  0  0  0  0  0  0  0  0  0
   -1.1107    2.2403    0.0202 H   0  0  0  0  0  0  0  0  0  0  0  0
    2.7682   -2.1049   -0.4248 H   0  0  0  0  0  0  0  0  0  0  0  0
    4.7590    0.3137   -2.4912 H   0  0  0  0  0  0  0  0  0  0  0  0
    6.5401   -0.4212   -3.9687 H   0  0  0  0  0  0  0  0  0  0  0  0
    7.1396   -2.8238   -4.1347 H   0  0  0  0  0  0  0  0  0  0  0  0
    5.9487   -4.4877   -2.7294 H   0  0  0  0  0  0  0  0  0  0  0  0
    4.1296   -3.7762   -1.2331 H   0  0  0  0  0  0  0  0  0  0  0  0
   -3.7326   -2.8920    2.8788 H   0  0  0  0  0  0  0  0  0  0  0  0
   -4.9075   -4.3547    4.4830 H   0  0  0  0  0  0  0  0  0  0  0  0
   -6.9174   -3.5330    5.6850 H   0  0  0  0  0  0  0  0  0  0  0  0
   -7.7756   -1.2464    5.2426 H   0  0  0  0  0  0  0  0  0  0  0  0
   -6.6177    0.2276    3.6461 H   0  0  0  0  0  0  0  0  0  0  0  0
  1  2  1  0  0  0  0
  1  8  1  0  0  0  0
  2  3  1  0  0  0  0
  2 27  1  0  0  0  0
  2 28  1  0  0  0  0
  3  4  1  0  0  0  0
  3 29  1  0  0  0  0
  3 30  1  0  0  0  0
  4  5  1  0  0  0  0
  4  7  1  0  0  0  0
  5  6  1  0  0  0  0
  5 31  1  0  0  0  0
  5 32  1  0  0  0  0
  6  1  1  0  0  0  0
  6 33  1  0  0  0  0
  6 34  1  0  0  0  0
  7  9  2  0  0  0  0
  7 10  1  0  0  0  0
  8 17  2  0  0  0  0
 10 11  1  0  0  0  0
 10 35  1  0  0  0  0
 11 12  2  0  0  0  0
 12 13  1  0  0  0  0
 12 36  1  0  0  0  0
 13 14  2  0  0  0  0
 13 37  1  0  0  0  0
 14 15  1  0  0  0  0
 14 38  1  0  0  0  0
 15 16  2  0  0  0  0
 15 39  1  0  0  0  0
 16 11  1  0  0  0  0
 16 40  1  0  0  0  0
 17 18  1  0  0  0  0
 18 19  2  0  0  0  0
 18 21  1  0  0  0  0
 19 20  1  0  0  0  0
 20  8  1  0  0  0  0
 21 22  2  0  0  0  0
 22 23  1  0  0  0  0
 22 41  1  0  0  0  0
 23 24  2  0  0  0  0
 23 42  1  0  0  0  0
 24 25  1  0  0  0  0
 24 43  1  0  0  0  0
 25 26  2  0  0  0  0
 25 44  1  0  0  0  0
 26 21  1  0  0  0  0
 26 45  1  0  0  0  0
M  END
>  <Mol_ID>
963

>  <Formula>
C19H19N5OS

>  <MolWeight>
365.45206

>  <Cat>
S2828

>  <Name>
JNJ-1661010

>  <Synonyms>
Takeda-25

>  <Target>
FAAH

>  <Form>
Free Base

>  <CAS>
681136-29-8

>  <URL>
http://selleckchem.com/products/jnj-1661010.html

$$$$
