JNJ7777120.cdx
 OpenBabel08302522003D

 35 37  0  0  0  0  0  0  0  0999 V2000
   -6.1882    2.0848    5.1286 C   0  0  0  0  0  0  0  0  0  0  0  0
   -5.6995    0.8749    5.6156 C   0  0  0  0  0  0  0  0  0  0  0  0
   -5.0344   -0.0294    4.7806 C   0  0  0  0  0  0  0  0  0  0  0  0
   -4.8712    0.3316    3.4374 C   0  0  0  0  0  0  0  0  0  0  0  0
   -5.3406    1.5435    2.9308 C   0  0  0  0  0  0  0  0  0  0  0  0
   -6.0150    2.4312    3.7848 C   0  0  0  0  0  0  0  0  0  0  0  0
   -4.2667   -0.3339    2.3963 N   0  0  0  0  0  0  0  0  0  0  0  0
   -4.3929    0.3769    1.2217 C   0  0  0  0  0  0  0  0  0  0  0  0
   -4.9844    1.5824    1.5596 C   0  0  0  0  0  0  0  0  0  0  0  0
   -3.9099   -0.1083   -0.0539 C   0  0  0  0  0  0  0  0  0  0  0  0
   -4.6243    0.2818   -1.1944 N   0  0  0  0  0  0  0  0  0  0  0  0
   -2.9185   -0.8324   -0.1235 O   0  0  0  0  0  0  0  0  0  0  0  0
   -4.0644   -0.1065   -2.4904 C   0  0  0  0  0  0  0  0  0  0  0  0
   -4.7238    0.6340   -3.6737 C   0  0  0  0  0  0  0  0  0  0  0  0
   -6.2024    0.6351   -3.6733 N   0  0  0  0  0  0  0  0  0  0  0  0
   -6.6834    1.0981   -2.3587 C   0  0  0  0  0  0  0  0  0  0  0  0
   -6.0930    0.3356   -1.1620 C   0  0  0  0  0  0  0  0  0  0  0  0
   -6.7482   -0.6782   -4.0103 C   0  0  0  0  0  0  0  0  0  0  0  0
   -6.7052    2.7704    5.7948 H   0  0  0  0  0  0  0  0  0  0  0  0
   -5.8363    0.6296    6.6677 H   0  0  0  0  0  0  0  0  0  0  0  0
   -4.6578   -0.9708    5.1665 H   0  0  0  0  0  0  0  0  0  0  0  0
   -6.3990    3.3741    3.4071 H   0  0  0  0  0  0  0  0  0  0  0  0
   -3.8227   -1.2409    2.4617 H   0  0  0  0  0  0  0  0  0  0  0  0
   -5.1773    2.3976    0.8735 H   0  0  0  0  0  0  0  0  0  0  0  0
   -2.9871    0.0986   -2.4899 H   0  0  0  0  0  0  0  0  0  0  0  0
   -4.1896   -1.1906   -2.5977 H   0  0  0  0  0  0  0  0  0  0  0  0
   -4.3961    1.6820   -3.6502 H   0  0  0  0  0  0  0  0  0  0  0  0
   -4.3480    0.2300   -4.6217 H   0  0  0  0  0  0  0  0  0  0  0  0
   -6.4249    2.1606   -2.2581 H   0  0  0  0  0  0  0  0  0  0  0  0
   -7.7786    1.0540   -2.3170 H   0  0  0  0  0  0  0  0  0  0  0  0
   -6.4488   -0.7015   -1.1430 H   0  0  0  0  0  0  0  0  0  0  0  0
   -6.4666    0.7945   -0.2479 H   0  0  0  0  0  0  0  0  0  0  0  0
   -6.4507   -1.4662   -3.3116 H   0  0  0  0  0  0  0  0  0  0  0  0
   -7.8433   -0.6400   -4.0295 H   0  0  0  0  0  0  0  0  0  0  0  0
   -6.4278   -0.9764   -5.0144 H   0  0  0  0  0  0  0  0  0  0  0  0
  1  2  2  0  0  0  0
  1 19  1  0  0  0  0
  2  3  1  0  0  0  0
  2 20  1  0  0  0  0
  3  4  2  0  0  0  0
  3 21  1  0  0  0  0
  4  5  1  0  0  0  0
  4  7  1  0  0  0  0
  5  6  2  0  0  0  0
  6  1  1  0  0  0  0
  6 22  1  0  0  0  0
  7  8  1  0  0  0  0
  7 23  1  0  0  0  0
  8  9  2  0  0  0  0
  8 10  1  0  0  0  0
  9  5  1  0  0  0  0
  9 24  1  0  0  0  0
 10 11  1  0  0  0  0
 10 12  2  0  0  0  0
 11 13  1  0  0  0  0
 13 14  1  0  0  0  0
 13 25  1  0  0  0  0
 13 26  1  0  0  0  0
 14 15  1  0  0  0  0
 14 27  1  0  0  0  0
 14 28  1  0  0  0  0
 15 16  1  0  0  0  0
 15 18  1  0  0  0  0
 16 17  1  0  0  0  0
 16 29  1  0  0  0  0
 16 30  1  0  0  0  0
 17 11  1  0  0  0  0
 17 31  1  0  0  0  0
 17 32  1  0  0  0  0
 18 33  1  0  0  0  0
 18 34  1  0  0  0  0
 18 35  1  0  0  0  0
M  END
>  <Mol_ID>
1075

>  <Formula>
C14H16ClN3O

>  <MolWeight>
277.74934

>  <Cat>
S2905

>  <Name>
JNJ-7777120

>  <Synonyms>
N/A

>  <Target>
Histamine Receptor

>  <Form>
free base

>  <CAS>
459168-41-3

>  <URL>
http://selleckchem.com/products/jnj-7777120.html

$$$$
