JNJ 303
 OpenBabel08302521313D

 58 61  0  0  0  0  0  0  0  0999 V2000
   -1.3247    0.8428    1.0063 S   0  0  0  0  0  0  0  0  0  0  0  0
   -1.6921    1.1589    2.3680 O   0  0  0  0  0  0  0  0  0  0  0  0
   -1.4484   -0.5074    0.4992 O   0  0  0  0  0  0  0  0  0  0  0  0
    5.0783    1.4416    2.4827 O   0  0  0  0  0  0  0  0  0  0  0  0
    5.8186    1.3145    5.7386 O   0  0  0  0  0  0  0  0  0  0  0  0
    0.2677    1.2374    0.7531 N   0  0  0  0  0  0  0  0  0  0  0  0
    3.6130    2.5978    3.8161 N   0  0  0  0  0  0  0  0  0  0  0  0
    0.9994    2.4352    1.2011 C   0  0  3  0  0  0  0  0  0  0  0  0
    3.3779    3.3217    1.3614 C   0  0  1  0  0  0  0  0  0  0  0  0
    1.6870    3.9709    3.1026 C   0  0  2  0  0  0  0  0  0  0  0  0
    1.4977    4.8773    0.7524 C   0  0  3  0  0  0  0  0  0  0  0  0
    3.1866    3.6324    2.8644 C   0  0  3  0  0  0  0  0  0  0  0  0
    2.4975    2.1320    0.9609 C   0  0  0  0  0  0  0  0  0  0  0  0
    0.7959    2.7727    2.6919 C   0  0  0  0  0  0  0  0  0  0  0  0
    0.6259    3.6701    0.3585 C   0  0  0  0  0  0  0  0  0  0  0  0
    2.9719    4.5395    0.5141 C   0  0  0  0  0  0  0  0  0  0  0  0
    1.2978    5.1916    2.2439 C   0  0  0  0  0  0  0  0  0  0  0  0
    4.5553    1.6122    3.5831 C   0  0  0  0  0  0  0  0  0  0  0  0
   -2.2160    1.9112   -0.1057 C   0  0  0  0  0  0  0  0  0  0  0  0
    4.9309    0.6986    4.7947 C   0  0  0  0  0  0  0  0  0  0  0  0
    3.6401    0.3591    5.5804 C   0  0  0  0  0  0  0  0  0  0  0  0
    5.4615   -0.6641    4.3051 C   0  0  0  0  0  0  0  0  0  0  0  0
    7.0809    1.7260    5.4011 C   0  0  0  0  0  0  0  0  0  0  0  0
    7.6763    1.6757    4.1440 C   0  0  0  0  0  0  0  0  0  0  0  0
    7.8296    2.2459    6.4620 C   0  0  0  0  0  0  0  0  0  0  0  0
    8.9868    2.1335    3.9374 C   0  0  0  0  0  0  0  0  0  0  0  0
    9.1396    2.7069    6.2630 C   0  0  0  0  0  0  0  0  0  0  0  0
    9.7177    2.6509    4.9995 C   0  0  0  0  0  0  0  0  0  0  0  0
    0.8251    0.4048    0.5502 H   0  0  0  0  0  0  0  0  0  0  0  0
    3.3852    2.7833    4.7848 H   0  0  0  0  0  0  0  0  0  0  0  0
    4.4289    3.1177    1.1319 H   0  0  0  0  0  0  0  0  0  0  0  0
    1.5111    4.2054    4.1597 H   0  0  0  0  0  0  0  0  0  0  0  0
    1.2161    5.7465    0.1475 H   0  0  0  0  0  0  0  0  0  0  0  0
    3.7893    4.5134    3.1267 H   0  0  0  0  0  0  0  0  0  0  0  0
    2.7792    1.2255    1.5123 H   0  0  0  0  0  0  0  0  0  0  0  0
    2.6643    1.8978   -0.1012 H   0  0  0  0  0  0  0  0  0  0  0  0
   -0.2462    3.0491    2.8866 H   0  0  0  0  0  0  0  0  0  0  0  0
    1.0106    1.9007    3.3218 H   0  0  0  0  0  0  0  0  0  0  0  0
   -0.4213    3.9436    0.5130 H   0  0  0  0  0  0  0  0  0  0  0  0
    0.7417    3.4534   -0.7111 H   0  0  0  0  0  0  0  0  0  0  0  0
    3.6037    5.3999    0.7664 H   0  0  0  0  0  0  0  0  0  0  0  0
    3.1402    4.3232   -0.5479 H   0  0  0  0  0  0  0  0  0  0  0  0
    1.9078    6.0583    2.5279 H   0  0  0  0  0  0  0  0  0  0  0  0
    0.2521    5.4664    2.4296 H   0  0  0  0  0  0  0  0  0  0  0  0
   -3.2367    1.5302   -0.1826 H   0  0  0  0  0  0  0  0  0  0  0  0
   -2.2447    2.9172    0.3103 H   0  0  0  0  0  0  0  0  0  0  0  0
   -1.7385    1.8889   -1.0852 H   0  0  0  0  0  0  0  0  0  0  0  0
    2.8674   -0.0494    4.9175 H   0  0  0  0  0  0  0  0  0  0  0  0
    3.8421   -0.3771    6.3672 H   0  0  0  0  0  0  0  0  0  0  0  0
    3.2234    1.2301    6.0961 H   0  0  0  0  0  0  0  0  0  0  0  0
    4.7465   -1.1363    3.6210 H   0  0  0  0  0  0  0  0  0  0  0  0
    6.4095   -0.6005    3.7691 H   0  0  0  0  0  0  0  0  0  0  0  0
    5.6375   -1.3414    5.1487 H   0  0  0  0  0  0  0  0  0  0  0  0
    7.1805    1.2814    3.2682 H   0  0  0  0  0  0  0  0  0  0  0  0
    7.3991    2.2942    7.4574 H   0  0  0  0  0  0  0  0  0  0  0  0
    9.4234    2.0763    2.9441 H   0  0  0  0  0  0  0  0  0  0  0  0
    9.7101    3.1039    7.0993 H   0  0  0  0  0  0  0  0  0  0  0  0
   10.7283    3.0013    4.8372 H   0  0  0  0  0  0  0  0  0  0  0  0
  1  2  2  0  0  0  0
  1  3  2  0  0  0  0
  1  6  1  0  0  0  0
  1 19  1  0  0  0  0
  4 18  2  0  0  0  0
  5 20  1  0  0  0  0
  5 23  1  0  0  0  0
  6  8  1  0  0  0  0
  6 29  1  0  0  0  0
  7 12  1  0  0  0  0
  7 18  1  0  0  0  0
  7 30  1  0  0  0  0
  8 13  1  0  0  0  0
  8 14  1  0  0  0  0
  8 15  1  0  0  0  0
  9 12  1  0  0  0  0
  9 13  1  0  0  0  0
  9 16  1  0  0  0  0
  9 31  1  6  0  0  0
 10 12  1  0  0  0  0
 10 14  1  0  0  0  0
 10 17  1  0  0  0  0
 10 32  1  1  0  0  0
 11 15  1  0  0  0  0
 11 16  1  0  0  0  0
 11 17  1  0  0  0  0
 11 33  1  0  0  0  0
 12 34  1  0  0  0  0
 13 35  1  0  0  0  0
 13 36  1  0  0  0  0
 14 37  1  0  0  0  0
 14 38  1  0  0  0  0
 15 39  1  0  0  0  0
 15 40  1  0  0  0  0
 16 41  1  0  0  0  0
 16 42  1  0  0  0  0
 17 43  1  0  0  0  0
 17 44  1  0  0  0  0
 18 20  1  0  0  0  0
 19 45  1  0  0  0  0
 19 46  1  0  0  0  0
 19 47  1  0  0  0  0
 20 21  1  0  0  0  0
 20 22  1  0  0  0  0
 21 48  1  0  0  0  0
 21 49  1  0  0  0  0
 21 50  1  0  0  0  0
 22 51  1  0  0  0  0
 22 52  1  0  0  0  0
 22 53  1  0  0  0  0
 23 24  2  0  0  0  0
 23 25  1  0  0  0  0
 24 26  1  0  0  0  0
 24 54  1  0  0  0  0
 25 27  2  0  0  0  0
 25 55  1  0  0  0  0
 26 28  2  0  0  0  0
 26 56  1  0  0  0  0
 27 28  1  0  0  0  0
 27 57  1  0  0  0  0
 28 58  1  0  0  0  0
M  END
>  <Mol_ID>
5838

>  <Formula>
C21H29ClN2O4S

>  <MolWeight>
440.98396

>  <Cat>
S0087

>  <Name>
JNJ 303

>  <Synonyms>
N/A

>  <Target>
Potassium Channel

>  <Form>
Free Base

>  <CAS>
878489-28-2

>  <URL>
http://www.selleckchem.com/products/jnj-303.html

$$$$
