JNJ 63533054
 OpenBabel08302520403D

 39 40  0  0  0  0  0  0  0  0999 V2000
    3.5015   -3.5748   -0.1940 C   0  0  0  0  0  0  0  0  0  0  0  0
    2.8083   -4.8747   -0.4159 C   0  0  0  0  0  0  0  0  0  0  0  0
    1.4131   -4.9786   -0.3579 C   0  0  0  0  0  0  0  0  0  0  0  0
    0.7903   -6.2184   -0.5339 C   0  0  0  0  0  0  0  0  0  0  0  0
    1.5616   -7.3565   -0.7661 C   0  0  0  0  0  0  0  0  0  0  0  0
    2.9529   -7.2608   -0.8152 C   0  0  0  0  0  0  0  0  0  0  0  0
    3.5763   -6.0233   -0.6331 C   0  0  0  0  0  0  0  0  0  0  0  0
    4.6268   -3.5308    0.2923 O   0  0  0  0  0  0  0  0  0  0  0  0
    2.8086   -2.4490   -0.5812 N   0  0  0  0  0  0  0  0  0  0  0  0
    3.3779   -1.1283   -0.4102 C   0  0  0  0  0  0  0  0  0  0  0  0
    4.1763   -0.7218   -1.6471 C   0  0  0  0  0  0  0  0  0  0  0  0
    5.5249   -0.9742   -1.5434 N   0  0  0  0  0  0  0  0  0  0  0  0
    6.4576   -0.7207   -2.6293 C   0  0  1  0  0  0  0  0  0  0  0  0
    7.5584    0.2315   -2.1576 C   0  0  0  0  0  0  0  0  0  0  0  0
    7.0270   -2.0238   -3.1620 C   0  0  0  0  0  0  0  0  0  0  0  0
    6.8527   -2.3681   -4.5117 C   0  0  0  0  0  0  0  0  0  0  0  0
    7.3745   -3.5620   -5.0171 C   0  0  0  0  0  0  0  0  0  0  0  0
    8.0740   -4.4282   -4.1802 C   0  0  0  0  0  0  0  0  0  0  0  0
    8.2511   -4.1044   -2.8375 C   0  0  0  0  0  0  0  0  0  0  0  0
    7.7329   -2.9109   -2.3317 C   0  0  0  0  0  0  0  0  0  0  0  0
    3.6327   -0.2696   -2.6517 O   0  0  0  0  0  0  0  0  0  0  0  0
    0.7949   -4.1093   -0.1454 H   0  0  0  0  0  0  0  0  0  0  0  0
   -0.2935   -6.2986   -0.4821 H   0  0  0  0  0  0  0  0  0  0  0  0
    1.0784   -8.3218   -0.8997 H   0  0  0  0  0  0  0  0  0  0  0  0
    3.5524   -8.1511   -0.9886 H   0  0  0  0  0  0  0  0  0  0  0  0
    4.6625   -5.9577   -0.6632 H   0  0  0  0  0  0  0  0  0  0  0  0
    2.0611   -2.5460   -1.2574 H   0  0  0  0  0  0  0  0  0  0  0  0
    2.5564   -0.4183   -0.2761 H   0  0  0  0  0  0  0  0  0  0  0  0
    4.0090   -1.0948    0.4841 H   0  0  0  0  0  0  0  0  0  0  0  0
    5.8183   -1.5976   -0.7970 H   0  0  0  0  0  0  0  0  0  0  0  0
    5.9183   -0.2115   -3.4375 H   0  0  0  0  0  0  0  0  0  0  0  0
    8.1751   -0.2100   -1.3668 H   0  0  0  0  0  0  0  0  0  0  0  0
    8.2213    0.5071   -2.9852 H   0  0  0  0  0  0  0  0  0  0  0  0
    7.1236    1.1525   -1.7520 H   0  0  0  0  0  0  0  0  0  0  0  0
    6.3041   -1.7086   -5.1815 H   0  0  0  0  0  0  0  0  0  0  0  0
    7.2334   -3.8150   -6.0643 H   0  0  0  0  0  0  0  0  0  0  0  0
    8.4776   -5.3572   -4.5739 H   0  0  0  0  0  0  0  0  0  0  0  0
    8.7915   -4.7816   -2.1807 H   0  0  0  0  0  0  0  0  0  0  0  0
    7.8821   -2.6827   -1.2790 H   0  0  0  0  0  0  0  0  0  0  0  0
  1  2  1  0  0  0  0
  1  8  2  0  0  0  0
  1  9  1  0  0  0  0
  2  3  2  0  0  0  0
  2  7  1  0  0  0  0
  3  4  1  0  0  0  0
  3 22  1  0  0  0  0
  4  5  2  0  0  0  0
  4 23  1  0  0  0  0
  5  6  1  0  0  0  0
  5 24  1  0  0  0  0
  6  7  2  0  0  0  0
  6 25  1  0  0  0  0
  7 26  1  0  0  0  0
  9 10  1  0  0  0  0
  9 27  1  0  0  0  0
 10 11  1  0  0  0  0
 10 28  1  0  0  0  0
 10 29  1  0  0  0  0
 11 12  1  0  0  0  0
 11 21  2  0  0  0  0
 12 13  1  0  0  0  0
 12 30  1  0  0  0  0
 13 14  1  0  0  0  0
 13 15  1  0  0  0  0
 13 31  1  6  0  0  0
 14 32  1  0  0  0  0
 14 33  1  0  0  0  0
 14 34  1  0  0  0  0
 15 16  2  0  0  0  0
 15 20  1  0  0  0  0
 16 17  1  0  0  0  0
 16 35  1  0  0  0  0
 17 18  2  0  0  0  0
 17 36  1  0  0  0  0
 18 19  1  0  0  0  0
 18 37  1  0  0  0  0
 19 20  2  0  0  0  0
 19 38  1  0  0  0  0
 20 39  1  0  0  0  0
M  END
>  <Mol_ID>
3745

>  <Formula>
C17H17ClN2O2

>  <MolWeight>
316.78208

>  <Cat>
S6425

>  <Name>
JNJ 63533054

>  <Synonyms>
N/A

>  <Target>
GPR

>  <Form>
Free Base

>  <CAS>
1802326-66-4

>  <URL>
http://www.selleck.cn/products/jnj-63533054.html

$$$$
