JNK-IN-7
 OpenBabel08302521353D

 64 67  0  0  0  0  0  0  0  0999 V2000
    1.2295   -6.3892    5.6890 N   0  0  0  0  0  0  0  0  0  0  0  0
   -1.9515   -4.5096    1.4080 N   0  0  0  0  0  0  0  0  0  0  0  0
   -2.9753   -5.1809    0.7587 C   0  0  0  0  0  0  0  0  0  0  0  0
   -3.3607   -6.3186    1.0220 O   0  0  0  0  0  0  0  0  0  0  0  0
   -4.6296   -1.0773   -1.5892 N   0  0  0  0  0  0  0  0  0  0  0  0
   -3.8026   -0.1458   -0.9919 C   0  0  0  0  0  0  0  0  0  0  0  0
   -4.2787    1.2500   -1.1528 C   0  0  0  0  0  0  0  0  0  0  0  0
   -2.7637   -0.3889   -0.3918 O   0  0  0  0  0  0  0  0  0  0  0  0
   -3.5383    2.2456   -0.6316 C   0  0  0  0  0  0  0  0  0  0  0  0
   -3.8606    3.7069   -0.6956 C   0  0  0  0  0  0  0  0  0  0  0  0
   -2.7962    4.4664   -1.3657 N   0  0  0  0  0  0  0  0  0  0  0  0
   -2.6828    4.1120   -2.7820 C   0  0  0  0  0  0  0  0  0  0  0  0
   -3.0372    5.9040   -1.2292 C   0  0  0  0  0  0  0  0  0  0  0  0
    4.6303   -6.0933    4.5804 C   0  0  0  0  0  0  0  0  0  0  0  0
    3.2885   -6.1699    4.5638 N   0  0  0  0  0  0  0  0  0  0  0  0
    5.3277   -6.1004    5.7680 C   0  0  0  0  0  0  0  0  0  0  0  0
    2.6251   -6.3122    5.7196 C   0  0  0  0  0  0  0  0  0  0  0  0
    4.5724   -6.2468    6.9080 C   0  0  0  0  0  0  0  0  0  0  0  0
    3.2356   -6.4014    6.9064 N   0  0  0  0  0  0  0  0  0  0  0  0
    5.2548   -5.9836    3.2542 C   0  0  0  0  0  0  0  0  0  0  0  0
    6.5286   -6.4877    2.9583 C   0  0  0  0  0  0  0  0  0  0  0  0
    4.5784   -5.3787    2.1897 C   0  0  0  0  0  0  0  0  0  0  0  0
    7.0646   -6.3480    1.6773 C   0  0  0  0  0  0  0  0  0  0  0  0
    5.0770   -5.2149    0.9379 N   0  0  0  0  0  0  0  0  0  0  0  0
    6.3103   -5.7035    0.7126 C   0  0  0  0  0  0  0  0  0  0  0  0
    0.4038   -5.9189    4.6564 C   0  0  0  0  0  0  0  0  0  0  0  0
   -0.7473   -6.6117    4.2862 C   0  0  0  0  0  0  0  0  0  0  0  0
    0.6922   -4.7218    3.9847 C   0  0  0  0  0  0  0  0  0  0  0  0
   -1.5460   -6.1547    3.2278 C   0  0  0  0  0  0  0  0  0  0  0  0
   -0.1091   -4.2583    2.9339 C   0  0  0  0  0  0  0  0  0  0  0  0
   -1.2205   -4.9920    2.5216 C   0  0  0  0  0  0  0  0  0  0  0  0
   -3.6569   -4.4831   -0.3686 C   0  0  0  0  0  0  0  0  0  0  0  0
   -3.7005   -3.0895   -0.4875 C   0  0  0  0  0  0  0  0  0  0  0  0
   -4.3851   -5.2704   -1.2709 C   0  0  0  0  0  0  0  0  0  0  0  0
   -4.4941   -2.4809   -1.4709 C   0  0  0  0  0  0  0  0  0  0  0  0
   -5.1722   -4.6759   -2.2535 C   0  0  0  0  0  0  0  0  0  0  0  0
   -5.2397   -3.2848   -2.3425 C   0  0  0  0  0  0  0  0  0  0  0  0
    0.9379   -7.2341    6.1562 H   0  0  0  0  0  0  0  0  0  0  0  0
   -1.6211   -3.6397    1.0066 H   0  0  0  0  0  0  0  0  0  0  0  0
   -5.3665   -0.7445   -2.1970 H   0  0  0  0  0  0  0  0  0  0  0  0
   -5.2045    1.4471   -1.6773 H   0  0  0  0  0  0  0  0  0  0  0  0
   -2.6104    2.0085   -0.1102 H   0  0  0  0  0  0  0  0  0  0  0  0
   -4.8342    3.8815   -1.1712 H   0  0  0  0  0  0  0  0  0  0  0  0
   -3.9490    4.0530    0.3433 H   0  0  0  0  0  0  0  0  0  0  0  0
   -3.6208    4.2760   -3.3239 H   0  0  0  0  0  0  0  0  0  0  0  0
   -1.8966    4.7029   -3.2651 H   0  0  0  0  0  0  0  0  0  0  0  0
   -2.3881    3.0643   -2.9063 H   0  0  0  0  0  0  0  0  0  0  0  0
   -4.0044    6.2019   -1.6498 H   0  0  0  0  0  0  0  0  0  0  0  0
   -3.0106    6.2006   -0.1748 H   0  0  0  0  0  0  0  0  0  0  0  0
   -2.2520    6.4789   -1.7335 H   0  0  0  0  0  0  0  0  0  0  0  0
    6.4006   -5.9806    5.8197 H   0  0  0  0  0  0  0  0  0  0  0  0
    5.0351   -6.2340    7.8910 H   0  0  0  0  0  0  0  0  0  0  0  0
    7.1080   -7.0165    3.7105 H   0  0  0  0  0  0  0  0  0  0  0  0
    3.5704   -4.9875    2.3196 H   0  0  0  0  0  0  0  0  0  0  0  0
    8.0468   -6.7387    1.4369 H   0  0  0  0  0  0  0  0  0  0  0  0
    6.6858   -5.5648   -0.2968 H   0  0  0  0  0  0  0  0  0  0  0  0
   -1.0323   -7.5300    4.7927 H   0  0  0  0  0  0  0  0  0  0  0  0
    1.5588   -4.1332    4.2772 H   0  0  0  0  0  0  0  0  0  0  0  0
   -2.4234   -6.7433    2.9810 H   0  0  0  0  0  0  0  0  0  0  0  0
    0.1696   -3.3295    2.4447 H   0  0  0  0  0  0  0  0  0  0  0  0
   -3.1766   -2.4800    0.2384 H   0  0  0  0  0  0  0  0  0  0  0  0
   -4.3623   -6.3559   -1.1867 H   0  0  0  0  0  0  0  0  0  0  0  0
   -5.7476   -5.3012   -2.9316 H   0  0  0  0  0  0  0  0  0  0  0  0
   -5.8833   -2.8456   -3.0997 H   0  0  0  0  0  0  0  0  0  0  0  0
  1 17  1  0  0  0  0
  1 26  1  0  0  0  0
  1 38  1  0  0  0  0
  2  3  1  0  0  0  0
  2 31  1  0  0  0  0
  2 39  1  0  0  0  0
  3  4  2  0  0  0  0
  3 32  1  0  0  0  0
  5  6  1  0  0  0  0
  5 35  1  0  0  0  0
  5 40  1  0  0  0  0
  6  7  1  0  0  0  0
  6  8  2  0  0  0  0
  7  9  2  3  0  0  0
  7 41  1  0  0  0  0
  9 10  1  0  0  0  0
  9 42  1  0  0  0  0
 10 11  1  0  0  0  0
 10 43  1  0  0  0  0
 10 44  1  0  0  0  0
 11 12  1  0  0  0  0
 11 13  1  0  0  0  0
 12 45  1  0  0  0  0
 12 46  1  0  0  0  0
 12 47  1  0  0  0  0
 13 48  1  0  0  0  0
 13 49  1  0  0  0  0
 13 50  1  0  0  0  0
 14 15  2  0  0  0  0
 14 16  1  0  0  0  0
 14 20  1  0  0  0  0
 15 17  1  0  0  0  0
 16 18  2  0  0  0  0
 16 51  1  0  0  0  0
 17 19  2  0  0  0  0
 18 19  1  0  0  0  0
 18 52  1  0  0  0  0
 20 21  2  0  0  0  0
 20 22  1  0  0  0  0
 21 23  1  0  0  0  0
 21 53  1  0  0  0  0
 22 24  2  0  0  0  0
 22 54  1  0  0  0  0
 23 25  2  0  0  0  0
 23 55  1  0  0  0  0
 24 25  1  0  0  0  0
 25 56  1  0  0  0  0
 26 27  2  0  0  0  0
 26 28  1  0  0  0  0
 27 29  1  0  0  0  0
 27 57  1  0  0  0  0
 28 30  2  0  0  0  0
 28 58  1  0  0  0  0
 29 31  2  0  0  0  0
 29 59  1  0  0  0  0
 30 31  1  0  0  0  0
 30 60  1  0  0  0  0
 32 33  2  0  0  0  0
 32 34  1  0  0  0  0
 33 35  1  0  0  0  0
 33 61  1  0  0  0  0
 34 36  2  0  0  0  0
 34 62  1  0  0  0  0
 35 37  2  0  0  0  0
 36 37  1  0  0  0  0
 36 63  1  0  0  0  0
 37 64  1  0  0  0  0
M  END
>  <Mol_ID>
6920

>  <Formula>
C28H27N7O2

>  <MolWeight>
493.55968

>  <Cat>
E2653

>  <Name>
JNK-IN-7

>  <Target>
ATF/CREB & c-Fos/c-Jun,JNK

>  <Form>
Free base

>  <CAS>
1408064-71-0

>  <URL>
https://www.selleckchem.com/products/jnk-in-7.html

$$$$
