JT010
 OpenBabel08302521353D

 42 43  0  0  0  0  0  0  0  0999 V2000
    0.9524    0.1213    0.0882 C   0  0  0  0  0  0  0  0  0  0  0  0
    0.0565   -0.5534    1.1083 C   0  0  0  0  0  0  0  0  0  0  0  0
    0.4153    0.6156   -0.9118 O   0  0  0  0  0  0  0  0  0  0  0  0
    2.3386    0.1951    0.2781 N   0  0  0  0  0  0  0  0  0  0  0  0
    3.1103    0.8548   -0.7891 C   0  0  0  0  0  0  0  0  0  0  0  0
    3.1120    2.3858   -0.8176 C   0  0  0  0  0  0  0  0  0  0  0  0
    3.7887    3.0791    0.3587 C   0  0  0  0  0  0  0  0  0  0  0  0
    3.7921    4.4848    0.0787 O   0  0  0  0  0  0  0  0  0  0  0  0
    4.4990    5.2429    1.0511 C   0  0  0  0  0  0  0  0  0  0  0  0
    4.5729   -0.2355    1.7086 S   0  0  0  0  0  0  0  0  0  0  0  0
    2.9417   -0.5706    1.2865 C   0  0  0  0  0  0  0  0  0  0  0  0
    2.3921   -1.5410    1.9804 N   0  0  0  0  0  0  0  0  0  0  0  0
    3.3028   -2.1001    2.8642 C   0  0  0  0  0  0  0  0  0  0  0  0
    4.5423   -1.4964    2.8605 C   0  0  0  0  0  0  0  0  0  0  0  0
    2.9342   -3.1898    3.7627 C   0  0  0  0  0  0  0  0  0  0  0  0
    3.8828   -4.1014    4.2456 C   0  0  0  0  0  0  0  0  0  0  0  0
    3.5245   -5.0933    5.1728 C   0  0  0  0  0  0  0  0  0  0  0  0
    2.2052   -5.1934    5.6146 C   0  0  0  0  0  0  0  0  0  0  0  0
    1.2475   -4.3130    5.1022 C   0  0  0  0  0  0  0  0  0  0  0  0
    1.6059   -3.3234    4.1862 C   0  0  0  0  0  0  0  0  0  0  0  0
    1.7295   -6.0951    6.5245 O   0  0  0  0  0  0  0  0  0  0  0  0
    2.6797   -6.9740    7.1186 C   0  0  0  0  0  0  0  0  0  0  0  0
   -0.9580   -0.1498    1.0111 H   0  0  0  0  0  0  0  0  0  0  0  0
    0.0160   -1.6283    0.9120 H   0  0  0  0  0  0  0  0  0  0  0  0
    0.3640   -0.3494    2.1363 H   0  0  0  0  0  0  0  0  0  0  0  0
    4.1384    0.4799   -0.8152 H   0  0  0  0  0  0  0  0  0  0  0  0
    2.6801    0.5177   -1.7428 H   0  0  0  0  0  0  0  0  0  0  0  0
    3.6416    2.6953   -1.7302 H   0  0  0  0  0  0  0  0  0  0  0  0
    2.0942    2.7759   -0.9332 H   0  0  0  0  0  0  0  0  0  0  0  0
    3.2242    2.9077    1.2817 H   0  0  0  0  0  0  0  0  0  0  0  0
    4.8182    2.7315    0.4837 H   0  0  0  0  0  0  0  0  0  0  0  0
    4.2717    4.9031    2.0661 H   0  0  0  0  0  0  0  0  0  0  0  0
    5.5753    5.1818    0.8652 H   0  0  0  0  0  0  0  0  0  0  0  0
    4.1925    6.2889    0.9575 H   0  0  0  0  0  0  0  0  0  0  0  0
    5.4075   -1.7084    3.4721 H   0  0  0  0  0  0  0  0  0  0  0  0
    4.9144   -4.0648    3.9086 H   0  0  0  0  0  0  0  0  0  0  0  0
    4.2977   -5.7670    5.5193 H   0  0  0  0  0  0  0  0  0  0  0  0
    0.2153   -4.3898    5.4364 H   0  0  0  0  0  0  0  0  0  0  0  0
    0.8419   -2.6458    3.8141 H   0  0  0  0  0  0  0  0  0  0  0  0
    3.1517   -7.6089    6.3625 H   0  0  0  0  0  0  0  0  0  0  0  0
    3.4287   -6.4194    7.6930 H   0  0  0  0  0  0  0  0  0  0  0  0
    2.1419   -7.6262    7.8147 H   0  0  0  0  0  0  0  0  0  0  0  0
  1  2  1  0  0  0  0
  1  3  2  0  0  0  0
  1  4  1  0  0  0  0
  2 23  1  0  0  0  0
  2 24  1  0  0  0  0
  2 25  1  0  0  0  0
  4  5  1  0  0  0  0
  4 11  1  0  0  0  0
  5  6  1  0  0  0  0
  5 26  1  0  0  0  0
  5 27  1  0  0  0  0
  6  7  1  0  0  0  0
  6 28  1  0  0  0  0
  6 29  1  0  0  0  0
  7  8  1  0  0  0  0
  7 30  1  0  0  0  0
  7 31  1  0  0  0  0
  8  9  1  0  0  0  0
  9 32  1  0  0  0  0
  9 33  1  0  0  0  0
  9 34  1  0  0  0  0
 10 11  1  0  0  0  0
 10 14  1  0  0  0  0
 11 12  2  0  0  0  0
 12 13  1  0  0  0  0
 13 14  2  0  0  0  0
 13 15  1  0  0  0  0
 14 35  1  0  0  0  0
 15 16  2  0  0  0  0
 15 20  1  0  0  0  0
 16 17  1  0  0  0  0
 16 36  1  0  0  0  0
 17 18  2  0  0  0  0
 17 37  1  0  0  0  0
 18 19  1  0  0  0  0
 18 21  1  0  0  0  0
 19 20  2  0  0  0  0
 19 38  1  0  0  0  0
 20 39  1  0  0  0  0
 21 22  1  0  0  0  0
 22 40  1  0  0  0  0
 22 41  1  0  0  0  0
 22 42  1  0  0  0  0
M  END
>  <Mol_ID>
6856

>  <Formula>
C16H19ClN2O3S

>  <MolWeight>
354.85166

>  <Cat>
E2515

>  <Name>
JT010

>  <Target>
TRP Channel

>  <Form>
Free base

>  <CAS>
917562-33-5

>  <URL>
http://www.selleckchem.com/products/jt010.html

$$$$
