JTE-013.cdx
 OpenBabel08302520003D

 46 48  0  0  0  0  0  0  0  0999 V2000
    0.8694    0.0939   -1.6960 N   0  0  0  0  0  0  0  0  0  0  0  0
    0.2278    1.1002   -0.9405 N   0  0  0  0  0  0  0  0  0  0  0  0
    2.2037   -0.1564   -1.9187 C   0  0  0  0  0  0  0  0  0  0  0  0
    2.4525   -1.1765   -2.5811 O   0  0  0  0  0  0  0  0  0  0  0  0
    3.1756    0.6872   -1.4175 N   0  0  0  0  0  0  0  0  0  0  0  0
   -3.1962    0.0972   -1.8624 C   0  0  0  0  0  0  0  0  0  0  0  0
   -4.0231    0.7073   -0.9099 C   0  0  0  0  0  0  0  0  0  0  0  0
   -3.4004    1.5079    0.0799 C   0  0  0  0  0  0  0  0  0  0  0  0
   -1.9877    1.6565   -0.0409 C   0  0  0  0  0  0  0  0  0  0  0  0
   -1.2411    0.9561   -1.0095 C   0  0  0  0  0  0  0  0  0  0  0  0
   -1.8341    0.1638   -1.9460 N   0  0  0  0  0  0  0  0  0  0  0  0
   -5.3448   -0.5533   -2.2898 N   0  0  0  0  0  0  0  0  0  0  0  0
   -4.0654   -0.5795   -2.6920 N   0  0  0  0  0  0  0  0  0  0  0  0
   -5.3529    0.2716   -1.2417 C   0  0  0  0  0  0  0  0  0  0  0  0
   -4.1383    1.9771    1.3249 C   0  0  0  0  0  0  0  0  0  0  0  0
   -3.7386    1.0688    2.4911 C   0  0  0  0  0  0  0  0  0  0  0  0
   -4.0451    3.4581    1.6790 C   0  0  0  0  0  0  0  0  0  0  0  0
   -6.7030    0.5904   -0.7024 C   0  0  0  0  0  0  0  0  0  0  0  0
   -3.8135   -1.2050   -3.9665 C   0  0  0  0  0  0  0  0  0  0  0  0
    6.4959   -0.6806   -2.5524 C   0  0  0  0  0  0  0  0  0  0  0  0
    5.1441   -0.3545   -2.5832 C   0  0  0  0  0  0  0  0  0  0  0  0
    4.5906    0.4338   -1.5656 C   0  0  0  0  0  0  0  0  0  0  0  0
    5.4842    0.9517   -0.6218 C   0  0  0  0  0  0  0  0  0  0  0  0
    6.8258    0.5484   -0.6610 C   0  0  0  0  0  0  0  0  0  0  0  0
    7.3415   -0.2597   -1.5946 N   0  0  0  0  0  0  0  0  0  0  0  0
    0.2513   -0.6525   -2.0114 H   0  0  0  0  0  0  0  0  0  0  0  0
    0.4181    2.0311   -1.3197 H   0  0  0  0  0  0  0  0  0  0  0  0
    2.8817    1.2904   -0.6648 H   0  0  0  0  0  0  0  0  0  0  0  0
   -1.4538    2.2461    0.7010 H   0  0  0  0  0  0  0  0  0  0  0  0
   -5.2042    1.8114    1.1833 H   0  0  0  0  0  0  0  0  0  0  0  0
   -2.6692    1.1409    2.7106 H   0  0  0  0  0  0  0  0  0  0  0  0
   -4.2958    1.3189    3.3981 H   0  0  0  0  0  0  0  0  0  0  0  0
   -3.9583    0.0224    2.2457 H   0  0  0  0  0  0  0  0  0  0  0  0
   -4.5587    4.0684    0.9275 H   0  0  0  0  0  0  0  0  0  0  0  0
   -4.5432    3.6488    2.6374 H   0  0  0  0  0  0  0  0  0  0  0  0
   -3.0138    3.8139    1.7595 H   0  0  0  0  0  0  0  0  0  0  0  0
   -7.2365    1.2329   -1.4130 H   0  0  0  0  0  0  0  0  0  0  0  0
   -7.2933   -0.3273   -0.5863 H   0  0  0  0  0  0  0  0  0  0  0  0
   -6.7126    1.0902    0.2608 H   0  0  0  0  0  0  0  0  0  0  0  0
   -3.3447   -0.4820   -4.6280 H   0  0  0  0  0  0  0  0  0  0  0  0
   -3.2078   -2.0967   -3.8189 H   0  0  0  0  0  0  0  0  0  0  0  0
   -4.7812   -1.5025   -4.4075 H   0  0  0  0  0  0  0  0  0  0  0  0
    6.9390   -1.3176   -3.3169 H   0  0  0  0  0  0  0  0  0  0  0  0
    4.5491   -0.7348   -3.4084 H   0  0  0  0  0  0  0  0  0  0  0  0
    5.1651    1.6160    0.1733 H   0  0  0  0  0  0  0  0  0  0  0  0
    7.5294    0.8637    0.1082 H   0  0  0  0  0  0  0  0  0  0  0  0
  1  2  1  0  0  0  0
  1  3  1  0  0  0  0
  1 26  1  0  0  0  0
  2 10  1  0  0  0  0
  2 27  1  0  0  0  0
  3  4  2  0  0  0  0
  3  5  1  0  0  0  0
  5 22  1  0  0  0  0
  5 28  1  0  0  0  0
  6  7  1  0  0  0  0
  6 11  2  0  0  0  0
  6 13  1  0  0  0  0
  7  8  2  0  0  0  0
  7 14  1  0  0  0  0
  8  9  1  0  0  0  0
  8 15  1  0  0  0  0
  9 10  2  0  0  0  0
  9 29  1  0  0  0  0
 10 11  1  0  0  0  0
 12 13  1  0  0  0  0
 12 14  2  0  0  0  0
 13 19  1  0  0  0  0
 14 18  1  0  0  0  0
 15 16  1  0  0  0  0
 15 17  1  0  0  0  0
 15 30  1  0  0  0  0
 16 31  1  0  0  0  0
 16 32  1  0  0  0  0
 16 33  1  0  0  0  0
 17 34  1  0  0  0  0
 17 35  1  0  0  0  0
 17 36  1  0  0  0  0
 18 37  1  0  0  0  0
 18 38  1  0  0  0  0
 18 39  1  0  0  0  0
 19 40  1  0  0  0  0
 19 41  1  0  0  0  0
 19 42  1  0  0  0  0
 20 21  2  0  0  0  0
 20 25  1  0  0  0  0
 20 43  1  0  0  0  0
 21 22  1  0  0  0  0
 21 44  1  0  0  0  0
 22 23  2  0  0  0  0
 23 24  1  0  0  0  0
 23 45  1  0  0  0  0
 24 25  2  0  0  0  0
 24 46  1  0  0  0  0
M  END
>  <Mol_ID>
2728

>  <Formula>
C17H19Cl2N7O

>  <MolWeight>
408.28506

>  <Cat>
S7182

>  <Name>
JTE 013

>  <Synonyms>
N/A

>  <Target>
S1P Receptor

>  <Form>
free base

>  <CAS>
383150-41-2

>  <URL>
http://selleckchem.com/products/jte-013.html

$$$$
