JW55
 OpenBabel08302521233D

 58 61  0  0  0  0  0  0  0  0999 V2000
    7.7072    6.5814    6.2333 O   0  0  0  0  0  0  0  0  0  0  0  0
    6.7597    6.8494    5.2818 C   0  0  0  0  0  0  0  0  0  0  0  0
    5.9563    7.8913    5.7079 C   0  0  0  0  0  0  0  0  0  0  0  0
    6.4453    8.2950    6.9706 C   0  0  0  0  0  0  0  0  0  0  0  0
    7.5063    7.4669    7.2466 C   0  0  0  0  0  0  0  0  0  0  0  0
    6.7006    6.0930    4.0454 C   0  0  0  0  0  0  0  0  0  0  0  0
    5.8297    6.3352    3.2118 O   0  0  0  0  0  0  0  0  0  0  0  0
    7.6514    5.0810    3.9195 N   0  0  0  0  0  0  0  0  0  0  0  0
    7.7465    4.1983    2.8171 C   0  0  0  0  0  0  0  0  0  0  0  0
    7.1754    4.4850    1.5725 C   0  0  0  0  0  0  0  0  0  0  0  0
    7.1230    3.5222    0.5596 C   0  0  0  0  0  0  0  0  0  0  0  0
    7.6532    2.2500    0.7763 C   0  0  0  0  0  0  0  0  0  0  0  0
    8.3499    2.0003    1.9664 C   0  0  0  0  0  0  0  0  0  0  0  0
    8.4030    2.9741    2.9805 C   0  0  0  0  0  0  0  0  0  0  0  0
    7.4542    1.1467   -0.2142 C   0  0  0  0  0  0  0  0  0  0  0  0
    8.2854    0.2552   -0.3259 O   0  0  0  0  0  0  0  0  0  0  0  0
    6.2636    1.1823   -0.9171 N   0  0  0  0  0  0  0  0  0  0  0  0
    5.8281    0.1322   -1.8359 C   0  0  0  0  0  0  0  0  0  0  0  0
    7.8247    0.8883   -5.1200 C   0  0  0  0  0  0  0  0  0  0  0  0
    7.5672    0.4343   -3.6852 C   0  0  0  0  0  0  0  0  0  0  0  0
    6.0470    0.4376   -3.3531 C   0  0  0  0  0  0  0  0  0  0  0  0
    5.5595    1.8822   -3.6852 C   0  0  0  0  0  0  0  0  0  0  0  0
    5.9180    2.2928   -5.1120 C   0  0  0  0  0  0  0  0  0  0  0  0
    7.3259    2.2109   -5.3200 O   0  0  0  0  0  0  0  0  0  0  0  0
    5.2733   -0.6486   -4.1599 C   0  0  0  0  0  0  0  0  0  0  0  0
    3.9527   -0.4444   -4.6021 C   0  0  0  0  0  0  0  0  0  0  0  0
    3.2801   -1.3864   -5.3962 C   0  0  0  0  0  0  0  0  0  0  0  0
    3.8973   -2.5808   -5.7474 C   0  0  0  0  0  0  0  0  0  0  0  0
    5.1838   -2.8290   -5.2760 C   0  0  0  0  0  0  0  0  0  0  0  0
    5.8573   -1.8865   -4.4848 C   0  0  0  0  0  0  0  0  0  0  0  0
    3.3574   -3.5709   -6.5199 O   0  0  0  0  0  0  0  0  0  0  0  0
    2.0526   -3.3414   -7.0393 C   0  0  0  0  0  0  0  0  0  0  0  0
    5.1235    8.3028    5.1548 H   0  0  0  0  0  0  0  0  0  0  0  0
    6.0686    9.0931    7.5967 H   0  0  0  0  0  0  0  0  0  0  0  0
    8.1870    7.3875    8.0846 H   0  0  0  0  0  0  0  0  0  0  0  0
    8.1886    4.8743    4.7542 H   0  0  0  0  0  0  0  0  0  0  0  0
    6.7497    5.4614    1.3584 H   0  0  0  0  0  0  0  0  0  0  0  0
    6.6574    3.7871   -0.3852 H   0  0  0  0  0  0  0  0  0  0  0  0
    8.8152    1.0292    2.1265 H   0  0  0  0  0  0  0  0  0  0  0  0
    8.9097    2.7307    3.9113 H   0  0  0  0  0  0  0  0  0  0  0  0
    5.5719    1.8739   -0.6585 H   0  0  0  0  0  0  0  0  0  0  0  0
    6.3153   -0.8099   -1.5575 H   0  0  0  0  0  0  0  0  0  0  0  0
    4.7557    0.0066   -1.6372 H   0  0  0  0  0  0  0  0  0  0  0  0
    8.9022    0.9104   -5.3111 H   0  0  0  0  0  0  0  0  0  0  0  0
    7.3794    0.2147   -5.8606 H   0  0  0  0  0  0  0  0  0  0  0  0
    8.0783    1.1437   -3.0221 H   0  0  0  0  0  0  0  0  0  0  0  0
    8.0346   -0.5381   -3.5030 H   0  0  0  0  0  0  0  0  0  0  0  0
    4.4888    2.0151   -3.5022 H   0  0  0  0  0  0  0  0  0  0  0  0
    6.0650    2.5924   -3.0177 H   0  0  0  0  0  0  0  0  0  0  0  0
    5.4007    1.6913   -5.8668 H   0  0  0  0  0  0  0  0  0  0  0  0
    5.6242    3.3350   -5.2741 H   0  0  0  0  0  0  0  0  0  0  0  0
    3.4061    0.4614   -4.3573 H   0  0  0  0  0  0  0  0  0  0  0  0
    2.2747   -1.1461   -5.7258 H   0  0  0  0  0  0  0  0  0  0  0  0
    5.6765   -3.7649   -5.5314 H   0  0  0  0  0  0  0  0  0  0  0  0
    6.8554   -2.1511   -4.1459 H   0  0  0  0  0  0  0  0  0  0  0  0
    1.3247   -3.1940   -6.2346 H   0  0  0  0  0  0  0  0  0  0  0  0
    2.0498   -2.4949   -7.7344 H   0  0  0  0  0  0  0  0  0  0  0  0
    1.7503   -4.2329   -7.5974 H   0  0  0  0  0  0  0  0  0  0  0  0
  1  2  1  0  0  0  0
  1  5  1  0  0  0  0
  2  3  2  0  0  0  0
  2  6  1  0  0  0  0
  3  4  1  0  0  0  0
  3 33  1  0  0  0  0
  4  5  2  0  0  0  0
  4 34  1  0  0  0  0
  5 35  1  0  0  0  0
  6  7  2  0  0  0  0
  6  8  1  0  0  0  0
  8  9  1  0  0  0  0
  8 36  1  0  0  0  0
  9 10  2  0  0  0  0
  9 14  1  0  0  0  0
 10 11  1  0  0  0  0
 10 37  1  0  0  0  0
 11 12  2  0  0  0  0
 11 38  1  0  0  0  0
 12 13  1  0  0  0  0
 12 15  1  0  0  0  0
 13 14  2  0  0  0  0
 13 39  1  0  0  0  0
 14 40  1  0  0  0  0
 15 16  2  0  0  0  0
 15 17  1  0  0  0  0
 17 18  1  0  0  0  0
 17 41  1  0  0  0  0
 18 21  1  0  0  0  0
 18 42  1  0  0  0  0
 18 43  1  0  0  0  0
 19 20  1  0  0  0  0
 19 24  1  0  0  0  0
 19 44  1  0  0  0  0
 19 45  1  0  0  0  0
 20 21  1  0  0  0  0
 20 46  1  0  0  0  0
 20 47  1  0  0  0  0
 21 22  1  0  0  0  0
 21 25  1  0  0  0  0
 22 23  1  0  0  0  0
 22 48  1  0  0  0  0
 22 49  1  0  0  0  0
 23 24  1  0  0  0  0
 23 50  1  0  0  0  0
 23 51  1  0  0  0  0
 25 26  2  0  0  0  0
 25 30  1  0  0  0  0
 26 27  1  0  0  0  0
 26 52  1  0  0  0  0
 27 28  2  0  0  0  0
 27 53  1  0  0  0  0
 28 29  1  0  0  0  0
 28 31  1  0  0  0  0
 29 30  2  0  0  0  0
 29 54  1  0  0  0  0
 30 55  1  0  0  0  0
 31 32  1  0  0  0  0
 32 56  1  0  0  0  0
 32 57  1  0  0  0  0
 32 58  1  0  0  0  0
M  END
>  <Mol_ID>
4789

>  <Formula>
C25H26N2O5

>  <MolWeight>
434.48434

>  <Cat>
S6745

>  <Name>
JW55

>  <Synonyms>
N/A

>  <Target>
PARP,Wnt/beta-catenin

>  <Form>
Free Base

>  <CAS>
664993-53-7

>  <URL>
http://www.selleck.cn/products/jw55.html

$$$$
