JZL195
 OpenBabel08302520403D

 55 58  0  0  0  0  0  0  0  0999 V2000
   -1.3364   -0.0087    0.7852 N   0  0  0  0  0  0  0  0  0  0  0  0
   -0.8525   -1.2638    0.2103 C   0  0  0  0  0  0  0  0  0  0  0  0
    0.6820   -1.3758    0.2436 C   0  0  0  0  0  0  0  0  0  0  0  0
    1.4089   -0.2019   -0.2744 N   0  0  0  0  0  0  0  0  0  0  0  0
    0.9002    1.0281    0.3651 C   0  0  0  0  0  0  0  0  0  0  0  0
   -0.6313    1.2024    0.3903 C   0  0  0  0  0  0  0  0  0  0  0  0
   -2.5826    0.1075    1.3756 C   0  0  0  0  0  0  0  0  0  0  0  0
   -3.1247    1.1769    1.6330 O   0  0  0  0  0  0  0  0  0  0  0  0
   -3.1328   -1.1294    1.6951 O   0  0  0  0  0  0  0  0  0  0  0  0
    1.3870   -0.1155   -1.7383 C   0  0  0  0  0  0  0  0  0  0  0  0
    2.2525   -1.1588   -2.4218 C   0  0  0  0  0  0  0  0  0  0  0  0
    3.6073   -1.2851   -2.0756 C   0  0  0  0  0  0  0  0  0  0  0  0
    4.4759   -2.0477   -2.8626 C   0  0  0  0  0  0  0  0  0  0  0  0
    3.9699   -2.8143   -3.9122 C   0  0  0  0  0  0  0  0  0  0  0  0
    2.6090   -2.7590   -4.2178 C   0  0  0  0  0  0  0  0  0  0  0  0
    1.7595   -1.9177   -3.4913 C   0  0  0  0  0  0  0  0  0  0  0  0
    5.8384   -2.0886   -2.6613 O   0  0  0  0  0  0  0  0  0  0  0  0
    6.5030   -0.9158   -2.3606 C   0  0  0  0  0  0  0  0  0  0  0  0
    7.6986   -1.0512   -1.6527 C   0  0  0  0  0  0  0  0  0  0  0  0
    8.4167    0.0825   -1.2640 C   0  0  0  0  0  0  0  0  0  0  0  0
    7.9420    1.3548   -1.5832 C   0  0  0  0  0  0  0  0  0  0  0  0
    6.7738    1.4936   -2.3284 C   0  0  0  0  0  0  0  0  0  0  0  0
    6.0732    0.3605   -2.7428 C   0  0  0  0  0  0  0  0  0  0  0  0
   -3.6476   -1.3337    2.9899 C   0  0  0  0  0  0  0  0  0  0  0  0
   -3.3855   -0.4736    4.0609 C   0  0  0  0  0  0  0  0  0  0  0  0
   -3.8003   -0.8194    5.3457 C   0  0  0  0  0  0  0  0  0  0  0  0
   -4.4697   -2.0321    5.5533 C   0  0  0  0  0  0  0  0  0  0  0  0
   -4.7391   -2.8933    4.4792 C   0  0  0  0  0  0  0  0  0  0  0  0
   -4.3264   -2.5387    3.1926 C   0  0  0  0  0  0  0  0  0  0  0  0
   -4.8679   -2.4088    6.9174 N   0  3  0  0  0  0  0  0  0  0  0  0
   -4.5912   -1.6274    7.8368 O   0  0  0  0  0  0  0  0  0  0  0  0
   -5.4519   -3.4927    7.0632 O   0  5  0  0  0  0  0  0  0  0  0  0
   -1.2791   -2.1211    0.7401 H   0  0  0  0  0  0  0  0  0  0  0  0
   -1.2246   -1.3038   -0.8199 H   0  0  0  0  0  0  0  0  0  0  0  0
    0.9918   -1.5156    1.2874 H   0  0  0  0  0  0  0  0  0  0  0  0
    0.9893   -2.2913   -0.2749 H   0  0  0  0  0  0  0  0  0  0  0  0
    1.2575    1.0197    1.4032 H   0  0  0  0  0  0  0  0  0  0  0  0
    1.3576    1.9169   -0.0878 H   0  0  0  0  0  0  0  0  0  0  0  0
   -1.0074    1.4910   -0.5973 H   0  0  0  0  0  0  0  0  0  0  0  0
   -0.8828    2.0117    1.0868 H   0  0  0  0  0  0  0  0  0  0  0  0
    0.3643   -0.1412   -2.1322 H   0  0  0  0  0  0  0  0  0  0  0  0
    1.8081    0.8499   -2.0512 H   0  0  0  0  0  0  0  0  0  0  0  0
    3.9921   -0.7290   -1.2239 H   0  0  0  0  0  0  0  0  0  0  0  0
    4.6353   -3.4300   -4.5044 H   0  0  0  0  0  0  0  0  0  0  0  0
    2.2175   -3.3456   -5.0426 H   0  0  0  0  0  0  0  0  0  0  0  0
    0.7150   -1.8456   -3.7831 H   0  0  0  0  0  0  0  0  0  0  0  0
    8.0683   -2.0397   -1.3937 H   0  0  0  0  0  0  0  0  0  0  0  0
    9.3422   -0.0257   -0.7044 H   0  0  0  0  0  0  0  0  0  0  0  0
    8.4866    2.2378   -1.2592 H   0  0  0  0  0  0  0  0  0  0  0  0
    6.4030    2.4822   -2.5860 H   0  0  0  0  0  0  0  0  0  0  0  0
    5.1788    0.4944   -3.3444 H   0  0  0  0  0  0  0  0  0  0  0  0
   -2.8417    0.4569    3.9279 H   0  0  0  0  0  0  0  0  0  0  0  0
   -3.5798   -0.1421    6.1684 H   0  0  0  0  0  0  0  0  0  0  0  0
   -5.2495   -3.8424    4.6307 H   0  0  0  0  0  0  0  0  0  0  0  0
   -4.5080   -3.2116    2.3576 H   0  0  0  0  0  0  0  0  0  0  0  0
  1  2  1  0  0  0  0
  1  6  1  0  0  0  0
  1  7  1  0  0  0  0
  2  3  1  0  0  0  0
  2 33  1  0  0  0  0
  2 34  1  0  0  0  0
  3  4  1  0  0  0  0
  3 35  1  0  0  0  0
  3 36  1  0  0  0  0
  4  5  1  0  0  0  0
  4 10  1  0  0  0  0
  5  6  1  0  0  0  0
  5 37  1  0  0  0  0
  5 38  1  0  0  0  0
  6 39  1  0  0  0  0
  6 40  1  0  0  0  0
  7  8  2  0  0  0  0
  7  9  1  0  0  0  0
  9 24  1  0  0  0  0
 10 11  1  0  0  0  0
 10 41  1  0  0  0  0
 10 42  1  0  0  0  0
 11 12  2  0  0  0  0
 11 16  1  0  0  0  0
 12 13  1  0  0  0  0
 12 43  1  0  0  0  0
 13 14  2  0  0  0  0
 13 17  1  0  0  0  0
 14 15  1  0  0  0  0
 14 44  1  0  0  0  0
 15 16  2  0  0  0  0
 15 45  1  0  0  0  0
 16 46  1  0  0  0  0
 17 18  1  0  0  0  0
 18 19  2  0  0  0  0
 18 23  1  0  0  0  0
 19 20  1  0  0  0  0
 19 47  1  0  0  0  0
 20 21  2  0  0  0  0
 20 48  1  0  0  0  0
 21 22  1  0  0  0  0
 21 49  1  0  0  0  0
 22 23  2  0  0  0  0
 22 50  1  0  0  0  0
 23 51  1  0  0  0  0
 24 25  2  0  0  0  0
 24 29  1  0  0  0  0
 25 26  1  0  0  0  0
 25 52  1  0  0  0  0
 26 27  2  0  0  0  0
 26 53  1  0  0  0  0
 27 28  1  0  0  0  0
 27 30  1  0  0  0  0
 28 29  2  0  0  0  0
 28 54  1  0  0  0  0
 29 55  1  0  0  0  0
 30 31  2  0  0  0  0
 30 32  1  0  0  0  0
M  CHG  2  30   1  32  -1
M  END
>  <Mol_ID>
3855

>  <Formula>
C24H23N3O5

>  <MolWeight>
433.45652

>  <Cat>
S6609

>  <Name>
JZL195

>  <Synonyms>
N/A

>  <Target>
FAAH,Lipase

>  <Form>
free base

>  <CAS>
1210004-12-8

>  <URL>
http://www.selleck.cn/products/jzl195.html

$$$$
