K-975
 OpenBabel08302521373D

 34 35  0  0  0  0  0  0  0  0999 V2000
    1.1641    0.0908    0.1674 O   0  0  0  0  0  0  0  0  0  0  0  0
    1.4413    1.7862   -2.1664 C   0  0  0  0  0  0  0  0  0  0  0  0
   -2.1350    3.0658    2.1546 N   0  0  0  0  0  0  0  0  0  0  0  0
   -2.3251    2.3341    3.3149 C   0  0  0  0  0  0  0  0  0  0  0  0
   -3.2763    2.9745    4.2638 C   0  0  0  0  0  0  0  0  0  0  0  0
   -1.7968    1.2715    3.6159 O   0  0  0  0  0  0  0  0  0  0  0  0
   -3.5950    2.3344    5.4000 C   0  0  0  0  0  0  0  0  0  0  0  0
    0.3419    1.2028    0.0521 C   0  0  0  0  0  0  0  0  0  0  0  0
   -0.6305    1.4744    1.0227 C   0  0  0  0  0  0  0  0  0  0  0  0
    0.5157    2.0808   -1.0235 C   0  0  0  0  0  0  0  0  0  0  0  0
   -1.2915    2.6979    1.0767 C   0  0  0  0  0  0  0  0  0  0  0  0
   -0.2040    3.2882   -1.0136 C   0  0  0  0  0  0  0  0  0  0  0  0
   -1.0750    3.6076    0.0395 C   0  0  0  0  0  0  0  0  0  0  0  0
    1.5441   -0.2878    1.4486 C   0  0  0  0  0  0  0  0  0  0  0  0
    1.5781   -1.6546    1.7276 C   0  0  0  0  0  0  0  0  0  0  0  0
    1.8563    0.6323    2.4601 C   0  0  0  0  0  0  0  0  0  0  0  0
    1.8445   -2.0932    3.0289 C   0  0  0  0  0  0  0  0  0  0  0  0
    2.0830    0.1940    3.7649 C   0  0  0  0  0  0  0  0  0  0  0  0
    2.0732   -1.1692    4.0505 C   0  0  0  0  0  0  0  0  0  0  0  0
    0.9103    1.9171   -3.1151 H   0  0  0  0  0  0  0  0  0  0  0  0
    2.3010    2.4620   -2.1438 H   0  0  0  0  0  0  0  0  0  0  0  0
    1.8093    0.7570   -2.1474 H   0  0  0  0  0  0  0  0  0  0  0  0
   -2.5764    3.9720    2.0860 H   0  0  0  0  0  0  0  0  0  0  0  0
   -3.6982    3.9408    4.0301 H   0  0  0  0  0  0  0  0  0  0  0  0
   -4.2837    2.7599    6.1182 H   0  0  0  0  0  0  0  0  0  0  0  0
   -3.1704    1.3593    5.6372 H   0  0  0  0  0  0  0  0  0  0  0  0
   -0.8172    0.7125    1.7736 H   0  0  0  0  0  0  0  0  0  0  0  0
   -0.0667    4.0032   -1.8239 H   0  0  0  0  0  0  0  0  0  0  0  0
   -1.5673    4.5765    0.0305 H   0  0  0  0  0  0  0  0  0  0  0  0
    1.3611   -2.3771    0.9463 H   0  0  0  0  0  0  0  0  0  0  0  0
    1.8567    1.7001    2.2597 H   0  0  0  0  0  0  0  0  0  0  0  0
    1.8458   -3.1564    3.2558 H   0  0  0  0  0  0  0  0  0  0  0  0
    2.2361    0.9194    4.5598 H   0  0  0  0  0  0  0  0  0  0  0  0
    2.2329   -1.5087    5.0700 H   0  0  0  0  0  0  0  0  0  0  0  0
  1  8  1  0  0  0  0
  1 14  1  0  0  0  0
  2 10  1  0  0  0  0
  2 20  1  0  0  0  0
  2 21  1  0  0  0  0
  2 22  1  0  0  0  0
  3  4  1  0  0  0  0
  3 11  1  0  0  0  0
  3 23  1  0  0  0  0
  4  5  1  0  0  0  0
  4  6  2  0  0  0  0
  5  7  2  0  0  0  0
  5 24  1  0  0  0  0
  7 25  1  0  0  0  0
  7 26  1  0  0  0  0
  8  9  2  0  0  0  0
  8 10  1  0  0  0  0
  9 11  1  0  0  0  0
  9 27  1  0  0  0  0
 10 12  2  0  0  0  0
 11 13  2  0  0  0  0
 12 13  1  0  0  0  0
 12 28  1  0  0  0  0
 13 29  1  0  0  0  0
 14 15  2  0  0  0  0
 14 16  1  0  0  0  0
 15 17  1  0  0  0  0
 15 30  1  0  0  0  0
 16 18  2  0  0  0  0
 16 31  1  0  0  0  0
 17 19  2  0  0  0  0
 17 32  1  0  0  0  0
 18 19  1  0  0  0  0
 18 33  1  0  0  0  0
 19 34  1  0  0  0  0
M  END
>  <Mol_ID>
7516

>  <Formula>
C16H14ClNO2

>  <MolWeight>
287.74086

>  <Cat>
E1329

>  <Name>
K-975

>  <Target>
TEAD

>  <Form>
free base

>  <CAS>
2563855-03-6

>  <URL>
https://www.selleckchem.com/products/k-975.html

$$$$
