K-Ras-IN-1
 OpenBabel08302521243D

 27 28  0  0  0  0  0  0  0  0999 V2000
    1.1071   -0.1281   -0.4518 S   0  0  0  0  0  0  0  0  0  0  0  0
    1.7446    2.4245    1.2650 O   0  0  0  0  0  0  0  0  0  0  0  0
    3.5261   -1.2403   -0.0175 N   0  0  0  0  0  0  0  0  0  0  0  0
    5.5664   -2.3672   -0.1305 C   0  0  0  0  0  0  0  0  0  0  0  0
    4.5049   -3.3006   -0.7010 C   0  0  0  0  0  0  0  0  0  0  0  0
    4.7494   -1.4426    0.7547 C   0  0  0  0  0  0  0  0  0  0  0  0
    3.2663   -2.4178   -0.8460 C   0  0  0  0  0  0  0  0  0  0  0  0
    2.7649   -0.0719   -0.1065 C   0  0  0  0  0  0  0  0  0  0  0  0
    3.4856    1.2460    0.0079 C   0  0  0  0  0  0  0  0  0  0  0  0
    2.9575    2.3846    0.6325 C   0  0  0  0  0  0  0  0  0  0  0  0
    4.7251    1.3637   -0.6522 C   0  0  0  0  0  0  0  0  0  0  0  0
    3.6692    3.5893    0.6387 C   0  0  0  0  0  0  0  0  0  0  0  0
    5.4463    2.5608   -0.6233 C   0  0  0  0  0  0  0  0  0  0  0  0
    4.9140    3.6736    0.0201 C   0  0  0  0  0  0  0  0  0  0  0  0
    1.2288    1.6432    0.9854 H   0  0  0  0  0  0  0  0  0  0  0  0
    6.0352   -1.7967   -0.9443 H   0  0  0  0  0  0  0  0  0  0  0  0
    6.3516   -2.8982    0.4127 H   0  0  0  0  0  0  0  0  0  0  0  0
    4.8067   -3.7463   -1.6546 H   0  0  0  0  0  0  0  0  0  0  0  0
    4.3046   -4.1136    0.0035 H   0  0  0  0  0  0  0  0  0  0  0  0
    4.4634   -1.9573    1.6800 H   0  0  0  0  0  0  0  0  0  0  0  0
    5.2661   -0.5227    1.0329 H   0  0  0  0  0  0  0  0  0  0  0  0
    3.1252   -2.0936   -1.8825 H   0  0  0  0  0  0  0  0  0  0  0  0
    2.3654   -2.9355   -0.5012 H   0  0  0  0  0  0  0  0  0  0  0  0
    5.1395    0.5245   -1.1979 H   0  0  0  0  0  0  0  0  0  0  0  0
    3.2408    4.4656    1.1144 H   0  0  0  0  0  0  0  0  0  0  0  0
    6.4132    2.6209   -1.1154 H   0  0  0  0  0  0  0  0  0  0  0  0
    5.4634    4.6121    0.0262 H   0  0  0  0  0  0  0  0  0  0  0  0
  1  8  2  0  0  0  0
  2 10  1  0  0  0  0
  2 15  1  0  0  0  0
  3  6  1  0  0  0  0
  3  7  1  0  0  0  0
  3  8  1  0  0  0  0
  4  5  1  0  0  0  0
  4  6  1  0  0  0  0
  4 16  1  0  0  0  0
  4 17  1  0  0  0  0
  5  7  1  0  0  0  0
  5 18  1  0  0  0  0
  5 19  1  0  0  0  0
  6 20  1  0  0  0  0
  6 21  1  0  0  0  0
  7 22  1  0  0  0  0
  7 23  1  0  0  0  0
  8  9  1  0  0  0  0
  9 10  2  0  0  0  0
  9 11  1  0  0  0  0
 10 12  1  0  0  0  0
 11 13  2  0  0  0  0
 11 24  1  0  0  0  0
 12 14  2  0  0  0  0
 12 25  1  0  0  0  0
 13 14  1  0  0  0  0
 13 26  1  0  0  0  0
 14 27  1  0  0  0  0
M  END
>  <Mol_ID>
5031

>  <Formula>
C11H13NOS

>  <MolWeight>
207.29202

>  <Cat>
S0023

>  <Name>
K-Ras-IN-1

>  <Synonyms>
MDK-3017

>  <Target>
Ras

>  <Form>
free base

>  <CAS>
84783-01-7

>  <URL>
http://www.selleckchem.com/products/k-ras-in-1.html

$$$$
