K-Ras(G12C) inhibitor 12.cdx
 OpenBabel08302519583D

 40 41  0  0  0  0  0  0  0  0999 V2000
   -6.3266   -0.0759   -4.5138 C   0  0  0  0  0  0  0  0  0  0  0  0
   -5.2805    0.6976   -5.0174 C   0  0  0  0  0  0  0  0  0  0  0  0
   -4.6678    1.6855   -4.2316 C   0  0  0  0  0  0  0  0  0  0  0  0
   -5.1087    1.9292   -2.9280 C   0  0  0  0  0  0  0  0  0  0  0  0
   -6.1565    1.1245   -2.4440 C   0  0  0  0  0  0  0  0  0  0  0  0
   -6.7705    0.1391   -3.2149 C   0  0  0  0  0  0  0  0  0  0  0  0
   -6.5663    1.2642   -1.1433 O   0  0  0  0  0  0  0  0  0  0  0  0
   -4.5560    2.8833   -2.0616 N   0  0  0  0  0  0  0  0  0  0  0  0
   -4.6252    0.3870   -6.9702 I   0  0  0  0  0  0  0  0  0  0  0  0
   -3.3176    3.5889   -2.4249 C   0  0  0  0  0  0  0  0  0  0  0  0
   -2.9333    4.6060   -1.3311 C   0  0  0  0  0  0  0  0  0  0  0  0
   -3.5985    5.8301   -1.3094 N   0  0  0  0  0  0  0  0  0  0  0  0
   -2.0925    4.3119   -0.4774 O   0  0  0  0  0  0  0  0  0  0  0  0
   -3.1807    6.8445   -0.3241 C   0  0  0  0  0  0  0  0  0  0  0  0
   -4.3459    7.7426    0.1312 C   0  0  0  0  0  0  0  0  0  0  0  0
   -5.1463    8.2303   -1.0017 N   0  0  0  0  0  0  0  0  0  0  0  0
   -5.5823    7.1799   -1.9211 C   0  0  0  0  0  0  0  0  0  0  0  0
   -4.3917    6.3574   -2.4221 C   0  0  0  0  0  0  0  0  0  0  0  0
   -5.4248    9.5808   -1.1009 C   0  0  0  0  0  0  0  0  0  0  0  0
   -6.2691   10.0229   -2.2444 C   0  0  0  0  0  0  0  0  0  0  0  0
   -6.1412   11.2614   -2.7388 C   0  0  0  0  0  0  0  0  0  0  0  0
   -4.9919   10.4125   -0.3051 O   0  0  0  0  0  0  0  0  0  0  0  0
   -6.7927   -0.8535   -5.1148 H   0  0  0  0  0  0  0  0  0  0  0  0
   -3.8568    2.2638   -4.6595 H   0  0  0  0  0  0  0  0  0  0  0  0
   -7.5629   -0.4701   -2.7917 H   0  0  0  0  0  0  0  0  0  0  0  0
   -5.8101    1.6980   -0.7025 H   0  0  0  0  0  0  0  0  0  0  0  0
   -5.2740    3.5017   -1.6843 H   0  0  0  0  0  0  0  0  0  0  0  0
   -2.4926    2.8717   -2.5125 H   0  0  0  0  0  0  0  0  0  0  0  0
   -3.3956    4.0982   -3.3904 H   0  0  0  0  0  0  0  0  0  0  0  0
   -2.7200    6.3710    0.5504 H   0  0  0  0  0  0  0  0  0  0  0  0
   -2.4093    7.4554   -0.8098 H   0  0  0  0  0  0  0  0  0  0  0  0
   -5.0262    7.1652    0.7686 H   0  0  0  0  0  0  0  0  0  0  0  0
   -3.9575    8.5702    0.7345 H   0  0  0  0  0  0  0  0  0  0  0  0
   -6.2714    6.5332   -1.3624 H   0  0  0  0  0  0  0  0  0  0  0  0
   -6.1189    7.5669   -2.7862 H   0  0  0  0  0  0  0  0  0  0  0  0
   -3.7197    6.9874   -3.0183 H   0  0  0  0  0  0  0  0  0  0  0  0
   -4.7653    5.5637   -3.0683 H   0  0  0  0  0  0  0  0  0  0  0  0
   -7.0161    9.3576   -2.6497 H   0  0  0  0  0  0  0  0  0  0  0  0
   -6.7583   11.5979   -3.5645 H   0  0  0  0  0  0  0  0  0  0  0  0
   -5.4239   11.9658   -2.3255 H   0  0  0  0  0  0  0  0  0  0  0  0
  1  2  2  0  0  0  0
  1 23  1  0  0  0  0
  2  3  1  0  0  0  0
  2  9  1  0  0  0  0
  3  4  2  0  0  0  0
  3 24  1  0  0  0  0
  4  5  1  0  0  0  0
  4  8  1  0  0  0  0
  5  6  2  0  0  0  0
  5  7  1  0  0  0  0
  6  1  1  0  0  0  0
  6 25  1  0  0  0  0
  7 26  1  0  0  0  0
  8 10  1  0  0  0  0
  8 27  1  0  0  0  0
 10 11  1  0  0  0  0
 10 28  1  0  0  0  0
 10 29  1  0  0  0  0
 11 12  1  0  0  0  0
 11 13  2  0  0  0  0
 12 14  1  0  0  0  0
 14 15  1  0  0  0  0
 14 30  1  0  0  0  0
 14 31  1  0  0  0  0
 15 16  1  0  0  0  0
 15 32  1  0  0  0  0
 15 33  1  0  0  0  0
 16 17  1  0  0  0  0
 16 19  1  0  0  0  0
 17 18  1  0  0  0  0
 17 34  1  0  0  0  0
 17 35  1  0  0  0  0
 18 12  1  0  0  0  0
 18 36  1  0  0  0  0
 18 37  1  0  0  0  0
 19 20  1  0  0  0  0
 19 22  2  0  0  0  0
 20 21  2  0  0  0  0
 20 38  1  0  0  0  0
 21 39  1  0  0  0  0
 21 40  1  0  0  0  0
M  END
>  <Mol_ID>
2473

>  <Formula>
C15H17ClIN3O3

>  <MolWeight>
449.67125

>  <Cat>
S7331

>  <Name>
K-Ras(G12C) inhibitor 12

>  <Synonyms>
N/A

>  <Target>
Ras

>  <Form>
free base

>  <CAS>
1469337-95-8

>  <URL>
http://selleckchem.com/products/k-ras-g12c-inhibitor-12.html

$$$$
