K145
 OpenBabel08302521333D

 48 49  0  0  0  0  0  0  0  0999 V2000
    1.0115   -0.3569   -0.1958 C   0  0  0  0  0  0  0  0  0  0  0  0
    0.1520   -1.4546   -0.2166 C   0  0  0  0  0  0  0  0  0  0  0  0
   -1.2240   -1.2310   -0.1608 C   0  0  0  0  0  0  0  0  0  0  0  0
   -1.7359    0.0649    0.0059 C   0  0  0  0  0  0  0  0  0  0  0  0
   -0.8758    1.1628    0.1165 C   0  0  0  0  0  0  0  0  0  0  0  0
    0.5020    0.9359   -0.0301 C   0  0  0  0  0  0  0  0  0  0  0  0
   -1.3358    2.5787    0.3965 C   0  0  0  0  0  0  0  0  0  0  0  0
   -2.7990    2.7712    0.8282 C   0  0  0  0  0  0  0  0  0  0  0  0
   -3.0488    4.1966    1.2564 C   0  0  0  0  0  0  0  0  0  0  0  0
    0.5461   -2.7693   -0.2836 O   0  0  0  0  0  0  0  0  0  0  0  0
    1.8877   -3.0220    0.1445 C   0  0  0  0  0  0  0  0  0  0  0  0
    2.0696   -4.4827    0.5594 C   0  0  0  0  0  0  0  0  0  0  0  0
    1.9709   -5.4851   -0.5908 C   0  0  0  0  0  0  0  0  0  0  0  0
    2.2305   -6.9028   -0.0900 C   0  0  0  0  0  0  0  0  0  0  0  0
   -3.4013    4.6345    2.4743 C   0  0  0  0  0  0  0  0  0  0  0  0
   -3.6953    3.6936    3.8800 S   0  0  0  0  0  0  0  0  0  0  0  0
   -3.9077    5.1122    4.8900 C   0  0  0  0  0  0  0  0  0  0  0  0
   -3.6890    6.2510    4.1586 N   0  0  0  0  0  0  0  0  0  0  0  0
   -3.5398    6.0833    2.7993 C   0  0  0  0  0  0  0  0  0  0  0  0
   -3.5422    6.9653    1.9514 O   0  0  0  0  0  0  0  0  0  0  0  0
   -4.2252    5.0388    6.0641 O   0  0  0  0  0  0  0  0  0  0  0  0
   -3.8620    7.5732    4.7450 C   0  0  0  0  0  0  0  0  0  0  0  0
   -2.9241    7.8665    5.9344 C   0  0  0  0  0  0  0  0  0  0  0  0
   -1.5065    7.8360    5.5695 N   0  0  0  0  0  0  0  0  0  0  0  0
    2.0858   -0.4741   -0.2913 H   0  0  0  0  0  0  0  0  0  0  0  0
   -1.9081   -2.0742   -0.2157 H   0  0  0  0  0  0  0  0  0  0  0  0
   -2.8141    0.1842    0.0706 H   0  0  0  0  0  0  0  0  0  0  0  0
    1.1987    1.7722    0.0069 H   0  0  0  0  0  0  0  0  0  0  0  0
   -0.6943    2.9724    1.1978 H   0  0  0  0  0  0  0  0  0  0  0  0
   -1.1403    3.1857   -0.4972 H   0  0  0  0  0  0  0  0  0  0  0  0
   -3.4679    2.5387   -0.0092 H   0  0  0  0  0  0  0  0  0  0  0  0
   -3.0446    2.0679    1.6307 H   0  0  0  0  0  0  0  0  0  0  0  0
   -2.8931    4.9420    0.4743 H   0  0  0  0  0  0  0  0  0  0  0  0
    2.5825   -2.7691   -0.6649 H   0  0  0  0  0  0  0  0  0  0  0  0
    2.1253   -2.4160    1.0286 H   0  0  0  0  0  0  0  0  0  0  0  0
    3.0615   -4.5778    1.0200 H   0  0  0  0  0  0  0  0  0  0  0  0
    1.3257   -4.7405    1.3227 H   0  0  0  0  0  0  0  0  0  0  0  0
    0.9832   -5.4414   -1.0615 H   0  0  0  0  0  0  0  0  0  0  0  0
    2.7114   -5.2374   -1.3592 H   0  0  0  0  0  0  0  0  0  0  0  0
    1.3490   -7.2992    0.4248 H   0  0  0  0  0  0  0  0  0  0  0  0
    2.4625   -7.5711   -0.9259 H   0  0  0  0  0  0  0  0  0  0  0  0
    3.0729   -6.9351    0.6091 H   0  0  0  0  0  0  0  0  0  0  0  0
   -3.7234    8.3411    3.9770 H   0  0  0  0  0  0  0  0  0  0  0  0
   -4.8986    7.6397    5.0942 H   0  0  0  0  0  0  0  0  0  0  0  0
   -3.1589    8.8647    6.3213 H   0  0  0  0  0  0  0  0  0  0  0  0
   -3.0926    7.1617    6.7524 H   0  0  0  0  0  0  0  0  0  0  0  0
   -0.9463    8.0158    6.4039 H   0  0  0  0  0  0  0  0  0  0  0  0
   -1.2468    6.9042    5.2544 H   0  0  0  0  0  0  0  0  0  0  0  0
  1  2  2  0  0  0  0
  1 25  1  0  0  0  0
  2  3  1  0  0  0  0
  2 10  1  0  0  0  0
  3  4  2  0  0  0  0
  3 26  1  0  0  0  0
  4  5  1  0  0  0  0
  4 27  1  0  0  0  0
  5  6  2  0  0  0  0
  5  7  1  0  0  0  0
  6  1  1  0  0  0  0
  6 28  1  0  0  0  0
  7  8  1  0  0  0  0
  7 29  1  0  0  0  0
  7 30  1  0  0  0  0
  8  9  1  0  0  0  0
  8 31  1  0  0  0  0
  8 32  1  0  0  0  0
  9 15  2  0  0  0  0
  9 33  1  0  0  0  0
 10 11  1  0  0  0  0
 11 12  1  0  0  0  0
 11 34  1  0  0  0  0
 11 35  1  0  0  0  0
 12 13  1  0  0  0  0
 12 36  1  0  0  0  0
 12 37  1  0  0  0  0
 13 14  1  0  0  0  0
 13 38  1  0  0  0  0
 13 39  1  0  0  0  0
 14 40  1  0  0  0  0
 14 41  1  0  0  0  0
 14 42  1  0  0  0  0
 15 16  1  0  0  0  0
 16 17  1  0  0  0  0
 17 18  1  0  0  0  0
 17 21  2  0  0  0  0
 18 19  1  0  0  0  0
 18 22  1  0  0  0  0
 19 15  1  0  0  0  0
 19 20  2  0  0  0  0
 22 23  1  0  0  0  0
 22 43  1  0  0  0  0
 22 44  1  0  0  0  0
 23 24  1  0  0  0  0
 23 45  1  0  0  0  0
 23 46  1  0  0  0  0
 24 47  1  0  0  0  0
 24 48  1  0  0  0  0
M  END
>  <Mol_ID>
6401

>  <Formula>
C18H24N2O3S

>  <MolWeight>
348.45976

>  <Cat>
E1123

>  <Name>
K145

>  <Target>
S1P Receptor

>  <Form>
free base

>  <CAS>
1309444-75-4

>  <URL>
http://www.selleckchem.com/products/k145.html

$$$$
