K6PC-5
 OpenBabel08302521373D

 61 60  0  0  0  0  0  0  0  0999 V2000
    0.8670    0.1075    0.0032 C   0  0  3  0  0  0  0  0  0  0  0  0
    0.3304    0.8131   -1.2511 C   0  0  0  0  0  0  0  0  0  0  0  0
    0.4349   -1.3572    0.1174 C   0  0  0  0  0  0  0  0  0  0  0  0
    0.4949    0.9104    1.2669 C   0  0  0  0  0  0  0  0  0  0  0  0
   -0.8680    0.3971   -1.7674 N   0  0  0  0  0  0  0  0  0  0  0  0
    0.9392    1.7729   -1.7359 O   0  0  0  0  0  0  0  0  0  0  0  0
    1.4014   -2.3373    0.7926 C   0  0  0  0  0  0  0  0  0  0  0  0
   -0.6360   -1.7336   -0.3284 O   0  0  0  0  0  0  0  0  0  0  0  0
    0.9940    0.2622    2.5693 C   0  0  0  0  0  0  0  0  0  0  0  0
   -1.4863    0.9882   -2.9584 C   0  0  0  0  0  0  0  0  0  0  0  0
    0.8389   -3.7619    0.7924 C   0  0  0  0  0  0  0  0  0  0  0  0
    0.6444    1.0605    3.8187 C   0  0  0  0  0  0  0  0  0  0  0  0
   -0.9860    0.2827   -4.2344 C   0  0  0  0  0  0  0  0  0  0  0  0
   -3.0197    0.9016   -2.8466 C   0  0  0  0  0  0  0  0  0  0  0  0
    1.7780   -4.7365    1.5145 C   0  0  0  0  0  0  0  0  0  0  0  0
    1.1527    0.3540    5.0859 C   0  0  0  0  0  0  0  0  0  0  0  0
   -1.3241   -1.1091   -4.2216 O   0  0  0  0  0  0  0  0  0  0  0  0
   -3.4625   -0.4511   -2.7389 O   0  0  0  0  0  0  0  0  0  0  0  0
    1.2235   -6.1703    1.5215 C   0  0  0  0  0  0  0  0  0  0  0  0
    0.8211    1.1439    6.3541 C   0  0  0  0  0  0  0  0  0  0  0  0
    2.1640   -7.1509    2.2394 C   0  0  0  0  0  0  0  0  0  0  0  0
    1.3328    0.4457    7.6076 C   0  0  0  0  0  0  0  0  0  0  0  0
    1.6139   -8.5823    2.2476 C   0  0  0  0  0  0  0  0  0  0  0  0
    2.5556   -9.5436    2.9638 C   0  0  0  0  0  0  0  0  0  0  0  0
    1.9567    0.1120   -0.1242 H   0  0  0  0  0  0  0  0  0  0  0  0
    0.9159    1.9213    1.1880 H   0  0  0  0  0  0  0  0  0  0  0  0
   -0.5933    1.0458    1.3175 H   0  0  0  0  0  0  0  0  0  0  0  0
   -1.2425   -0.5037   -1.4602 H   0  0  0  0  0  0  0  0  0  0  0  0
    2.3758   -2.2777    0.3047 H   0  0  0  0  0  0  0  0  0  0  0  0
    1.5546   -2.0804    1.8346 H   0  0  0  0  0  0  0  0  0  0  0  0
    0.5308   -0.7205    2.6736 H   0  0  0  0  0  0  0  0  0  0  0  0
    2.0831    0.1183    2.5335 H   0  0  0  0  0  0  0  0  0  0  0  0
   -1.1967    2.0418   -3.0104 H   0  0  0  0  0  0  0  0  0  0  0  0
   -0.1372   -3.7566    1.2944 H   0  0  0  0  0  0  0  0  0  0  0  0
    0.6696   -4.0914   -0.2390 H   0  0  0  0  0  0  0  0  0  0  0  0
    1.0962    2.0548    3.7388 H   0  0  0  0  0  0  0  0  0  0  0  0
   -0.4418    1.1964    3.8835 H   0  0  0  0  0  0  0  0  0  0  0  0
   -1.4603    0.7237   -5.1182 H   0  0  0  0  0  0  0  0  0  0  0  0
    0.0965    0.3730   -4.3459 H   0  0  0  0  0  0  0  0  0  0  0  0
   -3.3676    1.4361   -1.9565 H   0  0  0  0  0  0  0  0  0  0  0  0
   -3.5029    1.3489   -3.7218 H   0  0  0  0  0  0  0  0  0  0  0  0
    2.7600   -4.7098    1.0284 H   0  0  0  0  0  0  0  0  0  0  0  0
    1.9297   -4.4017    2.5488 H   0  0  0  0  0  0  0  0  0  0  0  0
    0.7109   -0.6484    5.1483 H   0  0  0  0  0  0  0  0  0  0  0  0
    2.2399    0.2181    5.0190 H   0  0  0  0  0  0  0  0  0  0  0  0
   -0.6637   -1.5498   -3.6538 H   0  0  0  0  0  0  0  0  0  0  0  0
   -2.9403   -0.9659   -3.3907 H   0  0  0  0  0  0  0  0  0  0  0  0
    0.2410   -6.1744    2.0094 H   0  0  0  0  0  0  0  0  0  0  0  0
    1.0630   -6.5143    0.4929 H   0  0  0  0  0  0  0  0  0  0  0  0
    1.2739    2.1403    6.2911 H   0  0  0  0  0  0  0  0  0  0  0  0
   -0.2618    1.2897    6.4397 H   0  0  0  0  0  0  0  0  0  0  0  0
    3.1426   -7.1422    1.7434 H   0  0  0  0  0  0  0  0  0  0  0  0
    2.3266   -6.8224    3.2732 H   0  0  0  0  0  0  0  0  0  0  0  0
    2.4155    0.2930    7.5554 H   0  0  0  0  0  0  0  0  0  0  0  0
    1.1185    1.0519    8.4942 H   0  0  0  0  0  0  0  0  0  0  0  0
    0.8561   -0.5299    7.7481 H   0  0  0  0  0  0  0  0  0  0  0  0
    0.6389   -8.6003    2.7485 H   0  0  0  0  0  0  0  0  0  0  0  0
    1.4538   -8.9341    1.2218 H   0  0  0  0  0  0  0  0  0  0  0  0
    2.7153   -9.2327    4.0013 H   0  0  0  0  0  0  0  0  0  0  0  0
    2.1343  -10.5545    2.9745 H   0  0  0  0  0  0  0  0  0  0  0  0
    3.5305   -9.5941    2.4682 H   0  0  0  0  0  0  0  0  0  0  0  0
  1  2  1  0  0  0  0
  1  3  1  0  0  0  0
  1  4  1  0  0  0  0
  1 25  1  0  0  0  0
  2  5  1  0  0  0  0
  2  6  2  0  0  0  0
  3  7  1  0  0  0  0
  3  8  2  0  0  0  0
  4  9  1  0  0  0  0
  4 26  1  0  0  0  0
  4 27  1  0  0  0  0
  5 10  1  0  0  0  0
  5 28  1  0  0  0  0
  7 11  1  0  0  0  0
  7 29  1  0  0  0  0
  7 30  1  0  0  0  0
  9 12  1  0  0  0  0
  9 31  1  0  0  0  0
  9 32  1  0  0  0  0
 10 13  1  0  0  0  0
 10 14  1  0  0  0  0
 10 33  1  0  0  0  0
 11 15  1  0  0  0  0
 11 34  1  0  0  0  0
 11 35  1  0  0  0  0
 12 16  1  0  0  0  0
 12 36  1  0  0  0  0
 12 37  1  0  0  0  0
 13 17  1  0  0  0  0
 13 38  1  0  0  0  0
 13 39  1  0  0  0  0
 14 18  1  0  0  0  0
 14 40  1  0  0  0  0
 14 41  1  0  0  0  0
 15 19  1  0  0  0  0
 15 42  1  0  0  0  0
 15 43  1  0  0  0  0
 16 20  1  0  0  0  0
 16 44  1  0  0  0  0
 16 45  1  0  0  0  0
 17 46  1  0  0  0  0
 18 47  1  0  0  0  0
 19 21  1  0  0  0  0
 19 48  1  0  0  0  0
 19 49  1  0  0  0  0
 20 22  1  0  0  0  0
 20 50  1  0  0  0  0
 20 51  1  0  0  0  0
 21 23  1  0  0  0  0
 21 52  1  0  0  0  0
 21 53  1  0  0  0  0
 22 54  1  0  0  0  0
 22 55  1  0  0  0  0
 22 56  1  0  0  0  0
 23 24  1  0  0  0  0
 23 57  1  0  0  0  0
 23 58  1  0  0  0  0
 24 59  1  0  0  0  0
 24 60  1  0  0  0  0
 24 61  1  0  0  0  0
M  END
>  <Mol_ID>
7493

>  <Formula>
C19H37NO4

>  <MolWeight>
343.50138

>  <Cat>
E1218

>  <Name>
K6PC-5

>  <Target>
SPHK

>  <Form>
free base

>  <CAS>
756875-51-1

>  <URL>
https://www.selleckchem.com/products/k6pc-5.html

$$$$
