K 858
 OpenBabel08302520143D

 34 35  0  0  0  0  0  0  0  0999 V2000
    2.4175    1.3180   -0.8538 C   0  0  0  0  0  0  0  0  0  0  0  0
    1.3937    1.1386   -1.9448 C   0  0  0  0  0  0  0  0  0  0  0  0
    3.2897    2.1731   -0.9610 O   0  0  0  0  0  0  0  0  0  0  0  0
    2.2627    0.4415    0.2053 N   0  0  0  0  0  0  0  0  0  0  0  0
    2.6659   -0.7909    2.4882 S   0  0  0  0  0  0  0  0  0  0  0  0
    3.0317    0.4438    1.3314 C   0  0  0  0  0  0  0  0  0  0  0  0
    3.9841    1.2650    1.5929 N   0  0  0  0  0  0  0  0  0  0  0  0
    4.5788    0.9887    2.8037 N   0  0  0  0  0  0  0  0  0  0  0  0
    4.1448   -0.2543    3.4899 C   0  0  3  0  0  0  0  0  0  0  0  0
    3.7261   -0.0783    4.9577 C   0  0  0  0  0  0  0  0  0  0  0  0
    3.7789   -1.1538    5.8699 C   0  0  0  0  0  0  0  0  0  0  0  0
    3.5257   -0.9708    7.2316 C   0  0  0  0  0  0  0  0  0  0  0  0
    3.1873    0.2871    7.7129 C   0  0  0  0  0  0  0  0  0  0  0  0
    3.0514    1.3501    6.8226 C   0  0  0  0  0  0  0  0  0  0  0  0
    3.3013    1.1664    5.4587 C   0  0  0  0  0  0  0  0  0  0  0  0
    5.2326   -1.3332    3.2972 C   0  0  0  0  0  0  0  0  0  0  0  0
    5.7000    1.7203    3.1733 C   0  0  0  0  0  0  0  0  0  0  0  0
    6.3553    1.4939    4.1875 O   0  0  0  0  0  0  0  0  0  0  0  0
    6.1052    2.8285    2.2229 C   0  0  0  0  0  0  0  0  0  0  0  0
    0.8309    2.0697   -2.0553 H   0  0  0  0  0  0  0  0  0  0  0  0
    1.9135    0.9121   -2.8811 H   0  0  0  0  0  0  0  0  0  0  0  0
    0.6953    0.3285   -1.7277 H   0  0  0  0  0  0  0  0  0  0  0  0
    1.5390   -0.2591    0.1695 H   0  0  0  0  0  0  0  0  0  0  0  0
    4.0443   -2.1566    5.5452 H   0  0  0  0  0  0  0  0  0  0  0  0
    3.6172   -1.8095    7.9185 H   0  0  0  0  0  0  0  0  0  0  0  0
    3.0296    0.4405    8.7768 H   0  0  0  0  0  0  0  0  0  0  0  0
    2.7759    2.3330    7.1954 H   0  0  0  0  0  0  0  0  0  0  0  0
    3.1983    2.0249    4.7984 H   0  0  0  0  0  0  0  0  0  0  0  0
    5.5766   -1.3831    2.2571 H   0  0  0  0  0  0  0  0  0  0  0  0
    6.1135   -1.1143    3.9127 H   0  0  0  0  0  0  0  0  0  0  0  0
    4.8910   -2.3364    3.5733 H   0  0  0  0  0  0  0  0  0  0  0  0
    6.7454    2.4036    1.4493 H   0  0  0  0  0  0  0  0  0  0  0  0
    5.2436    3.3191    1.7563 H   0  0  0  0  0  0  0  0  0  0  0  0
    6.6598    3.5952    2.7693 H   0  0  0  0  0  0  0  0  0  0  0  0
  1  2  1  0  0  0  0
  1  3  2  0  0  0  0
  1  4  1  0  0  0  0
  2 20  1  0  0  0  0
  2 21  1  0  0  0  0
  2 22  1  0  0  0  0
  4  6  1  0  0  0  0
  4 23  1  0  0  0  0
  5  6  1  0  0  0  0
  5  9  1  0  0  0  0
  6  7  2  0  0  0  0
  7  8  1  0  0  0  0
  8  9  1  0  0  0  0
  8 17  1  0  0  0  0
  9 10  1  0  0  0  0
  9 16  1  0  0  0  0
 10 11  2  0  0  0  0
 10 15  1  0  0  0  0
 11 12  1  0  0  0  0
 11 24  1  0  0  0  0
 12 13  2  0  0  0  0
 12 25  1  0  0  0  0
 13 14  1  0  0  0  0
 13 26  1  0  0  0  0
 14 15  2  0  0  0  0
 14 27  1  0  0  0  0
 15 28  1  0  0  0  0
 16 29  1  0  0  0  0
 16 30  1  0  0  0  0
 16 31  1  0  0  0  0
 17 18  2  0  0  0  0
 17 19  1  0  0  0  0
 19 32  1  0  0  0  0
 19 33  1  0  0  0  0
 19 34  1  0  0  0  0
M  END
>  <Mol_ID>
3193

>  <Formula>
C13H15N3O2S

>  <MolWeight>
277.3421

>  <Cat>
S5933

>  <Name>
K 858

>  <Synonyms>
N/A

>  <Target>
Kinesin

>  <Form>
Free Base

>  <CAS>
72926-24-0

>  <URL>
http://www.selleckchem.com/products/k858.html

$$$$
