KA2507
 OpenBabel08302521323D

 38 40  0  0  0  0  0  0  0  0999 V2000
    0.9812   -0.1504   -0.3598 N   0  0  0  0  0  0  0  0  0  0  0  0
    0.1281    1.0076   -0.0467 C   0  0  0  0  0  0  0  0  0  0  0  0
   -2.8372    2.1938   -4.9241 C   0  0  0  0  0  0  0  0  0  0  0  0
   -2.7569    3.4205   -5.5448 N   0  0  0  0  0  0  0  0  0  0  0  0
   -3.4935    1.2723   -5.4058 O   0  0  0  0  0  0  0  0  0  0  0  0
   -3.5726    3.5462   -6.6985 O   0  0  0  0  0  0  0  0  0  0  0  0
    0.3184   -1.4028   -0.2552 C   0  0  0  0  0  0  0  0  0  0  0  0
    0.7234   -2.4875   -1.0529 C   0  0  0  0  0  0  0  0  0  0  0  0
   -0.6952   -1.5801    0.6315 N   0  0  0  0  0  0  0  0  0  0  0  0
    0.1833   -3.7317   -0.9918 N   0  0  0  0  0  0  0  0  0  0  0  0
   -1.2073   -2.8321    0.7252 C   0  0  0  0  0  0  0  0  0  0  0  0
   -0.7830   -3.8817   -0.0694 C   0  0  0  0  0  0  0  0  0  0  0  0
    2.3791   -0.0590   -0.2293 C   0  0  0  0  0  0  0  0  0  0  0  0
    3.1072    1.1272   -0.3589 C   0  0  0  0  0  0  0  0  0  0  0  0
    3.0777   -1.2003    0.0163 N   0  0  0  0  0  0  0  0  0  0  0  0
    4.4630    1.2236   -0.2389 N   0  0  0  0  0  0  0  0  0  0  0  0
    4.4212   -1.1255    0.1374 C   0  0  0  0  0  0  0  0  0  0  0  0
    5.1021    0.0658    0.0157 C   0  0  0  0  0  0  0  0  0  0  0  0
   -0.6879    1.4322   -1.2676 C   0  0  0  0  0  0  0  0  0  0  0  0
   -1.8953    0.7806   -1.5638 C   0  0  0  0  0  0  0  0  0  0  0  0
   -0.2376    2.4305   -2.1482 C   0  0  0  0  0  0  0  0  0  0  0  0
   -2.5972    1.0665   -2.7377 C   0  0  0  0  0  0  0  0  0  0  0  0
   -0.9514    2.7348   -3.3198 C   0  0  0  0  0  0  0  0  0  0  0  0
   -2.1211    2.0309   -3.6303 C   0  0  0  0  0  0  0  0  0  0  0  0
   -0.5542    0.8139    0.7920 H   0  0  0  0  0  0  0  0  0  0  0  0
    0.7009    1.8764    0.2992 H   0  0  0  0  0  0  0  0  0  0  0  0
   -2.5695    4.2772   -5.0371 H   0  0  0  0  0  0  0  0  0  0  0  0
   -3.9318    2.6352   -6.7982 H   0  0  0  0  0  0  0  0  0  0  0  0
    1.5189   -2.3717   -1.7829 H   0  0  0  0  0  0  0  0  0  0  0  0
   -1.9748   -2.9736    1.4778 H   0  0  0  0  0  0  0  0  0  0  0  0
   -1.2089   -4.8738    0.0206 H   0  0  0  0  0  0  0  0  0  0  0  0
    2.6341    2.0732   -0.5859 H   0  0  0  0  0  0  0  0  0  0  0  0
    4.9310   -2.0617    0.3350 H   0  0  0  0  0  0  0  0  0  0  0  0
    6.1802    0.1161    0.1148 H   0  0  0  0  0  0  0  0  0  0  0  0
   -2.2832    0.0126   -0.8966 H   0  0  0  0  0  0  0  0  0  0  0  0
    0.6886    2.9648   -1.9479 H   0  0  0  0  0  0  0  0  0  0  0  0
   -3.5055    0.5111   -2.9656 H   0  0  0  0  0  0  0  0  0  0  0  0
   -0.5477    3.4795   -4.0013 H   0  0  0  0  0  0  0  0  0  0  0  0
  1  2  1  0  0  0  0
  1  7  1  0  0  0  0
  1 13  1  0  0  0  0
  2 19  1  0  0  0  0
  2 25  1  0  0  0  0
  2 26  1  0  0  0  0
  3  4  1  0  0  0  0
  3  5  2  0  0  0  0
  3 24  1  0  0  0  0
  4  6  1  0  0  0  0
  4 27  1  0  0  0  0
  6 28  1  0  0  0  0
  7  8  2  0  0  0  0
  7  9  1  0  0  0  0
  8 10  1  0  0  0  0
  8 29  1  0  0  0  0
  9 11  2  0  0  0  0
 10 12  2  0  0  0  0
 11 12  1  0  0  0  0
 11 30  1  0  0  0  0
 12 31  1  0  0  0  0
 13 14  2  0  0  0  0
 13 15  1  0  0  0  0
 14 16  1  0  0  0  0
 14 32  1  0  0  0  0
 15 17  2  0  0  0  0
 16 18  2  0  0  0  0
 17 18  1  0  0  0  0
 17 33  1  0  0  0  0
 18 34  1  0  0  0  0
 19 20  2  0  0  0  0
 19 21  1  0  0  0  0
 20 22  1  0  0  0  0
 20 35  1  0  0  0  0
 21 23  2  0  0  0  0
 21 36  1  0  0  0  0
 22 24  2  0  0  0  0
 22 37  1  0  0  0  0
 23 24  1  0  0  0  0
 23 38  1  0  0  0  0
M  END
>  <Mol_ID>
6106

>  <Formula>
C16H14N6O2

>  <MolWeight>
322.32136

>  <Cat>
S9934

>  <Name>
KA2507

>  <Target>
HDAC

>  <Form>
free base

>  <CAS>
1636894-46-6

>  <URL>
http://www.selleckchem.com/products/ka2507.html

$$$$
