Kadsurin
 OpenBabel08302521473D

 63 66  0  0  0  0  0  0  0  0999 V2000
    0.8085    1.0710   -1.0866 O   0  0  0  0  0  0  0  0  0  0  0  0
    0.3440    0.4434   -2.2814 C   0  0  0  0  0  0  0  0  0  0  0  0
    1.3322    1.5707    2.7479 O   0  0  0  0  0  0  0  0  0  0  0  0
    2.4516    0.7588    3.0718 C   0  0  0  0  0  0  0  0  0  0  0  0
    6.2698    1.6138    1.6898 O   0  0  0  0  0  0  0  0  0  0  0  0
    7.3415    0.9022    1.2693 C   0  0  0  0  0  0  0  0  0  0  0  0
    8.2879    0.6553    2.4145 C   0  0  0  0  0  0  0  0  0  0  0  0
    7.5438    0.4767    0.1456 O   0  0  0  0  0  0  0  0  0  0  0  0
    0.2194    3.7423    3.5643 O   0  0  0  0  0  0  0  0  0  0  0  0
   -0.9715    4.4961    3.7458 C   0  0  0  0  0  0  0  0  0  0  0  0
    5.9887    2.2402   -1.6984 C   0  0  0  0  0  0  0  0  0  0  0  0
    0.2497    6.1213    1.9674 O   0  0  0  0  0  0  0  0  0  0  0  0
    0.8070    7.3729    1.5829 C   0  0  0  0  0  0  0  0  0  0  0  0
    4.9051    5.3191    0.3841 C   0  0  0  0  0  0  0  0  0  0  0  0
    2.8287    1.4030    0.1399 C   0  0  0  0  0  0  0  0  0  0  0  0
    2.2684    2.6460    0.7056 C   0  0  0  0  0  0  0  0  0  0  0  0
    4.1692    1.0013    0.4358 C   0  0  0  0  0  0  0  0  0  0  0  0
    1.9637    0.5446   -0.5752 C   0  0  0  0  0  0  0  0  0  0  0  0
    2.3920    3.8384   -0.0204 C   0  0  0  0  0  0  0  0  0  0  0  0
    1.5358    2.6645    1.9270 C   0  0  0  0  0  0  0  0  0  0  0  0
    5.2047    2.0712    0.8002 C   0  0  3  0  0  0  0  0  0  0  0  0
    4.4635   -0.3733    0.3840 C   0  0  0  0  0  0  0  0  0  0  0  0
    2.2987   -0.7862   -0.6058 C   0  0  0  0  0  0  0  0  0  0  0  0
    1.6783    4.9790    0.3840 C   0  0  0  0  0  0  0  0  0  0  0  0
    3.3629    3.9581   -1.1716 C   0  0  0  0  0  0  0  0  0  0  0  0
    0.8467    3.8352    2.3395 C   0  0  0  0  0  0  0  0  0  0  0  0
    5.7061    2.9891   -0.3807 C   0  0  3  0  0  0  0  0  0  0  0  0
    3.4785   -1.2372   -0.0594 C   0  0  0  0  0  0  0  0  0  0  0  0
    1.4989   -1.8175   -1.0019 O   0  0  0  0  0  0  0  0  0  0  0  0
    0.9211    4.9989    1.5587 C   0  0  0  0  0  0  0  0  0  0  0  0
    4.8166    4.2456   -0.7138 C   0  0  3  0  0  0  0  0  0  0  0  0
    3.4956   -2.5987    0.0396 O   0  0  0  0  0  0  0  0  0  0  0  0
    2.1106   -2.8796   -0.2572 C   0  0  0  0  0  0  0  0  0  0  0  0
    1.1621    0.1658   -2.9581 H   0  0  0  0  0  0  0  0  0  0  0  0
   -0.2748   -0.4244   -2.0367 H   0  0  0  0  0  0  0  0  0  0  0  0
   -0.2897    1.1592   -2.8141 H   0  0  0  0  0  0  0  0  0  0  0  0
    2.4768   -0.0981    2.3972 H   0  0  0  0  0  0  0  0  0  0  0  0
    3.4004    1.3049    3.0775 H   0  0  0  0  0  0  0  0  0  0  0  0
    2.3076    0.3416    4.0745 H   0  0  0  0  0  0  0  0  0  0  0  0
    8.2482   -0.4023    2.6885 H   0  0  0  0  0  0  0  0  0  0  0  0
    9.3031    0.9326    2.1123 H   0  0  0  0  0  0  0  0  0  0  0  0
    8.0212    1.2563    3.2894 H   0  0  0  0  0  0  0  0  0  0  0  0
   -0.7416    5.5280    4.0276 H   0  0  0  0  0  0  0  0  0  0  0  0
   -1.6265    4.4513    2.8693 H   0  0  0  0  0  0  0  0  0  0  0  0
   -1.5158    4.0572    4.5882 H   0  0  0  0  0  0  0  0  0  0  0  0
    6.0613    2.9350   -2.5429 H   0  0  0  0  0  0  0  0  0  0  0  0
    6.9502    1.7272   -1.6678 H   0  0  0  0  0  0  0  0  0  0  0  0
    5.2145    1.5120   -1.9490 H   0  0  0  0  0  0  0  0  0  0  0  0
    1.8662    7.4345    1.8549 H   0  0  0  0  0  0  0  0  0  0  0  0
    0.6605    7.5620    0.5150 H   0  0  0  0  0  0  0  0  0  0  0  0
    0.2725    8.1567    2.1274 H   0  0  0  0  0  0  0  0  0  0  0  0
    5.9425    5.6364    0.5274 H   0  0  0  0  0  0  0  0  0  0  0  0
    4.3344    6.2104    0.0980 H   0  0  0  0  0  0  0  0  0  0  0  0
    4.5320    4.9703    1.3514 H   0  0  0  0  0  0  0  0  0  0  0  0
    4.6907    2.7454    1.4920 H   0  0  0  0  0  0  0  0  0  0  0  0
    5.3992   -0.7838    0.7423 H   0  0  0  0  0  0  0  0  0  0  0  0
    1.7476    5.8642   -0.2403 H   0  0  0  0  0  0  0  0  0  0  0  0
    3.0302    4.7830   -1.8166 H   0  0  0  0  0  0  0  0  0  0  0  0
    3.3155    3.0779   -1.8225 H   0  0  0  0  0  0  0  0  0  0  0  0
    6.6732    3.4032   -0.0607 H   0  0  0  0  0  0  0  0  0  0  0  0
    5.2907    4.7179   -1.5871 H   0  0  0  0  0  0  0  0  0  0  0  0
    1.5501   -2.9910    0.6837 H   0  0  0  0  0  0  0  0  0  0  0  0
    2.0328   -3.8137   -0.8198 H   0  0  0  0  0  0  0  0  0  0  0  0
  1  2  1  0  0  0  0
  1 18  1  0  0  0  0
  2 34  1  0  0  0  0
  2 35  1  0  0  0  0
  2 36  1  0  0  0  0
  3  4  1  0  0  0  0
  3 20  1  0  0  0  0
  4 37  1  0  0  0  0
  4 38  1  0  0  0  0
  4 39  1  0  0  0  0
  5  6  1  0  0  0  0
  5 21  1  0  0  0  0
  6  7  1  0  0  0  0
  6  8  2  0  0  0  0
  7 40  1  0  0  0  0
  7 41  1  0  0  0  0
  7 42  1  0  0  0  0
  9 10  1  0  0  0  0
  9 26  1  0  0  0  0
 10 43  1  0  0  0  0
 10 44  1  0  0  0  0
 10 45  1  0  0  0  0
 11 27  1  0  0  0  0
 11 46  1  0  0  0  0
 11 47  1  0  0  0  0
 11 48  1  0  0  0  0
 12 13  1  0  0  0  0
 12 30  1  0  0  0  0
 13 49  1  0  0  0  0
 13 50  1  0  0  0  0
 13 51  1  0  0  0  0
 14 31  1  0  0  0  0
 14 52  1  0  0  0  0
 14 53  1  0  0  0  0
 14 54  1  0  0  0  0
 15 16  1  0  0  0  0
 15 17  1  0  0  0  0
 15 18  2  0  0  0  0
 16 19  2  0  0  0  0
 16 20  1  0  0  0  0
 17 21  1  0  0  0  0
 17 22  2  0  0  0  0
 18 23  1  0  0  0  0
 19 24  1  0  0  0  0
 19 25  1  0  0  0  0
 20 26  2  0  0  0  0
 21 27  1  0  0  0  0
 21 55  1  0  0  0  0
 22 28  1  0  0  0  0
 22 56  1  0  0  0  0
 23 28  2  0  0  0  0
 23 29  1  0  0  0  0
 24 30  2  0  0  0  0
 24 57  1  0  0  0  0
 25 31  1  0  0  0  0
 25 58  1  0  0  0  0
 25 59  1  0  0  0  0
 26 30  1  0  0  0  0
 27 31  1  0  0  0  0
 27 60  1  0  0  0  0
 28 32  1  0  0  0  0
 29 33  1  0  0  0  0
 31 61  1  0  0  0  0
 32 33  1  0  0  0  0
 33 62  1  0  0  0  0
 33 63  1  0  0  0  0
M  END
>  <Mol_ID>
9773

>  <Formula>
C25H30O8

>  <MolWeight>
458.5009

>  <Cat>
E2290

>  <Name>
Kadsurin

>  <Synonyms>
NA

>  <Target>
lipid peroxidation

>  <Form>
Free Base

>  <CAS>
51670-40-7

>  <URL>
https://www.selleckchem.com/products/kadsurin.html

$$$$
