Kahweol
 OpenBabel08302522002D

 49 53  0  0  1  0  0  0  0  0999 V2000
    4.4379    3.8196    0.0000 C   0  0  0  0  0  0  0  0  0  0  0  0
    9.9764    2.4534    0.0000 C   0  0  0  0  0  0  0  0  0  0  0  0
   11.0206    1.5208    0.0000 O   0  0  0  0  0  0  0  0  0  0  0  0
    9.3695    0.8165    0.0000 O   0  0  0  0  0  0  0  0  0  0  0  0
    6.4158    1.2125    0.0000 C   0  0  1  0  0  0  0  0  0  0  0  0
    5.7158    2.4250    0.0000 C   0  0  2  0  0  0  0  0  0  0  0  0
    7.1726    2.6085    0.0000 C   0  0  0  0  0  0  0  0  0  0  0  0
    7.6425    1.0477    0.0000 C   0  0  0  0  0  0  0  0  0  0  0  0
    5.7158    0.0000    0.0000 C   0  0  0  0  0  0  0  0  0  0  0  0
    4.3158    2.4250    0.0000 C   0  0  2  0  0  0  0  0  0  0  0  0
    6.1819    3.5777    0.0000 C   0  0  0  0  0  0  0  0  0  0  0  0
    8.5313    3.2422    0.0000 C   0  0  2  0  0  0  0  0  0  0  0  0
    8.6466    2.0155    0.0000 C   0  0  1  0  0  0  0  0  0  0  0  0
    4.3158    0.0000    0.0000 C   0  0  0  0  0  0  0  0  0  0  0  0
    3.6158    1.2125    0.0000 C   0  0  2  0  0  0  0  0  0  0  0  0
    3.6158    3.6374    0.0000 C   0  0  0  0  0  0  0  0  0  0  0  0
    7.5220    3.9635    0.0000 C   0  0  0  0  0  0  0  0  0  0  0  0
    2.2158    1.2125    0.0000 C   0  0  0  0  0  0  0  0  0  0  0  0
    2.2158    3.6374    0.0000 C   0  0  0  0  0  0  0  0  0  0  0  0
    1.5158    2.4250    0.0000 C   0  0  0  0  0  0  0  0  0  0  0  0
    1.2791    0.1721    0.0000 C   0  0  0  0  0  0  0  0  0  0  0  0
    0.1465    2.1339    0.0000 O   0  0  0  0  0  0  0  0  0  0  0  0
    0.0000    0.7415    0.0000 C   0  0  0  0  0  0  0  0  0  0  0  0
    5.4077    4.2717    0.0000 H   0  0  0  0  0  0  0  0  0  0  0  0
    3.5614    4.4334    0.0000 H   0  0  0  0  0  0  0  0  0  0  0  0
    4.5312    4.8855    0.0000 H   0  0  0  0  0  0  0  0  0  0  0  0
   10.1947    3.5009    0.0000 H   0  0  0  0  0  0  0  0  0  0  0  0
    9.1784    3.1662    0.0000 H   0  0  0  0  0  0  0  0  0  0  0  0
   10.8228    0.5712    0.0000 H   0  0  0  0  0  0  0  0  0  0  0  0
    8.9005   -0.0326    0.0000 H   0  0  0  0  0  0  0  0  0  0  0  0
    6.7832    2.4995    0.0000 H   0  0  0  0  0  0  0  0  0  0  0  0
    6.4392    3.3876    0.0000 H   0  0  0  0  0  0  0  0  0  0  0  0
    7.3742    3.6593    0.0000 H   0  0  0  0  0  0  0  0  0  0  0  0
    7.9758    0.0309    0.0000 H   0  0  0  0  0  0  0  0  0  0  0  0
    8.6809    0.7897    0.0000 H   0  0  0  0  0  0  0  0  0  0  0  0
    6.2508   -0.9266    0.0000 H   0  0  0  0  0  0  0  0  0  0  0  0
    5.1808   -0.9267    0.0000 H   0  0  0  0  0  0  0  0  0  0  0  0
    5.4656    4.3726    0.0000 H   0  0  0  0  0  0  0  0  0  0  0  0
    6.4761    4.6065    0.0000 H   0  0  0  0  0  0  0  0  0  0  0  0
    7.4658    3.3405    0.0000 H   0  0  0  0  0  0  0  0  0  0  0  0
    3.7808   -0.9266    0.0000 H   0  0  0  0  0  0  0  0  0  0  0  0
    3.2458    0.0000    0.0000 H   0  0  0  0  0  0  0  0  0  0  0  0
    4.6858    1.2125    0.0000 H   0  0  0  0  0  0  0  0  0  0  0  0
    4.1318    4.5311    0.0000 H   0  0  0  0  0  0  0  0  0  0  0  0
    7.7031    5.0181    0.0000 H   0  0  0  0  0  0  0  0  0  0  0  0
    8.5116    4.3704    0.0000 H   0  0  0  0  0  0  0  0  0  0  0  0
    1.6998    4.5311    0.0000 H   0  0  0  0  0  0  0  0  0  0  0  0
    1.4937   -0.8373    0.0000 H   0  0  0  0  0  0  0  0  0  0  0  0
   -0.8938    0.2255    0.0000 H   0  0  0  0  0  0  0  0  0  0  0  0
  1 24  1  0  0  0  0
  1 25  1  0  0  0  0
  1 26  1  0  0  0  0
  2  3  1  0  0  0  0
  2 27  1  0  0  0  0
  2 28  1  0  0  0  0
  3 29  1  0  0  0  0
  4 30  1  0  0  0  0
  5  6  1  0  0  0  0
  5  7  1  6  0  0  0
  5  8  1  0  0  0  0
  5  9  1  0  0  0  0
  6 10  1  0  0  0  0
  6 11  1  0  0  0  0
  6 31  1  1  0  0  0
  7 32  1  0  0  0  0
  7 33  1  0  0  0  0
  8 13  1  0  0  0  0
  8 34  1  0  0  0  0
  8 35  1  0  0  0  0
  9 14  1  0  0  0  0
  9 36  1  0  0  0  0
  9 37  1  0  0  0  0
 10  1  1  6  0  0  0
 10 15  1  0  0  0  0
 10 16  1  0  0  0  0
 11 17  1  0  0  0  0
 11 38  1  0  0  0  0
 11 39  1  0  0  0  0
 12  7  1  0  0  0  0
 12 13  1  0  0  0  0
 12 17  1  0  0  0  0
 12 40  1  6  0  0  0
 13  2  1  0  0  0  0
 13  4  1  6  0  0  0
 14 41  1  0  0  0  0
 14 42  1  0  0  0  0
 15 14  1  0  0  0  0
 15 18  1  0  0  0  0
 15 43  1  1  0  0  0
 16 19  2  0  0  0  0
 16 44  1  0  0  0  0
 17 45  1  0  0  0  0
 17 46  1  0  0  0  0
 18 20  2  0  0  0  0
 18 21  1  0  0  0  0
 19 20  1  0  0  0  0
 19 47  1  0  0  0  0
 20 22  1  0  0  0  0
 21 23  2  0  0  0  0
 21 48  1  0  0  0  0
 22 23  1  0  0  0  0
 23 49  1  0  0  0  0
M  END
>  <Mol_ID>
9884

>  <Formula>
C20H26O3

>  <MolWeight>
314.41864

>  <Cat>
E2781

>  <Name>
Kahweol

>  <Synonyms>
N/A

>  <Target>
STAT, TGF-beta/Smad, ERK, JNK

>  <Form>
free base

>  <CAS>
6894-43-5

>  <URL>
https://www.selleckchem.com/products/kahweol.html

$$$$
