Kakuol
 OpenBabel08302521593D

 24 25  0  0  0  0  0  0  0  0999 V2000
    0.9785    0.0799   -0.0685 C   0  0  0  0  0  0  0  0  0  0  0  0
    0.1794    1.3706   -0.0444 C   0  0  0  0  0  0  0  0  0  0  0  0
    0.4241   -1.0247   -0.0655 O   0  0  0  0  0  0  0  0  0  0  0  0
   -1.3169    1.0715   -0.0374 C   0  0  0  0  0  0  0  0  0  0  0  0
    2.5531   -2.3544   -0.0710 O   0  0  0  0  0  0  0  0  0  0  0  0
    4.5778    1.2199   -0.0721 C   0  0  0  0  0  0  0  0  0  0  0  0
    5.2498    0.0171   -0.0730 C   0  0  0  0  0  0  0  0  0  0  0  0
    3.1980    1.2995   -0.0787 C   0  0  0  0  0  0  0  0  0  0  0  0
    5.4308    2.2809   -0.0619 O   0  0  0  0  0  0  0  0  0  0  0  0
    4.5757   -1.1801   -0.0791 C   0  0  0  0  0  0  0  0  0  0  0  0
    6.5990    0.1729   -0.0655 O   0  0  0  0  0  0  0  0  0  0  0  0
    2.4735    0.0997   -0.0778 C   0  0  0  0  0  0  0  0  0  0  0  0
    6.7084    1.6099   -0.0050 C   0  0  0  0  0  0  0  0  0  0  0  0
    3.1803   -1.1327   -0.0778 C   0  0  0  0  0  0  0  0  0  0  0  0
    0.4330    1.9314    0.8607 H   0  0  0  0  0  0  0  0  0  0  0  0
    0.4149    1.9780   -0.9243 H   0  0  0  0  0  0  0  0  0  0  0  0
   -1.5986    0.5112    0.8614 H   0  0  0  0  0  0  0  0  0  0  0  0
   -1.9012    1.9958   -0.0602 H   0  0  0  0  0  0  0  0  0  0  0  0
   -1.6020    0.4649   -0.9056 H   0  0  0  0  0  0  0  0  0  0  0  0
    1.5803   -2.1972   -0.0609 H   0  0  0  0  0  0  0  0  0  0  0  0
    2.7285    2.2757   -0.0791 H   0  0  0  0  0  0  0  0  0  0  0  0
    5.1035   -2.1278   -0.0796 H   0  0  0  0  0  0  0  0  0  0  0  0
    7.2037    1.8830    0.9342 H   0  0  0  0  0  0  0  0  0  0  0  0
    7.3263    1.9535   -0.8422 H   0  0  0  0  0  0  0  0  0  0  0  0
  1  2  1  0  0  0  0
  1  3  2  0  0  0  0
  1 12  1  0  0  0  0
  2  4  1  0  0  0  0
  2 15  1  0  0  0  0
  2 16  1  0  0  0  0
  4 17  1  0  0  0  0
  4 18  1  0  0  0  0
  4 19  1  0  0  0  0
  5 14  1  0  0  0  0
  5 20  1  0  0  0  0
  6  7  1  0  0  0  0
  6  8  2  0  0  0  0
  6  9  1  0  0  0  0
  7 10  2  0  0  0  0
  7 11  1  0  0  0  0
  8 12  1  0  0  0  0
  8 21  1  0  0  0  0
  9 13  1  0  0  0  0
 10 14  1  0  0  0  0
 10 22  1  0  0  0  0
 11 13  1  0  0  0  0
 12 14  2  0  0  0  0
 13 23  1  0  0  0  0
 13 24  1  0  0  0  0
M  END
>  <Mol_ID>
10123

>  <Formula>
C10H10O4

>  <MolWeight>
194.184

>  <Cat>
S0971

>  <Name>
Kakuol

>  <Synonyms>
N/A

>  <Target>
Fungal

>  <Form>
free base

>  <CAS>
18607-90-4

>  <URL>
https://www.selleckchem.com/products/kakuol.html

$$$$
