KAN0438757
 OpenBabel08302521353D

 49 51  0  0  0  0  0  0  0  0999 V2000
    0.9802   -0.0848    0.1433 S   0  0  0  0  0  0  0  0  0  0  0  0
    5.0595    3.0050    5.5404 F   0  0  0  0  0  0  0  0  0  0  0  0
    0.5925   -0.8987   -0.9866 O   0  0  0  0  0  0  0  0  0  0  0  0
    0.5496   -0.4041    1.4869 O   0  0  0  0  0  0  0  0  0  0  0  0
    7.3891    2.2690    0.6545 O   0  0  0  0  0  0  0  0  0  0  0  0
    1.3733    4.9062    2.9676 O   0  0  0  0  0  0  0  0  0  0  0  0
   -0.4536    5.5441    4.6341 O   0  0  0  0  0  0  0  0  0  0  0  0
   -2.5916    4.8054    4.3381 O   0  0  0  0  0  0  0  0  0  0  0  0
   -0.1875    5.1864    7.4456 O   0  0  0  0  0  0  0  0  0  0  0  0
    0.4863    1.4936   -0.2701 N   0  0  0  0  0  0  0  0  0  0  0  0
    2.7613   -0.0136    0.1630 C   0  0  0  0  0  0  0  0  0  0  0  0
    4.8315    0.7903    1.2095 C   0  0  0  0  0  0  0  0  0  0  0  0
    3.4250    0.7815    1.1095 C   0  0  0  0  0  0  0  0  0  0  0  0
    5.5399    1.6889    2.1615 C   0  0  0  0  0  0  0  0  0  0  0  0
    0.0082    2.3287    0.7822 C   0  0  0  0  0  0  0  0  0  0  0  0
    3.4912   -0.8437   -0.6884 C   0  0  0  0  0  0  0  0  0  0  0  0
    5.5331   -0.1039    0.3780 C   0  0  0  0  0  0  0  0  0  0  0  0
    4.8764   -0.8962   -0.5701 C   0  0  0  0  0  0  0  0  0  0  0  0
    0.8757    3.2538    1.3553 C   0  0  0  0  0  0  0  0  0  0  0  0
   -1.2938    2.2080    1.2706 C   0  0  0  0  0  0  0  0  0  0  0  0
    6.7571    2.3473    1.8684 C   0  0  0  0  0  0  0  0  0  0  0  0
   -0.8532    3.9581    2.9254 C   0  0  0  0  0  0  0  0  0  0  0  0
    4.9957    1.9332    3.4390 C   0  0  0  0  0  0  0  0  0  0  0  0
    0.4569    4.0433    2.4315 C   0  0  0  0  0  0  0  0  0  0  0  0
   -1.7223    3.0255    2.3279 C   0  0  0  0  0  0  0  0  0  0  0  0
    7.4036    3.1724    2.7978 C   0  0  0  0  0  0  0  0  0  0  0  0
    5.6300    2.7818    4.3493 C   0  0  0  0  0  0  0  0  0  0  0  0
    6.8309    3.3987    4.0428 C   0  0  0  0  0  0  0  0  0  0  0  0
   -1.4095    4.8019    4.0320 C   0  0  0  0  0  0  0  0  0  0  0  0
   -0.8765    6.5618    5.5612 C   0  0  0  0  0  0  0  0  0  0  0  0
   -1.2458    5.9868    6.9242 C   0  0  0  0  0  0  0  0  0  0  0  0
    6.7454    1.9916   -0.0175 H   0  0  0  0  0  0  0  0  0  0  0  0
    2.2621    4.5331    2.8771 H   0  0  0  0  0  0  0  0  0  0  0  0
   -0.0874    4.4369    6.8316 H   0  0  0  0  0  0  0  0  0  0  0  0
   -0.1332    1.4185   -1.0812 H   0  0  0  0  0  0  0  0  0  0  0  0
    2.8294    1.3826    1.7911 H   0  0  0  0  0  0  0  0  0  0  0  0
    2.9912   -1.4858   -1.4131 H   0  0  0  0  0  0  0  0  0  0  0  0
    6.6145   -0.2077    0.4696 H   0  0  0  0  0  0  0  0  0  0  0  0
    5.4518   -1.5712   -1.2014 H   0  0  0  0  0  0  0  0  0  0  0  0
    1.8732    3.3766    0.9425 H   0  0  0  0  0  0  0  0  0  0  0  0
   -1.9826    1.4811    0.8486 H   0  0  0  0  0  0  0  0  0  0  0  0
    4.0739    1.4567    3.7615 H   0  0  0  0  0  0  0  0  0  0  0  0
   -2.7449    2.9230    2.6916 H   0  0  0  0  0  0  0  0  0  0  0  0
    8.3447    3.6498    2.5363 H   0  0  0  0  0  0  0  0  0  0  0  0
    7.3096    4.0500    4.7673 H   0  0  0  0  0  0  0  0  0  0  0  0
   -0.0186    7.2352    5.6720 H   0  0  0  0  0  0  0  0  0  0  0  0
   -1.7002    7.1484    5.1379 H   0  0  0  0  0  0  0  0  0  0  0  0
   -1.4301    6.8003    7.6329 H   0  0  0  0  0  0  0  0  0  0  0  0
   -2.1438    5.3657    6.8745 H   0  0  0  0  0  0  0  0  0  0  0  0
  1  3  2  0  0  0  0
  1  4  2  0  0  0  0
  1 10  1  0  0  0  0
  1 11  1  0  0  0  0
  2 27  1  0  0  0  0
  5 21  1  0  0  0  0
  5 32  1  0  0  0  0
  6 24  1  0  0  0  0
  6 33  1  0  0  0  0
  7 29  1  0  0  0  0
  7 30  1  0  0  0  0
  8 29  2  0  0  0  0
  9 31  1  0  0  0  0
  9 34  1  0  0  0  0
 10 15  1  0  0  0  0
 10 35  1  0  0  0  0
 11 13  2  0  0  0  0
 11 16  1  0  0  0  0
 12 13  1  0  0  0  0
 12 14  1  0  0  0  0
 12 17  2  0  0  0  0
 13 36  1  0  0  0  0
 14 21  2  0  0  0  0
 14 23  1  0  0  0  0
 15 19  2  0  0  0  0
 15 20  1  0  0  0  0
 16 18  2  0  0  0  0
 16 37  1  0  0  0  0
 17 18  1  0  0  0  0
 17 38  1  0  0  0  0
 18 39  1  0  0  0  0
 19 24  1  0  0  0  0
 19 40  1  0  0  0  0
 20 25  2  0  0  0  0
 20 41  1  0  0  0  0
 21 26  1  0  0  0  0
 22 24  2  0  0  0  0
 22 25  1  0  0  0  0
 22 29  1  0  0  0  0
 23 27  2  0  0  0  0
 23 42  1  0  0  0  0
 25 43  1  0  0  0  0
 26 28  2  0  0  0  0
 26 44  1  0  0  0  0
 27 28  1  0  0  0  0
 28 45  1  0  0  0  0
 30 31  1  0  0  0  0
 30 46  1  0  0  0  0
 30 47  1  0  0  0  0
 31 48  1  0  0  0  0
 31 49  1  0  0  0  0
M  END
>  <Mol_ID>
6629

>  <Formula>
C21H18FNO7S

>  <MolWeight>
447.4335232

>  <Cat>
S0400

>  <Name>
KAN0438757

>  <Synonyms>
N/A

>  <Target>
PFKFB

>  <Form>
Free base

>  <CAS>
1451255-59-6

>  <URL>
http://www.selleckchem.com/products/kan0438757.html

$$$$
