Karanjin
 OpenBabel08302521573D

 34 37  0  0  0  0  0  0  0  0999 V2000
    0.9318    0.1592   -0.1810 O   0  0  0  0  0  0  0  0  0  0  0  0
    2.2216   -2.4262    0.0523 O   0  0  0  0  0  0  0  0  0  0  0  0
    0.9001   -2.5130   -0.4700 C   0  0  0  0  0  0  0  0  0  0  0  0
    4.3353    1.2173   -0.1722 C   0  0  0  0  0  0  0  0  0  0  0  0
    5.0755    2.4184   -0.1429 C   0  0  0  0  0  0  0  0  0  0  0  0
    2.9454    1.3109   -0.1530 C   0  0  0  0  0  0  0  0  0  0  0  0
    4.9882    0.0081   -0.2197 O   0  0  0  0  0  0  0  0  0  0  0  0
    4.3840    3.6275   -0.1089 C   0  0  0  0  0  0  0  0  0  0  0  0
    6.4525    2.7762   -0.1320 C   0  0  0  0  0  0  0  0  0  0  0  0
    2.1551    0.0774   -0.1562 C   0  0  0  0  0  0  0  0  0  0  0  0
    2.2812    2.5493   -0.1151 C   0  0  0  0  0  0  0  0  0  0  0  0
    4.2460   -1.1699   -0.1523 C   0  0  0  0  0  0  0  0  0  0  0  0
    2.9981    3.7449   -0.0971 C   0  0  0  0  0  0  0  0  0  0  0  0
    5.2514    4.6743   -0.0840 O   0  0  0  0  0  0  0  0  0  0  0  0
    6.5031    4.1510   -0.0969 C   0  0  0  0  0  0  0  0  0  0  0  0
    2.8935   -1.2200   -0.1103 C   0  0  0  0  0  0  0  0  0  0  0  0
    5.1029   -2.3899   -0.0585 C   0  0  0  0  0  0  0  0  0  0  0  0
    4.7344   -3.6175   -0.6364 C   0  0  0  0  0  0  0  0  0  0  0  0
    6.3184   -2.3456    0.6455 C   0  0  0  0  0  0  0  0  0  0  0  0
    5.4890   -4.7766   -0.4284 C   0  0  0  0  0  0  0  0  0  0  0  0
    7.0866   -3.5006    0.8373 C   0  0  0  0  0  0  0  0  0  0  0  0
    6.6575   -4.7207    0.3228 C   0  0  0  0  0  0  0  0  0  0  0  0
    0.1861   -2.0206    0.1959 H   0  0  0  0  0  0  0  0  0  0  0  0
    0.8413   -2.1201   -1.4908 H   0  0  0  0  0  0  0  0  0  0  0  0
    0.6235   -3.5711   -0.5037 H   0  0  0  0  0  0  0  0  0  0  0  0
    7.3035    2.1105   -0.1443 H   0  0  0  0  0  0  0  0  0  0  0  0
    1.1923    2.5855   -0.0967 H   0  0  0  0  0  0  0  0  0  0  0  0
    2.5079    4.7108   -0.0681 H   0  0  0  0  0  0  0  0  0  0  0  0
    7.3069    4.8739   -0.0769 H   0  0  0  0  0  0  0  0  0  0  0  0
    3.8335   -3.7009   -1.2394 H   0  0  0  0  0  0  0  0  0  0  0  0
    6.6723   -1.4130    1.0790 H   0  0  0  0  0  0  0  0  0  0  0  0
    5.1511   -5.7233   -0.8426 H   0  0  0  0  0  0  0  0  0  0  0  0
    8.0113   -3.4493    1.4064 H   0  0  0  0  0  0  0  0  0  0  0  0
    7.2322   -5.6252    0.5044 H   0  0  0  0  0  0  0  0  0  0  0  0
  1 10  2  0  0  0  0
  2  3  1  0  0  0  0
  2 16  1  0  0  0  0
  3 23  1  0  0  0  0
  3 24  1  0  0  0  0
  3 25  1  0  0  0  0
  4  5  2  0  0  0  0
  4  6  1  0  0  0  0
  4  7  1  0  0  0  0
  5  8  1  0  0  0  0
  5  9  1  0  0  0  0
  6 10  1  0  0  0  0
  6 11  2  0  0  0  0
  7 12  1  0  0  0  0
  8 13  2  0  0  0  0
  8 14  1  0  0  0  0
  9 15  2  0  0  0  0
  9 26  1  0  0  0  0
 10 16  1  0  0  0  0
 11 13  1  0  0  0  0
 11 27  1  0  0  0  0
 12 16  2  0  0  0  0
 12 17  1  0  0  0  0
 13 28  1  0  0  0  0
 14 15  1  0  0  0  0
 15 29  1  0  0  0  0
 17 18  2  0  0  0  0
 17 19  1  0  0  0  0
 18 20  1  0  0  0  0
 18 30  1  0  0  0  0
 19 21  2  0  0  0  0
 19 31  1  0  0  0  0
 20 22  2  0  0  0  0
 20 32  1  0  0  0  0
 21 22  1  0  0  0  0
 21 33  1  0  0  0  0
 22 34  1  0  0  0  0
M  END
>  <Mol_ID>
10071

>  <Formula>
C18H12O4

>  <MolWeight>
292.28548

>  <Cat>
E5709

>  <Name>
Karanjin

>  <Synonyms>
NA

>  <Target>
Apoptosis

>  <Form>
Free Base

>  <CAS>
521-88-0

>  <URL>
https://www.selleckchem.com/products/karanjin.html

$$$$
