Kartogenin.cdx
 OpenBabel08302519583D

 39 41  0  0  0  0  0  0  0  0999 V2000
    1.3940   -0.4247   -0.4213 C   0  0  0  0  0  0  0  0  0  0  0  0
    0.5464   -1.4998   -0.1916 C   0  0  0  0  0  0  0  0  0  0  0  0
   -0.7521   -1.2702    0.2512 C   0  0  0  0  0  0  0  0  0  0  0  0
   -1.1977    0.0397    0.4708 C   0  0  0  0  0  0  0  0  0  0  0  0
   -0.3531    1.1486    0.2721 C   0  0  0  0  0  0  0  0  0  0  0  0
    0.9509    0.8799   -0.1871 C   0  0  0  0  0  0  0  0  0  0  0  0
   -0.7931    2.5369    0.5672 C   0  0  0  0  0  0  0  0  0  0  0  0
   -1.7313    2.8078    1.5769 C   0  0  0  0  0  0  0  0  0  0  0  0
   -2.1143    4.1175    1.8968 C   0  0  0  0  0  0  0  0  0  0  0  0
   -1.5600    5.2033    1.2240 C   0  0  0  0  0  0  0  0  0  0  0  0
   -0.6340    4.9560    0.2102 C   0  0  0  0  0  0  0  0  0  0  0  0
   -0.2675    3.6435   -0.1182 C   0  0  0  0  0  0  0  0  0  0  0  0
   -1.8853    6.5481    1.4944 N   0  0  0  0  0  0  0  0  0  0  0  0
   -2.7821    7.0062    2.4395 C   0  0  0  0  0  0  0  0  0  0  0  0
   -3.4088    6.3381    3.2522 O   0  0  0  0  0  0  0  0  0  0  0  0
   -3.0241    8.4675    2.4571 C   0  0  0  0  0  0  0  0  0  0  0  0
   -3.2649    9.2350    1.3110 C   0  0  0  0  0  0  0  0  0  0  0  0
   -3.4224   10.6256    1.4353 C   0  0  0  0  0  0  0  0  0  0  0  0
   -3.4023   11.2337    2.6919 C   0  0  0  0  0  0  0  0  0  0  0  0
   -3.2326   10.4593    3.8360 C   0  0  0  0  0  0  0  0  0  0  0  0
   -3.0433    9.0823    3.7204 C   0  0  0  0  0  0  0  0  0  0  0  0
   -3.3626    8.6869   -0.0611 C   0  0  0  0  0  0  0  0  0  0  0  0
   -4.0897    7.5617   -0.1805 O   0  0  0  0  0  0  0  0  0  0  0  0
   -2.8472    9.2512   -1.0094 O   0  0  0  0  0  0  0  0  0  0  0  0
    2.4099   -0.5942   -0.7712 H   0  0  0  0  0  0  0  0  0  0  0  0
    0.8959   -2.5165   -0.3542 H   0  0  0  0  0  0  0  0  0  0  0  0
   -1.4202   -2.1068    0.4359 H   0  0  0  0  0  0  0  0  0  0  0  0
   -2.2238    0.1762    0.8021 H   0  0  0  0  0  0  0  0  0  0  0  0
    1.6571    1.6903   -0.3505 H   0  0  0  0  0  0  0  0  0  0  0  0
   -2.1735    2.0030    2.1583 H   0  0  0  0  0  0  0  0  0  0  0  0
   -2.8429    4.2426    2.6908 H   0  0  0  0  0  0  0  0  0  0  0  0
   -0.1811    5.7737   -0.3449 H   0  0  0  0  0  0  0  0  0  0  0  0
    0.4434    3.5066   -0.9300 H   0  0  0  0  0  0  0  0  0  0  0  0
   -1.4068    7.2312    0.9152 H   0  0  0  0  0  0  0  0  0  0  0  0
   -3.5718   11.2409    0.5482 H   0  0  0  0  0  0  0  0  0  0  0  0
   -3.5302   12.3108    2.7775 H   0  0  0  0  0  0  0  0  0  0  0  0
   -3.2420   10.9258    4.8188 H   0  0  0  0  0  0  0  0  0  0  0  0
   -2.9069    8.4843    4.6211 H   0  0  0  0  0  0  0  0  0  0  0  0
   -4.4898    7.1819    0.6263 H   0  0  0  0  0  0  0  0  0  0  0  0
  1  2  2  0  0  0  0
  1 25  1  0  0  0  0
  2  3  1  0  0  0  0
  2 26  1  0  0  0  0
  3  4  2  0  0  0  0
  3 27  1  0  0  0  0
  4  5  1  0  0  0  0
  4 28  1  0  0  0  0
  5  6  2  0  0  0  0
  5  7  1  0  0  0  0
  6  1  1  0  0  0  0
  6 29  1  0  0  0  0
  7  8  2  0  0  0  0
  8  9  1  0  0  0  0
  8 30  1  0  0  0  0
  9 10  2  0  0  0  0
  9 31  1  0  0  0  0
 10 11  1  0  0  0  0
 10 13  1  0  0  0  0
 11 12  2  0  0  0  0
 11 32  1  0  0  0  0
 12  7  1  0  0  0  0
 12 33  1  0  0  0  0
 13 14  1  0  0  0  0
 13 34  1  0  0  0  0
 14 15  2  0  0  0  0
 14 16  1  0  0  0  0
 16 17  2  0  0  0  0
 17 18  1  0  0  0  0
 17 22  1  0  0  0  0
 18 19  2  0  0  0  0
 18 35  1  0  0  0  0
 19 20  1  0  0  0  0
 19 36  1  0  0  0  0
 20 21  2  0  0  0  0
 20 37  1  0  0  0  0
 21 16  1  0  0  0  0
 21 38  1  0  0  0  0
 22 23  1  0  0  0  0
 22 24  2  0  0  0  0
 23 39  1  0  0  0  0
M  END
>  <Mol_ID>
2490

>  <Formula>
C20H15NO3

>  <MolWeight>
317.338

>  <Cat>
S7658

>  <Name>
Kartogenin

>  <Synonyms>
KGN

>  <Target>
TGF-beta/Smad

>  <Form>
free base

>  <CAS>
4727-31-5

>  <URL>
http://selleckchem.com/products/kartogenin.html

$$$$
