KB-0742 Dihydrochloride
 OpenBabel08302521353D

 46 48  0  0  0  0  0  0  0  0999 V2000
   -2.0872    0.8232    0.0561 C   0  0  0  0  0  0  0  0  0  0  0  0
   -2.0443   -0.6734    0.0889 C   0  0  0  0  0  0  0  0  0  0  0  0
   -0.9533   -1.3889    0.0427 N   0  0  0  0  0  0  0  0  0  0  0  0
    0.2264   -0.7029    0.0140 C   0  0  0  0  0  0  0  0  0  0  0  0
    0.2815    0.6961    0.0407 N   0  0  0  0  0  0  0  0  0  0  0  0
   -0.9092    1.4694    0.0542 C   0  0  0  0  0  0  0  0  0  0  0  0
   -0.8435    2.8711    0.1311 N   0  0  0  0  0  0  0  0  0  0  0  0
   -3.3968   -1.3812    0.1911 C   0  0  0  0  0  0  0  0  0  0  0  0
   -3.9657   -1.6545   -1.2129 C   0  0  0  0  0  0  0  0  0  0  0  0
   -3.3413   -2.6377    1.0773 C   0  0  0  0  0  0  0  0  0  0  0  0
   -2.9708   -2.3133    2.5217 C   0  0  0  0  0  0  0  0  0  0  0  0
   -3.1255   -2.5658   -2.0970 C   0  0  0  0  0  0  0  0  0  0  0  0
   -0.5465    3.6582   -1.0761 C   0  0  2  0  0  0  0  0  0  0  0  0
    0.7414    4.4847   -0.9260 C   0  0  0  0  0  0  0  0  0  0  0  0
    0.3842    5.9195   -1.3319 C   0  0  2  0  0  0  0  0  0  0  0  0
   -0.9727    5.8368   -2.0170 C   0  0  0  0  0  0  0  0  0  0  0  0
   -1.6617    4.6787   -1.3138 C   0  0  0  0  0  0  0  0  0  0  0  0
    1.5267   -1.1460   -0.0129 C   0  0  0  0  0  0  0  0  0  0  0  0
    2.3045    0.0188    0.0072 C   0  0  0  0  0  0  0  0  0  0  0  0
    1.5745    1.1365    0.0552 N   0  0  0  0  0  0  0  0  0  0  0  0
    1.3864    6.5226   -2.1978 N   0  0  0  0  0  0  0  0  0  0  0  0
   -3.0363    1.3340    0.0856 H   0  0  0  0  0  0  0  0  0  0  0  0
   -0.1255    3.0848    0.8322 H   0  0  0  0  0  0  0  0  0  0  0  0
   -4.0928   -0.6828    0.6759 H   0  0  0  0  0  0  0  0  0  0  0  0
   -4.9655   -2.0930   -1.1107 H   0  0  0  0  0  0  0  0  0  0  0  0
   -4.1005   -0.7002   -1.7386 H   0  0  0  0  0  0  0  0  0  0  0  0
   -4.3249   -3.1228    1.0768 H   0  0  0  0  0  0  0  0  0  0  0  0
   -2.6248   -3.3679    0.6862 H   0  0  0  0  0  0  0  0  0  0  0  0
   -3.6803   -1.6049    2.9610 H   0  0  0  0  0  0  0  0  0  0  0  0
   -2.9814   -3.2243    3.1278 H   0  0  0  0  0  0  0  0  0  0  0  0
   -1.9679   -1.8800    2.5954 H   0  0  0  0  0  0  0  0  0  0  0  0
   -2.9305   -3.5295   -1.6200 H   0  0  0  0  0  0  0  0  0  0  0  0
   -3.6533   -2.7588   -3.0368 H   0  0  0  0  0  0  0  0  0  0  0  0
   -2.1685   -2.1009   -2.3521 H   0  0  0  0  0  0  0  0  0  0  0  0
   -0.4524    3.0118   -1.9606 H   0  0  0  0  0  0  0  0  0  0  0  0
    1.1405    4.4833    0.0956 H   0  0  0  0  0  0  0  0  0  0  0  0
    1.5267    4.0580   -1.5606 H   0  0  0  0  0  0  0  0  0  0  0  0
    0.2945    6.5290   -0.4208 H   0  0  0  0  0  0  0  0  0  0  0  0
   -1.5393    6.7680   -1.9214 H   0  0  0  0  0  0  0  0  0  0  0  0
   -0.8702    5.6162   -3.0870 H   0  0  0  0  0  0  0  0  0  0  0  0
   -2.4701    4.2613   -1.9236 H   0  0  0  0  0  0  0  0  0  0  0  0
   -2.1015    5.0177   -0.3677 H   0  0  0  0  0  0  0  0  0  0  0  0
    1.8505   -2.1744   -0.0324 H   0  0  0  0  0  0  0  0  0  0  0  0
    3.3845    0.0963   -0.0037 H   0  0  0  0  0  0  0  0  0  0  0  0
    2.3005    6.5068   -1.7485 H   0  0  0  0  0  0  0  0  0  0  0  0
    1.1580    7.4999   -2.3721 H   0  0  0  0  0  0  0  0  0  0  0  0
  1  2  1  0  0  0  0
  1 22  1  0  0  0  0
  2  3  2  0  0  0  0
  2  8  1  0  0  0  0
  3  4  1  0  0  0  0
  4  5  1  0  0  0  0
  4 18  2  0  0  0  0
  5  6  1  0  0  0  0
  6  1  2  0  0  0  0
  6  7  1  0  0  0  0
  7 23  1  0  0  0  0
  8  9  1  0  0  0  0
  8 10  1  0  0  0  0
  8 24  1  0  0  0  0
  9 12  1  0  0  0  0
  9 25  1  0  0  0  0
  9 26  1  0  0  0  0
 10 11  1  0  0  0  0
 10 27  1  0  0  0  0
 10 28  1  0  0  0  0
 11 29  1  0  0  0  0
 11 30  1  0  0  0  0
 11 31  1  0  0  0  0
 12 32  1  0  0  0  0
 12 33  1  0  0  0  0
 12 34  1  0  0  0  0
 13  7  1  0  0  0  0
 13 14  1  0  0  0  0
 13 35  1  6  0  0  0
 14 15  1  0  0  0  0
 14 36  1  0  0  0  0
 14 37  1  0  0  0  0
 15 16  1  0  0  0  0
 15 38  1  1  0  0  0
 15 21  1  0  0  0  0
 16 17  1  0  0  0  0
 16 39  1  0  0  0  0
 16 40  1  0  0  0  0
 17 13  1  0  0  0  0
 17 41  1  0  0  0  0
 17 42  1  0  0  0  0
 18 19  1  0  0  0  0
 18 43  1  0  0  0  0
 19 20  2  0  0  0  0
 19 44  1  0  0  0  0
 20  5  1  0  0  0  0
 21 45  1  0  0  0  0
 21 46  1  0  0  0  0
M  END
>  <Mol_ID>
6781

>  <Formula>
C16H27Cl2N5

>  <MolWeight>
360.32508

>  <Cat>
S9901

>  <Name>
KB-0742 Dihydrochloride

>  <Synonyms>
N/A

>  <Target>
CDK

>  <Form>
Dihydrochloride

>  <CAS>
2416874-75-2

>  <URL>
http://www.selleckchem.com/products/kb-0742-dihydrochloride.html

$$$$
