KB-R7943 mesylate
 OpenBabel08302521313D

 49 49  0  0  0  0  0  0  0  0999 V2000
   -0.2156    3.2138   -4.4459 S   0  0  0  0  0  0  0  0  0  0  0  0
    2.3674   -2.0418   -0.0673 S   0  0  0  0  0  0  0  0  0  0  0  0
    6.3542    1.9850   -1.7379 O   0  0  0  0  0  0  0  0  0  0  0  0
   11.6471    1.2145    2.8041 O   0  5  0  0  0  0  0  0  0  0  0  0
   12.1460   -0.7364    1.9331 O   0  0  0  0  0  0  0  0  0  0  0  0
    1.7438   -0.6908   -0.6621 O   0  0  0  0  0  0  0  0  0  0  0  0
    2.1537   -3.1121   -1.0112 O   0  0  0  0  0  0  0  0  0  0  0  0
    1.9614   -2.1132    1.3187 O   0  0  0  0  0  0  0  0  0  0  0  0
   11.4541    0.2891    2.0026 N   0  3  0  0  0  0  0  0  0  0  0  0
   -1.3468    1.7127   -6.2595 N   0  0  0  0  0  0  0  0  0  0  0  0
   -1.1413    0.7498   -4.1607 N   0  0  0  0  0  0  0  0  0  0  0  0
    2.1931    2.1976   -2.2100 C   0  0  0  0  0  0  0  0  0  0  0  0
    0.6961    2.0874   -1.9928 C   0  0  0  0  0  0  0  0  0  0  0  0
    5.0109    2.0398   -2.0269 C   0  0  0  0  0  0  0  0  0  0  0  0
    2.9372    3.2949   -1.7646 C   0  0  0  0  0  0  0  0  0  0  0  0
    2.8914    1.0837   -2.6982 C   0  0  0  0  0  0  0  0  0  0  0  0
   -0.2661    3.0901   -2.6325 C   0  0  0  0  0  0  0  0  0  0  0  0
    6.8692    0.6618   -1.5157 C   0  0  0  0  0  0  0  0  0  0  0  0
    4.3387    3.2144   -1.6783 C   0  0  0  0  0  0  0  0  0  0  0  0
    4.2855    1.0053   -2.6112 C   0  0  0  0  0  0  0  0  0  0  0  0
    8.1237    0.6331   -0.6619 C   0  0  0  0  0  0  0  0  0  0  0  0
    8.3973    1.6414    0.2741 C   0  0  0  0  0  0  0  0  0  0  0  0
    8.9659   -0.4944   -0.7089 C   0  0  0  0  0  0  0  0  0  0  0  0
   10.3211    0.4118    1.0761 C   0  0  0  0  0  0  0  0  0  0  0  0
    9.4915    1.5384    1.1393 C   0  0  0  0  0  0  0  0  0  0  0  0
   10.0645   -0.6062    0.1502 C   0  0  0  0  0  0  0  0  0  0  0  0
   -0.9801    1.7384   -4.9597 C   0  0  0  0  0  0  0  0  0  0  0  0
    4.0780   -1.5593   -0.1253 C   0  0  0  0  0  0  0  0  0  0  0  0
    1.7255    0.0157    0.0133 H   0  0  0  0  0  0  0  0  0  0  0  0
   -1.4623    0.8031   -6.6902 H   0  0  0  0  0  0  0  0  0  0  0  0
   -0.8701    2.3866   -6.8435 H   0  0  0  0  0  0  0  0  0  0  0  0
   -1.5886   -0.0173   -4.6661 H   0  0  0  0  0  0  0  0  0  0  0  0
    0.5513    2.1554   -0.9039 H   0  0  0  0  0  0  0  0  0  0  0  0
    0.3717    1.0700   -2.2340 H   0  0  0  0  0  0  0  0  0  0  0  0
    2.4377    4.1981   -1.4218 H   0  0  0  0  0  0  0  0  0  0  0  0
    2.3409    0.2211   -3.0748 H   0  0  0  0  0  0  0  0  0  0  0  0
   -0.0618    4.0904   -2.2349 H   0  0  0  0  0  0  0  0  0  0  0  0
   -1.2898    2.8472   -2.3197 H   0  0  0  0  0  0  0  0  0  0  0  0
    6.1408    0.0573   -0.9663 H   0  0  0  0  0  0  0  0  0  0  0  0
    7.0791    0.1993   -2.4875 H   0  0  0  0  0  0  0  0  0  0  0  0
    4.8992    4.0582   -1.2832 H   0  0  0  0  0  0  0  0  0  0  0  0
    4.7671    0.0999   -2.9656 H   0  0  0  0  0  0  0  0  0  0  0  0
    7.7483    2.5134    0.3439 H   0  0  0  0  0  0  0  0  0  0  0  0
    8.7613   -1.3064   -1.4051 H   0  0  0  0  0  0  0  0  0  0  0  0
    9.6730    2.3345    1.8584 H   0  0  0  0  0  0  0  0  0  0  0  0
   10.6949   -1.4924    0.0966 H   0  0  0  0  0  0  0  0  0  0  0  0
    4.1997   -0.6201    0.4188 H   0  0  0  0  0  0  0  0  0  0  0  0
    4.6729   -2.3433    0.3490 H   0  0  0  0  0  0  0  0  0  0  0  0
    4.3708   -1.4549   -1.1688 H   0  0  0  0  0  0  0  0  0  0  0  0
  1 17  1  0  0  0  0
  1 27  1  0  0  0  0
  2  6  1  0  0  0  0
  2  7  2  0  0  0  0
  2  8  2  0  0  0  0
  2 28  1  0  0  0  0
  3 14  1  0  0  0  0
  3 18  1  0  0  0  0
  4  9  1  0  0  0  0
  5  9  2  0  0  0  0
  6 29  1  0  0  0  0
  9 24  1  0  0  0  0
 10 27  1  0  0  0  0
 10 30  1  0  0  0  0
 10 31  1  0  0  0  0
 11 27  2  0  0  0  0
 11 32  1  0  0  0  0
 12 13  1  0  0  0  0
 12 15  2  0  0  0  0
 12 16  1  0  0  0  0
 13 17  1  0  0  0  0
 13 33  1  0  0  0  0
 13 34  1  0  0  0  0
 14 19  2  0  0  0  0
 14 20  1  0  0  0  0
 15 19  1  0  0  0  0
 15 35  1  0  0  0  0
 16 20  2  0  0  0  0
 16 36  1  0  0  0  0
 17 37  1  0  0  0  0
 17 38  1  0  0  0  0
 18 21  1  0  0  0  0
 18 39  1  0  0  0  0
 18 40  1  0  0  0  0
 19 41  1  0  0  0  0
 20 42  1  0  0  0  0
 21 22  2  0  0  0  0
 21 23  1  0  0  0  0
 22 25  1  0  0  0  0
 22 43  1  0  0  0  0
 23 26  2  0  0  0  0
 23 44  1  0  0  0  0
 24 25  2  0  0  0  0
 24 26  1  0  0  0  0
 25 45  1  0  0  0  0
 26 46  1  0  0  0  0
 28 47  1  0  0  0  0
 28 48  1  0  0  0  0
 28 49  1  0  0  0  0
M  CHG  2   4  -1   9   1
M  END
>  <Mol_ID>
5742

>  <Formula>
C17H21N3O6S2

>  <MolWeight>
427.49514

>  <Cat>
S4643

>  <Name>
KB-R7943 mesylate

>  <Synonyms>
N/A

>  <Target>
Autophagy,JNK,NCX

>  <Form>
Mesylate

>  <CAS>
182004-65-5

>  <URL>
http://www.selleckchem.com/products/kb-r7943-mesylate.html

$$$$
