KCC-07
 OpenBabel08302521383D

 30 32  0  0  0  0  0  0  0  0999 V2000
    0.9508    0.2809   -0.1482 N   0  0  0  0  0  0  0  0  0  0  0  0
    4.6772   -1.1678    2.5678 O   0  0  0  0  0  0  0  0  0  0  0  0
   -0.1931   -0.5790   -3.3810 C   0  0  0  0  0  0  0  0  0  0  0  0
    0.6450   -0.7019   -2.2847 N   0  0  0  0  0  0  0  0  0  0  0  0
   -1.1842    0.3719   -3.2395 C   0  0  0  0  0  0  0  0  0  0  0  0
    0.3067    0.1408   -1.3344 C   0  0  0  0  0  0  0  0  0  0  0  0
   -1.0806    1.1007   -1.6922 S   0  0  0  0  0  0  0  0  0  0  0  0
   -0.0160   -1.3968   -4.5781 C   0  0  0  0  0  0  0  0  0  0  0  0
    0.9874   -2.3618   -4.6291 C   0  0  0  0  0  0  0  0  0  0  0  0
   -0.8650   -1.1673   -5.6135 N   0  0  0  0  0  0  0  0  0  0  0  0
    1.1285   -3.1251   -5.7850 C   0  0  0  0  0  0  0  0  0  0  0  0
   -0.7013   -1.9236   -6.7211 C   0  0  0  0  0  0  0  0  0  0  0  0
    0.2686   -2.9036   -6.8532 C   0  0  0  0  0  0  0  0  0  0  0  0
    2.3363    0.0442    0.0059 C   0  0  0  0  0  0  0  0  0  0  0  0
    2.8164   -0.4307    1.2321 C   0  0  0  0  0  0  0  0  0  0  0  0
    3.2570    0.3202   -1.0180 C   0  0  0  0  0  0  0  0  0  0  0  0
    4.1809   -0.6643    1.4006 C   0  0  0  0  0  0  0  0  0  0  0  0
    4.6235    0.1008   -0.8341 C   0  0  0  0  0  0  0  0  0  0  0  0
    5.0851   -0.3991    0.3791 C   0  0  0  0  0  0  0  0  0  0  0  0
    0.6292    1.0341    0.4491 H   0  0  0  0  0  0  0  0  0  0  0  0
    3.9324   -1.3930    3.1488 H   0  0  0  0  0  0  0  0  0  0  0  0
   -1.9446    0.6573   -3.9524 H   0  0  0  0  0  0  0  0  0  0  0  0
    1.6498   -2.5204   -3.7828 H   0  0  0  0  0  0  0  0  0  0  0  0
    1.9030   -3.8844   -5.8475 H   0  0  0  0  0  0  0  0  0  0  0  0
   -1.3963   -1.7142   -7.5291 H   0  0  0  0  0  0  0  0  0  0  0  0
    0.3517   -3.4802   -7.7676 H   0  0  0  0  0  0  0  0  0  0  0  0
    2.1155   -0.6472    2.0319 H   0  0  0  0  0  0  0  0  0  0  0  0
    2.9172    0.7155   -1.9719 H   0  0  0  0  0  0  0  0  0  0  0  0
    5.3191    0.3169   -1.6389 H   0  0  0  0  0  0  0  0  0  0  0  0
    6.1446   -0.5884    0.5253 H   0  0  0  0  0  0  0  0  0  0  0  0
  1  6  1  0  0  0  0
  1 14  1  0  0  0  0
  1 20  1  0  0  0  0
  2 17  1  0  0  0  0
  2 21  1  0  0  0  0
  3  4  1  0  0  0  0
  3  5  2  0  0  0  0
  3  8  1  0  0  0  0
  4  6  2  0  0  0  0
  5  7  1  0  0  0  0
  5 22  1  0  0  0  0
  6  7  1  0  0  0  0
  8  9  2  0  0  0  0
  8 10  1  0  0  0  0
  9 11  1  0  0  0  0
  9 23  1  0  0  0  0
 10 12  2  0  0  0  0
 11 13  2  0  0  0  0
 11 24  1  0  0  0  0
 12 13  1  0  0  0  0
 12 25  1  0  0  0  0
 13 26  1  0  0  0  0
 14 15  2  0  0  0  0
 14 16  1  0  0  0  0
 15 17  1  0  0  0  0
 15 27  1  0  0  0  0
 16 18  2  0  0  0  0
 16 28  1  0  0  0  0
 17 19  2  0  0  0  0
 18 19  1  0  0  0  0
 18 29  1  0  0  0  0
 19 30  1  0  0  0  0
M  END
>  <Mol_ID>
7674

>  <Formula>
C14H11N3OS

>  <MolWeight>
269.32164

>  <Cat>
S0984

>  <Name>
KCC-07

>  <Target>
Others

>  <Form>
free base

>  <CAS>
315702-75-1

>  <URL>
https://www.selleckchem.com/products/kcc-07.html

$$$$
