KD025 (SLx-2119).cdx
 OpenBabel08302519593D

 58 62  0  0  0  0  0  0  0  0999 V2000
    2.5213    0.7283    0.0182 C   0  0  0  0  0  0  0  0  0  0  0  0
    2.4915   -0.6597   -0.0033 C   0  0  0  0  0  0  0  0  0  0  0  0
    1.2646   -1.3262   -0.0508 C   0  0  0  0  0  0  0  0  0  0  0  0
    0.0573   -0.6407   -0.0812 C   0  0  0  0  0  0  0  0  0  0  0  0
    0.0799    0.7607   -0.0664 C   0  0  0  0  0  0  0  0  0  0  0  0
    1.3233    1.4398   -0.0094 C   0  0  0  0  0  0  0  0  0  0  0  0
   -1.0740   -1.3508   -0.0887 N   0  0  0  0  0  0  0  0  0  0  0  0
   -2.2273   -0.6664   -0.1034 C   0  0  0  0  0  0  0  0  0  0  0  0
   -2.3202    0.6666   -0.1089 N   0  0  0  0  0  0  0  0  0  0  0  0
   -1.1809    1.3749   -0.0530 C   0  0  0  0  0  0  0  0  0  0  0  0
   -1.2916    2.7839    0.0571 N   0  0  0  0  0  0  0  0  0  0  0  0
   -2.3689    3.4623    0.6795 C   0  0  0  0  0  0  0  0  0  0  0  0
   -3.0521    2.8826    1.7671 C   0  0  0  0  0  0  0  0  0  0  0  0
   -4.0823    3.5861    2.4114 C   0  0  0  0  0  0  0  0  0  0  0  0
   -4.3905    4.8696    1.9830 C   0  0  0  0  0  0  0  0  0  0  0  0
   -3.7138    5.4997    0.9341 C   0  0  0  0  0  0  0  0  0  0  0  0
   -2.6900    4.7737    0.3019 C   0  0  0  0  0  0  0  0  0  0  0  0
   -4.9718    3.3376    3.4765 C   0  0  0  0  0  0  0  0  0  0  0  0
   -5.7890    4.3671    3.7147 N   0  0  0  0  0  0  0  0  0  0  0  0
   -5.4136    5.2765    2.7961 N   0  0  0  0  0  0  0  0  0  0  0  0
   -3.4865   -1.4097    0.0328 C   0  0  0  0  0  0  0  0  0  0  0  0
   -3.5396   -2.6054    0.7662 C   0  0  0  0  0  0  0  0  0  0  0  0
   -4.7511   -3.2609    0.9830 C   0  0  0  0  0  0  0  0  0  0  0  0
   -5.9336   -2.7449    0.4501 C   0  0  0  0  0  0  0  0  0  0  0  0
   -5.9092   -1.5758   -0.3100 C   0  0  0  0  0  0  0  0  0  0  0  0
   -4.6928   -0.9125   -0.5016 C   0  0  0  0  0  0  0  0  0  0  0  0
   -7.0045   -0.9632   -0.8629 O   0  0  0  0  0  0  0  0  0  0  0  0
   -8.1172   -1.8124   -1.1279 C   0  0  0  0  0  0  0  0  0  0  0  0
   -9.2959   -1.0743   -1.7687 C   0  0  0  0  0  0  0  0  0  0  0  0
   -9.1208    0.2817   -1.9431 N   0  0  0  0  0  0  0  0  0  0  0  0
  -10.3225   -1.6677   -2.0895 O   0  0  0  0  0  0  0  0  0  0  0  0
  -10.1806    1.1442   -2.4449 C   0  0  0  0  0  0  0  0  0  0  0  0
  -11.0722    1.6378   -1.3071 C   0  0  0  0  0  0  0  0  0  0  0  0
   -9.5842    2.3195   -3.2109 C   0  0  0  0  0  0  0  0  0  0  0  0
    3.4715    1.2541    0.0692 H   0  0  0  0  0  0  0  0  0  0  0  0
    3.4164   -1.2304    0.0283 H   0  0  0  0  0  0  0  0  0  0  0  0
    1.2504   -2.4144   -0.0498 H   0  0  0  0  0  0  0  0  0  0  0  0
    1.3556    2.5260    0.0365 H   0  0  0  0  0  0  0  0  0  0  0  0
   -0.9728    3.2222   -0.7992 H   0  0  0  0  0  0  0  0  0  0  0  0
   -2.7967    1.8875    2.1174 H   0  0  0  0  0  0  0  0  0  0  0  0
   -3.9599    6.5086    0.6200 H   0  0  0  0  0  0  0  0  0  0  0  0
   -2.1466    5.2536   -0.5088 H   0  0  0  0  0  0  0  0  0  0  0  0
   -5.0549    2.4447    4.0872 H   0  0  0  0  0  0  0  0  0  0  0  0
   -5.9002    6.1664    2.7793 H   0  0  0  0  0  0  0  0  0  0  0  0
   -2.6304   -3.0113    1.2084 H   0  0  0  0  0  0  0  0  0  0  0  0
   -4.7736   -4.1639    1.5877 H   0  0  0  0  0  0  0  0  0  0  0  0
   -6.8564   -3.2696    0.6722 H   0  0  0  0  0  0  0  0  0  0  0  0
   -4.6824    0.0146   -1.0737 H   0  0  0  0  0  0  0  0  0  0  0  0
   -7.8175   -2.6067   -1.8224 H   0  0  0  0  0  0  0  0  0  0  0  0
   -8.5102   -2.2361   -0.1975 H   0  0  0  0  0  0  0  0  0  0  0  0
   -8.2852    0.6908   -1.5360 H   0  0  0  0  0  0  0  0  0  0  0  0
  -10.7994    0.5581   -3.1350 H   0  0  0  0  0  0  0  0  0  0  0  0
  -10.5056    2.2446   -0.5921 H   0  0  0  0  0  0  0  0  0  0  0  0
  -11.8935    2.2505   -1.6953 H   0  0  0  0  0  0  0  0  0  0  0  0
  -11.5103    0.7996   -0.7549 H   0  0  0  0  0  0  0  0  0  0  0  0
   -8.9348    1.9653   -4.0187 H   0  0  0  0  0  0  0  0  0  0  0  0
  -10.3731    2.9355   -3.6553 H   0  0  0  0  0  0  0  0  0  0  0  0
   -8.9807    2.9571   -2.5556 H   0  0  0  0  0  0  0  0  0  0  0  0
  1  2  2  0  0  0  0
  1 35  1  0  0  0  0
  2  3  1  0  0  0  0
  2 36  1  0  0  0  0
  3  4  2  0  0  0  0
  3 37  1  0  0  0  0
  4  5  1  0  0  0  0
  4  7  1  0  0  0  0
  5  6  2  0  0  0  0
  6  1  1  0  0  0  0
  6 38  1  0  0  0  0
  7  8  2  0  0  0  0
  8  9  1  0  0  0  0
  8 21  1  0  0  0  0
  9 10  2  0  0  0  0
 10  5  1  0  0  0  0
 10 11  1  0  0  0  0
 11 12  1  0  0  0  0
 11 39  1  0  0  0  0
 12 13  2  0  0  0  0
 13 14  1  0  0  0  0
 13 40  1  0  0  0  0
 14 15  2  0  0  0  0
 14 18  1  0  0  0  0
 15 16  1  0  0  0  0
 16 17  2  0  0  0  0
 16 41  1  0  0  0  0
 17 12  1  0  0  0  0
 17 42  1  0  0  0  0
 18 19  2  0  0  0  0
 18 43  1  0  0  0  0
 19 20  1  0  0  0  0
 20 15  1  0  0  0  0
 20 44  1  0  0  0  0
 21 22  2  0  0  0  0
 22 23  1  0  0  0  0
 22 45  1  0  0  0  0
 23 24  2  0  0  0  0
 23 46  1  0  0  0  0
 24 25  1  0  0  0  0
 24 47  1  0  0  0  0
 25 26  2  0  0  0  0
 25 27  1  0  0  0  0
 26 21  1  0  0  0  0
 26 48  1  0  0  0  0
 27 28  1  0  0  0  0
 28 29  1  0  0  0  0
 28 49  1  0  0  0  0
 28 50  1  0  0  0  0
 29 30  1  0  0  0  0
 29 31  2  0  0  0  0
 30 32  1  0  0  0  0
 30 51  1  0  0  0  0
 32 33  1  0  0  0  0
 32 34  1  0  0  0  0
 32 52  1  0  0  0  0
 33 53  1  0  0  0  0
 33 54  1  0  0  0  0
 33 55  1  0  0  0  0
 34 56  1  0  0  0  0
 34 57  1  0  0  0  0
 34 58  1  0  0  0  0
M  END
>  <Mol_ID>
2647

>  <Formula>
C26H24N6O2

>  <MolWeight>
452.50776

>  <Cat>
S7936

>  <Name>
Belumosudil (KD025)

>  <Synonyms>
SLx-2119

>  <Target>
ROCK

>  <Form>
free base

>  <CAS>
911417-87-3

>  <URL>
http://selleckchem.com/products/kd025-(slx-2119).html

$$$$
