KDU691
 OpenBabel08302520403D

 48 51  0  0  0  0  0  0  0  0999 V2000
   -0.3916    0.6446   -0.0435 C   0  0  0  0  0  0  0  0  0  0  0  0
    0.8294    1.3889   -0.0821 C   0  0  0  0  0  0  0  0  0  0  0  0
   -0.3339   -0.7269   -0.0350 N   0  0  0  0  0  0  0  0  0  0  0  0
    1.9952    0.8041   -0.0989 N   0  0  0  0  0  0  0  0  0  0  0  0
    2.0377   -0.5848   -0.0455 C   0  0  0  0  0  0  0  0  0  0  0  0
    0.9115   -1.3417   -0.0570 C   0  0  0  0  0  0  0  0  0  0  0  0
   -1.6113    1.1184   -0.0288 N   0  0  0  0  0  0  0  0  0  0  0  0
   -2.3938   -0.0035   -0.0046 C   0  0  0  0  0  0  0  0  0  0  0  0
   -1.6483   -1.1814    0.0032 C   0  0  0  0  0  0  0  0  0  0  0  0
    3.3569   -1.3716    0.0048 C   0  0  0  0  0  0  0  0  0  0  0  0
    3.2743   -2.5803   -0.2550 O   0  0  0  0  0  0  0  0  0  0  0  0
    4.5677   -0.7567    0.3871 N   0  0  0  0  0  0  0  0  0  0  0  0
   -2.1367   -2.5690    0.0405 C   0  0  0  0  0  0  0  0  0  0  0  0
   -1.4311   -3.6043    0.6632 C   0  0  0  0  0  0  0  0  0  0  0  0
   -1.9396   -4.9083    0.6912 C   0  0  0  0  0  0  0  0  0  0  0  0
   -3.1917   -5.1985    0.1419 C   0  0  0  0  0  0  0  0  0  0  0  0
   -3.9181   -4.1743   -0.4698 C   0  0  0  0  0  0  0  0  0  0  0  0
   -3.3902   -2.8769   -0.5217 C   0  0  0  0  0  0  0  0  0  0  0  0
   -3.6873   -6.5990    0.2201 C   0  0  0  0  0  0  0  0  0  0  0  0
   -5.0555   -6.7700    0.2685 N   0  0  0  0  0  0  0  0  0  0  0  0
   -2.8853   -7.5241    0.2766 O   0  0  0  0  0  0  0  0  0  0  0  0
   -5.6534   -8.0750    0.4112 C   0  0  0  0  0  0  0  0  0  0  0  0
    4.6714    0.5852    0.9744 C   0  0  0  0  0  0  0  0  0  0  0  0
    5.8348   -1.4792    0.3088 C   0  0  0  0  0  0  0  0  0  0  0  0
    6.0319   -2.5682   -0.5538 C   0  0  0  0  0  0  0  0  0  0  0  0
    7.2705   -3.2177   -0.6525 C   0  0  0  0  0  0  0  0  0  0  0  0
    8.3524   -2.7903    0.1103 C   0  0  0  0  0  0  0  0  0  0  0  0
    8.1902   -1.7194    0.9777 C   0  0  0  0  0  0  0  0  0  0  0  0
    6.9505   -1.0756    1.0731 C   0  0  0  0  0  0  0  0  0  0  0  0
    0.7762    2.4892   -0.0958 H   0  0  0  0  0  0  0  0  0  0  0  0
    0.9389   -2.4211   -0.0758 H   0  0  0  0  0  0  0  0  0  0  0  0
   -3.4733    0.0859    0.0185 H   0  0  0  0  0  0  0  0  0  0  0  0
   -0.4838   -3.4297    1.1636 H   0  0  0  0  0  0  0  0  0  0  0  0
   -1.3574   -5.6994    1.1627 H   0  0  0  0  0  0  0  0  0  0  0  0
   -4.8807   -4.3671   -0.9357 H   0  0  0  0  0  0  0  0  0  0  0  0
   -3.9772   -2.1064   -1.0178 H   0  0  0  0  0  0  0  0  0  0  0  0
   -5.6567   -5.9650    0.3709 H   0  0  0  0  0  0  0  0  0  0  0  0
   -6.1588   -8.1158    1.3776 H   0  0  0  0  0  0  0  0  0  0  0  0
   -6.3903   -8.2007   -0.3871 H   0  0  0  0  0  0  0  0  0  0  0  0
   -4.9097   -8.8751    0.3540 H   0  0  0  0  0  0  0  0  0  0  0  0
    4.9203    0.4922    2.0367 H   0  0  0  0  0  0  0  0  0  0  0  0
    5.4500    1.1452    0.4445 H   0  0  0  0  0  0  0  0  0  0  0  0
    3.7780    1.1902    0.9457 H   0  0  0  0  0  0  0  0  0  0  0  0
    5.2428   -2.9287   -1.2072 H   0  0  0  0  0  0  0  0  0  0  0  0
    7.3873   -4.0531   -1.3367 H   0  0  0  0  0  0  0  0  0  0  0  0
    9.3145   -3.2871    0.0263 H   0  0  0  0  0  0  0  0  0  0  0  0
    9.0249   -1.3786    1.5846 H   0  0  0  0  0  0  0  0  0  0  0  0
    6.8918   -0.2591    1.7850 H   0  0  0  0  0  0  0  0  0  0  0  0
  1  2  1  0  0  0  0
  1  3  1  0  0  0  0
  1  7  2  0  0  0  0
  2  4  2  0  0  0  0
  2 30  1  0  0  0  0
  3  6  1  0  0  0  0
  3  9  1  0  0  0  0
  4  5  1  0  0  0  0
  5  6  2  0  0  0  0
  5 10  1  0  0  0  0
  6 31  1  0  0  0  0
  7  8  1  0  0  0  0
  8  9  2  0  0  0  0
  8 32  1  0  0  0  0
  9 13  1  0  0  0  0
 10 11  2  0  0  0  0
 10 12  1  0  0  0  0
 12 23  1  0  0  0  0
 12 24  1  0  0  0  0
 13 14  2  0  0  0  0
 13 18  1  0  0  0  0
 14 15  1  0  0  0  0
 14 33  1  0  0  0  0
 15 16  2  0  0  0  0
 15 34  1  0  0  0  0
 16 17  1  0  0  0  0
 16 19  1  0  0  0  0
 17 18  2  0  0  0  0
 17 35  1  0  0  0  0
 18 36  1  0  0  0  0
 19 20  1  0  0  0  0
 19 21  2  0  0  0  0
 20 22  1  0  0  0  0
 20 37  1  0  0  0  0
 22 38  1  0  0  0  0
 22 39  1  0  0  0  0
 22 40  1  0  0  0  0
 23 41  1  0  0  0  0
 23 42  1  0  0  0  0
 23 43  1  0  0  0  0
 24 25  2  0  0  0  0
 24 29  1  0  0  0  0
 25 26  1  0  0  0  0
 25 44  1  0  0  0  0
 26 27  2  0  0  0  0
 26 45  1  0  0  0  0
 27 28  1  0  0  0  0
 27 46  1  0  0  0  0
 28 29  2  0  0  0  0
 28 47  1  0  0  0  0
 29 48  1  0  0  0  0
M  END
>  <Mol_ID>
3843

>  <Formula>
C22H18ClN5O2

>  <MolWeight>
419.86362

>  <Cat>
S6574

>  <Name>
KDU691

>  <Synonyms>
N/A

>  <Target>
PI4K

>  <Form>
free base

>  <CAS>
1513879-19-0

>  <URL>
http://www.selleck.cn/products/kdu691.html

$$$$
