KEA1-97
 OpenBabel08302521313D

 31 33  0  0  0  0  0  0  0  0999 V2000
    2.2468    0.0619    0.0243 F   0  0  0  0  0  0  0  0  0  0  0  0
   -7.6478   -0.2071   -0.0879 N   0  0  0  0  0  0  0  0  0  0  0  0
   -8.0822   -1.9450    1.4793 N   0  0  0  0  0  0  0  0  0  0  0  0
   -9.6251   -1.4018   -0.1983 N   0  0  0  0  0  0  0  0  0  0  0  0
  -10.0535   -3.2267    1.2628 N   0  0  0  0  0  0  0  0  0  0  0  0
   -3.3887    0.0197   -0.0417 C   0  0  0  0  0  0  0  0  0  0  0  0
   -1.9078    0.0251   -0.0524 C   0  0  0  0  0  0  0  0  0  0  0  0
   -6.2475   -0.1054   -0.0268 C   0  0  0  0  0  0  0  0  0  0  0  0
   -4.1561    0.6236   -1.0527 C   0  0  0  0  0  0  0  0  0  0  0  0
   -4.0928   -0.5940    1.0017 C   0  0  0  0  0  0  0  0  0  0  0  0
   -5.5593    0.5769   -1.0360 C   0  0  0  0  0  0  0  0  0  0  0  0
   -5.4894   -0.6467    1.0107 C   0  0  0  0  0  0  0  0  0  0  0  0
   -1.1773    1.1070   -0.5773 C   0  0  0  0  0  0  0  0  0  0  0  0
   -1.1709   -1.0528    0.4853 C   0  0  0  0  0  0  0  0  0  0  0  0
    0.2207    1.1169   -0.5585 C   0  0  0  0  0  0  0  0  0  0  0  0
    0.2250   -1.0406    0.5198 C   0  0  0  0  0  0  0  0  0  0  0  0
    0.9080    0.0440   -0.0047 C   0  0  0  0  0  0  0  0  0  0  0  0
   -8.4730   -1.2083    0.4387 C   0  0  0  0  0  0  0  0  0  0  0  0
  -10.3562   -2.4204    0.2507 C   0  0  0  0  0  0  0  0  0  0  0  0
   -8.8966   -2.9275    1.8401 C   0  0  0  0  0  0  0  0  0  0  0  0
   -8.0746    0.1323   -0.9381 H   0  0  0  0  0  0  0  0  0  0  0  0
   -3.6728    1.1235   -1.8892 H   0  0  0  0  0  0  0  0  0  0  0  0
   -3.5699   -1.0490    1.8391 H   0  0  0  0  0  0  0  0  0  0  0  0
   -6.1036    1.0555   -1.8468 H   0  0  0  0  0  0  0  0  0  0  0  0
   -5.9597   -1.1333    1.8583 H   0  0  0  0  0  0  0  0  0  0  0  0
   -1.6899    1.9711   -0.9940 H   0  0  0  0  0  0  0  0  0  0  0  0
   -1.6813   -1.9261    0.8862 H   0  0  0  0  0  0  0  0  0  0  0  0
    0.7736    1.9556   -0.9641 H   0  0  0  0  0  0  0  0  0  0  0  0
    0.7760   -1.8684    0.9530 H   0  0  0  0  0  0  0  0  0  0  0  0
  -11.2887   -2.6203   -0.2665 H   0  0  0  0  0  0  0  0  0  0  0  0
   -8.5791   -3.5429    2.6748 H   0  0  0  0  0  0  0  0  0  0  0  0
  1 17  1  0  0  0  0
  2  8  1  0  0  0  0
  2 18  1  0  0  0  0
  2 21  1  0  0  0  0
  3 18  2  0  0  0  0
  3 20  1  0  0  0  0
  4 18  1  0  0  0  0
  4 19  2  0  0  0  0
  5 19  1  0  0  0  0
  5 20  2  0  0  0  0
  6  7  1  0  0  0  0
  6  9  2  0  0  0  0
  6 10  1  0  0  0  0
  7 13  2  0  0  0  0
  7 14  1  0  0  0  0
  8 11  2  0  0  0  0
  8 12  1  0  0  0  0
  9 11  1  0  0  0  0
  9 22  1  0  0  0  0
 10 12  2  0  0  0  0
 10 23  1  0  0  0  0
 11 24  1  0  0  0  0
 12 25  1  0  0  0  0
 13 15  1  0  0  0  0
 13 26  1  0  0  0  0
 14 16  2  0  0  0  0
 14 27  1  0  0  0  0
 15 17  2  0  0  0  0
 15 28  1  0  0  0  0
 16 17  1  0  0  0  0
 16 29  1  0  0  0  0
 19 30  1  0  0  0  0
 20 31  1  0  0  0  0
M  END
>  <Mol_ID>
6067

>  <Formula>
C15H9Cl2FN4

>  <MolWeight>
335.1631632

>  <Cat>
E0092

>  <Name>
KEA1-97

>  <Synonyms>
N/A

>  <Target>
Thioredoxin

>  <Form>
Free Base

>  <CAS>
2138882-71-8

>  <URL>
http://www.selleckchem.com/products/kea1-97.html

$$$$
