Ketanserin.cdx
 OpenBabel08302521403D

 51 54  0  0  0  0  0  0  0  0999 V2000
   10.4361    1.0030   -0.6079 C   0  0  0  0  0  0  0  0  0  0  0  0
   10.3188   -0.1465    0.1790 C   0  0  0  0  0  0  0  0  0  0  0  0
    9.0609   -0.5946    0.5915 C   0  0  0  0  0  0  0  0  0  0  0  0
    7.9253    0.1313    0.2380 C   0  0  0  0  0  0  0  0  0  0  0  0
    8.0383    1.2315   -0.6043 C   0  0  0  0  0  0  0  0  0  0  0  0
    9.2913    1.6770   -1.0305 C   0  0  0  0  0  0  0  0  0  0  0  0
    6.6789   -0.1933    0.7699 N   0  0  0  0  0  0  0  0  0  0  0  0
    5.5806    0.6204    0.6618 C   0  0  0  0  0  0  0  0  0  0  0  0
    5.7030    1.7172   -0.1685 N   0  0  0  0  0  0  0  0  0  0  0  0
    6.8040    1.9349   -0.9892 C   0  0  0  0  0  0  0  0  0  0  0  0
    6.8015    2.6609   -1.9805 O   0  0  0  0  0  0  0  0  0  0  0  0
    4.5625    0.3408    1.2933 O   0  0  0  0  0  0  0  0  0  0  0  0
    4.5938    2.6545   -0.2729 C   0  0  0  0  0  0  0  0  0  0  0  0
    3.6071    2.3283   -1.4127 C   0  0  0  0  0  0  0  0  0  0  0  0
    2.4723    3.2704   -1.4479 N   0  0  0  0  0  0  0  0  0  0  0  0
    2.8813    4.6468   -1.7639 C   0  0  0  0  0  0  0  0  0  0  0  0
    1.7092    5.6051   -1.5696 C   0  0  0  0  0  0  0  0  0  0  0  0
    0.5078    5.1663   -2.4044 C   0  0  0  0  0  0  0  0  0  0  0  0
    0.1756    3.6945   -2.1576 C   0  0  0  0  0  0  0  0  0  0  0  0
    1.4131    2.8181   -2.3577 C   0  0  0  0  0  0  0  0  0  0  0  0
   -0.7053    6.0302   -2.0988 C   0  0  0  0  0  0  0  0  0  0  0  0
   -1.6919    6.2542   -3.2070 C   0  0  0  0  0  0  0  0  0  0  0  0
   -0.8997    6.5541   -1.0103 O   0  0  0  0  0  0  0  0  0  0  0  0
   -1.5125    5.6633   -4.4692 C   0  0  0  0  0  0  0  0  0  0  0  0
   -2.3608    5.9962   -5.5228 C   0  0  0  0  0  0  0  0  0  0  0  0
   -3.3985    6.8895   -5.3011 C   0  0  0  0  0  0  0  0  0  0  0  0
   -3.6227    7.4316   -4.0435 C   0  0  0  0  0  0  0  0  0  0  0  0
   -2.7698    7.1098   -2.9834 C   0  0  0  0  0  0  0  0  0  0  0  0
   -4.1845    7.2377   -6.3240 F   0  0  0  0  0  0  0  0  0  0  0  0
   11.4194    1.3732   -0.8902 H   0  0  0  0  0  0  0  0  0  0  0  0
   11.2151   -0.6810    0.4883 H   0  0  0  0  0  0  0  0  0  0  0  0
    8.9892   -1.4831    1.2135 H   0  0  0  0  0  0  0  0  0  0  0  0
    9.3752    2.5607   -1.6591 H   0  0  0  0  0  0  0  0  0  0  0  0
    6.5766   -0.9752    1.4050 H   0  0  0  0  0  0  0  0  0  0  0  0
    4.0576    2.6921    0.6835 H   0  0  0  0  0  0  0  0  0  0  0  0
    5.0357    3.6437   -0.4280 H   0  0  0  0  0  0  0  0  0  0  0  0
    4.1266    2.3033   -2.3770 H   0  0  0  0  0  0  0  0  0  0  0  0
    3.2241    1.3132   -1.2365 H   0  0  0  0  0  0  0  0  0  0  0  0
    3.2730    4.7180   -2.7884 H   0  0  0  0  0  0  0  0  0  0  0  0
    3.6664    4.9981   -1.0927 H   0  0  0  0  0  0  0  0  0  0  0  0
    2.0075    6.6185   -1.8645 H   0  0  0  0  0  0  0  0  0  0  0  0
    1.4457    5.6500   -0.5077 H   0  0  0  0  0  0  0  0  0  0  0  0
    0.8203    5.3116   -3.4397 H   0  0  0  0  0  0  0  0  0  0  0  0
   -0.2074    3.5644   -1.1362 H   0  0  0  0  0  0  0  0  0  0  0  0
   -0.6253    3.3586   -2.8255 H   0  0  0  0  0  0  0  0  0  0  0  0
    1.1306    1.7804   -2.1446 H   0  0  0  0  0  0  0  0  0  0  0  0
    1.7371    2.8576   -3.4065 H   0  0  0  0  0  0  0  0  0  0  0  0
   -0.7200    4.9600   -4.6832 H   0  0  0  0  0  0  0  0  0  0  0  0
   -2.1999    5.5755   -6.5131 H   0  0  0  0  0  0  0  0  0  0  0  0
   -4.4509    8.1180   -3.8939 H   0  0  0  0  0  0  0  0  0  0  0  0
   -2.9371    7.5508   -2.0038 H   0  0  0  0  0  0  0  0  0  0  0  0
  1  2  2  0  0  0  0
  1 30  1  0  0  0  0
  2  3  1  0  0  0  0
  2 31  1  0  0  0  0
  3  4  2  0  0  0  0
  3 32  1  0  0  0  0
  4  5  1  0  0  0  0
  4  7  1  0  0  0  0
  5  6  2  0  0  0  0
  6  1  1  0  0  0  0
  6 33  1  0  0  0  0
  7  8  1  0  0  0  0
  7 34  1  0  0  0  0
  8  9  1  0  0  0  0
  8 12  2  0  0  0  0
  9 10  1  0  0  0  0
  9 13  1  0  0  0  0
 10  5  1  0  0  0  0
 10 11  2  0  0  0  0
 13 14  1  0  0  0  0
 13 35  1  0  0  0  0
 13 36  1  0  0  0  0
 14 15  1  0  0  0  0
 14 37  1  0  0  0  0
 14 38  1  0  0  0  0
 15 16  1  0  0  0  0
 16 17  1  0  0  0  0
 16 39  1  0  0  0  0
 16 40  1  0  0  0  0
 17 18  1  0  0  0  0
 17 41  1  0  0  0  0
 17 42  1  0  0  0  0
 18 19  1  0  0  0  0
 18 21  1  0  0  0  0
 18 43  1  0  0  0  0
 19 20  1  0  0  0  0
 19 44  1  0  0  0  0
 19 45  1  0  0  0  0
 20 15  1  0  0  0  0
 20 46  1  0  0  0  0
 20 47  1  0  0  0  0
 21 22  1  0  0  0  0
 21 23  2  0  0  0  0
 22 24  2  0  0  0  0
 24 25  1  0  0  0  0
 24 48  1  0  0  0  0
 25 26  2  0  0  0  0
 25 49  1  0  0  0  0
 26 27  1  0  0  0  0
 26 29  1  0  0  0  0
 27 28  2  0  0  0  0
 27 50  1  0  0  0  0
 28 22  1  0  0  0  0
 28 51  1  0  0  0  0
M  END
>  <Mol_ID>
8238

>  <Formula>
C22H22FN3O3

>  <MolWeight>
395.4267832

>  <Cat>
S2232

>  <Name>
Ketanserin

>  <Synonyms>
R41468, Ketanserinum

>  <Target>
5-HT Receptor

>  <Form>
Free Base

>  <CAS>
74050-98-9

>  <URL>
http://selleckchem.com/products/Ketanserin-Vulketan-Gel.html

$$$$
