Ketotifen fumarate.cdx
 OpenBabel08302521443D

 53 55  0  0  0  0  0  0  0  0999 V2000
    1.7716   -1.0669   -0.4126 C   0  0  0  0  0  0  0  0  0  0  0  0
    0.9425   -2.2633   -0.5146 C   0  0  0  0  0  0  0  0  0  0  0  0
   -0.2903   -2.1733   -1.3761 C   0  0  0  0  0  0  0  0  0  0  0  0
   -1.2938   -1.1797   -0.8590 C   0  0  0  0  0  0  0  0  0  0  0  0
   -1.0580    0.2082   -0.9435 C   0  0  0  0  0  0  0  0  0  0  0  0
    0.2818    0.7536   -1.3853 C   0  0  0  0  0  0  0  0  0  0  0  0
    1.5165    0.2561   -0.7590 C   0  0  0  0  0  0  0  0  0  0  0  0
    2.5983    1.0968   -0.3147 C   0  0  0  0  0  0  0  0  0  0  0  0
    3.6848    0.3893    0.1467 C   0  0  0  0  0  0  0  0  0  0  0  0
    3.3685   -1.2781    0.1968 S   0  0  0  0  0  0  0  0  0  0  0  0
    1.2183   -3.3346    0.0327 O   0  0  0  0  0  0  0  0  0  0  0  0
    0.3264    1.7112   -2.3644 C   0  0  0  0  0  0  0  0  0  0  0  0
   -0.8686    2.3467   -3.0760 C   0  0  0  0  0  0  0  0  0  0  0  0
   -0.7571    2.2555   -4.6067 C   0  0  0  0  0  0  0  0  0  0  0  0
    0.4986    2.7729   -5.1716 N   0  0  0  0  0  0  0  0  0  0  0  0
    1.6412    2.1575   -4.4875 C   0  0  0  0  0  0  0  0  0  0  0  0
    1.6111    2.2962   -2.9592 C   0  0  0  0  0  0  0  0  0  0  0  0
    0.5590    4.2330   -5.1385 C   0  0  0  0  0  0  0  0  0  0  0  0
   -2.4869   -1.6649   -0.2856 C   0  0  0  0  0  0  0  0  0  0  0  0
   -3.4780   -0.7926    0.1492 C   0  0  0  0  0  0  0  0  0  0  0  0
   -3.2894    0.5735    0.0103 C   0  0  0  0  0  0  0  0  0  0  0  0
   -2.0845    1.0605   -0.5084 C   0  0  0  0  0  0  0  0  0  0  0  0
    0.5786    0.6954    2.5064 C   0  0  0  0  0  0  0  0  0  0  0  0
    0.1068    2.0501    2.2026 C   0  0  0  0  0  0  0  0  0  0  0  0
   -1.2023    2.3123    2.3010 C   0  0  0  0  0  0  0  0  0  0  0  0
   -1.8094    3.5954    1.9131 C   0  0  0  0  0  0  0  0  0  0  0  0
    1.8882    0.7327    2.7900 O   0  0  0  0  0  0  0  0  0  0  0  0
   -0.0717   -0.3293    2.5227 O   0  0  0  0  0  0  0  0  0  0  0  0
   -1.0132    4.6646    2.0852 O   0  0  0  0  0  0  0  0  0  0  0  0
   -2.9429    3.6710    1.4723 O   0  0  0  0  0  0  0  0  0  0  0  0
   -0.7408   -3.1741   -1.4242 H   0  0  0  0  0  0  0  0  0  0  0  0
   -0.0022   -1.9329   -2.4059 H   0  0  0  0  0  0  0  0  0  0  0  0
    2.6057    2.1780   -0.3700 H   0  0  0  0  0  0  0  0  0  0  0  0
    4.6402    0.7759    0.4771 H   0  0  0  0  0  0  0  0  0  0  0  0
   -1.8254    1.8950   -2.8183 H   0  0  0  0  0  0  0  0  0  0  0  0
   -0.9319    3.3999   -2.7667 H   0  0  0  0  0  0  0  0  0  0  0  0
   -0.8530    1.2005   -4.8954 H   0  0  0  0  0  0  0  0  0  0  0  0
   -1.6108    2.7649   -5.0672 H   0  0  0  0  0  0  0  0  0  0  0  0
    1.6647    1.0876   -4.7377 H   0  0  0  0  0  0  0  0  0  0  0  0
    2.5809    2.5694   -4.8749 H   0  0  0  0  0  0  0  0  0  0  0  0
    1.6904    3.3504   -2.6622 H   0  0  0  0  0  0  0  0  0  0  0  0
    2.5206    1.8103   -2.6100 H   0  0  0  0  0  0  0  0  0  0  0  0
    0.4861    4.6570   -4.1322 H   0  0  0  0  0  0  0  0  0  0  0  0
    1.4983    4.5823   -5.5853 H   0  0  0  0  0  0  0  0  0  0  0  0
   -0.2471    4.6575   -5.7435 H   0  0  0  0  0  0  0  0  0  0  0  0
   -2.6451   -2.7362   -0.1639 H   0  0  0  0  0  0  0  0  0  0  0  0
   -4.3907   -1.1769    0.5981 H   0  0  0  0  0  0  0  0  0  0  0  0
   -4.0608    1.2698    0.3322 H   0  0  0  0  0  0  0  0  0  0  0  0
   -1.9671    2.1421   -0.5666 H   0  0  0  0  0  0  0  0  0  0  0  0
    0.8487    2.7576    1.8574 H   0  0  0  0  0  0  0  0  0  0  0  0
   -1.9152    1.5330    2.5575 H   0  0  0  0  0  0  0  0  0  0  0  0
    2.1345   -0.2130    2.8893 H   0  0  0  0  0  0  0  0  0  0  0  0
   -0.2269    4.5002    2.6367 H   0  0  0  0  0  0  0  0  0  0  0  0
  1  2  1  0  0  0  0
  2  3  1  0  0  0  0
  2 11  2  0  0  0  0
  3  4  1  0  0  0  0
  3 31  1  0  0  0  0
  3 32  1  0  0  0  0
  4  5  2  0  0  0  0
  4 19  1  0  0  0  0
  5  6  1  0  0  0  0
  6  7  1  0  0  0  0
  6 12  2  0  0  0  0
  7  1  2  0  0  0  0
  7  8  1  0  0  0  0
  8  9  2  0  0  0  0
  8 33  1  0  0  0  0
  9 10  1  0  0  0  0
  9 34  1  0  0  0  0
 10  1  1  0  0  0  0
 12 13  1  0  0  0  0
 13 14  1  0  0  0  0
 13 35  1  0  0  0  0
 13 36  1  0  0  0  0
 14 15  1  0  0  0  0
 14 37  1  0  0  0  0
 14 38  1  0  0  0  0
 15 16  1  0  0  0  0
 15 18  1  0  0  0  0
 16 17  1  0  0  0  0
 16 39  1  0  0  0  0
 16 40  1  0  0  0  0
 17 12  1  0  0  0  0
 17 41  1  0  0  0  0
 17 42  1  0  0  0  0
 18 43  1  0  0  0  0
 18 44  1  0  0  0  0
 18 45  1  0  0  0  0
 19 20  2  0  0  0  0
 19 46  1  0  0  0  0
 20 21  1  0  0  0  0
 20 47  1  0  0  0  0
 21 22  2  0  0  0  0
 21 48  1  0  0  0  0
 22  5  1  0  0  0  0
 22 49  1  0  0  0  0
 23 24  1  0  0  0  0
 23 27  1  0  0  0  0
 23 28  2  0  0  0  0
 24 25  2  0  0  0  0
 24 50  1  0  0  0  0
 25 26  1  0  0  0  0
 25 51  1  0  0  0  0
 26 29  1  0  0  0  0
 26 30  2  0  0  0  0
 27 52  1  0  0  0  0
 29 53  1  0  0  0  0
M  END
>  <Mol_ID>
911

>  <Formula>
C23H23NO5S

>  <MolWeight>
425.49742

>  <Cat>
S2024

>  <Name>
Ketotifen Fumarate

>  <Synonyms>
HC 20511 fumarate

>  <Target>
Histamine Receptor

>  <Form>
Fumarate

>  <CAS>
34580-14-8

>  <URL>
http://selleckchem.com/products/ketotifen-fumarate-zaditor.html

$$$$
