Ketorolac tromethamine salt
 OpenBabel08302520343D

 51 52  0  0  0  0  0  0  0  0999 V2000
   -2.6472    3.9947    2.6473 N   0  0  0  0  0  0  0  0  0  0  0  0
   -2.8224    3.8018    3.9873 C   0  0  0  0  0  0  0  0  0  0  0  0
   -2.6307    2.8287    1.9343 C   0  0  0  0  0  0  0  0  0  0  0  0
   -2.6253    5.4034    2.2763 C   0  0  0  0  0  0  0  0  0  0  0  0
   -2.9533    5.0851    4.7363 C   0  0  3  0  0  0  0  0  0  0  0  0
   -2.9146    2.4502    4.1958 C   0  0  0  0  0  0  0  0  0  0  0  0
   -2.4837    2.7717    0.4750 C   0  0  0  0  0  0  0  0  0  0  0  0
   -2.7210    1.8437    2.9181 C   0  0  0  0  0  0  0  0  0  0  0  0
   -2.9133    6.1387    3.5962 C   0  0  0  0  0  0  0  0  0  0  0  0
   -1.8911    5.3894    5.7792 C   0  0  0  0  0  0  0  0  0  0  0  0
   -2.8352    1.5577   -0.3656 C   0  0  0  0  0  0  0  0  0  0  0  0
   -2.0361    3.7445   -0.1350 O   0  0  0  0  0  0  0  0  0  0  0  0
   -1.0171    4.4088    6.0846 O   0  0  0  0  0  0  0  0  0  0  0  0
   -1.8324    6.4728    6.3532 O   0  0  0  0  0  0  0  0  0  0  0  0
   -2.4376    1.5468   -1.7209 C   0  0  0  0  0  0  0  0  0  0  0  0
   -3.5133    0.4315    0.1115 C   0  0  0  0  0  0  0  0  0  0  0  0
   -2.6365    0.4252   -2.5375 C   0  0  0  0  0  0  0  0  0  0  0  0
   -3.7009   -0.6991   -0.7009 C   0  0  0  0  0  0  0  0  0  0  0  0
   -3.2540   -0.7071   -2.0194 C   0  0  0  0  0  0  0  0  0  0  0  0
    1.3081    0.1111   -0.4315 C   0  0  0  0  0  0  0  0  0  0  0  0
    0.9068   -0.2525    1.0209 C   0  0  0  0  0  0  0  0  0  0  0  0
    0.9051    1.5710   -0.7527 C   0  0  0  0  0  0  0  0  0  0  0  0
    0.5740   -0.8441   -1.4104 C   0  0  0  0  0  0  0  0  0  0  0  0
    2.7845   -0.0291   -0.5727 N   0  0  0  0  0  0  0  0  0  0  0  0
    1.4553    0.6595    1.9722 O   0  0  0  0  0  0  0  0  0  0  0  0
    1.0893    1.8676   -2.1396 O   0  0  0  0  0  0  0  0  0  0  0  0
    0.9434   -2.2087   -1.2255 O   0  0  0  0  0  0  0  0  0  0  0  0
   -3.4037    5.5861    1.5341 H   0  0  0  0  0  0  0  0  0  0  0  0
   -1.6334    5.6445    1.8824 H   0  0  0  0  0  0  0  0  0  0  0  0
   -3.9222    5.1044    5.2485 H   0  0  0  0  0  0  0  0  0  0  0  0
   -3.0943    1.9461    5.1348 H   0  0  0  0  0  0  0  0  0  0  0  0
   -2.6787    0.7744    2.7612 H   0  0  0  0  0  0  0  0  0  0  0  0
   -2.1659    6.9288    3.7696 H   0  0  0  0  0  0  0  0  0  0  0  0
   -3.8836    6.6516    3.5402 H   0  0  0  0  0  0  0  0  0  0  0  0
   -1.1329    3.6009    5.5500 H   0  0  0  0  0  0  0  0  0  0  0  0
   -1.9116    2.4021   -2.1467 H   0  0  0  0  0  0  0  0  0  0  0  0
   -3.9208    0.3912    1.1129 H   0  0  0  0  0  0  0  0  0  0  0  0
   -2.2737    0.4278   -3.5628 H   0  0  0  0  0  0  0  0  0  0  0  0
   -4.1942   -1.5810   -0.2977 H   0  0  0  0  0  0  0  0  0  0  0  0
   -3.3794   -1.5945   -2.6366 H   0  0  0  0  0  0  0  0  0  0  0  0
   -0.1822   -0.2246    1.1438 H   0  0  0  0  0  0  0  0  0  0  0  0
    1.2385   -1.2670    1.2746 H   0  0  0  0  0  0  0  0  0  0  0  0
   -0.1430    1.7272   -0.5188 H   0  0  0  0  0  0  0  0  0  0  0  0
    1.4672    2.3068   -0.1683 H   0  0  0  0  0  0  0  0  0  0  0  0
   -0.5016   -0.7870   -1.2423 H   0  0  0  0  0  0  0  0  0  0  0  0
    0.7608   -0.5809   -2.4580 H   0  0  0  0  0  0  0  0  0  0  0  0
    3.2270    0.8888   -0.5300 H   0  0  0  0  0  0  0  0  0  0  0  0
    3.0328   -0.4729   -1.4492 H   0  0  0  0  0  0  0  0  0  0  0  0
    1.9101    0.1146    2.6403 H   0  0  0  0  0  0  0  0  0  0  0  0
    1.9892    1.5846   -2.3715 H   0  0  0  0  0  0  0  0  0  0  0  0
    1.5982   -2.4219   -1.9115 H   0  0  0  0  0  0  0  0  0  0  0  0
  1  2  1  0  0  0  0
  1  3  1  0  0  0  0
  1  4  1  0  0  0  0
  2  5  1  0  0  0  0
  2  6  2  0  0  0  0
  3  8  2  0  0  0  0
  3  7  1  0  0  0  0
  4  9  1  0  0  0  0
  4 28  1  0  0  0  0
  4 29  1  0  0  0  0
  5 10  1  0  0  0  0
  5  9  1  0  0  0  0
  5 30  1  0  0  0  0
  6  8  1  0  0  0  0
  6 31  1  0  0  0  0
  7 11  1  0  0  0  0
  7 12  2  0  0  0  0
  8 32  1  0  0  0  0
  9 33  1  0  0  0  0
  9 34  1  0  0  0  0
 10 13  1  0  0  0  0
 10 14  2  0  0  0  0
 11 15  2  0  0  0  0
 11 16  1  0  0  0  0
 13 35  1  0  0  0  0
 15 17  1  0  0  0  0
 15 36  1  0  0  0  0
 16 18  2  0  0  0  0
 16 37  1  0  0  0  0
 17 19  2  0  0  0  0
 17 38  1  0  0  0  0
 18 19  1  0  0  0  0
 18 39  1  0  0  0  0
 19 40  1  0  0  0  0
 20 21  1  0  0  0  0
 20 22  1  0  0  0  0
 20 23  1  0  0  0  0
 20 24  1  0  0  0  0
 21 25  1  0  0  0  0
 21 41  1  0  0  0  0
 21 42  1  0  0  0  0
 22 26  1  0  0  0  0
 22 43  1  0  0  0  0
 22 44  1  0  0  0  0
 23 27  1  0  0  0  0
 23 45  1  0  0  0  0
 23 46  1  0  0  0  0
 24 47  1  0  0  0  0
 24 48  1  0  0  0  0
 25 49  1  0  0  0  0
 26 50  1  0  0  0  0
 27 51  1  0  0  0  0
M  END
>  <Mol_ID>
3371

>  <Formula>
C19H24N2O6

>  <MolWeight>
376.40366

>  <Cat>
S5698

>  <Name>
Ketorolac tromethamine salt

>  <Synonyms>
N/A

>  <Target>
COX

>  <Form>
tromethamine salt

>  <CAS>
74103-07-4

>  <URL>
http://www.selleckchem.com/products/ketorolac-tromethamine-salt.html

$$$$
