KG-501 (2-naphthol-AS-E-phosphate)
 OpenBabel08302521043D

 38 40  0  0  0  0  0  0  0  0999 V2000
    2.3677   -0.6222    0.0113 C   0  0  0  0  0  0  0  0  0  0  0  0
    2.3064    0.7698   -0.0092 C   0  0  0  0  0  0  0  0  0  0  0  0
    1.0757    1.4151    0.0251 C   0  0  0  0  0  0  0  0  0  0  0  0
   -0.1219    0.6814    0.0928 C   0  0  0  0  0  0  0  0  0  0  0  0
   -0.0600   -0.7214    0.1211 C   0  0  0  0  0  0  0  0  0  0  0  0
    1.1856   -1.3641    0.0752 C   0  0  0  0  0  0  0  0  0  0  0  0
   -1.3771    1.3065    0.1103 C   0  0  0  0  0  0  0  0  0  0  0  0
   -2.5815    0.5731    0.1380 C   0  0  0  0  0  0  0  0  0  0  0  0
   -2.5388   -0.8384    0.2161 C   0  0  0  0  0  0  0  0  0  0  0  0
   -1.2544   -1.4486    0.1933 C   0  0  0  0  0  0  0  0  0  0  0  0
   -3.6422   -1.8777    0.2643 C   0  0  0  0  0  0  0  0  0  0  0  0
   -3.6675    1.4251   -0.0170 O   0  0  0  0  0  0  0  0  0  0  0  0
   -4.8511   -1.5532    0.8504 N   0  0  0  0  0  0  0  0  0  0  0  0
   -3.3925   -2.9759   -0.2272 O   0  0  0  0  0  0  0  0  0  0  0  0
   -5.9727   -2.4180    1.0199 C   0  0  0  0  0  0  0  0  0  0  0  0
   -5.9564   -3.8002    0.8094 C   0  0  0  0  0  0  0  0  0  0  0  0
   -7.0566   -4.5913    1.1759 C   0  0  0  0  0  0  0  0  0  0  0  0
   -8.1996   -4.0051    1.7128 C   0  0  0  0  0  0  0  0  0  0  0  0
   -8.2641   -2.6225    1.8375 C   0  0  0  0  0  0  0  0  0  0  0  0
   -7.1584   -1.8384    1.4938 C   0  0  0  0  0  0  0  0  0  0  0  0
   -5.0201    0.7143   -0.8282 P   0  0  0  0  0  0  0  0  0  0  0  0
   -5.9310    1.0001    0.3686 O   0  0  0  0  0  0  0  0  0  0  0  0
   -5.1757    2.0487   -1.7501 O   0  0  0  0  0  0  0  0  0  0  0  0
   -6.3727    0.0035   -1.6395 O   0  0  0  0  0  0  0  0  0  0  0  0
    3.3276   -1.1305   -0.0207 H   0  0  0  0  0  0  0  0  0  0  0  0
    3.2270    1.3487   -0.0591 H   0  0  0  0  0  0  0  0  0  0  0  0
    1.0522    2.5048    0.0039 H   0  0  0  0  0  0  0  0  0  0  0  0
    1.2539   -2.4530    0.0840 H   0  0  0  0  0  0  0  0  0  0  0  0
   -1.4306    2.3946    0.0502 H   0  0  0  0  0  0  0  0  0  0  0  0
   -1.1814   -2.5390    0.2188 H   0  0  0  0  0  0  0  0  0  0  0  0
   -4.9854   -0.6283    1.2531 H   0  0  0  0  0  0  0  0  0  0  0  0
   -5.0902   -4.3124    0.4035 H   0  0  0  0  0  0  0  0  0  0  0  0
   -7.0075   -5.6715    1.0602 H   0  0  0  0  0  0  0  0  0  0  0  0
   -9.0356   -4.6228    2.0312 H   0  0  0  0  0  0  0  0  0  0  0  0
   -9.1646   -2.1507    2.2217 H   0  0  0  0  0  0  0  0  0  0  0  0
   -7.2442   -0.7610    1.6046 H   0  0  0  0  0  0  0  0  0  0  0  0
   -5.6459    2.7284   -1.2311 H   0  0  0  0  0  0  0  0  0  0  0  0
   -7.1582    0.4862   -1.3242 H   0  0  0  0  0  0  0  0  0  0  0  0
  1  2  2  0  0  0  0
  1 25  1  0  0  0  0
  2  3  1  0  0  0  0
  2 26  1  0  0  0  0
  3  4  2  0  0  0  0
  3 27  1  0  0  0  0
  4  5  1  0  0  0  0
  4  7  1  0  0  0  0
  5  6  2  0  0  0  0
  6  1  1  0  0  0  0
  6 28  1  0  0  0  0
  7  8  2  0  0  0  0
  7 29  1  0  0  0  0
  8  9  1  0  0  0  0
  8 12  1  0  0  0  0
  9 10  2  0  0  0  0
  9 11  1  0  0  0  0
 10  5  1  0  0  0  0
 10 30  1  0  0  0  0
 11 13  1  0  0  0  0
 11 14  2  0  0  0  0
 12 21  1  0  0  0  0
 13 15  1  0  0  0  0
 13 31  1  0  0  0  0
 15 16  2  0  0  0  0
 16 17  1  0  0  0  0
 16 32  1  0  0  0  0
 17 18  2  0  0  0  0
 17 33  1  0  0  0  0
 18 19  1  0  0  0  0
 18 34  1  0  0  0  0
 19 20  2  0  0  0  0
 19 35  1  0  0  0  0
 20 15  1  0  0  0  0
 20 36  1  0  0  0  0
 21 22  2  0  0  0  0
 21 23  1  0  0  0  0
 21 24  1  0  0  0  0
 23 37  1  0  0  0  0
 24 38  1  0  0  0  0
M  END
>  <Mol_ID>
4292

>  <Formula>
C17H13ClNO5P

>  <MolWeight>
377.715581

>  <Cat>
S8409

>  <Name>
KG-501 (2-naphthol-AS-E-phosphate)

>  <Synonyms>
N/A

>  <Target>
Epigenetic Reader Domain

>  <Form>
Free Base

>  <CAS>
18228-17-6

>  <URL>
http://www.selleckchem.com/products/kg-501-2-naphthol-as-e-phosphate.html

$$$$
