Khellin
 OpenBabel08302520403D

 31 33  0  0  0  0  0  0  0  0999 V2000
    0.9069    0.7935    0.0057 C   0  0  0  0  0  0  0  0  0  0  0  0
    0.9738   -0.6145    0.0036 C   0  0  0  0  0  0  0  0  0  0  0  0
   -0.3365    1.4807    0.0039 C   0  0  0  0  0  0  0  0  0  0  0  0
    2.1895    1.5510    0.0105 C   0  0  0  0  0  0  0  0  0  0  0  0
   -0.1975   -1.4004    0.0013 C   0  0  0  0  0  0  0  0  0  0  0  0
    2.1868   -1.2715    0.0031 O   0  0  0  0  0  0  0  0  0  0  0  0
   -1.5239    0.7120    0.0018 C   0  0  0  0  0  0  0  0  0  0  0  0
   -0.2637    2.8614    0.0051 O   0  0  0  0  0  0  0  0  0  0  0  0
    3.4280    0.7702    0.0070 C   0  0  0  0  0  0  0  0  0  0  0  0
    2.2920    2.7715    0.0172 O   0  0  0  0  0  0  0  0  0  0  0  0
   -1.4043   -0.6778    0.0004 C   0  0  0  0  0  0  0  0  0  0  0  0
   -0.3112   -2.7608   -0.0000 O   0  0  0  0  0  0  0  0  0  0  0  0
    3.3670   -0.5628    0.0028 C   0  0  0  0  0  0  0  0  0  0  0  0
   -2.9308    0.9615    0.0011 C   0  0  0  0  0  0  0  0  0  0  0  0
   -1.4482    3.6307    0.0033 C   0  0  0  0  0  0  0  0  0  0  0  0
   -2.6467   -1.2536   -0.0028 O   0  0  0  0  0  0  0  0  0  0  0  0
    0.8561   -3.5679    0.0016 C   0  0  0  0  0  0  0  0  0  0  0  0
    4.6044   -1.4037   -0.0015 C   0  0  0  0  0  0  0  0  0  0  0  0
   -3.5605   -0.2577   -0.0025 C   0  0  0  0  0  0  0  0  0  0  0  0
    4.3554    1.3265    0.0080 H   0  0  0  0  0  0  0  0  0  0  0  0
   -3.4496    1.9084    0.0023 H   0  0  0  0  0  0  0  0  0  0  0  0
   -2.0314    3.4522   -0.9048 H   0  0  0  0  0  0  0  0  0  0  0  0
   -2.0309    3.4564    0.9126 H   0  0  0  0  0  0  0  0  0  0  0  0
   -1.1597    4.6859    0.0005 H   0  0  0  0  0  0  0  0  0  0  0  0
    1.4475   -3.4104   -0.9060 H   0  0  0  0  0  0  0  0  0  0  0  0
    1.4462   -3.4095    0.9099 H   0  0  0  0  0  0  0  0  0  0  0  0
    0.5418   -4.6164    0.0020 H   0  0  0  0  0  0  0  0  0  0  0  0
    4.6353   -2.0413    0.8876 H   0  0  0  0  0  0  0  0  0  0  0  0
    4.6301   -2.0402   -0.8915 H   0  0  0  0  0  0  0  0  0  0  0  0
    5.5123   -0.7906   -0.0038 H   0  0  0  0  0  0  0  0  0  0  0  0
   -4.5975   -0.5613   -0.0048 H   0  0  0  0  0  0  0  0  0  0  0  0
  1  2  1  0  0  0  0
  1  3  2  0  0  0  0
  1  4  1  0  0  0  0
  2  5  2  0  0  0  0
  2  6  1  0  0  0  0
  3  7  1  0  0  0  0
  3  8  1  0  0  0  0
  4  9  1  0  0  0  0
  4 10  2  0  0  0  0
  5 11  1  0  0  0  0
  5 12  1  0  0  0  0
  6 13  1  0  0  0  0
  7 14  1  0  0  0  0
  7 11  2  0  0  0  0
  8 15  1  0  0  0  0
  9 13  2  0  0  0  0
  9 20  1  0  0  0  0
 11 16  1  0  0  0  0
 12 17  1  0  0  0  0
 13 18  1  0  0  0  0
 14 19  2  0  0  0  0
 14 21  1  0  0  0  0
 15 22  1  0  0  0  0
 15 23  1  0  0  0  0
 15 24  1  0  0  0  0
 16 19  1  0  0  0  0
 17 25  1  0  0  0  0
 17 26  1  0  0  0  0
 17 27  1  0  0  0  0
 18 28  1  0  0  0  0
 18 29  1  0  0  0  0
 18 30  1  0  0  0  0
 19 31  1  0  0  0  0
M  END
>  <Mol_ID>
3712

>  <Formula>
C14H12O5

>  <MolWeight>
260.24208

>  <Cat>
S5887

>  <Name>
Khellin

>  <Synonyms>
Amicardine, Corafurone, Methafrone, Kelourin, Rykellin, Visammin, Ammispasmin, Ammivisnagen, Gynokhellan, Interkellin, Interkhellin, Amikellin, Ammipuran, Benecardin, Deltoside, Kelicorin, Khelangin, Khellamine, Khellanals, Khellinorm, Medekellin

>  <Target>
Anti-infection

>  <Form>
Free Base

>  <CAS>
82-02-0

>  <URL>
http://www.selleck.cn/products/khellin.html

$$$$
