Kinetin.cdx
 OpenBabel08302521363D

 25 27  0  0  0  0  0  0  0  0999 V2000
    1.4236    0.8863    0.2729 C   0  0  0  0  0  0  0  0  0  0  0  0
    1.7173   -0.4480    0.4731 C   0  0  0  0  0  0  0  0  0  0  0  0
    0.8435   -1.4421    0.0764 C   0  0  0  0  0  0  0  0  0  0  0  0
   -0.3007   -1.0320   -0.5079 N   0  0  0  0  0  0  0  0  0  0  0  0
   -0.4959    0.2949   -0.6909 C   0  0  0  0  0  0  0  0  0  0  0  0
    0.3036    1.3100   -0.3369 N   0  0  0  0  0  0  0  0  0  0  0  0
    2.4056    1.6890    0.7923 N   0  0  0  0  0  0  0  0  0  0  0  0
    3.2787    0.8592    1.3207 C   0  0  0  0  0  0  0  0  0  0  0  0
    2.9125   -0.4450    1.1361 N   0  0  0  0  0  0  0  0  0  0  0  0
    1.1349   -2.7766    0.3161 N   0  0  0  0  0  0  0  0  0  0  0  0
    0.0767   -3.7424    0.0442 C   0  0  0  0  0  0  0  0  0  0  0  0
    0.5515   -5.1632    0.0344 C   0  0  0  0  0  0  0  0  0  0  0  0
    1.9043   -5.3722   -0.0012 O   0  0  0  0  0  0  0  0  0  0  0  0
    2.0995   -6.7152   -0.0045 C   0  0  0  0  0  0  0  0  0  0  0  0
    0.8942   -7.3780    0.0089 C   0  0  0  0  0  0  0  0  0  0  0  0
   -0.1065   -6.3769    0.0347 C   0  0  0  0  0  0  0  0  0  0  0  0
   -1.4202    0.5736   -1.1883 H   0  0  0  0  0  0  0  0  0  0  0  0
    4.1803    1.1394    1.8494 H   0  0  0  0  0  0  0  0  0  0  0  0
    3.4013   -1.2644    1.4692 H   0  0  0  0  0  0  0  0  0  0  0  0
    2.0051   -3.0567   -0.1279 H   0  0  0  0  0  0  0  0  0  0  0  0
   -0.6893   -3.6455    0.8247 H   0  0  0  0  0  0  0  0  0  0  0  0
   -0.4036   -3.5513   -0.9238 H   0  0  0  0  0  0  0  0  0  0  0  0
    3.1306   -7.0382   -0.0201 H   0  0  0  0  0  0  0  0  0  0  0  0
    0.7563   -8.4494    0.0004 H   0  0  0  0  0  0  0  0  0  0  0  0
   -1.1777   -6.5207    0.0497 H   0  0  0  0  0  0  0  0  0  0  0  0
  1  2  2  0  0  0  0
  1  7  1  0  0  0  0
  2  3  1  0  0  0  0
  3  4  2  0  0  0  0
  3 10  1  0  0  0  0
  4  5  1  0  0  0  0
  5  6  2  0  0  0  0
  5 17  1  0  0  0  0
  6  1  1  0  0  0  0
  7  8  2  0  0  0  0
  8  9  1  0  0  0  0
  8 18  1  0  0  0  0
  9  2  1  0  0  0  0
  9 19  1  0  0  0  0
 10 11  1  0  0  0  0
 10 20  1  0  0  0  0
 11 12  1  0  0  0  0
 11 21  1  0  0  0  0
 11 22  1  0  0  0  0
 12 13  1  0  0  0  0
 13 14  1  0  0  0  0
 14 15  2  0  0  0  0
 14 23  1  0  0  0  0
 15 16  1  0  0  0  0
 15 24  1  0  0  0  0
 16 12  2  0  0  0  0
 16 25  1  0  0  0  0
M  END
>  <Mol_ID>
698

>  <Formula>
C10H9N5O

>  <MolWeight>
215.21136

>  <Cat>
S2316

>  <Name>
Kinetin

>  <Synonyms>
6-Furfuryladenine

>  <Target>
Others

>  <Form>
free base

>  <CAS>
525-79-1

>  <URL>
http://selleckchem.com/products/Kinetin(6-Furfuryladenine).html

$$$$
