KKL-35
 OpenBabel08302520403D

 31 33  0  0  0  0  0  0  0  0999 V2000
    1.1034    0.2600    0.2388 C   0  0  0  0  0  0  0  0  0  0  0  0
    0.4703   -0.6466    1.2402 C   0  0  0  0  0  0  0  0  0  0  0  0
   -0.9215   -0.8119    1.2059 C   0  0  0  0  0  0  0  0  0  0  0  0
   -1.5640   -1.5871    2.1732 C   0  0  0  0  0  0  0  0  0  0  0  0
   -0.8205   -2.1996    3.1805 C   0  0  0  0  0  0  0  0  0  0  0  0
    0.5658   -2.0492    3.2151 C   0  0  0  0  0  0  0  0  0  0  0  0
    1.2140   -1.2738    2.2491 C   0  0  0  0  0  0  0  0  0  0  0  0
    0.4325    1.1802   -0.2210 O   0  0  0  0  0  0  0  0  0  0  0  0
    2.3959   -0.0481   -0.1099 N   0  0  0  0  0  0  0  0  0  0  0  0
    2.7000    1.9578   -1.3421 O   0  0  0  0  0  0  0  0  0  0  0  0
    3.1271    0.7158   -0.9744 C   0  0  0  0  0  0  0  0  0  0  0  0
    4.2889    0.4002   -1.5015 N   0  0  0  0  0  0  0  0  0  0  0  0
    4.6576    1.4664   -2.2990 N   0  0  0  0  0  0  0  0  0  0  0  0
    3.7074    2.3728   -2.1713 C   0  0  0  0  0  0  0  0  0  0  0  0
    3.6081    3.7168   -2.7293 C   0  0  0  0  0  0  0  0  0  0  0  0
    2.5802    4.5990   -2.3525 C   0  0  0  0  0  0  0  0  0  0  0  0
    2.5412    5.9037   -2.8515 C   0  0  0  0  0  0  0  0  0  0  0  0
    3.5241    6.3302   -3.7369 C   0  0  0  0  0  0  0  0  0  0  0  0
    4.5377    5.4717   -4.1434 C   0  0  0  0  0  0  0  0  0  0  0  0
    4.5792    4.1674   -3.6404 C   0  0  0  0  0  0  0  0  0  0  0  0
    3.4969    7.5864   -4.1998 F   0  0  0  0  0  0  0  0  0  0  0  0
   -1.5125   -0.3247    0.4321 H   0  0  0  0  0  0  0  0  0  0  0  0
   -2.6456   -1.6991    2.1497 H   0  0  0  0  0  0  0  0  0  0  0  0
   -1.3239   -2.7840    3.9476 H   0  0  0  0  0  0  0  0  0  0  0  0
    1.1395   -2.5196    4.0105 H   0  0  0  0  0  0  0  0  0  0  0  0
    2.2885   -1.1386    2.3302 H   0  0  0  0  0  0  0  0  0  0  0  0
    2.8241   -0.9213    0.1580 H   0  0  0  0  0  0  0  0  0  0  0  0
    1.8061    4.2814   -1.6548 H   0  0  0  0  0  0  0  0  0  0  0  0
    1.7569    6.5901   -2.5484 H   0  0  0  0  0  0  0  0  0  0  0  0
    5.2928    5.8226   -4.8394 H   0  0  0  0  0  0  0  0  0  0  0  0
    5.3827    3.5044   -3.9584 H   0  0  0  0  0  0  0  0  0  0  0  0
  1  2  1  0  0  0  0
  1  8  2  0  0  0  0
  1  9  1  0  0  0  0
  2  3  2  0  0  0  0
  2  7  1  0  0  0  0
  3  4  1  0  0  0  0
  3 22  1  0  0  0  0
  4  5  2  0  0  0  0
  4 23  1  0  0  0  0
  5  6  1  0  0  0  0
  5 24  1  0  0  0  0
  6  7  2  0  0  0  0
  6 25  1  0  0  0  0
  7 26  1  0  0  0  0
  9 11  1  0  0  0  0
  9 27  1  0  0  0  0
 10 11  1  0  0  0  0
 10 14  1  0  0  0  0
 11 12  2  0  0  0  0
 12 13  1  0  0  0  0
 13 14  2  0  0  0  0
 14 15  1  0  0  0  0
 15 16  2  0  0  0  0
 15 20  1  0  0  0  0
 16 17  1  0  0  0  0
 16 28  1  0  0  0  0
 17 18  2  0  0  0  0
 17 29  1  0  0  0  0
 18 19  1  0  0  0  0
 18 21  1  0  0  0  0
 19 20  2  0  0  0  0
 19 30  1  0  0  0  0
 20 31  1  0  0  0  0
M  END
>  <Mol_ID>
3836

>  <Formula>
C15H9ClFN3O2

>  <MolWeight>
317.7022632

>  <Cat>
S6562

>  <Name>
KKL-35

>  <Synonyms>
N/A

>  <Target>
Antibiotics

>  <Form>
free base

>  <CAS>
865285-29-6

>  <URL>
http://www.selleck.cn/products/kkl-35.html

$$$$
