KL001
 OpenBabel08302521313D

 50 53  0  0  0  0  0  0  0  0999 V2000
    2.5483    1.2747    1.9446 S   0  0  0  0  0  0  0  0  0  0  0  0
   -0.8420    3.3921   -1.1595 O   0  0  0  0  0  0  0  0  0  0  0  0
    1.7570    2.0224    2.8931 O   0  0  0  0  0  0  0  0  0  0  0  0
    3.9748    1.0746    2.1191 O   0  0  0  0  0  0  0  0  0  0  0  0
    3.2485    4.5980    0.8144 O   0  0  0  0  0  0  0  0  0  0  0  0
    0.9096    4.9766   -2.8918 N   0  0  0  0  0  0  0  0  0  0  0  0
    2.2492    1.8783    0.3555 N   0  0  0  0  0  0  0  0  0  0  0  0
    1.2360    4.5381   -1.5346 C   0  0  0  0  0  0  0  0  0  0  0  0
    0.5874    3.1840   -1.1841 C   0  0  3  0  0  0  0  0  0  0  0  0
    0.9621    2.6384    0.2143 C   0  0  0  0  0  0  0  0  0  0  0  0
    1.5747    4.5826   -4.0401 C   0  0  0  0  0  0  0  0  0  0  0  0
   -0.1172    5.8484   -3.1964 C   0  0  0  0  0  0  0  0  0  0  0  0
    0.8961    5.1589   -5.1174 C   0  0  0  0  0  0  0  0  0  0  0  0
   -0.1388    5.9876   -4.5840 C   0  0  0  0  0  0  0  0  0  0  0  0
    3.4584    2.4304   -0.2994 C   0  0  0  0  0  0  0  0  0  0  0  0
    2.7004    3.7630   -4.2372 C   0  0  0  0  0  0  0  0  0  0  0  0
   -1.0445    6.5040   -2.3711 C   0  0  0  0  0  0  0  0  0  0  0  0
    1.3209    4.8568   -6.4305 C   0  0  0  0  0  0  0  0  0  0  0  0
   -1.1015    6.8418   -5.1644 C   0  0  0  0  0  0  0  0  0  0  0  0
    4.0562    3.5508    0.4765 C   0  0  0  0  0  0  0  0  0  0  0  0
    3.0994    3.4768   -5.5464 C   0  0  0  0  0  0  0  0  0  0  0  0
   -1.9893    7.3414   -2.9683 C   0  0  0  0  0  0  0  0  0  0  0  0
    2.4098    4.0026   -6.6318 C   0  0  0  0  0  0  0  0  0  0  0  0
   -2.0141    7.5148   -4.3470 C   0  0  0  0  0  0  0  0  0  0  0  0
    1.8626   -0.3518    1.8180 C   0  0  0  0  0  0  0  0  0  0  0  0
    5.2974    3.7110    1.0560 C   0  0  0  0  0  0  0  0  0  0  0  0
    5.2134    4.8663    1.8651 C   0  0  0  0  0  0  0  0  0  0  0  0
    3.9523    5.3787    1.6736 C   0  0  0  0  0  0  0  0  0  0  0  0
   -1.2753    2.5803   -1.4740 H   0  0  0  0  0  0  0  0  0  0  0  0
    0.9085    5.3211   -0.8428 H   0  0  0  0  0  0  0  0  0  0  0  0
    2.3231    4.5283   -1.4977 H   0  0  0  0  0  0  0  0  0  0  0  0
    0.7968    2.4411   -1.9623 H   0  0  0  0  0  0  0  0  0  0  0  0
    0.1714    1.9225    0.4846 H   0  0  0  0  0  0  0  0  0  0  0  0
    0.8961    3.4481    0.9482 H   0  0  0  0  0  0  0  0  0  0  0  0
    4.1879    1.6191   -0.4138 H   0  0  0  0  0  0  0  0  0  0  0  0
    3.2371    2.7215   -1.3238 H   0  0  0  0  0  0  0  0  0  0  0  0
    3.2631    3.3544   -3.4085 H   0  0  0  0  0  0  0  0  0  0  0  0
   -1.0475    6.3725   -1.2940 H   0  0  0  0  0  0  0  0  0  0  0  0
    0.7984    5.2799   -7.2834 H   0  0  0  0  0  0  0  0  0  0  0  0
   -1.1326    6.9815   -6.2410 H   0  0  0  0  0  0  0  0  0  0  0  0
    3.9586    2.8315   -5.7175 H   0  0  0  0  0  0  0  0  0  0  0  0
   -2.7106    7.8599   -2.3421 H   0  0  0  0  0  0  0  0  0  0  0  0
    2.7225    3.7570   -7.6434 H   0  0  0  0  0  0  0  0  0  0  0  0
   -2.7539    8.1728   -4.7928 H   0  0  0  0  0  0  0  0  0  0  0  0
    2.0469   -0.8512    2.7730 H   0  0  0  0  0  0  0  0  0  0  0  0
    0.7926   -0.2858    1.6284 H   0  0  0  0  0  0  0  0  0  0  0  0
    2.3843   -0.8872    1.0227 H   0  0  0  0  0  0  0  0  0  0  0  0
    6.1207    3.0140    0.9818 H   0  0  0  0  0  0  0  0  0  0  0  0
    5.9673    5.2543    2.5345 H   0  0  0  0  0  0  0  0  0  0  0  0
    3.4203    6.2273    2.0806 H   0  0  0  0  0  0  0  0  0  0  0  0
  1  3  2  0  0  0  0
  1  4  2  0  0  0  0
  1  7  1  0  0  0  0
  1 25  1  0  0  0  0
  2  9  1  0  0  0  0
  2 29  1  0  0  0  0
  5 20  1  0  0  0  0
  5 28  1  0  0  0  0
  6  8  1  0  0  0  0
  6 11  1  0  0  0  0
  6 12  1  0  0  0  0
  7 10  1  0  0  0  0
  7 15  1  0  0  0  0
  8  9  1  0  0  0  0
  8 30  1  0  0  0  0
  8 31  1  0  0  0  0
  9 10  1  0  0  0  0
  9 32  1  0  0  0  0
 10 33  1  0  0  0  0
 10 34  1  0  0  0  0
 11 13  1  0  0  0  0
 11 16  2  0  0  0  0
 12 14  2  0  0  0  0
 12 17  1  0  0  0  0
 13 14  1  0  0  0  0
 13 18  2  0  0  0  0
 14 19  1  0  0  0  0
 15 20  1  0  0  0  0
 15 35  1  0  0  0  0
 15 36  1  0  0  0  0
 16 21  1  0  0  0  0
 16 37  1  0  0  0  0
 17 22  2  0  0  0  0
 17 38  1  0  0  0  0
 18 23  1  0  0  0  0
 18 39  1  0  0  0  0
 19 24  2  0  0  0  0
 19 40  1  0  0  0  0
 20 26  2  0  0  0  0
 21 23  2  0  0  0  0
 21 41  1  0  0  0  0
 22 24  1  0  0  0  0
 22 42  1  0  0  0  0
 23 43  1  0  0  0  0
 24 44  1  0  0  0  0
 25 45  1  0  0  0  0
 25 46  1  0  0  0  0
 25 47  1  0  0  0  0
 26 27  1  0  0  0  0
 26 48  1  0  0  0  0
 27 28  2  0  0  0  0
 27 49  1  0  0  0  0
 28 50  1  0  0  0  0
M  END
>  <Mol_ID>
5892

>  <Formula>
C21H22N2O4S

>  <MolWeight>
398.47538

>  <Cat>
S6304

>  <Name>
KL001

>  <Synonyms>
N/A

>  <Target>
Others

>  <Form>
Free Base

>  <CAS>
309928-48-1

>  <URL>
http://www.selleckchem.com/products/kl001.html

$$$$
