KM11060
 OpenBabel08302521223D

 44 47  0  0  0  0  0  0  0  0999 V2000
   -0.7019   -0.8417   -1.4630 C   0  0  0  0  0  0  0  0  0  0  0  0
   -0.9478   -1.4923   -0.2167 C   0  0  0  0  0  0  0  0  0  0  0  0
   -0.7728    0.5724   -1.5004 C   0  0  0  0  0  0  0  0  0  0  0  0
   -0.3474   -1.5205   -2.6549 C   0  0  0  0  0  0  0  0  0  0  0  0
   -0.7806   -2.8857   -0.0789 N   0  0  0  0  0  0  0  0  0  0  0  0
   -1.2751   -0.6861    0.8810 C   0  0  0  0  0  0  0  0  0  0  0  0
   -1.0738    1.3219   -0.4306 N   0  0  0  0  0  0  0  0  0  0  0  0
   -0.4963    1.2340   -2.6895 C   0  0  0  0  0  0  0  0  0  0  0  0
   -0.1024   -0.8360   -3.8448 C   0  0  0  0  0  0  0  0  0  0  0  0
   -0.3336   -3.3781    1.2450 C   0  0  0  0  0  0  0  0  0  0  0  0
   -1.8463   -3.7361   -0.6693 C   0  0  0  0  0  0  0  0  0  0  0  0
   -1.3200    0.6864    0.7282 C   0  0  0  0  0  0  0  0  0  0  0  0
   -0.1688    0.5475   -3.8610 C   0  0  0  0  0  0  0  0  0  0  0  0
    0.2009   -4.8194    1.1112 C   0  0  0  0  0  0  0  0  0  0  0  0
   -1.3299   -5.1880   -0.7920 C   0  0  0  0  0  0  0  0  0  0  0  0
   -0.8326   -5.7219    0.5148 N   0  0  0  0  0  0  0  0  0  0  0  0
   -1.9799   -6.3708    1.5807 S   0  0  0  0  0  0  0  0  0  0  0  0
   -1.1654   -7.8701    2.0870 C   0  0  0  0  0  0  0  0  0  0  0  0
   -2.0851   -5.5085    2.7394 O   0  0  0  0  0  0  0  0  0  0  0  0
   -3.1541   -6.7512    0.8231 O   0  0  0  0  0  0  0  0  0  0  0  0
   -0.3249   -7.8716    3.2043 C   0  0  0  0  0  0  0  0  0  0  0  0
   -1.4028   -9.0496    1.3744 C   0  0  0  0  0  0  0  0  0  0  0  0
    0.3172   -9.0544    3.5793 C   0  0  0  0  0  0  0  0  0  0  0  0
   -0.7604  -10.2279    1.7567 C   0  0  0  0  0  0  0  0  0  0  0  0
    0.1075  -10.2261    2.8496 C   0  0  0  0  0  0  0  0  0  0  0  0
   -0.2487   -2.6018   -2.6569 H   0  0  0  0  0  0  0  0  0  0  0  0
   -1.4911   -1.1019    1.8571 H   0  0  0  0  0  0  0  0  0  0  0  0
   -0.5273    2.3213   -2.7023 H   0  0  0  0  0  0  0  0  0  0  0  0
    0.1524   -1.3846   -4.7473 H   0  0  0  0  0  0  0  0  0  0  0  0
    0.4747   -2.7486    1.6355 H   0  0  0  0  0  0  0  0  0  0  0  0
   -1.1661   -3.3420    1.9563 H   0  0  0  0  0  0  0  0  0  0  0  0
   -2.7448   -3.7045   -0.0420 H   0  0  0  0  0  0  0  0  0  0  0  0
   -2.1334   -3.3935   -1.6693 H   0  0  0  0  0  0  0  0  0  0  0  0
   -1.5507    1.3338    1.5696 H   0  0  0  0  0  0  0  0  0  0  0  0
    0.0432    1.0990   -4.7720 H   0  0  0  0  0  0  0  0  0  0  0  0
    1.0771   -4.8268    0.4506 H   0  0  0  0  0  0  0  0  0  0  0  0
    0.5387   -5.1957    2.0811 H   0  0  0  0  0  0  0  0  0  0  0  0
   -0.4855   -5.2183   -1.4944 H   0  0  0  0  0  0  0  0  0  0  0  0
   -2.0936   -5.8451   -1.2188 H   0  0  0  0  0  0  0  0  0  0  0  0
   -0.1649   -6.9667    3.7843 H   0  0  0  0  0  0  0  0  0  0  0  0
   -2.0827   -9.0591    0.5252 H   0  0  0  0  0  0  0  0  0  0  0  0
    0.9878   -9.0629    4.4346 H   0  0  0  0  0  0  0  0  0  0  0  0
   -0.9384  -11.1477    1.2052 H   0  0  0  0  0  0  0  0  0  0  0  0
    0.6149  -11.1440    3.1390 H   0  0  0  0  0  0  0  0  0  0  0  0
  1  2  1  0  0  0  0
  1  3  1  0  0  0  0
  1  4  2  0  0  0  0
  2  5  1  0  0  0  0
  2  6  2  0  0  0  0
  3  7  1  0  0  0  0
  3  8  2  0  0  0  0
  4  9  1  0  0  0  0
  4 26  1  0  0  0  0
  5 10  1  0  0  0  0
  5 11  1  0  0  0  0
  6 12  1  0  0  0  0
  6 27  1  0  0  0  0
  7 12  2  0  0  0  0
  8 13  1  0  0  0  0
  8 28  1  0  0  0  0
  9 13  2  0  0  0  0
  9 29  1  0  0  0  0
 10 14  1  0  0  0  0
 10 30  1  0  0  0  0
 10 31  1  0  0  0  0
 11 15  1  0  0  0  0
 11 32  1  0  0  0  0
 11 33  1  0  0  0  0
 12 34  1  0  0  0  0
 13 35  1  0  0  0  0
 14 16  1  0  0  0  0
 14 36  1  0  0  0  0
 14 37  1  0  0  0  0
 15 16  1  0  0  0  0
 15 38  1  0  0  0  0
 15 39  1  0  0  0  0
 16 17  1  0  0  0  0
 17 18  1  0  0  0  0
 17 19  2  0  0  0  0
 17 20  2  0  0  0  0
 18 21  2  0  0  0  0
 18 22  1  0  0  0  0
 21 23  1  0  0  0  0
 21 40  1  0  0  0  0
 22 24  2  0  0  0  0
 22 41  1  0  0  0  0
 23 25  2  0  0  0  0
 23 42  1  0  0  0  0
 24 25  1  0  0  0  0
 24 43  1  0  0  0  0
 25 44  1  0  0  0  0
M  END
>  <Mol_ID>
4737

>  <Formula>
C19H17Cl2N3O2S

>  <MolWeight>
422.32818

>  <Cat>
S6599

>  <Name>
KM11060

>  <Synonyms>
N/A

>  <Target>
CFTR

>  <Form>
Free Base

>  <CAS>
774549-97-2

>  <URL>
http://www.selleck.cn/products/km11060.html

$$$$
