KNK437.cdx
 OpenBabel08302519593D

 29 31  0  0  0  0  0  0  0  0999 V2000
    0.8311    1.0541   -0.9769 C   0  0  0  0  0  0  0  0  0  0  0  0
   -0.2965    0.4189   -0.5114 C   0  0  0  0  0  0  0  0  0  0  0  0
   -0.2279   -0.7838    0.1572 C   0  0  0  0  0  0  0  0  0  0  0  0
    1.0361   -1.3566    0.3360 C   0  0  0  0  0  0  0  0  0  0  0  0
    2.1936   -0.7136   -0.1517 C   0  0  0  0  0  0  0  0  0  0  0  0
    2.0907    0.5189   -0.8092 C   0  0  0  0  0  0  0  0  0  0  0  0
    0.5439    2.2228   -1.6112 O   0  0  0  0  0  0  0  0  0  0  0  0
   -0.8965    2.2263   -1.5305 C   0  0  0  0  0  0  0  0  0  0  0  0
   -1.4345    1.1060   -0.7979 O   0  0  0  0  0  0  0  0  0  0  0  0
    3.5057   -1.3430    0.0014 C   0  0  0  0  0  0  0  0  0  0  0  0
    4.3092   -1.2277    1.0687 C   0  0  0  0  0  0  0  0  0  0  0  0
    4.0383   -0.4512    2.3141 C   0  0  0  0  0  0  0  0  0  0  0  0
    5.1941   -0.5130    3.0701 N   0  0  0  0  0  0  0  0  0  0  0  0
    6.2757   -1.1867    2.4025 C   0  0  0  0  0  0  0  0  0  0  0  0
    5.6616   -1.8648    1.1910 C   0  0  0  0  0  0  0  0  0  0  0  0
    2.9952    0.0961    2.6163 O   0  0  0  0  0  0  0  0  0  0  0  0
    5.3489    0.1214    4.2758 C   0  0  0  0  0  0  0  0  0  0  0  0
    6.3906    0.1504    4.9228 O   0  0  0  0  0  0  0  0  0  0  0  0
   -1.1231   -1.2691    0.5282 H   0  0  0  0  0  0  0  0  0  0  0  0
    1.1174   -2.3057    0.8609 H   0  0  0  0  0  0  0  0  0  0  0  0
    2.9631    1.0416   -1.1837 H   0  0  0  0  0  0  0  0  0  0  0  0
   -1.2212    3.1537   -1.0455 H   0  0  0  0  0  0  0  0  0  0  0  0
   -1.3007    2.2028   -2.5495 H   0  0  0  0  0  0  0  0  0  0  0  0
    3.8183   -1.9387   -0.8532 H   0  0  0  0  0  0  0  0  0  0  0  0
    6.7569   -1.8981    3.0819 H   0  0  0  0  0  0  0  0  0  0  0  0
    7.0230   -0.4390    2.1119 H   0  0  0  0  0  0  0  0  0  0  0  0
    5.5541   -2.9403    1.3707 H   0  0  0  0  0  0  0  0  0  0  0  0
    6.2805   -1.7189    0.2998 H   0  0  0  0  0  0  0  0  0  0  0  0
    4.4310    0.6238    4.6251 H   0  0  0  0  0  0  0  0  0  0  0  0
  1  2  1  0  0  0  0
  1  7  1  0  0  0  0
  2  3  2  0  0  0  0
  3  4  1  0  0  0  0
  3 19  1  0  0  0  0
  4  5  2  0  0  0  0
  4 20  1  0  0  0  0
  5  6  1  0  0  0  0
  5 10  1  0  0  0  0
  6  1  2  0  0  0  0
  6 21  1  0  0  0  0
  7  8  1  0  0  0  0
  8  9  1  0  0  0  0
  8 22  1  0  0  0  0
  8 23  1  0  0  0  0
  9  2  1  0  0  0  0
 10 11  2  0  0  0  0
 10 24  1  0  0  0  0
 11 12  1  0  0  0  0
 12 13  1  0  0  0  0
 12 16  2  0  0  0  0
 13 14  1  0  0  0  0
 13 17  1  0  0  0  0
 14 15  1  0  0  0  0
 14 25  1  0  0  0  0
 14 26  1  0  0  0  0
 15 11  1  0  0  0  0
 15 27  1  0  0  0  0
 15 28  1  0  0  0  0
 17 18  2  0  0  0  0
 17 29  1  0  0  0  0
M  END
>  <Mol_ID>
2591

>  <Formula>
C13H11NO4

>  <MolWeight>
245.23074

>  <Cat>
S7750

>  <Name>
KNK437

>  <Synonyms>
N/A

>  <Target>
HSP (HSP90)

>  <Form>
free base

>  <CAS>
218924-25-5

>  <URL>
http://selleckchem.com/products/knk437.html

$$$$
