KP-457
 OpenBabel08302521373D

 56 57  0  0  0  0  0  0  0  0999 V2000
    0.7936   -0.1044   -0.0151 C   0  0  3  0  0  0  0  0  0  0  0  0
    0.4414    1.3024    0.5108 C   0  0  0  0  0  0  0  0  0  0  0  0
    0.3277   -0.3519   -1.3983 N   0  0  0  0  0  0  0  0  0  0  0  0
   -1.2997    1.6696    0.5857 S   0  0  0  0  0  0  0  0  0  0  0  0
    0.4802   -1.4535   -2.1911 C   0  0  0  0  0  0  0  0  0  0  0  0
   -0.0913    0.7928   -2.1062 O   0  0  0  0  0  0  0  0  0  0  0  0
   -1.9224    1.6750   -0.7122 O   0  0  0  0  0  0  0  0  0  0  0  0
   -1.8351    0.8376    1.6387 O   0  0  0  0  0  0  0  0  0  0  0  0
    0.0282   -1.5381   -3.3322 O   0  0  0  0  0  0  0  0  0  0  0  0
   -0.5467   -4.5750    3.4410 C   0  0  0  0  0  0  0  0  0  0  0  0
   -1.0600   -5.7590    2.7437 N   0  0  0  0  0  0  0  0  0  0  0  0
   -1.5517   -7.0400    3.7090 S   0  0  0  0  0  0  0  0  0  0  0  0
   -0.0076   -7.8719    4.0108 C   0  0  0  0  0  0  0  0  0  0  0  0
   -1.9964   -6.4584    4.9855 O   0  0  0  0  0  0  0  0  0  0  0  0
   -2.4021   -7.8777    2.9296 O   0  0  0  0  0  0  0  0  0  0  0  0
   -2.2605    7.2802    2.5288 O   0  0  0  0  0  0  0  0  0  0  0  0
   -2.7400    8.2873    1.6281 C   0  0  0  0  0  0  0  0  0  0  0  0
   -2.8921    9.6330    2.3183 C   0  0  0  0  0  0  0  0  0  0  0  0
   -3.0226   10.7873    2.9104 C   0  0  0  0  0  0  0  0  0  0  0  0
   -3.1747   12.1330    3.6006 C   0  0  0  0  0  0  0  0  0  0  0  0
    0.4744   -1.2795    0.8975 C   0  0  0  0  0  0  0  0  0  0  0  0
   -0.7847   -1.8730    0.8223 C   0  0  0  0  0  0  0  0  0  0  0  0
    1.4489   -1.8276    1.7567 C   0  0  0  0  0  0  0  0  0  0  0  0
   -1.1165   -2.9272    1.6471 C   0  0  0  0  0  0  0  0  0  0  0  0
    1.1507   -2.9742    2.4884 C   0  0  0  0  0  0  0  0  0  0  0  0
   -0.1535   -3.4873    2.4871 C   0  0  0  0  0  0  0  0  0  0  0  0
   -1.4336    3.3660    1.2200 C   0  0  0  0  0  0  0  0  0  0  0  0
   -1.4408    4.3982    0.2908 C   0  0  0  0  0  0  0  0  0  0  0  0
   -1.7157    3.6773    2.5624 C   0  0  0  0  0  0  0  0  0  0  0  0
   -1.7365    5.7140    0.6846 C   0  0  0  0  0  0  0  0  0  0  0  0
   -2.1071    4.9828    2.9324 C   0  0  0  0  0  0  0  0  0  0  0  0
   -2.0729    6.0213    2.0061 C   0  0  0  0  0  0  0  0  0  0  0  0
    1.8885   -0.1636   -0.0675 H   0  0  0  0  0  0  0  0  0  0  0  0
    0.8410    1.4167    1.5222 H   0  0  0  0  0  0  0  0  0  0  0  0
    0.8881    2.0600   -0.1364 H   0  0  0  0  0  0  0  0  0  0  0  0
    1.0550   -2.2607   -1.7231 H   0  0  0  0  0  0  0  0  0  0  0  0
   -0.7904    0.4227   -2.6912 H   0  0  0  0  0  0  0  0  0  0  0  0
    0.3276   -4.8413    4.0455 H   0  0  0  0  0  0  0  0  0  0  0  0
   -1.3119   -4.1661    4.1123 H   0  0  0  0  0  0  0  0  0  0  0  0
   -1.7056   -5.5765    1.9701 H   0  0  0  0  0  0  0  0  0  0  0  0
    0.6814   -7.1943    4.5129 H   0  0  0  0  0  0  0  0  0  0  0  0
   -0.2140   -8.7291    4.6555 H   0  0  0  0  0  0  0  0  0  0  0  0
    0.4046   -8.2204    3.0600 H   0  0  0  0  0  0  0  0  0  0  0  0
   -2.0516    8.3938    0.7841 H   0  0  0  0  0  0  0  0  0  0  0  0
   -3.7150    7.9653    1.2410 H   0  0  0  0  0  0  0  0  0  0  0  0
   -3.0523   12.0138    4.6807 H   0  0  0  0  0  0  0  0  0  0  0  0
   -2.4167   12.8293    3.2311 H   0  0  0  0  0  0  0  0  0  0  0  0
   -4.1667   12.5462    3.3980 H   0  0  0  0  0  0  0  0  0  0  0  0
   -1.5341   -1.4872    0.1417 H   0  0  0  0  0  0  0  0  0  0  0  0
    2.4483   -1.3966    1.8636 H   0  0  0  0  0  0  0  0  0  0  0  0
   -2.1421   -3.2868    1.6373 H   0  0  0  0  0  0  0  0  0  0  0  0
    1.9306   -3.4526    3.0774 H   0  0  0  0  0  0  0  0  0  0  0  0
   -1.1901    4.1954   -0.7475 H   0  0  0  0  0  0  0  0  0  0  0  0
   -1.5857    2.9702    3.3810 H   0  0  0  0  0  0  0  0  0  0  0  0
   -1.6829    6.4718   -0.0853 H   0  0  0  0  0  0  0  0  0  0  0  0
   -2.4177    5.1758    3.9583 H   0  0  0  0  0  0  0  0  0  0  0  0
  1  2  1  0  0  0  0
  1  3  1  0  0  0  0
  1 21  1  0  0  0  0
  1 33  1  0  0  0  0
  2  4  1  0  0  0  0
  2 34  1  0  0  0  0
  2 35  1  0  0  0  0
  3  5  1  0  0  0  0
  3  6  1  0  0  0  0
  4  7  2  0  0  0  0
  4  8  2  0  0  0  0
  4 27  1  0  0  0  0
  5  9  2  0  0  0  0
  5 36  1  0  0  0  0
  6 37  1  0  0  0  0
 10 11  1  0  0  0  0
 10 26  1  0  0  0  0
 10 38  1  0  0  0  0
 10 39  1  0  0  0  0
 11 12  1  0  0  0  0
 11 40  1  0  0  0  0
 12 13  1  0  0  0  0
 12 14  2  0  0  0  0
 12 15  2  0  0  0  0
 13 41  1  0  0  0  0
 13 42  1  0  0  0  0
 13 43  1  0  0  0  0
 16 17  1  0  0  0  0
 16 32  1  0  0  0  0
 17 18  1  0  0  0  0
 17 44  1  0  0  0  0
 17 45  1  0  0  0  0
 18 19  3  0  0  0  0
 19 20  1  0  0  0  0
 20 46  1  0  0  0  0
 20 47  1  0  0  0  0
 20 48  1  0  0  0  0
 21 22  2  0  0  0  0
 21 23  1  0  0  0  0
 22 24  1  0  0  0  0
 22 49  1  0  0  0  0
 23 25  2  0  0  0  0
 23 50  1  0  0  0  0
 24 26  2  0  0  0  0
 24 51  1  0  0  0  0
 25 26  1  0  0  0  0
 25 52  1  0  0  0  0
 27 28  2  0  0  0  0
 27 29  1  0  0  0  0
 28 30  1  0  0  0  0
 28 53  1  0  0  0  0
 29 31  2  0  0  0  0
 29 54  1  0  0  0  0
 30 32  2  0  0  0  0
 30 55  1  0  0  0  0
 31 32  1  0  0  0  0
 31 56  1  0  0  0  0
M  END
>  <Mol_ID>
7531

>  <Formula>
C21H24N2O7S2

>  <MolWeight>
480.55446

>  <Cat>
E1386

>  <Name>
KP-457

>  <Synonyms>
TNF©\¦Á©\converting enzyme

>  <Target>
Immunology & Inflammation related

>  <Form>
sulfate

>  <CAS>
1365803-52-6

>  <URL>
https://www.selleckchem.com/products/kp-457.html

$$$$
