KPLH1130
 OpenBabel08302521383D

 34 36  0  0  0  0  0  0  0  0999 V2000
    0.9842   -0.1983    0.3362 O   0  0  0  0  0  0  0  0  0  0  0  0
    6.6523    0.0497   -1.5474 O   0  0  0  0  0  0  0  0  0  0  0  0
    8.7484    4.0202   -0.1146 O   0  0  0  0  0  0  0  0  0  0  0  0
    0.8159    6.3335   -0.3007 C   0  0  0  0  0  0  0  0  0  0  0  0
    4.2500    0.6251   -0.0389 C   0  0  0  0  0  0  0  0  0  0  0  0
    2.9684    1.0616    0.1640 N   0  0  0  0  0  0  0  0  0  0  0  0
    4.3625   -0.6720   -0.1611 N   0  0  0  0  0  0  0  0  0  0  0  0
    2.1914   -0.0804    0.2104 C   0  0  0  0  0  0  0  0  0  0  0  0
    3.0853   -1.1312    0.0087 N   0  0  0  0  0  0  0  0  0  0  0  0
    5.4272    1.5216   -0.0445 C   0  0  0  0  0  0  0  0  0  0  0  0
    6.5601    1.1937   -0.8025 C   0  0  0  0  0  0  0  0  0  0  0  0
    5.4554    2.6768    0.7537 C   0  0  0  0  0  0  0  0  0  0  0  0
    7.6645    2.0442   -0.8224 C   0  0  0  0  0  0  0  0  0  0  0  0
    6.5571    3.5323    0.7290 C   0  0  0  0  0  0  0  0  0  0  0  0
    7.6513    3.2111   -0.0654 C   0  0  0  0  0  0  0  0  0  0  0  0
    2.4292    2.3528    0.0363 C   0  0  0  0  0  0  0  0  0  0  0  0
    1.5508    2.8356    1.0084 C   0  0  0  0  0  0  0  0  0  0  0  0
    2.7799    3.1706   -1.0444 C   0  0  0  0  0  0  0  0  0  0  0  0
    1.0552    4.1389    0.9212 C   0  0  0  0  0  0  0  0  0  0  0  0
    2.2521    4.4589   -1.1510 C   0  0  0  0  0  0  0  0  0  0  0  0
    1.3941    4.9559   -0.1634 C   0  0  0  0  0  0  0  0  0  0  0  0
    5.9357   -0.5586   -1.2677 H   0  0  0  0  0  0  0  0  0  0  0  0
    8.5997    4.7869    0.4657 H   0  0  0  0  0  0  0  0  0  0  0  0
    1.6144    7.0696   -0.4371 H   0  0  0  0  0  0  0  0  0  0  0  0
    0.1412    6.3693   -1.1621 H   0  0  0  0  0  0  0  0  0  0  0  0
    0.2460    6.6194    0.5891 H   0  0  0  0  0  0  0  0  0  0  0  0
    2.8326   -2.1086   -0.0618 H   0  0  0  0  0  0  0  0  0  0  0  0
    4.6267    2.9282    1.4099 H   0  0  0  0  0  0  0  0  0  0  0  0
    8.5377    1.7915   -1.4210 H   0  0  0  0  0  0  0  0  0  0  0  0
    6.5423    4.4330    1.3358 H   0  0  0  0  0  0  0  0  0  0  0  0
    1.2769    2.2188    1.8614 H   0  0  0  0  0  0  0  0  0  0  0  0
    3.4304    2.8043   -1.8360 H   0  0  0  0  0  0  0  0  0  0  0  0
    0.3978    4.5082    1.7058 H   0  0  0  0  0  0  0  0  0  0  0  0
    2.5070    5.0696   -2.0149 H   0  0  0  0  0  0  0  0  0  0  0  0
  1  8  2  0  0  0  0
  2 11  1  0  0  0  0
  2 22  1  0  0  0  0
  3 15  1  0  0  0  0
  3 23  1  0  0  0  0
  4 21  1  0  0  0  0
  4 24  1  0  0  0  0
  4 25  1  0  0  0  0
  4 26  1  0  0  0  0
  5  6  1  0  0  0  0
  5  7  2  0  0  0  0
  5 10  1  0  0  0  0
  6  8  1  0  0  0  0
  6 16  1  0  0  0  0
  7  9  1  0  0  0  0
  8  9  1  0  0  0  0
  9 27  1  0  0  0  0
 10 11  2  0  0  0  0
 10 12  1  0  0  0  0
 11 13  1  0  0  0  0
 12 14  2  0  0  0  0
 12 28  1  0  0  0  0
 13 15  2  0  0  0  0
 13 29  1  0  0  0  0
 14 15  1  0  0  0  0
 14 30  1  0  0  0  0
 16 17  2  0  0  0  0
 16 18  1  0  0  0  0
 17 19  1  0  0  0  0
 17 31  1  0  0  0  0
 18 20  2  0  0  0  0
 18 32  1  0  0  0  0
 19 21  2  0  0  0  0
 19 33  1  0  0  0  0
 20 21  1  0  0  0  0
 20 34  1  0  0  0  0
M  END
>  <Mol_ID>
7678

>  <Formula>
C15H13N3O3

>  <MolWeight>
283.28202

>  <Cat>
S2949

>  <Name>
KPLH1130

>  <Target>
Carbohydrate Metabolism

>  <Form>
free base

>  <CAS>
906669-07-6

>  <URL>
https://www.selleckchem.com/products/kplh1130.html

$$$$
