KPT-8602.cdx
 OpenBabel08302520433D

 40 42  0  0  0  0  0  0  0  0999 V2000
    1.3793   -0.2407   -0.0968 C   0  0  0  0  0  0  0  0  0  0  0  0
    0.5121   -1.3347    0.0541 C   0  0  0  0  0  0  0  0  0  0  0  0
   -0.8460   -1.1461    0.3680 C   0  0  0  0  0  0  0  0  0  0  0  0
   -1.3318    0.1601    0.5434 C   0  0  0  0  0  0  0  0  0  0  0  0
   -0.4846    1.2603    0.3886 C   0  0  0  0  0  0  0  0  0  0  0  0
    0.8604    1.0533    0.0503 C   0  0  0  0  0  0  0  0  0  0  0  0
    2.8492   -0.4237   -0.3892 C   0  0  0  0  0  0  0  0  0  0  0  0
   -1.7866   -2.3166    0.5227 C   0  0  0  0  0  0  0  0  0  0  0  0
   -1.1764   -3.5249    0.3737 F   0  0  0  0  0  0  0  0  0  0  0  0
   -2.3798   -2.3464    1.7475 F   0  0  0  0  0  0  0  0  0  0  0  0
   -2.7998   -2.2946   -0.3858 F   0  0  0  0  0  0  0  0  0  0  0  0
    3.2349   -1.7296   -0.4221 F   0  0  0  0  0  0  0  0  0  0  0  0
    3.2208    0.1075   -1.5847 F   0  0  0  0  0  0  0  0  0  0  0  0
    3.6375    0.1716    0.5490 F   0  0  0  0  0  0  0  0  0  0  0  0
   -0.9924    2.6110    0.5462 C   0  0  0  0  0  0  0  0  0  0  0  0
   -1.9256    2.9744    1.4768 N   0  0  0  0  0  0  0  0  0  0  0  0
   -2.0744    4.2608    1.2530 C   0  0  0  0  0  0  0  0  0  0  0  0
   -1.3299    4.6607    0.1593 N   0  0  0  0  0  0  0  0  0  0  0  0
   -0.5671    3.6148   -0.2170 N   0  0  0  0  0  0  0  0  0  0  0  0
   -1.3525    5.9212   -0.4429 C   0  0  0  0  0  0  0  0  0  0  0  0
   -0.8862    6.2170   -1.6795 C   0  0  0  0  0  0  0  0  0  0  0  0
   -0.9859    7.6254   -2.1763 C   0  0  0  0  0  0  0  0  0  0  0  0
   -0.8756    8.6149   -1.2514 N   0  0  0  0  0  0  0  0  0  0  0  0
   -1.1209    7.8889   -3.3657 O   0  0  0  0  0  0  0  0  0  0  0  0
   -0.5182    5.1613   -2.6408 C   0  0  0  0  0  0  0  0  0  0  0  0
   -1.4733    4.5157   -3.4109 C   0  0  0  0  0  0  0  0  0  0  0  0
   -1.2198    3.4565   -4.2094 N   0  0  0  0  0  0  0  0  0  0  0  0
    0.0583    3.0481   -4.2369 C   0  0  0  0  0  0  0  0  0  0  0  0
    1.0805    3.6062   -3.5680 N   0  0  0  0  0  0  0  0  0  0  0  0
    0.7601    4.6575   -2.7790 C   0  0  0  0  0  0  0  0  0  0  0  0
    0.9005   -2.3470   -0.0686 H   0  0  0  0  0  0  0  0  0  0  0  0
   -2.3829    0.3208    0.7849 H   0  0  0  0  0  0  0  0  0  0  0  0
    1.5192    1.9126   -0.0895 H   0  0  0  0  0  0  0  0  0  0  0  0
   -2.7310    4.9325    1.7877 H   0  0  0  0  0  0  0  0  0  0  0  0
   -1.8241    6.6796    0.1699 H   0  0  0  0  0  0  0  0  0  0  0  0
   -0.8688    9.5648   -1.6096 H   0  0  0  0  0  0  0  0  0  0  0  0
   -0.5988    8.4766   -0.2897 H   0  0  0  0  0  0  0  0  0  0  0  0
   -2.5161    4.8209   -3.3896 H   0  0  0  0  0  0  0  0  0  0  0  0
    0.2840    2.1840   -4.8519 H   0  0  0  0  0  0  0  0  0  0  0  0
    1.5929    5.0629   -2.2117 H   0  0  0  0  0  0  0  0  0  0  0  0
  1  2  2  0  0  0  0
  1  7  1  0  0  0  0
  2  3  1  0  0  0  0
  2 31  1  0  0  0  0
  3  4  2  0  0  0  0
  3  8  1  0  0  0  0
  4  5  1  0  0  0  0
  4 32  1  0  0  0  0
  5  6  2  0  0  0  0
  5 15  1  0  0  0  0
  6  1  1  0  0  0  0
  6 33  1  0  0  0  0
  7 12  1  0  0  0  0
  7 13  1  0  0  0  0
  7 14  1  0  0  0  0
  8  9  1  0  0  0  0
  8 10  1  0  0  0  0
  8 11  1  0  0  0  0
 15 16  1  0  0  0  0
 16 17  2  0  0  0  0
 17 18  1  0  0  0  0
 17 34  1  0  0  0  0
 18 19  1  0  0  0  0
 18 20  1  0  0  0  0
 19 15  2  0  0  0  0
 20 21  2  0  0  0  0
 20 35  1  0  0  0  0
 21 22  1  0  0  0  0
 21 25  1  0  0  0  0
 22 23  1  0  0  0  0
 22 24  2  0  0  0  0
 23 36  1  0  0  0  0
 23 37  1  0  0  0  0
 25 26  2  0  0  0  0
 26 27  1  0  0  0  0
 26 38  1  0  0  0  0
 27 28  2  0  0  0  0
 28 29  1  0  0  0  0
 28 39  1  0  0  0  0
 29 30  2  0  0  0  0
 30 25  1  0  0  0  0
 30 40  1  0  0  0  0
M  END
>  <Mol_ID>
4132

>  <Formula>
C17H10F6N6O

>  <MolWeight>
428.2913192

>  <Cat>
S8397

>  <Name>
Eltanexor (KPT-8602)

>  <Synonyms>
ONO-7706£¬ATG-016

>  <Target>
CRM1

>  <Form>
free base

>  <CAS>
1642300-52-4

>  <URL>
http://selleckchem.com/products/kpt-8602.html

$$$$
