KPT-276.cdx
 OpenBabel08302519573D

 39 41  0  0  0  0  0  0  0  0999 V2000
    1.0000   -0.2915   -0.7813 C   0  0  0  0  0  0  0  0  0  0  0  0
    0.4908   -1.3459   -0.0126 C   0  0  0  0  0  0  0  0  0  0  0  0
   -0.5391   -1.1338    0.9253 C   0  0  0  0  0  0  0  0  0  0  0  0
   -1.0540    0.1616    1.1024 C   0  0  0  0  0  0  0  0  0  0  0  0
   -0.5552    1.2249    0.3467 C   0  0  0  0  0  0  0  0  0  0  0  0
    0.4503    0.9782   -0.6050 C   0  0  0  0  0  0  0  0  0  0  0  0
   -1.0333    2.5824    0.5242 C   0  0  0  0  0  0  0  0  0  0  0  0
   -1.9751    2.9885    1.4232 N   0  0  0  0  0  0  0  0  0  0  0  0
   -2.0654    4.2752    1.1938 C   0  0  0  0  0  0  0  0  0  0  0  0
   -1.2568    4.6463    0.1314 N   0  0  0  0  0  0  0  0  0  0  0  0
   -0.5458    3.5733   -0.2303 N   0  0  0  0  0  0  0  0  0  0  0  0
    2.1372   -0.4756   -1.7551 C   0  0  0  0  0  0  0  0  0  0  0  0
    2.6199   -1.7468   -1.7838 F   0  0  0  0  0  0  0  0  0  0  0  0
    1.7942   -0.1812   -3.0371 F   0  0  0  0  0  0  0  0  0  0  0  0
    3.2081    0.3174   -1.4602 F   0  0  0  0  0  0  0  0  0  0  0  0
   -1.0745   -2.2718    1.7596 C   0  0  0  0  0  0  0  0  0  0  0  0
   -0.4682   -3.4657    1.4999 F   0  0  0  0  0  0  0  0  0  0  0  0
   -0.9159   -2.0576    3.0944 F   0  0  0  0  0  0  0  0  0  0  0  0
   -2.4057   -2.4794    1.5661 F   0  0  0  0  0  0  0  0  0  0  0  0
   -1.2286    5.8842   -0.5103 C   0  0  0  0  0  0  0  0  0  0  0  0
   -0.4801    6.2251   -1.5780 C   0  0  0  0  0  0  0  0  0  0  0  0
    0.4964    5.3560   -2.2818 C   0  0  0  0  0  0  0  0  0  0  0  0
    0.1195    5.0691   -3.5844 N   0  0  0  0  0  0  0  0  0  0  0  0
    1.5691    5.0275   -1.7889 O   0  0  0  0  0  0  0  0  0  0  0  0
    0.9455    4.2387   -4.4822 C   0  0  0  0  0  0  0  0  0  0  0  0
   -0.1709    3.1883   -4.4593 C   0  0  0  0  0  0  0  0  0  0  0  0
   -1.0865    4.2707   -3.8683 C   0  0  0  0  0  0  0  0  0  0  0  0
   -0.5511    2.7021   -5.6648 F   0  0  0  0  0  0  0  0  0  0  0  0
    0.0512    2.1135   -3.6655 F   0  0  0  0  0  0  0  0  0  0  0  0
    0.9082   -2.3474   -0.1375 H   0  0  0  0  0  0  0  0  0  0  0  0
   -1.8424    0.3404    1.8338 H   0  0  0  0  0  0  0  0  0  0  0  0
    0.8278    1.8021   -1.2176 H   0  0  0  0  0  0  0  0  0  0  0  0
   -2.7012    4.9790    1.7134 H   0  0  0  0  0  0  0  0  0  0  0  0
   -1.9315    6.6070   -0.1166 H   0  0  0  0  0  0  0  0  0  0  0  0
   -0.5743    7.2150   -2.0094 H   0  0  0  0  0  0  0  0  0  0  0  0
    1.1200    4.7070   -5.4560 H   0  0  0  0  0  0  0  0  0  0  0  0
    1.8982    3.9117   -4.0584 H   0  0  0  0  0  0  0  0  0  0  0  0
   -1.6352    3.9591   -2.9761 H   0  0  0  0  0  0  0  0  0  0  0  0
   -1.7627    4.7577   -4.5748 H   0  0  0  0  0  0  0  0  0  0  0  0
  1  2  2  0  0  0  0
  1 12  1  0  0  0  0
  2  3  1  0  0  0  0
  2 30  1  0  0  0  0
  3  4  2  0  0  0  0
  3 16  1  0  0  0  0
  4  5  1  0  0  0  0
  4 31  1  0  0  0  0
  5  6  2  0  0  0  0
  5  7  1  0  0  0  0
  6  1  1  0  0  0  0
  6 32  1  0  0  0  0
  7  8  1  0  0  0  0
  8  9  2  0  0  0  0
  9 10  1  0  0  0  0
  9 33  1  0  0  0  0
 10 11  1  0  0  0  0
 10 20  1  0  0  0  0
 11  7  2  0  0  0  0
 12 13  1  0  0  0  0
 12 14  1  0  0  0  0
 12 15  1  0  0  0  0
 16 17  1  0  0  0  0
 16 18  1  0  0  0  0
 16 19  1  0  0  0  0
 20 21  2  0  0  0  0
 20 34  1  0  0  0  0
 21 22  1  0  0  0  0
 21 35  1  0  0  0  0
 22 23  1  0  0  0  0
 22 24  2  0  0  0  0
 23 25  1  0  0  0  0
 25 26  1  0  0  0  0
 25 36  1  0  0  0  0
 25 37  1  0  0  0  0
 26 27  1  0  0  0  0
 26 28  1  0  0  0  0
 26 29  1  0  0  0  0
 27 23  1  0  0  0  0
 27 38  1  0  0  0  0
 27 39  1  0  0  0  0
M  END
>  <Mol_ID>
2270

>  <Formula>
C16H10F8N4O

>  <MolWeight>
426.2640256

>  <Cat>
S7251

>  <Name>
KPT-276

>  <Synonyms>
N/A

>  <Target>
CRM1

>  <Form>
free base

>  <CAS>
1421919-75-6

>  <URL>
http://selleckchem.com/products/kpt-276.html

$$$$
