KPT-185.cdx
 OpenBabel08302519573D

 41 42  0  0  0  0  0  0  0  0999 V2000
    1.0532   -0.2617   -0.6499 C   0  0  0  0  0  0  0  0  0  0  0  0
    0.4586   -1.3587   -0.0119 C   0  0  0  0  0  0  0  0  0  0  0  0
   -0.5978   -1.1758    0.8868 C   0  0  0  0  0  0  0  0  0  0  0  0
   -1.0759    0.1160    1.1460 C   0  0  0  0  0  0  0  0  0  0  0  0
   -0.5005    1.2245    0.5186 C   0  0  0  0  0  0  0  0  0  0  0  0
    0.5606    1.0190   -0.3798 C   0  0  0  0  0  0  0  0  0  0  0  0
    2.2009   -0.4257   -1.6114 C   0  0  0  0  0  0  0  0  0  0  0  0
    2.6052   -1.7202   -1.7503 F   0  0  0  0  0  0  0  0  0  0  0  0
    1.9048    0.0052   -2.8683 F   0  0  0  0  0  0  0  0  0  0  0  0
    3.3093    0.2663   -1.2267 F   0  0  0  0  0  0  0  0  0  0  0  0
   -1.2375   -2.1761    1.5690 O   0  0  0  0  0  0  0  0  0  0  0  0
   -0.7792   -3.5044    1.3418 C   0  0  0  0  0  0  0  0  0  0  0  0
   -0.9950    2.5797    0.7292 C   0  0  0  0  0  0  0  0  0  0  0  0
   -2.0530    2.9198    1.5259 N   0  0  0  0  0  0  0  0  0  0  0  0
   -2.1963    4.2041    1.2808 C   0  0  0  0  0  0  0  0  0  0  0  0
   -1.2997    4.6309    0.3118 N   0  0  0  0  0  0  0  0  0  0  0  0
   -0.4467    3.6210    0.1012 N   0  0  0  0  0  0  0  0  0  0  0  0
   -1.3041    5.8737   -0.3232 C   0  0  0  0  0  0  0  0  0  0  0  0
   -0.5076    6.3221   -1.3110 C   0  0  0  0  0  0  0  0  0  0  0  0
    0.5984    5.6242   -2.0240 C   0  0  0  0  0  0  0  0  0  0  0  0
    0.7680    4.4249   -2.1274 O   0  0  0  0  0  0  0  0  0  0  0  0
    1.3772    6.5905   -2.5790 O   0  0  0  0  0  0  0  0  0  0  0  0
    2.6185    6.2303   -3.2314 C   0  0  0  0  0  0  0  0  0  0  0  0
    3.6780    5.8550   -2.2017 C   0  0  0  0  0  0  0  0  0  0  0  0
    2.4761    5.1898   -4.3395 C   0  0  0  0  0  0  0  0  0  0  0  0
    0.8425   -2.3506   -0.2346 H   0  0  0  0  0  0  0  0  0  0  0  0
   -1.9068    0.2504    1.8359 H   0  0  0  0  0  0  0  0  0  0  0  0
    1.0095    1.8748   -0.8905 H   0  0  0  0  0  0  0  0  0  0  0  0
   -0.9908   -3.8177    0.3136 H   0  0  0  0  0  0  0  0  0  0  0  0
    0.2867   -3.6066    1.5735 H   0  0  0  0  0  0  0  0  0  0  0  0
   -1.3260   -4.1703    2.0154 H   0  0  0  0  0  0  0  0  0  0  0  0
   -2.9323    4.8625    1.7189 H   0  0  0  0  0  0  0  0  0  0  0  0
   -2.0767    6.5432    0.0443 H   0  0  0  0  0  0  0  0  0  0  0  0
   -0.6693    7.3359   -1.6698 H   0  0  0  0  0  0  0  0  0  0  0  0
    2.9506    7.1569   -3.7146 H   0  0  0  0  0  0  0  0  0  0  0  0
    3.4015    4.9553   -1.6436 H   0  0  0  0  0  0  0  0  0  0  0  0
    4.6469    5.6811   -2.6810 H   0  0  0  0  0  0  0  0  0  0  0  0
    3.7953    6.6611   -1.4689 H   0  0  0  0  0  0  0  0  0  0  0  0
    1.6820    5.4750   -5.0367 H   0  0  0  0  0  0  0  0  0  0  0  0
    3.4139    5.0928   -4.8971 H   0  0  0  0  0  0  0  0  0  0  0  0
    2.2315    4.1959   -3.9552 H   0  0  0  0  0  0  0  0  0  0  0  0
  1  2  2  0  0  0  0
  1  7  1  0  0  0  0
  2  3  1  0  0  0  0
  2 26  1  0  0  0  0
  3  4  2  0  0  0  0
  3 11  1  0  0  0  0
  4  5  1  0  0  0  0
  4 27  1  0  0  0  0
  5  6  2  0  0  0  0
  5 13  1  0  0  0  0
  6  1  1  0  0  0  0
  6 28  1  0  0  0  0
  7  8  1  0  0  0  0
  7  9  1  0  0  0  0
  7 10  1  0  0  0  0
 11 12  1  0  0  0  0
 12 29  1  0  0  0  0
 12 30  1  0  0  0  0
 12 31  1  0  0  0  0
 13 14  1  0  0  0  0
 14 15  2  0  0  0  0
 15 32  1  0  0  0  0
 16 17  1  0  0  0  0
 16 18  1  0  0  0  0
 16 15  1  0  0  0  0
 17 13  2  0  0  0  0
 18 19  2  0  0  0  0
 18 33  1  0  0  0  0
 19 20  1  0  0  0  0
 19 34  1  0  0  0  0
 20 21  2  0  0  0  0
 20 22  1  0  0  0  0
 22 23  1  0  0  0  0
 23 24  1  0  0  0  0
 23 25  1  0  0  0  0
 23 35  1  0  0  0  0
 24 36  1  0  0  0  0
 24 37  1  0  0  0  0
 24 38  1  0  0  0  0
 25 39  1  0  0  0  0
 25 40  1  0  0  0  0
 25 41  1  0  0  0  0
M  END
>  <Mol_ID>
2269

>  <Formula>
C16H16F3N3O3

>  <MolWeight>
355.3117496

>  <Cat>
S7125

>  <Name>
KPT-185

>  <Synonyms>
N/A

>  <Target>
CRM1

>  <Form>
free base

>  <CAS>
1333151-73-7

>  <URL>
http://selleckchem.com/products/kpt-185.html

$$$$
