KRIBB11.cdx
 OpenBabel08302520433D

 33 35  0  0  0  0  0  0  0  0999 V2000
    0.7096    1.2265   -0.0670 C   0  0  0  0  0  0  0  0  0  0  0  0
   -0.6748    1.1460   -0.0793 C   0  0  0  0  0  0  0  0  0  0  0  0
   -1.2963   -0.0456   -0.0503 N   0  0  0  0  0  0  0  0  0  0  0  0
   -0.5942   -1.2111   -0.0109 C   0  0  0  0  0  0  0  0  0  0  0  0
    0.8010   -1.1811   -0.0141 C   0  0  0  0  0  0  0  0  0  0  0  0
    1.4614    0.0555   -0.0234 C   0  0  0  0  0  0  0  0  0  0  0  0
   -1.4040    2.3289   -0.2514 N   0  0  0  0  0  0  0  0  0  0  0  0
   -2.8547    2.2247   -0.2298 C   0  0  0  0  0  0  0  0  0  0  0  0
    1.6080   -2.3992    0.0197 N   0  3  0  0  0  0  0  0  0  0  0  0
    1.0197   -3.4921    0.0672 O   0  0  0  0  0  0  0  0  0  0  0  0
    2.8397   -2.2762    0.0068 O   0  5  0  0  0  0  0  0  0  0  0  0
   -1.3506   -2.4018   -0.0521 N   0  0  0  0  0  0  0  0  0  0  0  0
   -2.6435   -2.6098    0.4853 C   0  0  0  0  0  0  0  0  0  0  0  0
   -3.1302   -1.8570    1.5636 C   0  0  0  0  0  0  0  0  0  0  0  0
   -4.3943   -2.0825    2.1213 C   0  0  0  0  0  0  0  0  0  0  0  0
   -5.1650   -3.0934    1.5474 C   0  0  0  0  0  0  0  0  0  0  0  0
   -4.7241   -3.8651    0.4790 C   0  0  0  0  0  0  0  0  0  0  0  0
   -3.4433   -3.6314   -0.0554 C   0  0  0  0  0  0  0  0  0  0  0  0
   -6.4205   -3.5571    1.8366 N   0  0  0  0  0  0  0  0  0  0  0  0
   -6.8312   -4.5602    1.0429 N   0  0  0  0  0  0  0  0  0  0  0  0
   -5.7991   -4.7435    0.2156 C   0  0  0  0  0  0  0  0  0  0  0  0
    1.2072    2.1897   -0.1159 H   0  0  0  0  0  0  0  0  0  0  0  0
    2.5460    0.1257   -0.0186 H   0  0  0  0  0  0  0  0  0  0  0  0
   -1.0626    3.0580    0.3669 H   0  0  0  0  0  0  0  0  0  0  0  0
   -3.2371    2.5047    0.7575 H   0  0  0  0  0  0  0  0  0  0  0  0
   -3.2648    2.9316   -0.9582 H   0  0  0  0  0  0  0  0  0  0  0  0
   -3.2486    1.2373   -0.4908 H   0  0  0  0  0  0  0  0  0  0  0  0
   -0.7857   -3.2507    0.0318 H   0  0  0  0  0  0  0  0  0  0  0  0
   -2.5134   -1.0748    2.0025 H   0  0  0  0  0  0  0  0  0  0  0  0
   -4.7492   -1.4911    2.9590 H   0  0  0  0  0  0  0  0  0  0  0  0
   -3.0884   -4.2217   -0.8971 H   0  0  0  0  0  0  0  0  0  0  0  0
   -7.0480   -3.2280    2.5614 H   0  0  0  0  0  0  0  0  0  0  0  0
   -5.8682   -5.5082   -0.5462 H   0  0  0  0  0  0  0  0  0  0  0  0
  1  2  2  0  0  0  0
  1 22  1  0  0  0  0
  2  3  1  0  0  0  0
  2  7  1  0  0  0  0
  3  4  2  0  0  0  0
  4  5  1  0  0  0  0
  4 12  1  0  0  0  0
  5  6  2  0  0  0  0
  5  9  1  0  0  0  0
  6  1  1  0  0  0  0
  6 23  1  0  0  0  0
  7  8  1  0  0  0  0
  7 24  1  0  0  0  0
  8 25  1  0  0  0  0
  8 26  1  0  0  0  0
  8 27  1  0  0  0  0
  9 10  2  0  0  0  0
  9 11  1  0  0  0  0
 12 13  1  0  0  0  0
 12 28  1  0  0  0  0
 13 14  2  0  0  0  0
 14 15  1  0  0  0  0
 14 29  1  0  0  0  0
 15 16  2  0  0  0  0
 15 30  1  0  0  0  0
 16 17  1  0  0  0  0
 16 19  1  0  0  0  0
 17 18  2  0  0  0  0
 18 13  1  0  0  0  0
 18 31  1  0  0  0  0
 19 20  1  0  0  0  0
 19 32  1  0  0  0  0
 20 21  2  0  0  0  0
 21 17  1  0  0  0  0
 21 33  1  0  0  0  0
M  CHG  2   9   1  11  -1
M  END
>  <Mol_ID>
4101

>  <Formula>
C13H12N6O2

>  <MolWeight>
284.27338

>  <Cat>
S8402

>  <Name>
KRIBB11

>  <Synonyms>
N/A

>  <Target>
Apoptosis related,HSP (HSP90)

>  <Form>
free base

>  <CAS>
342639-96-7

>  <URL>
http://selleckchem.com/products/kribb11.html

$$$$
