KS176
 OpenBabel08302521273D

 49 51  0  0  0  0  0  0  0  0999 V2000
   10.3712    2.5737    7.3875 O   0  0  0  0  0  0  0  0  0  0  0  0
    6.6905   -0.9779    2.0082 O   0  0  0  0  0  0  0  0  0  0  0  0
    3.2584   -3.5192    0.5447 O   0  0  0  0  0  0  0  0  0  0  0  0
    2.7373    2.6651   -3.1515 O   0  5  0  0  0  0  0  0  0  0  0  0
    0.9270    1.4812   -3.5135 O   0  0  0  0  0  0  0  0  0  0  0  0
    8.6365   -1.6485    3.0712 N   0  0  0  0  0  0  0  0  0  0  0  0
    5.4323   -2.7286    0.5888 N   0  0  0  0  0  0  0  0  0  0  0  0
    2.0552    1.6406   -3.0193 N   0  3  0  0  0  0  0  0  0  0  0  0
   10.3482    1.9610    4.4606 C   0  0  0  0  0  0  0  0  0  0  0  0
   10.9596    3.1891    5.0983 C   0  0  0  0  0  0  0  0  0  0  0  0
    9.1815   -0.4017    3.4505 C   0  0  0  0  0  0  0  0  0  0  0  0
    6.9147   -3.2787    2.4635 C   0  0  0  0  0  0  0  0  0  0  0  0
    5.9563   -3.6775    1.5065 C   0  0  0  0  0  0  0  0  0  0  0  0
    9.0095    1.9447    4.0551 C   0  0  0  0  0  0  0  0  0  0  0  0
   11.1130    0.7993    4.2977 C   0  0  0  0  0  0  0  0  0  0  0  0
    8.4308    0.7715    3.5555 C   0  0  0  0  0  0  0  0  0  0  0  0
   10.5328   -0.3729    3.8058 C   0  0  0  0  0  0  0  0  0  0  0  0
    7.3870   -1.8555    2.5139 C   0  0  0  0  0  0  0  0  0  0  0  0
   10.2702    3.5993    6.4037 C   0  0  0  0  0  0  0  0  0  0  0  0
    7.3306   -4.1981    3.4445 C   0  0  0  0  0  0  0  0  0  0  0  0
    5.5247   -5.0109    1.4838 C   0  0  0  0  0  0  0  0  0  0  0  0
    3.6604   -1.5449   -0.6541 C   0  0  0  0  0  0  0  0  0  0  0  0
    4.1038   -2.6956    0.2022 C   0  0  0  0  0  0  0  0  0  0  0  0
    6.8639   -5.5149    3.4269 C   0  0  0  0  0  0  0  0  0  0  0  0
    5.9810   -5.9261    2.4335 C   0  0  0  0  0  0  0  0  0  0  0  0
    4.4179   -0.3862   -0.8856 C   0  0  0  0  0  0  0  0  0  0  0  0
    2.3798   -1.6462   -1.2258 C   0  0  0  0  0  0  0  0  0  0  0  0
    2.6117    0.5380   -2.2258 C   0  0  0  0  0  0  0  0  0  0  0  0
    3.8967    0.6535   -1.6732 C   0  0  0  0  0  0  0  0  0  0  0  0
    1.8515   -0.6181   -2.0078 C   0  0  0  0  0  0  0  0  0  0  0  0
    9.9201    1.7887    7.0264 H   0  0  0  0  0  0  0  0  0  0  0  0
    9.2390   -2.4511    3.1830 H   0  0  0  0  0  0  0  0  0  0  0  0
    5.9269   -1.8402    0.5884 H   0  0  0  0  0  0  0  0  0  0  0  0
   10.9244    4.0172    4.3812 H   0  0  0  0  0  0  0  0  0  0  0  0
   12.0178    2.9945    5.3127 H   0  0  0  0  0  0  0  0  0  0  0  0
    8.3904    2.8345    4.1459 H   0  0  0  0  0  0  0  0  0  0  0  0
   12.1659    0.7919    4.5738 H   0  0  0  0  0  0  0  0  0  0  0  0
    7.3762    0.7955    3.2973 H   0  0  0  0  0  0  0  0  0  0  0  0
   11.1544   -1.2588    3.7103 H   0  0  0  0  0  0  0  0  0  0  0  0
    9.2122    3.8391    6.2571 H   0  0  0  0  0  0  0  0  0  0  0  0
   10.7588    4.4898    6.8120 H   0  0  0  0  0  0  0  0  0  0  0  0
    7.9772   -3.8961    4.2640 H   0  0  0  0  0  0  0  0  0  0  0  0
    4.8238   -5.3544    0.7257 H   0  0  0  0  0  0  0  0  0  0  0  0
    7.1734   -6.2174    4.1978 H   0  0  0  0  0  0  0  0  0  0  0  0
    5.6208   -6.9522    2.4095 H   0  0  0  0  0  0  0  0  0  0  0  0
    5.4020   -0.2436   -0.4560 H   0  0  0  0  0  0  0  0  0  0  0  0
    1.7734   -2.5338   -1.0551 H   0  0  0  0  0  0  0  0  0  0  0  0
    4.4997    1.5468   -1.8328 H   0  0  0  0  0  0  0  0  0  0  0  0
    0.8581   -0.7274   -2.4343 H   0  0  0  0  0  0  0  0  0  0  0  0
  1 19  1  0  0  0  0
  1 31  1  0  0  0  0
  2 18  2  0  0  0  0
  3 23  2  0  0  0  0
  4  8  1  0  0  0  0
  5  8  2  0  0  0  0
  6 11  1  0  0  0  0
  6 18  1  0  0  0  0
  6 32  1  0  0  0  0
  7 13  1  0  0  0  0
  7 23  1  0  0  0  0
  7 33  1  0  0  0  0
  8 28  1  0  0  0  0
  9 10  1  0  0  0  0
  9 14  2  0  0  0  0
  9 15  1  0  0  0  0
 10 19  1  0  0  0  0
 10 34  1  0  0  0  0
 10 35  1  0  0  0  0
 11 16  2  0  0  0  0
 11 17  1  0  0  0  0
 12 13  1  0  0  0  0
 12 18  1  0  0  0  0
 12 20  2  0  0  0  0
 13 21  2  0  0  0  0
 14 16  1  0  0  0  0
 14 36  1  0  0  0  0
 15 17  2  0  0  0  0
 15 37  1  0  0  0  0
 16 38  1  0  0  0  0
 17 39  1  0  0  0  0
 19 40  1  0  0  0  0
 19 41  1  0  0  0  0
 20 24  1  0  0  0  0
 20 42  1  0  0  0  0
 21 25  1  0  0  0  0
 21 43  1  0  0  0  0
 22 23  1  0  0  0  0
 22 26  2  0  0  0  0
 22 27  1  0  0  0  0
 24 25  2  0  0  0  0
 24 44  1  0  0  0  0
 25 45  1  0  0  0  0
 26 29  1  0  0  0  0
 26 46  1  0  0  0  0
 27 30  2  0  0  0  0
 27 47  1  0  0  0  0
 28 29  2  0  0  0  0
 28 30  1  0  0  0  0
 29 48  1  0  0  0  0
 30 49  1  0  0  0  0
M  CHG  2   4  -1   8   1
M  END
>  <Mol_ID>
5339

>  <Formula>
C22H19N3O5

>  <MolWeight>
405.40336

>  <Cat>
S0140

>  <Name>
KS176

>  <Synonyms>
N/A

>  <Target>
BCRP

>  <Form>
Free Base

>  <CAS>
1253452-78-6

>  <URL>
https://www.selleckchem.com/products/ks176.html

$$$$
