KT-531
 OpenBabel08302521353D

 42 44  0  0  0  0  0  0  0  0999 V2000
    0.9834    0.1777   -0.0798 N   0  0  0  0  0  0  0  0  0  0  0  0
    0.5001    1.5532    0.8586 S   0  0  0  0  0  0  0  0  0  0  0  0
    0.4508    0.1380   -1.4743 C   0  0  0  0  0  0  0  0  0  0  0  0
    1.2845    1.6076    2.0706 O   0  0  0  0  0  0  0  0  0  0  0  0
    0.4552    2.6937   -0.0404 O   0  0  0  0  0  0  0  0  0  0  0  0
   -0.3793   -0.7081    2.5491 F   0  0  0  0  0  0  0  0  0  0  0  0
   -2.9169   -1.3445    3.2439 F   0  0  0  0  0  0  0  0  0  0  0  0
   -4.5300    2.4355    0.9080 F   0  0  0  0  0  0  0  0  0  0  0  0
   -5.0030    0.2068    2.4185 F   0  0  0  0  0  0  0  0  0  0  0  0
   -5.0466   -1.5178   -2.4173 C   0  0  0  0  0  0  0  0  0  0  0  0
   -5.4371   -2.7367   -1.9095 N   0  0  0  0  0  0  0  0  0  0  0  0
   -5.7777   -0.8589   -3.1526 O   0  0  0  0  0  0  0  0  0  0  0  0
   -6.6762   -3.2288   -2.3814 O   0  0  0  0  0  0  0  0  0  0  0  0
    2.4667    0.0068   -0.0450 C   0  0  0  0  0  0  0  0  0  0  0  0
    3.2017   -1.1221   -0.7210 C   0  0  0  0  0  0  0  0  0  0  0  0
    3.0631   -1.1121    0.7690 C   0  0  0  0  0  0  0  0  0  0  0  0
   -1.1520    1.1988    1.3508 C   0  0  0  0  0  0  0  0  0  0  0  0
   -1.3840    0.0932    2.1645 C   0  0  0  0  0  0  0  0  0  0  0  0
   -2.2122    2.0138    0.9405 C   0  0  0  0  0  0  0  0  0  0  0  0
   -2.6845   -0.2382    2.5228 C   0  0  0  0  0  0  0  0  0  0  0  0
   -3.5077    1.6728    1.3183 C   0  0  0  0  0  0  0  0  0  0  0  0
   -3.7499    0.5461    2.0982 C   0  0  0  0  0  0  0  0  0  0  0  0
   -1.0087   -0.2337   -1.6257 C   0  0  0  0  0  0  0  0  0  0  0  0
   -1.7599    0.3252   -2.6698 C   0  0  0  0  0  0  0  0  0  0  0  0
   -1.6044   -1.2169   -0.8241 C   0  0  0  0  0  0  0  0  0  0  0  0
   -3.0754   -0.0887   -2.9030 C   0  0  0  0  0  0  0  0  0  0  0  0
   -2.9363   -1.5966   -1.0229 C   0  0  0  0  0  0  0  0  0  0  0  0
   -3.6668   -1.0613   -2.0889 C   0  0  0  0  0  0  0  0  0  0  0  0
    0.6712    1.0849   -1.9776 H   0  0  0  0  0  0  0  0  0  0  0  0
    0.9899   -0.6285   -2.0430 H   0  0  0  0  0  0  0  0  0  0  0  0
   -4.8097   -3.4236   -1.5092 H   0  0  0  0  0  0  0  0  0  0  0  0
   -6.9938   -2.4876   -2.9431 H   0  0  0  0  0  0  0  0  0  0  0  0
    2.9937    0.9614   -0.0353 H   0  0  0  0  0  0  0  0  0  0  0  0
    2.6556   -1.8831   -1.2627 H   0  0  0  0  0  0  0  0  0  0  0  0
    4.1783   -0.9011   -1.1395 H   0  0  0  0  0  0  0  0  0  0  0  0
    3.9425   -0.8955    1.3633 H   0  0  0  0  0  0  0  0  0  0  0  0
    2.3948   -1.8403    1.2141 H   0  0  0  0  0  0  0  0  0  0  0  0
   -2.0516    2.8932    0.3218 H   0  0  0  0  0  0  0  0  0  0  0  0
   -1.3172    1.0649   -3.3360 H   0  0  0  0  0  0  0  0  0  0  0  0
   -1.0319   -1.6957   -0.0307 H   0  0  0  0  0  0  0  0  0  0  0  0
   -3.6279    0.3338   -3.7425 H   0  0  0  0  0  0  0  0  0  0  0  0
   -3.3768   -2.3137   -0.3349 H   0  0  0  0  0  0  0  0  0  0  0  0
  1  2  1  0  0  0  0
  1  3  1  0  0  0  0
  1 14  1  0  0  0  0
  2  4  2  0  0  0  0
  2  5  2  0  0  0  0
  2 17  1  0  0  0  0
  3 23  1  0  0  0  0
  3 29  1  0  0  0  0
  3 30  1  0  0  0  0
  6 18  1  0  0  0  0
  7 20  1  0  0  0  0
  8 21  1  0  0  0  0
  9 22  1  0  0  0  0
 10 11  1  0  0  0  0
 10 12  2  0  0  0  0
 10 28  1  0  0  0  0
 11 13  1  0  0  0  0
 11 31  1  0  0  0  0
 13 32  1  0  0  0  0
 14 15  1  0  0  0  0
 14 16  1  0  0  0  0
 14 33  1  0  0  0  0
 15 16  1  0  0  0  0
 15 34  1  0  0  0  0
 15 35  1  0  0  0  0
 16 36  1  0  0  0  0
 16 37  1  0  0  0  0
 17 18  2  0  0  0  0
 17 19  1  0  0  0  0
 18 20  1  0  0  0  0
 19 21  2  0  0  0  0
 19 38  1  0  0  0  0
 20 22  2  0  0  0  0
 21 22  1  0  0  0  0
 23 24  2  0  0  0  0
 23 25  1  0  0  0  0
 24 26  1  0  0  0  0
 24 39  1  0  0  0  0
 25 27  2  0  0  0  0
 25 40  1  0  0  0  0
 26 28  2  0  0  0  0
 26 41  1  0  0  0  0
 27 28  1  0  0  0  0
 27 42  1  0  0  0  0
M  END
>  <Mol_ID>
6904

>  <Formula>
C17H14F4N2O4S

>  <MolWeight>
418.3626728

>  <Cat>
E1086

>  <Name>
KT-531

>  <Target>
HDAC

>  <Form>
Free base

>  <CAS>
2490284-18-7

>  <URL>
https://www.selleckchem.com/products/kt-531.html

$$$$
