KUN50259 (DAAO inhibitor-1)
 OpenBabel08302521313D

 16 17  0  0  0  0  0  0  0  0999 V2000
    0.9703    0.0441   -0.0125 F   0  0  0  0  0  0  0  0  0  0  0  0
    7.3635    0.5946    0.0721 O   0  0  0  0  0  0  0  0  0  0  0  0
    5.2693   -2.2088   -0.1320 N   0  0  0  0  0  0  0  0  0  0  0  0
    6.5331   -1.5919    0.1005 N   0  0  0  0  0  0  0  0  0  0  0  0
    4.3747   -1.1192   -0.0355 C   0  0  0  0  0  0  0  0  0  0  0  0
    5.0306    0.1094    0.0401 C   0  0  0  0  0  0  0  0  0  0  0  0
    6.4528   -0.2103    0.0772 C   0  0  0  0  0  0  0  0  0  0  0  0
    2.9962   -1.1625   -0.0603 C   0  0  0  0  0  0  0  0  0  0  0  0
    4.3747    1.3255    0.0862 C   0  0  0  0  0  0  0  0  0  0  0  0
    2.3101    0.0529   -0.0015 C   0  0  0  0  0  0  0  0  0  0  0  0
    2.9806    1.2859    0.0656 C   0  0  0  0  0  0  0  0  0  0  0  0
    5.0408   -2.9308    0.5552 H   0  0  0  0  0  0  0  0  0  0  0  0
    7.3861   -2.0688   -0.1682 H   0  0  0  0  0  0  0  0  0  0  0  0
    2.4501   -2.0949   -0.1298 H   0  0  0  0  0  0  0  0  0  0  0  0
    4.9244    2.2585    0.1389 H   0  0  0  0  0  0  0  0  0  0  0  0
    2.4016    2.2043    0.1006 H   0  0  0  0  0  0  0  0  0  0  0  0
  1 10  1  0  0  0  0
  2  7  2  0  0  0  0
  3  4  1  0  0  0  0
  3  5  1  0  0  0  0
  3 12  1  0  0  0  0
  4  7  1  0  0  0  0
  4 13  1  0  0  0  0
  5  6  2  0  0  0  0
  5  8  1  0  0  0  0
  6  7  1  0  0  0  0
  6  9  1  0  0  0  0
  8 10  2  0  0  0  0
  8 14  1  0  0  0  0
  9 11  2  0  0  0  0
  9 15  1  0  0  0  0
 10 11  1  0  0  0  0
 11 16  1  0  0  0  0
M  END
>  <Mol_ID>
5994

>  <Formula>
C7H5FN2O

>  <MolWeight>
152.1258032

>  <Cat>
S0727

>  <Name>
KUN50259 (DAAO inhibitor-1)

>  <Synonyms>
Compound 35

>  <Target>
Others

>  <Form>
Free Base

>  <CAS>
2065250-25-9

>  <URL>
http://www.selleckchem.com/products/daao-inhibitor-1.html

$$$$
