KW2449.cdx
 OpenBabel08302521343D

 45 48  0  0  0  0  0  0  0  0999 V2000
   -2.0664    2.3865   -3.0156 C   0  0  0  0  0  0  0  0  0  0  0  0
   -2.6131    2.2735   -4.2969 C   0  0  0  0  0  0  0  0  0  0  0  0
   -3.3109    1.1300   -4.6837 C   0  0  0  0  0  0  0  0  0  0  0  0
   -3.4845    0.0600   -3.7951 C   0  0  0  0  0  0  0  0  0  0  0  0
   -2.9431    0.1538   -2.4955 C   0  0  0  0  0  0  0  0  0  0  0  0
   -2.2525    1.3087   -2.1446 C   0  0  0  0  0  0  0  0  0  0  0  0
   -2.8899   -0.6695   -1.3278 C   0  0  0  0  0  0  0  0  0  0  0  0
   -2.2229   -0.0676   -0.3318 N   0  0  0  0  0  0  0  0  0  0  0  0
   -1.8518    1.1095   -0.8535 N   0  0  0  0  0  0  0  0  0  0  0  0
   -3.4682   -1.9822   -1.2223 C   0  0  0  0  0  0  0  0  0  0  0  0
   -3.4425   -2.7448   -0.1157 C   0  0  0  0  0  0  0  0  0  0  0  0
   -3.9959   -4.1000   -0.0381 C   0  0  0  0  0  0  0  0  0  0  0  0
   -3.4238   -5.0059    0.8606 C   0  0  0  0  0  0  0  0  0  0  0  0
   -3.9257   -6.3041    0.9707 C   0  0  0  0  0  0  0  0  0  0  0  0
   -4.9423   -6.7462    0.1198 C   0  0  0  0  0  0  0  0  0  0  0  0
   -5.5683   -5.8256   -0.7253 C   0  0  0  0  0  0  0  0  0  0  0  0
   -5.1006   -4.5100   -0.7959 C   0  0  0  0  0  0  0  0  0  0  0  0
   -5.3695   -8.1709    0.0397 C   0  0  0  0  0  0  0  0  0  0  0  0
   -6.5718   -8.3961   -0.0764 O   0  0  0  0  0  0  0  0  0  0  0  0
   -4.4052   -9.1812    0.0190 N   0  0  0  0  0  0  0  0  0  0  0  0
   -2.9490   -9.0279    0.1200 C   0  0  0  0  0  0  0  0  0  0  0  0
   -2.1871   -9.7331   -1.0091 C   0  0  0  0  0  0  0  0  0  0  0  0
   -2.5954  -11.1282   -1.2164 N   0  0  0  0  0  0  0  0  0  0  0  0
   -4.0644  -11.1922   -1.3724 C   0  0  0  0  0  0  0  0  0  0  0  0
   -4.8288  -10.5677   -0.1871 C   0  0  0  0  0  0  0  0  0  0  0  0
   -1.5225    3.2755   -2.7156 H   0  0  0  0  0  0  0  0  0  0  0  0
   -2.4909    3.0923   -5.0029 H   0  0  0  0  0  0  0  0  0  0  0  0
   -3.7258    1.0678   -5.6874 H   0  0  0  0  0  0  0  0  0  0  0  0
   -4.0298   -0.8236   -4.1137 H   0  0  0  0  0  0  0  0  0  0  0  0
   -1.3189    1.7415   -0.2693 H   0  0  0  0  0  0  0  0  0  0  0  0
   -3.9382   -2.3644   -2.1240 H   0  0  0  0  0  0  0  0  0  0  0  0
   -2.9468   -2.3714    0.7765 H   0  0  0  0  0  0  0  0  0  0  0  0
   -2.5628   -4.7234    1.4639 H   0  0  0  0  0  0  0  0  0  0  0  0
   -3.4671   -6.9779    1.6885 H   0  0  0  0  0  0  0  0  0  0  0  0
   -6.4100   -6.1308   -1.3440 H   0  0  0  0  0  0  0  0  0  0  0  0
   -5.6048   -3.8179   -1.4647 H   0  0  0  0  0  0  0  0  0  0  0  0
   -2.6248   -7.9944    0.0786 H   0  0  0  0  0  0  0  0  0  0  0  0
   -2.6644   -9.4407    1.0955 H   0  0  0  0  0  0  0  0  0  0  0  0
   -2.3201   -9.1689   -1.9404 H   0  0  0  0  0  0  0  0  0  0  0  0
   -1.1166   -9.6993   -0.7746 H   0  0  0  0  0  0  0  0  0  0  0  0
   -2.3372  -11.6636   -0.3881 H   0  0  0  0  0  0  0  0  0  0  0  0
   -4.3448  -10.6795   -2.3012 H   0  0  0  0  0  0  0  0  0  0  0  0
   -4.3524  -12.2418   -1.4841 H   0  0  0  0  0  0  0  0  0  0  0  0
   -4.6033  -11.1141    0.7370 H   0  0  0  0  0  0  0  0  0  0  0  0
   -5.9067  -10.6438   -0.3601 H   0  0  0  0  0  0  0  0  0  0  0  0
  1  2  2  0  0  0  0
  1 26  1  0  0  0  0
  2  3  1  0  0  0  0
  2 27  1  0  0  0  0
  3  4  2  0  0  0  0
  3 28  1  0  0  0  0
  4  5  1  0  0  0  0
  4 29  1  0  0  0  0
  5  6  2  0  0  0  0
  5  7  1  0  0  0  0
  6  1  1  0  0  0  0
  7  8  2  0  0  0  0
  7 10  1  0  0  0  0
  8  9  1  0  0  0  0
  9  6  1  0  0  0  0
  9 30  1  0  0  0  0
 10 11  2  0  0  0  0
 10 31  1  0  0  0  0
 11 12  1  0  0  0  0
 11 32  1  0  0  0  0
 12 13  2  0  0  0  0
 13 14  1  0  0  0  0
 13 33  1  0  0  0  0
 14 15  2  0  0  0  0
 14 34  1  0  0  0  0
 15 16  1  0  0  0  0
 15 18  1  0  0  0  0
 16 17  2  0  0  0  0
 16 35  1  0  0  0  0
 17 12  1  0  0  0  0
 17 36  1  0  0  0  0
 18 19  2  0  0  0  0
 18 20  1  0  0  0  0
 20 21  1  0  0  0  0
 21 22  1  0  0  0  0
 21 37  1  0  0  0  0
 21 38  1  0  0  0  0
 22 23  1  0  0  0  0
 22 39  1  0  0  0  0
 22 40  1  0  0  0  0
 23 24  1  0  0  0  0
 23 41  1  0  0  0  0
 24 25  1  0  0  0  0
 24 42  1  0  0  0  0
 24 43  1  0  0  0  0
 25 20  1  0  0  0  0
 25 44  1  0  0  0  0
 25 45  1  0  0  0  0
M  END
>  <Mol_ID>
621

>  <Formula>
C20H20N4O

>  <MolWeight>
332.399

>  <Cat>
S2158

>  <Name>
KW-2449

>  <Synonyms>
N/A

>  <Target>
Aurora Kinase,Bcr-Abl,FLT3

>  <Form>
free base

>  <CAS>
1000669-72-6

>  <URL>
http://selleckchem.com/products/KW-2449.html

$$$$
