KX2-391.cdx
 OpenBabel08302521433D

 61 64  0  0  0  0  0  0  0  0999 V2000
    1.3589   -0.2175    0.6390 C   0  0  0  0  0  0  0  0  0  0  0  0
    0.5869   -1.3452    0.3774 C   0  0  0  0  0  0  0  0  0  0  0  0
   -0.7643   -1.1853    0.0631 C   0  0  0  0  0  0  0  0  0  0  0  0
   -1.3468    0.0921    0.0576 C   0  0  0  0  0  0  0  0  0  0  0  0
   -0.5985    1.2445    0.3727 C   0  0  0  0  0  0  0  0  0  0  0  0
    0.7673    1.0544    0.6434 C   0  0  0  0  0  0  0  0  0  0  0  0
   -1.2181    2.5822    0.4822 C   0  0  0  0  0  0  0  0  0  0  0  0
   -2.5155    2.7639    0.9769 C   0  0  0  0  0  0  0  0  0  0  0  0
   -3.0221    4.0462    1.2022 C   0  0  0  0  0  0  0  0  0  0  0  0
   -2.2223    5.1467    0.9199 C   0  0  0  0  0  0  0  0  0  0  0  0
   -0.9938    5.0189    0.3688 N   0  0  0  0  0  0  0  0  0  0  0  0
   -0.5295    3.7574    0.1735 C   0  0  0  0  0  0  0  0  0  0  0  0
   -2.7033    6.5401    1.2143 C   0  0  0  0  0  0  0  0  0  0  0  0
   -1.8521    7.2354    2.2581 C   0  0  0  0  0  0  0  0  0  0  0  0
   -0.7877    7.9416    1.7405 N   0  0  0  0  0  0  0  0  0  0  0  0
    0.1125    8.7114    2.5702 C   0  0  0  0  0  0  0  0  0  0  0  0
    1.5445    8.2723    2.4028 C   0  0  0  0  0  0  0  0  0  0  0  0
    2.5152    9.1632    1.9172 C   0  0  0  0  0  0  0  0  0  0  0  0
    3.8505    8.7663    1.8059 C   0  0  0  0  0  0  0  0  0  0  0  0
    4.2289    7.4784    2.1762 C   0  0  0  0  0  0  0  0  0  0  0  0
    3.2742    6.5830    2.6544 C   0  0  0  0  0  0  0  0  0  0  0  0
    1.9389    6.9771    2.7669 C   0  0  0  0  0  0  0  0  0  0  0  0
    1.0342   -2.6414    0.4048 O   0  0  0  0  0  0  0  0  0  0  0  0
    2.3096   -2.8591    1.0114 C   0  0  0  0  0  0  0  0  0  0  0  0
    2.5531   -4.3614    1.2589 C   0  0  0  0  0  0  0  0  0  0  0  0
    2.4073   -5.2806    0.1220 N   0  0  0  0  0  0  0  0  0  0  0  0
    2.7268   -6.6714    0.5010 C   0  0  0  0  0  0  0  0  0  0  0  0
    4.2235   -7.0033    0.4198 C   0  0  0  0  0  0  0  0  0  0  0  0
    4.7067   -6.7940   -0.9098 O   0  0  0  0  0  0  0  0  0  0  0  0
    4.5504   -5.4195   -1.2799 C   0  0  0  0  0  0  0  0  0  0  0  0
    3.1012   -4.9193   -1.1248 C   0  0  0  0  0  0  0  0  0  0  0  0
   -2.1282    7.2015    3.4558 O   0  0  0  0  0  0  0  0  0  0  0  0
    2.4170   -0.2837    0.8603 H   0  0  0  0  0  0  0  0  0  0  0  0
   -1.3706   -2.0552   -0.1586 H   0  0  0  0  0  0  0  0  0  0  0  0
   -2.4056    0.1665   -0.1787 H   0  0  0  0  0  0  0  0  0  0  0  0
    1.4012    1.9010    0.9035 H   0  0  0  0  0  0  0  0  0  0  0  0
   -3.1376    1.9113    1.2405 H   0  0  0  0  0  0  0  0  0  0  0  0
   -4.0173    4.1683    1.6172 H   0  0  0  0  0  0  0  0  0  0  0  0
    0.4710    3.7267   -0.2499 H   0  0  0  0  0  0  0  0  0  0  0  0
   -2.7131    7.1275    0.2852 H   0  0  0  0  0  0  0  0  0  0  0  0
   -3.7346    6.5317    1.5835 H   0  0  0  0  0  0  0  0  0  0  0  0
   -0.5000    7.7408    0.7896 H   0  0  0  0  0  0  0  0  0  0  0  0
   -0.0029    9.7544    2.2611 H   0  0  0  0  0  0  0  0  0  0  0  0
   -0.1681    8.6509    3.6272 H   0  0  0  0  0  0  0  0  0  0  0  0
    2.2408   10.1756    1.6315 H   0  0  0  0  0  0  0  0  0  0  0  0
    4.5953    9.4660    1.4353 H   0  0  0  0  0  0  0  0  0  0  0  0
    5.2690    7.1732    2.0970 H   0  0  0  0  0  0  0  0  0  0  0  0
    3.5676    5.5781    2.9466 H   0  0  0  0  0  0  0  0  0  0  0  0
    1.2016    6.2724    3.1486 H   0  0  0  0  0  0  0  0  0  0  0  0
    3.1063   -2.4462    0.3807 H   0  0  0  0  0  0  0  0  0  0  0  0
    2.3422   -2.3623    1.9910 H   0  0  0  0  0  0  0  0  0  0  0  0
    3.5353   -4.4718    1.7317 H   0  0  0  0  0  0  0  0  0  0  0  0
    1.8031   -4.6696    2.0011 H   0  0  0  0  0  0  0  0  0  0  0  0
    2.1895   -7.3278   -0.1954 H   0  0  0  0  0  0  0  0  0  0  0  0
    2.3444   -6.9044    1.5008 H   0  0  0  0  0  0  0  0  0  0  0  0
    4.8163   -6.4035    1.1204 H   0  0  0  0  0  0  0  0  0  0  0  0
    4.3859   -8.0565    0.6700 H   0  0  0  0  0  0  0  0  0  0  0  0
    4.8461   -5.3400   -2.3328 H   0  0  0  0  0  0  0  0  0  0  0  0
    5.2491   -4.8139   -0.6936 H   0  0  0  0  0  0  0  0  0  0  0  0
    2.5149   -5.3719   -1.9353 H   0  0  0  0  0  0  0  0  0  0  0  0
    3.0686   -3.8433   -1.3218 H   0  0  0  0  0  0  0  0  0  0  0  0
  1  2  2  0  0  0  0
  1 33  1  0  0  0  0
  2  3  1  0  0  0  0
  2 23  1  0  0  0  0
  3  4  2  0  0  0  0
  3 34  1  0  0  0  0
  4  5  1  0  0  0  0
  4 35  1  0  0  0  0
  5  6  2  0  0  0  0
  5  7  1  0  0  0  0
  6  1  1  0  0  0  0
  6 36  1  0  0  0  0
  7  8  2  0  0  0  0
  8  9  1  0  0  0  0
  8 37  1  0  0  0  0
  9 10  2  0  0  0  0
  9 38  1  0  0  0  0
 10 11  1  0  0  0  0
 10 13  1  0  0  0  0
 11 12  2  0  0  0  0
 12  7  1  0  0  0  0
 12 39  1  0  0  0  0
 13 14  1  0  0  0  0
 13 40  1  0  0  0  0
 13 41  1  0  0  0  0
 14 15  1  0  0  0  0
 14 32  2  0  0  0  0
 15 16  1  0  0  0  0
 15 42  1  0  0  0  0
 16 17  1  0  0  0  0
 16 43  1  0  0  0  0
 16 44  1  0  0  0  0
 17 18  2  0  0  0  0
 18 19  1  0  0  0  0
 18 45  1  0  0  0  0
 19 20  2  0  0  0  0
 19 46  1  0  0  0  0
 20 21  1  0  0  0  0
 20 47  1  0  0  0  0
 21 22  2  0  0  0  0
 21 48  1  0  0  0  0
 22 17  1  0  0  0  0
 22 49  1  0  0  0  0
 23 24  1  0  0  0  0
 24 25  1  0  0  0  0
 24 50  1  0  0  0  0
 24 51  1  0  0  0  0
 25 26  1  0  0  0  0
 25 52  1  0  0  0  0
 25 53  1  0  0  0  0
 26 27  1  0  0  0  0
 27 28  1  0  0  0  0
 27 54  1  0  0  0  0
 27 55  1  0  0  0  0
 28 29  1  0  0  0  0
 28 56  1  0  0  0  0
 28 57  1  0  0  0  0
 29 30  1  0  0  0  0
 30 31  1  0  0  0  0
 30 58  1  0  0  0  0
 30 59  1  0  0  0  0
 31 26  1  0  0  0  0
 31 60  1  0  0  0  0
 31 61  1  0  0  0  0
M  END
>  <Mol_ID>
870

>  <Formula>
C26H29N3O3

>  <MolWeight>
431.52676

>  <Cat>
S2700

>  <Name>
Tirbanibulin

>  <Synonyms>
KX2-391,KX 01

>  <Target>
Src

>  <Form>
free base

>  <CAS>
897016-82-9

>  <URL>
http://selleckchem.com/products/kx2-391.html

$$$$
