KY-05009
 OpenBabel08302521343D

 41 43  0  0  0  0  0  0  0  0999 V2000
   -1.1046    0.0026   -0.1668 S   0  0  0  0  0  0  0  0  0  0  0  0
    0.2085   -1.1003    0.0347 C   0  0  0  0  0  0  0  0  0  0  0  0
    1.3887   -0.5277    0.1454 N   0  0  0  0  0  0  0  0  0  0  0  0
    1.2655    0.8578    0.0999 C   0  0  0  0  0  0  0  0  0  0  0  0
   -0.0290    1.3132   -0.0284 C   0  0  0  0  0  0  0  0  0  0  0  0
    2.4431    1.7202    0.1095 C   0  0  0  0  0  0  0  0  0  0  0  0
    2.3940    2.9460    0.1479 O   0  0  0  0  0  0  0  0  0  0  0  0
    3.6222    1.0359    0.0372 N   0  0  0  0  0  0  0  0  0  0  0  0
   -0.0120   -2.4359    0.0384 N   0  0  0  0  0  0  0  0  0  0  0  0
    0.8409   -3.4184    0.5760 C   0  0  0  0  0  0  0  0  0  0  0  0
    1.7574   -3.1466    1.6026 C   0  0  0  0  0  0  0  0  0  0  0  0
    2.6213   -4.1345    2.0829 C   0  0  0  0  0  0  0  0  0  0  0  0
    2.6049   -5.4058    1.5187 C   0  0  0  0  0  0  0  0  0  0  0  0
    1.7197   -5.6896    0.4815 C   0  0  0  0  0  0  0  0  0  0  0  0
    0.8420   -4.7037    0.0179 C   0  0  0  0  0  0  0  0  0  0  0  0
   -0.4774    2.6216    0.0164 N   0  0  0  0  0  0  0  0  0  0  0  0
   -1.4029    3.1163   -0.8851 C   0  0  0  0  0  0  0  0  0  0  0  0
   -1.7020    4.5797   -0.7933 C   0  0  0  0  0  0  0  0  0  0  0  0
   -0.8658    5.5166   -0.1649 C   0  0  0  0  0  0  0  0  0  0  0  0
   -1.2370    6.8651   -0.1066 C   0  0  0  0  0  0  0  0  0  0  0  0
   -2.4386    7.3020   -0.6758 C   0  0  0  0  0  0  0  0  0  0  0  0
   -3.2620    6.3727   -1.3189 C   0  0  0  0  0  0  0  0  0  0  0  0
   -2.8961    5.0272   -1.3790 C   0  0  0  0  0  0  0  0  0  0  0  0
   -1.9585    2.4590   -1.7605 O   0  0  0  0  0  0  0  0  0  0  0  0
   -2.8479    8.7441   -0.6159 C   0  0  0  0  0  0  0  0  0  0  0  0
    3.5963    0.0269   -0.0727 H   0  0  0  0  0  0  0  0  0  0  0  0
    4.4878    1.5395   -0.0785 H   0  0  0  0  0  0  0  0  0  0  0  0
   -0.9193   -2.7759   -0.2556 H   0  0  0  0  0  0  0  0  0  0  0  0
    1.7913   -2.1621    2.0632 H   0  0  0  0  0  0  0  0  0  0  0  0
    3.3066   -3.9035    2.8938 H   0  0  0  0  0  0  0  0  0  0  0  0
    3.2854   -6.1716    1.8817 H   0  0  0  0  0  0  0  0  0  0  0  0
    1.7190   -6.6750    0.0240 H   0  0  0  0  0  0  0  0  0  0  0  0
    0.1749   -4.9420   -0.8067 H   0  0  0  0  0  0  0  0  0  0  0  0
    0.1821    3.2764    0.4203 H   0  0  0  0  0  0  0  0  0  0  0  0
    0.0908    5.2410    0.2688 H   0  0  0  0  0  0  0  0  0  0  0  0
   -0.5751    7.5751    0.3862 H   0  0  0  0  0  0  0  0  0  0  0  0
   -4.1960    6.6890   -1.7782 H   0  0  0  0  0  0  0  0  0  0  0  0
   -3.5507    4.3201   -1.8867 H   0  0  0  0  0  0  0  0  0  0  0  0
   -2.9331    9.1531   -1.6280 H   0  0  0  0  0  0  0  0  0  0  0  0
   -3.8122    8.8410   -0.1060 H   0  0  0  0  0  0  0  0  0  0  0  0
   -2.1173    9.3478   -0.0683 H   0  0  0  0  0  0  0  0  0  0  0  0
  1  2  1  0  0  0  0
  1  5  1  0  0  0  0
  2  3  2  0  0  0  0
  2  9  1  0  0  0  0
  3  4  1  0  0  0  0
  4  5  2  0  0  0  0
  4  6  1  0  0  0  0
  5 16  1  0  0  0  0
  6  7  2  0  0  0  0
  6  8  1  0  0  0  0
  8 26  1  0  0  0  0
  8 27  1  0  0  0  0
  9 10  1  0  0  0  0
  9 28  1  0  0  0  0
 10 11  2  0  0  0  0
 10 15  1  0  0  0  0
 11 12  1  0  0  0  0
 11 29  1  0  0  0  0
 12 13  2  0  0  0  0
 12 30  1  0  0  0  0
 13 14  1  0  0  0  0
 13 31  1  0  0  0  0
 14 15  2  0  0  0  0
 14 32  1  0  0  0  0
 15 33  1  0  0  0  0
 16 17  1  0  0  0  0
 16 34  1  0  0  0  0
 17 18  1  0  0  0  0
 17 24  2  0  0  0  0
 18 19  2  0  0  0  0
 18 23  1  0  0  0  0
 19 20  1  0  0  0  0
 19 35  1  0  0  0  0
 20 21  2  0  0  0  0
 20 36  1  0  0  0  0
 21 22  1  0  0  0  0
 21 25  1  0  0  0  0
 22 23  2  0  0  0  0
 22 37  1  0  0  0  0
 23 38  1  0  0  0  0
 25 39  1  0  0  0  0
 25 40  1  0  0  0  0
 25 41  1  0  0  0  0
M  END
>  <Mol_ID>
6445

>  <Formula>
C18H16N4O2S

>  <MolWeight>
352.41024

>  <Cat>
E2376

>  <Name>
KY-05009

>  <Target>
MAP4K,Wnt/beta-catenin

>  <Form>
free base

>  <CAS>
1228280-29-2

>  <URL>
http://www.selleckchem.com/products/ky-05009.html

$$$$
