L-(+)-Ergothioneine
 OpenBabel08302521453D

 30 30  0  0  1  0  0  0  0  0999 V2000
    7.8725    2.5333   -4.6683 S   0  0  0  0  0  0  0  0  0  0  0  0
    5.1048   -3.3677   -1.9605 O   0  5  0  0  0  0  0  0  0  0  0  0
    6.3458   -1.9531   -0.6475 O   0  0  0  0  0  0  0  0  0  0  0  0
    3.1804   -1.5398    0.0377 N   0  3  0  0  0  0  0  0  0  0  0  0
    6.2107    1.4676   -2.7845 N   0  0  0  0  0  0  0  0  0  0  0  0
    5.9585    0.5920   -4.8051 N   0  0  0  0  0  0  0  0  0  0  0  0
    4.1191   -1.3207   -1.2773 C   0  0  1  0  0  0  0  0  0  0  0  0
    4.6067    0.1362   -1.4014 C   0  0  0  0  0  0  0  0  0  0  0  0
    3.9875   -1.2790    1.3000 C   0  0  0  0  0  0  0  0  0  0  0  0
    1.9394   -0.6916   -0.0099 C   0  0  0  0  0  0  0  0  0  0  0  0
    2.7821   -3.0225    0.0288 C   0  0  0  0  0  0  0  0  0  0  0  0
    5.2500    0.4777   -2.7114 C   0  0  0  0  0  0  0  0  0  0  0  0
    5.3516   -2.2931   -1.3489 C   0  0  0  0  0  0  0  0  0  0  0  0
    5.1077   -0.0522   -3.9395 C   0  0  0  0  0  0  0  0  0  0  0  0
    6.6917    1.5434   -4.0933 C   0  0  0  0  0  0  0  0  0  0  0  0
    6.5997    1.9841   -2.0086 H   0  0  0  0  0  0  0  0  0  0  0  0
    6.1013    0.3714   -5.7797 H   0  0  0  0  0  0  0  0  0  0  0  0
    3.4415   -1.5503   -2.1116 H   0  0  0  0  0  0  0  0  0  0  0  0
    5.3094    0.3690   -0.5929 H   0  0  0  0  0  0  0  0  0  0  0  0
    3.7685    0.8313   -1.2866 H   0  0  0  0  0  0  0  0  0  0  0  0
    4.2685   -0.2240    1.3292 H   0  0  0  0  0  0  0  0  0  0  0  0
    3.3494   -1.5112    2.1587 H   0  0  0  0  0  0  0  0  0  0  0  0
    4.8653   -1.9266    1.3204 H   0  0  0  0  0  0  0  0  0  0  0  0
    1.4152   -0.8890   -0.9492 H   0  0  0  0  0  0  0  0  0  0  0  0
    1.3047   -0.9573    0.8411 H   0  0  0  0  0  0  0  0  0  0  0  0
    2.2163    0.3618    0.0674 H   0  0  0  0  0  0  0  0  0  0  0  0
    2.3047   -3.2472   -0.9295 H   0  0  0  0  0  0  0  0  0  0  0  0
    3.6683   -3.6403    0.1902 H   0  0  0  0  0  0  0  0  0  0  0  0
    2.0744   -3.1861    0.8475 H   0  0  0  0  0  0  0  0  0  0  0  0
    4.4770   -0.8609   -4.2774 H   0  0  0  0  0  0  0  0  0  0  0  0
  1 15  2  0  0  0  0
  2 13  1  0  0  0  0
  3 13  2  0  0  0  0
  4  9  1  0  0  0  0
  4 10  1  0  0  0  0
  4 11  1  0  0  0  0
  5 12  1  0  0  0  0
  5 15  1  0  0  0  0
  5 16  1  0  0  0  0
  6 14  1  0  0  0  0
  6 15  1  0  0  0  0
  6 17  1  0  0  0  0
  7 13  1  0  0  0  0
  7 18  1  6  0  0  0
  7  8  1  0  0  0  0
  7  4  1  0  0  0  0
  8 12  1  0  0  0  0
  8 19  1  0  0  0  0
  8 20  1  0  0  0  0
  9 21  1  0  0  0  0
  9 22  1  0  0  0  0
  9 23  1  0  0  0  0
 10 24  1  0  0  0  0
 10 25  1  0  0  0  0
 10 26  1  0  0  0  0
 11 27  1  0  0  0  0
 11 28  1  0  0  0  0
 11 29  1  0  0  0  0
 12 14  2  0  0  0  0
 14 30  1  0  0  0  0
M  CHG  2   2  -1   4   1
M  END
>  <Mol_ID>
9544

>  <Formula>
C9H15N3O2S

>  <MolWeight>
229.2993

>  <Cat>
E2759

>  <Name>
L-(+)-Ergothioneine

>  <Synonyms>
Ergothioneine

>  <Target>
Others

>  <Form>
Free base

>  <CAS>
497-30-3

>  <URL>
https://www.selleckchem.com/products/l--ergothioneine.html

$$$$
