L-(-)-Glucose
 OpenBabel08302521293D

 24 23  0  0  0  0  0  0  0  0999 V2000
   -0.6209    3.1353   -1.2873 O   0  0  0  0  0  0  0  0  0  0  0  0
    1.6465    2.5306    1.5465 O   0  0  0  0  0  0  0  0  0  0  0  0
   -0.7295    3.6339    2.4108 O   0  0  0  0  0  0  0  0  0  0  0  0
   -0.3159    0.5377    1.3351 O   0  0  0  0  0  0  0  0  0  0  0  0
   -2.8344    4.3301   -0.5045 O   0  0  0  0  0  0  0  0  0  0  0  0
    1.9457   -0.9375    1.0220 O   0  0  0  0  0  0  0  0  0  0  0  0
   -0.1196    3.3480    0.0376 C   0  0  2  0  0  0  0  0  0  0  0  0
    1.0022    2.3078    0.2837 C   0  0  2  0  0  0  0  0  0  0  0  0
   -1.2500    3.3880    1.1033 C   0  0  2  0  0  0  0  0  0  0  0  0
    0.5102    0.8513    0.2159 C   0  0  1  0  0  0  0  0  0  0  0  0
   -2.2779    4.4908    0.7994 C   0  0  0  0  0  0  0  0  0  0  0  0
    1.7140   -0.0855    0.1699 C   0  0  0  0  0  0  0  0  0  0  0  0
   -1.5195    3.5369   -1.3190 H   0  0  0  0  0  0  0  0  0  0  0  0
    2.0852    3.4002    1.4996 H   0  0  0  0  0  0  0  0  0  0  0  0
   -0.1588    2.8690    2.6269 H   0  0  0  0  0  0  0  0  0  0  0  0
    0.3015    0.3299    2.0640 H   0  0  0  0  0  0  0  0  0  0  0  0
   -3.5012    5.0343   -0.6076 H   0  0  0  0  0  0  0  0  0  0  0  0
    0.3615    4.3349    0.0473 H   0  0  0  0  0  0  0  0  0  0  0  0
    1.7628    2.4440   -0.4969 H   0  0  0  0  0  0  0  0  0  0  0  0
   -1.7952    2.4391    1.1073 H   0  0  0  0  0  0  0  0  0  0  0  0
   -0.0624    0.6691   -0.6966 H   0  0  0  0  0  0  0  0  0  0  0  0
   -3.0876    4.4640    1.5379 H   0  0  0  0  0  0  0  0  0  0  0  0
   -1.8117    5.4799    0.8595 H   0  0  0  0  0  0  0  0  0  0  0  0
    2.3856    0.0418   -0.6957 H   0  0  0  0  0  0  0  0  0  0  0  0
  1 13  1  0  0  0  0
  2 14  1  0  0  0  0
  3 15  1  0  0  0  0
  4 16  1  0  0  0  0
  5 11  1  0  0  0  0
  5 17  1  0  0  0  0
  6 12  2  0  0  0  0
  7  9  1  0  0  0  0
  7 18  1  1  0  0  0
  7  8  1  0  0  0  0
  7  1  1  0  0  0  0
  8  2  1  0  0  0  0
  8 19  1  6  0  0  0
  9  3  1  0  0  0  0
  9 11  1  0  0  0  0
  9 20  1  1  0  0  0
 10 12  1  0  0  0  0
 10 21  1  6  0  0  0
 10  4  1  0  0  0  0
 10  8  1  0  0  0  0
 11 22  1  0  0  0  0
 11 23  1  0  0  0  0
 12 24  1  0  0  0  0
M  END
>  <Mol_ID>
5462

>  <Formula>
C6H12O6

>  <MolWeight>
180.15588

>  <Cat>
S3131

>  <Name>
L-(-)-Glucose

>  <Synonyms>
L-Glucose

>  <Target>
Others

>  <Form>
Free Base

>  <CAS>
921-60-8

>  <URL>
https://www.selleckchem.com/products/l-glucose.html

$$$$
