L-2-Hydroxyglutaric acid disodium
 OpenBabel08302521383D

 16 15  0  0  0  0  0  0  0  0999 V2000
    3.1340    1.1521    0.7542 O   0  0  0  0  0  0  0  0  0  0  0  0
    0.1461    0.0874   -0.8213 O   0  5  0  0  0  0  0  0  0  0  0  0
    0.6019    1.1079    1.1820 O   0  0  0  0  0  0  0  0  0  0  0  0
    2.3575   -4.8122   -0.3218 O   0  5  0  0  0  0  0  0  0  0  0  0
    3.8824   -3.8151    1.0409 O   0  0  0  0  0  0  0  0  0  0  0  0
    2.8837   -1.2341    0.5767 C   0  0  0  0  0  0  0  0  0  0  0  0
    2.4171    0.1115    0.0135 C   0  0  1  0  0  0  0  0  0  0  0  0
    2.2827   -2.4566   -0.1147 C   0  0  0  0  0  0  0  0  0  0  0  0
    0.8867    0.4209    0.1439 C   0  0  0  0  0  0  0  0  0  0  0  0
    2.9014   -3.8157    0.2447 C   0  0  0  0  0  0  0  0  0  0  0  0
    2.4120    1.4913    1.3381 H   0  0  0  0  0  0  0  0  0  0  0  0
    3.9792   -1.2702    0.5008 H   0  0  0  0  0  0  0  0  0  0  0  0
    2.6702   -1.2794    1.6523 H   0  0  0  0  0  0  0  0  0  0  0  0
    2.7185    0.2144   -1.0338 H   0  0  0  0  0  0  0  0  0  0  0  0
    1.2120   -2.5106    0.1176 H   0  0  0  0  0  0  0  0  0  0  0  0
    2.3740   -2.3400   -1.2015 H   0  0  0  0  0  0  0  0  0  0  0  0
  1 11  1  0  0  0  0
  2  9  1  0  0  0  0
  3  9  2  0  0  0  0
  4 10  1  0  0  0  0
  5 10  2  0  0  0  0
  6  7  1  0  0  0  0
  6  8  1  0  0  0  0
  6 12  1  0  0  0  0
  6 13  1  0  0  0  0
  7  1  1  0  0  0  0
  7  9  1  0  0  0  0
  7 14  1  6  0  0  0
  8 10  1  0  0  0  0
  8 15  1  0  0  0  0
  8 16  1  0  0  0  0
M  CHG  2   2  -1   4  -1
M  END
>  <Mol_ID>
7950

>  <Formula>
C5H6Na2O5

>  <MolWeight>
192.07768

>  <Cat>
S1325

>  <Name>
L-2-Hydroxyglutaric acid disodium

>  <Synonyms>
(S)-2-Hydroxyglutaric acid disodium, L-2-Hydroxyglutarate disodium, LGA, L-2HG

>  <Target>
Histone Demethylase

>  <Form>
Disodium

>  <CAS>
63512-50-5

>  <URL>
https://www.selleckchem.com/products/l-2-hydroxyglutaric-acid-disodium.html

$$$$
