L-732138
 OpenBabel08302521283D

 51 53  0  0  0  0  0  0  0  0999 V2000
    0.0117    4.7270   -2.6942 F   0  0  0  0  0  0  0  0  0  0  0  0
   -1.5478    3.3648   -2.0402 F   0  0  0  0  0  0  0  0  0  0  0  0
   -0.3330    2.8677   -3.7729 F   0  0  0  0  0  0  0  0  0  0  0  0
    1.8918   -1.2374    0.9697 F   0  0  0  0  0  0  0  0  0  0  0  0
   -0.2154   -0.8911    0.5652 F   0  0  0  0  0  0  0  0  0  0  0  0
    1.0912   -1.6135   -1.0163 F   0  0  0  0  0  0  0  0  0  0  0  0
    4.7166    3.8699   -0.7091 O   0  0  0  0  0  0  0  0  0  0  0  0
    4.6747    5.9800    0.1691 O   0  0  0  0  0  0  0  0  0  0  0  0
    4.1463    5.3384   -4.0329 O   0  0  0  0  0  0  0  0  0  0  0  0
    7.4124    8.6452   -5.0780 N   0  0  0  0  0  0  0  0  0  0  0  0
    6.0432    4.6184   -2.9547 N   0  0  0  0  0  0  0  0  0  0  0  0
    5.7923    7.0462   -2.1927 C   0  0  0  0  0  0  0  0  0  0  0  0
    6.0071    5.5663   -1.8332 C   0  0  1  0  0  0  0  0  0  0  0  0
    6.7166    7.6135   -3.2260 C   0  0  0  0  0  0  0  0  0  0  0  0
    8.1359    7.8087   -3.1387 C   0  0  0  0  0  0  0  0  0  0  0  0
    8.5360    8.4649   -4.3035 C   0  0  0  0  0  0  0  0  0  0  0  0
    6.3151    8.1380   -4.4388 C   0  0  0  0  0  0  0  0  0  0  0  0
    5.0268    5.1964   -0.7065 C   0  0  0  0  0  0  0  0  0  0  0  0
    9.1195    7.5163   -2.1709 C   0  0  0  0  0  0  0  0  0  0  0  0
    9.8602    8.8517   -4.5487 C   0  0  0  0  0  0  0  0  0  0  0  0
    3.8651    3.4385    0.3618 C   0  0  0  0  0  0  0  0  0  0  0  0
    2.6974    2.6848   -0.2247 C   0  0  0  0  0  0  0  0  0  0  0  0
   10.4515    7.8844   -2.4044 C   0  0  0  0  0  0  0  0  0  0  0  0
   10.8130    8.5457   -3.5746 C   0  0  0  0  0  0  0  0  0  0  0  0
    5.1171    4.5950   -3.9694 C   0  0  0  0  0  0  0  0  0  0  0  0
    2.4360    1.3589    0.1438 C   0  0  0  0  0  0  0  0  0  0  0  0
    1.8230    3.3373   -1.1070 C   0  0  0  0  0  0  0  0  0  0  0  0
    1.3238    0.6756   -0.3719 C   0  0  0  0  0  0  0  0  0  0  0  0
    0.6972    2.6828   -1.6237 C   0  0  0  0  0  0  0  0  0  0  0  0
    0.4674    1.3447   -1.2631 C   0  0  0  0  0  0  0  0  0  0  0  0
   -0.2750    3.4073   -2.5254 C   0  0  0  0  0  0  0  0  0  0  0  0
    1.0302   -0.7500    0.0337 C   0  0  0  0  0  0  0  0  0  0  0  0
    5.3947    3.5322   -5.0012 C   0  0  0  0  0  0  0  0  0  0  0  0
    7.3997    9.1105   -5.9747 H   0  0  0  0  0  0  0  0  0  0  0  0
    6.6451    3.8116   -2.8555 H   0  0  0  0  0  0  0  0  0  0  0  0
    4.7532    7.2079   -2.5058 H   0  0  0  0  0  0  0  0  0  0  0  0
    5.9096    7.6550   -1.2850 H   0  0  0  0  0  0  0  0  0  0  0  0
    6.9987    5.4588   -1.3759 H   0  0  0  0  0  0  0  0  0  0  0  0
    5.3326    8.2103   -4.8839 H   0  0  0  0  0  0  0  0  0  0  0  0
    8.8567    7.0179   -1.2434 H   0  0  0  0  0  0  0  0  0  0  0  0
   10.1390    9.3784   -5.4544 H   0  0  0  0  0  0  0  0  0  0  0  0
    3.4716    4.2533    0.9813 H   0  0  0  0  0  0  0  0  0  0  0  0
    4.4594    2.7903    1.0153 H   0  0  0  0  0  0  0  0  0  0  0  0
   11.2107    7.6578   -1.6595 H   0  0  0  0  0  0  0  0  0  0  0  0
   11.8498    8.8348   -3.7325 H   0  0  0  0  0  0  0  0  0  0  0  0
    3.0974    0.8539    0.8476 H   0  0  0  0  0  0  0  0  0  0  0  0
    2.0161    4.3757   -1.3834 H   0  0  0  0  0  0  0  0  0  0  0  0
   -0.4027    0.8235   -1.6661 H   0  0  0  0  0  0  0  0  0  0  0  0
    6.4504    3.5476   -5.2900 H   0  0  0  0  0  0  0  0  0  0  0  0
    5.1393    2.5504   -4.5940 H   0  0  0  0  0  0  0  0  0  0  0  0
    4.7932    3.7186   -5.8960 H   0  0  0  0  0  0  0  0  0  0  0  0
  1 31  1  0  0  0  0
  2 31  1  0  0  0  0
  3 31  1  0  0  0  0
  4 32  1  0  0  0  0
  5 32  1  0  0  0  0
  6 32  1  0  0  0  0
  7 18  1  0  0  0  0
  7 21  1  0  0  0  0
  8 18  2  0  0  0  0
  9 25  2  0  0  0  0
 10 16  1  0  0  0  0
 10 17  1  0  0  0  0
 10 34  1  0  0  0  0
 11 25  1  0  0  0  0
 11 35  1  0  0  0  0
 12 14  1  0  0  0  0
 12 36  1  0  0  0  0
 12 37  1  0  0  0  0
 13 11  1  0  0  0  0
 13 12  1  0  0  0  0
 13 18  1  0  0  0  0
 13 38  1  1  0  0  0
 14 15  1  0  0  0  0
 14 17  2  0  0  0  0
 15 16  2  0  0  0  0
 15 19  1  0  0  0  0
 16 20  1  0  0  0  0
 17 39  1  0  0  0  0
 19 23  2  0  0  0  0
 19 40  1  0  0  0  0
 20 24  2  0  0  0  0
 20 41  1  0  0  0  0
 21 22  1  0  0  0  0
 21 42  1  0  0  0  0
 21 43  1  0  0  0  0
 22 26  2  0  0  0  0
 22 27  1  0  0  0  0
 23 24  1  0  0  0  0
 23 44  1  0  0  0  0
 24 45  1  0  0  0  0
 25 33  1  0  0  0  0
 26 28  1  0  0  0  0
 26 46  1  0  0  0  0
 27 29  2  0  0  0  0
 27 47  1  0  0  0  0
 28 30  2  0  0  0  0
 28 32  1  0  0  0  0
 29 30  1  0  0  0  0
 29 31  1  0  0  0  0
 30 48  1  0  0  0  0
 33 49  1  0  0  0  0
 33 50  1  0  0  0  0
 33 51  1  0  0  0  0
M  END
>  <Mol_ID>
5391

>  <Formula>
C22H18F6N2O3

>  <MolWeight>
472.3803392

>  <Cat>
S0772

>  <Name>
L-732138

>  <Synonyms>
L-732,138

>  <Target>
Neurokinin Receptor

>  <Form>
Free Base

>  <CAS>
148451-96-1

>  <URL>
https://www.selleckchem.com/products/l-732138.html

$$$$
