L-allo-Isoleucine
 OpenBabel08302521453D

 22 21  0  0  1  0  0  0  0  0999 V2000
    0.9934    0.0335   -0.1736 C   0  0  1  0  0  0  0  0  0  0  0  0
    0.6298    0.2857    1.3115 C   0  0  1  0  0  0  0  0  0  0  0  0
    0.0247    0.7760   -1.1120 C   0  0  0  0  0  0  0  0  0  0  0  0
    2.3827    0.4263   -0.4954 N   0  0  0  0  0  0  0  0  0  0  0  0
    1.5811   -0.4296    2.2996 C   0  0  0  0  0  0  0  0  0  0  0  0
    0.5663    1.7839    1.6659 C   0  0  0  0  0  0  0  0  0  0  0  0
   -1.1177    0.1081   -1.3713 O   0  0  0  0  0  0  0  0  0  0  0  0
    0.2582    1.8808   -1.5936 O   0  0  0  0  0  0  0  0  0  0  0  0
    1.7194   -1.9296    2.0705 C   0  0  0  0  0  0  0  0  0  0  0  0
    0.9100   -1.0347   -0.4064 H   0  0  0  0  0  0  0  0  0  0  0  0
   -0.3801   -0.1144    1.4797 H   0  0  0  0  0  0  0  0  0  0  0  0
    2.5496    0.2459   -1.4884 H   0  0  0  0  0  0  0  0  0  0  0  0
    2.4371    1.4480   -0.4316 H   0  0  0  0  0  0  0  0  0  0  0  0
    2.5775    0.0263    2.2568 H   0  0  0  0  0  0  0  0  0  0  0  0
    1.2158   -0.2735    3.3228 H   0  0  0  0  0  0  0  0  0  0  0  0
   -0.2244    2.2896    1.1017 H   0  0  0  0  0  0  0  0  0  0  0  0
    0.3363    1.9252    2.7272 H   0  0  0  0  0  0  0  0  0  0  0  0
    1.5109    2.2974    1.4592 H   0  0  0  0  0  0  0  0  0  0  0  0
   -1.1716   -0.7733   -0.9563 H   0  0  0  0  0  0  0  0  0  0  0  0
    2.1282   -2.1555    1.0816 H   0  0  0  0  0  0  0  0  0  0  0  0
    2.4084   -2.3573    2.8063 H   0  0  0  0  0  0  0  0  0  0  0  0
    0.7558   -2.4385    2.1725 H   0  0  0  0  0  0  0  0  0  0  0  0
  1  4  1  0  0  0  0
  1 10  1  6  0  0  0
  1  3  1  0  0  0  0
  1  2  1  0  0  0  0
  2  5  1  0  0  0  0
  2  6  1  0  0  0  0
  2 11  1  1  0  0  0
  3  7  1  0  0  0  0
  3  8  2  0  0  0  0
  4 12  1  0  0  0  0
  4 13  1  0  0  0  0
  5  9  1  0  0  0  0
  5 14  1  0  0  0  0
  5 15  1  0  0  0  0
  6 16  1  0  0  0  0
  6 17  1  0  0  0  0
  6 18  1  0  0  0  0
  7 19  1  0  0  0  0
  9 20  1  0  0  0  0
  9 21  1  0  0  0  0
  9 22  1  0  0  0  0
M  END
>  <Mol_ID>
9530

>  <Formula>
C6H13NO2

>  <MolWeight>
131.17292

>  <Cat>
E4487

>  <Name>
L-allo-Isoleucine

>  <Synonyms>
L-allo-Isoleucine

>  <Target>
Others

>  <Form>
free base

>  <CAS>
1509-34-8

>  <URL>
https://www.selleckchem.com/products/l-allo-isoleucine.html

$$$$
