L-Allothreonine
 OpenBabel08302521453D

 17 16  0  0  1  0  0  0  0  0999 V2000
    0.9528   -0.0477    0.0679 C   0  0  1  0  0  0  0  0  0  0  0  0
    0.3883    1.0088   -0.8994 C   0  0  2  0  0  0  0  0  0  0  0  0
    0.6544    0.3490    1.5204 C   0  0  0  0  0  0  0  0  0  0  0  0
    0.3780   -1.3819   -0.2515 N   0  0  0  0  0  0  0  0  0  0  0  0
    1.0023    2.3956   -0.7200 C   0  0  0  0  0  0  0  0  0  0  0  0
   -1.0414    1.0532   -0.7532 O   0  0  0  0  0  0  0  0  0  0  0  0
   -0.5347   -0.1182    1.9846 O   0  0  0  0  0  0  0  0  0  0  0  0
    1.3864    1.0531    2.2003 O   0  0  0  0  0  0  0  0  0  0  0  0
    2.0397   -0.1294   -0.0349 H   0  0  0  0  0  0  0  0  0  0  0  0
    0.5880    0.6865   -1.9292 H   0  0  0  0  0  0  0  0  0  0  0  0
    0.4752   -2.0255    0.5314 H   0  0  0  0  0  0  0  0  0  0  0  0
   -0.5940   -1.2990   -0.5485 H   0  0  0  0  0  0  0  0  0  0  0  0
    2.0943    2.3460   -0.6822 H   0  0  0  0  0  0  0  0  0  0  0  0
    0.7212    3.0377   -1.5627 H   0  0  0  0  0  0  0  0  0  0  0  0
    0.6312    2.8898    0.1828 H   0  0  0  0  0  0  0  0  0  0  0  0
   -1.3137    1.9874   -0.6897 H   0  0  0  0  0  0  0  0  0  0  0  0
   -1.0236   -0.5440    1.2535 H   0  0  0  0  0  0  0  0  0  0  0  0
  1  4  1  0  0  0  0
  1  9  1  6  0  0  0
  1  3  1  0  0  0  0
  1  2  1  0  0  0  0
  2 10  1  6  0  0  0
  2  6  1  0  0  0  0
  2  5  1  0  0  0  0
  3  7  1  0  0  0  0
  3  8  2  0  0  0  0
  4 11  1  0  0  0  0
  4 12  1  0  0  0  0
  5 13  1  0  0  0  0
  5 14  1  0  0  0  0
  5 15  1  0  0  0  0
  6 16  1  0  0  0  0
  7 17  1  0  0  0  0
M  END
>  <Mol_ID>
9497

>  <Formula>
C4H9NO3

>  <MolWeight>
119.11916

>  <Cat>
E4156

>  <Name>
L-Allothreonine

>  <Synonyms>
L-allo-Threonine

>  <Target>
Others

>  <Form>
free base

>  <CAS>
28954-12-3

>  <URL>
https://www.selleckchem.com/products/l-allothreonine.html

$$$$
