L-ALANYL-L-TYROSINE
 OpenBabel08302521453D

 34 34  0  0  1  0  0  0  0  0999 V2000
    0.9170   -0.1540   -0.2911 C   0  0  0  0  0  0  0  0  0  0  0  0
   -0.8506    0.4259   -1.8513 N   0  0  0  0  0  0  0  0  0  0  0  0
    0.1268    0.9982   -0.9288 C   0  0  1  0  0  0  0  0  0  0  0  0
   -0.4742    1.9376    0.1314 C   0  0  0  0  0  0  0  0  0  0  0  0
   -1.5205    1.3035    1.0270 C   0  0  0  0  0  0  0  0  0  0  0  0
   -1.1672    0.7723    2.2777 C   0  0  0  0  0  0  0  0  0  0  0  0
   -2.1172    0.1253    3.0656 C   0  0  0  0  0  0  0  0  0  0  0  0
   -3.4329    0.0041    2.6147 C   0  0  0  0  0  0  0  0  0  0  0  0
   -4.3814   -0.6253    3.3448 O   0  0  0  0  0  0  0  0  0  0  0  0
   -3.7970    0.5290    1.3826 C   0  0  0  0  0  0  0  0  0  0  0  0
   -2.8556    1.1837    0.5917 C   0  0  0  0  0  0  0  0  0  0  0  0
    2.1382   -0.2254   -0.2798 O   0  0  0  0  0  0  0  0  0  0  0  0
    0.1417   -1.1064    0.2779 O   0  0  0  0  0  0  0  0  0  0  0  0
   -1.6010    1.1665   -2.7390 C   0  0  0  0  0  0  0  0  0  0  0  0
   -2.1359   -1.1362   -3.5151 N   0  0  0  0  0  0  0  0  0  0  0  0
   -2.4684    0.3021   -3.6797 C   0  0  1  0  0  0  0  0  0  0  0  0
   -3.9409    0.5451   -3.3790 C   0  0  0  0  0  0  0  0  0  0  0  0
   -1.6136    2.3896   -2.7549 O   0  0  0  0  0  0  0  0  0  0  0  0
   -0.9972   -0.5814   -1.9021 H   0  0  0  0  0  0  0  0  0  0  0  0
    0.8418    1.5775   -1.5390 H   0  0  0  0  0  0  0  0  0  0  0  0
    0.3318    2.3386    0.7599 H   0  0  0  0  0  0  0  0  0  0  0  0
   -0.9289    2.8091   -0.3527 H   0  0  0  0  0  0  0  0  0  0  0  0
   -0.1371    0.8234    2.6291 H   0  0  0  0  0  0  0  0  0  0  0  0
   -1.8159   -0.2890    4.0263 H   0  0  0  0  0  0  0  0  0  0  0  0
   -3.9902   -0.9193    4.1921 H   0  0  0  0  0  0  0  0  0  0  0  0
   -4.8222    0.4297    1.0337 H   0  0  0  0  0  0  0  0  0  0  0  0
   -3.1534    1.5876   -0.3669 H   0  0  0  0  0  0  0  0  0  0  0  0
   -0.8112   -0.8740    0.2963 H   0  0  0  0  0  0  0  0  0  0  0  0
   -2.6903   -1.6711   -4.1870 H   0  0  0  0  0  0  0  0  0  0  0  0
   -1.1671   -1.2748   -3.8127 H   0  0  0  0  0  0  0  0  0  0  0  0
   -2.2394    0.5959   -4.7135 H   0  0  0  0  0  0  0  0  0  0  0  0
   -4.1980    1.5990   -3.5322 H   0  0  0  0  0  0  0  0  0  0  0  0
   -4.5898   -0.0537   -4.0268 H   0  0  0  0  0  0  0  0  0  0  0  0
   -4.1776    0.3022   -2.3370 H   0  0  0  0  0  0  0  0  0  0  0  0
  1  3  1  0  0  0  0
  1 12  2  0  0  0  0
  1 13  1  0  0  0  0
  2  3  1  0  0  0  0
  2 14  1  0  0  0  0
  2 19  1  0  0  0  0
  3  4  1  0  0  0  0
  3 20  1  6  0  0  0
  4  5  1  0  0  0  0
  4 21  1  0  0  0  0
  4 22  1  0  0  0  0
  5  6  2  0  0  0  0
  5 11  1  0  0  0  0
  6  7  1  0  0  0  0
  6 23  1  0  0  0  0
  7  8  2  0  0  0  0
  7 24  1  0  0  0  0
  8  9  1  0  0  0  0
  8 10  1  0  0  0  0
  9 25  1  0  0  0  0
 10 11  2  0  0  0  0
 10 26  1  0  0  0  0
 11 27  1  0  0  0  0
 13 28  1  0  0  0  0
 14 16  1  0  0  0  0
 14 18  2  0  0  0  0
 15 29  1  0  0  0  0
 15 30  1  0  0  0  0
 16 15  1  0  0  0  0
 16 17  1  0  0  0  0
 16 31  1  6  0  0  0
 17 32  1  0  0  0  0
 17 33  1  0  0  0  0
 17 34  1  0  0  0  0
M  END
>  <Mol_ID>
9546

>  <Formula>
C12H16N2O4

>  <MolWeight>
252.26644

>  <Cat>
E2892

>  <Name>
L-ALANYL-L-TYROSINE

>  <Synonyms>
H-Ala-Tyr-OH

>  <Target>
Others

>  <Form>
free base

>  <CAS>
3061-88-9

>  <URL>
https://www.selleckchem.com/products/l-alanyl-l-tyrosine.html

$$$$
