L-Albizziin
 OpenBabel08302521453D

 19 18  0  0  0  0  0  0  0  0999 V2000
   -3.2474   -1.4217    2.0464 O   0  0  0  0  0  0  0  0  0  0  0  0
   -1.3444   -2.1435    2.9481 O   0  0  0  0  0  0  0  0  0  0  0  0
   -3.1244   -3.0835   -2.1343 O   0  0  0  0  0  0  0  0  0  0  0  0
   -1.3953   -2.6156   -0.6972 N   0  0  0  0  0  0  0  0  0  0  0  0
    0.2450   -0.9018    0.9689 N   0  0  0  0  0  0  0  0  0  0  0  0
   -1.5511   -4.6347   -1.6811 N   0  0  0  0  0  0  0  0  0  0  0  0
   -1.2354   -0.7464    0.9141 C   0  0  1  0  0  0  0  0  0  0  0  0
   -1.7702   -1.2333   -0.4391 C   0  0  0  0  0  0  0  0  0  0  0  0
   -1.9015   -1.5275    2.0519 C   0  0  0  0  0  0  0  0  0  0  0  0
   -2.0971   -3.4012   -1.5514 C   0  0  0  0  0  0  0  0  0  0  0  0
   -3.5331   -1.9940    2.7890 H   0  0  0  0  0  0  0  0  0  0  0  0
   -0.4222   -2.8447   -0.5415 H   0  0  0  0  0  0  0  0  0  0  0  0
    0.6761   -0.2086    0.3591 H   0  0  0  0  0  0  0  0  0  0  0  0
    0.5527   -0.6868    1.9207 H   0  0  0  0  0  0  0  0  0  0  0  0
   -1.0834   -5.0125   -0.8720 H   0  0  0  0  0  0  0  0  0  0  0  0
   -2.1405   -5.2851   -2.1843 H   0  0  0  0  0  0  0  0  0  0  0  0
   -1.4738    0.3130    1.0622 H   0  0  0  0  0  0  0  0  0  0  0  0
   -2.8608   -1.1347   -0.4992 H   0  0  0  0  0  0  0  0  0  0  0  0
   -1.3447   -0.6325   -1.2525 H   0  0  0  0  0  0  0  0  0  0  0  0
  1  9  1  0  0  0  0
  1 11  1  0  0  0  0
  2  9  2  0  0  0  0
  3 10  2  0  0  0  0
  4  8  1  0  0  0  0
  4 10  1  0  0  0  0
  4 12  1  0  0  0  0
  5 13  1  0  0  0  0
  5 14  1  0  0  0  0
  6 10  1  0  0  0  0
  6 15  1  0  0  0  0
  6 16  1  0  0  0  0
  7  5  1  0  0  0  0
  7  8  1  0  0  0  0
  7  9  1  0  0  0  0
  7 17  1  1  0  0  0
  8 18  1  0  0  0  0
  8 19  1  0  0  0  0
M  END
>  <Mol_ID>
9409

>  <Formula>
C4H9N3O3

>  <MolWeight>
147.13256

>  <Cat>
E0134

>  <Name>
L-Albizziin

>  <Synonyms>
L-alpha-amino-beta-ureidopropionic acid

>  <Target>
Glutaminase

>  <Form>
Free Base

>  <CAS>
1483-07-4

>  <URL>
http://www.selleckchem.com/products/l-albizziin.html

$$$$
