L-Anserine nitrate salt
 OpenBabel08302521383D

 38 37  0  0  0  0  0  0  0  0999 V2000
    0.3968    0.6894    2.1461 O   0  0  0  0  0  0  0  0  0  0  0  0
    0.6260    1.8633    0.3066 O   0  0  0  0  0  0  0  0  0  0  0  0
   -3.1388    1.6920   -2.2517 O   0  0  0  0  0  0  0  0  0  0  0  0
    2.2315   -0.7511    0.0903 O   0  0  0  0  0  0  0  0  0  0  0  0
    1.6055   -2.7862   -0.3055 O   0  5  0  0  0  0  0  0  0  0  0  0
    1.1585   -1.1645   -1.7886 O   0  0  0  0  0  0  0  0  0  0  0  0
   -2.1817    1.0800   -0.3605 N   0  0  0  0  0  0  0  0  0  0  0  0
   -4.7943   -0.2581    1.7108 N   0  0  0  0  0  0  0  0  0  0  0  0
   -5.6829    1.1321    3.1952 N   0  0  0  0  0  0  0  0  0  0  0  0
   -0.5931    4.9401   -3.0489 N   0  0  0  0  0  0  0  0  0  0  0  0
    1.6117   -1.6475   -0.7599 N   0  3  0  0  0  0  0  0  0  0  0  0
   -1.6811    1.3065    1.0083 C   0  0  1  0  0  0  0  0  0  0  0  0
   -2.2734    0.2316    1.9622 C   0  0  0  0  0  0  0  0  0  0  0  0
   -3.7338    0.4264    2.2619 C   0  0  0  0  0  0  0  0  0  0  0  0
   -0.1410    1.3080    1.0758 C   0  0  0  0  0  0  0  0  0  0  0  0
   -4.3227    1.2576    3.1987 C   0  0  0  0  0  0  0  0  0  0  0  0
   -2.2520    1.9240   -1.4266 C   0  0  0  0  0  0  0  0  0  0  0  0
   -1.2596    3.0500   -1.5911 C   0  0  0  0  0  0  0  0  0  0  0  0
   -5.9404    0.2197    2.2895 C   0  0  0  0  0  0  0  0  0  0  0  0
   -4.7890   -1.3307    0.7466 C   0  0  0  0  0  0  0  0  0  0  0  0
   -1.5646    3.8621   -2.8534 C   0  0  0  0  0  0  0  0  0  0  0  0
    1.3527    0.8976    2.0476 H   0  0  0  0  0  0  0  0  0  0  0  0
    2.4409   -1.4301    0.7490 H   0  0  0  0  0  0  0  0  0  0  0  0
   -2.9665    0.4500   -0.4319 H   0  0  0  0  0  0  0  0  0  0  0  0
   -0.8287    5.4479   -3.9013 H   0  0  0  0  0  0  0  0  0  0  0  0
   -0.6650    5.6128   -2.2883 H   0  0  0  0  0  0  0  0  0  0  0  0
   -2.0039    2.3055    1.3205 H   0  0  0  0  0  0  0  0  0  0  0  0
   -2.0932   -0.7752    1.5666 H   0  0  0  0  0  0  0  0  0  0  0  0
   -1.7645    0.2645    2.9349 H   0  0  0  0  0  0  0  0  0  0  0  0
   -3.8314    1.9341    3.8869 H   0  0  0  0  0  0  0  0  0  0  0  0
   -1.2821    3.6914   -0.7054 H   0  0  0  0  0  0  0  0  0  0  0  0
   -0.2656    2.6117   -1.7079 H   0  0  0  0  0  0  0  0  0  0  0  0
   -6.9267   -0.1405    2.0245 H   0  0  0  0  0  0  0  0  0  0  0  0
   -3.8945   -1.2835    0.1273 H   0  0  0  0  0  0  0  0  0  0  0  0
   -4.8180   -2.2776    1.2910 H   0  0  0  0  0  0  0  0  0  0  0  0
   -5.6735   -1.2362    0.1094 H   0  0  0  0  0  0  0  0  0  0  0  0
   -1.5362    3.2078   -3.7333 H   0  0  0  0  0  0  0  0  0  0  0  0
   -2.5721    4.2898   -2.8010 H   0  0  0  0  0  0  0  0  0  0  0  0
  1 15  1  0  0  0  0
  1 22  1  0  0  0  0
  2 15  2  0  0  0  0
  3 17  2  0  0  0  0
  4 11  1  0  0  0  0
  4 23  1  0  0  0  0
  5 11  1  0  0  0  0
  6 11  2  0  0  0  0
  7 17  1  0  0  0  0
  7 24  1  0  0  0  0
  8 14  1  0  0  0  0
  8 19  1  0  0  0  0
  8 20  1  0  0  0  0
  9 16  1  0  0  0  0
  9 19  2  0  0  0  0
 10 21  1  0  0  0  0
 10 25  1  0  0  0  0
 10 26  1  0  0  0  0
 12  7  1  0  0  0  0
 12 13  1  0  0  0  0
 12 15  1  0  0  0  0
 12 27  1  1  0  0  0
 13 14  1  0  0  0  0
 13 28  1  0  0  0  0
 13 29  1  0  0  0  0
 14 16  2  0  0  0  0
 16 30  1  0  0  0  0
 17 18  1  0  0  0  0
 18 21  1  0  0  0  0
 18 31  1  0  0  0  0
 18 32  1  0  0  0  0
 19 33  1  0  0  0  0
 20 34  1  0  0  0  0
 20 35  1  0  0  0  0
 20 36  1  0  0  0  0
 21 37  1  0  0  0  0
 21 38  1  0  0  0  0
M  CHG  2   5  -1  11   1
M  END
>  <Mol_ID>
7965

>  <Formula>
C10H17N5O6

>  <MolWeight>
303.27188

>  <Cat>
S3266

>  <Name>
L-Anserine nitrate salt

>  <Synonyms>
N/A

>  <Target>
Others

>  <Form>
Nitrate salt

>  <CAS>
10030-52-1

>  <URL>
https://www.selleckchem.com/products/l-anserine-nitrate-salt.html

$$$$
