L-Arabinitol
 OpenBabel08302520383D

 22 21  0  0  0  0  0  0  0  0999 V2000
   -0.5571    1.2314    0.3436 O   0  0  0  0  0  0  0  0  0  0  0  0
    0.8543    1.1699    0.5680 C   0  0  0  0  0  0  0  0  0  0  0  0
    1.1692    1.2170    2.0698 C   0  0  2  0  0  0  0  0  0  0  0  0
    0.5584    0.0717    2.6880 O   0  0  0  0  0  0  0  0  0  0  0  0
    0.6253    2.4987    2.7419 C   0  0  3  0  0  0  0  0  0  0  0  0
   -0.8120    2.4524    2.7067 O   0  0  0  0  0  0  0  0  0  0  0  0
    1.0775    2.6231    4.2125 C   0  0  1  0  0  0  0  0  0  0  0  0
    2.5104    2.6006    4.3069 O   0  0  0  0  0  0  0  0  0  0  0  0
    0.5999    3.9380    4.8476 C   0  0  0  0  0  0  0  0  0  0  0  0
    1.2229    5.0538    4.2093 O   0  0  0  0  0  0  0  0  0  0  0  0
   -0.8873    0.3212    0.4688 H   0  0  0  0  0  0  0  0  0  0  0  0
    1.2225    0.2400    0.1216 H   0  0  0  0  0  0  0  0  0  0  0  0
    1.3175    2.0138    0.0485 H   0  0  0  0  0  0  0  0  0  0  0  0
    2.2526    1.1321    2.1994 H   0  0  0  0  0  0  0  0  0  0  0  0
   -0.3725    0.3326    2.8482 H   0  0  0  0  0  0  0  0  0  0  0  0
    0.9657    3.3724    2.1733 H   0  0  0  0  0  0  0  0  0  0  0  0
   -1.0568    2.4142    1.7554 H   0  0  0  0  0  0  0  0  0  0  0  0
    0.6716    1.7975    4.8091 H   0  0  0  0  0  0  0  0  0  0  0  0
    2.7651    1.6685    4.4414 H   0  0  0  0  0  0  0  0  0  0  0  0
   -0.4852    4.0548    4.7869 H   0  0  0  0  0  0  0  0  0  0  0  0
    0.8933    3.9732    5.9024 H   0  0  0  0  0  0  0  0  0  0  0  0
    2.1725    4.8314    4.1832 H   0  0  0  0  0  0  0  0  0  0  0  0
  1  2  1  0  0  0  0
  1 11  1  0  0  0  0
  2 12  1  0  0  0  0
  2 13  1  0  0  0  0
  3  5  1  0  0  0  0
  3 14  1  1  0  0  0
  3  4  1  0  0  0  0
  3  2  1  0  0  0  0
  4 15  1  0  0  0  0
  5  6  1  0  0  0  0
  5  7  1  0  0  0  0
  5 16  1  0  0  0  0
  6 17  1  0  0  0  0
  7  8  1  0  0  0  0
  7  9  1  0  0  0  0
  7 18  1  1  0  0  0
  8 19  1  0  0  0  0
  9 10  1  0  0  0  0
  9 20  1  0  0  0  0
  9 21  1  0  0  0  0
 10 22  1  0  0  0  0
M  END
>  <Mol_ID>
3528

>  <Formula>
C5H12O5

>  <MolWeight>
152.14578

>  <Cat>
S6045

>  <Name>
L-Arabinitol

>  <Synonyms>
L-lyxitol

>  <Target>
Others

>  <Form>
free base

>  <CAS>
7643-75-6

>  <URL>
http://www.selleck.cn/products/l-arabinitol.html

$$$$
