L-Arginine hydrochloride.cdx
 OpenBabel08302521383D

 26 25  0  0  0  0  0  0  0  0999 V2000
    1.2013    2.4094    0.7160 C   0  0  0  0  0  0  0  0  0  0  0  0
    1.0857    0.1388   -0.2419 N   0  0  0  0  0  0  0  0  0  0  0  0
    0.2810    1.2176    0.4016 C   0  0  1  0  0  0  0  0  0  0  0  0
   -0.4834    0.7221    1.6412 C   0  0  0  0  0  0  0  0  0  0  0  0
    0.3259    0.0352    2.7564 C   0  0  0  0  0  0  0  0  0  0  0  0
    1.3117    0.9530    3.4750 C   0  0  0  0  0  0  0  0  0  0  0  0
    2.0062    0.2534    4.5332 N   0  0  0  0  0  0  0  0  0  0  0  0
    1.6462    0.1203    5.8219 C   0  0  0  0  0  0  0  0  0  0  0  0
    2.3104   -0.5781    6.6706 N   0  0  0  0  0  0  0  0  0  0  0  0
    0.5418    0.7689    6.2339 N   0  0  0  0  0  0  0  0  0  0  0  0
    0.8348    3.4767    1.1756 O   0  0  0  0  0  0  0  0  0  0  0  0
    2.5035    2.1028    0.4762 O   0  0  0  0  0  0  0  0  0  0  0  0
    0.4879   -0.6914   -0.3181 H   0  0  0  0  0  0  0  0  0  0  0  0
    1.2413    0.4083   -1.2217 H   0  0  0  0  0  0  0  0  0  0  0  0
   -0.4393    1.5734   -0.3420 H   0  0  0  0  0  0  0  0  0  0  0  0
   -1.0394    1.5614    2.0784 H   0  0  0  0  0  0  0  0  0  0  0  0
   -1.2426    0.0045    1.3007 H   0  0  0  0  0  0  0  0  0  0  0  0
   -0.3921   -0.3550    3.4926 H   0  0  0  0  0  0  0  0  0  0  0  0
    0.8472   -0.8425    2.3571 H   0  0  0  0  0  0  0  0  0  0  0  0
    2.0856    1.2849    2.7839 H   0  0  0  0  0  0  0  0  0  0  0  0
    0.8097    1.8540    3.8416 H   0  0  0  0  0  0  0  0  0  0  0  0
    2.7810   -0.3169    4.2187 H   0  0  0  0  0  0  0  0  0  0  0  0
    3.1247   -0.9795    6.2035 H   0  0  0  0  0  0  0  0  0  0  0  0
    0.5176    1.7400    5.9512 H   0  0  0  0  0  0  0  0  0  0  0  0
    0.4795    0.6989    7.2453 H   0  0  0  0  0  0  0  0  0  0  0  0
    2.5190    1.1509    0.2061 H   0  0  0  0  0  0  0  0  0  0  0  0
  1  3  1  0  0  0  0
  1 11  2  0  0  0  0
  1 12  1  0  0  0  0
  2 13  1  0  0  0  0
  2 14  1  0  0  0  0
  3  2  1  0  0  0  0
  3  4  1  0  0  0  0
  3 15  1  6  0  0  0
  4  5  1  0  0  0  0
  4 16  1  0  0  0  0
  4 17  1  0  0  0  0
  5  6  1  0  0  0  0
  5 18  1  0  0  0  0
  5 19  1  0  0  0  0
  6  7  1  0  0  0  0
  6 20  1  0  0  0  0
  6 21  1  0  0  0  0
  7  8  1  0  0  0  0
  7 22  1  0  0  0  0
  8  9  2  0  0  0  0
  8 10  1  0  0  0  0
  9 23  1  0  0  0  0
 10 24  1  0  0  0  0
 10 25  1  0  0  0  0
 12 26  1  0  0  0  0
M  END
>  <Mol_ID>
7717

>  <Formula>
C6H15ClN4O2

>  <MolWeight>
210.6619

>  <Cat>
S3174

>  <Name>
L-Arginine HCl (L-Arg)

>  <Synonyms>
(S)-(+)-Arginine hydrochloride

>  <Target>
NOS

>  <Form>
HCl

>  <CAS>
1119-34-2

>  <URL>
http://selleckchem.com/products/l-Arginine-hydrochloride.html

$$$$
