L-Aspartic Acid 4-Benzyl Ester
 OpenBabel08302521453D

 29 29  0  0  1  0  0  0  0  0999 V2000
    1.0981   -0.1385   -0.0421 C   0  0  0  0  0  0  0  0  0  0  0  0
    0.7647   -0.9083    1.1488 O   0  0  0  0  0  0  0  0  0  0  0  0
    0.7725   -2.2757    1.0204 C   0  0  0  0  0  0  0  0  0  0  0  0
    0.4152   -3.0324    2.2914 C   0  0  0  0  0  0  0  0  0  0  0  0
    1.0622   -2.8689   -0.0013 O   0  0  0  0  0  0  0  0  0  0  0  0
   -0.9888   -2.7413    2.8156 C   0  0  1  0  0  0  0  0  0  0  0  0
   -2.1031   -3.0747    1.8029 C   0  0  0  0  0  0  0  0  0  0  0  0
   -1.1786   -3.4800    4.0913 N   0  0  0  0  0  0  0  0  0  0  0  0
   -2.9980   -3.9853    2.2413 O   0  0  0  0  0  0  0  0  0  0  0  0
   -2.2250   -2.5327    0.7113 O   0  0  0  0  0  0  0  0  0  0  0  0
    2.5965   -0.0461   -0.2262 C   0  0  0  0  0  0  0  0  0  0  0  0
    3.2068   -0.4879   -1.4090 C   0  0  0  0  0  0  0  0  0  0  0  0
    3.4004    0.4703    0.7982 C   0  0  0  0  0  0  0  0  0  0  0  0
    4.5906   -0.3951   -1.5700 C   0  0  0  0  0  0  0  0  0  0  0  0
    4.7834    0.5625    0.6341 C   0  0  0  0  0  0  0  0  0  0  0  0
    5.3775    0.1404   -0.5531 C   0  0  0  0  0  0  0  0  0  0  0  0
    0.6943    0.8811    0.0772 H   0  0  0  0  0  0  0  0  0  0  0  0
    0.6265   -0.5823   -0.9338 H   0  0  0  0  0  0  0  0  0  0  0  0
    0.5192   -4.1024    2.0530 H   0  0  0  0  0  0  0  0  0  0  0  0
    1.1605   -2.8434    3.0769 H   0  0  0  0  0  0  0  0  0  0  0  0
   -1.0916   -1.6766    3.0443 H   0  0  0  0  0  0  0  0  0  0  0  0
   -2.0815   -3.2997    4.5234 H   0  0  0  0  0  0  0  0  0  0  0  0
   -0.9494   -4.4699    4.0280 H   0  0  0  0  0  0  0  0  0  0  0  0
   -2.8011   -4.2821    3.1471 H   0  0  0  0  0  0  0  0  0  0  0  0
    2.6109   -0.9152   -2.2143 H   0  0  0  0  0  0  0  0  0  0  0  0
    2.9539    0.7987    1.7334 H   0  0  0  0  0  0  0  0  0  0  0  0
    5.0535   -0.7332   -2.4936 H   0  0  0  0  0  0  0  0  0  0  0  0
    5.3973    0.9714    1.4316 H   0  0  0  0  0  0  0  0  0  0  0  0
    6.4525    0.2302   -0.6863 H   0  0  0  0  0  0  0  0  0  0  0  0
  1  2  1  0  0  0  0
  1 11  1  0  0  0  0
  1 17  1  0  0  0  0
  1 18  1  0  0  0  0
  2  3  1  0  0  0  0
  3  4  1  0  0  0  0
  3  5  2  0  0  0  0
  4  6  1  0  0  0  0
  4 19  1  0  0  0  0
  4 20  1  0  0  0  0
  6  7  1  0  0  0  0
  6  8  1  0  0  0  0
  6 21  1  1  0  0  0
  7  9  1  0  0  0  0
  7 10  2  0  0  0  0
  8 22  1  0  0  0  0
  8 23  1  0  0  0  0
  9 24  1  0  0  0  0
 11 12  2  0  0  0  0
 11 13  1  0  0  0  0
 12 14  1  0  0  0  0
 12 25  1  0  0  0  0
 13 15  2  0  0  0  0
 13 26  1  0  0  0  0
 14 16  2  0  0  0  0
 14 27  1  0  0  0  0
 15 16  1  0  0  0  0
 15 28  1  0  0  0  0
 16 29  1  0  0  0  0
M  END
>  <Mol_ID>
9525

>  <Formula>
C11H13NO4

>  <MolWeight>
223.22522

>  <Cat>
E4406

>  <Name>
L-Aspartic Acid 4-Benzyl Ester

>  <Synonyms>
L-Aspartic Acid 4-Benzyl Ester

>  <Target>
Others

>  <Form>
Free Base

>  <CAS>
2177-63-1

>  <URL>
https://www.selleckchem.com/products/l-aspartic-acid-4-benzyl-ester.html

$$$$
