L-Ascorbyl 6-palmitate.cdx
 OpenBabel08302521393D

 67 67  0  0  0  0  0  0  0  0999 V2000
    5.5302    1.5371   -2.2579 O   0  0  0  0  0  0  0  0  0  0  0  0
    4.9324    1.6993   -0.9621 C   0  0  1  0  0  0  0  0  0  0  0  0
    6.0750    2.0435   -0.0811 C   0  0  0  0  0  0  0  0  0  0  0  0
    7.2003    2.1731   -0.7866 C   0  0  0  0  0  0  0  0  0  0  0  0
    6.8521    1.8761   -2.1938 C   0  0  0  0  0  0  0  0  0  0  0  0
    7.6180    1.8856   -3.1408 O   0  0  0  0  0  0  0  0  0  0  0  0
    8.4536    2.5043   -0.3630 O   0  0  0  0  0  0  0  0  0  0  0  0
    5.8784    2.1893    1.2627 O   0  0  0  0  0  0  0  0  0  0  0  0
    3.8599    2.8034   -0.9926 C   0  0  2  0  0  0  0  0  0  0  0  0
    2.7356    2.4289   -1.9566 C   0  0  0  0  0  0  0  0  0  0  0  0
    1.7215    3.4431   -1.8909 O   0  0  0  0  0  0  0  0  0  0  0  0
    0.6426    3.1699   -2.6710 C   0  0  0  0  0  0  0  0  0  0  0  0
   -0.2737    4.3536   -2.7178 C   0  0  0  0  0  0  0  0  0  0  0  0
   -1.7260    3.9198   -2.8761 C   0  0  0  0  0  0  0  0  0  0  0  0
   -2.6721    5.1085   -3.0447 C   0  0  0  0  0  0  0  0  0  0  0  0
   -2.3873    5.9499   -4.2944 C   0  0  0  0  0  0  0  0  0  0  0  0
   -2.4745    5.1555   -5.6028 C   0  0  0  0  0  0  0  0  0  0  0  0
   -3.8647    4.5649   -5.8550 C   0  0  0  0  0  0  0  0  0  0  0  0
   -4.9567    5.6345   -5.9650 C   0  0  0  0  0  0  0  0  0  0  0  0
   -4.7504    6.5987   -7.1408 C   0  0  0  0  0  0  0  0  0  0  0  0
   -4.7104    5.9051   -8.5054 C   0  0  0  0  0  0  0  0  0  0  0  0
   -6.0198    5.1754   -8.7910 C   0  0  0  0  0  0  0  0  0  0  0  0
   -5.9831    4.4189  -10.1100 C   0  0  0  0  0  0  0  0  0  0  0  0
   -7.3279    3.7342  -10.3469 C   0  0  0  0  0  0  0  0  0  0  0  0
   -7.3261    2.9694  -11.6643 C   0  0  0  0  0  0  0  0  0  0  0  0
   -8.6736    2.2973  -11.9119 C   0  0  0  0  0  0  0  0  0  0  0  0
   -8.6711    1.5474  -13.2325 C   0  0  0  0  0  0  0  0  0  0  0  0
    0.4714    2.1280   -3.2899 O   0  0  0  0  0  0  0  0  0  0  0  0
    4.4378    4.0522   -1.4165 O   0  0  0  0  0  0  0  0  0  0  0  0
    4.4919    0.7378   -0.6725 H   0  0  0  0  0  0  0  0  0  0  0  0
    8.4297    2.7591    0.5691 H   0  0  0  0  0  0  0  0  0  0  0  0
    6.7260    2.3400    1.7116 H   0  0  0  0  0  0  0  0  0  0  0  0
    3.4391    2.9593    0.0086 H   0  0  0  0  0  0  0  0  0  0  0  0
    3.1097    2.3831   -2.9871 H   0  0  0  0  0  0  0  0  0  0  0  0
    2.3036    1.4641   -1.6678 H   0  0  0  0  0  0  0  0  0  0  0  0
   -0.1718    4.9416   -1.7984 H   0  0  0  0  0  0  0  0  0  0  0  0
    0.0657    4.9744   -3.5567 H   0  0  0  0  0  0  0  0  0  0  0  0
   -1.8312    3.2298   -3.7214 H   0  0  0  0  0  0  0  0  0  0  0  0
   -2.0268    3.3448   -1.9922 H   0  0  0  0  0  0  0  0  0  0  0  0
   -3.7031    4.7368   -3.0702 H   0  0  0  0  0  0  0  0  0  0  0  0
   -2.6092    5.7527   -2.1603 H   0  0  0  0  0  0  0  0  0  0  0  0
   -3.0840    6.7948   -4.3167 H   0  0  0  0  0  0  0  0  0  0  0  0
   -1.3962    6.4093   -4.2237 H   0  0  0  0  0  0  0  0  0  0  0  0
   -2.1847    5.8071   -6.4346 H   0  0  0  0  0  0  0  0  0  0  0  0
   -1.7353    4.3468   -5.6086 H   0  0  0  0  0  0  0  0  0  0  0  0
   -3.8348    3.9535   -6.7638 H   0  0  0  0  0  0  0  0  0  0  0  0
   -4.1301    3.8647   -5.0551 H   0  0  0  0  0  0  0  0  0  0  0  0
   -5.9310    5.1410   -6.0428 H   0  0  0  0  0  0  0  0  0  0  0  0
   -5.0184    6.2141   -5.0379 H   0  0  0  0  0  0  0  0  0  0  0  0
   -5.5593    7.3387   -7.1352 H   0  0  0  0  0  0  0  0  0  0  0  0
   -3.8243    7.1683   -7.0028 H   0  0  0  0  0  0  0  0  0  0  0  0
   -4.5303    6.6576   -9.2820 H   0  0  0  0  0  0  0  0  0  0  0  0
   -3.8662    5.2079   -8.5585 H   0  0  0  0  0  0  0  0  0  0  0  0
   -6.2367    4.4505   -7.9999 H   0  0  0  0  0  0  0  0  0  0  0  0
   -6.8408    5.9023   -8.7966 H   0  0  0  0  0  0  0  0  0  0  0  0
   -5.7580    5.1076  -10.9319 H   0  0  0  0  0  0  0  0  0  0  0  0
   -5.1846    3.6672  -10.0815 H   0  0  0  0  0  0  0  0  0  0  0  0
   -7.5437    3.0459   -9.5197 H   0  0  0  0  0  0  0  0  0  0  0  0
   -8.1266    4.4862  -10.3544 H   0  0  0  0  0  0  0  0  0  0  0  0
   -7.0996    3.6588  -12.4864 H   0  0  0  0  0  0  0  0  0  0  0  0
   -6.5327    2.2124  -11.6469 H   0  0  0  0  0  0  0  0  0  0  0  0
   -8.8984    1.5989  -11.0973 H   0  0  0  0  0  0  0  0  0  0  0  0
   -9.4708    3.0498  -11.9234 H   0  0  0  0  0  0  0  0  0  0  0  0
   -7.8919    0.7785  -13.2432 H   0  0  0  0  0  0  0  0  0  0  0  0
   -9.6363    1.0587  -13.3938 H   0  0  0  0  0  0  0  0  0  0  0  0
   -8.4900    2.2313  -14.0680 H   0  0  0  0  0  0  0  0  0  0  0  0
    4.4170    4.6528   -0.6515 H   0  0  0  0  0  0  0  0  0  0  0  0
  2  1  1  0  0  0  0
  2  3  1  0  0  0  0
  2 30  1  1  0  0  0
  2  9  1  0  0  0  0
  3  4  2  0  0  0  0
  3  8  1  0  0  0  0
  4  5  1  0  0  0  0
  4  7  1  0  0  0  0
  5  1  1  0  0  0  0
  5  6  2  0  0  0  0
  7 31  1  0  0  0  0
  8 32  1  0  0  0  0
  9 33  1  1  0  0  0
  9 29  1  0  0  0  0
  9 10  1  0  0  0  0
 10 11  1  0  0  0  0
 10 34  1  0  0  0  0
 10 35  1  0  0  0  0
 11 12  1  0  0  0  0
 12 13  1  0  0  0  0
 12 28  2  0  0  0  0
 13 14  1  0  0  0  0
 13 36  1  0  0  0  0
 13 37  1  0  0  0  0
 14 15  1  0  0  0  0
 14 38  1  0  0  0  0
 14 39  1  0  0  0  0
 15 16  1  0  0  0  0
 15 40  1  0  0  0  0
 15 41  1  0  0  0  0
 16 17  1  0  0  0  0
 16 42  1  0  0  0  0
 16 43  1  0  0  0  0
 17 18  1  0  0  0  0
 17 44  1  0  0  0  0
 17 45  1  0  0  0  0
 18 19  1  0  0  0  0
 18 46  1  0  0  0  0
 18 47  1  0  0  0  0
 19 20  1  0  0  0  0
 19 48  1  0  0  0  0
 19 49  1  0  0  0  0
 20 21  1  0  0  0  0
 20 50  1  0  0  0  0
 20 51  1  0  0  0  0
 21 22  1  0  0  0  0
 21 52  1  0  0  0  0
 21 53  1  0  0  0  0
 22 23  1  0  0  0  0
 22 54  1  0  0  0  0
 22 55  1  0  0  0  0
 23 24  1  0  0  0  0
 23 56  1  0  0  0  0
 23 57  1  0  0  0  0
 24 25  1  0  0  0  0
 24 58  1  0  0  0  0
 24 59  1  0  0  0  0
 25 26  1  0  0  0  0
 25 60  1  0  0  0  0
 25 61  1  0  0  0  0
 26 27  1  0  0  0  0
 26 62  1  0  0  0  0
 26 63  1  0  0  0  0
 27 64  1  0  0  0  0
 27 65  1  0  0  0  0
 27 66  1  0  0  0  0
 29 67  1  0  0  0  0
M  END
>  <Mol_ID>
788

>  <Formula>
C22H38O7

>  <MolWeight>
414.53292

>  <Cat>
S2532

>  <Name>
L-Ascorbyl 6-palmitate

>  <Synonyms>
N/A

>  <Form>
free base

>  <CAS>
137-66-6

>  <URL>
http://selleckchem.com/products/L-Ascorbyl-6-palmitate.html

$$$$
