L-Azetidine-2-carboxylic acid
 OpenBabel08302521453D

 14 14  0  0  1  0  0  0  0  0999 V2000
    0.8553    0.0886   -0.0113 C   0  0  0  0  0  0  0  0  0  0  0  0
    0.3588    1.3453   -0.1839 O   0  0  0  0  0  0  0  0  0  0  0  0
    0.1013   -0.8540    0.1697 O   0  0  0  0  0  0  0  0  0  0  0  0
    2.4231    0.0266   -0.0525 C   0  0  2  0  0  0  0  0  0  0  0  0
    3.1262   -1.0316    0.8155 C   0  0  0  0  0  0  0  0  0  0  0  0
    3.0766    1.0826    0.8039 N   0  0  0  0  0  0  0  0  0  0  0  0
    4.1231    0.0803    1.1510 C   0  0  0  0  0  0  0  0  0  0  0  0
    1.0906    1.9878   -0.3113 H   0  0  0  0  0  0  0  0  0  0  0  0
    2.7988    0.0517   -1.0852 H   0  0  0  0  0  0  0  0  0  0  0  0
    2.5383   -1.3813    1.6709 H   0  0  0  0  0  0  0  0  0  0  0  0
    3.5326   -1.8940    0.2817 H   0  0  0  0  0  0  0  0  0  0  0  0
    2.5188    1.3309    1.6274 H   0  0  0  0  0  0  0  0  0  0  0  0
    4.4599    0.1083    2.1912 H   0  0  0  0  0  0  0  0  0  0  0  0
    5.0000    0.1153    0.4941 H   0  0  0  0  0  0  0  0  0  0  0  0
  1  2  1  0  0  0  0
  1  3  2  0  0  0  0
  2  8  1  0  0  0  0
  4  1  1  0  0  0  0
  4  5  1  0  0  0  0
  4  6  1  0  0  0  0
  4  9  1  6  0  0  0
  5  7  1  0  0  0  0
  5 10  1  0  0  0  0
  5 11  1  0  0  0  0
  6  7  1  0  0  0  0
  6 12  1  0  0  0  0
  7 13  1  0  0  0  0
  7 14  1  0  0  0  0
M  END
>  <Mol_ID>
9508

>  <Formula>
C4H7NO2

>  <MolWeight>
101.10388

>  <Cat>
E4245

>  <Name>
L-Azetidine-2-carboxylic acid

>  <Synonyms>
L-2-Azetidinecarboxylic acid

>  <Target>
Endogenous Metabolite

>  <Form>
free base

>  <CAS>
2133-34-8

>  <URL>
https://www.selleckchem.com/products/l-azetidine-2-carboxylic-acid.html

$$$$
