L-Carnitine hydrochloride
 OpenBabel08302521313D

 27 26  0  0  0  0  0  0  0  0999 V2000
    2.7746   -0.9483    0.9948 O   0  0  0  0  0  0  0  0  0  0  0  0
    4.8591   -1.6667   -1.8626 O   0  0  0  0  0  0  0  0  0  0  0  0
    5.0146    0.5324   -1.4010 O   0  0  0  0  0  0  0  0  0  0  0  0
    2.3972    2.0303    1.7035 N   0  3  0  0  0  0  0  0  0  0  0  0
    2.9424    1.4226    0.3762 C   0  0  0  0  0  0  0  0  0  0  0  0
    2.3893    0.0173    0.0129 C   0  0  1  0  0  0  0  0  0  0  0  0
    2.7641    1.1570    2.9026 C   0  0  0  0  0  0  0  0  0  0  0  0
    3.0841    3.3892    1.8821 C   0  0  0  0  0  0  0  0  0  0  0  0
    0.8966    2.2463    1.6673 C   0  0  0  0  0  0  0  0  0  0  0  0
    2.8333   -0.4608   -1.3795 C   0  0  0  0  0  0  0  0  0  0  0  0
    4.3298   -0.4711   -1.5394 C   0  0  0  0  0  0  0  0  0  0  0  0
    2.3894   -1.8145    0.7633 H   0  0  0  0  0  0  0  0  0  0  0  0
    4.2375   -2.4083   -1.9948 H   0  0  0  0  0  0  0  0  0  0  0  0
    4.0256    1.3911    0.5228 H   0  0  0  0  0  0  0  0  0  0  0  0
    2.6951    2.1412   -0.4141 H   0  0  0  0  0  0  0  0  0  0  0  0
    1.2959    0.0489    0.0140 H   0  0  0  0  0  0  0  0  0  0  0  0
    3.8058    0.8398    2.8017 H   0  0  0  0  0  0  0  0  0  0  0  0
    2.6401    1.7537    3.8122 H   0  0  0  0  0  0  0  0  0  0  0  0
    2.0845    0.3028    2.9448 H   0  0  0  0  0  0  0  0  0  0  0  0
    2.8270    4.0198    1.0257 H   0  0  0  0  0  0  0  0  0  0  0  0
    2.7233    3.8441    2.8095 H   0  0  0  0  0  0  0  0  0  0  0  0
    4.1650    3.2271    1.9328 H   0  0  0  0  0  0  0  0  0  0  0  0
    0.6486    2.8156    0.7674 H   0  0  0  0  0  0  0  0  0  0  0  0
    0.3957    1.2749    1.6594 H   0  0  0  0  0  0  0  0  0  0  0  0
    0.6053    2.8030    2.5635 H   0  0  0  0  0  0  0  0  0  0  0  0
    2.4358   -1.4646   -1.5683 H   0  0  0  0  0  0  0  0  0  0  0  0
    2.4283    0.1969   -2.1590 H   0  0  0  0  0  0  0  0  0  0  0  0
  1 12  1  0  0  0  0
  2 11  1  0  0  0  0
  2 13  1  0  0  0  0
  3 11  2  0  0  0  0
  4  5  1  0  0  0  0
  4  7  1  0  0  0  0
  4  8  1  0  0  0  0
  4  9  1  0  0  0  0
  5  6  1  0  0  0  0
  5 14  1  0  0  0  0
  5 15  1  0  0  0  0
  6  1  1  0  0  0  0
  6 10  1  0  0  0  0
  6 16  1  1  0  0  0
  7 17  1  0  0  0  0
  7 18  1  0  0  0  0
  7 19  1  0  0  0  0
  8 20  1  0  0  0  0
  8 21  1  0  0  0  0
  8 22  1  0  0  0  0
  9 23  1  0  0  0  0
  9 24  1  0  0  0  0
  9 25  1  0  0  0  0
 10 11  1  0  0  0  0
 10 26  1  0  0  0  0
 10 27  1  0  0  0  0
M  CHG  1   4   1
M  END
>  <Mol_ID>
5759

>  <Formula>
C7H16ClNO3

>  <MolWeight>
197.65984

>  <Cat>
S5922

>  <Name>
L-Carnitine hydrochloride

>  <Synonyms>
(R)-Carnitine hydrochloride, Levocarnitine hydrochloride

>  <Target>
Leukotriene

>  <Form>
Hydrochloride

>  <CAS>
6645-46-1

>  <URL>
http://www.selleckchem.com/products/l-carnitine-hydrochloride.html

$$$$
