L-carnitine.cdx
 OpenBabel08302521273D

 26 25  0  0  0  0  0  0  0  0999 V2000
    1.1546    3.4216    0.4398 C   0  0  0  0  0  0  0  0  0  0  0  0
    0.0241    2.8929   -0.4239 C   0  0  0  0  0  0  0  0  0  0  0  0
   -0.7015    1.8763    0.4536 C   0  0  2  0  0  0  0  0  0  0  0  0
    0.2766    0.8401    1.0761 C   0  0  0  0  0  0  0  0  0  0  0  0
   -0.3754   -0.1312    2.1146 N   0  3  0  0  0  0  0  0  0  0  0  0
   -1.5286   -0.9041    1.5102 C   0  0  0  0  0  0  0  0  0  0  0  0
    0.7114   -1.1061    2.5429 C   0  0  0  0  0  0  0  0  0  0  0  0
   -0.8441    0.6544    3.3281 C   0  0  0  0  0  0  0  0  0  0  0  0
   -1.6685    1.1940   -0.3705 O   0  0  0  0  0  0  0  0  0  0  0  0
    0.7856    3.9341    1.5310 O   0  5  0  0  0  0  0  0  0  0  0  0
    2.3038    3.1077    0.0364 O   0  0  0  0  0  0  0  0  0  0  0  0
   -0.6467    3.7049   -0.7264 H   0  0  0  0  0  0  0  0  0  0  0  0
    0.3954    2.4242   -1.3430 H   0  0  0  0  0  0  0  0  0  0  0  0
   -1.2626    2.3988    1.2350 H   0  0  0  0  0  0  0  0  0  0  0  0
    0.6848    0.1993    0.2854 H   0  0  0  0  0  0  0  0  0  0  0  0
    1.1041    1.3036    1.6197 H   0  0  0  0  0  0  0  0  0  0  0  0
   -1.1999   -1.3478    0.5663 H   0  0  0  0  0  0  0  0  0  0  0  0
   -1.8151   -1.6932    2.2134 H   0  0  0  0  0  0  0  0  0  0  0  0
   -2.3831   -0.2385    1.3711 H   0  0  0  0  0  0  0  0  0  0  0  0
    1.5376   -0.5419    2.9855 H   0  0  0  0  0  0  0  0  0  0  0  0
    0.2894   -1.7972    3.2792 H   0  0  0  0  0  0  0  0  0  0  0  0
    1.0504   -1.6589    1.6613 H   0  0  0  0  0  0  0  0  0  0  0  0
   -0.0254    1.2890    3.6784 H   0  0  0  0  0  0  0  0  0  0  0  0
   -1.7154    1.2543    3.0547 H   0  0  0  0  0  0  0  0  0  0  0  0
   -1.1269   -0.0613    4.1072 H   0  0  0  0  0  0  0  0  0  0  0  0
   -2.0154    1.8564   -0.9976 H   0  0  0  0  0  0  0  0  0  0  0  0
  1  2  1  0  0  0  0
  1 10  1  0  0  0  0
  1 11  2  0  0  0  0
  2 12  1  0  0  0  0
  2 13  1  0  0  0  0
  3  9  1  0  0  0  0
  3 14  1  1  0  0  0
  3  4  1  0  0  0  0
  3  2  1  0  0  0  0
  4  5  1  0  0  0  0
  4 15  1  0  0  0  0
  4 16  1  0  0  0  0
  5  6  1  0  0  0  0
  5  7  1  0  0  0  0
  5  8  1  0  0  0  0
  6 17  1  0  0  0  0
  6 18  1  0  0  0  0
  6 19  1  0  0  0  0
  7 20  1  0  0  0  0
  7 21  1  0  0  0  0
  7 22  1  0  0  0  0
  8 23  1  0  0  0  0
  8 24  1  0  0  0  0
  8 25  1  0  0  0  0
  9 26  1  0  0  0  0
M  CHG  2   5   1  10  -1
M  END
>  <Mol_ID>
506

>  <Formula>
C7H15NO3

>  <MolWeight>
161.1989

>  <Cat>
S2388

>  <Name>
L-carnitine

>  <Synonyms>
Levocarnitine,Carnitor, vitamin BT, Karnitin,L(-)-Carnitine

>  <Target>
Others

>  <Form>
quaternary-N  salt

>  <CAS>
541-15-1

>  <URL>
http://selleckchem.com/products/L-carnitine(Levocarnitine).html

$$$$
