L-Cystine (dihydrochloride)
 OpenBabel08302521353D

 26 25  0  0  0  0  0  0  0  0999 V2000
    0.2275   -1.9718   -1.2650 C   0  0  1  0  0  0  0  0  0  0  0  0
    0.3621   -0.4459   -1.3660 C   0  0  0  0  0  0  0  0  0  0  0  0
   -0.8248   -2.4929   -2.2540 C   0  0  0  0  0  0  0  0  0  0  0  0
    1.5208   -2.6725   -1.4594 N   0  0  0  0  0  0  0  0  0  0  0  0
    1.1237    0.1393   -2.9285 S   0  0  0  0  0  0  0  0  0  0  0  0
   -2.1003   -2.3418   -1.8240 O   0  0  0  0  0  0  0  0  0  0  0  0
   -0.5598   -3.0227   -3.3227 O   0  0  0  0  0  0  0  0  0  0  0  0
    1.0994    2.1769   -2.6739 S   0  0  0  0  0  0  0  0  0  0  0  0
    2.3823    2.4729   -1.3989 C   0  0  0  0  0  0  0  0  0  0  0  0
    3.7616    1.8524   -1.6476 C   0  0  1  0  0  0  0  0  0  0  0  0
    4.4914    2.5232   -2.8243 C   0  0  0  0  0  0  0  0  0  0  0  0
    4.5772    2.0035   -0.4094 N   0  0  0  0  0  0  0  0  0  0  0  0
    3.9293    2.3003   -4.0325 O   0  0  0  0  0  0  0  0  0  0  0  0
    5.5212    3.1738   -2.7010 O   0  0  0  0  0  0  0  0  0  0  0  0
   -0.1141   -2.2318   -0.2555 H   0  0  0  0  0  0  0  0  0  0  0  0
   -0.6205    0.0263   -1.2626 H   0  0  0  0  0  0  0  0  0  0  0  0
    0.9963   -0.1001   -0.5423 H   0  0  0  0  0  0  0  0  0  0  0  0
    1.3530   -3.6800   -1.4276 H   0  0  0  0  0  0  0  0  0  0  0  0
    1.8095   -2.5101   -2.4314 H   0  0  0  0  0  0  0  0  0  0  0  0
   -2.2020   -1.9671   -0.9290 H   0  0  0  0  0  0  0  0  0  0  0  0
    2.4737    3.5630   -1.2971 H   0  0  0  0  0  0  0  0  0  0  0  0
    1.9698    2.1056   -0.4503 H   0  0  0  0  0  0  0  0  0  0  0  0
    3.7128    0.7783   -1.8494 H   0  0  0  0  0  0  0  0  0  0  0  0
    5.5320    1.6971   -0.6309 H   0  0  0  0  0  0  0  0  0  0  0  0
    4.6994    3.0037   -0.2252 H   0  0  0  0  0  0  0  0  0  0  0  0
    3.0958    1.7820   -4.0046 H   0  0  0  0  0  0  0  0  0  0  0  0
  1  4  1  0  0  0  0
  1 15  1  1  0  0  0
  1  3  1  0  0  0  0
  1  2  1  0  0  0  0
  2  5  1  0  0  0  0
  2 16  1  0  0  0  0
  2 17  1  0  0  0  0
  3  6  1  0  0  0  0
  3  7  2  0  0  0  0
  4 18  1  0  0  0  0
  4 19  1  0  0  0  0
  5  8  1  0  0  0  0
  6 20  1  0  0  0  0
  8  9  1  0  0  0  0
  9 10  1  0  0  0  0
  9 21  1  0  0  0  0
  9 22  1  0  0  0  0
 10 11  1  0  0  0  0
 10 12  1  0  0  0  0
 10 23  1  6  0  0  0
 11 13  1  0  0  0  0
 11 14  2  0  0  0  0
 12 24  1  0  0  0  0
 12 25  1  0  0  0  0
 13 26  1  0  0  0  0
M  END
>  <Mol_ID>
7008

>  <Formula>
C6H13ClN2O4S2

>  <MolWeight>
276.76142

>  <Cat>
E4363

>  <Name>
L-Cystine (dihydrochloride)

>  <Target>
Others

>  <Form>
dihydrochloride salt

>  <CAS>
30925-07-6

>  <URL>
https://www.selleckchem.com/products/l-cystine-dihydrochloride.html

$$$$
