L-DAB HBR
 OpenBabel08302521383D

 20 18  0  0  0  0  0  0  0  0999 V2000
    1.0438   -1.1947    0.6292 O   0  0  0  0  0  0  0  0  0  0  0  0
    0.7991    0.2814    2.2721 O   0  0  0  0  0  0  0  0  0  0  0  0
   -1.7410    0.9003    1.1084 N   0  0  0  0  0  0  0  0  0  0  0  0
   -2.0379   -2.1353   -2.0716 N   0  0  0  0  0  0  0  0  0  0  0  0
   -1.7925   -1.4536    0.2748 C   0  0  0  0  0  0  0  0  0  0  0  0
   -1.2377   -0.4576    1.3289 C   0  0  1  0  0  0  0  0  0  0  0  0
   -1.4446   -1.1336   -1.1910 C   0  0  0  0  0  0  0  0  0  0  0  0
    0.2712   -0.4326    1.4318 C   0  0  0  0  0  0  0  0  0  0  0  0
    1.9206    2.2234   -0.4830 Br  0  0  0  0  0  0  0  0  0  0  0  0
    2.0097   -1.1731    0.6871 H   0  0  0  0  0  0  0  0  0  0  0  0
   -2.7868    0.8943    1.0857 H   0  0  0  0  0  0  0  0  0  0  0  0
   -1.3731    1.2959    0.2137 H   0  0  0  0  0  0  0  0  0  0  0  0
   -1.8142   -1.8839   -3.0614 H   0  0  0  0  0  0  0  0  0  0  0  0
   -1.6046   -3.0665   -1.8737 H   0  0  0  0  0  0  0  0  0  0  0  0
   -1.4225   -2.4722    0.5249 H   0  0  0  0  0  0  0  0  0  0  0  0
   -2.9014   -1.4690    0.3644 H   0  0  0  0  0  0  0  0  0  0  0  0
   -1.6130   -0.8017    2.3180 H   0  0  0  0  0  0  0  0  0  0  0  0
   -1.8506   -0.1391   -1.4682 H   0  0  0  0  0  0  0  0  0  0  0  0
   -0.3465   -1.1182   -1.3513 H   0  0  0  0  0  0  0  0  0  0  0  0
    2.8993    1.0574   -0.3385 H   0  0  0  0  0  0  0  0  0  0  0  0
  1  8  1  0  0  0  0
  1 10  1  0  0  0  0
  2  8  2  0  0  0  0
  3 11  1  0  0  0  0
  3 12  1  0  0  0  0
  4  7  1  0  0  0  0
  4 13  1  0  0  0  0
  4 14  1  0  0  0  0
  5  7  1  0  0  0  0
  5 15  1  0  0  0  0
  5 16  1  0  0  0  0
  6  8  1  0  0  0  0
  6 17  1  1  0  0  0
  6  3  1  0  0  0  0
  6  5  1  0  0  0  0
  7 18  1  0  0  0  0
  7 19  1  0  0  0  0
  9 20  1  0  0  0  0
M  END
>  <Mol_ID>
7956

>  <Formula>
C4H11BrN2O2

>  <MolWeight>
199.04634

>  <Cat>
S2996

>  <Name>
L-DAB HBR

>  <Synonyms>
L-Dab Hydrobromide, L-2,4-Diaminobutyric acid hydrobromide

>  <Target>
GABA Receptor

>  <Form>
Hydrobromide

>  <CAS>
73143-97-2

>  <URL>
https://www.selleckchem.com/products/ldab-hbr.html

$$$$
