L-Fucitol
 OpenBabel08302521243D

 25 24  0  0  0  0  0  0  0  0999 V2000
    2.7467    1.5634   -3.3739 O   0  0  0  0  0  0  0  0  0  0  0  0
    1.6426    3.4763   -1.5662 O   0  0  0  0  0  0  0  0  0  0  0  0
    3.0825   -1.0437   -2.5740 O   0  0  0  0  0  0  0  0  0  0  0  0
    4.5112    3.3261   -2.3511 O   0  0  0  0  0  0  0  0  0  0  0  0
    3.7230   -1.6864    0.0583 O   0  0  0  0  0  0  0  0  0  0  0  0
    2.4116    1.2064   -2.0172 C   0  0  2  0  0  0  0  0  0  0  0  0
    2.5453    2.4545   -1.1098 C   0  0  1  0  0  0  0  0  0  0  0  0
    3.2786    0.0072   -1.6006 C   0  0  1  0  0  0  0  0  0  0  0  0
    3.9798    3.0415   -1.0549 C   0  0  2  0  0  0  0  0  0  0  0  0
    2.8983   -0.5596   -0.2318 C   0  0  0  0  0  0  0  0  0  0  0  0
    4.0457    4.3250   -0.2336 C   0  0  0  0  0  0  0  0  0  0  0  0
    2.5816    0.7596   -3.9047 H   0  0  0  0  0  0  0  0  0  0  0  0
    0.7969    3.0610   -1.8038 H   0  0  0  0  0  0  0  0  0  0  0  0
    3.9047   -1.0911   -3.0980 H   0  0  0  0  0  0  0  0  0  0  0  0
    3.8527    3.0152   -3.0093 H   0  0  0  0  0  0  0  0  0  0  0  0
    3.6024   -2.3001   -0.6923 H   0  0  0  0  0  0  0  0  0  0  0  0
    1.3573    0.9046   -2.0552 H   0  0  0  0  0  0  0  0  0  0  0  0
    2.2284    2.2041   -0.0918 H   0  0  0  0  0  0  0  0  0  0  0  0
    4.3459    0.2537   -1.6313 H   0  0  0  0  0  0  0  0  0  0  0  0
    4.6490    2.3062   -0.5972 H   0  0  0  0  0  0  0  0  0  0  0  0
    3.0429    0.1724    0.5674 H   0  0  0  0  0  0  0  0  0  0  0  0
    1.8583   -0.9012   -0.2186 H   0  0  0  0  0  0  0  0  0  0  0  0
    3.5432    4.2089    0.7316 H   0  0  0  0  0  0  0  0  0  0  0  0
    5.0901    4.5969   -0.0446 H   0  0  0  0  0  0  0  0  0  0  0  0
    3.5984    5.1689   -0.7700 H   0  0  0  0  0  0  0  0  0  0  0  0
  1 12  1  0  0  0  0
  2 13  1  0  0  0  0
  3 14  1  0  0  0  0
  4 15  1  0  0  0  0
  5 10  1  0  0  0  0
  5 16  1  0  0  0  0
  6 17  1  1  0  0  0
  6  7  1  0  0  0  0
  6  1  1  0  0  0  0
  7 18  1  1  0  0  0
  7  9  1  0  0  0  0
  7  2  1  0  0  0  0
  8 10  1  0  0  0  0
  8 19  1  1  0  0  0
  8  3  1  0  0  0  0
  8  6  1  0  0  0  0
  9  4  1  0  0  0  0
  9 11  1  0  0  0  0
  9 20  1  1  0  0  0
 10 21  1  0  0  0  0
 10 22  1  0  0  0  0
 11 23  1  0  0  0  0
 11 24  1  0  0  0  0
 11 25  1  0  0  0  0
M  END
>  <Mol_ID>
5116

>  <Formula>
C6H14O5

>  <MolWeight>
166.17236

>  <Cat>
S3230

>  <Name>
L-Fucitol

>  <Synonyms>
1-Deoxy-D-galactitol

>  <Target>
Others

>  <Form>
free base

>  <CAS>
13074-06-1

>  <URL>
http://www.selleckchem.com/products/l-fucitol.html

$$$$
