L-Gulose
 OpenBabel08302520383D

 24 23  0  0  0  0  0  0  0  0999 V2000
    1.0192   -0.0620    0.0029 C   0  0  1  0  0  0  0  0  0  0  0  0
    0.4601   -1.1217    0.9839 C   0  0  1  0  0  0  0  0  0  0  0  0
    0.3803   -0.1612   -1.4018 C   0  0  2  0  0  0  0  0  0  0  0  0
    0.7694    1.2509    0.5344 O   0  0  0  0  0  0  0  0  0  0  0  0
    1.0601   -1.0338    2.4014 C   0  0  1  0  0  0  0  0  0  0  0  0
   -0.9678   -0.9440    1.0892 O   0  0  0  0  0  0  0  0  0  0  0  0
    1.0618    0.7821   -2.4005 C   0  0  0  0  0  0  0  0  0  0  0  0
   -1.0070    0.1939   -1.3263 O   0  0  0  0  0  0  0  0  0  0  0  0
    2.5612   -1.2679    2.3620 C   0  0  0  0  0  0  0  0  0  0  0  0
    0.7019    0.2049    3.0078 O   0  0  0  0  0  0  0  0  0  0  0  0
    2.4426    0.4703   -2.5436 O   0  0  0  0  0  0  0  0  0  0  0  0
    3.3950   -0.3656    2.4205 O   0  0  0  0  0  0  0  0  0  0  0  0
    2.1036   -0.1868   -0.0744 H   0  0  0  0  0  0  0  0  0  0  0  0
    0.6352   -2.1211    0.5694 H   0  0  0  0  0  0  0  0  0  0  0  0
    0.4601   -1.1909   -1.7698 H   0  0  0  0  0  0  0  0  0  0  0  0
   -0.1248    1.4990    0.2162 H   0  0  0  0  0  0  0  0  0  0  0  0
    0.6238   -1.8150    3.0348 H   0  0  0  0  0  0  0  0  0  0  0  0
   -1.0864   -0.2316    1.7562 H   0  0  0  0  0  0  0  0  0  0  0  0
    0.5863    0.6875   -3.3829 H   0  0  0  0  0  0  0  0  0  0  0  0
    0.9528    1.8323   -2.1057 H   0  0  0  0  0  0  0  0  0  0  0  0
   -1.4187   -0.4288   -0.6877 H   0  0  0  0  0  0  0  0  0  0  0  0
    2.8738   -2.3178    2.2329 H   0  0  0  0  0  0  0  0  0  0  0  0
    1.1799    0.9016    2.5051 H   0  0  0  0  0  0  0  0  0  0  0  0
    2.9308    1.0473   -1.9279 H   0  0  0  0  0  0  0  0  0  0  0  0
  1  4  1  0  0  0  0
  1 13  1  6  0  0  0
  1  3  1  0  0  0  0
  1  2  1  0  0  0  0
  2  5  1  0  0  0  0
  2  6  1  0  0  0  0
  2 14  1  6  0  0  0
  3 15  1  6  0  0  0
  3  8  1  0  0  0  0
  3  7  1  0  0  0  0
  4 16  1  0  0  0  0
  5  9  1  0  0  0  0
  5 10  1  0  0  0  0
  5 17  1  1  0  0  0
  6 18  1  0  0  0  0
  7 11  1  0  0  0  0
  7 19  1  0  0  0  0
  7 20  1  0  0  0  0
  8 21  1  0  0  0  0
  9 12  2  0  0  0  0
  9 22  1  0  0  0  0
 10 23  1  0  0  0  0
 11 24  1  0  0  0  0
M  END
>  <Mol_ID>
3473

>  <Formula>
C6H12O6

>  <MolWeight>
180.15588

>  <Cat>
S6180

>  <Name>
L-Gulose

>  <Synonyms>
N/A

>  <Target>
Others

>  <Form>
free base

>  <CAS>
6027-89-0

>  <URL>
http://www.selleck.cn/products/l-gulose.html

$$$$
