L-Histidinol dihydrochloride
 OpenBabel08302521303D

 21 21  0  0  0  0  0  0  0  0999 V2000
    1.2523   -0.3713   -2.4346 C   0  0  0  0  0  0  0  0  0  0  0  0
    0.5052    0.3296   -1.2810 C   0  0  2  0  0  0  0  0  0  0  0  0
    0.8422    0.1862   -3.6875 O   0  0  0  0  0  0  0  0  0  0  0  0
    0.9380   -0.1770    0.1085 C   0  0  0  0  0  0  0  0  0  0  0  0
    0.5590   -1.5908    0.3954 C   0  0  0  0  0  0  0  0  0  0  0  0
    1.2308   -2.7843    0.2467 C   0  0  0  0  0  0  0  0  0  0  0  0
    0.4523   -3.8348    0.6522 N   0  0  0  0  0  0  0  0  0  0  0  0
   -0.6743   -3.2993    1.0600 C   0  0  0  0  0  0  0  0  0  0  0  0
   -0.6558   -1.9402    0.9330 N   0  0  0  0  0  0  0  0  0  0  0  0
   -0.9575    0.2450   -1.4939 N   0  0  0  0  0  0  0  0  0  0  0  0
    1.0355   -1.4433   -2.4692 H   0  0  0  0  0  0  0  0  0  0  0  0
    2.3349   -0.2403   -2.3389 H   0  0  0  0  0  0  0  0  0  0  0  0
    0.7537    1.3974   -1.3326 H   0  0  0  0  0  0  0  0  0  0  0  0
    0.9415    1.1520   -3.6243 H   0  0  0  0  0  0  0  0  0  0  0  0
    2.0247   -0.0696    0.2110 H   0  0  0  0  0  0  0  0  0  0  0  0
    0.4958    0.4720    0.8775 H   0  0  0  0  0  0  0  0  0  0  0  0
    2.2299   -2.9425   -0.1371 H   0  0  0  0  0  0  0  0  0  0  0  0
   -1.5267   -3.8364    1.4531 H   0  0  0  0  0  0  0  0  0  0  0  0
   -1.4081   -1.3077    1.1736 H   0  0  0  0  0  0  0  0  0  0  0  0
   -1.1303    0.5009   -2.4728 H   0  0  0  0  0  0  0  0  0  0  0  0
   -1.2189   -0.7437   -1.4743 H   0  0  0  0  0  0  0  0  0  0  0  0
  1  3  1  0  0  0  0
  1 11  1  0  0  0  0
  1 12  1  0  0  0  0
  2 10  1  0  0  0  0
  2 13  1  6  0  0  0
  2  4  1  0  0  0  0
  2  1  1  0  0  0  0
  3 14  1  0  0  0  0
  4  5  1  0  0  0  0
  4 15  1  0  0  0  0
  4 16  1  0  0  0  0
  5  6  2  0  0  0  0
  6  7  1  0  0  0  0
  6 17  1  0  0  0  0
  7  8  2  0  0  0  0
  8  9  1  0  0  0  0
  8 18  1  0  0  0  0
  9  5  1  0  0  0  0
  9 19  1  0  0  0  0
 10 20  1  0  0  0  0
 10 21  1  0  0  0  0
M  END
>  <Mol_ID>
5498

>  <Formula>
C6H13Cl2N3O

>  <MolWeight>
214.09292

>  <Cat>
S3337

>  <Name>
L-Histidinol dihydrochloride

>  <Synonyms>
N/A

>  <Target>
Others

>  <Form>
Dihydrochloride

>  <CAS>
1596-64-1

>  <URL>
https://www.selleckchem.com/products/l-histidinol-dihydrochloride.html

$$$$
