L-Homocitrulline
 OpenBabel08302521383D

 28 27  0  0  0  0  0  0  0  0999 V2000
    0.9860    0.1496   -0.1651 C   0  0  0  0  0  0  0  0  0  0  0  0
    0.4906    1.5609   -0.5148 C   0  0  1  0  0  0  0  0  0  0  0  0
    0.5099   -0.9275   -1.1482 C   0  0  0  0  0  0  0  0  0  0  0  0
    0.9580    2.5461    0.5754 C   0  0  0  0  0  0  0  0  0  0  0  0
    0.9361    1.9626   -1.8617 N   0  0  0  0  0  0  0  0  0  0  0  0
    1.0120   -2.3318   -0.7978 C   0  0  0  0  0  0  0  0  0  0  0  0
    1.7667    3.5288    0.1142 O   0  0  0  0  0  0  0  0  0  0  0  0
    0.6436    2.4642    1.7542 O   0  0  0  0  0  0  0  0  0  0  0  0
    0.4695   -2.8626    0.5269 C   0  0  0  0  0  0  0  0  0  0  0  0
    0.9320   -4.2105    0.7863 N   0  0  0  0  0  0  0  0  0  0  0  0
    2.1133   -4.4379    1.4274 C   0  0  0  0  0  0  0  0  0  0  0  0
    2.3135   -5.7540    1.6862 N   0  0  0  0  0  0  0  0  0  0  0  0
    2.9263   -3.5876    1.7564 O   0  0  0  0  0  0  0  0  0  0  0  0
    0.6286   -0.0955    0.8420 H   0  0  0  0  0  0  0  0  0  0  0  0
    2.0825    0.1391   -0.1111 H   0  0  0  0  0  0  0  0  0  0  0  0
   -0.6051    1.5859   -0.5105 H   0  0  0  0  0  0  0  0  0  0  0  0
   -0.5856   -0.9294   -1.1957 H   0  0  0  0  0  0  0  0  0  0  0  0
    0.8705   -0.6903   -2.1564 H   0  0  0  0  0  0  0  0  0  0  0  0
    0.5642    2.8563   -2.1706 H   0  0  0  0  0  0  0  0  0  0  0  0
    1.9283    1.8283   -2.0332 H   0  0  0  0  0  0  0  0  0  0  0  0
    0.7106   -3.0163   -1.6014 H   0  0  0  0  0  0  0  0  0  0  0  0
    2.1088   -2.3390   -0.7873 H   0  0  0  0  0  0  0  0  0  0  0  0
    1.9147    3.4142   -0.8426 H   0  0  0  0  0  0  0  0  0  0  0  0
    0.7736   -2.2276    1.3649 H   0  0  0  0  0  0  0  0  0  0  0  0
   -0.6247   -2.8954    0.5043 H   0  0  0  0  0  0  0  0  0  0  0  0
    0.2440   -4.9462    0.8453 H   0  0  0  0  0  0  0  0  0  0  0  0
    3.2337   -5.9471    2.0606 H   0  0  0  0  0  0  0  0  0  0  0  0
    1.9910   -6.4124    0.9934 H   0  0  0  0  0  0  0  0  0  0  0  0
  1  2  1  0  0  0  0
  1  3  1  0  0  0  0
  1 14  1  0  0  0  0
  1 15  1  0  0  0  0
  2  4  1  0  0  0  0
  2  5  1  0  0  0  0
  2 16  1  1  0  0  0
  3  6  1  0  0  0  0
  3 17  1  0  0  0  0
  3 18  1  0  0  0  0
  4  7  1  0  0  0  0
  4  8  2  0  0  0  0
  5 19  1  0  0  0  0
  5 20  1  0  0  0  0
  6  9  1  0  0  0  0
  6 21  1  0  0  0  0
  6 22  1  0  0  0  0
  7 23  1  0  0  0  0
  9 10  1  0  0  0  0
  9 24  1  0  0  0  0
  9 25  1  0  0  0  0
 10 11  1  0  0  0  0
 10 26  1  0  0  0  0
 11 12  1  0  0  0  0
 11 13  2  0  0  0  0
 12 27  1  0  0  0  0
 12 28  1  0  0  0  0
M  END
>  <Mol_ID>
7904

>  <Formula>
C7H15N3O3

>  <MolWeight>
189.2123

>  <Cat>
S6128

>  <Name>
L-Homocitrulline

>  <Synonyms>
N(6)-carbamoyl-L-lysine

>  <Target>
Others

>  <Form>
free base

>  <CAS>
1190-49-4

>  <URL>
http://www.selleck.cn/products/l-homocitrulline.html

$$$$
