L-Homoserine
 OpenBabel08302521383D

 17 16  0  0  0  0  0  0  0  0999 V2000
    3.0617   -1.3882    0.8188 O   0  0  0  0  0  0  0  0  0  0  0  0
    2.2239   -2.0596   -4.3405 O   0  0  0  0  0  0  0  0  0  0  0  0
    4.3404   -1.4066   -3.8205 O   0  0  0  0  0  0  0  0  0  0  0  0
    1.1372   -1.2264   -2.1900 N   0  0  0  0  0  0  0  0  0  0  0  0
    2.6163   -1.4002   -2.0784 C   0  0  1  0  0  0  0  0  0  0  0  0
    2.9904   -2.6343   -1.2505 C   0  0  0  0  0  0  0  0  0  0  0  0
    2.5553   -2.5647    0.2062 C   0  0  0  0  0  0  0  0  0  0  0  0
    3.1802   -1.5947   -3.4945 C   0  0  0  0  0  0  0  0  0  0  0  0
    4.0326   -1.4652    0.8441 H   0  0  0  0  0  0  0  0  0  0  0  0
    1.3899   -2.1087   -3.8100 H   0  0  0  0  0  0  0  0  0  0  0  0
    0.9704   -0.3159   -2.6363 H   0  0  0  0  0  0  0  0  0  0  0  0
    0.7773   -1.0829   -1.2399 H   0  0  0  0  0  0  0  0  0  0  0  0
    3.0457   -0.4807   -1.6659 H   0  0  0  0  0  0  0  0  0  0  0  0
    4.0827   -2.7454   -1.2798 H   0  0  0  0  0  0  0  0  0  0  0  0
    2.5757   -3.5415   -1.7074 H   0  0  0  0  0  0  0  0  0  0  0  0
    2.9235   -3.4345    0.7594 H   0  0  0  0  0  0  0  0  0  0  0  0
    1.4652   -2.5563    0.2969 H   0  0  0  0  0  0  0  0  0  0  0  0
  1  7  1  0  0  0  0
  1  9  1  0  0  0  0
  2  8  1  0  0  0  0
  2 10  1  0  0  0  0
  3  8  2  0  0  0  0
  4 11  1  0  0  0  0
  4 12  1  0  0  0  0
  5  8  1  0  0  0  0
  5 13  1  1  0  0  0
  5  6  1  0  0  0  0
  5  4  1  0  0  0  0
  6  7  1  0  0  0  0
  6 14  1  0  0  0  0
  6 15  1  0  0  0  0
  7 16  1  0  0  0  0
  7 17  1  0  0  0  0
M  END
>  <Mol_ID>
7961

>  <Formula>
C4H9NO3

>  <MolWeight>
119.11916

>  <Cat>
S3118

>  <Name>
L-Homoserine

>  <Synonyms>
L-Hse

>  <Target>
Others

>  <Form>
Free Base

>  <CAS>
672-15-1

>  <URL>
https://www.selleckchem.com/products/l-homoserine.html

$$$$
