L-Hydroorotic acid
 OpenBabel08302520393D

 17 17  0  0  0  0  0  0  0  0999 V2000
    0.0037   -1.8469    0.2996 C   0  0  2  0  0  0  0  0  0  0  0  0
    1.2018   -1.1560   -0.3187 C   0  0  0  0  0  0  0  0  0  0  0  0
   -1.2152   -1.0950    0.0434 N   0  0  0  0  0  0  0  0  0  0  0  0
    0.2110   -2.1081    1.7988 C   0  0  0  0  0  0  0  0  0  0  0  0
    1.1900    0.3107    0.0223 C   0  0  0  0  0  0  0  0  0  0  0  0
   -1.2282    0.2665    0.0894 C   0  0  0  0  0  0  0  0  0  0  0  0
   -0.9130   -1.9346    2.5356 O   0  0  0  0  0  0  0  0  0  0  0  0
    1.2551   -2.5108    2.2890 O   0  0  0  0  0  0  0  0  0  0  0  0
   -0.0287    0.8618    0.3257 N   0  0  0  0  0  0  0  0  0  0  0  0
    2.1922    1.0158   -0.0834 O   0  0  0  0  0  0  0  0  0  0  0  0
   -2.2639    0.8936   -0.0894 O   0  0  0  0  0  0  0  0  0  0  0  0
   -0.1406   -2.8324   -0.1601 H   0  0  0  0  0  0  0  0  0  0  0  0
    1.1582   -1.2329   -1.4122 H   0  0  0  0  0  0  0  0  0  0  0  0
    2.1463   -1.5960    0.0198 H   0  0  0  0  0  0  0  0  0  0  0  0
   -2.0693   -1.5435   -0.2762 H   0  0  0  0  0  0  0  0  0  0  0  0
   -1.6597   -1.6182    1.9867 H   0  0  0  0  0  0  0  0  0  0  0  0
   -0.0356    1.8716    0.3772 H   0  0  0  0  0  0  0  0  0  0  0  0
  1  2  1  0  0  0  0
  1  3  1  0  0  0  0
  1 12  1  6  0  0  0
  1  4  1  0  0  0  0
  2  5  1  0  0  0  0
  2 13  1  0  0  0  0
  2 14  1  0  0  0  0
  3  6  1  0  0  0  0
  3 15  1  0  0  0  0
  4  7  1  0  0  0  0
  4  8  2  0  0  0  0
  5  9  1  0  0  0  0
  5 10  2  0  0  0  0
  6 11  2  0  0  0  0
  6  9  1  0  0  0  0
  7 16  1  0  0  0  0
  9 17  1  0  0  0  0
M  END
>  <Mol_ID>
3570

>  <Formula>
C5H6N2O4

>  <MolWeight>
158.11214

>  <Cat>
S6111

>  <Name>
L-Hydroorotic acid

>  <Synonyms>
L-dihydroorotate

>  <Target>
Others

>  <Form>
free base

>  <CAS>
5988-19-2

>  <URL>
http://www.selleck.cn/products/l-hydroorotic-acid.html

$$$$
