L-Hydroxyproline
 OpenBabel08302521383D

 18 18  0  0  0  0  0  0  0  0999 V2000
   -1.2598   -0.8009   -0.4392 C   0  0  2  0  0  0  0  0  0  0  0  0
   -0.1583   -1.2302    0.5169 C   0  0  0  0  0  0  0  0  0  0  0  0
   -1.3314    0.7013   -0.3777 N   0  0  0  0  0  0  0  0  0  0  0  0
   -2.6138   -1.3939   -0.0470 C   0  0  0  0  0  0  0  0  0  0  0  0
    0.7695   -0.0354    0.5409 C   0  0  2  0  0  0  0  0  0  0  0  0
   -0.1897    1.1461    0.4548 C   0  0  0  0  0  0  0  0  0  0  0  0
   -3.5178   -0.4251    0.2487 O   0  0  0  0  0  0  0  0  0  0  0  0
   -2.8656   -2.5875    0.0039 O   0  0  0  0  0  0  0  0  0  0  0  0
    1.6457   -0.0677   -0.5836 O   0  0  0  0  0  0  0  0  0  0  0  0
   -1.0387   -1.0926   -1.4720 H   0  0  0  0  0  0  0  0  0  0  0  0
    0.3374   -2.1411    0.1671 H   0  0  0  0  0  0  0  0  0  0  0  0
   -0.5607   -1.4145    1.5208 H   0  0  0  0  0  0  0  0  0  0  0  0
   -1.1999    1.0615   -1.3277 H   0  0  0  0  0  0  0  0  0  0  0  0
    1.3849   -0.0086    1.4445 H   0  0  0  0  0  0  0  0  0  0  0  0
   -0.5716    1.4000    1.4494 H   0  0  0  0  0  0  0  0  0  0  0  0
    0.2776    2.0344    0.0181 H   0  0  0  0  0  0  0  0  0  0  0  0
   -3.0375    0.4345    0.1490 H   0  0  0  0  0  0  0  0  0  0  0  0
    1.1301    0.1040   -1.3890 H   0  0  0  0  0  0  0  0  0  0  0  0
  1  2  1  0  0  0  0
  1  3  1  0  0  0  0
  1  4  1  0  0  0  0
  1 10  1  6  0  0  0
  2  5  1  0  0  0  0
  2 11  1  0  0  0  0
  2 12  1  0  0  0  0
  3  6  1  0  0  0  0
  3 13  1  0  0  0  0
  4  7  1  0  0  0  0
  4  8  2  0  0  0  0
  5  9  1  0  0  0  0
  5  6  1  0  0  0  0
  5 14  1  1  0  0  0
  6 15  1  0  0  0  0
  6 16  1  0  0  0  0
  7 17  1  0  0  0  0
  9 18  1  0  0  0  0
M  END
>  <Mol_ID>
7887

>  <Formula>
C5H9NO3

>  <MolWeight>
131.12986

>  <Cat>
S5820

>  <Name>
L-Hydroxyproline

>  <Synonyms>
trans-4-Hydroxy-L-proline

>  <Target>
Others

>  <Form>
Free Base

>  <CAS>
51-35-4

>  <URL>
http://www.selleckchem.com/products/l-hydroxyproline.html

$$$$
