L-Leucyl-L-alanine Hydrate
 OpenBabel08302521383D

 32 31  0  0  0  0  0  0  0  0999 V2000
    3.5701   -4.8016   -0.6189 C   0  0  0  0  0  0  0  0  0  0  0  0
    3.1979   -3.6363    0.0135 N   0  0  0  0  0  0  0  0  0  0  0  0
    3.7058   -6.0589    0.2784 C   0  0  2  0  0  0  0  0  0  0  0  0
    3.8641   -4.8026   -1.8139 O   0  0  0  0  0  0  0  0  0  0  0  0
    3.4579   -2.3386   -0.5992 C   0  0  2  0  0  0  0  0  0  0  0  0
    2.8619   -7.2590   -0.1840 C   0  0  0  0  0  0  0  0  0  0  0  0
    3.3836   -5.7621    1.6942 N   0  0  0  0  0  0  0  0  0  0  0  0
    3.6632   -1.3126    0.5213 C   0  0  0  0  0  0  0  0  0  0  0  0
    2.3380   -1.9118   -1.5344 C   0  0  0  0  0  0  0  0  0  0  0  0
    3.0978   -7.7442   -1.6309 C   0  0  0  0  0  0  0  0  0  0  0  0
    4.1072   -0.1104    0.0994 O   0  0  0  0  0  0  0  0  0  0  0  0
    3.4709   -1.5593    1.7087 O   0  0  0  0  0  0  0  0  0  0  0  0
    4.5513   -8.1360   -1.9031 C   0  0  0  0  0  0  0  0  0  0  0  0
    2.1782   -8.9283   -1.9440 C   0  0  0  0  0  0  0  0  0  0  0  0
    3.0025   -3.6419    1.0092 H   0  0  0  0  0  0  0  0  0  0  0  0
    4.7692   -6.3279    0.2581 H   0  0  0  0  0  0  0  0  0  0  0  0
    4.4060   -2.4162   -1.1479 H   0  0  0  0  0  0  0  0  0  0  0  0
    3.0571   -8.0997    0.4966 H   0  0  0  0  0  0  0  0  0  0  0  0
    1.7968   -7.0141   -0.0716 H   0  0  0  0  0  0  0  0  0  0  0  0
    3.9884   -5.0180    2.0395 H   0  0  0  0  0  0  0  0  0  0  0  0
    2.4128   -5.4686    1.7823 H   0  0  0  0  0  0  0  0  0  0  0  0
    2.5714   -0.9552   -2.0150 H   0  0  0  0  0  0  0  0  0  0  0  0
    2.1777   -2.6503   -2.3256 H   0  0  0  0  0  0  0  0  0  0  0  0
    1.3948   -1.7869   -0.9927 H   0  0  0  0  0  0  0  0  0  0  0  0
    2.8209   -6.9438   -2.3245 H   0  0  0  0  0  0  0  0  0  0  0  0
    4.2572   -0.0460   -0.8639 H   0  0  0  0  0  0  0  0  0  0  0  0
    4.8809   -8.9391   -1.2355 H   0  0  0  0  0  0  0  0  0  0  0  0
    4.6671   -8.4874   -2.9345 H   0  0  0  0  0  0  0  0  0  0  0  0
    5.2292   -7.2871   -1.7764 H   0  0  0  0  0  0  0  0  0  0  0  0
    1.1296   -8.6607   -1.7768 H   0  0  0  0  0  0  0  0  0  0  0  0
    2.2802   -9.2281   -2.9928 H   0  0  0  0  0  0  0  0  0  0  0  0
    2.4135   -9.7961   -1.3189 H   0  0  0  0  0  0  0  0  0  0  0  0
  1  2  1  0  0  0  0
  1  4  2  0  0  0  0
  2 15  1  0  0  0  0
  3  7  1  0  0  0  0
  3 16  1  6  0  0  0
  3  6  1  0  0  0  0
  3  1  1  0  0  0  0
  5  9  1  0  0  0  0
  5 17  1  6  0  0  0
  5  8  1  0  0  0  0
  5  2  1  0  0  0  0
  6 10  1  0  0  0  0
  6 18  1  0  0  0  0
  6 19  1  0  0  0  0
  7 20  1  0  0  0  0
  7 21  1  0  0  0  0
  8 11  1  0  0  0  0
  8 12  2  0  0  0  0
  9 22  1  0  0  0  0
  9 23  1  0  0  0  0
  9 24  1  0  0  0  0
 10 13  1  0  0  0  0
 10 14  1  0  0  0  0
 10 25  1  0  0  0  0
 11 26  1  0  0  0  0
 13 27  1  0  0  0  0
 13 28  1  0  0  0  0
 13 29  1  0  0  0  0
 14 30  1  0  0  0  0
 14 31  1  0  0  0  0
 14 32  1  0  0  0  0
M  END
>  <Mol_ID>
7911

>  <Formula>
C9H18N2O3

>  <MolWeight>
202.25082

>  <Cat>
S6153

>  <Name>
L-Leucyl-L-alanine Hydrate

>  <Synonyms>
H-Leu-Ala-OH

>  <Target>
Others

>  <Form>
Hydrate

>  <CAS>
7298-84-2

>  <URL>
http://www.selleck.cn/products/l-leucyl-l-alanine-hydrate.html

$$$$
