L-Methionine sulfoxide
 OpenBabel08302521453D

 21 20  0  0  1  0  0  0  0  0999 V2000
    1.3550   -0.0404   -0.1312 C   0  0  1  0  0  0  0  0  0  0  0  0
    0.3084   -1.0743    0.2920 C   0  0  0  0  0  0  0  0  0  0  0  0
    1.0514    0.5845   -1.5041 C   0  0  0  0  0  0  0  0  0  0  0  0
    1.5032    1.0167    0.8954 N   0  0  0  0  0  0  0  0  0  0  0  0
   -1.0952   -0.5154    0.5271 C   0  0  0  0  0  0  0  0  0  0  0  0
    1.0432   -0.2948   -2.5275 O   0  0  0  0  0  0  0  0  0  0  0  0
    0.8555    1.7825   -1.6767 O   0  0  0  0  0  0  0  0  0  0  0  0
   -2.2157   -1.8940    0.9665 S   0  0  3  0  0  0  0  0  0  0  0  0
   -3.7024   -0.8861    1.1734 C   0  0  0  0  0  0  0  0  0  0  0  0
   -2.3919   -2.7263   -0.2696 O   0  0  0  0  0  0  0  0  0  0  0  0
    2.3302   -0.5349   -0.2211 H   0  0  0  0  0  0  0  0  0  0  0  0
    0.2586   -1.8648   -0.4671 H   0  0  0  0  0  0  0  0  0  0  0  0
    0.6554   -1.5676    1.2100 H   0  0  0  0  0  0  0  0  0  0  0  0
    2.2514    1.6449    0.5864 H   0  0  0  0  0  0  0  0  0  0  0  0
    0.6801    1.6250    0.8547 H   0  0  0  0  0  0  0  0  0  0  0  0
   -1.1080    0.1957    1.3578 H   0  0  0  0  0  0  0  0  0  0  0  0
   -1.4893   -0.0291   -0.3704 H   0  0  0  0  0  0  0  0  0  0  0  0
    1.2249   -1.2224   -2.2830 H   0  0  0  0  0  0  0  0  0  0  0  0
   -3.9543   -0.3930    0.2307 H   0  0  0  0  0  0  0  0  0  0  0  0
   -4.5246   -1.5424    1.4695 H   0  0  0  0  0  0  0  0  0  0  0  0
   -3.5359   -0.1423    1.9546 H   0  0  0  0  0  0  0  0  0  0  0  0
  1  4  1  0  0  0  0
  1 11  1  6  0  0  0
  1  3  1  0  0  0  0
  1  2  1  0  0  0  0
  2  5  1  0  0  0  0
  2 12  1  0  0  0  0
  2 13  1  0  0  0  0
  3  6  1  0  0  0  0
  3  7  2  0  0  0  0
  4 14  1  0  0  0  0
  4 15  1  0  0  0  0
  5  8  1  0  0  0  0
  5 16  1  0  0  0  0
  5 17  1  0  0  0  0
  6 18  1  0  0  0  0
  8  9  1  0  0  0  0
  8 10  2  0  0  0  0
  9 19  1  0  0  0  0
  9 20  1  0  0  0  0
  9 21  1  0  0  0  0
M  END
>  <Mol_ID>
9500

>  <Formula>
C5H11NO3S

>  <MolWeight>
165.21074

>  <Cat>
E4165

>  <Name>
L-Methionine sulfoxide

>  <Synonyms>
L-Methionine sulfoxide

>  <Target>
Endogenous Metabolite

>  <Form>
free base

>  <CAS>
3226-65-1

>  <URL>
https://www.selleckchem.com/products/l-methionine-sulfoxide.html

$$$$
