L-NAME HCl.cdx
 OpenBabel08302521383D

 31 30  0  0  0  0  0  0  0  0999 V2000
    1.1133    0.0069    0.0192 C   0  0  0  0  0  0  0  0  0  0  0  0
   -0.6810   -0.1151    1.7226 N   0  0  0  0  0  0  0  0  0  0  0  0
    0.1990   -0.9237    0.8507 C   0  0  1  0  0  0  0  0  0  0  0  0
   -0.6655   -1.8646   -0.0078 C   0  0  0  0  0  0  0  0  0  0  0  0
    0.1317   -2.7853   -0.9431 C   0  0  0  0  0  0  0  0  0  0  0  0
    1.0531   -3.7579   -0.2091 C   0  0  0  0  0  0  0  0  0  0  0  0
    1.7989   -4.5620   -1.1752 N   0  0  0  0  0  0  0  0  0  0  0  0
    2.2044    0.4055    0.4016 O   0  0  0  0  0  0  0  0  0  0  0  0
    0.5236    0.3520   -1.1627 O   0  0  0  0  0  0  0  0  0  0  0  0
    2.6754   -5.5231   -0.7356 C   0  0  0  0  0  0  0  0  0  0  0  0
    3.2156   -6.2209   -1.7695 N   0  0  0  0  0  0  0  0  0  0  0  0
    4.1305   -7.1861   -1.6096 N   0  3  0  0  0  0  0  0  0  0  0  0
    4.5453   -7.6439   -2.6758 O   0  0  0  0  0  0  0  0  0  0  0  0
    4.4622   -7.5331   -0.4746 O   0  5  0  0  0  0  0  0  0  0  0  0
    2.8894   -5.6533    0.5304 N   0  0  0  0  0  0  0  0  0  0  0  0
    1.2839    1.2171   -2.0108 C   0  0  0  0  0  0  0  0  0  0  0  0
   -1.2164   -0.7337    2.3324 H   0  0  0  0  0  0  0  0  0  0  0  0
   -0.0953    0.4497    2.3422 H   0  0  0  0  0  0  0  0  0  0  0  0
    0.8465   -1.5239    1.5006 H   0  0  0  0  0  0  0  0  0  0  0  0
   -1.2966   -2.4845    0.6433 H   0  0  0  0  0  0  0  0  0  0  0  0
   -1.3567   -1.2730   -0.6231 H   0  0  0  0  0  0  0  0  0  0  0  0
   -0.5820   -3.3566   -1.5510 H   0  0  0  0  0  0  0  0  0  0  0  0
    0.7179   -2.1901   -1.6520 H   0  0  0  0  0  0  0  0  0  0  0  0
    1.7668   -3.2067    0.4115 H   0  0  0  0  0  0  0  0  0  0  0  0
    0.4574   -4.4079    0.4429 H   0  0  0  0  0  0  0  0  0  0  0  0
    1.2556   -4.7996   -1.9959 H   0  0  0  0  0  0  0  0  0  0  0  0
    3.0565   -5.8736   -2.6975 H   0  0  0  0  0  0  0  0  0  0  0  0
    3.5695   -6.4116    0.6924 H   0  0  0  0  0  0  0  0  0  0  0  0
    1.6740    2.0819   -1.4657 H   0  0  0  0  0  0  0  0  0  0  0  0
    2.0949    0.6591   -2.4893 H   0  0  0  0  0  0  0  0  0  0  0  0
    0.6110    1.5799   -2.7933 H   0  0  0  0  0  0  0  0  0  0  0  0
  1  3  1  0  0  0  0
  1  8  2  0  0  0  0
  1  9  1  0  0  0  0
  2 17  1  0  0  0  0
  2 18  1  0  0  0  0
  3  2  1  0  0  0  0
  3  4  1  0  0  0  0
  3 19  1  1  0  0  0
  4  5  1  0  0  0  0
  4 20  1  0  0  0  0
  4 21  1  0  0  0  0
  5  6  1  0  0  0  0
  5 22  1  0  0  0  0
  5 23  1  0  0  0  0
  6  7  1  0  0  0  0
  6 24  1  0  0  0  0
  6 25  1  0  0  0  0
  7 10  1  0  0  0  0
  7 26  1  0  0  0  0
  9 16  1  0  0  0  0
 10 11  1  0  0  0  0
 10 15  2  0  0  0  0
 11 12  1  0  0  0  0
 11 27  1  0  0  0  0
 12 13  2  0  0  0  0
 12 14  1  0  0  0  0
 15 28  1  0  0  0  0
 16 29  1  0  0  0  0
 16 30  1  0  0  0  0
 16 31  1  0  0  0  0
M  CHG  2  12   1  14  -1
M  END
>  <Mol_ID>
7729

>  <Formula>
C7H16ClN5O4

>  <MolWeight>
269.68604

>  <Cat>
S2877

>  <Name>
L-NAME HCl

>  <Synonyms>
NG-Nitroarginine methyl ester, N-Nitro-L-arginine methylester

>  <Target>
NOS

>  <Form>
Hydrochloride

>  <CAS>
51298-62-5

>  <URL>
http://selleckchem.com/products/l-name-hcl.html

$$$$
