L-Ornithine
 OpenBabel08302521453D

 21 20  0  0  0  0  0  0  0  0999 V2000
   -2.7102   -1.5731   -2.5655 O   0  0  0  0  0  0  0  0  0  0  0  0
   -2.4306   -2.1615   -0.4375 O   0  0  0  0  0  0  0  0  0  0  0  0
   -0.4978   -0.0316   -2.6127 N   0  0  0  0  0  0  0  0  0  0  0  0
   -0.0721    1.4588    1.8655 N   0  0  0  0  0  0  0  0  0  0  0  0
   -1.7378    0.9935   -0.7091 C   0  0  0  0  0  0  0  0  0  0  0  0
   -2.2231    0.9037    0.7508 C   0  0  0  0  0  0  0  0  0  0  0  0
   -1.1003   -0.2820   -1.2762 C   0  0  1  0  0  0  0  0  0  0  0  0
   -1.1811    0.5176    1.8075 C   0  0  0  0  0  0  0  0  0  0  0  0
   -2.1145   -1.4308   -1.3626 C   0  0  0  0  0  0  0  0  0  0  0  0
   -3.2619   -2.3733   -2.4568 H   0  0  0  0  0  0  0  0  0  0  0  0
    0.0699    0.8071   -2.5883 H   0  0  0  0  0  0  0  0  0  0  0  0
   -1.2452    0.1285   -3.2844 H   0  0  0  0  0  0  0  0  0  0  0  0
    0.5811    1.1619    2.5896 H   0  0  0  0  0  0  0  0  0  0  0  0
    0.4515    1.4482    0.9946 H   0  0  0  0  0  0  0  0  0  0  0  0
   -1.0233    1.8231   -0.7848 H   0  0  0  0  0  0  0  0  0  0  0  0
   -2.5998    1.2779   -1.3239 H   0  0  0  0  0  0  0  0  0  0  0  0
   -2.6449    1.8812    1.0236 H   0  0  0  0  0  0  0  0  0  0  0  0
   -3.0569    0.1941    0.8143 H   0  0  0  0  0  0  0  0  0  0  0  0
   -0.2791   -0.6269   -0.6363 H   0  0  0  0  0  0  0  0  0  0  0  0
   -1.6719    0.5074    2.7882 H   0  0  0  0  0  0  0  0  0  0  0  0
   -0.8025   -0.4935    1.6337 H   0  0  0  0  0  0  0  0  0  0  0  0
  1  9  1  0  0  0  0
  1 10  1  0  0  0  0
  2  9  2  0  0  0  0
  3 11  1  0  0  0  0
  3 12  1  0  0  0  0
  4  8  1  0  0  0  0
  4 13  1  0  0  0  0
  4 14  1  0  0  0  0
  5  6  1  0  0  0  0
  5 15  1  0  0  0  0
  5 16  1  0  0  0  0
  6  8  1  0  0  0  0
  6 17  1  0  0  0  0
  6 18  1  0  0  0  0
  7  9  1  0  0  0  0
  7 19  1  1  0  0  0
  7  3  1  0  0  0  0
  7  5  1  0  0  0  0
  8 20  1  0  0  0  0
  8 21  1  0  0  0  0
M  END
>  <Mol_ID>
9382

>  <Formula>
C5H12N2O2

>  <MolWeight>
132.16098

>  <Cat>
S4857

>  <Name>
L-Ornithine

>  <Synonyms>
(S)-2,5-Diaminopentanoic acid

>  <Target>
Others

>  <Form>
Free Base

>  <CAS>
70-26-8

>  <URL>
http://www.selleckchem.com/products/l-ornithine.html

$$$$
