L-Prolylglycine
 OpenBabel08302521453D

 24 24  0  0  1  0  0  0  0  0999 V2000
    0.8548   -0.0529   -0.0108 C   0  0  0  0  0  0  0  0  0  0  0  0
    0.3039    1.2050   -0.1636 N   0  0  0  0  0  0  0  0  0  0  0  0
    0.1817   -1.0731    0.0122 O   0  0  0  0  0  0  0  0  0  0  0  0
   -1.1412    1.4119   -0.1170 C   0  0  0  0  0  0  0  0  0  0  0  0
   -1.7604    1.3974   -1.5123 C   0  0  0  0  0  0  0  0  0  0  0  0
   -0.8536    1.2285   -2.5056 O   0  0  0  0  0  0  0  0  0  0  0  0
   -2.9502    1.5680   -1.7330 O   0  0  0  0  0  0  0  0  0  0  0  0
    2.3882   -0.0441   -0.0080 C   0  0  2  0  0  0  0  0  0  0  0  0
    2.9902   -1.1976    0.7605 C   0  0  0  0  0  0  0  0  0  0  0  0
    2.9128    1.1651    0.6858 N   0  0  0  0  0  0  0  0  0  0  0  0
    4.4006   -0.7124    1.0257 C   0  0  0  0  0  0  0  0  0  0  0  0
    4.2872    0.8059    1.0879 C   0  0  0  0  0  0  0  0  0  0  0  0
    0.9330    1.9919   -0.0113 H   0  0  0  0  0  0  0  0  0  0  0  0
   -1.6111    0.6298    0.4861 H   0  0  0  0  0  0  0  0  0  0  0  0
   -1.3155    2.3948    0.3297 H   0  0  0  0  0  0  0  0  0  0  0  0
    0.0295    1.0857   -2.1053 H   0  0  0  0  0  0  0  0  0  0  0  0
    2.7264   -0.0403   -1.0523 H   0  0  0  0  0  0  0  0  0  0  0  0
    2.4599   -1.3667    1.7063 H   0  0  0  0  0  0  0  0  0  0  0  0
    2.9742   -2.1344    0.1949 H   0  0  0  0  0  0  0  0  0  0  0  0
    2.3808    1.2756    1.5542 H   0  0  0  0  0  0  0  0  0  0  0  0
    4.8102   -1.1404    1.9453 H   0  0  0  0  0  0  0  0  0  0  0  0
    5.0540   -1.0022    0.1940 H   0  0  0  0  0  0  0  0  0  0  0  0
    4.4783    1.1706    2.1032 H   0  0  0  0  0  0  0  0  0  0  0  0
    5.0175    1.2794    0.4233 H   0  0  0  0  0  0  0  0  0  0  0  0
  1  2  1  0  0  0  0
  1  3  2  0  0  0  0
  2  4  1  0  0  0  0
  2 13  1  0  0  0  0
  4  5  1  0  0  0  0
  4 14  1  0  0  0  0
  4 15  1  0  0  0  0
  5  6  1  0  0  0  0
  5  7  2  0  0  0  0
  6 16  1  0  0  0  0
  8  1  1  0  0  0  0
  8  9  1  0  0  0  0
  8 10  1  0  0  0  0
  8 17  1  6  0  0  0
  9 11  1  0  0  0  0
  9 18  1  0  0  0  0
  9 19  1  0  0  0  0
 10 12  1  0  0  0  0
 10 20  1  0  0  0  0
 11 12  1  0  0  0  0
 11 21  1  0  0  0  0
 11 22  1  0  0  0  0
 12 23  1  0  0  0  0
 12 24  1  0  0  0  0
M  END
>  <Mol_ID>
9533

>  <Formula>
C7H12N2O3

>  <MolWeight>
172.18178

>  <Cat>
E4509

>  <Name>
L-Prolylglycine

>  <Target>
Others

>  <Form>
Free base

>  <CAS>
2578-57-6

>  <URL>
https://www.selleckchem.com/products/l-prolylglycine.html

$$$$
