L-Pyroglutamic acid
 OpenBabel08302520383D

 16 16  0  0  0  0  0  0  0  0999 V2000
   -1.5163   -0.7821    0.0286 C   0  0  1  0  0  0  0  0  0  0  0  0
   -0.1183   -1.1459   -0.0992 N   0  0  0  0  0  0  0  0  0  0  0  0
   -1.5182    0.6995   -0.3158 C   0  0  0  0  0  0  0  0  0  0  0  0
   -2.4350   -1.5703   -0.9029 C   0  0  0  0  0  0  0  0  0  0  0  0
    0.6955   -0.0457    0.1076 C   0  0  0  0  0  0  0  0  0  0  0  0
   -0.1615    1.1914    0.1719 C   0  0  0  0  0  0  0  0  0  0  0  0
   -1.7648   -2.4087   -1.7298 O   0  0  0  0  0  0  0  0  0  0  0  0
   -3.6497   -1.4493   -0.9286 O   0  0  0  0  0  0  0  0  0  0  0  0
    1.8973   -0.1080    0.2837 O   0  0  0  0  0  0  0  0  0  0  0  0
   -1.8067   -0.9711    1.0674 H   0  0  0  0  0  0  0  0  0  0  0  0
    0.2736   -2.0359    0.1961 H   0  0  0  0  0  0  0  0  0  0  0  0
   -2.3494    1.2371    0.1512 H   0  0  0  0  0  0  0  0  0  0  0  0
   -1.5974    0.8525   -1.4000 H   0  0  0  0  0  0  0  0  0  0  0  0
   -0.2134    1.5263    1.2124 H   0  0  0  0  0  0  0  0  0  0  0  0
    0.2389    1.9853   -0.4628 H   0  0  0  0  0  0  0  0  0  0  0  0
   -0.7976   -2.2953   -1.6185 H   0  0  0  0  0  0  0  0  0  0  0  0
  1  2  1  0  0  0  0
  1  3  1  0  0  0  0
  1 10  1  1  0  0  0
  1  4  1  0  0  0  0
  2  5  1  0  0  0  0
  2 11  1  0  0  0  0
  3  6  1  0  0  0  0
  3 12  1  0  0  0  0
  3 13  1  0  0  0  0
  4  7  1  0  0  0  0
  4  8  2  0  0  0  0
  5  9  2  0  0  0  0
  5  6  1  0  0  0  0
  6 14  1  0  0  0  0
  6 15  1  0  0  0  0
  7 16  1  0  0  0  0
M  END
>  <Mol_ID>
3447

>  <Formula>
C5H7NO3

>  <MolWeight>
129.11398

>  <Cat>
S5823

>  <Name>
L-Pyroglutamic acid

>  <Synonyms>
L-pyroglutamate, 5-Oxoproline, pidolic acid

>  <Target>
Others

>  <Form>
Free Base

>  <CAS>
98-79-3

>  <URL>
http://www.selleckchem.com/products/l-pyroglutamic-acid.html

$$$$
