L-Sophoridine
 OpenBabel08302521373D

 42 45  0  0  1  0  0  0  0  0999 V2000
    1.5301    0.0298    0.5190 O   0  0  0  0  0  0  0  0  0  0  0  0
    4.8682    2.0709   -2.7907 C   0  0  3  0  0  0  0  0  0  0  0  0
    4.9646    0.5043   -2.8920 C   0  0  3  0  0  0  0  0  0  0  0  0
    4.1352    2.5265   -1.5061 C   0  0  3  0  0  0  0  0  0  0  0  0
    4.3405    2.7038   -4.0073 N   0  0  3  0  0  0  0  0  0  0  0  0
    3.9025   -0.3551   -2.1245 C   0  0  3  0  0  0  0  0  0  0  0  0
    4.9789   -0.0350   -4.3423 C   0  0  0  0  0  0  0  0  0  0  0  0
    2.9366    1.6557   -1.1493 C   0  0  0  0  0  0  0  0  0  0  0  0
    3.6268    3.9757   -1.4795 C   0  0  0  0  0  0  0  0  0  0  0  0
    5.1325    2.3592   -5.2076 C   0  0  0  0  0  0  0  0  0  0  0  0
    4.3454    4.1804   -3.9431 C   0  0  0  0  0  0  0  0  0  0  0  0
    3.3099    0.2754   -0.9583 N   0  0  0  0  0  0  0  0  0  0  0  0
    4.4846   -1.7316   -1.7621 C   0  0  0  0  0  0  0  0  0  0  0  0
    5.4863    0.8985   -5.4152 C   0  0  0  0  0  0  0  0  0  0  0  0
    4.0238    4.8684   -2.6274 C   0  0  0  0  0  0  0  0  0  0  0  0
    2.4582   -0.4689   -0.1271 C   0  0  0  0  0  0  0  0  0  0  0  0
    3.3892   -2.5956   -1.1613 C   0  0  0  0  0  0  0  0  0  0  0  0
    2.8204   -1.9257    0.0746 C   0  0  0  0  0  0  0  0  0  0  0  0
    5.9076    2.4276   -2.6852 H   0  0  0  0  0  0  0  0  0  0  0  0
    5.9477    0.2643   -2.4545 H   0  0  0  0  0  0  0  0  0  0  0  0
    4.8635    2.4236   -0.6868 H   0  0  0  0  0  0  0  0  0  0  0  0
    3.0454   -0.5245   -2.7922 H   0  0  0  0  0  0  0  0  0  0  0  0
    5.5644   -0.9618   -4.3881 H   0  0  0  0  0  0  0  0  0  0  0  0
    3.9611   -0.3191   -4.6414 H   0  0  0  0  0  0  0  0  0  0  0  0
    2.1605    1.6940   -1.9267 H   0  0  0  0  0  0  0  0  0  0  0  0
    2.4843    2.0342   -0.2255 H   0  0  0  0  0  0  0  0  0  0  0  0
    2.5290    3.9906   -1.4329 H   0  0  0  0  0  0  0  0  0  0  0  0
    3.9422    4.4460   -0.5380 H   0  0  0  0  0  0  0  0  0  0  0  0
    4.5830    2.7095   -6.0914 H   0  0  0  0  0  0  0  0  0  0  0  0
    6.0876    2.9056   -5.2157 H   0  0  0  0  0  0  0  0  0  0  0  0
    3.6447    4.5443   -4.7048 H   0  0  0  0  0  0  0  0  0  0  0  0
    5.3271    4.5797   -4.2400 H   0  0  0  0  0  0  0  0  0  0  0  0
    4.8943   -2.2383   -2.6417 H   0  0  0  0  0  0  0  0  0  0  0  0
    5.3023   -1.6178   -1.0385 H   0  0  0  0  0  0  0  0  0  0  0  0
    6.5738    0.7948   -5.5054 H   0  0  0  0  0  0  0  0  0  0  0  0
    5.0751    0.5687   -6.3799 H   0  0  0  0  0  0  0  0  0  0  0  0
    4.8846    5.4751   -2.3192 H   0  0  0  0  0  0  0  0  0  0  0  0
    3.2103    5.5872   -2.7990 H   0  0  0  0  0  0  0  0  0  0  0  0
    2.5945   -2.7503   -1.9011 H   0  0  0  0  0  0  0  0  0  0  0  0
    3.7859   -3.5828   -0.9016 H   0  0  0  0  0  0  0  0  0  0  0  0
    1.9224   -2.4662    0.3935 H   0  0  0  0  0  0  0  0  0  0  0  0
    3.5439   -1.9699    0.8969 H   0  0  0  0  0  0  0  0  0  0  0  0
  1 16  2  0  0  0  0
  2  3  1  0  0  0  0
  2  4  1  0  0  0  0
  2  5  1  0  0  0  0
  2 19  1  0  0  0  0
  3  6  1  0  0  0  0
  3  7  1  0  0  0  0
  3 20  1  0  0  0  0
  4  8  1  0  0  0  0
  4  9  1  0  0  0  0
  4 21  1  0  0  0  0
  5 10  1  0  0  0  0
  5 11  1  0  0  0  0
  6 12  1  0  0  0  0
  6 13  1  0  0  0  0
  6 22  1  0  0  0  0
  7 14  1  0  0  0  0
  7 23  1  0  0  0  0
  7 24  1  0  0  0  0
  8 12  1  0  0  0  0
  8 25  1  0  0  0  0
  8 26  1  0  0  0  0
  9 15  1  0  0  0  0
  9 27  1  0  0  0  0
  9 28  1  0  0  0  0
 10 14  1  0  0  0  0
 10 29  1  0  0  0  0
 10 30  1  0  0  0  0
 11 15  1  0  0  0  0
 11 31  1  0  0  0  0
 11 32  1  0  0  0  0
 12 16  1  0  0  0  0
 13 17  1  0  0  0  0
 13 33  1  0  0  0  0
 13 34  1  0  0  0  0
 14 35  1  0  0  0  0
 14 36  1  0  0  0  0
 15 37  1  0  0  0  0
 15 38  1  0  0  0  0
 16 18  1  0  0  0  0
 17 18  1  0  0  0  0
 17 39  1  0  0  0  0
 17 40  1  0  0  0  0
 18 41  1  0  0  0  0
 18 42  1  0  0  0  0
M  END
>  <Mol_ID>
7417

>  <Formula>
C15H24N2O

>  <MolWeight>
248.36386

>  <Cat>
E4516

>  <Name>
L-Sophoridine

>  <Synonyms>
L-Sophoridine

>  <Target>
Others

>  <Form>
free base

>  <CAS>
83148-91-8

>  <URL>
https://www.selleckchem.com/products/l-sophoridine.html

$$$$
