L-Threonine
 OpenBabel08302521383D

 17 16  0  0  0  0  0  0  0  0999 V2000
    0.9698   -0.2058    0.0113 C   0  0  0  0  0  0  0  0  0  0  0  0
   -0.6346    0.1223   -1.8131 N   0  0  0  0  0  0  0  0  0  0  0  0
    0.2452    0.8443   -0.8337 C   0  0  1  0  0  0  0  0  0  0  0  0
   -0.6156    1.7646    0.0527 C   0  0  1  0  0  0  0  0  0  0  0  0
    0.1779    2.5540    1.0860 C   0  0  0  0  0  0  0  0  0  0  0  0
   -1.3179    2.6889   -0.7956 O   0  0  0  0  0  0  0  0  0  0  0  0
    2.0043   -0.0221    0.6280 O   0  0  0  0  0  0  0  0  0  0  0  0
    0.2933   -1.3850    0.0138 O   0  0  0  0  0  0  0  0  0  0  0  0
   -1.2732    0.8315   -2.1988 H   0  0  0  0  0  0  0  0  0  0  0  0
   -0.0555   -0.1713   -2.6048 H   0  0  0  0  0  0  0  0  0  0  0  0
    0.9779    1.4195   -1.4132 H   0  0  0  0  0  0  0  0  0  0  0  0
   -1.3759    1.1733    0.5769 H   0  0  0  0  0  0  0  0  0  0  0  0
    0.9384    3.1826    0.6057 H   0  0  0  0  0  0  0  0  0  0  0  0
   -0.4856    3.2282    1.6374 H   0  0  0  0  0  0  0  0  0  0  0  0
    0.6698    1.8996    1.8113 H   0  0  0  0  0  0  0  0  0  0  0  0
   -0.6951    3.3869   -1.0649 H   0  0  0  0  0  0  0  0  0  0  0  0
   -0.4703   -1.2631   -0.6058 H   0  0  0  0  0  0  0  0  0  0  0  0
  1  3  1  0  0  0  0
  1  7  2  0  0  0  0
  1  8  1  0  0  0  0
  2  9  1  0  0  0  0
  2 10  1  0  0  0  0
  3  2  1  0  0  0  0
  3  4  1  0  0  0  0
  3 11  1  6  0  0  0
  4  5  1  0  0  0  0
  4  6  1  0  0  0  0
  4 12  1  1  0  0  0
  5 13  1  0  0  0  0
  5 14  1  0  0  0  0
  5 15  1  0  0  0  0
  6 16  1  0  0  0  0
  8 17  1  0  0  0  0
M  END
>  <Mol_ID>
7880

>  <Formula>
C4H9NO3

>  <MolWeight>
119.11916

>  <Cat>
S4951

>  <Name>
L-Threonine

>  <Synonyms>
N/A

>  <Target>
Others

>  <Form>
Free Base

>  <CAS>
72-19-5

>  <URL>
http://www.selleckchem.com/products/l-threonine.html

$$$$
