L-Tryptophanamide Hydrochloride
 OpenBabel08302520393D

 28 29  0  0  0  0  0  0  0  0999 V2000
   -0.2427   -0.7178   -0.0588 C   0  0  0  0  0  0  0  0  0  0  0  0
   -1.6222   -1.1140   -0.1076 C   0  0  0  0  0  0  0  0  0  0  0  0
   -0.2021    0.6760   -0.0930 C   0  0  0  0  0  0  0  0  0  0  0  0
    0.9806   -1.4172    0.0150 C   0  0  0  0  0  0  0  0  0  0  0  0
   -2.1454   -2.5240   -0.0756 C   0  0  0  0  0  0  0  0  0  0  0  0
   -2.3620    0.0512   -0.1600 C   0  0  0  0  0  0  0  0  0  0  0  0
   -1.4998    1.1166   -0.1637 N   0  0  0  0  0  0  0  0  0  0  0  0
    0.9912    1.4068   -0.0555 C   0  0  0  0  0  0  0  0  0  0  0  0
    2.1850   -0.7032    0.0505 C   0  0  0  0  0  0  0  0  0  0  0  0
   -3.4901   -2.7425   -0.7876 C   0  0  1  0  0  0  0  0  0  0  0  0
    2.1880    0.6885    0.0165 C   0  0  0  0  0  0  0  0  0  0  0  0
   -3.4173   -2.4111   -2.2916 C   0  0  0  0  0  0  0  0  0  0  0  0
   -3.9549   -4.1451   -0.6200 N   0  0  0  0  0  0  0  0  0  0  0  0
   -2.6114   -3.2074   -3.0558 N   0  0  0  0  0  0  0  0  0  0  0  0
   -4.0779   -1.5191   -2.8171 O   0  0  0  0  0  0  0  0  0  0  0  0
    0.9952   -2.5022    0.0486 H   0  0  0  0  0  0  0  0  0  0  0  0
   -1.3873   -3.1928   -0.5030 H   0  0  0  0  0  0  0  0  0  0  0  0
   -2.2503   -2.8098    0.9802 H   0  0  0  0  0  0  0  0  0  0  0  0
   -3.4306    0.2223   -0.2089 H   0  0  0  0  0  0  0  0  0  0  0  0
   -1.7776    2.0871   -0.2083 H   0  0  0  0  0  0  0  0  0  0  0  0
    0.9942    2.4917   -0.0807 H   0  0  0  0  0  0  0  0  0  0  0  0
    3.1279   -1.2430    0.1064 H   0  0  0  0  0  0  0  0  0  0  0  0
   -4.2573   -2.0956   -0.3467 H   0  0  0  0  0  0  0  0  0  0  0  0
    3.1323    1.2272    0.0469 H   0  0  0  0  0  0  0  0  0  0  0  0
   -4.8222   -4.2537   -1.1495 H   0  0  0  0  0  0  0  0  0  0  0  0
   -3.2855   -4.7858   -1.0376 H   0  0  0  0  0  0  0  0  0  0  0  0
   -2.5583   -2.9987   -4.0445 H   0  0  0  0  0  0  0  0  0  0  0  0
   -2.0950   -3.9937   -2.6941 H   0  0  0  0  0  0  0  0  0  0  0  0
  1  2  1  0  0  0  0
  1  3  2  0  0  0  0
  1  4  1  0  0  0  0
  2  5  1  0  0  0  0
  2  6  2  0  0  0  0
  3  7  1  0  0  0  0
  3  8  1  0  0  0  0
  4  9  2  0  0  0  0
  4 16  1  0  0  0  0
  5 10  1  0  0  0  0
  5 17  1  0  0  0  0
  5 18  1  0  0  0  0
  6  7  1  0  0  0  0
  6 19  1  0  0  0  0
  7 20  1  0  0  0  0
  8 11  2  0  0  0  0
  8 21  1  0  0  0  0
  9 11  1  0  0  0  0
  9 22  1  0  0  0  0
 10 12  1  0  0  0  0
 10 13  1  0  0  0  0
 10 23  1  1  0  0  0
 11 24  1  0  0  0  0
 12 14  1  0  0  0  0
 12 15  2  0  0  0  0
 13 25  1  0  0  0  0
 13 26  1  0  0  0  0
 14 27  1  0  0  0  0
 14 28  1  0  0  0  0
M  END
>  <Mol_ID>
3594

>  <Formula>
C11H14ClN3O

>  <MolWeight>
239.70136

>  <Cat>
S6155

>  <Name>
L-Tryptophanamide Hydrochloride

>  <Synonyms>
H-Trp-NH2 HCl

>  <Target>
Others

>  <Form>
hydrochloride

>  <CAS>
5022-65-1

>  <URL>
http://www.selleck.cn/products/l-tryptophanamide-hydrochloride.html

$$$$
