L-Uridine
 OpenBabel08302521373D

 29 30  0  0  1  0  0  0  0  0999 V2000
   -0.6967   -1.4013    0.8312 O   0  0  0  0  0  0  0  0  0  0  0  0
    3.8287   -1.8027   -0.8355 O   0  0  0  0  0  0  0  0  0  0  0  0
    0.7865    2.7317   -0.0809 C   0  0  0  0  0  0  0  0  0  0  0  0
    1.1991    2.7825   -1.4483 O   0  0  0  0  0  0  0  0  0  0  0  0
   -1.8908    0.8697    0.2202 O   0  0  0  0  0  0  0  0  0  0  0  0
    3.7396   -1.5302   -5.3453 O   0  0  0  0  0  0  0  0  0  0  0  0
    1.2907   -0.7722   -0.5103 C   0  0  1  0  0  0  0  0  0  0  0  0
    1.6957    0.5070    0.0221 O   0  0  0  0  0  0  0  0  0  0  0  0
   -0.2459   -0.8233   -0.4165 C   0  0  2  0  0  0  0  0  0  0  0  0
    0.5207    1.2867    0.3285 C   0  0  2  0  0  0  0  0  0  0  0  0
   -0.6400    0.6454   -0.4217 C   0  0  2  0  0  0  0  0  0  0  0  0
    1.9137   -0.9315   -1.8250 N   0  0  0  0  0  0  0  0  0  0  0  0
    3.2153   -1.4372   -1.8369 C   0  0  0  0  0  0  0  0  0  0  0  0
    1.2929   -0.5467   -2.9999 C   0  0  0  0  0  0  0  0  0  0  0  0
    3.8061   -1.5397   -3.0690 N   0  0  0  0  0  0  0  0  0  0  0  0
    1.8676   -0.7019   -4.1947 C   0  0  0  0  0  0  0  0  0  0  0  0
    3.2121   -1.2868   -4.2687 C   0  0  0  0  0  0  0  0  0  0  0  0
   -0.0577   -1.1685    1.5319 H   0  0  0  0  0  0  0  0  0  0  0  0
   -0.1022    3.3564    0.0448 H   0  0  0  0  0  0  0  0  0  0  0  0
    1.6009    3.1535    0.5176 H   0  0  0  0  0  0  0  0  0  0  0  0
    2.0064    2.2338   -1.4949 H   0  0  0  0  0  0  0  0  0  0  0  0
   -2.0967    0.0530    0.7204 H   0  0  0  0  0  0  0  0  0  0  0  0
    1.7053   -1.5321    0.1611 H   0  0  0  0  0  0  0  0  0  0  0  0
   -0.7261   -1.4045   -1.2078 H   0  0  0  0  0  0  0  0  0  0  0  0
    0.3517    1.2463    1.4115 H   0  0  0  0  0  0  0  0  0  0  0  0
   -0.7105    1.0292   -1.4431 H   0  0  0  0  0  0  0  0  0  0  0  0
    0.3001   -0.1173   -2.9500 H   0  0  0  0  0  0  0  0  0  0  0  0
    4.7313   -1.9391   -3.0910 H   0  0  0  0  0  0  0  0  0  0  0  0
    1.3884   -0.4257   -5.1253 H   0  0  0  0  0  0  0  0  0  0  0  0
  1 18  1  0  0  0  0
  2 13  2  0  0  0  0
  3  4  1  0  0  0  0
  3 19  1  0  0  0  0
  3 20  1  0  0  0  0
  4 21  1  0  0  0  0
  5 22  1  0  0  0  0
  6 17  2  0  0  0  0
  7  8  1  0  0  0  0
  7  9  1  0  0  0  0
  7 23  1  1  0  0  0
  7 12  1  0  0  0  0
  8 10  1  0  0  0  0
  9  1  1  0  0  0  0
  9 11  1  0  0  0  0
  9 24  1  6  0  0  0
 10 11  1  0  0  0  0
 10 25  1  1  0  0  0
 10  3  1  0  0  0  0
 11  5  1  0  0  0  0
 11 26  1  6  0  0  0
 12 13  1  0  0  0  0
 12 14  1  0  0  0  0
 13 15  1  0  0  0  0
 14 16  2  0  0  0  0
 14 27  1  0  0  0  0
 15 17  1  0  0  0  0
 15 28  1  0  0  0  0
 16 17  1  0  0  0  0
 16 29  1  0  0  0  0
M  END
>  <Mol_ID>
7425

>  <Formula>
C9H12N2O6

>  <MolWeight>
244.20138

>  <Cat>
E4525

>  <Name>
L-Uridine

>  <Target>
Others

>  <Form>
Free base

>  <CAS>
26287-69-4

>  <URL>
https://www.selleckchem.com/products/l-uridine.html

$$$$
