L-Xylose
 OpenBabel08302520383D

 20 19  0  0  0  0  0  0  0  0999 V2000
    1.0154    0.0174    2.4386 C   0  0  2  0  0  0  0  0  0  0  0  0
    0.3159   -0.5348    1.1832 C   0  0  2  0  0  0  0  0  0  0  0  0
    1.5201    1.4658    2.2549 C   0  0  1  0  0  0  0  0  0  0  0  0
    2.1135   -0.8556    2.7584 O   0  0  0  0  0  0  0  0  0  0  0  0
   -0.2625   -1.9446    1.3908 C   0  0  0  0  0  0  0  0  0  0  0  0
    1.2396   -0.5437    0.0815 O   0  0  0  0  0  0  0  0  0  0  0  0
    0.3756    2.3892    1.8774 C   0  0  0  0  0  0  0  0  0  0  0  0
    2.1037    1.9502    3.4708 O   0  0  0  0  0  0  0  0  0  0  0  0
   -0.9074   -2.3997    0.1983 O   0  0  0  0  0  0  0  0  0  0  0  0
   -0.3094    2.9709    2.7108 O   0  0  0  0  0  0  0  0  0  0  0  0
    0.3303   -0.0237    3.2936 H   0  0  0  0  0  0  0  0  0  0  0  0
   -0.5034    0.1235    0.8806 H   0  0  0  0  0  0  0  0  0  0  0  0
    2.2989    1.5316    1.4895 H   0  0  0  0  0  0  0  0  0  0  0  0
    2.8211   -0.6808    2.1112 H   0  0  0  0  0  0  0  0  0  0  0  0
    0.5218   -2.6703    1.6219 H   0  0  0  0  0  0  0  0  0  0  0  0
   -0.9997   -1.9482    2.1984 H   0  0  0  0  0  0  0  0  0  0  0  0
    1.4914   -1.4721   -0.0873 H   0  0  0  0  0  0  0  0  0  0  0  0
    0.1660    2.4769    0.7966 H   0  0  0  0  0  0  0  0  0  0  0  0
    1.3768    2.3321    4.0019 H   0  0  0  0  0  0  0  0  0  0  0  0
   -0.7892   -1.7341   -0.5034 H   0  0  0  0  0  0  0  0  0  0  0  0
  1  3  1  0  0  0  0
  1  4  1  0  0  0  0
  1 11  1  1  0  0  0
  2  6  1  0  0  0  0
  2 12  1  6  0  0  0
  2  5  1  0  0  0  0
  2  1  1  0  0  0  0
  3  7  1  0  0  0  0
  3  8  1  0  0  0  0
  3 13  1  6  0  0  0
  4 14  1  0  0  0  0
  5  9  1  0  0  0  0
  5 15  1  0  0  0  0
  5 16  1  0  0  0  0
  6 17  1  0  0  0  0
  7 10  2  0  0  0  0
  7 18  1  0  0  0  0
  8 19  1  0  0  0  0
  9 20  1  0  0  0  0
M  END
>  <Mol_ID>
3453

>  <Formula>
C5H10O5

>  <MolWeight>
150.1299

>  <Cat>
S5830

>  <Name>
L-Xylose

>  <Synonyms>
N/A

>  <Target>
Others

>  <Form>
Free Base

>  <CAS>
609-06-3

>  <URL>
http://www.selleckchem.com/products/l-xylose.html

$$$$
