L 189
 OpenBabel08302521243D

 27 28  0  0  0  0  0  0  0  0999 V2000
   -0.7483    1.1658    0.0978 C   0  0  0  0  0  0  0  0  0  0  0  0
   -1.1383    0.1417   -0.7062 N   0  0  0  0  0  0  0  0  0  0  0  0
   -0.4956   -1.0657   -0.7990 C   0  0  0  0  0  0  0  0  0  0  0  0
    0.7037   -1.2644    0.1035 C   0  0  0  0  0  0  0  0  0  0  0  0
    1.0589   -0.2199    0.8949 C   0  0  0  0  0  0  0  0  0  0  0  0
    0.3458    0.9461    0.8716 N   0  0  0  0  0  0  0  0  0  0  0  0
   -0.9008   -1.9250   -1.5797 O   0  0  0  0  0  0  0  0  0  0  0  0
   -1.5666    2.6116    0.1332 S   0  0  0  0  0  0  0  0  0  0  0  0
    1.4907   -2.4076    0.0762 N   0  0  0  0  0  0  0  0  0  0  0  0
    0.8828   -3.5504    0.0063 C   0  0  0  0  0  0  0  0  0  0  0  0
    1.6348   -4.8260   -0.0016 C   0  0  0  0  0  0  0  0  0  0  0  0
    3.0216   -4.8413    0.1731 C   0  0  0  0  0  0  0  0  0  0  0  0
    3.7062   -6.0580    0.1979 C   0  0  0  0  0  0  0  0  0  0  0  0
    3.0067   -7.2552    0.0416 C   0  0  0  0  0  0  0  0  0  0  0  0
    1.6237   -7.2399   -0.1419 C   0  0  0  0  0  0  0  0  0  0  0  0
    0.9340   -6.0252   -0.1625 C   0  0  0  0  0  0  0  0  0  0  0  0
    2.1510   -0.2808    1.7406 N   0  0  0  0  0  0  0  0  0  0  0  0
   -1.9457    0.2704   -1.2984 H   0  0  0  0  0  0  0  0  0  0  0  0
    0.6326    1.6883    1.4971 H   0  0  0  0  0  0  0  0  0  0  0  0
   -0.2178   -3.6456   -0.0314 H   0  0  0  0  0  0  0  0  0  0  0  0
    3.5722   -3.9131    0.2962 H   0  0  0  0  0  0  0  0  0  0  0  0
    4.7833   -6.0713    0.3403 H   0  0  0  0  0  0  0  0  0  0  0  0
    3.5421   -8.2020    0.0621 H   0  0  0  0  0  0  0  0  0  0  0  0
    1.0829   -8.1750   -0.2690 H   0  0  0  0  0  0  0  0  0  0  0  0
   -0.1429   -6.0269   -0.3079 H   0  0  0  0  0  0  0  0  0  0  0  0
    2.7009    0.5702    1.7239 H   0  0  0  0  0  0  0  0  0  0  0  0
    2.7181   -1.0983    1.4985 H   0  0  0  0  0  0  0  0  0  0  0  0
  1  2  1  0  0  0  0
  1  6  1  0  0  0  0
  1  8  2  0  0  0  0
  2  3  1  0  0  0  0
  2 18  1  0  0  0  0
  3  4  1  0  0  0  0
  3  7  2  0  0  0  0
  4  5  2  0  0  0  0
  4  9  1  0  0  0  0
  5  6  1  0  0  0  0
  5 17  1  0  0  0  0
  6 19  1  0  0  0  0
  9 10  2  0  0  0  0
 10 11  1  0  0  0  0
 10 20  1  0  0  0  0
 11 12  2  0  0  0  0
 11 16  1  0  0  0  0
 12 13  1  0  0  0  0
 12 21  1  0  0  0  0
 13 14  2  0  0  0  0
 13 22  1  0  0  0  0
 14 15  1  0  0  0  0
 14 23  1  0  0  0  0
 15 16  2  0  0  0  0
 15 24  1  0  0  0  0
 16 25  1  0  0  0  0
 17 26  1  0  0  0  0
 17 27  1  0  0  0  0
M  END
>  <Mol_ID>
4962

>  <Formula>
C11H10N4OS

>  <MolWeight>
246.2883

>  <Cat>
S0102

>  <Name>
L 189

>  <Synonyms>
N/A

>  <Target>
CRISPR/Cas9,DNA/RNA Synthesis

>  <Form>
Free Base

>  <CAS>
64232-83-3

>  <URL>
http://www.selleckchem.com/products/l-189.html

$$$$
