Labetalol hydrochloride.cdx
 OpenBabel08302522063D

 48 49  0  0  0  0  0  0  0  0999 V2000
   -3.5196   -3.7447    0.4348 C   0  0  0  0  0  0  0  0  0  0  0  0
   -4.1775   -4.1714   -0.7286 C   0  0  0  0  0  0  0  0  0  0  0  0
   -4.5798   -3.2556   -1.6990 C   0  0  0  0  0  0  0  0  0  0  0  0
   -4.3267   -1.8948   -1.5244 C   0  0  0  0  0  0  0  0  0  0  0  0
   -3.6584   -1.4365   -0.3816 C   0  0  0  0  0  0  0  0  0  0  0  0
   -3.2562   -2.3752    0.5907 C   0  0  0  0  0  0  0  0  0  0  0  0
   -3.3392    0.0351   -0.2202 C   0  0  3  0  0  0  0  0  0  0  0  0
   -3.9761    0.6664    1.0498 C   0  0  0  0  0  0  0  0  0  0  0  0
   -1.9102    0.1559   -0.1919 O   0  0  0  0  0  0  0  0  0  0  0  0
   -3.5629    2.0654    1.1859 N   0  0  0  0  0  0  0  0  0  0  0  0
   -4.0868    2.7754    2.3597 C   0  0  3  0  0  0  0  0  0  0  0  0
   -3.5312    2.2154    3.6862 C   0  0  0  0  0  0  0  0  0  0  0  0
   -4.0631    2.9061    4.9521 C   0  0  0  0  0  0  0  0  0  0  0  0
   -3.5499    2.2085    6.1940 C   0  0  0  0  0  0  0  0  0  0  0  0
   -4.4603   -5.4858   -0.9944 O   0  0  0  0  0  0  0  0  0  0  0  0
   -3.1211   -4.7461    1.4635 C   0  0  0  0  0  0  0  0  0  0  0  0
   -2.5545   -4.3276    2.6310 N   0  0  0  0  0  0  0  0  0  0  0  0
   -3.3179   -5.9414    1.2713 O   0  0  0  0  0  0  0  0  0  0  0  0
   -3.7087    4.2447    2.1389 C   0  0  0  0  0  0  0  0  0  0  0  0
   -2.3130    2.5657    6.7484 C   0  0  0  0  0  0  0  0  0  0  0  0
   -1.7924    1.8633    7.8384 C   0  0  0  0  0  0  0  0  0  0  0  0
   -2.5037    0.7998    8.3887 C   0  0  0  0  0  0  0  0  0  0  0  0
   -3.7453    0.4484    7.8624 C   0  0  0  0  0  0  0  0  0  0  0  0
   -4.2669    1.1483    6.7699 C   0  0  0  0  0  0  0  0  0  0  0  0
   -5.0826   -3.6068   -2.5968 H   0  0  0  0  0  0  0  0  0  0  0  0
   -4.6399   -1.1978   -2.3000 H   0  0  0  0  0  0  0  0  0  0  0  0
   -2.7114   -2.0126    1.4540 H   0  0  0  0  0  0  0  0  0  0  0  0
   -3.6824    0.5893   -1.1026 H   0  0  0  0  0  0  0  0  0  0  0  0
   -5.0680    0.5943    0.9891 H   0  0  0  0  0  0  0  0  0  0  0  0
   -3.6462    0.1016    1.9263 H   0  0  0  0  0  0  0  0  0  0  0  0
   -1.6320    0.1520    0.7368 H   0  0  0  0  0  0  0  0  0  0  0  0
   -2.5486    2.1532    1.1193 H   0  0  0  0  0  0  0  0  0  0  0  0
   -5.1813    2.7055    2.3633 H   0  0  0  0  0  0  0  0  0  0  0  0
   -3.7914    1.1528    3.7627 H   0  0  0  0  0  0  0  0  0  0  0  0
   -2.4337    2.2632    3.6769 H   0  0  0  0  0  0  0  0  0  0  0  0
   -3.7579    3.9581    4.9835 H   0  0  0  0  0  0  0  0  0  0  0  0
   -5.1603    2.9012    4.9573 H   0  0  0  0  0  0  0  0  0  0  0  0
   -4.1044   -6.0277   -0.2537 H   0  0  0  0  0  0  0  0  0  0  0  0
   -2.3291   -5.0445    3.3140 H   0  0  0  0  0  0  0  0  0  0  0  0
   -2.3935   -3.3669    2.9028 H   0  0  0  0  0  0  0  0  0  0  0  0
   -4.1059    4.6055    1.1820 H   0  0  0  0  0  0  0  0  0  0  0  0
   -4.1185    4.8926    2.9190 H   0  0  0  0  0  0  0  0  0  0  0  0
   -2.6210    4.3814    2.1170 H   0  0  0  0  0  0  0  0  0  0  0  0
   -1.7416    3.3902    6.3290 H   0  0  0  0  0  0  0  0  0  0  0  0
   -0.8281    2.1439    8.2539 H   0  0  0  0  0  0  0  0  0  0  0  0
   -2.0918    0.2465    9.2290 H   0  0  0  0  0  0  0  0  0  0  0  0
   -4.3050   -0.3740    8.2990 H   0  0  0  0  0  0  0  0  0  0  0  0
   -5.2340    0.8548    6.3685 H   0  0  0  0  0  0  0  0  0  0  0  0
  1  2  2  0  0  0  0
  1 16  1  0  0  0  0
  2  3  1  0  0  0  0
  2 15  1  0  0  0  0
  3  4  2  0  0  0  0
  3 25  1  0  0  0  0
  4  5  1  0  0  0  0
  4 26  1  0  0  0  0
  5  6  2  0  0  0  0
  5  7  1  0  0  0  0
  6  1  1  0  0  0  0
  6 27  1  0  0  0  0
  7  8  1  0  0  0  0
  7  9  1  0  0  0  0
  7 28  1  0  0  0  0
  8 10  1  0  0  0  0
  8 29  1  0  0  0  0
  8 30  1  0  0  0  0
  9 31  1  0  0  0  0
 10 11  1  0  0  0  0
 10 32  1  0  0  0  0
 11 12  1  0  0  0  0
 11 19  1  0  0  0  0
 11 33  1  0  0  0  0
 12 13  1  0  0  0  0
 12 34  1  0  0  0  0
 12 35  1  0  0  0  0
 13 14  1  0  0  0  0
 13 36  1  0  0  0  0
 13 37  1  0  0  0  0
 14 20  2  0  0  0  0
 15 38  1  0  0  0  0
 16 17  1  0  0  0  0
 16 18  2  0  0  0  0
 17 39  1  0  0  0  0
 17 40  1  0  0  0  0
 19 41  1  0  0  0  0
 19 42  1  0  0  0  0
 19 43  1  0  0  0  0
 20 21  1  0  0  0  0
 20 44  1  0  0  0  0
 21 22  2  0  0  0  0
 21 45  1  0  0  0  0
 22 23  1  0  0  0  0
 22 46  1  0  0  0  0
 23 24  2  0  0  0  0
 23 47  1  0  0  0  0
 24 14  1  0  0  0  0
 24 48  1  0  0  0  0
M  END
>  <Mol_ID>
1434

>  <Formula>
C19H25ClN2O3

>  <MolWeight>
364.8664

>  <Cat>
S4291

>  <Name>
Labetalol HCl

>  <Synonyms>
AH-5158 hydrochloride,Labetalol hydrochloride,Sch-15719W

>  <Target>
Adrenergic Receptor

>  <Form>
Hydrochloride

>  <CAS>
32780-64-6

>  <URL>
http://selleckchem.com/products/labetalol-hcl.html

$$$$
