Lac-Phe
 OpenBabel08302521373D

 32 32  0  0  1  0  0  0  0  0999 V2000
   -2.3601    0.3975    4.7637 C   0  0  0  0  0  0  0  0  0  0  0  0
   -3.4529    1.2618    4.1255 C   0  0  2  0  0  0  0  0  0  0  0  0
   -3.3521    1.5664    2.6908 N   0  0  0  0  0  0  0  0  0  0  0  0
   -3.6493    2.5820    4.8998 C   0  0  0  0  0  0  0  0  0  0  0  0
   -2.3772    2.3897    2.1554 C   0  0  0  0  0  0  0  0  0  0  0  0
   -4.4511    3.4520    4.2238 O   0  0  0  0  0  0  0  0  0  0  0  0
   -3.2738    2.8027    6.0430 O   0  0  0  0  0  0  0  0  0  0  0  0
   -2.6332    2.7096    0.6636 C   0  0  2  0  0  0  0  0  0  0  0  0
   -1.4638    2.8694    2.8192 O   0  0  0  0  0  0  0  0  0  0  0  0
   -1.8053    3.8640    0.1177 C   0  0  0  0  0  0  0  0  0  0  0  0
   -4.0233    3.0097    0.4950 O   0  0  0  0  0  0  0  0  0  0  0  0
   -2.2357   -1.0304    4.2712 C   0  0  0  0  0  0  0  0  0  0  0  0
   -0.9634   -1.5360    3.9624 C   0  0  0  0  0  0  0  0  0  0  0  0
   -3.3269   -1.9133    4.2590 C   0  0  0  0  0  0  0  0  0  0  0  0
   -0.7847   -2.8876    3.6544 C   0  0  0  0  0  0  0  0  0  0  0  0
   -3.1467   -3.2636    3.9454 C   0  0  0  0  0  0  0  0  0  0  0  0
   -1.8750   -3.7518    3.6501 C   0  0  0  0  0  0  0  0  0  0  0  0
   -1.3912    0.9078    4.6961 H   0  0  0  0  0  0  0  0  0  0  0  0
   -2.5710    0.3149    5.8394 H   0  0  0  0  0  0  0  0  0  0  0  0
   -4.4138    0.7432    4.2284 H   0  0  0  0  0  0  0  0  0  0  0  0
   -3.8446    0.9630    2.0310 H   0  0  0  0  0  0  0  0  0  0  0  0
   -4.6818    3.0719    3.3511 H   0  0  0  0  0  0  0  0  0  0  0  0
   -2.4143    1.8001    0.0951 H   0  0  0  0  0  0  0  0  0  0  0  0
   -0.7695    3.8410    0.4671 H   0  0  0  0  0  0  0  0  0  0  0  0
   -1.7965    3.8256   -0.9781 H   0  0  0  0  0  0  0  0  0  0  0  0
   -2.2403    4.8340    0.3838 H   0  0  0  0  0  0  0  0  0  0  0  0
   -4.1682    3.9081    0.8516 H   0  0  0  0  0  0  0  0  0  0  0  0
   -0.0917   -0.8871    3.9968 H   0  0  0  0  0  0  0  0  0  0  0  0
   -4.3233   -1.5784    4.5375 H   0  0  0  0  0  0  0  0  0  0  0  0
    0.2118   -3.2678    3.4464 H   0  0  0  0  0  0  0  0  0  0  0  0
   -3.9946   -3.9469    3.9608 H   0  0  0  0  0  0  0  0  0  0  0  0
   -1.7306   -4.8093    3.4372 H   0  0  0  0  0  0  0  0  0  0  0  0
  1 12  1  0  0  0  0
  1 18  1  0  0  0  0
  1 19  1  0  0  0  0
  2  4  1  0  0  0  0
  2 20  1  1  0  0  0
  2  3  1  0  0  0  0
  2  1  1  0  0  0  0
  3  5  1  0  0  0  0
  3 21  1  0  0  0  0
  4  6  1  0  0  0  0
  4  7  2  0  0  0  0
  5  9  2  0  0  0  0
  6 22  1  0  0  0  0
  8 11  1  0  0  0  0
  8 23  1  6  0  0  0
  8 10  1  0  0  0  0
  8  5  1  0  0  0  0
 10 24  1  0  0  0  0
 10 25  1  0  0  0  0
 10 26  1  0  0  0  0
 11 27  1  0  0  0  0
 12 13  2  0  0  0  0
 12 14  1  0  0  0  0
 13 15  1  0  0  0  0
 13 28  1  0  0  0  0
 14 16  2  0  0  0  0
 14 29  1  0  0  0  0
 15 17  2  0  0  0  0
 15 30  1  0  0  0  0
 16 17  1  0  0  0  0
 16 31  1  0  0  0  0
 17 32  1  0  0  0  0
M  END
>  <Mol_ID>
7500

>  <Formula>
C12H15NO4

>  <MolWeight>
237.2518

>  <Cat>
E1263

>  <Name>
Lac-Phe

>  <Target>
Others

>  <Form>
free base

>  <CAS>
183241-73-8

>  <URL>
https://www.selleckchem.com/products/lac-Phe.html

$$$$
