Lactiflorin
 OpenBabel08302521573D

 59 64  0  0  1  0  0  0  0  0999 V2000
    1.3661   -0.5387    0.3353 C   0  0  0  0  0  0  0  0  0  0  0  0
    1.0174   -1.6883    1.0905 O   0  0  0  0  0  0  0  0  0  0  0  0
    1.0740   -1.4480    2.4345 C   0  0  0  0  0  0  0  0  0  0  0  0
    1.3212   -0.3804    2.9663 O   0  0  0  0  0  0  0  0  0  0  0  0
   -1.7613    0.4565   -3.3467 C   0  0  0  0  0  0  0  0  0  0  0  0
    3.6181   -1.8859   -3.4753 O   0  0  0  0  0  0  0  0  0  0  0  0
   -2.3052    2.8639    0.9101 O   0  0  0  0  0  0  0  0  0  0  0  0
   -4.4629   -1.4008    2.5641 C   0  0  0  0  0  0  0  0  0  0  0  0
   -4.1282   -2.7972    2.6149 O   0  0  0  0  0  0  0  0  0  0  0  0
   -3.5169    1.4015    3.1571 O   0  0  0  0  0  0  0  0  0  0  0  0
   -0.3623   -0.9662   -1.7615 C   0  0  1  0  0  0  0  0  0  0  0  0
    1.0334   -0.7061   -1.1332 C   0  0  2  0  0  0  0  0  0  0  0  0
   -0.6851    0.4522   -2.2626 C   0  0  1  0  0  0  0  0  0  0  0  0
    0.2855   -2.0046   -2.7196 C   0  0  0  0  0  0  0  0  0  0  0  0
   -1.4649   -1.5275   -1.0185 O   0  0  0  0  0  0  0  0  0  0  0  0
    1.6317   -1.8635   -1.9654 C   0  0  1  0  0  0  0  0  0  0  0  0
    1.5613    0.5542   -1.8716 C   0  0  2  0  0  0  0  0  0  0  0  0
    0.5597    0.9070   -2.8263 O   0  0  0  0  0  0  0  0  0  0  0  0
   -1.0244    1.2841   -1.1169 O   0  0  0  0  0  0  0  0  0  0  0  0
   -1.9068   -0.7339    0.0549 C   0  0  1  0  0  0  0  0  0  0  0  0
    2.8143   -1.2803   -2.7778 C   0  0  0  0  0  0  0  0  0  0  0  0
    2.9188    0.2043   -2.4860 C   0  0  0  0  0  0  0  0  0  0  0  0
   -2.1034    0.7428   -0.3226 C   0  0  1  0  0  0  0  0  0  0  0  0
   -3.1004   -1.2479    0.6192 O   0  0  0  0  0  0  0  0  0  0  0  0
   -2.2126    1.4489    1.0494 C   0  0  2  0  0  0  0  0  0  0  0  0
   -3.2906   -0.6660    1.9241 C   0  0  1  0  0  0  0  0  0  0  0  0
   -3.4279    0.8681    1.8354 C   0  0  1  0  0  0  0  0  0  0  0  0
    0.8723   -2.7186    3.1488 C   0  0  0  0  0  0  0  0  0  0  0  0
   -0.0988   -3.6380    2.7425 C   0  0  0  0  0  0  0  0  0  0  0  0
    1.6996   -2.9897    4.2420 C   0  0  0  0  0  0  0  0  0  0  0  0
   -0.2265   -4.8466    3.4242 C   0  0  0  0  0  0  0  0  0  0  0  0
    1.5818   -4.2078    4.9062 C   0  0  0  0  0  0  0  0  0  0  0  0
    0.6230   -5.1355    4.4947 C   0  0  0  0  0  0  0  0  0  0  0  0
    2.4431   -0.3692    0.4608 H   0  0  0  0  0  0  0  0  0  0  0  0
    0.8414    0.3460    0.7228 H   0  0  0  0  0  0  0  0  0  0  0  0
   -1.4255    0.9951   -4.2395 H   0  0  0  0  0  0  0  0  0  0  0  0
   -2.6919    0.9258   -3.0175 H   0  0  0  0  0  0  0  0  0  0  0  0
   -2.0119   -0.5599   -3.6720 H   0  0  0  0  0  0  0  0  0  0  0  0
   -1.4919    3.1470    0.4468 H   0  0  0  0  0  0  0  0  0  0  0  0
   -5.3751   -1.3123    1.9674 H   0  0  0  0  0  0  0  0  0  0  0  0
   -4.6535   -1.0611    3.5846 H   0  0  0  0  0  0  0  0  0  0  0  0
   -3.8332   -3.0254    1.7108 H   0  0  0  0  0  0  0  0  0  0  0  0
   -2.6807    1.8512    3.3728 H   0  0  0  0  0  0  0  0  0  0  0  0
    0.3065   -1.7128   -3.7751 H   0  0  0  0  0  0  0  0  0  0  0  0
   -0.1482   -3.0101   -2.6582 H   0  0  0  0  0  0  0  0  0  0  0  0
    1.8869   -2.7525   -1.3821 H   0  0  0  0  0  0  0  0  0  0  0  0
    1.6709    1.4202   -1.2062 H   0  0  0  0  0  0  0  0  0  0  0  0
   -1.1348   -0.8243    0.8115 H   0  0  0  0  0  0  0  0  0  0  0  0
    3.7090    0.3186   -1.7380 H   0  0  0  0  0  0  0  0  0  0  0  0
    3.1366    0.7703   -3.3912 H   0  0  0  0  0  0  0  0  0  0  0  0
   -3.0361    0.9043   -0.8750 H   0  0  0  0  0  0  0  0  0  0  0  0
   -1.2974    1.2815    1.6338 H   0  0  0  0  0  0  0  0  0  0  0  0
   -2.4080   -0.9100    2.5325 H   0  0  0  0  0  0  0  0  0  0  0  0
   -4.3481    1.1457    1.3072 H   0  0  0  0  0  0  0  0  0  0  0  0
   -0.7623   -3.4200    1.9087 H   0  0  0  0  0  0  0  0  0  0  0  0
    2.4428   -2.2633    4.5646 H   0  0  0  0  0  0  0  0  0  0  0  0
   -0.9778   -5.5682    3.1155 H   0  0  0  0  0  0  0  0  0  0  0  0
    2.2328   -4.4324    5.7465 H   0  0  0  0  0  0  0  0  0  0  0  0
    0.5312   -6.0864    5.0163 H   0  0  0  0  0  0  0  0  0  0  0  0
  1  2  1  0  0  0  0
  1 34  1  0  0  0  0
  1 35  1  0  0  0  0
  2  3  1  0  0  0  0
  3  4  2  0  0  0  0
  3 28  1  0  0  0  0
  5 36  1  0  0  0  0
  5 37  1  0  0  0  0
  5 38  1  0  0  0  0
  6 21  2  0  0  0  0
  7 39  1  0  0  0  0
  8  9  1  0  0  0  0
  8 40  1  0  0  0  0
  8 41  1  0  0  0  0
  9 42  1  0  0  0  0
 10 43  1  0  0  0  0
 11 12  1  0  0  0  0
 11 13  1  0  0  0  0
 11 14  1  0  0  0  0
 11 15  1  1  0  0  0
 12  1  1  1  0  0  0
 12 16  1  0  0  0  0
 12 17  1  0  0  0  0
 13  5  1  6  0  0  0
 13 18  1  0  0  0  0
 13 19  1  0  0  0  0
 14 44  1  0  0  0  0
 14 45  1  0  0  0  0
 16 14  1  0  0  0  0
 16 21  1  0  0  0  0
 16 46  1  1  0  0  0
 17 18  1  0  0  0  0
 17 22  1  0  0  0  0
 17 47  1  1  0  0  0
 20 15  1  0  0  0  0
 20 23  1  0  0  0  0
 20 24  1  0  0  0  0
 20 48  1  1  0  0  0
 21 22  1  0  0  0  0
 22 49  1  0  0  0  0
 22 50  1  0  0  0  0
 23 19  1  0  0  0  0
 23 25  1  0  0  0  0
 23 51  1  6  0  0  0
 24 26  1  0  0  0  0
 25  7  1  0  0  0  0
 25 27  1  0  0  0  0
 25 52  1  1  0  0  0
 26  8  1  0  0  0  0
 26 27  1  0  0  0  0
 26 53  1  1  0  0  0
 27 10  1  0  0  0  0
 27 54  1  6  0  0  0
 28 29  2  0  0  0  0
 28 30  1  0  0  0  0
 29 31  1  0  0  0  0
 29 55  1  0  0  0  0
 30 32  2  0  0  0  0
 30 56  1  0  0  0  0
 31 33  2  0  0  0  0
 31 57  1  0  0  0  0
 32 33  1  0  0  0  0
 32 58  1  0  0  0  0
 33 59  1  0  0  0  0
M  END
>  <Mol_ID>
10079

>  <Formula>
C23H26O10

>  <MolWeight>
462.44654

>  <Cat>
E5741

>  <Name>
Lactiflorin

>  <Synonyms>
NA

>  <Target>
anti-inflammatory

>  <Form>
Free Base

>  <CAS>
1361049-59-3

>  <URL>
https://www.selleckchem.com/products/lactiflorin.html

$$$$
