Lactate
 OpenBabel08302521353D

 12 11  0  0  0  0  0  0  0  0999 V2000
    0.9059   -0.0490    0.1270 C   0  0  3  0  0  0  0  0  0  0  0  0
    0.4210   -0.2286    1.5663 C   0  0  0  0  0  0  0  0  0  0  0  0
    0.4118    1.2460   -0.4917 C   0  0  0  0  0  0  0  0  0  0  0  0
    0.4497   -1.1742   -0.6424 O   0  0  0  0  0  0  0  0  0  0  0  0
    0.2138   -1.5425    1.8482 O   0  0  0  0  0  0  0  0  0  0  0  0
    0.2464    0.6649    2.3795 O   0  0  0  0  0  0  0  0  0  0  0  0
    2.0000   -0.0784    0.1386 H   0  0  0  0  0  0  0  0  0  0  0  0
    0.7649    1.3359   -1.5243 H   0  0  0  0  0  0  0  0  0  0  0  0
   -0.6827    1.2768   -0.5237 H   0  0  0  0  0  0  0  0  0  0  0  0
    0.7596    2.1156    0.0745 H   0  0  0  0  0  0  0  0  0  0  0  0
   -0.4856   -1.0083   -0.8687 H   0  0  0  0  0  0  0  0  0  0  0  0
    0.4155   -2.0685    1.0390 H   0  0  0  0  0  0  0  0  0  0  0  0
  1  2  1  0  0  0  0
  1  3  1  0  0  0  0
  1  4  1  0  0  0  0
  1  7  1  0  0  0  0
  2  5  1  0  0  0  0
  2  6  2  0  0  0  0
  3  8  1  0  0  0  0
  3  9  1  0  0  0  0
  3 10  1  0  0  0  0
  4 11  1  0  0  0  0
  5 12  1  0  0  0  0
M  END
>  <Mol_ID>
7019

>  <Formula>
C3H6O3

>  <MolWeight>
90.07794

>  <Cat>
E4473

>  <Name>
Lactate

>  <Synonyms>
Lactic acid

>  <Target>
Others

>  <Form>
free base

>  <CAS>
50-21-5

>  <URL>
https://www.selleckchem.com/products/lactate.html

$$$$
