Lafutidine.cdx
 OpenBabel08302522013D

 59 61  0  0  0  0  0  0  0  0999 V2000
   -3.0235    0.5649   -0.5524 C   0  0  0  0  0  0  0  0  0  0  0  0
   -2.3766    1.7815   -0.7281 C   0  0  0  0  0  0  0  0  0  0  0  0
   -2.6221    2.6145   -1.7605 N   0  0  0  0  0  0  0  0  0  0  0  0
   -3.5514    2.2129   -2.6544 C   0  0  0  0  0  0  0  0  0  0  0  0
   -4.2585    1.0237   -2.5584 C   0  0  0  0  0  0  0  0  0  0  0  0
   -4.0014    0.1752   -1.4782 C   0  0  0  0  0  0  0  0  0  0  0  0
   -4.8253   -1.0760   -1.2537 C   0  0  0  0  0  0  0  0  0  0  0  0
   -4.8528   -2.0279   -2.3823 N   0  0  0  0  0  0  0  0  0  0  0  0
   -3.5252   -2.6182   -2.6286 C   0  0  0  0  0  0  0  0  0  0  0  0
   -3.5622   -3.6075   -3.7984 C   0  0  0  0  0  0  0  0  0  0  0  0
   -4.5953   -4.7050   -3.5737 C   0  0  0  0  0  0  0  0  0  0  0  0
   -5.9494   -4.0904   -3.2461 C   0  0  0  0  0  0  0  0  0  0  0  0
   -5.8352   -3.0925   -2.0928 C   0  0  0  0  0  0  0  0  0  0  0  0
   -1.4567    2.1421    0.2414 O   0  0  0  0  0  0  0  0  0  0  0  0
   -0.9324    3.4543    0.0339 C   0  0  0  0  0  0  0  0  0  0  0  0
   -0.0112    3.8243    1.1657 C   0  0  0  0  0  0  0  0  0  0  0  0
    1.0869    3.1687    1.5809 C   0  0  0  0  0  0  0  0  0  0  0  0
    1.6409    1.8958    1.0270 C   0  0  0  0  0  0  0  0  0  0  0  0
    2.9986    2.1562    0.6123 N   0  0  0  0  0  0  0  0  0  0  0  0
    3.9166    1.1313    0.5218 C   0  0  0  0  0  0  0  0  0  0  0  0
    5.2692    1.5410   -0.0223 C   0  0  0  0  0  0  0  0  0  0  0  0
    3.7027   -0.0132    0.9125 O   0  0  0  0  0  0  0  0  0  0  0  0
    5.1347    2.0941   -1.7450 S   0  0  3  0  0  0  0  0  0  0  0  0
    4.2833    3.3328   -1.7324 O   0  0  0  0  0  0  0  0  0  0  0  0
    6.8777    2.6086   -1.8951 C   0  0  0  0  0  0  0  0  0  0  0  0
    7.1499    3.1642   -3.2409 C   0  0  0  0  0  0  0  0  0  0  0  0
    6.6576    4.2476   -3.9418 C   0  0  0  0  0  0  0  0  0  0  0  0
    7.3348    4.2636   -5.1837 C   0  0  0  0  0  0  0  0  0  0  0  0
    8.2003    3.1967   -5.1612 C   0  0  0  0  0  0  0  0  0  0  0  0
    8.0993    2.5238   -3.9853 O   0  0  0  0  0  0  0  0  0  0  0  0
   -2.7823   -0.0516    0.3067 H   0  0  0  0  0  0  0  0  0  0  0  0
   -3.7309    2.9044   -3.4728 H   0  0  0  0  0  0  0  0  0  0  0  0
   -5.0050    0.7695   -3.3043 H   0  0  0  0  0  0  0  0  0  0  0  0
   -4.4982   -1.5817   -0.3359 H   0  0  0  0  0  0  0  0  0  0  0  0
   -5.8485   -0.7236   -1.0612 H   0  0  0  0  0  0  0  0  0  0  0  0
   -3.1531   -3.1284   -1.7302 H   0  0  0  0  0  0  0  0  0  0  0  0
   -2.8017   -1.8357   -2.8829 H   0  0  0  0  0  0  0  0  0  0  0  0
   -2.5722   -4.0573   -3.9344 H   0  0  0  0  0  0  0  0  0  0  0  0
   -3.7995   -3.0702   -4.7255 H   0  0  0  0  0  0  0  0  0  0  0  0
   -4.6741   -5.3396   -4.4634 H   0  0  0  0  0  0  0  0  0  0  0  0
   -4.2740   -5.3495   -2.7461 H   0  0  0  0  0  0  0  0  0  0  0  0
   -6.3487   -3.5843   -4.1339 H   0  0  0  0  0  0  0  0  0  0  0  0
   -6.6603   -4.8826   -2.9836 H   0  0  0  0  0  0  0  0  0  0  0  0
   -6.8261   -2.6521   -1.9284 H   0  0  0  0  0  0  0  0  0  0  0  0
   -5.5636   -3.6309   -1.1743 H   0  0  0  0  0  0  0  0  0  0  0  0
   -0.3791    3.5168   -0.9115 H   0  0  0  0  0  0  0  0  0  0  0  0
   -1.7514    4.1861    0.0247 H   0  0  0  0  0  0  0  0  0  0  0  0
   -0.2732    4.7473    1.6804 H   0  0  0  0  0  0  0  0  0  0  0  0
    1.6389    3.5875    2.4217 H   0  0  0  0  0  0  0  0  0  0  0  0
    1.6279    1.1188    1.7981 H   0  0  0  0  0  0  0  0  0  0  0  0
    1.0943    1.5278    0.1543 H   0  0  0  0  0  0  0  0  0  0  0  0
    3.1356    2.9414   -0.0261 H   0  0  0  0  0  0  0  0  0  0  0  0
    5.6728    2.3468    0.5979 H   0  0  0  0  0  0  0  0  0  0  0  0
    5.9473    0.6824    0.0197 H   0  0  0  0  0  0  0  0  0  0  0  0
    7.0839    3.3632   -1.1293 H   0  0  0  0  0  0  0  0  0  0  0  0
    7.5058    1.7332   -1.7003 H   0  0  0  0  0  0  0  0  0  0  0  0
    5.8933    4.9323   -3.5961 H   0  0  0  0  0  0  0  0  0  0  0  0
    7.2052    4.9652   -5.9960 H   0  0  0  0  0  0  0  0  0  0  0  0
    8.9180    2.7993   -5.8659 H   0  0  0  0  0  0  0  0  0  0  0  0
  1  2  2  0  0  0  0
  1 31  1  0  0  0  0
  2  3  1  0  0  0  0
  2 14  1  0  0  0  0
  3  4  2  0  0  0  0
  4  5  1  0  0  0  0
  4 32  1  0  0  0  0
  5  6  2  0  0  0  0
  5 33  1  0  0  0  0
  6  1  1  0  0  0  0
  6  7  1  0  0  0  0
  7  8  1  0  0  0  0
  7 34  1  0  0  0  0
  7 35  1  0  0  0  0
  8  9  1  0  0  0  0
  9 10  1  0  0  0  0
  9 36  1  0  0  0  0
  9 37  1  0  0  0  0
 10 11  1  0  0  0  0
 10 38  1  0  0  0  0
 10 39  1  0  0  0  0
 11 12  1  0  0  0  0
 11 40  1  0  0  0  0
 11 41  1  0  0  0  0
 12 13  1  0  0  0  0
 12 42  1  0  0  0  0
 12 43  1  0  0  0  0
 13  8  1  0  0  0  0
 13 44  1  0  0  0  0
 13 45  1  0  0  0  0
 14 15  1  0  0  0  0
 15 16  1  0  0  0  0
 15 46  1  0  0  0  0
 15 47  1  0  0  0  0
 16 17  2  0  0  0  0
 16 48  1  0  0  0  0
 17 18  1  0  0  0  0
 17 49  1  0  0  0  0
 18 19  1  0  0  0  0
 18 50  1  0  0  0  0
 18 51  1  0  0  0  0
 19 20  1  0  0  0  0
 19 52  1  0  0  0  0
 20 21  1  0  0  0  0
 20 22  2  0  0  0  0
 21 23  1  0  0  0  0
 21 53  1  0  0  0  0
 21 54  1  0  0  0  0
 23 24  2  0  0  0  0
 23 25  1  0  0  0  0
 25 26  1  0  0  0  0
 25 55  1  0  0  0  0
 25 56  1  0  0  0  0
 26 27  2  0  0  0  0
 27 28  1  0  0  0  0
 27 57  1  0  0  0  0
 28 29  2  0  0  0  0
 28 58  1  0  0  0  0
 29 30  1  0  0  0  0
 29 59  1  0  0  0  0
 30 26  1  0  0  0  0
M  END
>  <Mol_ID>
1131

>  <Formula>
C22H29N3O4S

>  <MolWeight>
431.54836

>  <Cat>
S2065

>  <Name>
Lafutidine

>  <Synonyms>
FRG-8813

>  <Target>
Histamine Receptor

>  <Form>
free base

>  <CAS>
118288-08-7

>  <URL>
http://selleckchem.com/products/lafutidine.html

$$$$
