Lalistat 2
 OpenBabel08302521353D

 40 42  0  0  0  0  0  0  0  0999 V2000
   -0.9660   -1.6614    0.4964 C   0  0  0  0  0  0  0  0  0  0  0  0
   -1.9375   -0.5492    0.8826 C   0  0  0  0  0  0  0  0  0  0  0  0
   -1.2514    0.8115    0.8538 C   0  0  0  0  0  0  0  0  0  0  0  0
    0.0263    0.8000    1.6890 C   0  0  0  0  0  0  0  0  0  0  0  0
    0.9264   -0.2682    1.2162 N   0  0  0  0  0  0  0  0  0  0  0  0
    0.3291   -1.6042    1.3089 C   0  0  0  0  0  0  0  0  0  0  0  0
    2.2534   -0.1399    1.5631 C   0  0  0  0  0  0  0  0  0  0  0  0
    2.6473    0.6184    2.5989 N   0  0  0  0  0  0  0  0  0  0  0  0
    4.2923    0.4317    2.7328 S   0  0  0  0  0  0  0  0  0  0  0  0
    4.5805   -0.6167    1.4719 N   0  0  0  0  0  0  0  0  0  0  0  0
    3.3853   -0.7935    0.8943 C   0  0  0  0  0  0  0  0  0  0  0  0
    3.4329   -1.6545   -0.1496 O   0  0  0  0  0  0  0  0  0  0  0  0
    2.7531   -1.3651   -1.2957 C   0  0  0  0  0  0  0  0  0  0  0  0
    2.9790   -2.3262   -2.3062 N   0  0  0  0  0  0  0  0  0  0  0  0
    2.0419   -0.3855   -1.4773 O   0  0  0  0  0  0  0  0  0  0  0  0
    2.3091   -2.0783   -3.5796 C   0  0  0  0  0  0  0  0  0  0  0  0
    2.5936   -3.0431   -4.7275 C   0  0  0  0  0  0  0  0  0  0  0  0
    4.0021   -3.6098   -4.7143 C   0  0  0  0  0  0  0  0  0  0  0  0
    4.2950   -4.2174   -3.3586 C   0  0  0  0  0  0  0  0  0  0  0  0
    4.1445   -3.2078   -2.2269 C   0  0  0  0  0  0  0  0  0  0  0  0
   -1.4489   -2.6348    0.6390 H   0  0  0  0  0  0  0  0  0  0  0  0
   -0.7277   -1.5733   -0.5704 H   0  0  0  0  0  0  0  0  0  0  0  0
   -2.7935   -0.5466    0.1967 H   0  0  0  0  0  0  0  0  0  0  0  0
   -2.3352   -0.7377    1.8873 H   0  0  0  0  0  0  0  0  0  0  0  0
   -1.0079    1.0763   -0.1823 H   0  0  0  0  0  0  0  0  0  0  0  0
   -1.9348    1.5810    1.2324 H   0  0  0  0  0  0  0  0  0  0  0  0
    0.4992    1.7856    1.5963 H   0  0  0  0  0  0  0  0  0  0  0  0
   -0.2208    0.6439    2.7482 H   0  0  0  0  0  0  0  0  0  0  0  0
    0.1191   -1.8420    2.3608 H   0  0  0  0  0  0  0  0  0  0  0  0
    1.0086   -2.3765    0.9339 H   0  0  0  0  0  0  0  0  0  0  0  0
    2.5254   -1.0521   -3.8985 H   0  0  0  0  0  0  0  0  0  0  0  0
    1.2326   -2.1125   -3.3652 H   0  0  0  0  0  0  0  0  0  0  0  0
    2.4072   -2.5328   -5.6809 H   0  0  0  0  0  0  0  0  0  0  0  0
    1.8764   -3.8717   -4.6845 H   0  0  0  0  0  0  0  0  0  0  0  0
    4.0786   -4.3893   -5.4898 H   0  0  0  0  0  0  0  0  0  0  0  0
    4.7327   -2.8374   -4.9660 H   0  0  0  0  0  0  0  0  0  0  0  0
    3.6173   -5.0627   -3.1858 H   0  0  0  0  0  0  0  0  0  0  0  0
    5.3128   -4.6280   -3.3496 H   0  0  0  0  0  0  0  0  0  0  0  0
    4.0825   -3.7548   -1.2780 H   0  0  0  0  0  0  0  0  0  0  0  0
    5.0416   -2.5781   -2.1700 H   0  0  0  0  0  0  0  0  0  0  0  0
  1  2  1  0  0  0  0
  1 21  1  0  0  0  0
  1 22  1  0  0  0  0
  2  3  1  0  0  0  0
  2 23  1  0  0  0  0
  2 24  1  0  0  0  0
  3  4  1  0  0  0  0
  3 25  1  0  0  0  0
  3 26  1  0  0  0  0
  4  5  1  0  0  0  0
  4 27  1  0  0  0  0
  4 28  1  0  0  0  0
  5  6  1  0  0  0  0
  5  7  1  0  0  0  0
  6  1  1  0  0  0  0
  6 29  1  0  0  0  0
  6 30  1  0  0  0  0
  7  8  2  0  0  0  0
  8  9  1  0  0  0  0
  9 10  1  0  0  0  0
 10 11  2  0  0  0  0
 11  7  1  0  0  0  0
 11 12  1  0  0  0  0
 12 13  1  0  0  0  0
 13 14  1  0  0  0  0
 13 15  2  0  0  0  0
 14 16  1  0  0  0  0
 16 17  1  0  0  0  0
 16 31  1  0  0  0  0
 16 32  1  0  0  0  0
 17 18  1  0  0  0  0
 17 33  1  0  0  0  0
 17 34  1  0  0  0  0
 18 19  1  0  0  0  0
 18 35  1  0  0  0  0
 18 36  1  0  0  0  0
 19 20  1  0  0  0  0
 19 37  1  0  0  0  0
 19 38  1  0  0  0  0
 20 14  1  0  0  0  0
 20 39  1  0  0  0  0
 20 40  1  0  0  0  0
M  END
>  <Mol_ID>
6867

>  <Formula>
C13H20N4O2S

>  <MolWeight>
296.3885

>  <Cat>
E2815

>  <Name>
Lalistat 2

>  <Target>
Others

>  <Form>
Free base

>  <CAS>
1234569-09-5

>  <URL>
http://www.selleckchem.com/products/lalistat-2.html

$$$$
