Lanifibranor (IVA-337)
 OpenBabel08302521043D

 43 46  0  0  0  0  0  0  0  0999 V2000
    2.2140    0.5311    0.0188 C   0  0  0  0  0  0  0  0  0  0  0  0
    2.1479   -0.8515    0.1207 C   0  0  0  0  0  0  0  0  0  0  0  0
    0.9173   -1.5200    0.1078 C   0  0  0  0  0  0  0  0  0  0  0  0
   -0.2646   -0.7688   -0.0563 C   0  0  0  0  0  0  0  0  0  0  0  0
   -0.2037    0.6285   -0.1426 C   0  0  0  0  0  0  0  0  0  0  0  0
    1.0442    1.2809   -0.0964 C   0  0  0  0  0  0  0  0  0  0  0  0
   -1.6100   -1.1085   -0.1786 N   0  0  0  0  0  0  0  0  0  0  0  0
   -2.3997    0.0377   -0.2161 C   0  0  0  0  0  0  0  0  0  0  0  0
   -1.5294    1.1115   -0.2382 C   0  0  0  0  0  0  0  0  0  0  0  0
   -3.8963    0.1247   -0.2372 C   0  0  0  0  0  0  0  0  0  0  0  0
   -2.2071   -2.7111   -0.0066 S   0  0  0  0  0  0  0  0  0  0  0  0
   -1.1319   -3.8083   -0.8990 C   0  0  0  0  0  0  0  0  0  0  0  0
   -0.8022   -3.5241   -2.2317 C   0  0  0  0  0  0  0  0  0  0  0  0
    0.0443   -4.4281   -2.8974 C   0  0  0  0  0  0  0  0  0  0  0  0
    0.5454   -5.5785   -2.2763 C   0  0  0  0  0  0  0  0  0  0  0  0
    0.1807   -5.8426   -0.9398 C   0  0  0  0  0  0  0  0  0  0  0  0
   -0.6641   -4.9587   -0.2605 C   0  0  0  0  0  0  0  0  0  0  0  0
    0.6417   -4.3700   -4.5156 S   0  0  0  0  0  0  0  0  0  0  0  0
    1.4853   -5.8352   -4.2524 C   0  0  0  0  0  0  0  0  0  0  0  0
    1.3703   -6.3697   -3.0594 N   0  0  0  0  0  0  0  0  0  0  0  0
   -2.0938   -2.9893    1.4130 O   0  0  0  0  0  0  0  0  0  0  0  0
   -3.4818   -2.7669   -0.6936 O   0  0  0  0  0  0  0  0  0  0  0  0
   -4.4862    0.2775    1.1662 C   0  0  0  0  0  0  0  0  0  0  0  0
   -6.0011    0.4468    1.1058 C   0  0  0  0  0  0  0  0  0  0  0  0
   -6.5745    0.6469    2.4843 C   0  0  0  0  0  0  0  0  0  0  0  0
   -6.9018   -0.5078    3.1043 O   0  0  0  0  0  0  0  0  0  0  0  0
   -6.7133    1.7394    3.0114 O   0  0  0  0  0  0  0  0  0  0  0  0
    3.1771    1.0351    0.0416 H   0  0  0  0  0  0  0  0  0  0  0  0
    3.0682   -1.4246    0.2180 H   0  0  0  0  0  0  0  0  0  0  0  0
    0.9195   -2.5976    0.2209 H   0  0  0  0  0  0  0  0  0  0  0  0
    1.0968    2.3654   -0.1484 H   0  0  0  0  0  0  0  0  0  0  0  0
   -1.8250    2.1536   -0.2838 H   0  0  0  0  0  0  0  0  0  0  0  0
   -4.1688    1.0126   -0.8246 H   0  0  0  0  0  0  0  0  0  0  0  0
   -4.3649   -0.7042   -0.7664 H   0  0  0  0  0  0  0  0  0  0  0  0
   -1.1833   -2.6483   -2.7459 H   0  0  0  0  0  0  0  0  0  0  0  0
    0.5567   -6.7383   -0.4512 H   0  0  0  0  0  0  0  0  0  0  0  0
   -0.9446   -5.1829    0.7683 H   0  0  0  0  0  0  0  0  0  0  0  0
    2.0804   -6.2922   -5.0329 H   0  0  0  0  0  0  0  0  0  0  0  0
   -4.2305   -0.5905    1.7859 H   0  0  0  0  0  0  0  0  0  0  0  0
   -4.0447    1.1508    1.6653 H   0  0  0  0  0  0  0  0  0  0  0  0
   -6.2735    1.3228    0.5046 H   0  0  0  0  0  0  0  0  0  0  0  0
   -6.4835   -0.4130    0.6278 H   0  0  0  0  0  0  0  0  0  0  0  0
   -6.7176   -1.3096    2.5791 H   0  0  0  0  0  0  0  0  0  0  0  0
  1  2  2  0  0  0  0
  1 28  1  0  0  0  0
  2  3  1  0  0  0  0
  2 29  1  0  0  0  0
  3  4  2  0  0  0  0
  3 30  1  0  0  0  0
  4  5  1  0  0  0  0
  4  7  1  0  0  0  0
  5  6  2  0  0  0  0
  6  1  1  0  0  0  0
  6 31  1  0  0  0  0
  7  8  1  0  0  0  0
  7 11  1  0  0  0  0
  8  9  2  0  0  0  0
  8 10  1  0  0  0  0
  9  5  1  0  0  0  0
  9 32  1  0  0  0  0
 10 23  1  0  0  0  0
 10 33  1  0  0  0  0
 10 34  1  0  0  0  0
 11 12  1  0  0  0  0
 11 21  2  0  0  0  0
 11 22  2  0  0  0  0
 12 13  2  0  0  0  0
 13 14  1  0  0  0  0
 13 35  1  0  0  0  0
 14 15  2  0  0  0  0
 14 18  1  0  0  0  0
 15 16  1  0  0  0  0
 16 17  2  0  0  0  0
 16 36  1  0  0  0  0
 17 12  1  0  0  0  0
 17 37  1  0  0  0  0
 18 19  1  0  0  0  0
 19 20  2  0  0  0  0
 19 38  1  0  0  0  0
 20 15  1  0  0  0  0
 23 24  1  0  0  0  0
 23 39  1  0  0  0  0
 23 40  1  0  0  0  0
 24 25  1  0  0  0  0
 24 41  1  0  0  0  0
 24 42  1  0  0  0  0
 25 26  1  0  0  0  0
 25 27  2  0  0  0  0
 26 43  1  0  0  0  0
M  END
>  <Mol_ID>
4322

>  <Formula>
C19H15ClN2O4S2

>  <MolWeight>
434.9164

>  <Cat>
S8770

>  <Name>
Lanifibranor (IVA-337)

>  <Synonyms>
N/A

>  <Target>
PPAR

>  <Form>
Free Base

>  <CAS>
927961-18-0

>  <URL>
http://www.selleckchem.com/products/lanifibranor-iva-337.html

$$$$
