LANIAZID (isoniazid).cdx
 OpenBabel08302521233D

 17 17  0  0  0  0  0  0  0  0999 V2000
    0.7721    1.1823   -0.0156 C   0  0  0  0  0  0  0  0  0  0  0  0
   -0.6095    1.1341    0.0273 C   0  0  0  0  0  0  0  0  0  0  0  0
   -1.3141   -0.0145    0.0441 N   0  0  0  0  0  0  0  0  0  0  0  0
   -0.6101   -1.1642    0.0140 C   0  0  0  0  0  0  0  0  0  0  0  0
    0.7740   -1.2230   -0.0329 C   0  0  0  0  0  0  0  0  0  0  0  0
    1.4831   -0.0215   -0.0483 C   0  0  0  0  0  0  0  0  0  0  0  0
    2.9712    0.0555   -0.1290 C   0  0  0  0  0  0  0  0  0  0  0  0
    3.6893   -1.1351   -0.1058 N   0  0  0  0  0  0  0  0  0  0  0  0
    3.5306    1.1490   -0.2196 O   0  0  0  0  0  0  0  0  0  0  0  0
    5.1016   -1.0828   -0.1493 N   0  0  0  0  0  0  0  0  0  0  0  0
    1.2812    2.1417   -0.0300 H   0  0  0  0  0  0  0  0  0  0  0  0
   -1.2025    2.0444    0.0465 H   0  0  0  0  0  0  0  0  0  0  0  0
   -1.2088   -2.0714    0.0249 H   0  0  0  0  0  0  0  0  0  0  0  0
    1.2457   -2.1946   -0.0667 H   0  0  0  0  0  0  0  0  0  0  0  0
    3.2570   -2.0266    0.1151 H   0  0  0  0  0  0  0  0  0  0  0  0
    5.3916   -1.2628   -1.1137 H   0  0  0  0  0  0  0  0  0  0  0  0
    5.3616   -0.0959   -0.0000 H   0  0  0  0  0  0  0  0  0  0  0  0
  1  2  2  0  0  0  0
  1 11  1  0  0  0  0
  2  3  1  0  0  0  0
  2 12  1  0  0  0  0
  3  4  2  0  0  0  0
  4  5  1  0  0  0  0
  4 13  1  0  0  0  0
  5  6  2  0  0  0  0
  5 14  1  0  0  0  0
  6  1  1  0  0  0  0
  6  7  1  0  0  0  0
  7  8  1  0  0  0  0
  7  9  2  0  0  0  0
  8 10  1  0  0  0  0
  8 15  1  0  0  0  0
 10 16  1  0  0  0  0
 10 17  1  0  0  0  0
M  END
>  <Mol_ID>
460

>  <Formula>
C6H7N3O

>  <MolWeight>
137.13928

>  <Cat>
S1937

>  <Name>
Isoniazid

>  <Synonyms>
N/A

>  <Target>
Fatty Acid Synthase

>  <Form>
free base

>  <CAS>
54-85-3

>  <URL>
http://selleckchem.com/products/Isoniazid(Tubizid).html

$$$$
