Lapyrium chloride
 OpenBabel08302521373D

 61 61  0  0  0  0  0  0  0  0999 V2000
    5.3567    6.1183   -5.4837 C   0  0  0  0  0  0  0  0  0  0  0  0
    4.5630    4.8492   -5.2802 C   0  0  0  0  0  0  0  0  0  0  0  0
    3.2392    5.0241   -4.9516 N   0  0  0  0  0  0  0  0  0  0  0  0
    5.0940    3.7465   -5.4032 O   0  0  0  0  0  0  0  0  0  0  0  0
    2.3820    3.8916   -4.6573 C   0  0  0  0  0  0  0  0  0  0  0  0
    1.8780    3.1213   -5.8886 C   0  0  0  0  0  0  0  0  0  0  0  0
    1.2459    1.9225   -5.4216 O   0  0  0  0  0  0  0  0  0  0  0  0
   -0.0107    2.1109   -4.9185 C   0  0  0  0  0  0  0  0  0  0  0  0
   -0.1710    1.2613   -3.6754 C   0  0  0  0  0  0  0  0  0  0  0  0
   -0.7843    2.9765   -5.2792 O   0  0  0  0  0  0  0  0  0  0  0  0
   -1.2165    0.1630   -3.7496 C   0  0  0  0  0  0  0  0  0  0  0  0
   -0.9692   -0.9710   -4.7622 C   0  0  0  0  0  0  0  0  0  0  0  0
    0.2549   -1.8436   -4.4566 C   0  0  0  0  0  0  0  0  0  0  0  0
    0.6144   -2.9028   -5.5190 C   0  0  0  0  0  0  0  0  0  0  0  0
   -0.1716   -4.2254   -5.5490 C   0  0  0  0  0  0  0  0  0  0  0  0
   -1.5584   -4.1455   -6.1885 C   0  0  0  0  0  0  0  0  0  0  0  0
   -2.2211   -5.5274   -6.3086 C   0  0  0  0  0  0  0  0  0  0  0  0
   -3.6280   -5.4041   -6.9033 C   0  0  0  0  0  0  0  0  0  0  0  0
   -4.3303   -6.7580   -7.0247 C   0  0  0  0  0  0  0  0  0  0  0  0
   -5.7311   -6.5963   -7.5976 C   0  0  0  0  0  0  0  0  0  0  0  0
    6.6497    6.0857   -4.7794 N   0  3  0  0  0  0  0  0  0  0  0  0
    7.7395    5.5661   -5.3964 C   0  0  0  0  0  0  0  0  0  0  0  0
    6.7676    6.6805   -3.5675 C   0  0  0  0  0  0  0  0  0  0  0  0
    9.0119    5.7754   -4.8736 C   0  0  0  0  0  0  0  0  0  0  0  0
    8.0203    6.9120   -3.0106 C   0  0  0  0  0  0  0  0  0  0  0  0
    9.1543    6.4885   -3.6899 C   0  0  0  0  0  0  0  0  0  0  0  0
    4.8009    6.9938   -5.1275 H   0  0  0  0  0  0  0  0  0  0  0  0
    5.5508    6.2570   -6.5539 H   0  0  0  0  0  0  0  0  0  0  0  0
    2.8073    5.9414   -4.8981 H   0  0  0  0  0  0  0  0  0  0  0  0
    2.9269    3.2068   -3.9957 H   0  0  0  0  0  0  0  0  0  0  0  0
    1.5318    4.2701   -4.0768 H   0  0  0  0  0  0  0  0  0  0  0  0
    1.2117    3.7284   -6.5087 H   0  0  0  0  0  0  0  0  0  0  0  0
    2.7187    2.8173   -6.5224 H   0  0  0  0  0  0  0  0  0  0  0  0
    0.8023    0.8682   -3.3707 H   0  0  0  0  0  0  0  0  0  0  0  0
   -0.4483    1.9715   -2.8839 H   0  0  0  0  0  0  0  0  0  0  0  0
   -1.3063   -0.2746   -2.7457 H   0  0  0  0  0  0  0  0  0  0  0  0
   -2.1892    0.6193   -3.9741 H   0  0  0  0  0  0  0  0  0  0  0  0
   -1.8638   -1.5993   -4.7438 H   0  0  0  0  0  0  0  0  0  0  0  0
   -0.8919   -0.5490   -5.7694 H   0  0  0  0  0  0  0  0  0  0  0  0
    1.1257   -1.1801   -4.3808 H   0  0  0  0  0  0  0  0  0  0  0  0
    0.1444   -2.3215   -3.4765 H   0  0  0  0  0  0  0  0  0  0  0  0
    0.6212   -2.4488   -6.5165 H   0  0  0  0  0  0  0  0  0  0  0  0
    1.6562   -3.1881   -5.3130 H   0  0  0  0  0  0  0  0  0  0  0  0
    0.4215   -4.9367   -6.1425 H   0  0  0  0  0  0  0  0  0  0  0  0
   -0.2384   -4.6519   -4.5421 H   0  0  0  0  0  0  0  0  0  0  0  0
   -2.2060   -3.5013   -5.5911 H   0  0  0  0  0  0  0  0  0  0  0  0
   -1.4759   -3.7002   -7.1869 H   0  0  0  0  0  0  0  0  0  0  0  0
   -1.6102   -6.1825   -6.9416 H   0  0  0  0  0  0  0  0  0  0  0  0
   -2.2809   -5.9977   -5.3195 H   0  0  0  0  0  0  0  0  0  0  0  0
   -4.2312   -4.7386   -6.2747 H   0  0  0  0  0  0  0  0  0  0  0  0
   -3.5634   -4.9402   -7.8950 H   0  0  0  0  0  0  0  0  0  0  0  0
   -3.7499   -7.4232   -7.6734 H   0  0  0  0  0  0  0  0  0  0  0  0
   -4.3973   -7.2376   -6.0415 H   0  0  0  0  0  0  0  0  0  0  0  0
   -5.7041   -6.0876   -8.5668 H   0  0  0  0  0  0  0  0  0  0  0  0
   -6.2018   -7.5741   -7.7404 H   0  0  0  0  0  0  0  0  0  0  0  0
   -6.3641   -6.0111   -6.9222 H   0  0  0  0  0  0  0  0  0  0  0  0
    7.5828    5.0158   -6.3201 H   0  0  0  0  0  0  0  0  0  0  0  0
    5.8576    7.0014   -3.0692 H   0  0  0  0  0  0  0  0  0  0  0  0
    9.8900    5.4035   -5.3976 H   0  0  0  0  0  0  0  0  0  0  0  0
    8.1134    7.4405   -2.0641 H   0  0  0  0  0  0  0  0  0  0  0  0
   10.1458    6.7034   -3.2924 H   0  0  0  0  0  0  0  0  0  0  0  0
  1  2  1  0  0  0  0
  1 21  1  0  0  0  0
  1 27  1  0  0  0  0
  1 28  1  0  0  0  0
  2  3  1  0  0  0  0
  2  4  2  0  0  0  0
  3  5  1  0  0  0  0
  3 29  1  0  0  0  0
  5  6  1  0  0  0  0
  5 30  1  0  0  0  0
  5 31  1  0  0  0  0
  6  7  1  0  0  0  0
  6 32  1  0  0  0  0
  6 33  1  0  0  0  0
  7  8  1  0  0  0  0
  8  9  1  0  0  0  0
  8 10  2  0  0  0  0
  9 11  1  0  0  0  0
  9 34  1  0  0  0  0
  9 35  1  0  0  0  0
 11 12  1  0  0  0  0
 11 36  1  0  0  0  0
 11 37  1  0  0  0  0
 12 13  1  0  0  0  0
 12 38  1  0  0  0  0
 12 39  1  0  0  0  0
 13 14  1  0  0  0  0
 13 40  1  0  0  0  0
 13 41  1  0  0  0  0
 14 15  1  0  0  0  0
 14 42  1  0  0  0  0
 14 43  1  0  0  0  0
 15 16  1  0  0  0  0
 15 44  1  0  0  0  0
 15 45  1  0  0  0  0
 16 17  1  0  0  0  0
 16 46  1  0  0  0  0
 16 47  1  0  0  0  0
 17 18  1  0  0  0  0
 17 48  1  0  0  0  0
 17 49  1  0  0  0  0
 18 19  1  0  0  0  0
 18 50  1  0  0  0  0
 18 51  1  0  0  0  0
 19 20  1  0  0  0  0
 19 52  1  0  0  0  0
 19 53  1  0  0  0  0
 20 54  1  0  0  0  0
 20 55  1  0  0  0  0
 20 56  1  0  0  0  0
 21 22  2  0  0  0  0
 21 23  1  0  0  0  0
 22 24  1  0  0  0  0
 22 57  1  0  0  0  0
 23 25  2  0  0  0  0
 23 58  1  0  0  0  0
 24 26  2  0  0  0  0
 24 59  1  0  0  0  0
 25 26  1  0  0  0  0
 25 60  1  0  0  0  0
 26 61  1  0  0  0  0
M  CHG  1  21   1
M  END
>  <Mol_ID>
7579

>  <Formula>
C21H35ClN2O3

>  <MolWeight>
398.9672

>  <Cat>
E2879

>  <Name>
Lapyrium chloride

>  <Synonyms>
NSC-33659

>  <Target>
Others

>  <Form>
chloride

>  <CAS>
6272-74-8

>  <URL>
https://www.selleckchem.com/products/lapyrium-chloride.html

$$$$
