Laquinimod(ABR-215062).cdx
 OpenBabel08302521313D

 42 44  0  0  0  0  0  0  0  0999 V2000
   -1.0632    1.0416    0.0735 N   0  0  0  0  0  0  0  0  0  0  0  0
   -1.8757   -0.0862    0.2764 C   0  0  0  0  0  0  0  0  0  0  0  0
   -1.3542   -1.4478   -0.1817 C   0  0  0  0  0  0  0  0  0  0  0  0
   -0.1190   -1.4080   -0.7229 C   0  0  0  0  0  0  0  0  0  0  0  0
    0.8329   -0.3520   -0.3730 C   0  0  0  0  0  0  0  0  0  0  0  0
    2.2186   -0.5882   -0.3522 C   0  0  0  0  0  0  0  0  0  0  0  0
    3.1090    0.4534   -0.1018 C   0  0  0  0  0  0  0  0  0  0  0  0
    2.6171    1.7394    0.0987 C   0  0  0  0  0  0  0  0  0  0  0  0
    1.2382    1.9706    0.1079 C   0  0  0  0  0  0  0  0  0  0  0  0
    0.3380    0.9118   -0.0792 C   0  0  0  0  0  0  0  0  0  0  0  0
   -2.3252   -2.6211   -0.2242 C   0  0  0  0  0  0  0  0  0  0  0  0
   -3.5349   -2.3724   -0.2261 O   0  0  0  0  0  0  0  0  0  0  0  0
   -1.9239   -3.9727   -0.2788 N   0  0  0  0  0  0  0  0  0  0  0  0
   -0.6007   -4.4787   -0.3307 C   0  0  0  0  0  0  0  0  0  0  0  0
    0.3413   -4.2021    0.6610 C   0  0  0  0  0  0  0  0  0  0  0  0
    1.6865   -4.5181    0.4411 C   0  0  0  0  0  0  0  0  0  0  0  0
    2.0888   -5.0967   -0.7655 C   0  0  0  0  0  0  0  0  0  0  0  0
    1.1408   -5.4372   -1.7272 C   0  0  0  0  0  0  0  0  0  0  0  0
   -0.2059   -5.1644   -1.4947 C   0  0  0  0  0  0  0  0  0  0  0  0
   -3.0111    0.0384    0.7416 O   0  0  0  0  0  0  0  0  0  0  0  0
   -1.6562    2.3700    0.1569 C   0  0  0  0  0  0  0  0  0  0  0  0
    0.3840   -2.2482   -1.6832 O   0  0  0  0  0  0  0  0  0  0  0  0
   -2.9828   -5.0054   -0.2735 C   0  0  0  0  0  0  0  0  0  0  0  0
   -3.3192   -5.4712    1.1389 C   0  0  0  0  0  0  0  0  0  0  0  0
    2.6042   -1.5917   -0.5228 H   0  0  0  0  0  0  0  0  0  0  0  0
    4.1786    0.2619   -0.0748 H   0  0  0  0  0  0  0  0  0  0  0  0
    3.3082    2.5613    0.2733 H   0  0  0  0  0  0  0  0  0  0  0  0
    0.8950    2.9804    0.3077 H   0  0  0  0  0  0  0  0  0  0  0  0
    0.0498   -3.7121    1.5851 H   0  0  0  0  0  0  0  0  0  0  0  0
    2.4318   -4.2651    1.1907 H   0  0  0  0  0  0  0  0  0  0  0  0
    3.1445   -5.2633   -0.9659 H   0  0  0  0  0  0  0  0  0  0  0  0
    1.4531   -5.8628   -2.6776 H   0  0  0  0  0  0  0  0  0  0  0  0
   -0.9248   -5.3783   -2.2829 H   0  0  0  0  0  0  0  0  0  0  0  0
   -1.3561    2.8551    1.0887 H   0  0  0  0  0  0  0  0  0  0  0  0
   -1.3199    2.9665   -0.7006 H   0  0  0  0  0  0  0  0  0  0  0  0
   -2.7477    2.3272    0.1121 H   0  0  0  0  0  0  0  0  0  0  0  0
   -0.3433   -2.7704   -2.0560 H   0  0  0  0  0  0  0  0  0  0  0  0
   -3.8884   -4.6138   -0.7488 H   0  0  0  0  0  0  0  0  0  0  0  0
   -2.6750   -5.8711   -0.8699 H   0  0  0  0  0  0  0  0  0  0  0  0
   -3.7153   -4.6485    1.7431 H   0  0  0  0  0  0  0  0  0  0  0  0
   -4.0728   -6.2647    1.1068 H   0  0  0  0  0  0  0  0  0  0  0  0
   -2.4348   -5.8658    1.6497 H   0  0  0  0  0  0  0  0  0  0  0  0
  1  2  1  0  0  0  0
  1 10  1  0  0  0  0
  1 21  1  0  0  0  0
  2  3  1  0  0  0  0
  2 20  2  0  0  0  0
  3  4  2  0  0  0  0
  3 11  1  0  0  0  0
  4  5  1  0  0  0  0
  4 22  1  0  0  0  0
  5  6  1  0  0  0  0
  5 10  2  0  0  0  0
  6  7  2  0  0  0  0
  6 25  1  0  0  0  0
  7  8  1  0  0  0  0
  7 26  1  0  0  0  0
  8  9  2  0  0  0  0
  8 27  1  0  0  0  0
  9 10  1  0  0  0  0
  9 28  1  0  0  0  0
 11 12  2  0  0  0  0
 11 13  1  0  0  0  0
 13 14  1  0  0  0  0
 13 23  1  0  0  0  0
 14 15  2  0  0  0  0
 14 19  1  0  0  0  0
 15 16  1  0  0  0  0
 15 29  1  0  0  0  0
 16 17  2  0  0  0  0
 16 30  1  0  0  0  0
 17 18  1  0  0  0  0
 17 31  1  0  0  0  0
 18 19  2  0  0  0  0
 18 32  1  0  0  0  0
 19 33  1  0  0  0  0
 21 34  1  0  0  0  0
 21 35  1  0  0  0  0
 21 36  1  0  0  0  0
 22 37  1  0  0  0  0
 23 24  1  0  0  0  0
 23 38  1  0  0  0  0
 23 39  1  0  0  0  0
 24 40  1  0  0  0  0
 24 41  1  0  0  0  0
 24 42  1  0  0  0  0
M  END
>  <Mol_ID>
562

>  <Formula>
C19H17ClN2O3

>  <MolWeight>
356.80288

>  <Cat>
S2787

>  <Name>
Laquinimod

>  <Synonyms>
ABR-215062, LAQ

>  <Target>
Immunology & Inflammation related

>  <Form>
free base

>  <CAS>
248281-84-7

>  <URL>
http://selleckchem.com/products/laquinimod-abr-215062.html

$$$$
