Laropiprant
 OpenBabel08302521373D

 48 51  0  0  1  0  0  0  0  0999 V2000
    0.6034    0.0499    0.1862 C   0  0  0  0  0  0  0  0  0  0  0  0
    0.4328    3.5822    1.5806 S   0  0  0  0  0  0  0  0  0  0  0  0
   -1.0828    4.0912    0.8131 C   0  0  0  0  0  0  0  0  0  0  0  0
    0.9129    4.6962    2.3855 O   0  0  0  0  0  0  0  0  0  0  0  0
    1.3193    3.0317    0.5783 O   0  0  0  0  0  0  0  0  0  0  0  0
    1.6640   -3.2527    1.1685 C   0  0  0  0  0  0  0  0  0  0  0  0
    1.6421   -4.7535    0.9434 C   0  0  0  0  0  0  0  0  0  0  0  0
    2.8536   -5.3408    1.0537 O   0  0  0  0  0  0  0  0  0  0  0  0
    0.6397   -5.3971    0.6708 O   0  0  0  0  0  0  0  0  0  0  0  0
   -1.2725    2.6808    6.1738 F   0  0  0  0  0  0  0  0  0  0  0  0
    0.1683   -0.1294    1.5780 N   0  0  0  0  0  0  0  0  0  0  0  0
   -0.1018    0.8543    2.5849 C   0  0  0  0  0  0  0  0  0  0  0  0
    0.1581   -1.3726    2.1878 C   0  0  0  0  0  0  0  0  0  0  0  0
   -0.4711    0.1132    3.7474 C   0  0  0  0  0  0  0  0  0  0  0  0
   -0.0910    2.2865    2.7101 C   0  0  0  0  0  0  0  0  0  0  0  0
   -0.3034   -1.2314    3.4605 C   0  0  0  0  0  0  0  0  0  0  0  0
    0.3564   -2.8218    1.8268 C   0  0  2  0  0  0  0  0  0  0  0  0
   -0.8742    0.7230    4.9475 C   0  0  0  0  0  0  0  0  0  0  0  0
   -0.5116    2.8527    3.9540 C   0  0  0  0  0  0  0  0  0  0  0  0
   -0.4723   -2.4979    4.1905 C   0  0  0  0  0  0  0  0  0  0  0  0
    0.2971   -3.4766    3.2798 C   0  0  0  0  0  0  0  0  0  0  0  0
   -0.8987    2.0903    5.0321 C   0  0  0  0  0  0  0  0  0  0  0  0
   -0.4031   -0.0508   -0.9493 C   0  0  0  0  0  0  0  0  0  0  0  0
   -1.7954   -0.0504   -0.8173 C   0  0  0  0  0  0  0  0  0  0  0  0
    0.1255   -0.0778   -2.2631 C   0  0  0  0  0  0  0  0  0  0  0  0
   -2.6226   -0.0376   -1.9578 C   0  0  0  0  0  0  0  0  0  0  0  0
   -0.6966   -0.0614   -3.3954 C   0  0  0  0  0  0  0  0  0  0  0  0
   -2.0758   -0.0263   -3.2418 C   0  0  0  0  0  0  0  0  0  0  0  0
    1.3762   -0.7052    0.0161 H   0  0  0  0  0  0  0  0  0  0  0  0
    1.1163    0.9942    0.1112 H   0  0  0  0  0  0  0  0  0  0  0  0
   -1.8886    4.0672    1.5511 H   0  0  0  0  0  0  0  0  0  0  0  0
   -0.9546    5.1191    0.4627 H   0  0  0  0  0  0  0  0  0  0  0  0
   -1.3003    3.4259   -0.0219 H   0  0  0  0  0  0  0  0  0  0  0  0
    1.8158   -2.7842    0.1938 H   0  0  0  0  0  0  0  0  0  0  0  0
    2.5153   -2.9879    1.8071 H   0  0  0  0  0  0  0  0  0  0  0  0
    3.5867   -4.7364    1.2717 H   0  0  0  0  0  0  0  0  0  0  0  0
   -0.5140   -3.1587    1.2517 H   0  0  0  0  0  0  0  0  0  0  0  0
   -1.1377    0.1240    5.8136 H   0  0  0  0  0  0  0  0  0  0  0  0
   -0.5244    3.9311    4.1114 H   0  0  0  0  0  0  0  0  0  0  0  0
   -1.5296   -2.7680    4.2588 H   0  0  0  0  0  0  0  0  0  0  0  0
   -0.0400   -2.4618    5.1956 H   0  0  0  0  0  0  0  0  0  0  0  0
   -0.1564   -4.4721    3.2747 H   0  0  0  0  0  0  0  0  0  0  0  0
    1.3137   -3.5845    3.6869 H   0  0  0  0  0  0  0  0  0  0  0  0
   -2.2675   -0.0577    0.1610 H   0  0  0  0  0  0  0  0  0  0  0  0
    1.2030   -0.0975   -2.4187 H   0  0  0  0  0  0  0  0  0  0  0  0
   -3.7061   -0.0300   -1.8483 H   0  0  0  0  0  0  0  0  0  0  0  0
   -0.2591   -0.0652   -4.3917 H   0  0  0  0  0  0  0  0  0  0  0  0
   -2.7197    0.0068   -4.1180 H   0  0  0  0  0  0  0  0  0  0  0  0
  1 11  1  0  0  0  0
  1 23  1  0  0  0  0
  1 29  1  0  0  0  0
  1 30  1  0  0  0  0
  2  3  1  0  0  0  0
  2  4  2  0  0  0  0
  2  5  2  0  0  0  0
  2 15  1  0  0  0  0
  3 31  1  0  0  0  0
  3 32  1  0  0  0  0
  3 33  1  0  0  0  0
  6  7  1  0  0  0  0
  6 34  1  0  0  0  0
  6 35  1  0  0  0  0
  7  8  1  0  0  0  0
  7  9  2  0  0  0  0
  8 36  1  0  0  0  0
 10 22  1  0  0  0  0
 11 12  1  0  0  0  0
 11 13  1  0  0  0  0
 12 14  1  0  0  0  0
 12 15  2  0  0  0  0
 13 16  2  0  0  0  0
 13 17  1  0  0  0  0
 14 16  1  0  0  0  0
 14 18  2  0  0  0  0
 15 19  1  0  0  0  0
 16 20  1  0  0  0  0
 17 21  1  0  0  0  0
 17 37  1  6  0  0  0
 17  6  1  0  0  0  0
 18 22  1  0  0  0  0
 18 38  1  0  0  0  0
 19 22  2  0  0  0  0
 19 39  1  0  0  0  0
 20 21  1  0  0  0  0
 20 40  1  0  0  0  0
 20 41  1  0  0  0  0
 21 42  1  0  0  0  0
 21 43  1  0  0  0  0
 23 24  2  0  0  0  0
 23 25  1  0  0  0  0
 24 26  1  0  0  0  0
 24 44  1  0  0  0  0
 25 27  2  0  0  0  0
 25 45  1  0  0  0  0
 26 28  2  0  0  0  0
 26 46  1  0  0  0  0
 27 28  1  0  0  0  0
 27 47  1  0  0  0  0
 28 48  1  0  0  0  0
M  END
>  <Mol_ID>
7574

>  <Formula>
C21H19ClFNO4S

>  <MolWeight>
435.8962632

>  <Cat>
E2873

>  <Name>
Laropiprant

>  <Target>
Prostaglandin Receptor

>  <Form>
free base

>  <CAS>
571170-77-9

>  <URL>
https://www.selleckchem.com/products/laropiprant.html

$$$$
