Larotrectinib
 OpenBabel08302521303D

 53 57  0  0  0  0  0  0  0  0999 V2000
   -2.1792    0.8587    0.0852 C   0  0  0  0  0  0  0  0  0  0  0  0
   -2.2180   -0.6469    0.2353 C   0  0  0  0  0  0  0  0  0  0  0  0
   -1.1123   -1.3616    0.3171 N   0  0  0  0  0  0  0  0  0  0  0  0
    0.0821   -0.7238    0.0577 C   0  0  0  0  0  0  0  0  0  0  0  0
    0.1399    0.6422   -0.2393 N   0  0  0  0  0  0  0  0  0  0  0  0
   -0.9962    1.4246   -0.1624 C   0  0  0  0  0  0  0  0  0  0  0  0
    1.3716   -1.1887   -0.1324 C   0  0  0  0  0  0  0  0  0  0  0  0
    2.0839   -0.0862   -0.6481 C   0  0  0  0  0  0  0  0  0  0  0  0
    1.3734    1.0414   -0.6281 N   0  0  0  0  0  0  0  0  0  0  0  0
   -3.4630   -1.2622    0.2764 N   0  0  0  0  0  0  0  0  0  0  0  0
    1.8097   -2.4895    0.0894 N   0  0  0  0  0  0  0  0  0  0  0  0
    2.5646   -3.1450   -0.8597 C   0  0  0  0  0  0  0  0  0  0  0  0
    2.8174   -2.6848   -1.9718 O   0  0  0  0  0  0  0  0  0  0  0  0
    2.9960   -4.4003   -0.4927 N   0  0  0  0  0  0  0  0  0  0  0  0
    3.0690   -4.9806    0.8337 C   0  0  0  0  0  0  0  0  0  0  0  0
    4.2898   -5.8840    0.7482 C   0  0  0  0  0  0  0  0  0  0  0  0
    4.2651   -6.4065   -0.6896 C   0  0  1  0  0  0  0  0  0  0  0  0
    3.5088   -5.3336   -1.4837 C   0  0  0  0  0  0  0  0  0  0  0  0
   -3.6568   -2.7140    0.3901 C   0  0  2  0  0  0  0  0  0  0  0  0
   -4.8451   -2.9503   -0.5632 C   0  0  0  0  0  0  0  0  0  0  0  0
   -5.7218   -1.7281   -0.3464 C   0  0  0  0  0  0  0  0  0  0  0  0
   -4.7194   -0.6069   -0.1001 C   0  0  0  0  0  0  0  0  0  0  0  0
   -3.9576   -3.1028    1.8265 C   0  0  0  0  0  0  0  0  0  0  0  0
   -3.9992   -2.1616    2.8736 C   0  0  0  0  0  0  0  0  0  0  0  0
   -4.2945   -2.5509    4.1744 C   0  0  0  0  0  0  0  0  0  0  0  0
   -4.5460   -3.8839    4.4788 C   0  0  0  0  0  0  0  0  0  0  0  0
   -4.4979   -4.8357    3.4631 C   0  0  0  0  0  0  0  0  0  0  0  0
   -4.2032   -4.4490    2.1574 C   0  0  0  0  0  0  0  0  0  0  0  0
   -4.3397   -1.6298    5.1427 F   0  0  0  0  0  0  0  0  0  0  0  0
   -4.1664   -5.3828    1.2009 F   0  0  0  0  0  0  0  0  0  0  0  0
    5.5914   -6.5997   -1.1651 O   0  0  0  0  0  0  0  0  0  0  0  0
   -3.0893    1.4342    0.1501 H   0  0  0  0  0  0  0  0  0  0  0  0
   -0.8633    2.4838   -0.3307 H   0  0  0  0  0  0  0  0  0  0  0  0
    3.1053   -0.0534   -1.0039 H   0  0  0  0  0  0  0  0  0  0  0  0
    1.1771   -3.0686    0.6223 H   0  0  0  0  0  0  0  0  0  0  0  0
    2.1573   -5.5671    0.9928 H   0  0  0  0  0  0  0  0  0  0  0  0
    3.1578   -4.2216    1.6154 H   0  0  0  0  0  0  0  0  0  0  0  0
    5.2075   -5.3095    0.9292 H   0  0  0  0  0  0  0  0  0  0  0  0
    4.2676   -6.6947    1.4835 H   0  0  0  0  0  0  0  0  0  0  0  0
    3.7424   -7.3675   -0.7469 H   0  0  0  0  0  0  0  0  0  0  0  0
    4.1161   -4.8279   -2.2396 H   0  0  0  0  0  0  0  0  0  0  0  0
    2.6370   -5.7783   -1.9777 H   0  0  0  0  0  0  0  0  0  0  0  0
   -2.7867   -3.2796    0.0355 H   0  0  0  0  0  0  0  0  0  0  0  0
   -4.4891   -2.9505   -1.6025 H   0  0  0  0  0  0  0  0  0  0  0  0
   -5.3921   -3.8829   -0.3987 H   0  0  0  0  0  0  0  0  0  0  0  0
   -6.3670   -1.5150   -1.2047 H   0  0  0  0  0  0  0  0  0  0  0  0
   -6.3673   -1.8658    0.5284 H   0  0  0  0  0  0  0  0  0  0  0  0
   -4.5953   -0.0116   -1.0104 H   0  0  0  0  0  0  0  0  0  0  0  0
   -5.0684    0.0473    0.7066 H   0  0  0  0  0  0  0  0  0  0  0  0
   -3.8002   -1.1081    2.6957 H   0  0  0  0  0  0  0  0  0  0  0  0
   -4.7691   -4.1651    5.5021 H   0  0  0  0  0  0  0  0  0  0  0  0
   -4.6874   -5.8841    3.6820 H   0  0  0  0  0  0  0  0  0  0  0  0
    6.0156   -5.7254   -1.2360 H   0  0  0  0  0  0  0  0  0  0  0  0
  1  2  1  0  0  0  0
  1 32  1  0  0  0  0
  2  3  2  0  0  0  0
  2 10  1  0  0  0  0
  4  5  1  0  0  0  0
  4  7  2  0  0  0  0
  4  3  1  0  0  0  0
  6  1  2  0  0  0  0
  6  5  1  0  0  0  0
  6 33  1  0  0  0  0
  7  8  1  0  0  0  0
  7 11  1  0  0  0  0
  8  9  2  0  0  0  0
  8 34  1  0  0  0  0
  9  5  1  0  0  0  0
 10 19  1  0  0  0  0
 11 12  1  0  0  0  0
 11 35  1  0  0  0  0
 12 13  2  0  0  0  0
 12 14  1  0  0  0  0
 14 15  1  0  0  0  0
 15 16  1  0  0  0  0
 15 36  1  0  0  0  0
 15 37  1  0  0  0  0
 16 17  1  0  0  0  0
 16 38  1  0  0  0  0
 16 39  1  0  0  0  0
 17 18  1  0  0  0  0
 17 31  1  0  0  0  0
 17 40  1  6  0  0  0
 18 14  1  0  0  0  0
 18 41  1  0  0  0  0
 18 42  1  0  0  0  0
 19 20  1  0  0  0  0
 19 23  1  0  0  0  0
 19 43  1  6  0  0  0
 20 21  1  0  0  0  0
 20 44  1  0  0  0  0
 20 45  1  0  0  0  0
 21 22  1  0  0  0  0
 21 46  1  0  0  0  0
 21 47  1  0  0  0  0
 22 10  1  0  0  0  0
 22 48  1  0  0  0  0
 22 49  1  0  0  0  0
 23 24  2  0  0  0  0
 24 25  1  0  0  0  0
 24 50  1  0  0  0  0
 25 26  2  0  0  0  0
 25 29  1  0  0  0  0
 26 27  1  0  0  0  0
 26 51  1  0  0  0  0
 27 28  2  0  0  0  0
 27 52  1  0  0  0  0
 28 23  1  0  0  0  0
 28 30  1  0  0  0  0
 31 53  1  0  0  0  0
M  END
>  <Mol_ID>
5686

>  <Formula>
C21H22F2N6O2

>  <MolWeight>
428.4351864

>  <Cat>
S5860

>  <Name>
Larotrectinib

>  <Synonyms>
Vitrakvi, LOXO-101, ARRY-470

>  <Target>
Trk receptor

>  <Form>
Free Base

>  <CAS>
1223403-58-4

>  <URL>
http://www.selleckchem.com/products/larotrectinib.html

$$$$
