Lasiokaurin
 OpenBabel08302522042D

 59 63  0  0  1  0  0  0  0  0999 V2000
    3.8765    5.3708    0.0000 O   0  0  0  0  0  0  0  0  0  0  0  0
    3.8761    1.3143    0.0000 O   0  0  0  0  0  0  0  0  0  0  0  0
    2.0568    4.5889    0.0000 O   0  0  0  0  0  0  0  0  0  0  0  0
    3.6066    4.6039    0.0000 O   0  0  0  0  0  0  0  0  0  0  0  0
    0.0000    2.2543    0.0000 C   0  0  0  0  0  0  0  0  0  0  0  0
    8.9837    2.2121    0.0000 O   0  0  0  0  0  0  0  0  0  0  0  0
   10.1962    2.9121    0.0000 C   0  0  0  0  0  0  0  0  0  0  0  0
   11.4087    2.2121    0.0000 C   0  0  0  0  0  0  0  0  0  0  0  0
   10.1962    4.3120    0.0000 O   0  0  0  0  0  0  0  0  0  0  0  0
    3.9678    4.0689    0.0000 C   0  0  0  0  0  0  0  0  0  0  0  0
    4.8677    5.6276    0.0000 C   0  0  0  0  0  0  0  0  0  0  0  0
    3.8811    2.8142    0.0000 C   0  0  1  0  0  0  0  0  0  0  0  0
    5.0579    1.6313    0.0000 C   0  0  2  0  0  0  0  0  0  0  0  0
    4.7764    4.2983    0.0000 C   0  0  2  0  0  0  0  0  0  0  0  0
    2.8503    2.2670    0.0000 C   0  0  3  0  0  0  0  0  0  0  0  0
    2.4182    3.2364    0.0000 C   0  0  0  0  0  0  0  0  0  0  0  0
    6.5590    2.2121    0.0000 C   0  0  1  0  0  0  0  0  0  0  0  0
    4.6644    0.2394    0.0000 C   0  0  0  0  0  0  0  0  0  0  0  0
    4.8744    4.0102    0.0000 C   0  0  3  0  0  0  0  0  0  0  0  0
    6.1564    4.8306    0.0000 O   0  0  0  0  0  0  0  0  0  0  0  0
    2.3017    1.0189    0.0000 C   0  0  2  0  0  0  0  0  0  0  0  0
    1.3980    2.1799    0.0000 C   0  0  0  0  0  0  0  0  0  0  0  0
    5.3465    2.9121    0.0000 C   0  0  3  0  0  0  0  0  0  0  0  0
    7.7714    2.9121    0.0000 C   0  0  3  0  0  0  0  0  0  0  0  0
    7.3142    3.5558    0.0000 C   0  0  0  0  0  0  0  0  0  0  0  0
    3.2691    0.0000    0.0000 C   0  0  0  0  0  0  0  0  0  0  0  0
    5.3465    4.3120    0.0000 C   0  0  0  0  0  0  0  0  0  0  0  0
    7.7714    4.3120    0.0000 C   0  0  0  0  0  0  0  0  0  0  0  0
    6.5590    5.0120    0.0000 C   0  0  0  0  0  0  0  0  0  0  0  0
    4.2083    6.2823    0.0000 H   0  0  0  0  0  0  0  0  0  0  0  0
    3.6598    0.3687    0.0000 H   0  0  0  0  0  0  0  0  0  0  0  0
    3.5236    5.5703    0.0000 H   0  0  0  0  0  0  0  0  0  0  0  0
   -0.4678    3.1742    0.0000 H   0  0  0  0  0  0  0  0  0  0  0  0
   -0.5628    1.3892    0.0000 H   0  0  0  0  0  0  0  0  0  0  0  0
   11.4087    1.1421    0.0000 H   0  0  0  0  0  0  0  0  0  0  0  0
   12.3353    2.7471    0.0000 H   0  0  0  0  0  0  0  0  0  0  0  0
   12.3354    1.6771    0.0000 H   0  0  0  0  0  0  0  0  0  0  0  0
    3.2800    4.8886    0.0000 H   0  0  0  0  0  0  0  0  0  0  0  0
    3.6018    3.0634    0.0000 H   0  0  0  0  0  0  0  0  0  0  0  0
    2.9141    3.8831    0.0000 H   0  0  0  0  0  0  0  0  0  0  0  0
    5.5555    6.4472    0.0000 H   0  0  0  0  0  0  0  0  0  0  0  0
    3.8140    5.8134    0.0000 H   0  0  0  0  0  0  0  0  0  0  0  0
    4.5018    6.6331    0.0000 H   0  0  0  0  0  0  0  0  0  0  0  0
    4.0221    1.3628    0.0000 H   0  0  0  0  0  0  0  0  0  0  0  0
    3.9112    2.1281    0.0000 H   0  0  0  0  0  0  0  0  0  0  0  0
    5.3800   -0.5561    0.0000 H   0  0  0  0  0  0  0  0  0  0  0  0
    4.3135   -0.7714    0.0000 H   0  0  0  0  0  0  0  0  0  0  0  0
    4.1606    4.8073    0.0000 H   0  0  0  0  0  0  0  0  0  0  0  0
    3.3558    1.2027    0.0000 H   0  0  0  0  0  0  0  0  0  0  0  0
    6.1462    3.6230    0.0000 H   0  0  0  0  0  0  0  0  0  0  0  0
    7.7714    1.8421    0.0000 H   0  0  0  0  0  0  0  0  0  0  0  0
    8.3774    3.6761    0.0000 H   0  0  0  0  0  0  0  0  0  0  0  0
    7.6915    4.5571    0.0000 H   0  0  0  0  0  0  0  0  0  0  0  0
    2.9318   -1.0154    0.0000 H   0  0  0  0  0  0  0  0  0  0  0  0
    2.2247   -0.2329    0.0000 H   0  0  0  0  0  0  0  0  0  0  0  0
    8.6981    4.8470    0.0000 H   0  0  0  0  0  0  0  0  0  0  0  0
    7.7714    5.3820    0.0000 H   0  0  0  0  0  0  0  0  0  0  0  0
    6.5590    6.0820    0.0000 H   0  0  0  0  0  0  0  0  0  0  0  0
    7.4857    5.5470    0.0000 H   0  0  0  0  0  0  0  0  0  0  0  0
  1 30  1  0  0  0  0
  2 15  1  0  0  0  0
  2 31  1  0  0  0  0
  3 16  2  0  0  0  0
  4 32  1  0  0  0  0
  5 22  2  0  0  0  0
  5 33  1  0  0  0  0
  5 34  1  0  0  0  0
  6  7  1  0  0  0  0
  6 24  1  0  0  0  0
  7  8  1  0  0  0  0
  7  9  2  0  0  0  0
  8 35  1  0  0  0  0
  8 36  1  0  0  0  0
  8 37  1  0  0  0  0
 10 27  1  0  0  0  0
 10 38  1  0  0  0  0
 10 39  1  0  0  0  0
 10 40  1  0  0  0  0
 11 27  1  0  0  0  0
 11 41  1  0  0  0  0
 11 42  1  0  0  0  0
 11 43  1  0  0  0  0
 12 13  1  0  0  0  0
 12 14  1  0  0  0  0
 12 15  1  0  0  0  0
 12 16  1  1  0  0  0
 13 17  1  0  0  0  0
 13 18  1  0  0  0  0
 13 44  1  1  0  0  0
 14  1  1  1  0  0  0
 14 19  1  0  0  0  0
 14 20  1  0  0  0  0
 15 21  1  0  0  0  0
 15 45  1  0  0  0  0
 16 22  1  0  0  0  0
 17 23  1  0  0  0  0
 17 24  1  0  0  0  0
 17 25  1  6  0  0  0
 18 26  1  0  0  0  0
 18 46  1  0  0  0  0
 18 47  1  0  0  0  0
 19  4  1  0  0  0  0
 19 23  1  0  0  0  0
 19 48  1  0  0  0  0
 20 25  1  0  0  0  0
 21 22  1  0  0  0  0
 21 26  1  0  0  0  0
 21 49  1  6  0  0  0
 23 27  1  0  0  0  0
 23 50  1  0  0  0  0
 24 28  1  0  0  0  0
 24 51  1  0  0  0  0
 25 52  1  0  0  0  0
 25 53  1  0  0  0  0
 26 54  1  0  0  0  0
 26 55  1  0  0  0  0
 27 29  1  0  0  0  0
 28 29  1  0  0  0  0
 28 56  1  0  0  0  0
 28 57  1  0  0  0  0
 29 58  1  0  0  0  0
 29 59  1  0  0  0  0
M  END
>  <Mol_ID>
10008

>  <Formula>
C22H30O7

>  <MolWeight>
406.4694

>  <Cat>
E5453

>  <Name>
Lasiokaurin

>  <Synonyms>
Ananolignan A

>  <Target>
Antitumor, Antibacterial

>  <Form>
Free Base

>  <CAS>
28957-08-6

>  <URL>
https://www.selleckchem.com/products/lasiokaurin.html

$$$$
