LAUROLITSINE
 OpenBabel08302521493D

 42 45  0  0  1  0  0  0  0  0999 V2000
    1.0379    0.1203    0.1134 O   0  0  0  0  0  0  0  0  0  0  0  0
    0.2762    1.3072    0.2645 C   0  0  0  0  0  0  0  0  0  0  0  0
    2.5661    2.5944    0.2219 O   0  0  0  0  0  0  0  0  0  0  0  0
   -0.9243   -3.7363   -1.0067 O   0  0  0  0  0  0  0  0  0  0  0  0
   -1.7814   -4.8558   -1.0894 C   0  0  0  0  0  0  0  0  0  0  0  0
    0.6951   -6.2764   -0.2208 O   0  0  0  0  0  0  0  0  0  0  0  0
    4.5044   -1.0682   -0.1731 C   0  0  0  0  0  0  0  0  0  0  0  0
    3.0708   -1.0760   -0.1557 C   0  0  0  0  0  0  0  0  0  0  0  0
    5.2605   -2.3814   -0.3148 C   0  0  2  0  0  0  0  0  0  0  0  0
    5.2288    0.1384   -0.1089 C   0  0  0  0  0  0  0  0  0  0  0  0
    2.3791   -2.4128   -0.2430 C   0  0  0  0  0  0  0  0  0  0  0  0
    2.4053    0.1776   -0.0023 C   0  0  0  0  0  0  0  0  0  0  0  0
    4.5469   -3.4989    0.4565 C   0  0  0  0  0  0  0  0  0  0  0  0
    6.6553   -2.3164    0.1713 N   0  0  0  0  0  0  0  0  0  0  0  0
    4.5524    1.3451    0.0107 C   0  0  0  0  0  0  0  0  0  0  0  0
    6.7396    0.1396   -0.0718 C   0  0  0  0  0  0  0  0  0  0  0  0
    3.0958   -3.5864    0.0632 C   0  0  0  0  0  0  0  0  0  0  0  0
    1.0358   -2.6020   -0.6281 C   0  0  0  0  0  0  0  0  0  0  0  0
    3.1572    1.3684    0.0689 C   0  0  0  0  0  0  0  0  0  0  0  0
    7.3624   -1.2026   -0.4534 C   0  0  0  0  0  0  0  0  0  0  0  0
    2.4695   -4.8422    0.0566 C   0  0  0  0  0  0  0  0  0  0  0  0
    0.3857   -3.8590   -0.6399 C   0  0  0  0  0  0  0  0  0  0  0  0
    1.1253   -4.9836   -0.2839 C   0  0  0  0  0  0  0  0  0  0  0  0
    0.4334    1.7480    1.2537 H   0  0  0  0  0  0  0  0  0  0  0  0
    0.4617    2.0191   -0.5452 H   0  0  0  0  0  0  0  0  0  0  0  0
   -0.7807    1.0315    0.1951 H   0  0  0  0  0  0  0  0  0  0  0  0
    3.2487    3.2795    0.2876 H   0  0  0  0  0  0  0  0  0  0  0  0
   -1.4839   -5.5073   -1.9170 H   0  0  0  0  0  0  0  0  0  0  0  0
   -1.8383   -5.3929   -0.1382 H   0  0  0  0  0  0  0  0  0  0  0  0
   -2.7901   -4.4922   -1.3100 H   0  0  0  0  0  0  0  0  0  0  0  0
   -0.1862   -6.3611   -0.5924 H   0  0  0  0  0  0  0  0  0  0  0  0
    5.2737   -2.6322   -1.3859 H   0  0  0  0  0  0  0  0  0  0  0  0
    4.5969   -3.3298    1.5401 H   0  0  0  0  0  0  0  0  0  0  0  0
    5.0475   -4.4539    0.2471 H   0  0  0  0  0  0  0  0  0  0  0  0
    7.1242   -3.1902   -0.0620 H   0  0  0  0  0  0  0  0  0  0  0  0
    5.1226    2.2666    0.0886 H   0  0  0  0  0  0  0  0  0  0  0  0
    7.0487    0.4058    0.9466 H   0  0  0  0  0  0  0  0  0  0  0  0
    7.1228    0.9110   -0.7502 H   0  0  0  0  0  0  0  0  0  0  0  0
    0.4369   -1.7507   -0.9421 H   0  0  0  0  0  0  0  0  0  0  0  0
    8.4078   -1.2115   -0.1243 H   0  0  0  0  0  0  0  0  0  0  0  0
    7.3738   -1.3264   -1.5437 H   0  0  0  0  0  0  0  0  0  0  0  0
    3.0386   -5.7325    0.3207 H   0  0  0  0  0  0  0  0  0  0  0  0
  1  2  1  0  0  0  0
  1 12  1  0  0  0  0
  2 24  1  0  0  0  0
  2 25  1  0  0  0  0
  2 26  1  0  0  0  0
  3 19  1  0  0  0  0
  3 27  1  0  0  0  0
  4  5  1  0  0  0  0
  4 22  1  0  0  0  0
  5 28  1  0  0  0  0
  5 29  1  0  0  0  0
  5 30  1  0  0  0  0
  6 23  1  0  0  0  0
  6 31  1  0  0  0  0
  7  8  1  0  0  0  0
  7  9  1  0  0  0  0
  7 10  2  0  0  0  0
  8 11  1  0  0  0  0
  8 12  2  0  0  0  0
  9 13  1  0  0  0  0
  9 14  1  0  0  0  0
  9 32  1  6  0  0  0
 10 15  1  0  0  0  0
 10 16  1  0  0  0  0
 11 17  2  0  0  0  0
 11 18  1  0  0  0  0
 12 19  1  0  0  0  0
 13 17  1  0  0  0  0
 13 33  1  0  0  0  0
 13 34  1  0  0  0  0
 14 20  1  0  0  0  0
 14 35  1  0  0  0  0
 15 19  2  0  0  0  0
 15 36  1  0  0  0  0
 16 20  1  0  0  0  0
 16 37  1  0  0  0  0
 16 38  1  0  0  0  0
 17 21  1  0  0  0  0
 18 22  2  0  0  0  0
 18 39  1  0  0  0  0
 20 40  1  0  0  0  0
 20 41  1  0  0  0  0
 21 23  2  0  0  0  0
 21 42  1  0  0  0  0
 22 23  1  0  0  0  0
M  END
>  <Mol_ID>
9850

>  <Formula>
C18H19NO4

>  <MolWeight>
313.34776

>  <Cat>
E2538

>  <Name>
LAUROLITSINE

>  <Synonyms>
(+)-Norboldine

>  <Target>
Prostaglandin Receptor

>  <Form>
free base

>  <CAS>
5890-18-6

>  <URL>
https://www.selleckchem.com/products/laurolitsine.html

$$$$
