LB-100.cdx
 OpenBabel08302521363D

 39 41  0  0  0  0  0  0  0  0999 V2000
    3.2609   -1.9370    0.1536 C   0  0  0  0  0  0  0  0  0  0  0  0
    2.4710   -2.2063    1.4306 C   0  0  0  0  0  0  0  0  0  0  0  0
    1.6553   -0.9239    1.5825 C   0  0  3  0  0  0  0  0  0  0  0  0
    0.5131   -0.7856    0.5731 C   0  0  3  0  0  0  0  0  0  0  0  0
    1.2558   -0.5258   -0.7472 C   0  0  3  0  0  0  0  0  0  0  0  0
    2.7254   -0.5743   -0.2828 C   0  0  3  0  0  0  0  0  0  0  0  0
    0.9097   -1.4089   -1.9275 C   0  0  0  0  0  0  0  0  0  0  0  0
    1.5605   -2.4336   -2.1363 O   0  0  0  0  0  0  0  0  0  0  0  0
   -0.1919   -1.1029   -2.6973 N   0  0  0  0  0  0  0  0  0  0  0  0
   -0.4778   -1.9146   -3.8861 C   0  0  0  0  0  0  0  0  0  0  0  0
   -0.8893   -1.0293   -5.0785 C   0  0  0  0  0  0  0  0  0  0  0  0
   -1.9821   -0.0755   -4.8007 N   0  0  0  0  0  0  0  0  0  0  0  0
   -1.7180    0.6698   -3.5532 C   0  0  0  0  0  0  0  0  0  0  0  0
   -1.2734   -0.1778   -2.3429 C   0  0  0  0  0  0  0  0  0  0  0  0
   -3.2848   -0.7345   -4.7854 C   0  0  0  0  0  0  0  0  0  0  0  0
   -0.5398   -1.8602    0.7142 C   0  0  0  0  0  0  0  0  0  0  0  0
   -0.3423   -3.0218    0.0734 O   0  0  0  0  0  0  0  0  0  0  0  0
   -1.5289   -1.6986    1.4181 O   0  0  0  0  0  0  0  0  0  0  0  0
    2.5913    0.0448    1.0320 O   0  0  0  0  0  0  0  0  0  0  0  0
    4.3248   -1.8470    0.4068 H   0  0  0  0  0  0  0  0  0  0  0  0
    3.1815   -2.7380   -0.5807 H   0  0  0  0  0  0  0  0  0  0  0  0
    1.8703   -3.1170    1.3843 H   0  0  0  0  0  0  0  0  0  0  0  0
    3.1734   -2.3166    2.2654 H   0  0  0  0  0  0  0  0  0  0  0  0
    1.3841   -0.6887    2.6147 H   0  0  0  0  0  0  0  0  0  0  0  0
   -0.0102    0.1556    0.7998 H   0  0  0  0  0  0  0  0  0  0  0  0
    1.0797    0.5159   -1.0494 H   0  0  0  0  0  0  0  0  0  0  0  0
    3.4113   -0.0088   -0.9174 H   0  0  0  0  0  0  0  0  0  0  0  0
    0.3959   -2.5102   -4.1722 H   0  0  0  0  0  0  0  0  0  0  0  0
   -1.2787   -2.6149   -3.6225 H   0  0  0  0  0  0  0  0  0  0  0  0
   -0.0138   -0.4436   -5.3893 H   0  0  0  0  0  0  0  0  0  0  0  0
   -1.1421   -1.6610   -5.9391 H   0  0  0  0  0  0  0  0  0  0  0  0
   -0.9189    1.3903   -3.7701 H   0  0  0  0  0  0  0  0  0  0  0  0
   -2.5924    1.2710   -3.2760 H   0  0  0  0  0  0  0  0  0  0  0  0
   -2.1073   -0.7921   -1.9820 H   0  0  0  0  0  0  0  0  0  0  0  0
   -0.9850    0.4809   -1.5224 H   0  0  0  0  0  0  0  0  0  0  0  0
   -3.3755   -1.4927   -4.0019 H   0  0  0  0  0  0  0  0  0  0  0  0
   -4.0828    0.0032   -4.6463 H   0  0  0  0  0  0  0  0  0  0  0  0
   -3.4772   -1.2140   -5.7525 H   0  0  0  0  0  0  0  0  0  0  0  0
    0.4620   -3.1390   -0.4741 H   0  0  0  0  0  0  0  0  0  0  0  0
  1  2  1  0  0  0  0
  1 20  1  0  0  0  0
  1 21  1  0  0  0  0
  2  3  1  0  0  0  0
  2 22  1  0  0  0  0
  2 23  1  0  0  0  0
  3  4  1  0  0  0  0
  3 24  1  0  0  0  0
  4  5  1  0  0  0  0
  4 16  1  0  0  0  0
  4 25  1  0  0  0  0
  5  6  1  0  0  0  0
  5  7  1  0  0  0  0
  5 26  1  0  0  0  0
  6  1  1  0  0  0  0
  6 19  1  0  0  0  0
  6 27  1  0  0  0  0
  7  8  2  0  0  0  0
  7  9  1  0  0  0  0
  9 10  1  0  0  0  0
 10 11  1  0  0  0  0
 10 28  1  0  0  0  0
 10 29  1  0  0  0  0
 11 12  1  0  0  0  0
 11 30  1  0  0  0  0
 11 31  1  0  0  0  0
 12 13  1  0  0  0  0
 12 15  1  0  0  0  0
 13 14  1  0  0  0  0
 13 32  1  0  0  0  0
 13 33  1  0  0  0  0
 14  9  1  0  0  0  0
 14 34  1  0  0  0  0
 14 35  1  0  0  0  0
 15 36  1  0  0  0  0
 15 37  1  0  0  0  0
 15 38  1  0  0  0  0
 16 17  1  0  0  0  0
 16 18  2  0  0  0  0
 17 39  1  0  0  0  0
 19  3  1  0  0  0  0
M  END
>  <Mol_ID>
7138

>  <Formula>
C13H20N2O4

>  <MolWeight>
268.3089

>  <Cat>
S7537

>  <Name>
LB-100

>  <Synonyms>
N/A

>  <Target>
PP2A

>  <Form>
free base

>  <CAS>
1026680-07-8

>  <URL>
http://selleckchem.com/products/lb-100.html

$$$$
