LCH-7749944
 OpenBabel08302521313D

 48 51  0  0  0  0  0  0  0  0999 V2000
   -1.4160   -1.1324   -1.3632 O   0  0  0  0  0  0  0  0  0  0  0  0
   -0.9444  -10.7843    4.4617 O   0  0  0  0  0  0  0  0  0  0  0  0
   -0.4795   -2.8905    1.8058 N   0  0  0  0  0  0  0  0  0  0  0  0
   -0.4097   -5.1989    1.2929 N   0  0  0  0  0  0  0  0  0  0  0  0
    0.9865   -6.6835    2.4793 N   0  0  0  0  0  0  0  0  0  0  0  0
   -0.5122   -7.4846    0.8541 N   0  0  0  0  0  0  0  0  0  0  0  0
   -0.9219   -1.2286   -0.0071 C   0  0  3  0  0  0  0  0  0  0  0  0
    0.4782   -0.6271   -0.0335 C   0  0  0  0  0  0  0  0  0  0  0  0
    0.9467   -0.9158   -1.4370 C   0  0  0  0  0  0  0  0  0  0  0  0
   -0.3303   -0.7836   -2.2352 C   0  0  0  0  0  0  0  0  0  0  0  0
   -0.9660   -2.7089    0.4255 C   0  0  0  0  0  0  0  0  0  0  0  0
    0.0545   -4.1823    2.0473 C   0  0  0  0  0  0  0  0  0  0  0  0
    0.9770   -4.3794    3.0920 C   0  0  0  0  0  0  0  0  0  0  0  0
    1.4467   -5.6870    3.2282 C   0  0  0  0  0  0  0  0  0  0  0  0
    1.4799   -3.3824    3.9718 C   0  0  0  0  0  0  0  0  0  0  0  0
    0.0478   -6.4205    1.5604 C   0  0  0  0  0  0  0  0  0  0  0  0
    2.4104   -5.9772    4.1831 C   0  0  0  0  0  0  0  0  0  0  0  0
    2.4438   -3.6946    4.9323 C   0  0  0  0  0  0  0  0  0  0  0  0
    2.9196   -4.9970    5.0341 C   0  0  0  0  0  0  0  0  0  0  0  0
   -0.6755   -8.7990    1.3185 C   0  0  0  0  0  0  0  0  0  0  0  0
   -0.7874   -9.0915    2.6879 C   0  0  0  0  0  0  0  0  0  0  0  0
   -0.6532   -9.8555    0.4069 C   0  0  0  0  0  0  0  0  0  0  0  0
   -0.8404  -10.4048    3.1503 C   0  0  0  0  0  0  0  0  0  0  0  0
   -0.6889  -11.1750    0.8588 C   0  0  0  0  0  0  0  0  0  0  0  0
   -0.7778  -11.4468    2.2257 C   0  0  0  0  0  0  0  0  0  0  0  0
   -1.0023   -9.7327    5.4208 C   0  0  0  0  0  0  0  0  0  0  0  0
   -1.2314   -2.7673    2.4828 H   0  0  0  0  0  0  0  0  0  0  0  0
   -1.1500   -7.1680    0.1431 H   0  0  0  0  0  0  0  0  0  0  0  0
   -1.5817   -0.6383    0.6386 H   0  0  0  0  0  0  0  0  0  0  0  0
    0.4081    0.4592    0.1028 H   0  0  0  0  0  0  0  0  0  0  0  0
    1.1514   -1.0152    0.7352 H   0  0  0  0  0  0  0  0  0  0  0  0
    1.7340   -0.2402   -1.7826 H   0  0  0  0  0  0  0  0  0  0  0  0
    1.3284   -1.9410   -1.5022 H   0  0  0  0  0  0  0  0  0  0  0  0
   -0.4864    0.2481   -2.5674 H   0  0  0  0  0  0  0  0  0  0  0  0
   -0.3391   -1.4341   -3.1154 H   0  0  0  0  0  0  0  0  0  0  0  0
   -1.9983   -3.0733    0.3306 H   0  0  0  0  0  0  0  0  0  0  0  0
   -0.3679   -3.2872   -0.2905 H   0  0  0  0  0  0  0  0  0  0  0  0
    1.1201   -2.3629    3.8992 H   0  0  0  0  0  0  0  0  0  0  0  0
    2.7764   -7.0014    4.2659 H   0  0  0  0  0  0  0  0  0  0  0  0
    2.8306   -2.9227    5.5956 H   0  0  0  0  0  0  0  0  0  0  0  0
    3.6712   -5.2563    5.7699 H   0  0  0  0  0  0  0  0  0  0  0  0
   -0.8285   -8.2636    3.3879 H   0  0  0  0  0  0  0  0  0  0  0  0
   -0.5496   -9.6554   -0.6561 H   0  0  0  0  0  0  0  0  0  0  0  0
   -0.6270  -11.9934    0.1469 H   0  0  0  0  0  0  0  0  0  0  0  0
   -0.7890  -12.4758    2.5735 H   0  0  0  0  0  0  0  0  0  0  0  0
   -0.0719   -9.1549    5.4276 H   0  0  0  0  0  0  0  0  0  0  0  0
   -1.8688   -9.0849    5.2487 H   0  0  0  0  0  0  0  0  0  0  0  0
   -1.1217  -10.1846    6.4100 H   0  0  0  0  0  0  0  0  0  0  0  0
  1  7  1  0  0  0  0
  1 10  1  0  0  0  0
  2 23  1  0  0  0  0
  2 26  1  0  0  0  0
  3 11  1  0  0  0  0
  3 12  1  0  0  0  0
  3 27  1  0  0  0  0
  4 12  2  0  0  0  0
  4 16  1  0  0  0  0
  5 14  1  0  0  0  0
  5 16  2  0  0  0  0
  6 16  1  0  0  0  0
  6 20  1  0  0  0  0
  6 28  1  0  0  0  0
  7  8  1  0  0  0  0
  7 11  1  0  0  0  0
  7 29  1  0  0  0  0
  8  9  1  0  0  0  0
  8 30  1  0  0  0  0
  8 31  1  0  0  0  0
  9 10  1  0  0  0  0
  9 32  1  0  0  0  0
  9 33  1  0  0  0  0
 10 34  1  0  0  0  0
 10 35  1  0  0  0  0
 11 36  1  0  0  0  0
 11 37  1  0  0  0  0
 12 13  1  0  0  0  0
 13 14  2  0  0  0  0
 13 15  1  0  0  0  0
 14 17  1  0  0  0  0
 15 18  2  0  0  0  0
 15 38  1  0  0  0  0
 17 19  2  0  0  0  0
 17 39  1  0  0  0  0
 18 19  1  0  0  0  0
 18 40  1  0  0  0  0
 19 41  1  0  0  0  0
 20 21  2  0  0  0  0
 20 22  1  0  0  0  0
 21 23  1  0  0  0  0
 21 42  1  0  0  0  0
 22 24  2  0  0  0  0
 22 43  1  0  0  0  0
 23 25  2  0  0  0  0
 24 25  1  0  0  0  0
 24 44  1  0  0  0  0
 25 45  1  0  0  0  0
 26 46  1  0  0  0  0
 26 47  1  0  0  0  0
 26 48  1  0  0  0  0
M  END
>  <Mol_ID>
5864

>  <Formula>
C20H22N4O2

>  <MolWeight>
350.41428

>  <Cat>
S1976

>  <Name>
LCH-7749944

>  <Synonyms>
GNF-PF-2356

>  <Target>
PAK

>  <Form>
Free Base

>  <CAS>
796888-12-5

>  <URL>
http://www.selleckchem.com/products/lch-7749944.html

$$$$
