LCS-1
 OpenBabel08302521343D

 24 25  0  0  0  0  0  0  0  0999 V2000
    0.0371   -1.3544   -0.5168 C   0  0  0  0  0  0  0  0  0  0  0  0
   -1.2255   -0.5779   -0.5043 C   0  0  0  0  0  0  0  0  0  0  0  0
   -1.2762    0.6512   -0.0002 C   0  0  0  0  0  0  0  0  0  0  0  0
   -0.0203    1.1859    0.5335 C   0  0  0  0  0  0  0  0  0  0  0  0
    1.0998    0.5492    0.6097 N   0  0  0  0  0  0  0  0  0  0  0  0
    1.1409   -0.7379    0.0883 N   0  0  0  0  0  0  0  0  0  0  0  0
   -0.0324   -2.4776   -1.0064 O   0  0  0  0  0  0  0  0  0  0  0  0
    2.3884   -1.4160    0.2896 C   0  0  0  0  0  0  0  0  0  0  0  0
    2.7466   -2.5420   -0.4639 C   0  0  0  0  0  0  0  0  0  0  0  0
    3.9039   -3.2825   -0.1870 C   0  0  0  0  0  0  0  0  0  0  0  0
    4.7273   -2.8824    0.8678 C   0  0  0  0  0  0  0  0  0  0  0  0
    4.4215   -1.7355    1.5965 C   0  0  0  0  0  0  0  0  0  0  0  0
    3.2730   -0.9972    1.2985 C   0  0  0  0  0  0  0  0  0  0  0  0
    4.2148   -4.5167   -0.9769 C   0  0  0  0  0  0  0  0  0  0  0  0
   -2.0925   -1.0813   -0.9024 H   0  0  0  0  0  0  0  0  0  0  0  0
   -2.1761    1.2409    0.0509 H   0  0  0  0  0  0  0  0  0  0  0  0
   -0.0706    2.2201    0.9114 H   0  0  0  0  0  0  0  0  0  0  0  0
    2.1322   -2.8656   -1.3000 H   0  0  0  0  0  0  0  0  0  0  0  0
    5.6098   -3.4632    1.1236 H   0  0  0  0  0  0  0  0  0  0  0  0
    5.0638   -1.4262    2.4177 H   0  0  0  0  0  0  0  0  0  0  0  0
    3.0456   -0.1249    1.9055 H   0  0  0  0  0  0  0  0  0  0  0  0
    5.2423   -4.4777   -1.3556 H   0  0  0  0  0  0  0  0  0  0  0  0
    4.0901   -5.4044   -0.3515 H   0  0  0  0  0  0  0  0  0  0  0  0
    3.5499   -4.6175   -1.8435 H   0  0  0  0  0  0  0  0  0  0  0  0
  1  2  1  0  0  0  0
  1  6  1  0  0  0  0
  1  7  2  0  0  0  0
  2  3  2  0  0  0  0
  2 15  1  0  0  0  0
  3  4  1  0  0  0  0
  3 16  1  0  0  0  0
  4  5  2  0  0  0  0
  4 17  1  0  0  0  0
  5  6  1  0  0  0  0
  6  8  1  0  0  0  0
  8  9  2  0  0  0  0
  8 13  1  0  0  0  0
  9 10  1  0  0  0  0
  9 18  1  0  0  0  0
 10 11  2  0  0  0  0
 10 14  1  0  0  0  0
 11 12  1  0  0  0  0
 11 19  1  0  0  0  0
 12 13  2  0  0  0  0
 12 20  1  0  0  0  0
 13 21  1  0  0  0  0
 14 22  1  0  0  0  0
 14 23  1  0  0  0  0
 14 24  1  0  0  0  0
M  END
>  <Mol_ID>
6510

>  <Formula>
C11H8Cl2N2O

>  <MolWeight>
255.10002

>  <Cat>
E2832

>  <Name>
LCS-1

>  <Target>
SOD

>  <Form>
free base

>  <CAS>
41931-13-9

>  <URL>
http://www.selleckchem.com/products/lcs-1.html

$$$$
