LDC000067.cdx
 OpenBabel08302519583D

 44 46  0  0  0  0  0  0  0  0999 V2000
   -4.5729   -3.1752    1.0994 C   0  0  0  0  0  0  0  0  0  0  0  0
   -3.5431   -3.1901    0.1530 C   0  0  0  0  0  0  0  0  0  0  0  0
   -2.9795   -1.9662   -0.2528 C   0  0  0  0  0  0  0  0  0  0  0  0
   -3.4564   -0.7330    0.2321 C   0  0  0  0  0  0  0  0  0  0  0  0
   -4.4603   -0.7617    1.2010 C   0  0  0  0  0  0  0  0  0  0  0  0
   -5.0178   -1.9684    1.6304 C   0  0  0  0  0  0  0  0  0  0  0  0
   -3.0634   -4.4934   -0.4346 C   0  0  0  0  0  0  0  0  0  0  0  0
   -1.7064   -5.1700    0.5329 S   0  0  0  0  0  0  0  0  0  0  0  0
   -2.3582   -5.3497    2.0662 N   0  0  0  0  0  0  0  0  0  0  0  0
   -2.8871    0.4579   -0.2704 N   0  0  0  0  0  0  0  0  0  0  0  0
   -3.4104    1.7757   -0.2969 C   0  0  0  0  0  0  0  0  0  0  0  0
   -2.8456    2.6729   -1.1899 C   0  0  0  0  0  0  0  0  0  0  0  0
   -3.3932    3.9470   -1.3008 C   0  0  0  0  0  0  0  0  0  0  0  0
   -4.4160    4.3262   -0.5160 N   0  0  0  0  0  0  0  0  0  0  0  0
   -4.8540    3.4185    0.3665 C   0  0  0  0  0  0  0  0  0  0  0  0
   -4.4137    2.1602    0.5025 N   0  0  0  0  0  0  0  0  0  0  0  0
   -2.9086    4.9034   -2.3340 C   0  0  0  0  0  0  0  0  0  0  0  0
   -2.4923    4.3894   -3.5881 C   0  0  0  0  0  0  0  0  0  0  0  0
   -1.9367    5.1956   -4.5816 C   0  0  0  0  0  0  0  0  0  0  0  0
   -1.8020    6.5554   -4.3604 C   0  0  0  0  0  0  0  0  0  0  0  0
   -2.2466    7.1064   -3.1599 C   0  0  0  0  0  0  0  0  0  0  0  0
   -2.8138    6.3039   -2.1519 C   0  0  0  0  0  0  0  0  0  0  0  0
   -3.2260    6.8391   -0.9544 O   0  0  0  0  0  0  0  0  0  0  0  0
   -3.5993    8.2151   -0.9760 C   0  0  0  0  0  0  0  0  0  0  0  0
   -1.4286   -6.5124    0.0809 O   0  0  0  0  0  0  0  0  0  0  0  0
   -0.6472   -4.1916    0.6637 O   0  0  0  0  0  0  0  0  0  0  0  0
   -5.0314   -4.1020    1.4381 H   0  0  0  0  0  0  0  0  0  0  0  0
   -2.1658   -1.9773   -0.9767 H   0  0  0  0  0  0  0  0  0  0  0  0
   -4.8348    0.1557    1.6423 H   0  0  0  0  0  0  0  0  0  0  0  0
   -5.8084   -1.9568    2.3757 H   0  0  0  0  0  0  0  0  0  0  0  0
   -3.8624   -5.2408   -0.4672 H   0  0  0  0  0  0  0  0  0  0  0  0
   -2.6937   -4.3517   -1.4552 H   0  0  0  0  0  0  0  0  0  0  0  0
   -2.1072   -6.2635    2.4491 H   0  0  0  0  0  0  0  0  0  0  0  0
   -2.0901   -4.5647    2.6638 H   0  0  0  0  0  0  0  0  0  0  0  0
   -2.2612    0.2809   -1.0452 H   0  0  0  0  0  0  0  0  0  0  0  0
   -2.0171    2.3692   -1.8155 H   0  0  0  0  0  0  0  0  0  0  0  0
   -5.6492    3.7278    1.0365 H   0  0  0  0  0  0  0  0  0  0  0  0
   -2.5998    3.3296   -3.8121 H   0  0  0  0  0  0  0  0  0  0  0  0
   -1.6042    4.7559   -5.5177 H   0  0  0  0  0  0  0  0  0  0  0  0
   -1.3527    7.1909   -5.1179 H   0  0  0  0  0  0  0  0  0  0  0  0
   -2.1139    8.1752   -3.0259 H   0  0  0  0  0  0  0  0  0  0  0  0
   -2.7138    8.8573   -1.0321 H   0  0  0  0  0  0  0  0  0  0  0  0
   -4.2932    8.4349   -1.7961 H   0  0  0  0  0  0  0  0  0  0  0  0
   -4.1105    8.4475   -0.0370 H   0  0  0  0  0  0  0  0  0  0  0  0
  1  2  2  0  0  0  0
  1 27  1  0  0  0  0
  2  3  1  0  0  0  0
  2  7  1  0  0  0  0
  3  4  2  0  0  0  0
  3 28  1  0  0  0  0
  4  5  1  0  0  0  0
  4 10  1  0  0  0  0
  5  6  2  0  0  0  0
  5 29  1  0  0  0  0
  6  1  1  0  0  0  0
  6 30  1  0  0  0  0
  7  8  1  0  0  0  0
  7 31  1  0  0  0  0
  7 32  1  0  0  0  0
  8  9  1  0  0  0  0
  8 25  2  0  0  0  0
  8 26  2  0  0  0  0
  9 33  1  0  0  0  0
  9 34  1  0  0  0  0
 10 11  1  0  0  0  0
 10 35  1  0  0  0  0
 11 12  2  0  0  0  0
 12 13  1  0  0  0  0
 12 36  1  0  0  0  0
 13 14  2  0  0  0  0
 13 17  1  0  0  0  0
 14 15  1  0  0  0  0
 15 16  2  0  0  0  0
 15 37  1  0  0  0  0
 16 11  1  0  0  0  0
 17 18  2  0  0  0  0
 18 19  1  0  0  0  0
 18 38  1  0  0  0  0
 19 20  2  0  0  0  0
 19 39  1  0  0  0  0
 20 21  1  0  0  0  0
 20 40  1  0  0  0  0
 21 22  2  0  0  0  0
 21 41  1  0  0  0  0
 22 17  1  0  0  0  0
 22 23  1  0  0  0  0
 23 24  1  0  0  0  0
 24 42  1  0  0  0  0
 24 43  1  0  0  0  0
 24 44  1  0  0  0  0
M  END
>  <Mol_ID>
2424

>  <Formula>
C18H18N4O3S

>  <MolWeight>
370.42552

>  <Cat>
S7461

>  <Name>
LDC000067

>  <Synonyms>
LDC067

>  <Target>
CDK

>  <Form>
free base

>  <CAS>
1073485-20-7

>  <URL>
http://selleckchem.com/products/ldc000067.html

$$$$
