LDC195943 (IMT1)
 OpenBabel08302521373D

 47 49  0  0  0  0  0  0  0  0999 V2000
   -1.8850    2.0770   -1.1886 C   0  0  0  0  0  0  0  0  0  0  0  0
    3.1634    4.2775   -2.1259 O   0  0  0  0  0  0  0  0  0  0  0  0
    0.7360    6.1396    4.2070 O   0  0  0  0  0  0  0  0  0  0  0  0
    0.3504    5.5942    5.4731 C   0  0  3  0  0  0  0  0  0  0  0  0
    1.3343    5.9864    6.6040 C   0  0  0  0  0  0  0  0  0  0  0  0
   -1.1346    5.9216    5.7616 C   0  0  0  0  0  0  0  0  0  0  0  0
    2.6485    5.5088    6.5559 N   0  0  0  0  0  0  0  0  0  0  0  0
    0.9244    6.6415    7.5814 O   0  0  0  0  0  0  0  0  0  0  0  0
    3.5229    5.7407    7.6951 C   0  0  0  0  0  0  0  0  0  0  0  0
    3.2413    4.7195    5.4804 C   0  0  0  0  0  0  0  0  0  0  0  0
    0.8264    3.3712    1.0689 C   0  0  0  0  0  0  0  0  0  0  0  0
    0.9156    2.4379   -0.0530 C   0  0  0  0  0  0  0  0  0  0  0  0
    1.6039    4.5258    1.0594 C   0  0  0  0  0  0  0  0  0  0  0  0
   -0.0344    3.1616    2.1479 C   0  0  0  0  0  0  0  0  0  0  0  0
    1.6915    2.7799   -1.0939 C   0  0  0  0  0  0  0  0  0  0  0  0
    1.5713    5.4511    2.1019 C   0  0  0  0  0  0  0  0  0  0  0  0
    2.4575    4.8246   -0.0190 O   0  0  0  0  0  0  0  0  0  0  0  0
   -0.1037    4.0989    3.1731 C   0  0  0  0  0  0  0  0  0  0  0  0
    2.4835    4.0071   -1.1445 C   0  0  0  0  0  0  0  0  0  0  0  0
    0.7144    5.2319    3.1773 C   0  0  0  0  0  0  0  0  0  0  0  0
    0.2568    1.1241   -0.1460 C   0  0  0  0  0  0  0  0  0  0  0  0
   -1.0287    0.9446   -0.6917 C   0  0  0  0  0  0  0  0  0  0  0  0
    0.9927    0.0127    0.2989 C   0  0  0  0  0  0  0  0  0  0  0  0
   -1.5449   -0.3570   -0.7761 C   0  0  0  0  0  0  0  0  0  0  0  0
    0.4714   -1.2730    0.1841 C   0  0  0  0  0  0  0  0  0  0  0  0
   -0.7971   -1.4569   -0.3542 C   0  0  0  0  0  0  0  0  0  0  0  0
   -2.2120    1.8713   -2.2140 H   0  0  0  0  0  0  0  0  0  0  0  0
   -2.7701    2.1876   -0.5506 H   0  0  0  0  0  0  0  0  0  0  0  0
   -1.3657    3.0389   -1.2062 H   0  0  0  0  0  0  0  0  0  0  0  0
    0.4358    4.5101    5.4945 H   0  0  0  0  0  0  0  0  0  0  0  0
   -1.7788    5.5304    4.9655 H   0  0  0  0  0  0  0  0  0  0  0  0
   -1.4713    5.4539    6.6936 H   0  0  0  0  0  0  0  0  0  0  0  0
   -1.3603    6.9929    5.8102 H   0  0  0  0  0  0  0  0  0  0  0  0
    3.7960    4.7660    8.1149 H   0  0  0  0  0  0  0  0  0  0  0  0
    4.4280    6.2492    7.3518 H   0  0  0  0  0  0  0  0  0  0  0  0
    3.0542    6.3385    8.4795 H   0  0  0  0  0  0  0  0  0  0  0  0
    2.7145    3.7672    5.3684 H   0  0  0  0  0  0  0  0  0  0  0  0
    3.2160    5.2854    4.5508 H   0  0  0  0  0  0  0  0  0  0  0  0
    4.2946    4.5004    5.7074 H   0  0  0  0  0  0  0  0  0  0  0  0
   -0.6787    2.2862    2.2146 H   0  0  0  0  0  0  0  0  0  0  0  0
    1.7916    2.1478   -1.9696 H   0  0  0  0  0  0  0  0  0  0  0  0
    2.2298    6.3163    2.0684 H   0  0  0  0  0  0  0  0  0  0  0  0
   -0.8152    3.8993    3.9701 H   0  0  0  0  0  0  0  0  0  0  0  0
    1.9851    0.1437    0.7230 H   0  0  0  0  0  0  0  0  0  0  0  0
   -2.5371   -0.5237   -1.1930 H   0  0  0  0  0  0  0  0  0  0  0  0
    1.0602   -2.1285    0.5028 H   0  0  0  0  0  0  0  0  0  0  0  0
   -1.2037   -2.4598   -0.4525 H   0  0  0  0  0  0  0  0  0  0  0  0
  1 22  1  0  0  0  0
  1 27  1  0  0  0  0
  1 28  1  0  0  0  0
  1 29  1  0  0  0  0
  2 19  2  0  0  0  0
  3  4  1  0  0  0  0
  3 20  1  0  0  0  0
  4  5  1  0  0  0  0
  4  6  1  0  0  0  0
  4 30  1  0  0  0  0
  5  7  1  0  0  0  0
  5  8  2  0  0  0  0
  6 31  1  0  0  0  0
  6 32  1  0  0  0  0
  6 33  1  0  0  0  0
  7  9  1  0  0  0  0
  7 10  1  0  0  0  0
  9 34  1  0  0  0  0
  9 35  1  0  0  0  0
  9 36  1  0  0  0  0
 10 37  1  0  0  0  0
 10 38  1  0  0  0  0
 10 39  1  0  0  0  0
 11 12  1  0  0  0  0
 11 13  1  0  0  0  0
 11 14  2  0  0  0  0
 12 15  2  0  0  0  0
 12 21  1  0  0  0  0
 13 16  2  0  0  0  0
 13 17  1  0  0  0  0
 14 18  1  0  0  0  0
 14 40  1  0  0  0  0
 15 19  1  0  0  0  0
 15 41  1  0  0  0  0
 16 20  1  0  0  0  0
 16 42  1  0  0  0  0
 17 19  1  0  0  0  0
 18 20  2  0  0  0  0
 18 43  1  0  0  0  0
 21 22  2  0  0  0  0
 21 23  1  0  0  0  0
 22 24  1  0  0  0  0
 23 25  2  0  0  0  0
 23 44  1  0  0  0  0
 24 26  2  0  0  0  0
 24 45  1  0  0  0  0
 25 26  1  0  0  0  0
 25 46  1  0  0  0  0
 26 47  1  0  0  0  0
M  END
>  <Mol_ID>
7480

>  <Formula>
C21H21NO4

>  <MolWeight>
351.39574

>  <Cat>
E0443

>  <Name>
LDC195943 (IMT1)

>  <Synonyms>
IMT1

>  <Target>
DNA/RNA Synthesis

>  <Form>
free base

>  <CAS>
2304621-31-4

>  <URL>
https://www.selleckchem.com/products/ldc195943-imt1.html

$$$$
