LDC203974 (IMT1B)
 OpenBabel08302521373D

 54 57  0  0  1  0  0  0  0  0999 V2000
   -2.9007    0.0365   -1.9646 O   0  0  0  0  0  0  0  0  0  0  0  0
    3.6162    2.0095    0.1329 O   0  0  0  0  0  0  0  0  0  0  0  0
    3.3582    3.3709   -0.2047 C   0  0  1  0  0  0  0  0  0  0  0  0
    2.3963    4.1158    0.7583 C   0  0  0  0  0  0  0  0  0  0  0  0
    4.6871    4.1039   -0.3702 C   0  0  0  0  0  0  0  0  0  0  0  0
    1.4426    4.7363    0.2741 O   0  0  0  0  0  0  0  0  0  0  0  0
   -0.4120   -6.5555    2.9757 F   0  0  0  0  0  0  0  0  0  0  0  0
    1.1035    6.2325    4.8619 C   0  0  0  0  0  0  0  0  0  0  0  0
    0.2755    7.1916    4.3914 O   0  0  0  0  0  0  0  0  0  0  0  0
    0.9744    5.7599    5.9819 O   0  0  0  0  0  0  0  0  0  0  0  0
   -0.6110   -1.7529    0.1139 C   0  0  0  0  0  0  0  0  0  0  0  0
    0.5040   -0.7978    0.0959 C   0  0  0  0  0  0  0  0  0  0  0  0
   -1.7190   -1.4445   -0.5815 C   0  0  0  0  0  0  0  0  0  0  0  0
    0.4028    0.3514   -0.6817 C   0  0  0  0  0  0  0  0  0  0  0  0
    1.6751   -0.9833    0.8384 C   0  0  0  0  0  0  0  0  0  0  0  0
   -1.8539   -0.2151   -1.3777 C   0  0  0  0  0  0  0  0  0  0  0  0
    1.4175    1.3103   -0.7289 C   0  0  0  0  0  0  0  0  0  0  0  0
   -0.7502    0.6167   -1.4443 O   0  0  0  0  0  0  0  0  0  0  0  0
    2.6949   -0.0237    0.8115 C   0  0  0  0  0  0  0  0  0  0  0  0
    2.5634    1.1376    0.0463 C   0  0  0  0  0  0  0  0  0  0  0  0
   -0.6217   -3.0300    0.8516 C   0  0  0  0  0  0  0  0  0  0  0  0
   -0.1964   -4.2077    0.2199 C   0  0  0  0  0  0  0  0  0  0  0  0
   -0.9997   -3.0611    2.2014 C   0  0  0  0  0  0  0  0  0  0  0  0
   -0.1325   -5.4016    0.9391 C   0  0  0  0  0  0  0  0  0  0  0  0
   -0.9321   -4.2567    2.9175 C   0  0  0  0  0  0  0  0  0  0  0  0
   -0.4947   -5.4135    2.2814 C   0  0  0  0  0  0  0  0  0  0  0  0
    2.5987    4.0910    2.1323 N   0  0  0  0  0  0  0  0  0  0  0  0
    1.5800    4.6622    3.0184 C   0  0  0  0  0  0  0  0  0  0  0  0
    3.7690    3.5687    2.8334 C   0  0  0  0  0  0  0  0  0  0  0  0
    2.1555    5.7983    3.8634 C   0  0  2  0  0  0  0  0  0  0  0  0
    4.4334    4.7000    3.6203 C   0  0  0  0  0  0  0  0  0  0  0  0
    3.4411    5.3573    4.5838 C   0  0  0  0  0  0  0  0  0  0  0  0
    2.9048    3.4133   -1.2029 H   0  0  0  0  0  0  0  0  0  0  0  0
    5.2622    3.6440   -1.1827 H   0  0  0  0  0  0  0  0  0  0  0  0
    4.5274    5.1586   -0.6118 H   0  0  0  0  0  0  0  0  0  0  0  0
    5.3223    4.0487    0.5157 H   0  0  0  0  0  0  0  0  0  0  0  0
    0.4557    7.4820    3.4755 H   0  0  0  0  0  0  0  0  0  0  0  0
   -2.5922   -2.0880   -0.6013 H   0  0  0  0  0  0  0  0  0  0  0  0
    1.8097   -1.8653    1.4602 H   0  0  0  0  0  0  0  0  0  0  0  0
    1.2688    2.1696   -1.3726 H   0  0  0  0  0  0  0  0  0  0  0  0
    3.5904   -0.1799    1.4085 H   0  0  0  0  0  0  0  0  0  0  0  0
    0.1038   -4.1967   -0.8258 H   0  0  0  0  0  0  0  0  0  0  0  0
   -1.3291   -2.1539    2.7038 H   0  0  0  0  0  0  0  0  0  0  0  0
    0.2072   -6.3174    0.4656 H   0  0  0  0  0  0  0  0  0  0  0  0
   -1.2065   -4.2911    3.9670 H   0  0  0  0  0  0  0  0  0  0  0  0
    1.2150    3.8473    3.6572 H   0  0  0  0  0  0  0  0  0  0  0  0
    0.7126    5.0174    2.4518 H   0  0  0  0  0  0  0  0  0  0  0  0
    4.4899    3.1109    2.1606 H   0  0  0  0  0  0  0  0  0  0  0  0
    3.4246    2.7817    3.5146 H   0  0  0  0  0  0  0  0  0  0  0  0
    2.4146    6.6499    3.2207 H   0  0  0  0  0  0  0  0  0  0  0  0
    4.8132    5.4594    2.9252 H   0  0  0  0  0  0  0  0  0  0  0  0
    5.2914    4.3145    4.1817 H   0  0  0  0  0  0  0  0  0  0  0  0
    3.9095    6.2225    5.0688 H   0  0  0  0  0  0  0  0  0  0  0  0
    3.2047    4.6452    5.3848 H   0  0  0  0  0  0  0  0  0  0  0  0
  1 16  2  0  0  0  0
  2  3  1  0  0  0  0
  2 20  1  0  0  0  0
  3  4  1  0  0  0  0
  3  5  1  0  0  0  0
  3 33  1  6  0  0  0
  4  6  2  0  0  0  0
  4 27  1  0  0  0  0
  5 34  1  0  0  0  0
  5 35  1  0  0  0  0
  5 36  1  0  0  0  0
  7 26  1  0  0  0  0
  8  9  1  0  0  0  0
  8 10  2  0  0  0  0
  9 37  1  0  0  0  0
 11 12  1  0  0  0  0
 11 13  2  0  0  0  0
 11 21  1  0  0  0  0
 12 14  2  0  0  0  0
 12 15  1  0  0  0  0
 13 16  1  0  0  0  0
 13 38  1  0  0  0  0
 14 17  1  0  0  0  0
 14 18  1  0  0  0  0
 15 19  2  0  0  0  0
 15 39  1  0  0  0  0
 16 18  1  0  0  0  0
 17 20  2  0  0  0  0
 17 40  1  0  0  0  0
 19 20  1  0  0  0  0
 19 41  1  0  0  0  0
 21 22  2  0  0  0  0
 21 23  1  0  0  0  0
 22 24  1  0  0  0  0
 22 42  1  0  0  0  0
 23 25  2  0  0  0  0
 23 43  1  0  0  0  0
 24 26  2  0  0  0  0
 24 44  1  0  0  0  0
 25 26  1  0  0  0  0
 25 45  1  0  0  0  0
 27 28  1  0  0  0  0
 27 29  1  0  0  0  0
 28 30  1  0  0  0  0
 28 46  1  0  0  0  0
 28 47  1  0  0  0  0
 29 31  1  0  0  0  0
 29 48  1  0  0  0  0
 29 49  1  0  0  0  0
 30  8  1  0  0  0  0
 30 32  1  0  0  0  0
 30 50  1  6  0  0  0
 31 32  1  0  0  0  0
 31 51  1  0  0  0  0
 31 52  1  0  0  0  0
 32 53  1  0  0  0  0
 32 54  1  0  0  0  0
M  END
>  <Mol_ID>
7481

>  <Formula>
C24H21ClFNO6

>  <MolWeight>
473.8780432

>  <Cat>
E0444

>  <Name>
LDC203974 (IMT1B)

>  <Synonyms>
IMT1B

>  <Target>
DNA/RNA Synthesis

>  <Form>
free base

>  <CAS>
2304621-06-3

>  <URL>
https://www.selleckchem.com/products/ldc203974-imt1b.html

$$$$
