LDC7559
 OpenBabel08302521353D

 45 48  0  0  0  0  0  0  0  0999 V2000
    0.7204    0.5206   -0.0249 O   0  0  0  0  0  0  0  0  0  0  0  0
   -0.1615    0.0221    0.9777 C   0  0  0  0  0  0  0  0  0  0  0  0
    2.4437   -8.7677   -4.7113 N   0  0  0  0  0  0  0  0  0  0  0  0
    1.4665   -9.7214   -4.9189 C   0  0  0  0  0  0  0  0  0  0  0  0
    1.7731  -10.6498   -6.0641 C   0  0  0  0  0  0  0  0  0  0  0  0
    0.4323   -9.8634   -4.2774 O   0  0  0  0  0  0  0  0  0  0  0  0
    2.6238   -1.0021    0.3711 C   0  0  0  0  0  0  0  0  0  0  0  0
    2.0503    0.2549    0.1706 C   0  0  0  0  0  0  0  0  0  0  0  0
    4.0415   -1.0899    0.4445 C   0  0  0  0  0  0  0  0  0  0  0  0
    2.8901    1.3755    0.0304 C   0  0  0  0  0  0  0  0  0  0  0  0
    4.8642    0.0236    0.2988 C   0  0  0  0  0  0  0  0  0  0  0  0
    4.2834    1.2639    0.0936 C   0  0  0  0  0  0  0  0  0  0  0  0
    1.9124   -2.2802    0.3621 C   0  0  0  0  0  0  0  0  0  0  0  0
    2.4387   -3.3385    1.0111 N   0  0  0  0  0  0  0  0  0  0  0  0
    0.7936   -2.7420   -0.4022 C   0  0  0  0  0  0  0  0  0  0  0  0
    2.0956   -4.3476    0.1804 N   0  0  0  0  0  0  0  0  0  0  0  0
    0.8148   -4.1255   -0.2881 C   0  0  0  0  0  0  0  0  0  0  0  0
    3.1632   -4.7489   -0.7454 C   0  0  0  0  0  0  0  0  0  0  0  0
   -0.0194   -5.2301   -0.8167 C   0  0  0  0  0  0  0  0  0  0  0  0
    2.8337   -5.8058   -1.7497 C   0  0  0  0  0  0  0  0  0  0  0  0
    0.7096   -6.4723   -0.7954 O   0  0  0  0  0  0  0  0  0  0  0  0
    1.6707   -6.5781   -1.7674 C   0  0  0  0  0  0  0  0  0  0  0  0
    3.8040   -6.0093   -2.7410 C   0  0  0  0  0  0  0  0  0  0  0  0
    1.5121   -7.5851   -2.7286 C   0  0  0  0  0  0  0  0  0  0  0  0
    3.6297   -6.9831   -3.7162 C   0  0  0  0  0  0  0  0  0  0  0  0
    2.4886   -7.7876   -3.7085 C   0  0  0  0  0  0  0  0  0  0  0  0
   -0.5820   -0.9376    0.6767 H   0  0  0  0  0  0  0  0  0  0  0  0
    0.3009   -0.0537    1.9662 H   0  0  0  0  0  0  0  0  0  0  0  0
   -1.0107    0.7088    1.0404 H   0  0  0  0  0  0  0  0  0  0  0  0
    3.2288   -8.7942   -5.3432 H   0  0  0  0  0  0  0  0  0  0  0  0
    1.8446  -11.6716   -5.6817 H   0  0  0  0  0  0  0  0  0  0  0  0
    0.9678  -10.5818   -6.8005 H   0  0  0  0  0  0  0  0  0  0  0  0
    2.7139  -10.3987   -6.5561 H   0  0  0  0  0  0  0  0  0  0  0  0
    4.5217   -2.0598    0.5764 H   0  0  0  0  0  0  0  0  0  0  0  0
    2.4502    2.3550   -0.1433 H   0  0  0  0  0  0  0  0  0  0  0  0
    5.9452   -0.0906    0.3268 H   0  0  0  0  0  0  0  0  0  0  0  0
    4.9126    2.1413   -0.0312 H   0  0  0  0  0  0  0  0  0  0  0  0
    0.1281   -2.1641   -1.0293 H   0  0  0  0  0  0  0  0  0  0  0  0
    4.0419   -5.0046   -0.1469 H   0  0  0  0  0  0  0  0  0  0  0  0
    3.3880   -3.8359   -1.3217 H   0  0  0  0  0  0  0  0  0  0  0  0
   -0.8780   -5.3676   -0.1466 H   0  0  0  0  0  0  0  0  0  0  0  0
   -0.4140   -5.0209   -1.8164 H   0  0  0  0  0  0  0  0  0  0  0  0
    4.7103   -5.4070   -2.7523 H   0  0  0  0  0  0  0  0  0  0  0  0
    0.6179   -8.1990   -2.6836 H   0  0  0  0  0  0  0  0  0  0  0  0
    4.4079   -7.1095   -4.4624 H   0  0  0  0  0  0  0  0  0  0  0  0
  1  2  1  0  0  0  0
  1  8  1  0  0  0  0
  2 27  1  0  0  0  0
  2 28  1  0  0  0  0
  2 29  1  0  0  0  0
  3  4  1  0  0  0  0
  3 26  1  0  0  0  0
  3 30  1  0  0  0  0
  4  5  1  0  0  0  0
  4  6  2  0  0  0  0
  5 31  1  0  0  0  0
  5 32  1  0  0  0  0
  5 33  1  0  0  0  0
  7  8  2  0  0  0  0
  7  9  1  0  0  0  0
  7 13  1  0  0  0  0
  8 10  1  0  0  0  0
  9 11  2  0  0  0  0
  9 34  1  0  0  0  0
 10 12  2  0  0  0  0
 10 35  1  0  0  0  0
 11 12  1  0  0  0  0
 11 36  1  0  0  0  0
 12 37  1  0  0  0  0
 13 14  2  0  0  0  0
 13 15  1  0  0  0  0
 14 16  1  0  0  0  0
 15 17  2  0  0  0  0
 15 38  1  0  0  0  0
 16 17  1  0  0  0  0
 16 18  1  0  0  0  0
 17 19  1  0  0  0  0
 18 20  1  0  0  0  0
 18 39  1  0  0  0  0
 18 40  1  0  0  0  0
 19 21  1  0  0  0  0
 19 41  1  0  0  0  0
 19 42  1  0  0  0  0
 20 22  2  0  0  0  0
 20 23  1  0  0  0  0
 21 22  1  0  0  0  0
 22 24  1  0  0  0  0
 23 25  2  0  0  0  0
 23 43  1  0  0  0  0
 24 26  2  0  0  0  0
 24 44  1  0  0  0  0
 25 26  1  0  0  0  0
 25 45  1  0  0  0  0
M  END
>  <Mol_ID>
6900

>  <Formula>
C20H19N3O3

>  <MolWeight>
349.38316

>  <Cat>
S9622

>  <Name>
LDC7559

>  <Synonyms>
N/A

>  <Target>
Pyroptosis

>  <Form>
Free base

>  <CAS>
2407782-01-6

>  <URL>
http://www.selleckchem.com/products/ldc7559.html

$$$$
