LDN-214117.cdx
 OpenBabel08302519593D

 60 63  0  0  0  0  0  0  0  0999 V2000
   -1.8462    0.0848   -0.0437 C   0  0  0  0  0  0  0  0  0  0  0  0
   -1.0124    1.1924   -0.1423 C   0  0  0  0  0  0  0  0  0  0  0  0
    0.3345    1.1412   -0.1902 N   0  0  0  0  0  0  0  0  0  0  0  0
    0.9330   -0.0755   -0.1401 C   0  0  0  0  0  0  0  0  0  0  0  0
    0.2143   -1.2830    0.0020 C   0  0  0  0  0  0  0  0  0  0  0  0
   -1.1969   -1.1554    0.0288 C   0  0  0  0  0  0  0  0  0  0  0  0
   -3.3137    0.2150    0.0102 C   0  0  0  0  0  0  0  0  0  0  0  0
    0.8294   -2.6273    0.1525 C   0  0  0  0  0  0  0  0  0  0  0  0
    2.4301    0.0284   -0.2195 C   0  0  0  0  0  0  0  0  0  0  0  0
    1.9749   -2.8133    0.9369 C   0  0  0  0  0  0  0  0  0  0  0  0
    2.6495   -4.0422    1.0318 C   0  0  0  0  0  0  0  0  0  0  0  0
    2.0957   -5.1831    0.4186 C   0  0  0  0  0  0  0  0  0  0  0  0
    0.8700   -5.0461   -0.2653 C   0  0  0  0  0  0  0  0  0  0  0  0
    0.2839   -3.7782   -0.4338 C   0  0  0  0  0  0  0  0  0  0  0  0
   -4.1716   -0.7255   -0.5748 C   0  0  0  0  0  0  0  0  0  0  0  0
   -5.5674   -0.5934   -0.5105 C   0  0  0  0  0  0  0  0  0  0  0  0
   -6.1691    0.4967    0.1285 C   0  0  0  0  0  0  0  0  0  0  0  0
   -5.3135    1.4399    0.7058 C   0  0  0  0  0  0  0  0  0  0  0  0
   -3.9218    1.3074    0.6604 C   0  0  0  0  0  0  0  0  0  0  0  0
   -7.5379    0.6595    0.2052 N   0  0  0  0  0  0  0  0  0  0  0  0
   -8.4726   -0.4708    0.2710 C   0  0  0  0  0  0  0  0  0  0  0  0
   -9.4316   -0.4784   -0.9388 C   0  0  0  0  0  0  0  0  0  0  0  0
  -10.1182    0.8133   -1.1603 N   0  0  0  0  0  0  0  0  0  0  0  0
   -9.0904    1.8665   -1.3054 C   0  0  0  0  0  0  0  0  0  0  0  0
   -8.1330    1.9701   -0.0948 C   0  0  0  0  0  0  0  0  0  0  0  0
    0.1535   -6.0545   -0.8713 O   0  0  0  0  0  0  0  0  0  0  0  0
    0.1912   -7.3307   -0.2360 C   0  0  0  0  0  0  0  0  0  0  0  0
    2.6437   -6.4391    0.3946 O   0  0  0  0  0  0  0  0  0  0  0  0
    3.9203   -6.6777    0.9629 C   0  0  0  0  0  0  0  0  0  0  0  0
    3.8293   -4.1621    1.7205 O   0  0  0  0  0  0  0  0  0  0  0  0
    4.4679   -2.9776    2.1842 C   0  0  0  0  0  0  0  0  0  0  0  0
   -1.4121    2.2006   -0.1960 H   0  0  0  0  0  0  0  0  0  0  0  0
   -1.8008   -2.0529    0.1526 H   0  0  0  0  0  0  0  0  0  0  0  0
    2.7114    0.7922   -0.9521 H   0  0  0  0  0  0  0  0  0  0  0  0
    2.8275    0.3344    0.7556 H   0  0  0  0  0  0  0  0  0  0  0  0
    2.9192   -0.8937   -0.5380 H   0  0  0  0  0  0  0  0  0  0  0  0
    2.3491   -1.9548    1.4839 H   0  0  0  0  0  0  0  0  0  0  0  0
   -0.6251   -3.7165   -1.0300 H   0  0  0  0  0  0  0  0  0  0  0  0
   -3.7671   -1.5819   -1.1150 H   0  0  0  0  0  0  0  0  0  0  0  0
   -6.1741   -1.3453   -1.0018 H   0  0  0  0  0  0  0  0  0  0  0  0
   -5.7235    2.2863    1.2470 H   0  0  0  0  0  0  0  0  0  0  0  0
   -3.3214    2.0598    1.1574 H   0  0  0  0  0  0  0  0  0  0  0  0
   -7.9668   -1.4389    0.3524 H   0  0  0  0  0  0  0  0  0  0  0  0
   -9.0626   -0.3620    1.1893 H   0  0  0  0  0  0  0  0  0  0  0  0
   -8.8819   -0.7517   -1.8486 H   0  0  0  0  0  0  0  0  0  0  0  0
  -10.1930   -1.2518   -0.7868 H   0  0  0  0  0  0  0  0  0  0  0  0
  -10.6626    1.0248   -0.3234 H   0  0  0  0  0  0  0  0  0  0  0  0
   -8.5118    1.6761   -2.2182 H   0  0  0  0  0  0  0  0  0  0  0  0
   -9.5937    2.8296   -1.4475 H   0  0  0  0  0  0  0  0  0  0  0  0
   -8.6877    2.3128    0.7876 H   0  0  0  0  0  0  0  0  0  0  0  0
   -7.3827    2.7343   -0.3235 H   0  0  0  0  0  0  0  0  0  0  0  0
    1.0407   -7.9148   -0.6025 H   0  0  0  0  0  0  0  0  0  0  0  0
    0.1967   -7.2578    0.8577 H   0  0  0  0  0  0  0  0  0  0  0  0
   -0.7155   -7.8741   -0.5211 H   0  0  0  0  0  0  0  0  0  0  0  0
    4.6949   -6.0784    0.4743 H   0  0  0  0  0  0  0  0  0  0  0  0
    3.9030   -6.5344    2.0475 H   0  0  0  0  0  0  0  0  0  0  0  0
    4.1680   -7.7289    0.7855 H   0  0  0  0  0  0  0  0  0  0  0  0
    4.6837   -2.2876    1.3597 H   0  0  0  0  0  0  0  0  0  0  0  0
    3.8700   -2.4927    2.9623 H   0  0  0  0  0  0  0  0  0  0  0  0
    5.4216   -3.2657    2.6344 H   0  0  0  0  0  0  0  0  0  0  0  0
  1  2  2  0  0  0  0
  1  7  1  0  0  0  0
  2  3  1  0  0  0  0
  2 32  1  0  0  0  0
  3  4  2  0  0  0  0
  4  5  1  0  0  0  0
  4  9  1  0  0  0  0
  5  6  2  0  0  0  0
  5  8  1  0  0  0  0
  6  1  1  0  0  0  0
  6 33  1  0  0  0  0
  7 15  2  0  0  0  0
  8 10  2  0  0  0  0
  9 34  1  0  0  0  0
  9 35  1  0  0  0  0
  9 36  1  0  0  0  0
 10 11  1  0  0  0  0
 10 37  1  0  0  0  0
 11 12  2  0  0  0  0
 11 30  1  0  0  0  0
 12 13  1  0  0  0  0
 12 28  1  0  0  0  0
 13 14  2  0  0  0  0
 13 26  1  0  0  0  0
 14  8  1  0  0  0  0
 14 38  1  0  0  0  0
 15 16  1  0  0  0  0
 15 39  1  0  0  0  0
 16 17  2  0  0  0  0
 16 40  1  0  0  0  0
 17 18  1  0  0  0  0
 17 20  1  0  0  0  0
 18 19  2  0  0  0  0
 18 41  1  0  0  0  0
 19  7  1  0  0  0  0
 19 42  1  0  0  0  0
 20 21  1  0  0  0  0
 21 22  1  0  0  0  0
 21 43  1  0  0  0  0
 21 44  1  0  0  0  0
 22 23  1  0  0  0  0
 22 45  1  0  0  0  0
 22 46  1  0  0  0  0
 23 24  1  0  0  0  0
 23 47  1  0  0  0  0
 24 25  1  0  0  0  0
 24 48  1  0  0  0  0
 24 49  1  0  0  0  0
 25 20  1  0  0  0  0
 25 50  1  0  0  0  0
 25 51  1  0  0  0  0
 26 27  1  0  0  0  0
 27 52  1  0  0  0  0
 27 53  1  0  0  0  0
 27 54  1  0  0  0  0
 28 29  1  0  0  0  0
 29 55  1  0  0  0  0
 29 56  1  0  0  0  0
 29 57  1  0  0  0  0
 30 31  1  0  0  0  0
 31 58  1  0  0  0  0
 31 59  1  0  0  0  0
 31 60  1  0  0  0  0
M  END
>  <Mol_ID>
2580

>  <Formula>
C25H29N3O3

>  <MolWeight>
419.51606

>  <Cat>
S7627

>  <Name>
LDN-214117

>  <Synonyms>
N/A

>  <Target>
TGF-beta/Smad

>  <Form>
free base

>  <CAS>
1627503-67-6

>  <URL>
http://selleckchem.com/products/ldn-214117.html

$$$$
