LDN-57444.cdx
 OpenBabel08302519513D

 36 38  0  0  0  0  0  0  0  0999 V2000
    2.7776    0.8933    0.1051 C   0  0  0  0  0  0  0  0  0  0  0  0
    2.9039   -0.4847    0.3433 C   0  0  0  0  0  0  0  0  0  0  0  0
    1.7760   -1.3097    0.4041 C   0  0  0  0  0  0  0  0  0  0  0  0
    0.5340   -0.7278    0.2279 C   0  0  0  0  0  0  0  0  0  0  0  0
    0.4100    0.6568    0.0735 C   0  0  0  0  0  0  0  0  0  0  0  0
    1.5176    1.4805   -0.0196 C   0  0  0  0  0  0  0  0  0  0  0  0
   -0.7131   -1.3631    0.1211 N   0  0  0  0  0  0  0  0  0  0  0  0
   -1.7181   -0.4288   -0.0737 C   0  0  0  0  0  0  0  0  0  0  0  0
   -1.0241    0.9406   -0.0196 C   0  0  0  0  0  0  0  0  0  0  0  0
   -1.6912    2.0534   -0.0212 N   0  0  0  0  0  0  0  0  0  0  0  0
   -0.8517    3.1701    0.1218 O   0  0  0  0  0  0  0  0  0  0  0  0
   -2.7978    4.4569    0.1374 O   0  0  0  0  0  0  0  0  0  0  0  0
   -1.5819    4.3309    0.1948 C   0  0  0  0  0  0  0  0  0  0  0  0
   -0.6338    5.4819    0.3739 C   0  0  0  0  0  0  0  0  0  0  0  0
   -2.9012   -0.6065   -0.2918 O   0  0  0  0  0  0  0  0  0  0  0  0
   -0.8998   -2.7875   -0.0704 C   0  0  0  0  0  0  0  0  0  0  0  0
   -1.1126   -3.5716    1.2018 C   0  0  0  0  0  0  0  0  0  0  0  0
   -2.2021   -3.2944    2.0403 C   0  0  0  0  0  0  0  0  0  0  0  0
   -2.4279   -4.0564    3.1887 C   0  0  0  0  0  0  0  0  0  0  0  0
   -1.5771   -5.1130    3.5056 C   0  0  0  0  0  0  0  0  0  0  0  0
   -0.5023   -5.4130    2.6720 C   0  0  0  0  0  0  0  0  0  0  0  0
   -0.2706   -4.6473    1.5263 C   0  0  0  0  0  0  0  0  0  0  0  0
    3.6705    1.5094    0.0197 H   0  0  0  0  0  0  0  0  0  0  0  0
    3.8949   -0.9173    0.4678 H   0  0  0  0  0  0  0  0  0  0  0  0
    1.8907   -2.3716    0.5921 H   0  0  0  0  0  0  0  0  0  0  0  0
    1.4343    2.5433   -0.2102 H   0  0  0  0  0  0  0  0  0  0  0  0
   -0.1113    5.3889    1.3295 H   0  0  0  0  0  0  0  0  0  0  0  0
    0.0812    5.5097   -0.4529 H   0  0  0  0  0  0  0  0  0  0  0  0
   -1.1964    6.4200    0.3734 H   0  0  0  0  0  0  0  0  0  0  0  0
   -1.7692   -2.9498   -0.7207 H   0  0  0  0  0  0  0  0  0  0  0  0
   -0.0381   -3.1794   -0.6246 H   0  0  0  0  0  0  0  0  0  0  0  0
   -2.8965   -2.4926    1.7937 H   0  0  0  0  0  0  0  0  0  0  0  0
   -3.2765   -3.8302    3.8292 H   0  0  0  0  0  0  0  0  0  0  0  0
   -1.7603   -5.7096    4.3956 H   0  0  0  0  0  0  0  0  0  0  0  0
    0.1493   -6.2501    2.9095 H   0  0  0  0  0  0  0  0  0  0  0  0
    0.5637   -4.9129    0.8810 H   0  0  0  0  0  0  0  0  0  0  0  0
  1  2  2  0  0  0  0
  1 23  1  0  0  0  0
  2  3  1  0  0  0  0
  2 24  1  0  0  0  0
  3  4  2  0  0  0  0
  3 25  1  0  0  0  0
  4  5  1  0  0  0  0
  4  7  1  0  0  0  0
  5  6  2  0  0  0  0
  6  1  1  0  0  0  0
  6 26  1  0  0  0  0
  7  8  1  0  0  0  0
  7 16  1  0  0  0  0
  8  9  1  0  0  0  0
  8 15  2  0  0  0  0
  9  5  1  0  0  0  0
  9 10  2  0  0  0  0
 10 11  1  0  0  0  0
 11 13  1  0  0  0  0
 12 13  2  0  0  0  0
 13 14  1  0  0  0  0
 14 27  1  0  0  0  0
 14 28  1  0  0  0  0
 14 29  1  0  0  0  0
 16 17  1  0  0  0  0
 16 30  1  0  0  0  0
 16 31  1  0  0  0  0
 17 18  2  0  0  0  0
 18 19  1  0  0  0  0
 18 32  1  0  0  0  0
 19 20  2  0  0  0  0
 19 33  1  0  0  0  0
 20 21  1  0  0  0  0
 20 34  1  0  0  0  0
 21 22  2  0  0  0  0
 21 35  1  0  0  0  0
 22 17  1  0  0  0  0
 22 36  1  0  0  0  0
M  END
>  <Mol_ID>
1894

>  <Formula>
C17H11Cl3N2O3

>  <MolWeight>
397.63984

>  <Cat>
S7135

>  <Name>
LDN-57444

>  <Synonyms>
N/A

>  <Target>
DUB

>  <Form>
free base

>  <CAS>
668467-91-2

>  <URL>
http://selleckchem.com/products/ldn-57444.html

$$$$
