LDN-192960
 OpenBabel08302521453D

 43 45  0  0  0  0  0  0  0  0999 V2000
    0.7783    0.1036    0.0732 S   0  0  0  0  0  0  0  0  0  0  0  0
   -2.4543    0.2845   -4.0210 O   0  0  0  0  0  0  0  0  0  0  0  0
    2.4904   -3.9400    3.2909 O   0  0  0  0  0  0  0  0  0  0  0  0
   -0.2203   -4.1039   -1.5132 N   0  0  0  0  0  0  0  0  0  0  0  0
   -2.9585    3.0369    0.1589 N   0  0  0  0  0  0  0  0  0  0  0  0
    0.3212   -1.5619   -0.5188 C   0  0  0  0  0  0  0  0  0  0  0  0
   -0.4689   -1.7129   -1.6863 C   0  0  0  0  0  0  0  0  0  0  0  0
    0.7831   -2.7201    0.1858 C   0  0  0  0  0  0  0  0  0  0  0  0
   -0.7209   -3.0164   -2.1194 C   0  0  0  0  0  0  0  0  0  0  0  0
    0.5006   -3.9706   -0.3798 C   0  0  0  0  0  0  0  0  0  0  0  0
   -0.8811    0.8043    0.4598 C   0  0  0  0  0  0  0  0  0  0  0  0
   -1.0509   -0.6454   -2.4287 C   0  0  0  0  0  0  0  0  0  0  0  0
    1.4557   -2.6960    1.4370 C   0  0  0  0  0  0  0  0  0  0  0  0
   -0.7335    2.2412    0.9549 C   0  0  0  0  0  0  0  0  0  0  0  0
   -1.5514   -3.2128   -3.2158 C   0  0  0  0  0  0  0  0  0  0  0  0
    0.9247   -5.1279    0.2492 C   0  0  0  0  0  0  0  0  0  0  0  0
   -1.9217   -0.8565   -3.4930 C   0  0  0  0  0  0  0  0  0  0  0  0
    1.8619   -3.8702    2.0794 C   0  0  0  0  0  0  0  0  0  0  0  0
   -2.1666   -2.1522   -3.8906 C   0  0  0  0  0  0  0  0  0  0  0  0
    1.6041   -5.0885    1.4675 C   0  0  0  0  0  0  0  0  0  0  0  0
   -2.0665    2.9133    1.3073 C   0  0  0  0  0  0  0  0  0  0  0  0
   -3.3378    0.1197   -5.1203 C   0  0  0  0  0  0  0  0  0  0  0  0
    2.7445   -2.7025    3.9472 C   0  0  0  0  0  0  0  0  0  0  0  0
   -3.7964    3.5475    0.4341 H   0  0  0  0  0  0  0  0  0  0  0  0
   -2.5134    3.5997   -0.5677 H   0  0  0  0  0  0  0  0  0  0  0  0
   -1.5318    0.8051   -0.4104 H   0  0  0  0  0  0  0  0  0  0  0  0
   -1.3534    0.1657    1.2096 H   0  0  0  0  0  0  0  0  0  0  0  0
   -0.8641    0.3859   -2.1634 H   0  0  0  0  0  0  0  0  0  0  0  0
    1.6122   -1.7409    1.9211 H   0  0  0  0  0  0  0  0  0  0  0  0
   -0.1050    2.2407    1.8544 H   0  0  0  0  0  0  0  0  0  0  0  0
   -0.2183    2.8498    0.1996 H   0  0  0  0  0  0  0  0  0  0  0  0
   -1.7542   -4.2304   -3.5398 H   0  0  0  0  0  0  0  0  0  0  0  0
    0.6999   -6.0921   -0.2030 H   0  0  0  0  0  0  0  0  0  0  0  0
   -2.8236   -2.3805   -4.7190 H   0  0  0  0  0  0  0  0  0  0  0  0
    1.9161   -6.0158    1.9442 H   0  0  0  0  0  0  0  0  0  0  0  0
   -2.5775    2.3474    2.0924 H   0  0  0  0  0  0  0  0  0  0  0  0
   -1.8759    3.9173    1.7059 H   0  0  0  0  0  0  0  0  0  0  0  0
   -2.8187   -0.3344   -5.9704 H   0  0  0  0  0  0  0  0  0  0  0  0
   -4.2195   -0.4640   -4.8365 H   0  0  0  0  0  0  0  0  0  0  0  0
   -3.6802    1.1122   -5.4289 H   0  0  0  0  0  0  0  0  0  0  0  0
    3.4041   -2.0670    3.3467 H   0  0  0  0  0  0  0  0  0  0  0  0
    1.8084   -2.1863    4.1874 H   0  0  0  0  0  0  0  0  0  0  0  0
    3.2554   -2.9163    4.8898 H   0  0  0  0  0  0  0  0  0  0  0  0
  1  6  1  0  0  0  0
  1 11  1  0  0  0  0
  2 17  1  0  0  0  0
  2 22  1  0  0  0  0
  3 18  1  0  0  0  0
  3 23  1  0  0  0  0
  4  9  2  0  0  0  0
  4 10  1  0  0  0  0
  5 21  1  0  0  0  0
  5 24  1  0  0  0  0
  5 25  1  0  0  0  0
  6  7  2  0  0  0  0
  6  8  1  0  0  0  0
  7  9  1  0  0  0  0
  7 12  1  0  0  0  0
  8 10  2  0  0  0  0
  8 13  1  0  0  0  0
  9 15  1  0  0  0  0
 10 16  1  0  0  0  0
 11 14  1  0  0  0  0
 11 26  1  0  0  0  0
 11 27  1  0  0  0  0
 12 17  2  0  0  0  0
 12 28  1  0  0  0  0
 13 18  2  0  0  0  0
 13 29  1  0  0  0  0
 14 21  1  0  0  0  0
 14 30  1  0  0  0  0
 14 31  1  0  0  0  0
 15 19  2  0  0  0  0
 15 32  1  0  0  0  0
 16 20  2  0  0  0  0
 16 33  1  0  0  0  0
 17 19  1  0  0  0  0
 18 20  1  0  0  0  0
 19 34  1  0  0  0  0
 20 35  1  0  0  0  0
 21 36  1  0  0  0  0
 21 37  1  0  0  0  0
 22 38  1  0  0  0  0
 22 39  1  0  0  0  0
 22 40  1  0  0  0  0
 23 41  1  0  0  0  0
 23 42  1  0  0  0  0
 23 43  1  0  0  0  0
M  END
>  <Mol_ID>
9446

>  <Formula>
C18H20N2O2S

>  <MolWeight>
328.4286

>  <Cat>
S3406

>  <Name>
LDN-192960

>  <Synonyms>
N/A

>  <Target>
DYRK,Haspin Kinase

>  <Form>
Free base

>  <CAS>
184582-62-5

>  <URL>
http://www.selleckchem.com/products/ldn-192960.html

$$$$
