LDN193189 HCl.cdx
 OpenBabel08302521363D

 53 58  0  0  0  0  0  0  0  0999 V2000
    1.4609   -0.1558    0.4701 C   0  0  0  0  0  0  0  0  0  0  0  0
    0.7638    0.9741    0.9127 C   0  0  0  0  0  0  0  0  0  0  0  0
   -0.6006    1.1398    0.6530 C   0  0  0  0  0  0  0  0  0  0  0  0
   -1.2986    0.1607   -0.0526 C   0  0  0  0  0  0  0  0  0  0  0  0
   -0.6258   -0.9593   -0.5296 C   0  0  0  0  0  0  0  0  0  0  0  0
    0.7380   -1.1089   -0.2679 C   0  0  0  0  0  0  0  0  0  0  0  0
    2.7977   -0.3656    0.7446 N   0  0  0  0  0  0  0  0  0  0  0  0
    3.4391    0.1339    1.9674 C   0  0  0  0  0  0  0  0  0  0  0  0
    4.5363    1.1692    1.6436 C   0  0  0  0  0  0  0  0  0  0  0  0
    5.5201    0.6925    0.6470 N   0  0  0  0  0  0  0  0  0  0  0  0
    4.7899    0.2989   -0.5773 C   0  0  0  0  0  0  0  0  0  0  0  0
    3.7081   -0.7794   -0.3346 C   0  0  0  0  0  0  0  0  0  0  0  0
   -2.7258    0.2926   -0.2842 C   0  0  0  0  0  0  0  0  0  0  0  0
   -3.7392   -0.2123    0.6896 C   0  0  0  0  0  0  0  0  0  0  0  0
   -5.0284   -0.0629    0.6068 N   0  0  0  0  0  0  0  0  0  0  0  0
   -5.4732    0.5949   -0.5083 C   0  0  0  0  0  0  0  0  0  0  0  0
   -4.5972    0.9834   -1.5389 N   0  0  0  0  0  0  0  0  0  0  0  0
   -3.2263    0.8553   -1.3923 C   0  0  0  0  0  0  0  0  0  0  0  0
   -6.6949    1.1104   -0.8782 C   0  0  0  0  0  0  0  0  0  0  0  0
   -6.4902    1.6595   -2.1668 C   0  0  0  0  0  0  0  0  0  0  0  0
   -5.2341    1.5283   -2.6026 N   0  0  0  0  0  0  0  0  0  0  0  0
   -7.8897    1.3400   -0.0633 C   0  0  0  0  0  0  0  0  0  0  0  0
   -9.0732    1.0583   -0.7445 C   0  0  0  0  0  0  0  0  0  0  0  0
   -9.9601    2.1003   -0.8962 C   0  0  0  0  0  0  0  0  0  0  0  0
   -9.7875    3.3193   -0.3406 N   0  0  0  0  0  0  0  0  0  0  0  0
   -8.7721    3.4825    0.5276 C   0  0  0  0  0  0  0  0  0  0  0  0
   -7.8353    2.4694    0.7881 C   0  0  0  0  0  0  0  0  0  0  0  0
   -8.6222    4.6985    1.1822 C   0  0  0  0  0  0  0  0  0  0  0  0
   -7.6726    4.8820    2.1918 C   0  0  0  0  0  0  0  0  0  0  0  0
   -6.8320    3.8361    2.5469 C   0  0  0  0  0  0  0  0  0  0  0  0
   -6.8849    2.6471    1.8235 C   0  0  0  0  0  0  0  0  0  0  0  0
    1.2803    1.7635    1.4521 H   0  0  0  0  0  0  0  0  0  0  0  0
   -1.1027    2.0378    1.0070 H   0  0  0  0  0  0  0  0  0  0  0  0
   -1.1489   -1.7301   -1.0889 H   0  0  0  0  0  0  0  0  0  0  0  0
    1.2279   -2.0174   -0.6114 H   0  0  0  0  0  0  0  0  0  0  0  0
    2.7235    0.5572    2.6815 H   0  0  0  0  0  0  0  0  0  0  0  0
    3.8978   -0.7235    2.4769 H   0  0  0  0  0  0  0  0  0  0  0  0
    4.0791    2.0971    1.2793 H   0  0  0  0  0  0  0  0  0  0  0  0
    5.0722    1.4214    2.5651 H   0  0  0  0  0  0  0  0  0  0  0  0
    5.9668   -0.1441    1.0242 H   0  0  0  0  0  0  0  0  0  0  0  0
    4.3296    1.1916   -1.0192 H   0  0  0  0  0  0  0  0  0  0  0  0
    5.5126   -0.0777   -1.3093 H   0  0  0  0  0  0  0  0  0  0  0  0
    4.1856   -1.7232   -0.0446 H   0  0  0  0  0  0  0  0  0  0  0  0
    3.1877   -0.9584   -1.2826 H   0  0  0  0  0  0  0  0  0  0  0  0
   -3.3271   -0.7659    1.5523 H   0  0  0  0  0  0  0  0  0  0  0  0
   -2.6290    1.2650   -2.1936 H   0  0  0  0  0  0  0  0  0  0  0  0
   -7.2023    2.1950   -2.7828 H   0  0  0  0  0  0  0  0  0  0  0  0
   -9.1892    0.1473   -1.3222 H   0  0  0  0  0  0  0  0  0  0  0  0
  -10.8149    2.0088   -1.5591 H   0  0  0  0  0  0  0  0  0  0  0  0
   -9.2749    5.5221    0.9051 H   0  0  0  0  0  0  0  0  0  0  0  0
   -7.6118    5.8353    2.7097 H   0  0  0  0  0  0  0  0  0  0  0  0
   -6.1329    3.9475    3.3714 H   0  0  0  0  0  0  0  0  0  0  0  0
   -6.2159    1.8324    2.0958 H   0  0  0  0  0  0  0  0  0  0  0  0
  1  2  2  0  0  0  0
  1  7  1  0  0  0  0
  2  3  1  0  0  0  0
  2 32  1  0  0  0  0
  3  4  2  0  0  0  0
  3 33  1  0  0  0  0
  4  5  1  0  0  0  0
  4 13  1  0  0  0  0
  5  6  2  0  0  0  0
  5 34  1  0  0  0  0
  6  1  1  0  0  0  0
  6 35  1  0  0  0  0
  7  8  1  0  0  0  0
  8  9  1  0  0  0  0
  8 36  1  0  0  0  0
  8 37  1  0  0  0  0
  9 10  1  0  0  0  0
  9 38  1  0  0  0  0
  9 39  1  0  0  0  0
 10 11  1  0  0  0  0
 10 40  1  0  0  0  0
 11 12  1  0  0  0  0
 11 41  1  0  0  0  0
 11 42  1  0  0  0  0
 12  7  1  0  0  0  0
 12 43  1  0  0  0  0
 12 44  1  0  0  0  0
 13 14  1  0  0  0  0
 14 15  2  0  0  0  0
 14 45  1  0  0  0  0
 15 16  1  0  0  0  0
 16 17  1  0  0  0  0
 16 19  2  0  0  0  0
 17 18  1  0  0  0  0
 18 13  2  0  0  0  0
 18 46  1  0  0  0  0
 19 20  1  0  0  0  0
 19 22  1  0  0  0  0
 20 21  2  0  0  0  0
 20 47  1  0  0  0  0
 21 17  1  0  0  0  0
 22 23  2  0  0  0  0
 23 24  1  0  0  0  0
 23 48  1  0  0  0  0
 24 25  2  0  0  0  0
 24 49  1  0  0  0  0
 25 26  1  0  0  0  0
 26 27  2  0  0  0  0
 26 28  1  0  0  0  0
 27 22  1  0  0  0  0
 28 29  2  0  0  0  0
 28 50  1  0  0  0  0
 29 30  1  0  0  0  0
 29 51  1  0  0  0  0
 30 31  2  0  0  0  0
 30 52  1  0  0  0  0
 31 27  1  0  0  0  0
 31 53  1  0  0  0  0
M  END
>  <Mol_ID>
7129

>  <Formula>
C25H23ClN6

>  <MolWeight>
442.94332

>  <Cat>
S7507

>  <Name>
LDN-193189 2HCl

>  <Synonyms>
DM-3189 2HCl

>  <Target>
TGF-beta/Smad

>  <Form>
Hydrochloride

>  <CAS>
1435934-00-1

>  <URL>
http://selleckchem.com/products/ldn-193189-2hcl.html

$$$$
