LEE011-2.cdx
 OpenBabel08302519583D

 62 66  0  0  0  0  0  0  0  0999 V2000
    1.2724   -2.8314    2.2316 C   0  0  0  0  0  0  0  0  0  0  0  0
    0.9013   -2.2623    3.4530 C   0  0  0  0  0  0  0  0  0  0  0  0
   -0.3658   -1.6861    3.4679 C   0  0  0  0  0  0  0  0  0  0  0  0
   -1.1743   -1.7203    2.3369 C   0  0  0  0  0  0  0  0  0  0  0  0
   -0.7225   -2.3352    1.1728 C   0  0  0  0  0  0  0  0  0  0  0  0
    0.5126   -2.8673    1.0989 N   0  0  0  0  0  0  0  0  0  0  0  0
    1.6556   -2.2960    4.6088 N   0  0  0  0  0  0  0  0  0  0  0  0
    2.6638   -3.3363    4.8340 C   0  0  0  0  0  0  0  0  0  0  0  0
    2.7735   -3.6068    6.3552 C   0  0  0  0  0  0  0  0  0  0  0  0
    3.0672   -2.3964    7.1578 N   0  0  0  0  0  0  0  0  0  0  0  0
    2.0447   -1.3675    6.8641 C   0  0  0  0  0  0  0  0  0  0  0  0
    1.8892   -1.0494    5.3582 C   0  0  0  0  0  0  0  0  0  0  0  0
   -1.5228   -2.3552    0.0312 N   0  0  0  0  0  0  0  0  0  0  0  0
   -2.9085   -2.5148    0.0111 C   0  0  0  0  0  0  0  0  0  0  0  0
   -3.5680   -1.9769   -1.0322 N   0  0  0  0  0  0  0  0  0  0  0  0
   -4.9219   -1.9594   -1.0145 C   0  0  0  0  0  0  0  0  0  0  0  0
   -5.6072   -2.5796    0.0224 C   0  0  0  0  0  0  0  0  0  0  0  0
   -4.8315   -3.1765    0.9925 C   0  0  0  0  0  0  0  0  0  0  0  0
   -3.4983   -3.1388    1.0418 N   0  0  0  0  0  0  0  0  0  0  0  0
   -6.9539   -2.7605    0.4085 C   0  0  0  0  0  0  0  0  0  0  0  0
   -6.9973   -3.5724    1.5391 C   0  0  0  0  0  0  0  0  0  0  0  0
   -5.6590   -3.7975    1.8989 N   0  0  0  0  0  0  0  0  0  0  0  0
   -5.2121   -4.5597    3.0554 C   0  0  0  0  0  0  0  0  0  0  0  0
   -4.8599   -3.7027    4.2717 C   0  0  0  0  0  0  0  0  0  0  0  0
   -4.1898   -4.6832    5.2369 C   0  0  0  0  0  0  0  0  0  0  0  0
   -3.7275   -5.8683    4.3865 C   0  0  0  0  0  0  0  0  0  0  0  0
   -3.9633   -5.4443    2.9382 C   0  0  0  0  0  0  0  0  0  0  0  0
   -8.1540   -4.0527    2.3017 C   0  0  0  0  0  0  0  0  0  0  0  0
   -8.0694   -4.2224    3.5200 O   0  0  0  0  0  0  0  0  0  0  0  0
   -9.3646   -4.3437    1.6538 N   0  0  0  0  0  0  0  0  0  0  0  0
   -9.6273   -4.3021    0.2244 C   0  0  0  0  0  0  0  0  0  0  0  0
  -10.4410   -4.8854    2.4702 C   0  0  0  0  0  0  0  0  0  0  0  0
    2.2499   -3.2883    2.1089 H   0  0  0  0  0  0  0  0  0  0  0  0
   -0.7682   -1.2486    4.3751 H   0  0  0  0  0  0  0  0  0  0  0  0
   -2.1612   -1.2711    2.3805 H   0  0  0  0  0  0  0  0  0  0  0  0
    2.3875   -4.2754    4.3408 H   0  0  0  0  0  0  0  0  0  0  0  0
    3.6326   -3.0112    4.4357 H   0  0  0  0  0  0  0  0  0  0  0  0
    1.8353   -4.0489    6.7145 H   0  0  0  0  0  0  0  0  0  0  0  0
    3.5604   -4.3469    6.5358 H   0  0  0  0  0  0  0  0  0  0  0  0
    3.9721   -2.0357    6.8628 H   0  0  0  0  0  0  0  0  0  0  0  0
    1.0799   -1.6995    7.2669 H   0  0  0  0  0  0  0  0  0  0  0  0
    2.3104   -0.4498    7.4007 H   0  0  0  0  0  0  0  0  0  0  0  0
    2.8058   -0.5745    4.9844 H   0  0  0  0  0  0  0  0  0  0  0  0
    1.0809   -0.3200    5.2376 H   0  0  0  0  0  0  0  0  0  0  0  0
   -1.0832   -2.8274   -0.7427 H   0  0  0  0  0  0  0  0  0  0  0  0
   -5.4099   -1.4467   -1.8344 H   0  0  0  0  0  0  0  0  0  0  0  0
   -7.8102   -2.3395   -0.1011 H   0  0  0  0  0  0  0  0  0  0  0  0
   -6.0263   -5.2481    3.3113 H   0  0  0  0  0  0  0  0  0  0  0  0
   -4.1482   -2.9127    3.9994 H   0  0  0  0  0  0  0  0  0  0  0  0
   -5.7310   -3.2172    4.7198 H   0  0  0  0  0  0  0  0  0  0  0  0
   -3.3531   -4.2098    5.7617 H   0  0  0  0  0  0  0  0  0  0  0  0
   -4.9021   -5.0247    5.9973 H   0  0  0  0  0  0  0  0  0  0  0  0
   -2.6810   -6.1297    4.5761 H   0  0  0  0  0  0  0  0  0  0  0  0
   -4.3350   -6.7505    4.6217 H   0  0  0  0  0  0  0  0  0  0  0  0
   -4.1070   -6.2992    2.2697 H   0  0  0  0  0  0  0  0  0  0  0  0
   -3.0805   -4.8944    2.5989 H   0  0  0  0  0  0  0  0  0  0  0  0
  -10.3038   -5.1183   -0.0500 H   0  0  0  0  0  0  0  0  0  0  0  0
  -10.1165   -3.3497   -0.0018 H   0  0  0  0  0  0  0  0  0  0  0  0
   -8.7221   -4.4136   -0.3718 H   0  0  0  0  0  0  0  0  0  0  0  0
  -10.2871   -5.9670    2.5584 H   0  0  0  0  0  0  0  0  0  0  0  0
  -10.4468   -4.4448    3.4699 H   0  0  0  0  0  0  0  0  0  0  0  0
  -11.4095   -4.6954    1.9972 H   0  0  0  0  0  0  0  0  0  0  0  0
  1  2  2  0  0  0  0
  1 33  1  0  0  0  0
  2  3  1  0  0  0  0
  2  7  1  0  0  0  0
  3  4  2  0  0  0  0
  3 34  1  0  0  0  0
  4  5  1  0  0  0  0
  4 35  1  0  0  0  0
  5  6  2  0  0  0  0
  5 13  1  0  0  0  0
  6  1  1  0  0  0  0
  7  8  1  0  0  0  0
  8  9  1  0  0  0  0
  8 36  1  0  0  0  0
  8 37  1  0  0  0  0
  9 10  1  0  0  0  0
  9 38  1  0  0  0  0
  9 39  1  0  0  0  0
 10 11  1  0  0  0  0
 10 40  1  0  0  0  0
 11 12  1  0  0  0  0
 11 41  1  0  0  0  0
 11 42  1  0  0  0  0
 12  7  1  0  0  0  0
 12 43  1  0  0  0  0
 12 44  1  0  0  0  0
 13 14  1  0  0  0  0
 13 45  1  0  0  0  0
 14 15  2  0  0  0  0
 15 16  1  0  0  0  0
 16 17  2  0  0  0  0
 16 46  1  0  0  0  0
 17 18  1  0  0  0  0
 17 20  1  0  0  0  0
 18 19  2  0  0  0  0
 19 14  1  0  0  0  0
 20 21  2  0  0  0  0
 20 47  1  0  0  0  0
 21 22  1  0  0  0  0
 21 28  1  0  0  0  0
 22 18  1  0  0  0  0
 22 23  1  0  0  0  0
 23 24  1  0  0  0  0
 23 48  1  0  0  0  0
 24 25  1  0  0  0  0
 24 49  1  0  0  0  0
 24 50  1  0  0  0  0
 25 26  1  0  0  0  0
 25 51  1  0  0  0  0
 25 52  1  0  0  0  0
 26 27  1  0  0  0  0
 26 53  1  0  0  0  0
 26 54  1  0  0  0  0
 27 23  1  0  0  0  0
 27 55  1  0  0  0  0
 27 56  1  0  0  0  0
 28 29  2  0  0  0  0
 28 30  1  0  0  0  0
 30 31  1  0  0  0  0
 30 32  1  0  0  0  0
 31 57  1  0  0  0  0
 31 58  1  0  0  0  0
 31 59  1  0  0  0  0
 32 60  1  0  0  0  0
 32 61  1  0  0  0  0
 32 62  1  0  0  0  0
M  END
>  <Mol_ID>
2359

>  <Formula>
C23H30N8O

>  <MolWeight>
434.5373

>  <Cat>
S7440

>  <Name>
Ribociclib (LEE011)

>  <Synonyms>
N/A

>  <Target>
CDK

>  <Form>
free base

>  <CAS>
1211441-98-3

>  <URL>
http://selleckchem.com/products/lee011.html

$$$$
