Leelamine (hydrochloride)
 OpenBabel08302521373D

 52 54  0  0  1  0  0  0  0  0999 V2000
    0.2602    0.3160    1.1819 C   0  0  0  0  0  0  0  0  0  0  0  0
    3.5952   -2.3722   -1.3192 C   0  0  0  0  0  0  0  0  0  0  0  0
    5.0449   -2.3978   -1.4796 N   0  0  0  0  0  0  0  0  0  0  0  0
    3.4412    0.1292   -0.9195 C   0  0  0  0  0  0  0  0  0  0  0  0
   -4.7343   -3.3867    0.1862 C   0  0  0  0  0  0  0  0  0  0  0  0
   -5.7164   -2.2132    0.2419 C   0  0  0  0  0  0  0  0  0  0  0  0
   -4.8874   -4.1836   -1.1131 C   0  0  0  0  0  0  0  0  0  0  0  0
   -0.6996   -1.8915    0.7072 C   0  0  0  0  0  0  0  0  0  0  0  0
    0.6436   -1.1684    0.9197 C   0  0  1  0  0  0  0  0  0  0  0  0
   -1.3805   -1.6973   -0.5109 C   0  0  0  0  0  0  0  0  0  0  0  0
   -1.2864   -2.7204    1.6731 C   0  0  0  0  0  0  0  0  0  0  0  0
    1.4580   -1.4427   -0.3914 C   0  0  2  0  0  0  0  0  0  0  0  0
    1.4385   -1.6667    2.1422 C   0  0  0  0  0  0  0  0  0  0  0  0
   -0.6793   -1.2232   -1.7610 C   0  0  0  0  0  0  0  0  0  0  0  0
   -2.7058   -2.1216   -0.6437 C   0  0  0  0  0  0  0  0  0  0  0  0
   -2.5672   -3.2399    1.4803 C   0  0  0  0  0  0  0  0  0  0  0  0
    3.0228   -1.2528   -0.3693 C   0  0  1  0  0  0  0  0  0  0  0  0
    0.7582   -0.7385   -1.5764 C   0  0  0  0  0  0  0  0  0  0  0  0
    2.8191   -1.0292    2.2169 C   0  0  0  0  0  0  0  0  0  0  0  0
   -3.3133   -2.8921    0.3513 C   0  0  0  0  0  0  0  0  0  0  0  0
    3.6598   -1.4654    1.0329 C   0  0  0  0  0  0  0  0  0  0  0  0
    1.1298    0.9650    1.3192 H   0  0  0  0  0  0  0  0  0  0  0  0
   -0.3555    0.3950    2.0928 H   0  0  0  0  0  0  0  0  0  0  0  0
   -0.3437    0.7600    0.3856 H   0  0  0  0  0  0  0  0  0  0  0  0
    3.3034   -3.3564   -0.9246 H   0  0  0  0  0  0  0  0  0  0  0  0
    3.1423   -2.3035   -2.3148 H   0  0  0  0  0  0  0  0  0  0  0  0
    5.4930   -2.3636   -0.5662 H   0  0  0  0  0  0  0  0  0  0  0  0
    5.3538   -1.5733   -1.9881 H   0  0  0  0  0  0  0  0  0  0  0  0
    3.2404    0.2197   -1.9924 H   0  0  0  0  0  0  0  0  0  0  0  0
    2.9107    0.9398   -0.4053 H   0  0  0  0  0  0  0  0  0  0  0  0
    4.5194    0.3114   -0.7851 H   0  0  0  0  0  0  0  0  0  0  0  0
   -4.9646   -4.0597    1.0203 H   0  0  0  0  0  0  0  0  0  0  0  0
   -6.7481   -2.5723    0.2738 H   0  0  0  0  0  0  0  0  0  0  0  0
   -5.5439   -1.5954    1.1328 H   0  0  0  0  0  0  0  0  0  0  0  0
   -5.6171   -1.5555   -0.6304 H   0  0  0  0  0  0  0  0  0  0  0  0
   -5.0721   -3.5272   -1.9724 H   0  0  0  0  0  0  0  0  0  0  0  0
   -5.7263   -4.8779   -1.0380 H   0  0  0  0  0  0  0  0  0  0  0  0
   -3.9856   -4.7689   -1.3361 H   0  0  0  0  0  0  0  0  0  0  0  0
   -0.7588   -2.9964    2.5814 H   0  0  0  0  0  0  0  0  0  0  0  0
    1.3229   -2.5257   -0.5728 H   0  0  0  0  0  0  0  0  0  0  0  0
    1.5552   -2.7590    2.1073 H   0  0  0  0  0  0  0  0  0  0  0  0
    0.9014   -1.4438    3.0732 H   0  0  0  0  0  0  0  0  0  0  0  0
   -0.6344   -2.0964   -2.4279 H   0  0  0  0  0  0  0  0  0  0  0  0
   -1.2725   -0.4597   -2.2757 H   0  0  0  0  0  0  0  0  0  0  0  0
   -3.2481   -1.8886   -1.5581 H   0  0  0  0  0  0  0  0  0  0  0  0
   -2.9819   -3.9107    2.2291 H   0  0  0  0  0  0  0  0  0  0  0  0
    1.2952   -0.9103   -2.5152 H   0  0  0  0  0  0  0  0  0  0  0  0
    0.7507    0.3503   -1.4372 H   0  0  0  0  0  0  0  0  0  0  0  0
    2.7667    0.0625    2.2699 H   0  0  0  0  0  0  0  0  0  0  0  0
    3.3138   -1.3491    3.1424 H   0  0  0  0  0  0  0  0  0  0  0  0
    3.8826   -2.5293    1.1796 H   0  0  0  0  0  0  0  0  0  0  0  0
    4.6294   -0.9526    1.0930 H   0  0  0  0  0  0  0  0  0  0  0  0
  1 22  1  0  0  0  0
  1 23  1  0  0  0  0
  1 24  1  0  0  0  0
  2  3  1  0  0  0  0
  2 25  1  0  0  0  0
  2 26  1  0  0  0  0
  3 27  1  0  0  0  0
  3 28  1  0  0  0  0
  4 29  1  0  0  0  0
  4 30  1  0  0  0  0
  4 31  1  0  0  0  0
  5  6  1  0  0  0  0
  5  7  1  0  0  0  0
  5 20  1  0  0  0  0
  5 32  1  0  0  0  0
  6 33  1  0  0  0  0
  6 34  1  0  0  0  0
  6 35  1  0  0  0  0
  7 36  1  0  0  0  0
  7 37  1  0  0  0  0
  7 38  1  0  0  0  0
  8  9  1  0  0  0  0
  8 10  1  0  0  0  0
  8 11  2  0  0  0  0
  9  1  1  1  0  0  0
  9 12  1  0  0  0  0
  9 13  1  0  0  0  0
 10 14  1  0  0  0  0
 10 15  2  0  0  0  0
 11 16  1  0  0  0  0
 11 39  1  0  0  0  0
 12 17  1  0  0  0  0
 12 18  1  0  0  0  0
 12 40  1  6  0  0  0
 13 19  1  0  0  0  0
 13 41  1  0  0  0  0
 13 42  1  0  0  0  0
 14 18  1  0  0  0  0
 14 43  1  0  0  0  0
 14 44  1  0  0  0  0
 15 20  1  0  0  0  0
 15 45  1  0  0  0  0
 16 20  2  0  0  0  0
 16 46  1  0  0  0  0
 17 21  1  0  0  0  0
 17  4  1  6  0  0  0
 17  2  1  0  0  0  0
 18 47  1  0  0  0  0
 18 48  1  0  0  0  0
 19 21  1  0  0  0  0
 19 49  1  0  0  0  0
 19 50  1  0  0  0  0
 21 51  1  0  0  0  0
 21 52  1  0  0  0  0
M  END
>  <Mol_ID>
7322

>  <Formula>
C20H31N

>  <MolWeight>
285.46684

>  <Cat>
E4364

>  <Name>
Leelamine (hydrochloride)

>  <Target>
Cannabinoid Receptor

>  <Form>
hydrochloride salt

>  <CAS>
1446-61-3

>  <URL>
https://www.selleckchem.com/products/leelamine-hydrochloride.html

$$$$
