leflunomide.cdx
 OpenBabel08302522033D

 28 29  0  0  0  0  0  0  0  0999 V2000
    1.4482   -0.0316    0.0327 C   0  0  0  0  0  0  0  0  0  0  0  0
    0.8929    1.2096   -0.2885 C   0  0  0  0  0  0  0  0  0  0  0  0
   -0.4917    1.3790   -0.3844 C   0  0  0  0  0  0  0  0  0  0  0  0
   -1.3586    0.3039   -0.1682 C   0  0  0  0  0  0  0  0  0  0  0  0
   -0.8046   -0.9505    0.1293 C   0  0  0  0  0  0  0  0  0  0  0  0
    0.5861   -1.1189    0.2193 C   0  0  0  0  0  0  0  0  0  0  0  0
   -2.8547    0.4896   -0.2546 C   0  0  0  0  0  0  0  0  0  0  0  0
   -3.2308    1.7681   -0.5400 F   0  0  0  0  0  0  0  0  0  0  0  0
   -3.4204   -0.2879   -1.2190 F   0  0  0  0  0  0  0  0  0  0  0  0
   -3.4888    0.1665    0.9065 F   0  0  0  0  0  0  0  0  0  0  0  0
    2.8422   -0.2414    0.1767 N   0  0  0  0  0  0  0  0  0  0  0  0
    3.7867    0.7598    0.3428 C   0  0  0  0  0  0  0  0  0  0  0  0
    5.1593    0.3188    0.4812 C   0  0  0  0  0  0  0  0  0  0  0  0
    3.5357    1.9542    0.4620 O   0  0  0  0  0  0  0  0  0  0  0  0
    6.1486    0.9809    1.2471 C   0  0  0  0  0  0  0  0  0  0  0  0
    7.3347    0.3772    1.1819 N   0  0  0  0  0  0  0  0  0  0  0  0
    7.1509   -0.6854    0.3190 O   0  0  0  0  0  0  0  0  0  0  0  0
    5.8569   -0.7118   -0.1146 C   0  0  0  0  0  0  0  0  0  0  0  0
    5.5768   -1.7507   -1.1228 C   0  0  0  0  0  0  0  0  0  0  0  0
    1.5124    2.0798   -0.4842 H   0  0  0  0  0  0  0  0  0  0  0  0
   -0.8830    2.3666   -0.6272 H   0  0  0  0  0  0  0  0  0  0  0  0
   -1.4602   -1.8040    0.3031 H   0  0  0  0  0  0  0  0  0  0  0  0
    0.9726   -2.1049    0.4675 H   0  0  0  0  0  0  0  0  0  0  0  0
    3.1458   -1.1919    0.3266 H   0  0  0  0  0  0  0  0  0  0  0  0
    6.0408    1.8743    1.8481 H   0  0  0  0  0  0  0  0  0  0  0  0
    6.2127   -1.6000   -2.0018 H   0  0  0  0  0  0  0  0  0  0  0  0
    5.7932   -2.7434   -0.7158 H   0  0  0  0  0  0  0  0  0  0  0  0
    4.5369   -1.7339   -1.4567 H   0  0  0  0  0  0  0  0  0  0  0  0
  1  2  2  0  0  0  0
  1 11  1  0  0  0  0
  2  3  1  0  0  0  0
  2 20  1  0  0  0  0
  3  4  2  0  0  0  0
  3 21  1  0  0  0  0
  4  5  1  0  0  0  0
  4  7  1  0  0  0  0
  5  6  2  0  0  0  0
  5 22  1  0  0  0  0
  6  1  1  0  0  0  0
  6 23  1  0  0  0  0
  7  8  1  0  0  0  0
  7  9  1  0  0  0  0
  7 10  1  0  0  0  0
 11 12  1  0  0  0  0
 11 24  1  0  0  0  0
 12 13  1  0  0  0  0
 12 14  2  0  0  0  0
 13 15  1  0  0  0  0
 15 16  2  0  0  0  0
 15 25  1  0  0  0  0
 16 17  1  0  0  0  0
 17 18  1  0  0  0  0
 18 13  2  0  0  0  0
 18 19  1  0  0  0  0
 19 26  1  0  0  0  0
 19 27  1  0  0  0  0
 19 28  1  0  0  0  0
M  END
>  <Mol_ID>
137

>  <Formula>
C12H9F3N2O2

>  <MolWeight>
270.2072696

>  <Cat>
S1247

>  <Name>
Leflunomide (HWA486)

>  <Synonyms>
HWA486, RS-34821, SU101, Arava

>  <Target>
AhR,Dehydrogenase

>  <Form>
free base

>  <CAS>
75706-12-6

>  <URL>
http://selleckchem.com/products/Leflunomide.html

$$$$
