leniolisib (CDZ 173)
 OpenBabel08302521043D

 57 60  0  0  0  0  0  0  0  0999 V2000
    2.7443   -2.3599  -12.0902 C   0  0  0  0  0  0  0  0  0  0  0  0
    1.8879   -2.0743  -13.1355 C   0  0  0  0  0  0  0  0  0  0  0  0
    0.6711   -1.5113  -12.9599 N   0  0  0  0  0  0  0  0  0  0  0  0
    0.2819   -1.2476  -11.6917 C   0  0  0  0  0  0  0  0  0  0  0  0
    1.0395   -1.5048  -10.5535 C   0  0  0  0  0  0  0  0  0  0  0  0
    2.2970   -2.0600  -10.7909 C   0  0  0  0  0  0  0  0  0  0  0  0
    4.0938   -2.9791  -12.2545 C   0  0  0  0  0  0  0  0  0  0  0  0
    0.5306   -1.3087   -9.2841 N   0  0  0  0  0  0  0  0  0  0  0  0
    1.0181   -2.1447   -8.1879 C   0  0  0  0  0  0  0  0  0  0  0  0
    0.0250   -2.1760   -7.0687 C   0  0  0  0  0  0  0  0  0  0  0  0
   -0.9552   -1.2027   -6.9259 C   0  0  0  0  0  0  0  0  0  0  0  0
   -1.1439   -0.1307   -7.9693 C   0  0  0  0  0  0  0  0  0  0  0  0
    0.0690    0.0222   -8.8863 C   0  0  0  0  0  0  0  0  0  0  0  0
    0.0298   -3.2024   -6.1365 C   0  0  0  0  0  0  0  0  0  0  0  0
   -0.8718   -3.2599   -5.1465 N   0  0  0  0  0  0  0  0  0  0  0  0
   -1.7603   -2.2584   -5.0766 C   0  0  0  0  0  0  0  0  0  0  0  0
   -1.8520   -1.2231   -5.9192 N   0  0  0  0  0  0  0  0  0  0  0  0
    1.0310   -4.1864   -6.2210 N   0  0  0  0  0  0  0  0  0  0  0  0
    0.7446   -5.4504   -5.5431 C   0  0  1  0  0  0  0  0  0  0  0  0
    1.8872   -6.4409   -5.8229 C   0  0  0  0  0  0  0  0  0  0  0  0
    1.8679   -7.3572   -4.6139 C   0  0  0  0  0  0  0  0  0  0  0  0
    1.5144   -6.4641   -3.5288 N   0  0  0  0  0  0  0  0  0  0  0  0
    0.7141   -5.3533   -4.0102 C   0  0  0  0  0  0  0  0  0  0  0  0
    1.7986   -6.5800   -2.1895 C   0  0  0  0  0  0  0  0  0  0  0  0
    1.3685   -5.7735   -1.3658 O   0  0  0  0  0  0  0  0  0  0  0  0
    2.6954   -7.7362   -1.7935 C   0  0  0  0  0  0  0  0  0  0  0  0
    2.9784   -7.7445   -0.3011 C   0  0  0  0  0  0  0  0  0  0  0  0
    2.2778   -2.3819  -14.4177 O   0  0  0  0  0  0  0  0  0  0  0  0
    1.2775   -2.0941  -15.3932 C   0  0  0  0  0  0  0  0  0  0  0  0
    4.4887   -3.2658  -13.5219 F   0  0  0  0  0  0  0  0  0  0  0  0
    5.0780   -2.1853  -11.7353 F   0  0  0  0  0  0  0  0  0  0  0  0
    4.1955   -4.1555  -11.5650 F   0  0  0  0  0  0  0  0  0  0  0  0
   -0.7287   -0.8567  -11.6069 H   0  0  0  0  0  0  0  0  0  0  0  0
    2.9644   -2.2788   -9.9591 H   0  0  0  0  0  0  0  0  0  0  0  0
    1.1666   -3.1681   -8.5567 H   0  0  0  0  0  0  0  0  0  0  0  0
    1.9760   -1.7612   -7.8111 H   0  0  0  0  0  0  0  0  0  0  0  0
   -1.3670    0.8273   -7.4870 H   0  0  0  0  0  0  0  0  0  0  0  0
   -2.0164   -0.4109   -8.5731 H   0  0  0  0  0  0  0  0  0  0  0  0
    0.8798    0.5408   -8.3574 H   0  0  0  0  0  0  0  0  0  0  0  0
   -0.2033    0.6498   -9.7424 H   0  0  0  0  0  0  0  0  0  0  0  0
   -2.4703   -2.2914   -4.2577 H   0  0  0  0  0  0  0  0  0  0  0  0
    1.9119   -3.7724   -5.9113 H   0  0  0  0  0  0  0  0  0  0  0  0
   -0.1926   -5.8813   -5.9204 H   0  0  0  0  0  0  0  0  0  0  0  0
    2.8530   -5.9203   -5.8708 H   0  0  0  0  0  0  0  0  0  0  0  0
    1.7577   -6.9818   -6.7653 H   0  0  0  0  0  0  0  0  0  0  0  0
    1.0753   -8.1097   -4.7017 H   0  0  0  0  0  0  0  0  0  0  0  0
    2.8215   -7.8620   -4.4483 H   0  0  0  0  0  0  0  0  0  0  0  0
    1.1332   -4.4198   -3.6210 H   0  0  0  0  0  0  0  0  0  0  0  0
   -0.3070   -5.4699   -3.6290 H   0  0  0  0  0  0  0  0  0  0  0  0
    2.2143   -8.6758   -2.0831 H   0  0  0  0  0  0  0  0  0  0  0  0
    3.6442   -7.6394   -2.3315 H   0  0  0  0  0  0  0  0  0  0  0  0
    2.0541   -7.8684    0.2725 H   0  0  0  0  0  0  0  0  0  0  0  0
    3.6561   -8.5640   -0.0456 H   0  0  0  0  0  0  0  0  0  0  0  0
    3.4442   -6.8045    0.0145 H   0  0  0  0  0  0  0  0  0  0  0  0
    0.3744   -2.6918  -15.2232 H   0  0  0  0  0  0  0  0  0  0  0  0
    1.0416   -1.0241  -15.4148 H   0  0  0  0  0  0  0  0  0  0  0  0
    1.6762   -2.3657  -16.3747 H   0  0  0  0  0  0  0  0  0  0  0  0
  1  2  2  0  0  0  0
  1  7  1  0  0  0  0
  2  3  1  0  0  0  0
  2 28  1  0  0  0  0
  3  4  2  0  0  0  0
  4  5  1  0  0  0  0
  4 33  1  0  0  0  0
  5  6  2  0  0  0  0
  5  8  1  0  0  0  0
  6  1  1  0  0  0  0
  6 34  1  0  0  0  0
  7 30  1  0  0  0  0
  7 31  1  0  0  0  0
  7 32  1  0  0  0  0
  8  9  1  0  0  0  0
  9 10  1  0  0  0  0
  9 35  1  0  0  0  0
  9 36  1  0  0  0  0
 10 11  2  0  0  0  0
 10 14  1  0  0  0  0
 11 12  1  0  0  0  0
 12 13  1  0  0  0  0
 12 37  1  0  0  0  0
 12 38  1  0  0  0  0
 13  8  1  0  0  0  0
 13 39  1  0  0  0  0
 13 40  1  0  0  0  0
 14 15  2  0  0  0  0
 14 18  1  0  0  0  0
 15 16  1  0  0  0  0
 16 17  2  0  0  0  0
 16 41  1  0  0  0  0
 17 11  1  0  0  0  0
 18 42  1  0  0  0  0
 19 20  1  0  0  0  0
 19 43  1  6  0  0  0
 19 18  1  0  0  0  0
 20 21  1  0  0  0  0
 20 44  1  0  0  0  0
 20 45  1  0  0  0  0
 21 22  1  0  0  0  0
 21 46  1  0  0  0  0
 21 47  1  0  0  0  0
 22 23  1  0  0  0  0
 22 24  1  0  0  0  0
 23 19  1  0  0  0  0
 23 48  1  0  0  0  0
 23 49  1  0  0  0  0
 24 25  2  0  0  0  0
 24 26  1  0  0  0  0
 26 27  1  0  0  0  0
 26 50  1  0  0  0  0
 26 51  1  0  0  0  0
 27 52  1  0  0  0  0
 27 53  1  0  0  0  0
 27 54  1  0  0  0  0
 28 29  1  0  0  0  0
 29 55  1  0  0  0  0
 29 56  1  0  0  0  0
 29 57  1  0  0  0  0
M  END
>  <Mol_ID>
4314

>  <Formula>
C21H25F3N6O2

>  <MolWeight>
450.4574096

>  <Cat>
S8752

>  <Name>
leniolisib (CDZ 173)

>  <Synonyms>
N/A

>  <Target>
PI3K

>  <Form>
Free Base

>  <CAS>
1354690-24-6

>  <URL>
http://www.selleckchem.com/products/leniolisib-cdz-173.html

$$$$
