Lerisetron
 OpenBabel08302521233D

 42 45  0  0  0  0  0  0  0  0999 V2000
    1.5949   -1.1354   -0.1631 N   0  0  0  0  0  0  0  0  0  0  0  0
    2.4465   -0.0563    0.0246 C   0  0  0  0  0  0  0  0  0  0  0  0
    0.3000   -0.6578   -0.2149 C   0  0  0  0  0  0  0  0  0  0  0  0
    1.9392   -2.5482   -0.0475 C   0  0  0  0  0  0  0  0  0  0  0  0
    3.7973   -0.1973    0.1363 N   0  0  0  0  0  0  0  0  0  0  0  0
    1.7495    1.0483    0.1933 N   0  0  0  0  0  0  0  0  0  0  0  0
    0.4312    0.7019    0.0394 C   0  0  0  0  0  0  0  0  0  0  0  0
   -0.9421   -1.2755   -0.4229 C   0  0  0  0  0  0  0  0  0  0  0  0
    2.3148   -3.2105   -1.3534 C   0  0  0  0  0  0  0  0  0  0  0  0
    4.5306    0.8096    0.9288 C   0  0  0  0  0  0  0  0  0  0  0  0
    4.5624   -0.8156   -0.9612 C   0  0  0  0  0  0  0  0  0  0  0  0
   -0.7235    1.4969    0.1220 C   0  0  0  0  0  0  0  0  0  0  0  0
   -2.0798   -0.4659   -0.3493 C   0  0  0  0  0  0  0  0  0  0  0  0
    3.2805   -4.2314   -1.3403 C   0  0  0  0  0  0  0  0  0  0  0  0
    1.7391   -2.8512   -2.5823 C   0  0  0  0  0  0  0  0  0  0  0  0
    5.4145    1.7346    0.0659 C   0  0  0  0  0  0  0  0  0  0  0  0
    5.4556    0.1804   -1.7270 C   0  0  0  0  0  0  0  0  0  0  0  0
   -1.9759    0.8975   -0.0716 C   0  0  0  0  0  0  0  0  0  0  0  0
    3.6985   -4.8340   -2.5282 C   0  0  0  0  0  0  0  0  0  0  0  0
    2.1616   -3.4524   -3.7691 C   0  0  0  0  0  0  0  0  0  0  0  0
    6.3092    1.0008   -0.8526 N   0  0  0  0  0  0  0  0  0  0  0  0
    3.1454   -4.4374   -3.7428 C   0  0  0  0  0  0  0  0  0  0  0  0
    2.7601   -2.6187    0.6762 H   0  0  0  0  0  0  0  0  0  0  0  0
    1.0829   -3.0738    0.3939 H   0  0  0  0  0  0  0  0  0  0  0  0
   -1.0279   -2.3360   -0.6383 H   0  0  0  0  0  0  0  0  0  0  0  0
    3.8600    1.4227    1.5438 H   0  0  0  0  0  0  0  0  0  0  0  0
    5.1740    0.2665    1.6321 H   0  0  0  0  0  0  0  0  0  0  0  0
    5.1832   -1.6119   -0.5337 H   0  0  0  0  0  0  0  0  0  0  0  0
    3.9098   -1.2682   -1.7071 H   0  0  0  0  0  0  0  0  0  0  0  0
   -0.6379    2.5554    0.3391 H   0  0  0  0  0  0  0  0  0  0  0  0
   -3.0629   -0.9084   -0.5037 H   0  0  0  0  0  0  0  0  0  0  0  0
    3.7338   -4.5497   -0.4033 H   0  0  0  0  0  0  0  0  0  0  0  0
    0.9802   -2.0744   -2.6421 H   0  0  0  0  0  0  0  0  0  0  0  0
    4.7898    2.4246   -0.5138 H   0  0  0  0  0  0  0  0  0  0  0  0
    6.0365    2.3510    0.7243 H   0  0  0  0  0  0  0  0  0  0  0  0
    4.8325    0.8370   -2.3461 H   0  0  0  0  0  0  0  0  0  0  0  0
    6.0955   -0.3812   -2.4186 H   0  0  0  0  0  0  0  0  0  0  0  0
   -2.8763    1.5038   -0.0026 H   0  0  0  0  0  0  0  0  0  0  0  0
    4.4618   -5.6078   -2.5069 H   0  0  0  0  0  0  0  0  0  0  0  0
    1.7275   -3.1412   -4.7161 H   0  0  0  0  0  0  0  0  0  0  0  0
    6.8886    0.3721   -0.2957 H   0  0  0  0  0  0  0  0  0  0  0  0
    3.4789   -4.8961   -4.6699 H   0  0  0  0  0  0  0  0  0  0  0  0
  1  2  1  0  0  0  0
  1  3  1  0  0  0  0
  1  4  1  0  0  0  0
  2  5  1  0  0  0  0
  2  6  2  0  0  0  0
  3  7  2  0  0  0  0
  3  8  1  0  0  0  0
  4  9  1  0  0  0  0
  4 23  1  0  0  0  0
  4 24  1  0  0  0  0
  5 10  1  0  0  0  0
  5 11  1  0  0  0  0
  6  7  1  0  0  0  0
  7 12  1  0  0  0  0
  8 13  2  0  0  0  0
  8 25  1  0  0  0  0
  9 14  2  0  0  0  0
  9 15  1  0  0  0  0
 10 16  1  0  0  0  0
 10 26  1  0  0  0  0
 10 27  1  0  0  0  0
 11 17  1  0  0  0  0
 11 28  1  0  0  0  0
 11 29  1  0  0  0  0
 12 18  2  0  0  0  0
 12 30  1  0  0  0  0
 13 18  1  0  0  0  0
 13 31  1  0  0  0  0
 14 19  1  0  0  0  0
 14 32  1  0  0  0  0
 15 20  2  0  0  0  0
 15 33  1  0  0  0  0
 16 21  1  0  0  0  0
 16 34  1  0  0  0  0
 16 35  1  0  0  0  0
 17 21  1  0  0  0  0
 17 36  1  0  0  0  0
 17 37  1  0  0  0  0
 18 38  1  0  0  0  0
 19 22  2  0  0  0  0
 19 39  1  0  0  0  0
 20 22  1  0  0  0  0
 20 40  1  0  0  0  0
 21 41  1  0  0  0  0
 22 42  1  0  0  0  0
M  END
>  <Mol_ID>
4886

>  <Formula>
C18H20N4

>  <MolWeight>
292.3782

>  <Cat>
S2644

>  <Name>
Lerisetron

>  <Synonyms>
F 0930, F 0930RS

>  <Target>
5-HT Receptor

>  <Form>
Free Base

>  <CAS>
143257-98-1

>  <URL>
http://www.selleck.cn/products/lerisetron.html

$$$$
