Lesinurad sodium
 OpenBabel08302521303D

 37 40  0  0  0  0  0  0  0  0999 V2000
    1.4979   -0.0938   -0.8972 Br  0  0  0  0  0  0  0  0  0  0  0  0
    6.3311   -1.5904    1.6331 S   0  0  0  0  0  0  0  0  0  0  0  0
    5.9532    0.7441    4.8019 O   0  5  0  0  0  0  0  0  0  0  0  0
    4.5457   -0.7055    3.7463 O   0  0  0  0  0  0  0  0  0  0  0  0
    3.9686   -1.3628    0.1321 N   0  0  0  0  0  0  0  0  0  0  0  0
    5.2062    0.4744    0.3311 N   0  0  0  0  0  0  0  0  0  0  0  0
    4.0708    0.8075   -0.3583 N   0  0  0  0  0  0  0  0  0  0  0  0
    3.0518   -7.0746   -0.1208 C   0  0  0  0  0  0  0  0  0  0  0  0
    1.8226   -7.9213    0.0907 C   0  0  0  0  0  0  0  0  0  0  0  0
    2.9366   -7.9708    1.0905 C   0  0  0  0  0  0  0  0  0  0  0  0
    3.0328   -5.5488   -0.0149 C   0  0  0  0  0  0  0  0  0  0  0  0
    2.6854   -4.7250   -1.1218 C   0  0  0  0  0  0  0  0  0  0  0  0
    3.5358   -4.9171    1.1316 C   0  0  0  0  0  0  0  0  0  0  0  0
    3.0464   -3.3398   -1.1469 C   0  0  0  0  0  0  0  0  0  0  0  0
    3.5884   -2.7474    0.0446 C   0  0  0  0  0  0  0  0  0  0  0  0
    3.7682   -3.5439    1.1788 C   0  0  0  0  0  0  0  0  0  0  0  0
    2.0136   -5.2818   -2.2362 C   0  0  0  0  0  0  0  0  0  0  0  0
    2.8992   -2.6844   -2.4012 C   0  0  0  0  0  0  0  0  0  0  0  0
    1.7414   -4.5456   -3.3847 C   0  0  0  0  0  0  0  0  0  0  0  0
    2.2252   -3.2561   -3.4840 C   0  0  0  0  0  0  0  0  0  0  0  0
    5.0958   -0.7800    0.7146 C   0  0  0  0  0  0  0  0  0  0  0  0
    3.2979   -0.2561   -0.3776 C   0  0  0  0  0  0  0  0  0  0  0  0
    6.7602   -0.3015    2.8523 C   0  0  0  0  0  0  0  0  0  0  0  0
    5.6347   -0.0734    3.8760 C   0  0  0  0  0  0  0  0  0  0  0  0
    3.7430   -7.4360   -0.8840 H   0  0  0  0  0  0  0  0  0  0  0  0
    0.8977   -7.4446    0.3928 H   0  0  0  0  0  0  0  0  0  0  0  0
    1.6888   -8.7868   -0.5499 H   0  0  0  0  0  0  0  0  0  0  0  0
    3.5785   -8.8448    1.1145 H   0  0  0  0  0  0  0  0  0  0  0  0
    2.7364   -7.5491    2.0672 H   0  0  0  0  0  0  0  0  0  0  0  0
    3.7883   -5.5016    2.0138 H   0  0  0  0  0  0  0  0  0  0  0  0
    4.0943   -3.1175    2.1288 H   0  0  0  0  0  0  0  0  0  0  0  0
    1.6653   -6.3124   -2.2091 H   0  0  0  0  0  0  0  0  0  0  0  0
    3.3142   -1.6934   -2.5633 H   0  0  0  0  0  0  0  0  0  0  0  0
    1.1879   -4.9931   -4.2048 H   0  0  0  0  0  0  0  0  0  0  0  0
    2.0768   -2.6832   -4.3951 H   0  0  0  0  0  0  0  0  0  0  0  0
    7.6471   -0.6423    3.3991 H   0  0  0  0  0  0  0  0  0  0  0  0
    7.0130    0.6373    2.3471 H   0  0  0  0  0  0  0  0  0  0  0  0
  1 22  1  0  0  0  0
  2 21  1  0  0  0  0
  2 23  1  0  0  0  0
  3 24  1  0  0  0  0
  4 24  2  0  0  0  0
  5 15  1  0  0  0  0
  5 21  1  0  0  0  0
  5 22  1  0  0  0  0
  6  7  1  0  0  0  0
  6 21  2  0  0  0  0
  7 22  2  0  0  0  0
  8  9  1  0  0  0  0
  8 10  1  0  0  0  0
  8 11  1  0  0  0  0
  8 25  1  0  0  0  0
  9 10  1  0  0  0  0
  9 26  1  0  0  0  0
  9 27  1  0  0  0  0
 10 28  1  0  0  0  0
 10 29  1  0  0  0  0
 11 12  1  0  0  0  0
 11 13  2  0  0  0  0
 12 14  2  0  0  0  0
 12 17  1  0  0  0  0
 13 16  1  0  0  0  0
 13 30  1  0  0  0  0
 14 15  1  0  0  0  0
 14 18  1  0  0  0  0
 15 16  2  0  0  0  0
 16 31  1  0  0  0  0
 17 19  2  0  0  0  0
 17 32  1  0  0  0  0
 18 20  2  0  0  0  0
 18 33  1  0  0  0  0
 19 20  1  0  0  0  0
 19 34  1  0  0  0  0
 20 35  1  0  0  0  0
 23 24  1  0  0  0  0
 23 36  1  0  0  0  0
 23 37  1  0  0  0  0
M  CHG  1   3  -1
M  END
>  <Mol_ID>
5673

>  <Formula>
C17H13BrN3NaO2S

>  <MolWeight>
426.26279

>  <Cat>
S5189

>  <Name>
Lesinurad sodium

>  <Synonyms>
Selexipag, Zurampic, RDEA-594 sodium

>  <Target>
OAT

>  <Form>
Sodium

>  <CAS>
1151516-14-1

>  <URL>
http://www.selleckchem.com/products/lesinurad-sodium.html

$$$$
