levobupivacaine hydrochloride.cdx
 OpenBabel08302522063D

 49 50  0  0  0  0  0  0  0  0999 V2000
   -0.8651    1.0989    0.3453 C   0  0  0  0  0  0  0  0  0  0  0  0
    0.6205    1.1982   -0.0830 C   0  0  2  0  0  0  0  0  0  0  0  0
    1.3897   -0.0652    0.2116 N   0  0  0  0  0  0  0  0  0  0  0  0
    0.6595   -1.2612   -0.2877 C   0  0  0  0  0  0  0  0  0  0  0  0
   -0.7765   -1.3706    0.2018 C   0  0  0  0  0  0  0  0  0  0  0  0
   -1.5555   -0.1376   -0.2126 C   0  0  0  0  0  0  0  0  0  0  0  0
    1.2417    2.5083    0.5452 C   0  0  0  0  0  0  0  0  0  0  0  0
    2.7245   -0.1281   -0.4655 C   0  0  0  0  0  0  0  0  0  0  0  0
    3.7375    0.8434    0.1017 C   0  0  0  0  0  0  0  0  0  0  0  0
    5.1763    0.7647   -0.3969 C   0  0  0  0  0  0  0  0  0  0  0  0
    5.8724   -0.5490   -0.1139 C   0  0  0  0  0  0  0  0  0  0  0  0
    1.6265    3.4124   -0.2002 O   0  0  0  0  0  0  0  0  0  0  0  0
    1.2479    2.6138    1.9245 N   0  0  0  0  0  0  0  0  0  0  0  0
    1.7076    3.7423    2.6756 C   0  0  0  0  0  0  0  0  0  0  0  0
    0.8204    4.3001    3.6392 C   0  0  0  0  0  0  0  0  0  0  0  0
    1.2882    5.2547    4.5631 C   0  0  0  0  0  0  0  0  0  0  0  0
    2.6088    5.6845    4.5507 C   0  0  0  0  0  0  0  0  0  0  0  0
    3.4593    5.2022    3.5711 C   0  0  0  0  0  0  0  0  0  0  0  0
    3.0207    4.2691    2.6140 C   0  0  0  0  0  0  0  0  0  0  0  0
    4.0365    3.9280    1.5690 C   0  0  0  0  0  0  0  0  0  0  0  0
   -0.6443    3.9733    3.6421 C   0  0  0  0  0  0  0  0  0  0  0  0
   -1.4045    1.9938    0.0102 H   0  0  0  0  0  0  0  0  0  0  0  0
   -0.9578    1.0746    1.4375 H   0  0  0  0  0  0  0  0  0  0  0  0
    0.6297    1.3478   -1.1722 H   0  0  0  0  0  0  0  0  0  0  0  0
    1.1877   -2.1678    0.0353 H   0  0  0  0  0  0  0  0  0  0  0  0
    0.6528   -1.2706   -1.3873 H   0  0  0  0  0  0  0  0  0  0  0  0
   -0.7951   -1.4871    1.2919 H   0  0  0  0  0  0  0  0  0  0  0  0
   -1.2429   -2.2673   -0.2245 H   0  0  0  0  0  0  0  0  0  0  0  0
   -2.5840   -0.2025    0.1589 H   0  0  0  0  0  0  0  0  0  0  0  0
   -1.6107   -0.0779   -1.3067 H   0  0  0  0  0  0  0  0  0  0  0  0
    3.1351   -1.1375   -0.3349 H   0  0  0  0  0  0  0  0  0  0  0  0
    2.6178    0.0362   -1.5460 H   0  0  0  0  0  0  0  0  0  0  0  0
    3.4143    1.8326   -0.2075 H   0  0  0  0  0  0  0  0  0  0  0  0
    3.7311    0.7710    1.1968 H   0  0  0  0  0  0  0  0  0  0  0  0
    5.2145    0.9876   -1.4684 H   0  0  0  0  0  0  0  0  0  0  0  0
    5.7376    1.5658    0.1040 H   0  0  0  0  0  0  0  0  0  0  0  0
    5.5827   -1.3050   -0.8480 H   0  0  0  0  0  0  0  0  0  0  0  0
    6.9572   -0.4120   -0.1825 H   0  0  0  0  0  0  0  0  0  0  0  0
    5.6408   -0.9202    0.8886 H   0  0  0  0  0  0  0  0  0  0  0  0
    0.5751    2.0281    2.3951 H   0  0  0  0  0  0  0  0  0  0  0  0
    0.6096    5.6923    5.2930 H   0  0  0  0  0  0  0  0  0  0  0  0
    2.9645    6.4102    5.2743 H   0  0  0  0  0  0  0  0  0  0  0  0
    4.4878    5.5629    3.5516 H   0  0  0  0  0  0  0  0  0  0  0  0
    3.9629    2.8899    1.3134 H   0  0  0  0  0  0  0  0  0  0  0  0
    3.9049    4.5651    0.6903 H   0  0  0  0  0  0  0  0  0  0  0  0
    5.0638    4.0561    1.9351 H   0  0  0  0  0  0  0  0  0  0  0  0
   -1.0539    4.1091    2.6355 H   0  0  0  0  0  0  0  0  0  0  0  0
   -0.8203    2.9503    3.9822 H   0  0  0  0  0  0  0  0  0  0  0  0
   -1.1975    4.6540    4.2993 H   0  0  0  0  0  0  0  0  0  0  0  0
  1  2  1  0  0  0  0
  1 22  1  0  0  0  0
  1 23  1  0  0  0  0
  2  3  1  0  0  0  0
  2 24  1  6  0  0  0
  2  7  1  0  0  0  0
  3  4  1  0  0  0  0
  3  8  1  0  0  0  0
  4  5  1  0  0  0  0
  4 25  1  0  0  0  0
  4 26  1  0  0  0  0
  5  6  1  0  0  0  0
  5 27  1  0  0  0  0
  5 28  1  0  0  0  0
  6  1  1  0  0  0  0
  6 29  1  0  0  0  0
  6 30  1  0  0  0  0
  7 12  2  0  0  0  0
  7 13  1  0  0  0  0
  8  9  1  0  0  0  0
  8 31  1  0  0  0  0
  8 32  1  0  0  0  0
  9 10  1  0  0  0  0
  9 33  1  0  0  0  0
  9 34  1  0  0  0  0
 10 11  1  0  0  0  0
 10 35  1  0  0  0  0
 10 36  1  0  0  0  0
 11 37  1  0  0  0  0
 11 38  1  0  0  0  0
 11 39  1  0  0  0  0
 13 14  1  0  0  0  0
 13 40  1  0  0  0  0
 14 15  2  0  0  0  0
 15 16  1  0  0  0  0
 15 21  1  0  0  0  0
 16 17  2  0  0  0  0
 16 41  1  0  0  0  0
 17 18  1  0  0  0  0
 17 42  1  0  0  0  0
 18 19  2  0  0  0  0
 18 43  1  0  0  0  0
 19 14  1  0  0  0  0
 19 20  1  0  0  0  0
 20 44  1  0  0  0  0
 20 45  1  0  0  0  0
 20 46  1  0  0  0  0
 21 47  1  0  0  0  0
 21 48  1  0  0  0  0
 21 49  1  0  0  0  0
M  END
>  <Mol_ID>
1454

>  <Formula>
C18H29ClN2O

>  <MolWeight>
324.88866

>  <Cat>
S4061

>  <Name>
Levobupivacaine HCl

>  <Synonyms>
(S)-(-)-Bupivacaine HCl

>  <Target>
Sodium Channel

>  <Form>
Hydrochloride

>  <CAS>
27262-48-2

>  <URL>
http://selleckchem.com/products/lvobupivacaine-hcl.html

$$$$
