Levobunolol(l-Bunolol) hydrochloride
 OpenBabel08302521373D

 46 47  0  0  0  0  0  0  0  0999 V2000
    2.0273   -3.8555   -1.9836 O   0  0  0  0  0  0  0  0  0  0  0  0
    2.0796   -2.4849   -1.5553 C   0  0  0  0  0  0  0  0  0  0  0  0
    0.6722   -1.8670   -1.5178 C   0  0  2  0  0  0  0  0  0  0  0  0
    0.6898   -0.3404   -1.2114 C   0  0  0  0  0  0  0  0  0  0  0  0
   -0.0995   -2.5155   -0.4963 O   0  0  0  0  0  0  0  0  0  0  0  0
    1.6293    0.4277   -2.0412 N   0  0  0  0  0  0  0  0  0  0  0  0
    1.6473    1.8939   -1.8424 C   0  0  0  0  0  0  0  0  0  0  0  0
    2.0176    2.2810   -0.4008 C   0  0  0  0  0  0  0  0  0  0  0  0
    2.7516    2.4236   -2.7824 C   0  0  0  0  0  0  0  0  0  0  0  0
    0.3186    2.5520   -2.2369 C   0  0  0  0  0  0  0  0  0  0  0  0
    7.8418   -5.4415   -1.1678 O   0  0  0  0  0  0  0  0  0  0  0  0
    4.4981   -4.2082   -1.9139 C   0  0  0  0  0  0  0  0  0  0  0  0
    5.5149   -5.0976   -1.4937 C   0  0  0  0  0  0  0  0  0  0  0  0
    3.1563   -4.6055   -1.7336 C   0  0  0  0  0  0  0  0  0  0  0  0
    4.8845   -2.9010   -2.5674 C   0  0  0  0  0  0  0  0  0  0  0  0
    5.2156   -6.3893   -1.0479 C   0  0  0  0  0  0  0  0  0  0  0  0
    6.9419   -4.6595   -1.4690 C   0  0  0  0  0  0  0  0  0  0  0  0
    2.8706   -5.9106   -1.3053 C   0  0  0  0  0  0  0  0  0  0  0  0
    6.3625   -2.7779   -2.9238 C   0  0  0  0  0  0  0  0  0  0  0  0
    3.8927   -6.8043   -0.9785 C   0  0  0  0  0  0  0  0  0  0  0  0
    7.2051   -3.2054   -1.7388 C   0  0  0  0  0  0  0  0  0  0  0  0
    2.5410   -2.4193   -0.5616 H   0  0  0  0  0  0  0  0  0  0  0  0
    2.6449   -1.9299   -2.2984 H   0  0  0  0  0  0  0  0  0  0  0  0
    0.1659   -2.0513   -2.4730 H   0  0  0  0  0  0  0  0  0  0  0  0
   -0.3335    0.0266   -1.3521 H   0  0  0  0  0  0  0  0  0  0  0  0
    0.9217   -0.2065   -0.1494 H   0  0  0  0  0  0  0  0  0  0  0  0
    0.0598   -3.4731   -0.5956 H   0  0  0  0  0  0  0  0  0  0  0  0
    2.5758    0.0943   -1.8602 H   0  0  0  0  0  0  0  0  0  0  0  0
    2.9264    1.7662   -0.0687 H   0  0  0  0  0  0  0  0  0  0  0  0
    2.2065    3.3589   -0.3221 H   0  0  0  0  0  0  0  0  0  0  0  0
    1.2154    2.0416    0.3046 H   0  0  0  0  0  0  0  0  0  0  0  0
    2.5411    2.1727   -3.8289 H   0  0  0  0  0  0  0  0  0  0  0  0
    2.8411    3.5138   -2.7165 H   0  0  0  0  0  0  0  0  0  0  0  0
    3.7320    2.0004   -2.5294 H   0  0  0  0  0  0  0  0  0  0  0  0
    0.0189    2.2735   -3.2532 H   0  0  0  0  0  0  0  0  0  0  0  0
   -0.4937    2.2796   -1.5554 H   0  0  0  0  0  0  0  0  0  0  0  0
    0.4052    3.6460   -2.2103 H   0  0  0  0  0  0  0  0  0  0  0  0
    4.6555   -2.0812   -1.8793 H   0  0  0  0  0  0  0  0  0  0  0  0
    4.3068   -2.7744   -3.4919 H   0  0  0  0  0  0  0  0  0  0  0  0
    6.0128   -7.0708   -0.7560 H   0  0  0  0  0  0  0  0  0  0  0  0
    1.8364   -6.2390   -1.2190 H   0  0  0  0  0  0  0  0  0  0  0  0
    6.5877   -1.7415   -3.2007 H   0  0  0  0  0  0  0  0  0  0  0  0
    6.5948   -3.4048   -3.7943 H   0  0  0  0  0  0  0  0  0  0  0  0
    3.6562   -7.8134   -0.6506 H   0  0  0  0  0  0  0  0  0  0  0  0
    6.9591   -2.6268   -0.8383 H   0  0  0  0  0  0  0  0  0  0  0  0
    8.2670   -3.0596   -1.9590 H   0  0  0  0  0  0  0  0  0  0  0  0
  1  2  1  0  0  0  0
  1 14  1  0  0  0  0
  2 22  1  0  0  0  0
  2 23  1  0  0  0  0
  3  5  1  0  0  0  0
  3 24  1  6  0  0  0
  3  4  1  0  0  0  0
  3  2  1  0  0  0  0
  4  6  1  0  0  0  0
  4 25  1  0  0  0  0
  4 26  1  0  0  0  0
  5 27  1  0  0  0  0
  6  7  1  0  0  0  0
  6 28  1  0  0  0  0
  7  8  1  0  0  0  0
  7  9  1  0  0  0  0
  7 10  1  0  0  0  0
  8 29  1  0  0  0  0
  8 30  1  0  0  0  0
  8 31  1  0  0  0  0
  9 32  1  0  0  0  0
  9 33  1  0  0  0  0
  9 34  1  0  0  0  0
 10 35  1  0  0  0  0
 10 36  1  0  0  0  0
 10 37  1  0  0  0  0
 11 17  2  0  0  0  0
 12 13  1  0  0  0  0
 12 14  2  0  0  0  0
 12 15  1  0  0  0  0
 13 16  2  0  0  0  0
 13 17  1  0  0  0  0
 14 18  1  0  0  0  0
 15 19  1  0  0  0  0
 15 38  1  0  0  0  0
 15 39  1  0  0  0  0
 16 20  1  0  0  0  0
 16 40  1  0  0  0  0
 17 21  1  0  0  0  0
 18 20  2  0  0  0  0
 18 41  1  0  0  0  0
 19 21  1  0  0  0  0
 19 42  1  0  0  0  0
 19 43  1  0  0  0  0
 20 44  1  0  0  0  0
 21 45  1  0  0  0  0
 21 46  1  0  0  0  0
M  END
>  <Mol_ID>
7576

>  <Formula>
C17H26ClNO3

>  <MolWeight>
327.84624

>  <Cat>
E2875

>  <Name>
Levobunolol(l-Bunolol) hydrochloride

>  <Target>
Adrenergic Receptor

>  <Form>
hydrochloride

>  <CAS>
27912-14-7

>  <URL>
https://www.selleckchem.com/products/levobunolol-l-bunolol-hydrochloride.html

$$$$
