Levoglucosan
 OpenBabel08302521293D

 21 22  0  0  0  0  0  0  0  0999 V2000
   -0.5747   -4.0121   -1.0317 C   0  0  2  0  0  0  0  0  0  0  0  0
   -0.6852   -2.4938   -0.6903 C   0  0  2  0  0  0  0  0  0  0  0  0
   -0.4602   -2.2314    0.8444 C   0  0  1  0  0  0  0  0  0  0  0  0
    0.7517   -3.0202    1.4482 C   0  0  2  0  0  0  0  0  0  0  0  0
    1.0118   -4.2665    0.5212 C   0  0  2  0  0  0  0  0  0  0  0  0
   -0.3631   -4.6660    0.2236 O   0  0  0  0  0  0  0  0  0  0  0  0
   -0.3022   -0.8399    1.1566 O   0  0  0  0  0  0  0  0  0  0  0  0
    0.7049   -4.4545   -1.7450 C   0  0  0  0  0  0  0  0  0  0  0  0
    1.6598   -4.7464   -0.6777 O   0  0  0  0  0  0  0  0  0  0  0  0
   -1.9911   -2.0121   -1.0468 O   0  0  0  0  0  0  0  0  0  0  0  0
    0.4136   -3.3996    2.7916 O   0  0  0  0  0  0  0  0  0  0  0  0
   -1.4755   -4.3907   -1.5278 H   0  0  0  0  0  0  0  0  0  0  0  0
    0.0142   -1.9044   -1.2935 H   0  0  0  0  0  0  0  0  0  0  0  0
   -1.3742   -2.5297    1.3760 H   0  0  0  0  0  0  0  0  0  0  0  0
    1.6426   -2.3794    1.5488 H   0  0  0  0  0  0  0  0  0  0  0  0
    1.3927   -3.3625    0.0025 H   0  0  0  0  0  0  0  0  0  0  0  0
   -0.1216   -0.3573    0.3308 H   0  0  0  0  0  0  0  0  0  0  0  0
    0.5634   -5.3777   -2.3166 H   0  0  0  0  0  0  0  0  0  0  0  0
    1.1224   -3.6871   -2.4034 H   0  0  0  0  0  0  0  0  0  0  0  0
   -2.6393   -2.4572   -0.4744 H   0  0  0  0  0  0  0  0  0  0  0  0
    0.1587   -2.5731    3.2460 H   0  0  0  0  0  0  0  0  0  0  0  0
  1  2  1  0  0  0  0
  1  8  1  0  0  0  0
  1 12  1  6  0  0  0
  2  3  1  0  0  0  0
  2 10  1  0  0  0  0
  2 13  1  6  0  0  0
  3  4  1  0  0  0  0
  3  7  1  0  0  0  0
  3 14  1  1  0  0  0
  4  5  1  0  0  0  0
  4 11  1  0  0  0  0
  4 15  1  1  0  0  0
  5  6  1  0  0  0  0
  5  9  1  0  0  0  0
  5 16  1  6  0  0  0
  6  1  1  0  0  0  0
  7 17  1  0  0  0  0
  8  9  1  0  0  0  0
  8 18  1  0  0  0  0
  8 19  1  0  0  0  0
 10 20  1  0  0  0  0
 11 21  1  0  0  0  0
M  END
>  <Mol_ID>
5484

>  <Formula>
C6H10O5

>  <MolWeight>
162.1406

>  <Cat>
S3319

>  <Name>
Levoglucosan

>  <Synonyms>
LG, LEV, Leucoglucosan, Glucosan, 1,6-anhydro-b-D-Glucose

>  <Target>
Others

>  <Form>
Free Base

>  <CAS>
498-07-7

>  <URL>
https://www.selleckchem.com/products/levoglucosan.html

$$$$
