Levodropropizine.cdx
 OpenBabel08302522043D

 37 38  0  0  0  0  0  0  0  0999 V2000
    0.6867   -0.6069    1.0994 C   0  0  0  0  0  0  0  0  0  0  0  0
    0.7287   -1.3342   -0.0860 C   0  0  0  0  0  0  0  0  0  0  0  0
   -0.0053   -0.8998   -1.1836 C   0  0  0  0  0  0  0  0  0  0  0  0
   -0.7742    0.2668   -1.0947 C   0  0  0  0  0  0  0  0  0  0  0  0
   -0.8359    1.0182    0.0936 C   0  0  0  0  0  0  0  0  0  0  0  0
   -0.0921    0.5541    1.1872 C   0  0  0  0  0  0  0  0  0  0  0  0
   -1.6111    2.1922    0.1147 N   0  0  0  0  0  0  0  0  0  0  0  0
   -2.2091    2.5833    1.4080 C   0  0  0  0  0  0  0  0  0  0  0  0
   -3.1276    3.8250    1.2374 C   0  0  0  0  0  0  0  0  0  0  0  0
   -2.5134    5.0076    0.5670 N   0  0  0  0  0  0  0  0  0  0  0  0
   -1.8719    4.5351   -0.6837 C   0  0  0  0  0  0  0  0  0  0  0  0
   -0.9222    3.3172   -0.5543 C   0  0  0  0  0  0  0  0  0  0  0  0
   -1.5974    5.7102    1.4846 C   0  0  0  0  0  0  0  0  0  0  0  0
   -0.8848    6.9776    0.9502 C   0  0  2  0  0  0  0  0  0  0  0  0
   -0.1538    7.5633    2.0433 O   0  0  0  0  0  0  0  0  0  0  0  0
   -1.8146    8.0547    0.3796 C   0  0  0  0  0  0  0  0  0  0  0  0
   -2.6796    8.5509    1.4050 O   0  0  0  0  0  0  0  0  0  0  0  0
    1.2633   -0.9358    1.9599 H   0  0  0  0  0  0  0  0  0  0  0  0
    1.3323   -2.2364   -0.1513 H   0  0  0  0  0  0  0  0  0  0  0  0
    0.0147   -1.4659   -2.1105 H   0  0  0  0  0  0  0  0  0  0  0  0
   -1.3541    0.5830   -1.9580 H   0  0  0  0  0  0  0  0  0  0  0  0
   -0.0801    1.0987    2.1243 H   0  0  0  0  0  0  0  0  0  0  0  0
   -2.8143    1.7557    1.7989 H   0  0  0  0  0  0  0  0  0  0  0  0
   -1.4334    2.8160    2.1458 H   0  0  0  0  0  0  0  0  0  0  0  0
   -4.0020    3.5281    0.6428 H   0  0  0  0  0  0  0  0  0  0  0  0
   -3.5249    4.1155    2.2185 H   0  0  0  0  0  0  0  0  0  0  0  0
   -2.6822    4.2561   -1.3721 H   0  0  0  0  0  0  0  0  0  0  0  0
   -1.3473    5.3549   -1.1838 H   0  0  0  0  0  0  0  0  0  0  0  0
   -0.0253    3.6018    0.0116 H   0  0  0  0  0  0  0  0  0  0  0  0
   -0.6038    3.0309   -1.5642 H   0  0  0  0  0  0  0  0  0  0  0  0
   -2.1721    6.0135    2.3710 H   0  0  0  0  0  0  0  0  0  0  0  0
   -0.8247    5.0329    1.8687 H   0  0  0  0  0  0  0  0  0  0  0  0
   -0.1470    6.6958    0.1925 H   0  0  0  0  0  0  0  0  0  0  0  0
   -0.7822    8.1781    2.4765 H   0  0  0  0  0  0  0  0  0  0  0  0
   -1.2163    8.9093    0.0430 H   0  0  0  0  0  0  0  0  0  0  0  0
   -2.4108    7.7014   -0.4663 H   0  0  0  0  0  0  0  0  0  0  0  0
   -3.4621    7.9688    1.4071 H   0  0  0  0  0  0  0  0  0  0  0  0
  1  2  2  0  0  0  0
  1 18  1  0  0  0  0
  2  3  1  0  0  0  0
  2 19  1  0  0  0  0
  3  4  2  0  0  0  0
  3 20  1  0  0  0  0
  4  5  1  0  0  0  0
  4 21  1  0  0  0  0
  5  6  2  0  0  0  0
  5  7  1  0  0  0  0
  6  1  1  0  0  0  0
  6 22  1  0  0  0  0
  7  8  1  0  0  0  0
  8  9  1  0  0  0  0
  8 23  1  0  0  0  0
  8 24  1  0  0  0  0
  9 10  1  0  0  0  0
  9 25  1  0  0  0  0
  9 26  1  0  0  0  0
 10 11  1  0  0  0  0
 10 13  1  0  0  0  0
 11 12  1  0  0  0  0
 11 27  1  0  0  0  0
 11 28  1  0  0  0  0
 12  7  1  0  0  0  0
 12 29  1  0  0  0  0
 12 30  1  0  0  0  0
 13 14  1  0  0  0  0
 13 31  1  0  0  0  0
 13 32  1  0  0  0  0
 14 16  1  0  0  0  0
 14 15  1  0  0  0  0
 14 33  1  6  0  0  0
 15 34  1  0  0  0  0
 16 17  1  0  0  0  0
 16 35  1  0  0  0  0
 16 36  1  0  0  0  0
 17 37  1  0  0  0  0
M  END
>  <Mol_ID>
1253

>  <Formula>
C13H20N2O2

>  <MolWeight>
236.3101

>  <Cat>
S4131

>  <Name>
Levodropropizine

>  <Synonyms>
(S)-(-)-Dropropizine,DF-526

>  <Target>
Histamine Receptor

>  <Form>
free base

>  <CAS>
99291-25-5

>  <URL>
http://selleckchem.com/products/levodropropizine.html

$$$$
