LEVOFLOXACIN (levofloxacin).cdx
 OpenBabel08302521233D

 46 49  0  0  0  0  0  0  0  0999 V2000
    0.3095    0.0010    0.1659 C   0  0  0  0  0  0  0  0  0  0  0  0
   -0.8699   -0.7622    0.1159 C   0  0  0  0  0  0  0  0  0  0  0  0
   -2.1135   -0.1464    0.0339 C   0  0  0  0  0  0  0  0  0  0  0  0
   -2.1786    1.2390   -0.0659 C   0  0  0  0  0  0  0  0  0  0  0  0
   -1.0322    2.0634   -0.0553 C   0  0  0  0  0  0  0  0  0  0  0  0
    0.2096    1.4181    0.1473 C   0  0  0  0  0  0  0  0  0  0  0  0
    1.5627   -0.6577    0.1984 N   0  0  0  0  0  0  0  0  0  0  0  0
    1.6168   -2.0363    0.1667 C   0  0  0  0  0  0  0  0  0  0  0  0
    0.5626   -2.8670    0.1416 C   0  0  0  0  0  0  0  0  0  0  0  0
   -0.7877   -2.2504    0.1076 C   0  0  0  0  0  0  0  0  0  0  0  0
    1.3395    2.2033    0.2610 O   0  0  0  0  0  0  0  0  0  0  0  0
    2.4426    1.5149    0.8564 C   0  0  0  0  0  0  0  0  0  0  0  0
    2.7394    0.2190    0.1029 C   0  0  2  0  0  0  0  0  0  0  0  0
    3.0944    0.4874   -1.3602 C   0  0  0  0  0  0  0  0  0  0  0  0
   -1.8215   -2.9072    0.0263 O   0  0  0  0  0  0  0  0  0  0  0  0
    0.8447   -4.3093    0.1256 C   0  0  0  0  0  0  0  0  0  0  0  0
    1.9139   -4.8182   -0.1722 O   0  0  0  0  0  0  0  0  0  0  0  0
   -0.1772   -5.0698    0.5368 O   0  0  0  0  0  0  0  0  0  0  0  0
   -3.3963    1.7966   -0.1706 F   0  0  0  0  0  0  0  0  0  0  0  0
   -1.2080    3.4415   -0.2591 N   0  0  0  0  0  0  0  0  0  0  0  0
   -0.2328    4.4131    0.2665 C   0  0  0  0  0  0  0  0  0  0  0  0
   -0.8296    5.8400    0.1997 C   0  0  0  0  0  0  0  0  0  0  0  0
   -1.2692    6.2121   -1.1670 N   0  0  0  0  0  0  0  0  0  0  0  0
   -2.2423    5.2033   -1.6458 C   0  0  0  0  0  0  0  0  0  0  0  0
   -1.6411    3.7818   -1.6372 C   0  0  0  0  0  0  0  0  0  0  0  0
   -1.8654    7.5434   -1.1824 C   0  0  0  0  0  0  0  0  0  0  0  0
   -3.0340   -0.7236    0.0146 H   0  0  0  0  0  0  0  0  0  0  0  0
    2.6345   -2.4271    0.1696 H   0  0  0  0  0  0  0  0  0  0  0  0
    3.3074    2.1861    0.8171 H   0  0  0  0  0  0  0  0  0  0  0  0
    2.2266    1.3261    1.9165 H   0  0  0  0  0  0  0  0  0  0  0  0
    3.5974   -0.2667    0.5871 H   0  0  0  0  0  0  0  0  0  0  0  0
    3.9645    1.1484   -1.4320 H   0  0  0  0  0  0  0  0  0  0  0  0
    3.3357   -0.4456   -1.8825 H   0  0  0  0  0  0  0  0  0  0  0  0
    2.2720    0.9600   -1.9109 H   0  0  0  0  0  0  0  0  0  0  0  0
    0.1457   -5.9907    0.4680 H   0  0  0  0  0  0  0  0  0  0  0  0
    0.6959    4.4003   -0.3174 H   0  0  0  0  0  0  0  0  0  0  0  0
   -0.0019    4.1850    1.3138 H   0  0  0  0  0  0  0  0  0  0  0  0
   -0.0664    6.5471    0.5455 H   0  0  0  0  0  0  0  0  0  0  0  0
   -1.6759    5.8990    0.8977 H   0  0  0  0  0  0  0  0  0  0  0  0
   -3.1419    5.2112   -1.0149 H   0  0  0  0  0  0  0  0  0  0  0  0
   -2.5544    5.4457   -2.6688 H   0  0  0  0  0  0  0  0  0  0  0  0
   -0.7839    3.7381   -2.3229 H   0  0  0  0  0  0  0  0  0  0  0  0
   -2.3973    3.0860   -2.0190 H   0  0  0  0  0  0  0  0  0  0  0  0
   -2.1673    7.8113   -2.2010 H   0  0  0  0  0  0  0  0  0  0  0  0
   -2.7445    7.6153   -0.5323 H   0  0  0  0  0  0  0  0  0  0  0  0
   -1.1340    8.2936   -0.8634 H   0  0  0  0  0  0  0  0  0  0  0  0
  1  2  1  0  0  0  0
  1  7  1  0  0  0  0
  2  3  2  0  0  0  0
  3  4  1  0  0  0  0
  3 27  1  0  0  0  0
  4  5  2  0  0  0  0
  4 19  1  0  0  0  0
  5  6  1  0  0  0  0
  5 20  1  0  0  0  0
  6  1  2  0  0  0  0
  6 11  1  0  0  0  0
  7  8  1  0  0  0  0
  8  9  2  0  0  0  0
  8 28  1  0  0  0  0
  9 10  1  0  0  0  0
  9 16  1  0  0  0  0
 10  2  1  0  0  0  0
 10 15  2  0  0  0  0
 11 12  1  0  0  0  0
 12 13  1  0  0  0  0
 12 29  1  0  0  0  0
 12 30  1  0  0  0  0
 13  7  1  0  0  0  0
 13 14  1  0  0  0  0
 13 31  1  1  0  0  0
 14 32  1  0  0  0  0
 14 33  1  0  0  0  0
 14 34  1  0  0  0  0
 16 17  2  0  0  0  0
 16 18  1  0  0  0  0
 18 35  1  0  0  0  0
 20 21  1  0  0  0  0
 21 22  1  0  0  0  0
 21 36  1  0  0  0  0
 21 37  1  0  0  0  0
 22 23  1  0  0  0  0
 22 38  1  0  0  0  0
 22 39  1  0  0  0  0
 23 24  1  0  0  0  0
 23 26  1  0  0  0  0
 24 25  1  0  0  0  0
 24 40  1  0  0  0  0
 24 41  1  0  0  0  0
 25 20  1  0  0  0  0
 25 42  1  0  0  0  0
 25 43  1  0  0  0  0
 26 44  1  0  0  0  0
 26 45  1  0  0  0  0
 26 46  1  0  0  0  0
M  END
>  <Mol_ID>
461

>  <Formula>
C18H20FN3O4

>  <MolWeight>
361.3675032

>  <Cat>
S1940

>  <Name>
Levofloxacin

>  <Synonyms>
Fluoroquinolone

>  <Target>
Topoisomerase

>  <Form>
Free Base

>  <CAS>
100986-85-4

>  <URL>
http://selleckchem.com/products/levofloxacin-levaquin.html

$$$$
