Levocetirizine
 OpenBabel08302521303D

 52 54  0  0  0  0  0  0  0  0999 V2000
    0.8123    0.2633    0.6211 O   0  0  0  0  0  0  0  0  0  0  0  0
    2.0343   -0.5989    2.6921 O   0  0  0  0  0  0  0  0  0  0  0  0
    0.7757   -2.4645    2.9696 O   0  0  0  0  0  0  0  0  0  0  0  0
    3.3812    2.0608   -4.2911 N   0  0  0  0  0  0  0  0  0  0  0  0
    2.1243    1.9258   -1.5063 N   0  0  0  0  0  0  0  0  0  0  0  0
    2.7828    3.2508   -3.6381 C   0  0  0  0  0  0  0  0  0  0  0  0
    2.6195    0.8937   -3.7951 C   0  0  0  0  0  0  0  0  0  0  0  0
    2.6250    3.1880   -2.0927 C   0  0  0  0  0  0  0  0  0  0  0  0
    2.5807    0.7498   -2.2571 C   0  0  0  0  0  0  0  0  0  0  0  0
    4.8565    1.9325   -4.0527 C   0  0  0  0  0  0  0  0  0  0  0  0
    0.6889    1.9704   -1.1848 C   0  0  0  0  0  0  0  0  0  0  0  0
    5.4602    0.6532   -4.6672 C   0  0  0  0  0  0  0  0  0  0  0  0
    5.6436    3.1795   -4.4903 C   0  0  0  0  0  0  0  0  0  0  0  0
    0.0758    0.7032   -0.5330 C   0  0  0  0  0  0  0  0  0  0  0  0
    5.2774    0.3149   -6.0203 C   0  0  0  0  0  0  0  0  0  0  0  0
    6.1882   -0.2390   -3.8579 C   0  0  0  0  0  0  0  0  0  0  0  0
    6.5027    3.8196   -3.5784 C   0  0  0  0  0  0  0  0  0  0  0  0
    5.4938    3.7455   -5.7683 C   0  0  0  0  0  0  0  0  0  0  0  0
    5.7941   -0.8747   -6.5422 C   0  0  0  0  0  0  0  0  0  0  0  0
    6.6977   -1.4334   -4.3802 C   0  0  0  0  0  0  0  0  0  0  0  0
    7.1517    5.0094   -3.9192 C   0  0  0  0  0  0  0  0  0  0  0  0
    6.1484    4.9319   -6.1093 C   0  0  0  0  0  0  0  0  0  0  0  0
    6.4961   -1.7529   -5.7196 C   0  0  0  0  0  0  0  0  0  0  0  0
    6.9667    5.5699   -5.1806 C   0  0  0  0  0  0  0  0  0  0  0  0
    0.2957   -0.9912    1.0959 C   0  0  0  0  0  0  0  0  0  0  0  0
    1.0384   -1.4508    2.3437 C   0  0  0  0  0  0  0  0  0  0  0  0
    2.0456    0.1372    2.0358 H   0  0  0  0  0  0  0  0  0  0  0  0
    3.3210    4.1677   -3.9042 H   0  0  0  0  0  0  0  0  0  0  0  0
    1.7851    3.3877   -4.0770 H   0  0  0  0  0  0  0  0  0  0  0  0
    1.5894    0.9815   -4.1667 H   0  0  0  0  0  0  0  0  0  0  0  0
    2.9903   -0.0386   -4.2335 H   0  0  0  0  0  0  0  0  0  0  0  0
    3.6079    3.3774   -1.6464 H   0  0  0  0  0  0  0  0  0  0  0  0
    1.9998    4.0361   -1.7799 H   0  0  0  0  0  0  0  0  0  0  0  0
    3.5901    0.5200   -1.8979 H   0  0  0  0  0  0  0  0  0  0  0  0
    2.0020   -0.1442   -2.0104 H   0  0  0  0  0  0  0  0  0  0  0  0
    5.0029    1.8526   -2.9675 H   0  0  0  0  0  0  0  0  0  0  0  0
    0.0982    2.2197   -2.0750 H   0  0  0  0  0  0  0  0  0  0  0  0
    0.5438    2.7851   -0.4620 H   0  0  0  0  0  0  0  0  0  0  0  0
    0.0166   -0.1071   -1.2677 H   0  0  0  0  0  0  0  0  0  0  0  0
   -0.9489    0.9343   -0.2151 H   0  0  0  0  0  0  0  0  0  0  0  0
    4.7104    0.9695   -6.6752 H   0  0  0  0  0  0  0  0  0  0  0  0
    6.3547   -0.0169   -2.8060 H   0  0  0  0  0  0  0  0  0  0  0  0
    6.6561    3.4069   -2.5838 H   0  0  0  0  0  0  0  0  0  0  0  0
    4.8360    3.2807   -6.4980 H   0  0  0  0  0  0  0  0  0  0  0  0
    5.6367   -1.1203   -7.5895 H   0  0  0  0  0  0  0  0  0  0  0  0
    7.2468   -2.1155   -3.7373 H   0  0  0  0  0  0  0  0  0  0  0  0
    7.7938    5.5048   -3.1953 H   0  0  0  0  0  0  0  0  0  0  0  0
    6.0055    5.3649   -7.0959 H   0  0  0  0  0  0  0  0  0  0  0  0
    6.8951   -2.6797   -6.1254 H   0  0  0  0  0  0  0  0  0  0  0  0
    7.4577    6.5044   -5.4394 H   0  0  0  0  0  0  0  0  0  0  0  0
   -0.7619   -0.8774    1.3508 H   0  0  0  0  0  0  0  0  0  0  0  0
    0.4397   -1.7543    0.3243 H   0  0  0  0  0  0  0  0  0  0  0  0
  1 14  1  0  0  0  0
  1 25  1  0  0  0  0
  2 26  1  0  0  0  0
  2 27  1  0  0  0  0
  3 26  2  0  0  0  0
  4  6  1  0  0  0  0
  4  7  1  0  0  0  0
  5  8  1  0  0  0  0
  5  9  1  0  0  0  0
  5 11  1  0  0  0  0
  6  8  1  0  0  0  0
  6 28  1  0  0  0  0
  6 29  1  0  0  0  0
  7  9  1  0  0  0  0
  7 30  1  0  0  0  0
  7 31  1  0  0  0  0
  8 32  1  0  0  0  0
  8 33  1  0  0  0  0
  9 34  1  0  0  0  0
  9 35  1  0  0  0  0
 10  4  1  0  0  0  0
 10 12  1  0  0  0  0
 10 13  1  0  0  0  0
 10 36  1  0  0  0  0
 11 14  1  0  0  0  0
 11 37  1  0  0  0  0
 11 38  1  0  0  0  0
 12 15  2  0  0  0  0
 12 16  1  0  0  0  0
 13 17  2  0  0  0  0
 13 18  1  0  0  0  0
 14 39  1  0  0  0  0
 14 40  1  0  0  0  0
 15 19  1  0  0  0  0
 15 41  1  0  0  0  0
 16 20  2  0  0  0  0
 16 42  1  0  0  0  0
 17 21  1  0  0  0  0
 17 43  1  0  0  0  0
 18 22  2  0  0  0  0
 18 44  1  0  0  0  0
 19 23  2  0  0  0  0
 19 45  1  0  0  0  0
 20 23  1  0  0  0  0
 20 46  1  0  0  0  0
 21 24  2  0  0  0  0
 21 47  1  0  0  0  0
 22 24  1  0  0  0  0
 22 48  1  0  0  0  0
 23 49  1  0  0  0  0
 24 50  1  0  0  0  0
 25 26  1  0  0  0  0
 25 51  1  0  0  0  0
 25 52  1  0  0  0  0
M  END
>  <Mol_ID>
5696

>  <Formula>
C21H25ClN2O3

>  <MolWeight>
388.8878

>  <Cat>
S5864

>  <Name>
Levocetirizine

>  <Synonyms>
LCZ, (R)-Cetirizine

>  <Target>
Histamine Receptor

>  <Form>
Free Base

>  <CAS>
130018-77-8

>  <URL>
http://www.selleckchem.com/products/levocetirizine.html

$$$$
