levobetaxolol hydrochloride.cdx
 OpenBabel08302522053D

 51 52  0  0  0  0  0  0  0  0999 V2000
    0.7292   -4.9183    0.9427 C   0  0  0  0  0  0  0  0  0  0  0  0
    1.6608   -4.8634   -0.0923 C   0  0  0  0  0  0  0  0  0  0  0  0
    0.1152   -6.1275    1.2273 C   0  0  0  0  0  0  0  0  0  0  0  0
    0.3636   -3.8804    1.7628 O   0  0  0  0  0  0  0  0  0  0  0  0
    2.0670   -6.0404   -0.7417 C   0  0  0  0  0  0  0  0  0  0  0  0
    0.5046   -7.3039    0.5684 C   0  0  0  0  0  0  0  0  0  0  0  0
    1.5593   -7.2778   -0.3656 C   0  0  0  0  0  0  0  0  0  0  0  0
    2.1388   -8.6031   -0.8228 C   0  0  0  0  0  0  0  0  0  0  0  0
    3.3766   -8.6128   -1.7409 C   0  0  0  0  0  0  0  0  0  0  0  0
    4.5147   -7.9458   -1.1743 O   0  0  0  0  0  0  0  0  0  0  0  0
    5.6081   -7.9353   -2.1029 C   0  0  0  0  0  0  0  0  0  0  0  0
    6.8425   -7.2820   -1.5494 C   0  0  0  0  0  0  0  0  0  0  0  0
    7.4453   -7.7627   -0.2519 C   0  0  0  0  0  0  0  0  0  0  0  0
    6.8489   -6.3838   -0.3366 C   0  0  0  0  0  0  0  0  0  0  0  0
    0.7869   -2.5647    1.3974 C   0  0  0  0  0  0  0  0  0  0  0  0
   -0.0233   -1.5380    2.2190 C   0  0  2  0  0  0  0  0  0  0  0  0
    0.1624   -0.0959    1.7030 C   0  0  0  0  0  0  0  0  0  0  0  0
   -0.0309    0.1016    0.2648 N   0  0  0  0  0  0  0  0  0  0  0  0
   -1.3448   -0.3146   -0.2487 C   0  0  0  0  0  0  0  0  0  0  0  0
   -2.4985    0.4837    0.3594 C   0  0  0  0  0  0  0  0  0  0  0  0
   -1.3188   -0.1341   -1.7667 C   0  0  0  0  0  0  0  0  0  0  0  0
    0.3200   -1.5705    3.6140 O   0  0  0  0  0  0  0  0  0  0  0  0
    2.1327   -3.9331   -0.3945 H   0  0  0  0  0  0  0  0  0  0  0  0
   -0.6516   -6.1751    1.9987 H   0  0  0  0  0  0  0  0  0  0  0  0
    2.8377   -5.9687   -1.5048 H   0  0  0  0  0  0  0  0  0  0  0  0
    0.0186   -8.2382    0.8365 H   0  0  0  0  0  0  0  0  0  0  0  0
    2.4042   -9.1586    0.0863 H   0  0  0  0  0  0  0  0  0  0  0  0
    1.3423   -9.1659   -1.3302 H   0  0  0  0  0  0  0  0  0  0  0  0
    3.6576   -9.6605   -1.9047 H   0  0  0  0  0  0  0  0  0  0  0  0
    3.1280   -8.1692   -2.7113 H   0  0  0  0  0  0  0  0  0  0  0  0
    5.8559   -8.9662   -2.3807 H   0  0  0  0  0  0  0  0  0  0  0  0
    5.3036   -7.3945   -3.0067 H   0  0  0  0  0  0  0  0  0  0  0  0
    7.5373   -7.0456   -2.3473 H   0  0  0  0  0  0  0  0  0  0  0  0
    6.9074   -8.5065    0.3241 H   0  0  0  0  0  0  0  0  0  0  0  0
    8.5248   -7.8487   -0.1968 H   0  0  0  0  0  0  0  0  0  0  0  0
    7.5317   -5.5414   -0.3308 H   0  0  0  0  0  0  0  0  0  0  0  0
    5.9193   -6.2043    0.1908 H   0  0  0  0  0  0  0  0  0  0  0  0
    1.8602   -2.4513    1.5938 H   0  0  0  0  0  0  0  0  0  0  0  0
    0.5844   -2.4179    0.3330 H   0  0  0  0  0  0  0  0  0  0  0  0
   -1.0837   -1.8109    2.1789 H   0  0  0  0  0  0  0  0  0  0  0  0
   -0.4885    0.5798    2.2692 H   0  0  0  0  0  0  0  0  0  0  0  0
    1.1779    0.2371    1.9482 H   0  0  0  0  0  0  0  0  0  0  0  0
    0.1251    1.0825    0.0358 H   0  0  0  0  0  0  0  0  0  0  0  0
   -1.5130   -1.3809   -0.0564 H   0  0  0  0  0  0  0  0  0  0  0  0
   -2.3455    1.5609    0.2405 H   0  0  0  0  0  0  0  0  0  0  0  0
   -3.4463    0.2204   -0.1203 H   0  0  0  0  0  0  0  0  0  0  0  0
   -2.6104    0.2719    1.4301 H   0  0  0  0  0  0  0  0  0  0  0  0
   -0.5108   -0.7232   -2.2150 H   0  0  0  0  0  0  0  0  0  0  0  0
   -2.2614   -0.4672   -2.2141 H   0  0  0  0  0  0  0  0  0  0  0  0
   -1.1670    0.9171   -2.0419 H   0  0  0  0  0  0  0  0  0  0  0  0
    1.2807   -1.4532    3.6992 H   0  0  0  0  0  0  0  0  0  0  0  0
  1  2  2  0  0  0  0
  1  3  1  0  0  0  0
  1  4  1  0  0  0  0
  2  5  1  0  0  0  0
  2 23  1  0  0  0  0
  3  6  2  0  0  0  0
  3 24  1  0  0  0  0
  4 15  1  0  0  0  0
  5  7  2  0  0  0  0
  5 25  1  0  0  0  0
  6  7  1  0  0  0  0
  6 26  1  0  0  0  0
  7  8  1  0  0  0  0
  8  9  1  0  0  0  0
  8 27  1  0  0  0  0
  8 28  1  0  0  0  0
  9 10  1  0  0  0  0
  9 29  1  0  0  0  0
  9 30  1  0  0  0  0
 10 11  1  0  0  0  0
 11 12  1  0  0  0  0
 11 31  1  0  0  0  0
 11 32  1  0  0  0  0
 12 13  1  0  0  0  0
 12 14  1  0  0  0  0
 12 33  1  0  0  0  0
 13 14  1  0  0  0  0
 13 34  1  0  0  0  0
 13 35  1  0  0  0  0
 14 36  1  0  0  0  0
 14 37  1  0  0  0  0
 15 38  1  0  0  0  0
 15 39  1  0  0  0  0
 16 22  1  0  0  0  0
 16 40  1  6  0  0  0
 16 17  1  0  0  0  0
 16 15  1  0  0  0  0
 17 18  1  0  0  0  0
 17 41  1  0  0  0  0
 17 42  1  0  0  0  0
 18 19  1  0  0  0  0
 18 43  1  0  0  0  0
 19 20  1  0  0  0  0
 19 21  1  0  0  0  0
 19 44  1  0  0  0  0
 20 45  1  0  0  0  0
 20 46  1  0  0  0  0
 20 47  1  0  0  0  0
 21 48  1  0  0  0  0
 21 49  1  0  0  0  0
 21 50  1  0  0  0  0
 22 51  1  0  0  0  0
M  END
>  <Mol_ID>
1330

>  <Formula>
C18H30ClNO3

>  <MolWeight>
343.8887

>  <Cat>
S4085

>  <Name>
Levobetaxolol HCl

>  <Synonyms>
AL 1577A,(S)-Betaxolol hydrochloride

>  <Target>
Adrenergic Receptor

>  <Form>
Hydrochloride

>  <CAS>
116209-55-3

>  <URL>
http://selleckchem.com/products/levobetaxolol-hcl.html

$$$$
