Levobupivacaine
 OpenBabel08302521303D

 49 50  0  0  0  0  0  0  0  0999 V2000
    1.8594   -1.0560   -0.3007 O   0  0  0  0  0  0  0  0  0  0  0  0
    2.8618    2.1935   -0.7302 N   0  0  0  0  0  0  0  0  0  0  0  0
    3.1624    0.0176    1.3291 N   0  0  0  0  0  0  0  0  0  0  0  0
    3.1559    0.7614   -1.0589 C   0  0  1  0  0  0  0  0  0  0  0  0
    4.6266    0.4426   -1.3795 C   0  0  0  0  0  0  0  0  0  0  0  0
    3.4529    3.0628   -1.7815 C   0  0  0  0  0  0  0  0  0  0  0  0
    5.2045    1.3968   -2.4135 C   0  0  0  0  0  0  0  0  0  0  0  0
    4.9488    2.8294   -1.9793 C   0  0  0  0  0  0  0  0  0  0  0  0
    1.3850    2.4625   -0.7380 C   0  0  0  0  0  0  0  0  0  0  0  0
    2.6757   -0.2041    0.0418 C   0  0  0  0  0  0  0  0  0  0  0  0
    0.6251    1.9661    0.4984 C   0  0  0  0  0  0  0  0  0  0  0  0
   -0.8508    2.3672    0.5076 C   0  0  0  0  0  0  0  0  0  0  0  0
    2.7712   -0.6497    2.5434 C   0  0  0  0  0  0  0  0  0  0  0  0
   -1.5620    1.7757    1.7228 C   0  0  0  0  0  0  0  0  0  0  0  0
    2.1994   -1.9451    2.6040 C   0  0  0  0  0  0  0  0  0  0  0  0
    2.9606    0.0370    3.7800 C   0  0  0  0  0  0  0  0  0  0  0  0
    1.6734   -2.4295    3.8254 C   0  0  0  0  0  0  0  0  0  0  0  0
    2.4503   -0.5011    4.9853 C   0  0  0  0  0  0  0  0  0  0  0  0
    2.1160   -2.9259    1.4676 C   0  0  0  0  0  0  0  0  0  0  0  0
    3.6766    1.3577    3.9035 C   0  0  0  0  0  0  0  0  0  0  0  0
    1.7823   -1.7139    5.0031 C   0  0  0  0  0  0  0  0  0  0  0  0
    3.5995    0.9278    1.4354 H   0  0  0  0  0  0  0  0  0  0  0  0
    2.5827    0.5049   -1.9626 H   0  0  0  0  0  0  0  0  0  0  0  0
    4.6920   -0.5805   -1.7736 H   0  0  0  0  0  0  0  0  0  0  0  0
    5.2441    0.4646   -0.4747 H   0  0  0  0  0  0  0  0  0  0  0  0
    3.3082    4.1154   -1.5099 H   0  0  0  0  0  0  0  0  0  0  0  0
    2.9418    2.9050   -2.7428 H   0  0  0  0  0  0  0  0  0  0  0  0
    6.2783    1.2189   -2.5367 H   0  0  0  0  0  0  0  0  0  0  0  0
    4.7379    1.2167   -3.3910 H   0  0  0  0  0  0  0  0  0  0  0  0
    5.4876    3.0409   -1.0481 H   0  0  0  0  0  0  0  0  0  0  0  0
    5.3340    3.5183   -2.7398 H   0  0  0  0  0  0  0  0  0  0  0  0
    1.2292    3.5490   -0.7822 H   0  0  0  0  0  0  0  0  0  0  0  0
    0.9262    2.0517   -1.6485 H   0  0  0  0  0  0  0  0  0  0  0  0
    0.6263    0.8781    0.5302 H   0  0  0  0  0  0  0  0  0  0  0  0
    1.1151    2.3311    1.4076 H   0  0  0  0  0  0  0  0  0  0  0  0
   -0.9564    3.4575    0.5105 H   0  0  0  0  0  0  0  0  0  0  0  0
   -1.3342    1.9968   -0.4045 H   0  0  0  0  0  0  0  0  0  0  0  0
   -1.6953    2.5364    2.4981 H   0  0  0  0  0  0  0  0  0  0  0  0
   -2.5533    1.4040    1.4443 H   0  0  0  0  0  0  0  0  0  0  0  0
   -1.0065    0.9411    2.1652 H   0  0  0  0  0  0  0  0  0  0  0  0
    1.1774   -3.4013    3.8505 H   0  0  0  0  0  0  0  0  0  0  0  0
    2.5647    0.0334    5.9271 H   0  0  0  0  0  0  0  0  0  0  0  0
    1.1716   -2.8059    0.9292 H   0  0  0  0  0  0  0  0  0  0  0  0
    2.9833   -2.8428    0.8064 H   0  0  0  0  0  0  0  0  0  0  0  0
    2.1334   -3.9577    1.8367 H   0  0  0  0  0  0  0  0  0  0  0  0
    4.6746    1.2959    3.4595 H   0  0  0  0  0  0  0  0  0  0  0  0
    3.0975    2.1560    3.4335 H   0  0  0  0  0  0  0  0  0  0  0  0
    3.8240    1.6349    4.9563 H   0  0  0  0  0  0  0  0  0  0  0  0
    1.3742   -2.1123    5.9270 H   0  0  0  0  0  0  0  0  0  0  0  0
  1 10  2  0  0  0  0
  2  4  1  0  0  0  0
  2  6  1  0  0  0  0
  2  9  1  0  0  0  0
  3 10  1  0  0  0  0
  3 13  1  0  0  0  0
  3 22  1  0  0  0  0
  4  5  1  0  0  0  0
  4 10  1  0  0  0  0
  4 23  1  6  0  0  0
  5  7  1  0  0  0  0
  5 24  1  0  0  0  0
  5 25  1  0  0  0  0
  6  8  1  0  0  0  0
  6 26  1  0  0  0  0
  6 27  1  0  0  0  0
  7  8  1  0  0  0  0
  7 28  1  0  0  0  0
  7 29  1  0  0  0  0
  8 30  1  0  0  0  0
  8 31  1  0  0  0  0
  9 11  1  0  0  0  0
  9 32  1  0  0  0  0
  9 33  1  0  0  0  0
 11 12  1  0  0  0  0
 11 34  1  0  0  0  0
 11 35  1  0  0  0  0
 12 14  1  0  0  0  0
 12 36  1  0  0  0  0
 12 37  1  0  0  0  0
 13 15  2  0  0  0  0
 13 16  1  0  0  0  0
 14 38  1  0  0  0  0
 14 39  1  0  0  0  0
 14 40  1  0  0  0  0
 15 17  1  0  0  0  0
 15 19  1  0  0  0  0
 16 18  2  0  0  0  0
 16 20  1  0  0  0  0
 17 21  2  0  0  0  0
 17 41  1  0  0  0  0
 18 21  1  0  0  0  0
 18 42  1  0  0  0  0
 19 43  1  0  0  0  0
 19 44  1  0  0  0  0
 19 45  1  0  0  0  0
 20 46  1  0  0  0  0
 20 47  1  0  0  0  0
 20 48  1  0  0  0  0
 21 49  1  0  0  0  0
M  END
>  <Mol_ID>
5598

>  <Formula>
C18H28N2O

>  <MolWeight>
288.42772

>  <Cat>
S5181

>  <Name>
Levobupivacaine

>  <Synonyms>
Chirocaine, (S)-(-)-Bupivacaine, L-(-)-Bupivacaine

>  <Target>
Sodium Channel

>  <Form>
Free Base

>  <CAS>
27262-47-1

>  <URL>
http://www.selleckchem.com/products/levobupivacaine.html

$$$$
