Levomenol
 OpenBabel08302521373D

 42 42  0  0  1  0  0  0  0  0999 V2000
    1.0386    0.0778    0.0380 C   0  0  2  0  0  0  0  0  0  0  0  0
    0.5318   -1.1372    0.8573 C   0  0  0  0  0  0  0  0  0  0  0  0
    0.4896    1.4103    0.5702 C   0  0  0  0  0  0  0  0  0  0  0  0
    0.5702   -0.0783   -1.3110 O   0  0  0  0  0  0  0  0  0  0  0  0
   -0.9893   -1.3726    0.8382 C   0  0  0  0  0  0  0  0  0  0  0  0
   -1.3301   -2.5841    1.6642 C   0  0  0  0  0  0  0  0  0  0  0  0
   -2.1639   -2.6273    2.7221 C   0  0  0  0  0  0  0  0  0  0  0  0
   -2.3198   -3.8848    3.5310 C   0  0  0  0  0  0  0  0  0  0  0  0
   -2.9686   -1.4463    3.1895 C   0  0  0  0  0  0  0  0  0  0  0  0
    6.9035    1.0034    0.2282 C   0  0  0  0  0  0  0  0  0  0  0  0
    2.6068    0.0820   -0.0378 C   0  0  1  0  0  0  0  0  0  0  0  0
    3.1596    1.2857   -0.8313 C   0  0  0  0  0  0  0  0  0  0  0  0
    3.2992    0.0069    1.3407 C   0  0  0  0  0  0  0  0  0  0  0  0
    4.6795    1.2179   -1.0031 C   0  0  0  0  0  0  0  0  0  0  0  0
    4.7789    0.2656    1.2987 C   0  0  0  0  0  0  0  0  0  0  0  0
    5.4180    0.7979    0.2389 C   0  0  0  0  0  0  0  0  0  0  0  0
    1.0099   -2.0426    0.4572 H   0  0  0  0  0  0  0  0  0  0  0  0
    0.8544   -1.0400    1.9016 H   0  0  0  0  0  0  0  0  0  0  0  0
    0.5954    2.2022   -0.1791 H   0  0  0  0  0  0  0  0  0  0  0  0
   -0.5824    1.3599    0.7785 H   0  0  0  0  0  0  0  0  0  0  0  0
    0.9876    1.7290    1.4886 H   0  0  0  0  0  0  0  0  0  0  0  0
   -0.3880    0.0828   -1.3261 H   0  0  0  0  0  0  0  0  0  0  0  0
   -1.5107   -0.4909    1.2171 H   0  0  0  0  0  0  0  0  0  0  0  0
   -1.3416   -1.5411   -0.1851 H   0  0  0  0  0  0  0  0  0  0  0  0
   -0.8175   -3.4990    1.3660 H   0  0  0  0  0  0  0  0  0  0  0  0
   -2.0958   -3.6822    4.5837 H   0  0  0  0  0  0  0  0  0  0  0  0
   -3.3425   -4.2659    3.4564 H   0  0  0  0  0  0  0  0  0  0  0  0
   -1.6375   -4.6760    3.2004 H   0  0  0  0  0  0  0  0  0  0  0  0
   -2.3149   -0.6319    3.5167 H   0  0  0  0  0  0  0  0  0  0  0  0
   -3.6226   -1.0858    2.3880 H   0  0  0  0  0  0  0  0  0  0  0  0
   -3.6124   -1.7125    4.0342 H   0  0  0  0  0  0  0  0  0  0  0  0
    7.3534    0.4627   -0.6110 H   0  0  0  0  0  0  0  0  0  0  0  0
    7.1349    2.0693    0.1195 H   0  0  0  0  0  0  0  0  0  0  0  0
    7.3780    0.6484    1.1474 H   0  0  0  0  0  0  0  0  0  0  0  0
    2.9017   -0.8174   -0.6032 H   0  0  0  0  0  0  0  0  0  0  0  0
    2.6925    1.3447   -1.8224 H   0  0  0  0  0  0  0  0  0  0  0  0
    2.9148    2.2181   -0.3096 H   0  0  0  0  0  0  0  0  0  0  0  0
    3.1499   -0.9941    1.7628 H   0  0  0  0  0  0  0  0  0  0  0  0
    2.8582    0.7197    2.0452 H   0  0  0  0  0  0  0  0  0  0  0  0
    5.0303    2.2113   -1.3224 H   0  0  0  0  0  0  0  0  0  0  0  0
    4.9186    0.5149   -1.8063 H   0  0  0  0  0  0  0  0  0  0  0  0
    5.3387   -0.0108    2.1873 H   0  0  0  0  0  0  0  0  0  0  0  0
  1  2  1  0  0  0  0
  1  3  1  0  0  0  0
  1  4  1  6  0  0  0
  2  5  1  0  0  0  0
  2 17  1  0  0  0  0
  2 18  1  0  0  0  0
  3 19  1  0  0  0  0
  3 20  1  0  0  0  0
  3 21  1  0  0  0  0
  4 22  1  0  0  0  0
  5  6  1  0  0  0  0
  5 23  1  0  0  0  0
  5 24  1  0  0  0  0
  6  7  2  0  0  0  0
  6 25  1  0  0  0  0
  7  8  1  0  0  0  0
  7  9  1  0  0  0  0
  8 26  1  0  0  0  0
  8 27  1  0  0  0  0
  8 28  1  0  0  0  0
  9 29  1  0  0  0  0
  9 30  1  0  0  0  0
  9 31  1  0  0  0  0
 10 16  1  0  0  0  0
 10 32  1  0  0  0  0
 10 33  1  0  0  0  0
 10 34  1  0  0  0  0
 11  1  1  0  0  0  0
 11 12  1  0  0  0  0
 11 13  1  0  0  0  0
 11 35  1  6  0  0  0
 12 14  1  0  0  0  0
 12 36  1  0  0  0  0
 12 37  1  0  0  0  0
 13 15  1  0  0  0  0
 13 38  1  0  0  0  0
 13 39  1  0  0  0  0
 14 16  1  0  0  0  0
 14 40  1  0  0  0  0
 14 41  1  0  0  0  0
 15 16  2  0  0  0  0
 15 42  1  0  0  0  0
M  END
>  <Mol_ID>
7405

>  <Formula>
C15H26O

>  <MolWeight>
222.36634

>  <Cat>
E4499

>  <Name>
Levomenol

>  <Synonyms>
Levomenol

>  <Target>
Others

>  <Form>
Free base

>  <CAS>
23089-26-1

>  <URL>
https://www.selleckchem.com/products/levomenol.html

$$$$
