Levosulpiride.cdx
 OpenBabel08302522003D

 46 47  0  0  0  0  0  0  0  0999 V2000
   -2.6693    3.5043   -3.8441 C   0  0  0  0  0  0  0  0  0  0  0  0
   -3.8470    2.8381   -3.5035 C   0  0  0  0  0  0  0  0  0  0  0  0
   -3.8601    1.8409   -2.5073 C   0  0  0  0  0  0  0  0  0  0  0  0
   -2.6409    1.3857   -1.9688 C   0  0  0  0  0  0  0  0  0  0  0  0
   -1.4598    2.0747   -2.3141 C   0  0  0  0  0  0  0  0  0  0  0  0
   -1.4887    3.1507   -3.2047 C   0  0  0  0  0  0  0  0  0  0  0  0
   -5.0398    1.3027   -2.0574 O   0  0  0  0  0  0  0  0  0  0  0  0
   -6.1353    2.2216   -1.9482 C   0  0  0  0  0  0  0  0  0  0  0  0
   -2.4532    0.2162   -1.0414 C   0  0  0  0  0  0  0  0  0  0  0  0
   -1.3232   -0.0366   -0.6250 O   0  0  0  0  0  0  0  0  0  0  0  0
   -3.5339   -0.5747   -0.7139 N   0  0  0  0  0  0  0  0  0  0  0  0
   -3.3632   -1.8301    0.0312 C   0  0  0  0  0  0  0  0  0  0  0  0
   -3.7736   -1.7397    1.5169 C   0  0  1  0  0  0  0  0  0  0  0  0
   -3.6657   -2.9475    2.3921 N   0  0  0  0  0  0  0  0  0  0  0  0
   -3.7921   -2.4271    3.7726 C   0  0  0  0  0  0  0  0  0  0  0  0
   -3.5697   -0.9195    3.7164 C   0  0  0  0  0  0  0  0  0  0  0  0
   -3.0501   -0.6628    2.3155 C   0  0  0  0  0  0  0  0  0  0  0  0
   -2.4281   -3.7308    2.2167 C   0  0  0  0  0  0  0  0  0  0  0  0
   -2.3922   -4.9960    3.0832 C   0  0  0  0  0  0  0  0  0  0  0  0
   -0.0438    4.1564   -3.3684 S   0  0  0  0  0  0  0  0  0  0  0  0
    0.4693    4.4432   -2.0546 O   0  0  0  0  0  0  0  0  0  0  0  0
    1.0675    3.1393   -4.0977 N   0  0  0  0  0  0  0  0  0  0  0  0
   -0.3039    5.2030   -4.3381 O   0  0  0  0  0  0  0  0  0  0  0  0
   -2.6935    4.3164   -4.5682 H   0  0  0  0  0  0  0  0  0  0  0  0
   -4.7621    3.1341   -4.0120 H   0  0  0  0  0  0  0  0  0  0  0  0
   -0.5116    1.7876   -1.8594 H   0  0  0  0  0  0  0  0  0  0  0  0
   -6.5280    2.1723   -0.9300 H   0  0  0  0  0  0  0  0  0  0  0  0
   -5.8877    3.2720   -2.1408 H   0  0  0  0  0  0  0  0  0  0  0  0
   -6.9261    1.9076   -2.6399 H   0  0  0  0  0  0  0  0  0  0  0  0
   -4.4495   -0.3218   -1.0693 H   0  0  0  0  0  0  0  0  0  0  0  0
   -3.9958   -2.5699   -0.4723 H   0  0  0  0  0  0  0  0  0  0  0  0
   -2.3259   -2.1632   -0.0709 H   0  0  0  0  0  0  0  0  0  0  0  0
   -4.8426   -1.4781    1.5081 H   0  0  0  0  0  0  0  0  0  0  0  0
   -3.0918   -2.8710    4.4859 H   0  0  0  0  0  0  0  0  0  0  0  0
   -4.7992   -2.6468    4.1452 H   0  0  0  0  0  0  0  0  0  0  0  0
   -2.8757   -0.5684    4.4851 H   0  0  0  0  0  0  0  0  0  0  0  0
   -4.5269   -0.4029    3.8579 H   0  0  0  0  0  0  0  0  0  0  0  0
   -1.9617   -0.7934    2.2784 H   0  0  0  0  0  0  0  0  0  0  0  0
   -3.2875    0.3512    1.9829 H   0  0  0  0  0  0  0  0  0  0  0  0
   -2.3620   -4.0718    1.1778 H   0  0  0  0  0  0  0  0  0  0  0  0
   -1.5323   -3.1327    2.4232 H   0  0  0  0  0  0  0  0  0  0  0  0
   -3.3203   -5.5698    2.9914 H   0  0  0  0  0  0  0  0  0  0  0  0
   -1.5658   -5.6442    2.7714 H   0  0  0  0  0  0  0  0  0  0  0  0
   -2.2335   -4.7709    4.1427 H   0  0  0  0  0  0  0  0  0  0  0  0
    1.4121    3.5763   -4.9558 H   0  0  0  0  0  0  0  0  0  0  0  0
    1.8184    2.9246   -3.4398 H   0  0  0  0  0  0  0  0  0  0  0  0
  1  2  2  0  0  0  0
  1 24  1  0  0  0  0
  2  3  1  0  0  0  0
  2 25  1  0  0  0  0
  3  4  2  0  0  0  0
  3  7  1  0  0  0  0
  4  5  1  0  0  0  0
  4  9  1  0  0  0  0
  5  6  2  0  0  0  0
  5 26  1  0  0  0  0
  6  1  1  0  0  0  0
  6 20  1  0  0  0  0
  7  8  1  0  0  0  0
  8 27  1  0  0  0  0
  8 28  1  0  0  0  0
  8 29  1  0  0  0  0
  9 10  2  0  0  0  0
  9 11  1  0  0  0  0
 11 12  1  0  0  0  0
 11 30  1  0  0  0  0
 12 31  1  0  0  0  0
 12 32  1  0  0  0  0
 13 12  1  0  0  0  0
 13 14  1  0  0  0  0
 13 33  1  1  0  0  0
 14 15  1  0  0  0  0
 14 18  1  0  0  0  0
 15 16  1  0  0  0  0
 15 34  1  0  0  0  0
 15 35  1  0  0  0  0
 16 17  1  0  0  0  0
 16 36  1  0  0  0  0
 16 37  1  0  0  0  0
 17 13  1  0  0  0  0
 17 38  1  0  0  0  0
 17 39  1  0  0  0  0
 18 19  1  0  0  0  0
 18 40  1  0  0  0  0
 18 41  1  0  0  0  0
 19 42  1  0  0  0  0
 19 43  1  0  0  0  0
 19 44  1  0  0  0  0
 20 21  2  0  0  0  0
 20 22  1  0  0  0  0
 20 23  2  0  0  0  0
 22 45  1  0  0  0  0
 22 46  1  0  0  0  0
M  END
>  <Mol_ID>
1086

>  <Formula>
C15H23N3O4S

>  <MolWeight>
341.42582

>  <Cat>
S2104

>  <Name>
Levosulpiride

>  <Synonyms>
RV-12309,S-(-)-Sulpiride

>  <Target>
Dopamine Receptor

>  <Form>
free base

>  <CAS>
23672-07-3

>  <URL>
http://selleckchem.com/products/levosulpiride-levogastrol.html

$$$$
