Levulinic acid
 OpenBabel08302520383D

 16 15  0  0  0  0  0  0  0  0999 V2000
    1.0211    0.0980   -0.1209 C   0  0  0  0  0  0  0  0  0  0  0  0
    0.1113    1.1364    0.4980 C   0  0  0  0  0  0  0  0  0  0  0  0
    1.8062   -0.7747    0.8238 C   0  0  0  0  0  0  0  0  0  0  0  0
    1.1138   -0.0478   -1.3404 O   0  0  0  0  0  0  0  0  0  0  0  0
   -0.6443    1.9326   -0.5614 C   0  0  0  0  0  0  0  0  0  0  0  0
   -1.5513    2.9544    0.0721 C   0  0  0  0  0  0  0  0  0  0  0  0
   -2.2520    3.6648   -0.8400 O   0  0  0  0  0  0  0  0  0  0  0  0
   -1.6612    3.1439    1.2734 O   0  0  0  0  0  0  0  0  0  0  0  0
   -0.5945    0.6213    1.1597 H   0  0  0  0  0  0  0  0  0  0  0  0
    0.7276    1.8085    1.1062 H   0  0  0  0  0  0  0  0  0  0  0  0
    1.4387   -1.8018    0.7581 H   0  0  0  0  0  0  0  0  0  0  0  0
    2.8656   -0.7337    0.5582 H   0  0  0  0  0  0  0  0  0  0  0  0
    1.6941   -0.4241    1.8535 H   0  0  0  0  0  0  0  0  0  0  0  0
    0.0640    2.4559   -1.2134 H   0  0  0  0  0  0  0  0  0  0  0  0
   -1.2553    1.2585   -1.1726 H   0  0  0  0  0  0  0  0  0  0  0  0
   -2.0674    3.4098   -1.7649 H   0  0  0  0  0  0  0  0  0  0  0  0
  1  2  1  0  0  0  0
  1  3  1  0  0  0  0
  1  4  2  0  0  0  0
  2  5  1  0  0  0  0
  2  9  1  0  0  0  0
  2 10  1  0  0  0  0
  3 11  1  0  0  0  0
  3 12  1  0  0  0  0
  3 13  1  0  0  0  0
  5  6  1  0  0  0  0
  5 14  1  0  0  0  0
  5 15  1  0  0  0  0
  6  7  1  0  0  0  0
  6  8  2  0  0  0  0
  7 16  1  0  0  0  0
M  END
>  <Mol_ID>
3488

>  <Formula>
C5H8O3

>  <MolWeight>
116.11522

>  <Cat>
S6207

>  <Name>
Levulinic acid

>  <Synonyms>
4-oxopentanoic acid, ¦Â-Acetylpropionic acid, 3-Acetopropionic acid, ¦Ã-ketovaleric acid

>  <Target>
Others

>  <Form>
free base

>  <CAS>
123-76-2

>  <URL>
http://www.selleck.cn/products/levulinic-acid.html

$$$$
