LEXXEL (enalapril maleate).cdx
 OpenBabel08302521233D

 67 67  0  0  0  0  0  0  0  0999 V2000
   -2.1061    7.1068   -4.0148 C   0  0  0  0  0  0  0  0  0  0  0  0
   -1.3295    6.7887   -5.1291 C   0  0  0  0  0  0  0  0  0  0  0  0
   -1.4108    5.5206   -5.7044 C   0  0  0  0  0  0  0  0  0  0  0  0
   -2.1581    4.5269   -5.0836 C   0  0  0  0  0  0  0  0  0  0  0  0
   -2.7460    4.7986   -3.8424 C   0  0  0  0  0  0  0  0  0  0  0  0
   -2.8548    6.1180   -3.3891 C   0  0  0  0  0  0  0  0  0  0  0  0
   -2.7973    3.6864   -2.8144 C   0  0  0  0  0  0  0  0  0  0  0  0
   -1.4746    3.8072   -1.9740 C   0  0  0  0  0  0  0  0  0  0  0  0
   -1.2262    2.6093   -1.0446 C   0  0  2  0  0  0  0  0  0  0  0  0
   -0.0949    2.5723   -0.0837 N   0  0  0  0  0  0  0  0  0  0  0  0
   -1.0035    1.3893   -1.9888 C   0  0  0  0  0  0  0  0  0  0  0  0
   -1.2673    0.2478   -1.2902 O   0  0  0  0  0  0  0  0  0  0  0  0
   -0.6518    1.4328   -3.1611 O   0  0  0  0  0  0  0  0  0  0  0  0
   -1.5221   -0.8990   -2.1035 C   0  0  0  0  0  0  0  0  0  0  0  0
   -2.9933   -0.8626   -2.4699 C   0  0  0  0  0  0  0  0  0  0  0  0
    0.1974    3.6145    0.9160 C   0  0  2  0  0  0  0  0  0  0  0  0
   -0.8908    3.8688    2.0014 C   0  0  0  0  0  0  0  0  0  0  0  0
    0.7158    4.9186    0.3054 C   0  0  0  0  0  0  0  0  0  0  0  0
   -1.0262    2.9737    3.0694 N   0  0  0  0  0  0  0  0  0  0  0  0
   -1.5229    4.9280    2.0249 O   0  0  0  0  0  0  0  0  0  0  0  0
   -2.1476    3.1400    4.0218 C   0  0  1  0  0  0  0  0  0  0  0  0
   -2.0142    1.9432    4.9724 C   0  0  0  0  0  0  0  0  0  0  0  0
   -1.1443    0.9143    4.2651 C   0  0  0  0  0  0  0  0  0  0  0  0
   -0.6665    1.5667    2.9740 C   0  0  0  0  0  0  0  0  0  0  0  0
   -2.1790    4.3925    4.9203 C   0  0  0  0  0  0  0  0  0  0  0  0
   -0.9774    5.0205    5.0079 O   0  0  0  0  0  0  0  0  0  0  0  0
   -3.1343    4.6983    5.6052 O   0  0  0  0  0  0  0  0  0  0  0  0
    3.7750   -1.5388    1.3539 C   0  0  0  0  0  0  0  0  0  0  0  0
    5.0181   -1.7545    1.7960 O   0  0  0  0  0  0  0  0  0  0  0  0
    6.3497    0.9474   -1.4208 O   0  0  0  0  0  0  0  0  0  0  0  0
    5.8286    0.1147   -0.7134 C   0  0  0  0  0  0  0  0  0  0  0  0
    4.4385   -0.3321   -0.8459 C   0  0  0  0  0  0  0  0  0  0  0  0
    3.6284   -1.0000   -0.0119 C   0  0  0  0  0  0  0  0  0  0  0  0
    6.5167   -0.5306    0.2418 O   0  0  0  0  0  0  0  0  0  0  0  0
    2.7843   -1.8102    2.0174 O   0  0  0  0  0  0  0  0  0  0  0  0
   -2.0546    8.0986   -3.5751 H   0  0  0  0  0  0  0  0  0  0  0  0
   -0.6398    7.5229   -5.5342 H   0  0  0  0  0  0  0  0  0  0  0  0
   -0.8183    5.2774   -6.5819 H   0  0  0  0  0  0  0  0  0  0  0  0
   -2.1448    3.5152   -5.4841 H   0  0  0  0  0  0  0  0  0  0  0  0
   -3.3701    6.3405   -2.4571 H   0  0  0  0  0  0  0  0  0  0  0  0
   -3.6805    3.7872   -2.1741 H   0  0  0  0  0  0  0  0  0  0  0  0
   -2.8841    2.7217   -3.3278 H   0  0  0  0  0  0  0  0  0  0  0  0
   -0.6214    3.9333   -2.6589 H   0  0  0  0  0  0  0  0  0  0  0  0
   -1.5466    4.7307   -1.3950 H   0  0  0  0  0  0  0  0  0  0  0  0
   -2.1582    2.4315   -0.4977 H   0  0  0  0  0  0  0  0  0  0  0  0
    0.7630    2.3834   -0.6039 H   0  0  0  0  0  0  0  0  0  0  0  0
   -0.8790   -0.9404   -2.9900 H   0  0  0  0  0  0  0  0  0  0  0  0
   -1.2999   -1.7784   -1.4929 H   0  0  0  0  0  0  0  0  0  0  0  0
   -3.2077   -0.0122   -3.1274 H   0  0  0  0  0  0  0  0  0  0  0  0
   -3.3001   -1.7817   -2.9703 H   0  0  0  0  0  0  0  0  0  0  0  0
   -3.6017   -0.7173   -1.5698 H   0  0  0  0  0  0  0  0  0  0  0  0
    1.0557    3.2224    1.4794 H   0  0  0  0  0  0  0  0  0  0  0  0
    1.0997    5.5773    1.0938 H   0  0  0  0  0  0  0  0  0  0  0  0
    1.5414    4.7296   -0.3899 H   0  0  0  0  0  0  0  0  0  0  0  0
   -0.0555    5.4850   -0.2175 H   0  0  0  0  0  0  0  0  0  0  0  0
   -3.0786    3.0983    3.4451 H   0  0  0  0  0  0  0  0  0  0  0  0
   -1.5270    2.2290    5.9155 H   0  0  0  0  0  0  0  0  0  0  0  0
   -2.9945    1.5388    5.2482 H   0  0  0  0  0  0  0  0  0  0  0  0
   -0.2953    0.6408    4.9031 H   0  0  0  0  0  0  0  0  0  0  0  0
   -1.7014   -0.0081    4.0685 H   0  0  0  0  0  0  0  0  0  0  0  0
    0.4099    1.4486    2.8254 H   0  0  0  0  0  0  0  0  0  0  0  0
   -1.1939    1.1287    2.1195 H   0  0  0  0  0  0  0  0  0  0  0  0
   -0.3485    4.6279    4.3656 H   0  0  0  0  0  0  0  0  0  0  0  0
    5.7225   -1.4688    1.1748 H   0  0  0  0  0  0  0  0  0  0  0  0
    4.0113   -0.0072   -1.7961 H   0  0  0  0  0  0  0  0  0  0  0  0
    2.6055   -1.1601   -0.3576 H   0  0  0  0  0  0  0  0  0  0  0  0
    7.4121   -0.1267    0.1655 H   0  0  0  0  0  0  0  0  0  0  0  0
  1  2  2  0  0  0  0
  1 36  1  0  0  0  0
  2  3  1  0  0  0  0
  2 37  1  0  0  0  0
  3  4  2  0  0  0  0
  3 38  1  0  0  0  0
  4  5  1  0  0  0  0
  4 39  1  0  0  0  0
  5  6  2  0  0  0  0
  5  7  1  0  0  0  0
  6  1  1  0  0  0  0
  6 40  1  0  0  0  0
  7  8  1  0  0  0  0
  7 41  1  0  0  0  0
  7 42  1  0  0  0  0
  8 43  1  0  0  0  0
  8 44  1  0  0  0  0
  9 11  1  0  0  0  0
  9 45  1  1  0  0  0
  9 10  1  0  0  0  0
  9  8  1  0  0  0  0
 10 46  1  0  0  0  0
 11 12  1  0  0  0  0
 11 13  2  0  0  0  0
 12 14  1  0  0  0  0
 14 15  1  0  0  0  0
 14 47  1  0  0  0  0
 14 48  1  0  0  0  0
 15 49  1  0  0  0  0
 15 50  1  0  0  0  0
 15 51  1  0  0  0  0
 16 18  1  0  0  0  0
 16 52  1  1  0  0  0
 16 17  1  0  0  0  0
 16 10  1  0  0  0  0
 17 19  1  0  0  0  0
 17 20  2  0  0  0  0
 18 53  1  0  0  0  0
 18 54  1  0  0  0  0
 18 55  1  0  0  0  0
 19 21  1  0  0  0  0
 21 22  1  0  0  0  0
 21 56  1  6  0  0  0
 21 25  1  0  0  0  0
 22 23  1  0  0  0  0
 22 57  1  0  0  0  0
 22 58  1  0  0  0  0
 23 24  1  0  0  0  0
 23 59  1  0  0  0  0
 23 60  1  0  0  0  0
 24 19  1  0  0  0  0
 24 61  1  0  0  0  0
 24 62  1  0  0  0  0
 25 26  1  0  0  0  0
 25 27  2  0  0  0  0
 26 63  1  0  0  0  0
 28 29  1  0  0  0  0
 28 35  2  0  0  0  0
 29 64  1  0  0  0  0
 30 31  2  0  0  0  0
 31 32  1  0  0  0  0
 31 34  1  0  0  0  0
 32 33  2  0  0  0  0
 32 65  1  0  0  0  0
 33 28  1  0  0  0  0
 33 66  1  0  0  0  0
 34 67  1  0  0  0  0
M  END
>  <Mol_ID>
462

>  <Formula>
C24H32N2O9

>  <MolWeight>
492.51888

>  <Cat>
S1941

>  <Name>
Enalapril Maleate

>  <Synonyms>
MK-421 Maleate

>  <Target>
ACE,RAAS

>  <Form>
Maleate

>  <CAS>
76095-16-4

>  <URL>
http://selleckchem.com/products/Enalapril-maleate(Vasotec).html

$$$$
