LGK-974.cdx
 OpenBabel08302519583D

 50 53  0  0  0  0  0  0  0  0999 V2000
    0.3065   -1.1580    0.0925 C   0  0  0  0  0  0  0  0  0  0  0  0
    1.0224    0.0503    0.0369 C   0  0  0  0  0  0  0  0  0  0  0  0
    0.2939    1.2464    0.0635 C   0  0  0  0  0  0  0  0  0  0  0  0
   -1.1010    1.2394    0.0628 C   0  0  0  0  0  0  0  0  0  0  0  0
   -1.7210    0.0054    0.0816 C   0  0  0  0  0  0  0  0  0  0  0  0
   -1.0574   -1.1713    0.1066 N   0  0  0  0  0  0  0  0  0  0  0  0
    2.5166    0.1605   -0.0825 C   0  0  0  0  0  0  0  0  0  0  0  0
    0.9163   -2.5096    0.0941 C   0  0  0  0  0  0  0  0  0  0  0  0
   -1.8739    2.5244   -0.0246 C   0  0  0  0  0  0  0  0  0  0  0  0
   -1.5202    3.2711   -1.2999 C   0  0  0  0  0  0  0  0  0  0  0  0
   -2.4333    3.1005   -2.3187 N   0  0  0  0  0  0  0  0  0  0  0  0
   -0.4857    3.9319   -1.3841 O   0  0  0  0  0  0  0  0  0  0  0  0
    0.2917   -3.5836   -0.5559 C   0  0  0  0  0  0  0  0  0  0  0  0
    0.9183   -4.8198   -0.5796 C   0  0  0  0  0  0  0  0  0  0  0  0
    2.1252   -5.0659   -0.0308 N   0  0  0  0  0  0  0  0  0  0  0  0
    2.7171   -4.0454    0.6235 C   0  0  0  0  0  0  0  0  0  0  0  0
    2.1236   -2.7920    0.7442 C   0  0  0  0  0  0  0  0  0  0  0  0
   -2.2392    3.6615   -3.5802 C   0  0  0  0  0  0  0  0  0  0  0  0
    4.0793   -4.2909    1.1981 C   0  0  0  0  0  0  0  0  0  0  0  0
   -1.0150    3.5912   -4.2291 C   0  0  0  0  0  0  0  0  0  0  0  0
   -0.8716    4.2302   -5.4602 C   0  0  0  0  0  0  0  0  0  0  0  0
   -1.9321    4.9644   -6.0055 C   0  0  0  0  0  0  0  0  0  0  0  0
   -3.1282    4.9194   -5.2837 C   0  0  0  0  0  0  0  0  0  0  0  0
   -3.3177    4.2566   -4.1120 N   0  0  0  0  0  0  0  0  0  0  0  0
   -1.8140    5.7461   -7.2451 C   0  0  0  0  0  0  0  0  0  0  0  0
   -0.6029    6.2330   -7.7410 C   0  0  0  0  0  0  0  0  0  0  0  0
   -0.4942    6.9603   -8.8820 N   0  0  0  0  0  0  0  0  0  0  0  0
   -1.6572    7.1992   -9.5218 C   0  0  0  0  0  0  0  0  0  0  0  0
   -2.8687    6.7376   -9.0428 C   0  0  0  0  0  0  0  0  0  0  0  0
   -2.9733    6.0111   -7.9048 N   0  0  0  0  0  0  0  0  0  0  0  0
    0.8244    2.1988    0.0336 H   0  0  0  0  0  0  0  0  0  0  0  0
   -2.8037   -0.0884    0.0664 H   0  0  0  0  0  0  0  0  0  0  0  0
    2.9984   -0.0361    0.8784 H   0  0  0  0  0  0  0  0  0  0  0  0
    2.8989   -0.5179   -0.8512 H   0  0  0  0  0  0  0  0  0  0  0  0
    2.8199    1.1701   -0.3822 H   0  0  0  0  0  0  0  0  0  0  0  0
   -2.9533    2.3417    0.0220 H   0  0  0  0  0  0  0  0  0  0  0  0
   -1.6307    3.1652    0.8316 H   0  0  0  0  0  0  0  0  0  0  0  0
   -3.4088    3.0116   -2.0715 H   0  0  0  0  0  0  0  0  0  0  0  0
   -0.6708   -3.4583   -1.0407 H   0  0  0  0  0  0  0  0  0  0  0  0
    0.4496   -5.6688   -1.0689 H   0  0  0  0  0  0  0  0  0  0  0  0
    2.6223   -2.0422    1.3459 H   0  0  0  0  0  0  0  0  0  0  0  0
    4.0273   -5.0408    1.9912 H   0  0  0  0  0  0  0  0  0  0  0  0
    4.7524   -4.6411    0.4093 H   0  0  0  0  0  0  0  0  0  0  0  0
    4.5099   -3.3738    1.6142 H   0  0  0  0  0  0  0  0  0  0  0  0
   -0.1821    3.0414   -3.8020 H   0  0  0  0  0  0  0  0  0  0  0  0
    0.0836    4.1449   -5.9719 H   0  0  0  0  0  0  0  0  0  0  0  0
   -4.0067    5.4622   -5.6277 H   0  0  0  0  0  0  0  0  0  0  0  0
    0.3382    6.0690   -7.2267 H   0  0  0  0  0  0  0  0  0  0  0  0
   -1.5892    7.7780  -10.4355 H   0  0  0  0  0  0  0  0  0  0  0  0
   -3.7977    6.9407   -9.5631 H   0  0  0  0  0  0  0  0  0  0  0  0
  1  2  2  0  0  0  0
  1  8  1  0  0  0  0
  2  3  1  0  0  0  0
  2  7  1  0  0  0  0
  3  4  2  0  0  0  0
  3 31  1  0  0  0  0
  4  5  1  0  0  0  0
  4  9  1  0  0  0  0
  5  6  2  0  0  0  0
  5 32  1  0  0  0  0
  6  1  1  0  0  0  0
  7 33  1  0  0  0  0
  7 34  1  0  0  0  0
  7 35  1  0  0  0  0
  8 13  2  0  0  0  0
  9 10  1  0  0  0  0
  9 36  1  0  0  0  0
  9 37  1  0  0  0  0
 10 11  1  0  0  0  0
 10 12  2  0  0  0  0
 11 18  1  0  0  0  0
 11 38  1  0  0  0  0
 13 14  1  0  0  0  0
 13 39  1  0  0  0  0
 14 15  2  0  0  0  0
 14 40  1  0  0  0  0
 15 16  1  0  0  0  0
 16 17  2  0  0  0  0
 16 19  1  0  0  0  0
 17  8  1  0  0  0  0
 17 41  1  0  0  0  0
 18 20  2  0  0  0  0
 19 42  1  0  0  0  0
 19 43  1  0  0  0  0
 19 44  1  0  0  0  0
 20 21  1  0  0  0  0
 20 45  1  0  0  0  0
 21 22  2  0  0  0  0
 21 46  1  0  0  0  0
 22 23  1  0  0  0  0
 22 25  1  0  0  0  0
 23 24  2  0  0  0  0
 23 47  1  0  0  0  0
 24 18  1  0  0  0  0
 25 26  2  0  0  0  0
 26 27  1  0  0  0  0
 26 48  1  0  0  0  0
 27 28  2  0  0  0  0
 28 29  1  0  0  0  0
 28 49  1  0  0  0  0
 29 30  2  0  0  0  0
 29 50  1  0  0  0  0
 30 25  1  0  0  0  0
M  END
>  <Mol_ID>
2343

>  <Formula>
C23H20N6O

>  <MolWeight>
396.4445

>  <Cat>
S7143

>  <Name>
LGK-974

>  <Synonyms>
NVP-LGK974, WNT974

>  <Target>
PORCN

>  <Form>
free base

>  <CAS>
1243244-14-5

>  <URL>
http://selleckchem.com/products/lgk-974.html

$$$$
