Liarozole dihydrochloride
 OpenBabel08302521353D

 35 38  0  0  0  0  0  0  0  0999 V2000
    1.4252    0.2349    0.4515 N   0  0  0  0  0  0  0  0  0  0  0  0
   -1.7655    5.4533   -0.3530 N   0  0  0  0  0  0  0  0  0  0  0  0
    0.0956    6.2685   -1.2527 N   0  0  0  0  0  0  0  0  0  0  0  0
    3.3574   -0.6084    1.1666 N   0  0  0  0  0  0  0  0  0  0  0  0
    0.4662    1.1103   -0.2498 C   0  0  3  0  0  0  0  0  0  0  0  0
    0.4000    2.5226    0.3879 C   0  0  0  0  0  0  0  0  0  0  0  0
    0.6966    1.1304   -1.7889 C   0  0  0  0  0  0  0  0  0  0  0  0
   -0.8363    3.1991    0.4047 C   0  0  0  0  0  0  0  0  0  0  0  0
    1.5586    3.2995    0.3521 C   0  0  0  0  0  0  0  0  0  0  0  0
   -0.7981    4.5130   -0.0981 C   0  0  0  0  0  0  0  0  0  0  0  0
    0.3581    5.0850   -0.6252 C   0  0  0  0  0  0  0  0  0  0  0  0
    1.5827    4.4300   -0.4544 C   0  0  0  0  0  0  0  0  0  0  0  0
    1.6696    0.3472   -2.4397 C   0  0  0  0  0  0  0  0  0  0  0  0
   -0.1176    1.9366   -2.6132 C   0  0  0  0  0  0  0  0  0  0  0  0
    1.1781   -1.0718    0.8078 C   0  0  0  0  0  0  0  0  0  0  0  0
    2.7598    0.4534    0.6798 C   0  0  0  0  0  0  0  0  0  0  0  0
    1.8257    0.3771   -3.8309 C   0  0  0  0  0  0  0  0  0  0  0  0
    0.0474    1.9794   -4.0018 C   0  0  0  0  0  0  0  0  0  0  0  0
    2.3869   -1.5656    1.2409 C   0  0  0  0  0  0  0  0  0  0  0  0
   -1.1933    6.4595   -1.0804 C   0  0  0  0  0  0  0  0  0  0  0  0
    1.0148    1.1930   -4.6119 C   0  0  0  0  0  0  0  0  0  0  0  0
   -2.7309    5.4023   -0.0832 H   0  0  0  0  0  0  0  0  0  0  0  0
   -0.5012    0.6282   -0.0816 H   0  0  0  0  0  0  0  0  0  0  0  0
   -1.7858    2.6919    0.5419 H   0  0  0  0  0  0  0  0  0  0  0  0
    1.9546    3.5376    1.3609 H   0  0  0  0  0  0  0  0  0  0  0  0
    2.5097    4.8398   -0.8256 H   0  0  0  0  0  0  0  0  0  0  0  0
    2.3383   -0.3116   -1.8885 H   0  0  0  0  0  0  0  0  0  0  0  0
   -0.8924    2.5671   -2.1904 H   0  0  0  0  0  0  0  0  0  0  0  0
    0.2102   -1.5307    0.6956 H   0  0  0  0  0  0  0  0  0  0  0  0
    3.2671    1.3816    0.4422 H   0  0  0  0  0  0  0  0  0  0  0  0
    2.5869   -0.2397   -4.3020 H   0  0  0  0  0  0  0  0  0  0  0  0
   -0.5824    2.6311   -4.6018 H   0  0  0  0  0  0  0  0  0  0  0  0
    2.6152   -2.5735    1.5582 H   0  0  0  0  0  0  0  0  0  0  0  0
   -1.7511    7.3021   -1.4549 H   0  0  0  0  0  0  0  0  0  0  0  0
    1.1371    1.2145   -5.6909 H   0  0  0  0  0  0  0  0  0  0  0  0
  1  5  1  0  0  0  0
  1 15  1  0  0  0  0
  1 16  1  0  0  0  0
  2 10  1  0  0  0  0
  2 20  1  0  0  0  0
  2 22  1  0  0  0  0
  3 11  1  0  0  0  0
  3 20  2  0  0  0  0
  4 16  2  0  0  0  0
  4 19  1  0  0  0  0
  5  6  1  0  0  0  0
  5  7  1  0  0  0  0
  5 23  1  0  0  0  0
  6  8  1  0  0  0  0
  6  9  2  0  0  0  0
  7 13  2  0  0  0  0
  7 14  1  0  0  0  0
  8 10  2  0  0  0  0
  8 24  1  0  0  0  0
  9 12  1  0  0  0  0
  9 25  1  0  0  0  0
 10 11  1  0  0  0  0
 11 12  2  0  0  0  0
 12 26  1  0  0  0  0
 13 17  1  0  0  0  0
 13 27  1  0  0  0  0
 14 18  2  0  0  0  0
 14 28  1  0  0  0  0
 15 19  2  0  0  0  0
 15 29  1  0  0  0  0
 16 30  1  0  0  0  0
 17 21  2  0  0  0  0
 17 31  1  0  0  0  0
 18 21  1  0  0  0  0
 18 32  1  0  0  0  0
 19 33  1  0  0  0  0
 20 34  1  0  0  0  0
 21 35  1  0  0  0  0
M  END
>  <Mol_ID>
6691

>  <Formula>
C17H15Cl3N4

>  <MolWeight>
381.6868

>  <Cat>
S6594

>  <Name>
Liarozole dihydrochloride

>  <Target>
P450 (e.g. CYP17)

>  <Form>
Dihydrochloride

>  <CAS>
1883548-96-6

>  <URL>
http://www.selleckchem.com/products/liarozole-dihydrochloride.html

$$$$
