LIDEX-E (fluocinonide).cdx
 OpenBabel08302521522D

 67 71  0  0  0  0  0  0  0  0999 V2000
    1.2082    3.4951    0.0000 C   0  0  0  0  0  0  0  0  0  0  0  0
    1.2082    2.0951    0.0000 C   0  0  0  0  0  0  0  0  0  0  0  0
    2.4207    1.3951    0.0000 C   0  0  0  0  0  0  0  0  0  0  0  0
    3.6331    2.0951    0.0000 C   0  0  0  0  0  0  0  0  0  0  0  0
    3.6331    3.4951    0.0000 C   0  0  2  0  0  0  0  0  0  0  0  0
    2.4207    4.1951    0.0000 C   0  0  0  0  0  0  0  0  0  0  0  0
    4.8455    1.3951    0.0000 C   0  0  2  0  0  0  0  0  0  0  0  0
    6.0580    2.0951    0.0000 C   0  0  0  0  0  0  0  0  0  0  0  0
    6.0580    3.4951    0.0000 C   0  0  2  0  0  0  0  0  0  0  0  0
    4.8455    4.1951    0.0000 C   0  0  2  0  0  0  0  0  0  0  0  0
    7.2704    4.1951    0.0000 C   0  0  1  0  0  0  0  0  0  0  0  0
    7.2704    5.5951    0.0000 C   0  0  2  0  0  0  0  0  0  0  0  0
    6.0580    6.2951    0.0000 C   0  0  0  0  0  0  0  0  0  0  0  0
    4.8455    5.5951    0.0000 C   0  0  2  0  0  0  0  0  0  0  0  0
    8.6019    3.7625    0.0000 C   0  0  0  0  0  0  0  0  0  0  0  0
    9.4248    4.8951    0.0000 C   0  0  2  0  0  0  0  0  0  0  0  0
    8.6019    6.0278    0.0000 C   0  0  2  0  0  0  0  0  0  0  0  0
    0.0000    1.3976    0.0000 O   0  0  0  0  0  0  0  0  0  0  0  0
    3.6331    4.8903    0.0000 C   0  0  0  0  0  0  0  0  0  0  0  0
    3.6373    6.2927    0.0000 O   0  0  0  0  0  0  0  0  0  0  0  0
    7.2704    6.9951    0.0000 C   0  0  0  0  0  0  0  0  0  0  0  0
    8.2395    7.3801    0.0000 C   0  0  0  0  0  0  0  0  0  0  0  0
    4.8455    2.7951    0.0000 F   0  0  0  0  0  0  0  0  0  0  0  0
    4.8455    0.0000    0.0000 F   0  0  0  0  0  0  0  0  0  0  0  0
    9.5918    7.0177    0.0000 O   0  0  0  0  0  0  0  0  0  0  0  0
   10.8248    4.8951    0.0000 O   0  0  0  0  0  0  0  0  0  0  0  0
   10.9441    6.6554    0.0000 C   0  0  0  0  0  0  0  0  0  0  0  0
   11.3065    8.0077    0.0000 C   0  0  0  0  0  0  0  0  0  0  0  0
   12.3441    6.6554    0.0000 C   0  0  0  0  0  0  0  0  0  0  0  0
    9.2295    8.3700    0.0000 C   0  0  0  0  0  0  0  0  0  0  0  0
    7.2496    8.3700    0.0000 O   0  0  0  0  0  0  0  0  0  0  0  0
    8.5295    9.5824    0.0000 O   0  0  0  0  0  0  0  0  0  0  0  0
    9.2295   10.7949    0.0000 C   0  0  0  0  0  0  0  0  0  0  0  0
   10.6295   10.7949    0.0000 C   0  0  0  0  0  0  0  0  0  0  0  0
    8.5319   12.0031    0.0000 O   0  0  0  0  0  0  0  0  0  0  0  0
    0.3145    4.0111    0.0000 H   0  0  0  0  0  0  0  0  0  0  0  0
    2.4207    0.3631    0.0000 H   0  0  0  0  0  0  0  0  0  0  0  0
    2.4207    5.2271    0.0000 H   0  0  0  0  0  0  0  0  0  0  0  0
    3.9188    0.8601    0.0000 H   0  0  0  0  0  0  0  0  0  0  0  0
    6.9846    1.5601    0.0000 H   0  0  0  0  0  0  0  0  0  0  0  0
    6.9847    2.6301    0.0000 H   0  0  0  0  0  0  0  0  0  0  0  0
    5.1314    2.9601    0.0000 H   0  0  0  0  0  0  0  0  0  0  0  0
    7.3823    3.1310    0.0000 H   0  0  0  0  0  0  0  0  0  0  0  0
    6.0580    7.3651    0.0000 H   0  0  0  0  0  0  0  0  0  0  0  0
    5.1314    6.8301    0.0000 H   0  0  0  0  0  0  0  0  0  0  0  0
    4.8455    6.6651    0.0000 H   0  0  0  0  0  0  0  0  0  0  0  0
    8.9326    2.7449    0.0000 H   0  0  0  0  0  0  0  0  0  0  0  0
    9.6587    3.5951    0.0000 H   0  0  0  0  0  0  0  0  0  0  0  0
    8.3548    4.8951    0.0000 H   0  0  0  0  0  0  0  0  0  0  0  0
    4.5597    5.4253    0.0000 H   0  0  0  0  0  0  0  0  0  0  0  0
    2.7065    5.4253    0.0000 H   0  0  0  0  0  0  0  0  0  0  0  0
    3.6331    5.9603    0.0000 H   0  0  0  0  0  0  0  0  0  0  0  0
    3.6373    7.2627    0.0000 H   0  0  0  0  0  0  0  0  0  0  0  0
    8.1970    7.5301    0.0000 H   0  0  0  0  0  0  0  0  0  0  0  0
    6.3438    7.5301    0.0000 H   0  0  0  0  0  0  0  0  0  0  0  0
    7.2704    8.0651    0.0000 H   0  0  0  0  0  0  0  0  0  0  0  0
   12.3401    8.2846    0.0000 H   0  0  0  0  0  0  0  0  0  0  0  0
   10.5499    8.7643    0.0000 H   0  0  0  0  0  0  0  0  0  0  0  0
   11.5835    9.0412    0.0000 H   0  0  0  0  0  0  0  0  0  0  0  0
   12.8791    5.7288    0.0000 H   0  0  0  0  0  0  0  0  0  0  0  0
   12.8791    7.5820    0.0000 H   0  0  0  0  0  0  0  0  0  0  0  0
   13.4141    6.6554    0.0000 H   0  0  0  0  0  0  0  0  0  0  0  0
   10.2903    8.2303    0.0000 H   0  0  0  0  0  0  0  0  0  0  0  0
    9.8240    9.2597    0.0000 H   0  0  0  0  0  0  0  0  0  0  0  0
   11.1645    9.8683    0.0000 H   0  0  0  0  0  0  0  0  0  0  0  0
   11.1645   11.7215    0.0000 H   0  0  0  0  0  0  0  0  0  0  0  0
   11.6995   10.7949    0.0000 H   0  0  0  0  0  0  0  0  0  0  0  0
  1  2  1  0  0  0  0
  1 36  1  0  0  0  0
  2  3  1  0  0  0  0
  2 18  2  0  0  0  0
  3  4  2  0  0  0  0
  3 37  1  0  0  0  0
  4  5  1  0  0  0  0
  4  7  1  0  0  0  0
  5  6  1  0  0  0  0
  5 19  1  1  0  0  0
  6  1  2  0  0  0  0
  6 38  1  0  0  0  0
  7  8  1  0  0  0  0
  7 24  1  0  0  0  0
  7 39  1  1  0  0  0
  8 40  1  0  0  0  0
  8 41  1  0  0  0  0
  9  8  1  0  0  0  0
  9 10  1  0  0  0  0
  9 11  1  0  0  0  0
  9 42  1  1  0  0  0
 10  5  1  0  0  0  0
 10 23  1  6  0  0  0
 11 12  1  0  0  0  0
 11 15  1  0  0  0  0
 11 43  1  6  0  0  0
 12 13  1  0  0  0  0
 12 21  1  1  0  0  0
 13 14  1  0  0  0  0
 13 44  1  0  0  0  0
 13 45  1  0  0  0  0
 14 10  1  0  0  0  0
 14 20  1  0  0  0  0
 14 46  1  6  0  0  0
 15 47  1  0  0  0  0
 15 48  1  0  0  0  0
 16 15  1  0  0  0  0
 16 17  1  0  0  0  0
 16 26  1  0  0  0  0
 16 49  1  1  0  0  0
 17 12  1  0  0  0  0
 17 22  1  1  0  0  0
 17 25  1  0  0  0  0
 19 50  1  0  0  0  0
 19 51  1  0  0  0  0
 19 52  1  0  0  0  0
 20 53  1  0  0  0  0
 21 54  1  0  0  0  0
 21 55  1  0  0  0  0
 21 56  1  0  0  0  0
 22 30  1  0  0  0  0
 22 31  2  0  0  0  0
 25 27  1  0  0  0  0
 26 27  1  0  0  0  0
 27 28  1  0  0  0  0
 27 29  1  0  0  0  0
 28 57  1  0  0  0  0
 28 58  1  0  0  0  0
 28 59  1  0  0  0  0
 29 60  1  0  0  0  0
 29 61  1  0  0  0  0
 29 62  1  0  0  0  0
 30 32  1  0  0  0  0
 30 63  1  0  0  0  0
 30 64  1  0  0  0  0
 32 33  1  0  0  0  0
 33 34  1  0  0  0  0
 33 35  2  0  0  0  0
 34 65  1  0  0  0  0
 34 66  1  0  0  0  0
 34 67  1  0  0  0  0
M  END
>  <Mol_ID>
853

>  <Formula>
C26H32F2O7

>  <MolWeight>
494.5248864

>  <Cat>
S2608

>  <Name>
Fluocinonide

>  <Synonyms>
Vanos,nsc 101791

>  <Target>
Glucocorticoid Receptor

>  <Form>
free base

>  <CAS>
356-12-7

>  <URL>
http://selleckchem.com/products/Fluocinonide(Vanos).html

$$$$
