Lifirafenib (BGB-283)
 OpenBabel08302521343D

 52 58  0  0  0  0  0  0  0  0999 V2000
    6.0018   -0.4758    0.6591 O   0  0  0  0  0  0  0  0  0  0  0  0
   14.0156   -2.6147   10.1336 C   0  0  0  0  0  0  0  0  0  0  0  0
   12.9231   -2.0521   10.7235 F   0  0  0  0  0  0  0  0  0  0  0  0
   14.2206   -3.7960   10.7812 F   0  0  0  0  0  0  0  0  0  0  0  0
   15.0675   -1.8192   10.4662 F   0  0  0  0  0  0  0  0  0  0  0  0
    0.4544    2.6433   -0.2091 O   0  0  0  0  0  0  0  0  0  0  0  0
   10.2168   -1.6526    2.8681 C   0  0  1  0  0  0  0  0  0  0  0  0
   11.4071   -2.5940    3.0706 C   0  0  1  0  0  0  0  0  0  0  0  0
   11.4602   -1.5711    1.9832 C   0  0  1  0  0  0  0  0  0  0  0  0
    9.1533   -1.7909    1.8151 C   0  0  0  0  0  0  0  0  0  0  0  0
   11.1079   -2.0917    0.6158 O   0  0  0  0  0  0  0  0  0  0  0  0
    9.7189   -2.1309    0.5821 C   0  0  0  0  0  0  0  0  0  0  0  0
    7.8224   -1.3964    1.8411 C   0  0  0  0  0  0  0  0  0  0  0  0
    8.9486   -2.3181   -0.5661 C   0  0  0  0  0  0  0  0  0  0  0  0
    7.0590   -1.3851    0.6532 C   0  0  0  0  0  0  0  0  0  0  0  0
    7.5975   -1.9368   -0.5261 C   0  0  0  0  0  0  0  0  0  0  0  0
   12.2281   -2.5229    4.3639 C   0  0  0  0  0  0  0  0  0  0  0  0
   11.7553   -2.1316    5.5951 N   0  0  0  0  0  0  0  0  0  0  0  0
   13.4296   -3.0500    4.4796 N   0  0  0  0  0  0  0  0  0  0  0  0
   12.6895   -2.4593    6.5549 C   0  0  0  0  0  0  0  0  0  0  0  0
   13.7394   -2.9992    5.8236 C   0  0  0  0  0  0  0  0  0  0  0  0
   12.7046   -2.3642    7.9555 C   0  0  0  0  0  0  0  0  0  0  0  0
   14.8841   -3.4367    6.5037 C   0  0  0  0  0  0  0  0  0  0  0  0
   13.8723   -2.7807    8.6344 C   0  0  0  0  0  0  0  0  0  0  0  0
   14.9448   -3.3177    7.9027 C   0  0  0  0  0  0  0  0  0  0  0  0
    4.6451   -0.8002    0.5392 C   0  0  0  0  0  0  0  0  0  0  0  0
    3.6868    0.1746    0.5090 C   0  0  0  0  0  0  0  0  0  0  0  0
    4.2257   -2.1872    0.7236 C   0  0  0  0  0  0  0  0  0  0  0  0
    2.2747   -0.2512    0.2152 C   0  0  0  0  0  0  0  0  0  0  0  0
    3.7935    1.5858    0.9811 C   0  0  0  0  0  0  0  0  0  0  0  0
    2.9303   -2.5165    0.5861 C   0  0  0  0  0  0  0  0  0  0  0  0
    2.0019   -1.5941    0.1941 N   0  0  0  0  0  0  0  0  0  0  0  0
    1.2762    0.5494    0.0131 N   0  0  0  0  0  0  0  0  0  0  0  0
    2.6894    2.5339    0.5335 C   0  0  0  0  0  0  0  0  0  0  0  0
    1.4004    1.9077    0.0698 C   0  0  0  0  0  0  0  0  0  0  0  0
   10.0827   -0.8634    3.5985 H   0  0  0  0  0  0  0  0  0  0  0  0
   11.5543   -3.5585    2.5933 H   0  0  0  0  0  0  0  0  0  0  0  0
   12.0556   -0.6691    2.0589 H   0  0  0  0  0  0  0  0  0  0  0  0
    7.4135   -0.9491    2.7345 H   0  0  0  0  0  0  0  0  0  0  0  0
    9.4213   -2.6726   -1.4730 H   0  0  0  0  0  0  0  0  0  0  0  0
    7.0171   -1.9887   -1.4455 H   0  0  0  0  0  0  0  0  0  0  0  0
   10.8178   -1.8040    5.7843 H   0  0  0  0  0  0  0  0  0  0  0  0
   11.8475   -1.9807    8.5047 H   0  0  0  0  0  0  0  0  0  0  0  0
   15.7135   -3.8640    5.9504 H   0  0  0  0  0  0  0  0  0  0  0  0
   15.8444   -3.6509    8.4216 H   0  0  0  0  0  0  0  0  0  0  0  0
    4.9172   -2.9037    1.1529 H   0  0  0  0  0  0  0  0  0  0  0  0
    4.7754    2.0323    0.7970 H   0  0  0  0  0  0  0  0  0  0  0  0
    3.7002    1.5227    2.0757 H   0  0  0  0  0  0  0  0  0  0  0  0
    2.5230   -3.4838    0.8567 H   0  0  0  0  0  0  0  0  0  0  0  0
    1.0234   -1.8508    0.1482 H   0  0  0  0  0  0  0  0  0  0  0  0
    3.0461    3.1976   -0.2629 H   0  0  0  0  0  0  0  0  0  0  0  0
    2.4173    3.1742    1.3850 H   0  0  0  0  0  0  0  0  0  0  0  0
  1 26  1  0  0  0  0
  1 15  1  0  0  0  0
  2  3  1  0  0  0  0
  2  4  1  0  0  0  0
  2  5  1  0  0  0  0
  2 24  1  0  0  0  0
  6 35  2  0  0  0  0
  7  8  1  0  0  0  0
  7  9  1  0  0  0  0
  7 10  1  0  0  0  0
  7 36  1  1  0  0  0
  8  9  1  0  0  0  0
  8 17  1  0  0  0  0
  8 37  1  6  0  0  0
  9 11  1  0  0  0  0
  9 38  1  1  0  0  0
 10 12  2  0  0  0  0
 10 13  1  0  0  0  0
 11 12  1  0  0  0  0
 12 14  1  0  0  0  0
 13 15  2  0  0  0  0
 13 39  1  0  0  0  0
 14 16  2  0  0  0  0
 14 40  1  0  0  0  0
 15 16  1  0  0  0  0
 16 41  1  0  0  0  0
 17 18  1  0  0  0  0
 17 19  2  0  0  0  0
 18 20  1  0  0  0  0
 18 42  1  0  0  0  0
 19 21  1  0  0  0  0
 20 21  2  0  0  0  0
 20 22  1  0  0  0  0
 21 23  1  0  0  0  0
 22 24  2  0  0  0  0
 22 43  1  0  0  0  0
 23 25  2  0  0  0  0
 23 44  1  0  0  0  0
 24 25  1  0  0  0  0
 25 45  1  0  0  0  0
 26 27  2  0  0  0  0
 26 28  1  0  0  0  0
 27 29  1  0  0  0  0
 27 30  1  0  0  0  0
 28 31  2  0  0  0  0
 28 46  1  0  0  0  0
 29 32  1  0  0  0  0
 29 33  2  0  0  0  0
 30 34  1  0  0  0  0
 30 47  1  0  0  0  0
 30 48  1  0  0  0  0
 31 32  1  0  0  0  0
 31 49  1  0  0  0  0
 32 50  1  0  0  0  0
 33 35  1  0  0  0  0
 34 35  1  0  0  0  0
 34 51  1  0  0  0  0
 34 52  1  0  0  0  0
M  END
>  <Mol_ID>
6588

>  <Formula>
C25H17F3N4O3

>  <MolWeight>
478.4226896

>  <Cat>
S7926

>  <Name>
Lifirafenib (BGB-283)

>  <Synonyms>
Beigene-283

>  <Target>
EGFR,Raf

>  <Form>
Free base

>  <CAS>
1446090-79-4

>  <URL>
http://www.selleckchem.com/products/bgb-283-bgb283.html

$$$$
