Limonin.cdx
 OpenBabel08302521373D

 64 70  0  0  0  0  0  0  0  0999 V2000
    1.9290    0.7045   -2.6531 C   0  0  0  0  0  0  0  0  0  0  0  0
    2.9882    0.8335   -1.8033 O   0  0  0  0  0  0  0  0  0  0  0  0
    2.7644    1.1126   -0.4007 C   0  0  2  0  0  0  0  0  0  0  0  0
    1.7771    2.3270   -0.2396 C   0  0  1  0  0  0  0  0  0  0  0  0
    0.4472    1.8967   -0.8994 C   0  0  2  0  0  0  0  0  0  0  0  0
    0.5741    0.9817   -2.1163 C   0  0  2  0  0  0  0  0  0  0  0  0
    1.5308    2.6457    1.2724 C   0  0  0  0  0  0  0  0  0  0  0  0
    0.1788    3.3122    1.6285 C   0  0  0  0  0  0  0  0  0  0  0  0
   -0.4704    3.9033    0.3854 C   0  0  1  0  0  0  0  0  0  0  0  0
   -0.8410    2.7408   -0.6553 C   0  0  1  0  0  0  0  0  0  0  0  0
   -1.5290    5.0508    0.5461 C   0  0  2  0  0  0  0  0  0  0  0  0
   -1.7330    5.5134   -0.9196 C   0  0  1  0  0  0  0  0  0  0  0  0
   -2.4063    4.4988   -1.8038 C   0  0  0  0  0  0  0  0  0  0  0  0
   -1.3590    3.4067   -1.9601 C   0  0  0  0  0  0  0  0  0  0  0  0
   -1.0278    6.3908    1.1086 C   0  0  1  0  0  0  0  0  0  0  0  0
   -1.7832    7.4196    0.4096 O   0  0  0  0  0  0  0  0  0  0  0  0
   -2.1962    6.9561   -0.8846 C   0  0  0  0  0  0  0  0  0  0  0  0
   -1.2126    6.6766    2.5818 C   0  0  0  0  0  0  0  0  0  0  0  0
   -1.8217    5.5560    3.3528 C   0  0  0  0  0  0  0  0  0  0  0  0
   -2.7872    4.8660    2.7366 O   0  0  0  0  0  0  0  0  0  0  0  0
   -2.7769    4.6120    1.3256 C   0  0  0  0  0  0  0  0  0  0  0  0
   -1.9843    1.7937   -0.2091 C   0  0  0  0  0  0  0  0  0  0  0  0
    0.2410    0.4663   -0.8221 O   0  0  0  0  0  0  0  0  0  0  0  0
    2.0822    0.4456   -3.8390 O   0  0  0  0  0  0  0  0  0  0  0  0
   -0.9538    3.1063   -3.0860 O   0  0  0  0  0  0  0  0  0  0  0  0
    2.3358    3.5602   -1.0134 C   0  0  0  0  0  0  0  0  0  0  0  0
    4.0891    1.2128    0.2996 C   0  0  0  0  0  0  0  0  0  0  0  0
    4.4660    0.4782    1.4084 C   0  0  0  0  0  0  0  0  0  0  0  0
    5.7707    0.6801    1.7088 O   0  0  0  0  0  0  0  0  0  0  0  0
    6.2506    1.5556    0.7922 C   0  0  0  0  0  0  0  0  0  0  0  0
    5.2542    1.9401   -0.0741 C   0  0  0  0  0  0  0  0  0  0  0  0
   -1.5357    5.3409    4.5247 O   0  0  0  0  0  0  0  0  0  0  0  0
   -1.4407    7.7748   -1.9461 C   0  0  0  0  0  0  0  0  0  0  0  0
   -3.6935    7.1799   -1.0393 C   0  0  0  0  0  0  0  0  0  0  0  0
    2.3070    0.2059    0.0190 H   0  0  0  0  0  0  0  0  0  0  0  0
   -0.2146    0.9167   -2.8531 H   0  0  0  0  0  0  0  0  0  0  0  0
    2.3374    3.3006    1.6305 H   0  0  0  0  0  0  0  0  0  0  0  0
    1.6112    1.7316    1.8728 H   0  0  0  0  0  0  0  0  0  0  0  0
    0.3590    4.0796    2.3882 H   0  0  0  0  0  0  0  0  0  0  0  0
   -0.4800    2.5715    2.0949 H   0  0  0  0  0  0  0  0  0  0  0  0
    0.3515    4.4599   -0.0705 H   0  0  0  0  0  0  0  0  0  0  0  0
   -0.7168    5.6007   -1.3446 H   0  0  0  0  0  0  0  0  0  0  0  0
   -3.3386    4.1034   -1.3945 H   0  0  0  0  0  0  0  0  0  0  0  0
   -2.6199    4.9160   -2.7946 H   0  0  0  0  0  0  0  0  0  0  0  0
    0.0251    6.5551    0.8419 H   0  0  0  0  0  0  0  0  0  0  0  0
   -1.8349    7.5664    2.7459 H   0  0  0  0  0  0  0  0  0  0  0  0
   -0.2329    6.8885    3.0266 H   0  0  0  0  0  0  0  0  0  0  0  0
   -2.8809    3.5328    1.3073 H   0  0  0  0  0  0  0  0  0  0  0  0
   -3.7046    5.0041    0.9099 H   0  0  0  0  0  0  0  0  0  0  0  0
   -2.9592    2.2797   -0.1520 H   0  0  0  0  0  0  0  0  0  0  0  0
   -2.1395    0.9946   -0.9461 H   0  0  0  0  0  0  0  0  0  0  0  0
   -1.7720    1.3125    0.7502 H   0  0  0  0  0  0  0  0  0  0  0  0
    2.5532    4.4010   -0.3466 H   0  0  0  0  0  0  0  0  0  0  0  0
    3.2626    3.3449   -1.5496 H   0  0  0  0  0  0  0  0  0  0  0  0
    1.6360    3.9184   -1.7766 H   0  0  0  0  0  0  0  0  0  0  0  0
    3.9539   -0.2446    2.0320 H   0  0  0  0  0  0  0  0  0  0  0  0
    7.3039    1.7847    0.8731 H   0  0  0  0  0  0  0  0  0  0  0  0
    5.3780    2.6106   -0.9125 H   0  0  0  0  0  0  0  0  0  0  0  0
   -1.7458    8.8253   -1.9289 H   0  0  0  0  0  0  0  0  0  0  0  0
   -1.6109    7.3763   -2.9530 H   0  0  0  0  0  0  0  0  0  0  0  0
   -0.3595    7.7676   -1.7560 H   0  0  0  0  0  0  0  0  0  0  0  0
   -4.0028    7.1248   -2.0879 H   0  0  0  0  0  0  0  0  0  0  0  0
   -3.9755    8.1620   -0.6432 H   0  0  0  0  0  0  0  0  0  0  0  0
   -4.2793    6.4459   -0.4837 H   0  0  0  0  0  0  0  0  0  0  0  0
  1  2  1  0  0  0  0
  1 24  2  0  0  0  0
  2  3  1  0  0  0  0
  3  4  1  0  0  0  0
  3 27  1  0  0  0  0
  3 35  1  1  0  0  0
  4  5  1  0  0  0  0
  4  7  1  0  0  0  0
  4 26  1  6  0  0  0
  5  6  1  0  0  0  0
  5 23  1  1  0  0  0
  6  1  1  0  0  0  0
  6 23  1  0  0  0  0
  6 36  1  6  0  0  0
  7  8  1  0  0  0  0
  7 37  1  0  0  0  0
  7 38  1  0  0  0  0
  8 39  1  0  0  0  0
  8 40  1  0  0  0  0
  9  8  1  0  0  0  0
  9 10  1  0  0  0  0
  9 11  1  0  0  0  0
  9 41  1  6  0  0  0
 10  5  1  0  0  0  0
 10 22  1  1  0  0  0
 11 12  1  0  0  0  0
 11 15  1  0  0  0  0
 11 21  1  1  0  0  0
 12 13  1  0  0  0  0
 12 42  1  6  0  0  0
 13 14  1  0  0  0  0
 13 43  1  0  0  0  0
 13 44  1  0  0  0  0
 14 10  1  0  0  0  0
 14 25  2  0  0  0  0
 15 16  1  0  0  0  0
 15 18  1  0  0  0  0
 15 45  1  6  0  0  0
 16 17  1  0  0  0  0
 17 12  1  0  0  0  0
 17 33  1  0  0  0  0
 17 34  1  0  0  0  0
 18 19  1  0  0  0  0
 18 46  1  0  0  0  0
 18 47  1  0  0  0  0
 19 20  1  0  0  0  0
 19 32  2  0  0  0  0
 20 21  1  0  0  0  0
 21 48  1  0  0  0  0
 21 49  1  0  0  0  0
 22 50  1  0  0  0  0
 22 51  1  0  0  0  0
 22 52  1  0  0  0  0
 26 53  1  0  0  0  0
 26 54  1  0  0  0  0
 26 55  1  0  0  0  0
 27 28  2  0  0  0  0
 28 29  1  0  0  0  0
 28 56  1  0  0  0  0
 29 30  1  0  0  0  0
 30 31  2  0  0  0  0
 30 57  1  0  0  0  0
 31 27  1  0  0  0  0
 31 58  1  0  0  0  0
 33 59  1  0  0  0  0
 33 60  1  0  0  0  0
 33 61  1  0  0  0  0
 34 62  1  0  0  0  0
 34 63  1  0  0  0  0
 34 64  1  0  0  0  0
M  END
>  <Mol_ID>
700

>  <Formula>
C26H30O8

>  <MolWeight>
470.5116

>  <Cat>
S2319

>  <Name>
Limonin

>  <Synonyms>
N/A

>  <Target>
HIV Protease

>  <Form>
free base

>  <CAS>
1180-71-8

>  <URL>
http://selleckchem.com/products/Limonin.html

$$$$
