Linalyl Acetate
 OpenBabel08302521313D

 34 33  0  0  0  0  0  0  0  0999 V2000
    1.0290   -0.0369    0.0510 O   0  0  0  0  0  0  0  0  0  0  0  0
    3.0832    0.2172   -0.9602 O   0  0  0  0  0  0  0  0  0  0  0  0
    0.2636    0.8314   -0.8225 C   0  0  3  0  0  0  0  0  0  0  0  0
    0.4529    2.3288   -0.4710 C   0  0  0  0  0  0  0  0  0  0  0  0
    1.8455    2.9422   -0.6547 C   0  0  0  0  0  0  0  0  0  0  0  0
    0.4574    0.5080   -2.3122 C   0  0  0  0  0  0  0  0  0  0  0  0
   -1.2156    0.5376   -0.5234 C   0  0  0  0  0  0  0  0  0  0  0  0
    1.8194    4.3955   -0.2284 C   0  0  0  0  0  0  0  0  0  0  0  0
    2.1253    5.4786   -0.9690 C   0  0  0  0  0  0  0  0  0  0  0  0
    2.3568   -0.2607   -0.1034 C   0  0  0  0  0  0  0  0  0  0  0  0
   -1.7113   -0.3234    0.3783 C   0  0  0  0  0  0  0  0  0  0  0  0
    2.0315    6.8647   -0.3886 C   0  0  0  0  0  0  0  0  0  0  0  0
    2.5760    5.4034   -2.4000 C   0  0  0  0  0  0  0  0  0  0  0  0
    2.8307   -1.2266    0.9397 C   0  0  0  0  0  0  0  0  0  0  0  0
   -0.2555    2.9239   -1.0662 H   0  0  0  0  0  0  0  0  0  0  0  0
    0.1671    2.4717    0.5827 H   0  0  0  0  0  0  0  0  0  0  0  0
    2.5704    2.4440   -0.0094 H   0  0  0  0  0  0  0  0  0  0  0  0
    2.1751    2.8308   -1.6919 H   0  0  0  0  0  0  0  0  0  0  0  0
    0.0351   -0.4764   -2.5554 H   0  0  0  0  0  0  0  0  0  0  0  0
   -0.0406    1.2483   -2.9489 H   0  0  0  0  0  0  0  0  0  0  0  0
    1.5032    0.4687   -2.6198 H   0  0  0  0  0  0  0  0  0  0  0  0
   -1.9322    1.1084   -1.1141 H   0  0  0  0  0  0  0  0  0  0  0  0
    1.5180    4.5520    0.8086 H   0  0  0  0  0  0  0  0  0  0  0  0
   -2.7843   -0.4369    0.5034 H   0  0  0  0  0  0  0  0  0  0  0  0
   -1.0717   -0.9288    1.0122 H   0  0  0  0  0  0  0  0  0  0  0  0
    3.0230    7.3282   -0.3528 H   0  0  0  0  0  0  0  0  0  0  0  0
    1.3749    7.4917   -1.0013 H   0  0  0  0  0  0  0  0  0  0  0  0
    1.6275    6.8630    0.6298 H   0  0  0  0  0  0  0  0  0  0  0  0
    3.4103    4.7050   -2.5128 H   0  0  0  0  0  0  0  0  0  0  0  0
    1.7504    5.0911   -3.0470 H   0  0  0  0  0  0  0  0  0  0  0  0
    2.9254    6.3795   -2.7551 H   0  0  0  0  0  0  0  0  0  0  0  0
    2.5045   -0.9009    1.9313 H   0  0  0  0  0  0  0  0  0  0  0  0
    2.4487   -2.2276    0.7207 H   0  0  0  0  0  0  0  0  0  0  0  0
    3.9247   -1.2556    0.9373 H   0  0  0  0  0  0  0  0  0  0  0  0
  1  3  1  0  0  0  0
  1 10  1  0  0  0  0
  2 10  2  0  0  0  0
  3  4  1  0  0  0  0
  3  6  1  0  0  0  0
  3  7  1  0  0  0  0
  4  5  1  0  0  0  0
  4 15  1  0  0  0  0
  4 16  1  0  0  0  0
  5  8  1  0  0  0  0
  5 17  1  0  0  0  0
  5 18  1  0  0  0  0
  6 19  1  0  0  0  0
  6 20  1  0  0  0  0
  6 21  1  0  0  0  0
  7 11  2  0  0  0  0
  7 22  1  0  0  0  0
  8  9  2  0  0  0  0
  8 23  1  0  0  0  0
  9 12  1  0  0  0  0
  9 13  1  0  0  0  0
 10 14  1  0  0  0  0
 11 24  1  0  0  0  0
 11 25  1  0  0  0  0
 12 26  1  0  0  0  0
 12 27  1  0  0  0  0
 12 28  1  0  0  0  0
 13 29  1  0  0  0  0
 13 30  1  0  0  0  0
 13 31  1  0  0  0  0
 14 32  1  0  0  0  0
 14 33  1  0  0  0  0
 14 34  1  0  0  0  0
M  END
>  <Mol_ID>
6088

>  <Formula>
C12H20O2

>  <MolWeight>
196.286

>  <Cat>
E0148

>  <Name>
Linalyl Acetate

>  <Synonyms>
Bergamiol, Bergamol, Linalool acetate

>  <Target>
Immunology & Inflammation related

>  <Form>
Free Base

>  <CAS>
115-95-7

>  <URL>
http://www.selleckchem.com/products/linalyl-acetate.html

$$$$
