Lincomycin  HCl.cdx
 OpenBabel08302521383D

 61 62  0  0  0  0  0  0  0  0999 V2000
   -2.1295   -0.6700   -0.2218 C   0  0  1  0  0  0  0  0  0  0  0  0
   -1.8910   -1.4137   -1.5482 C   0  0  1  0  0  0  0  0  0  0  0  0
   -2.5721   -2.7830   -1.5186 C   0  0  2  0  0  0  0  0  0  0  0  0
   -2.1411   -3.5855   -0.2805 C   0  0  2  0  0  0  0  0  0  0  0  0
   -2.3340   -2.8494    0.9252 O   0  0  0  0  0  0  0  0  0  0  0  0
   -1.7335   -1.5356    1.0011 C   0  0  2  0  0  0  0  0  0  0  0  0
   -2.2303   -0.9430    2.3676 C   0  0  1  0  0  0  0  0  0  0  0  0
   -1.7719   -1.7964    3.5926 C   0  0  1  0  0  0  0  0  0  0  0  0
   -0.2713   -1.9662    3.8024 C   0  0  0  0  0  0  0  0  0  0  0  0
   -1.4193    0.5731   -0.2799 O   0  0  0  0  0  0  0  0  0  0  0  0
   -2.0662    0.5062    2.5960 N   0  0  0  0  0  0  0  0  0  0  0  0
   -0.9165    1.2227    2.3829 C   0  0  0  0  0  0  0  0  0  0  0  0
    0.1252    0.6729    2.0200 O   0  0  0  0  0  0  0  0  0  0  0  0
   -0.9998    2.7505    2.5937 C   0  0  2  0  0  0  0  0  0  0  0  0
   -0.0572    3.1481    3.7318 C   0  0  0  0  0  0  0  0  0  0  0  0
   -0.8109    4.1639    4.5905 C   0  0  2  0  0  0  0  0  0  0  0  0
   -2.0811    4.4553    3.8110 C   0  0  0  0  0  0  0  0  0  0  0  0
   -2.3473    3.2528    2.9982 N   0  0  0  0  0  0  0  0  0  0  0  0
   -3.1404    3.6794    1.8306 C   0  0  0  0  0  0  0  0  0  0  0  0
    0.0129    5.4338    4.8620 C   0  0  0  0  0  0  0  0  0  0  0  0
   -0.7476    6.4543    5.7138 C   0  0  0  0  0  0  0  0  0  0  0  0
    0.0389    7.7431    5.8928 C   0  0  0  0  0  0  0  0  0  0  0  0
   -2.3966   -0.6356   -2.6476 O   0  0  0  0  0  0  0  0  0  0  0  0
   -2.3598   -3.5115   -2.7333 O   0  0  0  0  0  0  0  0  0  0  0  0
   -0.4557   -4.2829   -0.4250 S   0  0  0  0  0  0  0  0  0  0  0  0
   -0.4410   -5.2715    1.0919 C   0  0  0  0  0  0  0  0  0  0  0  0
   -2.3307   -1.2337    4.7890 O   0  0  0  0  0  0  0  0  0  0  0  0
   -3.1893   -0.4124   -0.1531 H   0  0  0  0  0  0  0  0  0  0  0  0
   -0.8173   -1.5131   -1.7456 H   0  0  0  0  0  0  0  0  0  0  0  0
   -3.6547   -2.6133   -1.4620 H   0  0  0  0  0  0  0  0  0  0  0  0
   -2.8025   -4.4581   -0.2281 H   0  0  0  0  0  0  0  0  0  0  0  0
   -0.6426   -1.6444    1.0289 H   0  0  0  0  0  0  0  0  0  0  0  0
   -3.3244   -1.0513    2.3601 H   0  0  0  0  0  0  0  0  0  0  0  0
   -2.2018   -2.8021    3.5029 H   0  0  0  0  0  0  0  0  0  0  0  0
    0.2303   -1.0101    3.9697 H   0  0  0  0  0  0  0  0  0  0  0  0
   -0.0866   -2.5638    4.7042 H   0  0  0  0  0  0  0  0  0  0  0  0
    0.2072   -2.4803    2.9646 H   0  0  0  0  0  0  0  0  0  0  0  0
   -0.4820    0.4043   -0.0510 H   0  0  0  0  0  0  0  0  0  0  0  0
   -2.8878    1.0657    2.8210 H   0  0  0  0  0  0  0  0  0  0  0  0
   -0.6680    3.2397    1.6596 H   0  0  0  0  0  0  0  0  0  0  0  0
    0.8692    3.5641    3.3205 H   0  0  0  0  0  0  0  0  0  0  0  0
    0.2232    2.2881    4.3520 H   0  0  0  0  0  0  0  0  0  0  0  0
   -1.0682    3.6891    5.5471 H   0  0  0  0  0  0  0  0  0  0  0  0
   -1.9341    5.3432    3.1811 H   0  0  0  0  0  0  0  0  0  0  0  0
   -2.9226    4.6596    4.4833 H   0  0  0  0  0  0  0  0  0  0  0  0
   -2.6252    4.4493    1.2410 H   0  0  0  0  0  0  0  0  0  0  0  0
   -3.3733    2.8408    1.1753 H   0  0  0  0  0  0  0  0  0  0  0  0
   -4.0913    4.1116    2.1682 H   0  0  0  0  0  0  0  0  0  0  0  0
    0.9489    5.1619    5.3660 H   0  0  0  0  0  0  0  0  0  0  0  0
    0.2958    5.8979    3.9075 H   0  0  0  0  0  0  0  0  0  0  0  0
   -1.7077    6.7032    5.2490 H   0  0  0  0  0  0  0  0  0  0  0  0
   -0.9664    6.0218    6.6965 H   0  0  0  0  0  0  0  0  0  0  0  0
    0.2238    8.2260    4.9276 H   0  0  0  0  0  0  0  0  0  0  0  0
   -0.5260    8.4438    6.5162 H   0  0  0  0  0  0  0  0  0  0  0  0
    1.0022    7.5556    6.3762 H   0  0  0  0  0  0  0  0  0  0  0  0
   -3.3561   -0.5316   -2.5344 H   0  0  0  0  0  0  0  0  0  0  0  0
   -1.4085   -3.7275   -2.7764 H   0  0  0  0  0  0  0  0  0  0  0  0
   -0.1997   -4.6341    1.9446 H   0  0  0  0  0  0  0  0  0  0  0  0
   -1.4053   -5.7585    1.2608 H   0  0  0  0  0  0  0  0  0  0  0  0
    0.3255   -6.0469    1.0109 H   0  0  0  0  0  0  0  0  0  0  0  0
   -2.1629   -0.2753    4.7343 H   0  0  0  0  0  0  0  0  0  0  0  0
  1  2  1  0  0  0  0
  1 10  1  0  0  0  0
  1 28  1  1  0  0  0
  2  3  1  0  0  0  0
  2 23  1  0  0  0  0
  2 29  1  6  0  0  0
  3  4  1  0  0  0  0
  3 24  1  0  0  0  0
  3 30  1  1  0  0  0
  4  5  1  0  0  0  0
  4 31  1  1  0  0  0
  4 25  1  0  0  0  0
  6  5  1  0  0  0  0
  6  1  1  0  0  0  0
  6  7  1  0  0  0  0
  6 32  1  1  0  0  0
  7  8  1  0  0  0  0
  7 11  1  0  0  0  0
  7 33  1  6  0  0  0
  8  9  1  0  0  0  0
  8 27  1  0  0  0  0
  8 34  1  6  0  0  0
  9 35  1  0  0  0  0
  9 36  1  0  0  0  0
  9 37  1  0  0  0  0
 10 38  1  0  0  0  0
 11 12  1  0  0  0  0
 11 39  1  0  0  0  0
 12 13  2  0  0  0  0
 14 15  1  0  0  0  0
 14 40  1  6  0  0  0
 14 12  1  0  0  0  0
 15 16  1  0  0  0  0
 15 41  1  0  0  0  0
 15 42  1  0  0  0  0
 16 17  1  0  0  0  0
 16 20  1  0  0  0  0
 16 43  1  1  0  0  0
 17 18  1  0  0  0  0
 17 44  1  0  0  0  0
 17 45  1  0  0  0  0
 18 14  1  0  0  0  0
 18 19  1  0  0  0  0
 19 46  1  0  0  0  0
 19 47  1  0  0  0  0
 19 48  1  0  0  0  0
 20 21  1  0  0  0  0
 20 49  1  0  0  0  0
 20 50  1  0  0  0  0
 21 22  1  0  0  0  0
 21 51  1  0  0  0  0
 21 52  1  0  0  0  0
 22 53  1  0  0  0  0
 22 54  1  0  0  0  0
 22 55  1  0  0  0  0
 23 56  1  0  0  0  0
 24 57  1  0  0  0  0
 25 26  1  0  0  0  0
 26 58  1  0  0  0  0
 26 59  1  0  0  0  0
 26 60  1  0  0  0  0
 27 61  1  0  0  0  0
M  END
>  <Mol_ID>
749

>  <Formula>
C18H35ClN2O6S

>  <MolWeight>
442.9983

>  <Cat>
S2479

>  <Name>
Lincomycin HCl

>  <Synonyms>
Lincocin, NSC 70731,U10149A

>  <Target>
Antibiotics for Mammalian Cell Culture,Anti-infection

>  <Form>
Hydrochloride

>  <CAS>
859-18-7

>  <URL>
http://selleckchem.com/products/Lincomycin-hydrochloride(Lincocin).html

$$$$
