Linderalactone
 OpenBabel08302521313D

 34 36  0  0  0  0  0  0  0  0999 V2000
    1.7210   -1.2237   -2.3488 O   0  0  0  0  0  0  0  0  0  0  0  0
    2.3188   -2.0116   -1.3100 C   0  0  1  0  0  0  0  0  0  0  0  0
    3.8333   -2.1372   -1.5360 C   0  0  0  0  0  0  0  0  0  0  0  0
    4.8902   -1.7941   -0.6946 C   0  0  0  0  0  0  0  0  0  0  0  0
    5.1095   -1.6003    0.7827 C   0  0  0  0  0  0  0  0  0  0  0  0
    5.0033   -0.1587    1.1795 C   0  0  0  0  0  0  0  0  0  0  0  0
    3.8845    0.2584    1.8002 C   0  0  0  0  0  0  0  0  0  0  0  0
    3.1813    1.5337    1.4354 C   0  0  0  0  0  0  0  0  0  0  0  0
    2.2928    1.4288    0.1530 C   0  0  0  0  0  0  0  0  0  0  0  0
    1.9100    0.1075   -0.4670 C   0  0  0  0  0  0  0  0  0  0  0  0
    1.4841    0.0368   -1.8751 C   0  0  0  0  0  0  0  0  0  0  0  0
    5.9467   -1.4113   -1.4661 O   0  0  0  0  0  0  0  0  0  0  0  0
    4.5634   -2.6215   -2.6583 C   0  0  0  0  0  0  0  0  0  0  0  0
    5.6458   -1.7684   -2.7471 C   0  0  0  0  0  0  0  0  0  0  0  0
    2.0339   -1.1725   -0.1084 C   0  0  0  0  0  0  0  0  0  0  0  0
    0.9436    0.9409   -2.4859 O   0  0  0  0  0  0  0  0  0  0  0  0
    6.0610    0.7387    0.6046 C   0  0  0  0  0  0  0  0  0  0  0  0
    4.6370   -4.0066   -3.2028 C   0  0  0  0  0  0  0  0  0  0  0  0
    1.8142   -2.9845   -1.2729 H   0  0  0  0  0  0  0  0  0  0  0  0
    6.0961   -2.0093    1.0455 H   0  0  0  0  0  0  0  0  0  0  0  0
    4.3954   -2.2328    1.3243 H   0  0  0  0  0  0  0  0  0  0  0  0
    3.2377   -0.4603    2.2954 H   0  0  0  0  0  0  0  0  0  0  0  0
    3.8980    2.3547    1.3167 H   0  0  0  0  0  0  0  0  0  0  0  0
    2.5341    1.8231    2.2843 H   0  0  0  0  0  0  0  0  0  0  0  0
    2.8942    1.9299   -0.6270 H   0  0  0  0  0  0  0  0  0  0  0  0
    1.4092    2.0663    0.2779 H   0  0  0  0  0  0  0  0  0  0  0  0
    6.4510   -1.6277   -3.4513 H   0  0  0  0  0  0  0  0  0  0  0  0
    2.2753   -1.5575    0.8624 H   0  0  0  0  0  0  0  0  0  0  0  0
    5.7853    1.0851   -0.3968 H   0  0  0  0  0  0  0  0  0  0  0  0
    6.2438    1.5964    1.2514 H   0  0  0  0  0  0  0  0  0  0  0  0
    7.0123    0.1967    0.5317 H   0  0  0  0  0  0  0  0  0  0  0  0
    5.1449   -4.6097   -2.4382 H   0  0  0  0  0  0  0  0  0  0  0  0
    3.6684   -4.4551   -3.4069 H   0  0  0  0  0  0  0  0  0  0  0  0
    5.2755   -4.0472   -4.0929 H   0  0  0  0  0  0  0  0  0  0  0  0
  1 11  1  0  0  0  0
  2  1  1  0  0  0  0
  2  3  1  0  0  0  0
  2 15  1  0  0  0  0
  2 19  1  1  0  0  0
  3  4  2  0  0  0  0
  4  5  1  0  0  0  0
  5  6  1  0  0  0  0
  5 20  1  0  0  0  0
  5 21  1  0  0  0  0
  6  7  2  0  0  0  0
  6 17  1  0  0  0  0
  7  8  1  0  0  0  0
  7 22  1  0  0  0  0
  8  9  1  0  0  0  0
  8 23  1  0  0  0  0
  8 24  1  0  0  0  0
  9 10  1  0  0  0  0
  9 25  1  0  0  0  0
  9 26  1  0  0  0  0
 10 11  1  0  0  0  0
 10 15  2  0  0  0  0
 11 16  2  0  0  0  0
 12 14  1  0  0  0  0
 12  4  1  0  0  0  0
 13 14  2  0  0  0  0
 13  3  1  0  0  0  0
 13 18  1  0  0  0  0
 14 27  1  0  0  0  0
 15 28  1  0  0  0  0
 17 29  1  0  0  0  0
 17 30  1  0  0  0  0
 17 31  1  0  0  0  0
 18 32  1  0  0  0  0
 18 33  1  0  0  0  0
 18 34  1  0  0  0  0
M  END
>  <Mol_ID>
5822

>  <Formula>
C15H16O3

>  <MolWeight>
244.28574

>  <Cat>
E0011

>  <Name>
Linderalactone

>  <Synonyms>
N/A

>  <Target>
Bcl-2,JAK,STAT

>  <Form>
Free Base

>  <CAS>
728-61-0

>  <URL>
http://www.selleckchem.com/products/linderalactone.html

$$$$
