Linezolid.cdx
 OpenBabel08302522013D

 58 60  0  0  0  0  0  0  0  0999 V2000
   -1.8891   -1.4791    4.9769 N   0  0  0  0  0  0  0  0  0  0  0  0
   -2.6213   -2.3106    5.7116 C   0  0  0  0  0  0  0  0  0  0  0  0
   -3.5267   -3.1548    5.2271 N   0  0  0  0  0  0  0  0  0  0  0  0
   -3.7777   -3.1086    3.9197 C   0  0  0  0  0  0  0  0  0  0  0  0
   -3.1060   -2.2493    3.0437 C   0  0  0  0  0  0  0  0  0  0  0  0
   -2.1420   -1.4642    3.6606 C   0  0  0  0  0  0  0  0  0  0  0  0
   -4.7463   -3.8944    3.4312 N   0  0  0  0  0  0  0  0  0  0  0  0
   -5.0557   -3.7842    2.1146 C   0  0  0  0  0  0  0  0  0  0  0  0
   -4.3857   -2.9369    1.2435 C   0  0  0  0  0  0  0  0  0  0  0  0
   -3.3848   -2.1652    1.7048 N   0  0  0  0  0  0  0  0  0  0  0  0
   -2.4148   -2.2791    7.0729 N   0  0  0  0  0  0  0  0  0  0  0  0
   -1.4442   -0.4912    2.9229 N   0  0  0  0  0  0  0  0  0  0  0  0
   -4.8629   -2.7340   -0.1743 C   0  0  0  0  0  0  0  0  0  0  0  0
   -3.7657   -2.4044   -1.2285 C   0  0  3  0  0  0  0  0  0  0  0  0
   -2.6690   -3.4593   -1.3824 C   0  0  0  0  0  0  0  0  0  0  0  0
   -4.3984   -2.0299   -2.5877 C   0  0  0  0  0  0  0  0  0  0  0  0
   -5.2000   -3.1162   -3.1858 C   0  0  0  0  0  0  0  0  0  0  0  0
   -5.8490   -3.9886   -3.6775 C   0  0  0  0  0  0  0  0  0  0  0  0
   -2.9108   -4.8277   -1.1927 C   0  0  0  0  0  0  0  0  0  0  0  0
   -1.8564   -5.7484   -1.1685 C   0  0  0  0  0  0  0  0  0  0  0  0
   -0.5392   -5.3203   -1.3498 C   0  0  0  0  0  0  0  0  0  0  0  0
   -0.2967   -3.9718   -1.6344 C   0  0  0  0  0  0  0  0  0  0  0  0
   -1.3558   -3.0533   -1.6740 C   0  0  0  0  0  0  0  0  0  0  0  0
    0.6128   -6.2488   -1.1431 C   0  0  0  0  0  0  0  0  0  0  0  0
    0.4199   -7.5757   -1.4683 N   0  0  0  0  0  0  0  0  0  0  0  0
    1.6726   -5.8214   -0.6991 O   0  0  0  0  0  0  0  0  0  0  0  0
    1.4726   -8.5907   -1.2748 C   0  0  1  0  0  0  0  0  0  0  0  0
    1.3558   -9.2325    0.1247 C   0  0  0  0  0  0  0  0  0  0  0  0
    2.4122  -10.3139    0.4193 C   0  0  0  0  0  0  0  0  0  0  0  0
    2.3059  -10.8733    1.8179 C   0  0  0  0  0  0  0  0  0  0  0  0
    3.2322  -11.8304    2.0674 O   0  0  0  0  0  0  0  0  0  0  0  0
    1.3788   -9.6882   -2.3416 C   0  0  0  0  0  0  0  0  0  0  0  0
    2.1945  -10.5760   -2.5370 O   0  0  0  0  0  0  0  0  0  0  0  0
    0.1899   -9.7175   -2.9840 O   0  0  0  0  0  0  0  0  0  0  0  0
    1.4712  -10.5470    2.6446 O   0  0  0  0  0  0  0  0  0  0  0  0
   -5.8965   -4.3900    1.7917 H   0  0  0  0  0  0  0  0  0  0  0  0
   -2.6437   -3.1629    7.5028 H   0  0  0  0  0  0  0  0  0  0  0  0
   -1.5188   -1.8637    7.2885 H   0  0  0  0  0  0  0  0  0  0  0  0
   -1.1796   -0.8415    2.0082 H   0  0  0  0  0  0  0  0  0  0  0  0
   -0.6880   -0.1198    3.4843 H   0  0  0  0  0  0  0  0  0  0  0  0
   -5.4354   -3.6149   -0.4860 H   0  0  0  0  0  0  0  0  0  0  0  0
   -5.5773   -1.8997   -0.1412 H   0  0  0  0  0  0  0  0  0  0  0  0
   -3.2647   -1.4905   -0.8717 H   0  0  0  0  0  0  0  0  0  0  0  0
   -5.0434   -1.1525   -2.4540 H   0  0  0  0  0  0  0  0  0  0  0  0
   -3.6172   -1.7322   -3.2981 H   0  0  0  0  0  0  0  0  0  0  0  0
   -6.4273   -4.7669   -4.1303 H   0  0  0  0  0  0  0  0  0  0  0  0
   -3.9179   -5.1979   -1.0230 H   0  0  0  0  0  0  0  0  0  0  0  0
   -2.0801   -6.7878   -0.9453 H   0  0  0  0  0  0  0  0  0  0  0  0
    0.7213   -3.6210   -1.7987 H   0  0  0  0  0  0  0  0  0  0  0  0
   -1.1395   -2.0096   -1.8949 H   0  0  0  0  0  0  0  0  0  0  0  0
   -0.3789   -7.8438   -2.0346 H   0  0  0  0  0  0  0  0  0  0  0  0
    2.4412   -8.0937   -1.3962 H   0  0  0  0  0  0  0  0  0  0  0  0
    1.4228   -8.4453    0.8868 H   0  0  0  0  0  0  0  0  0  0  0  0
    0.3580   -9.6775    0.2381 H   0  0  0  0  0  0  0  0  0  0  0  0
    2.2739  -11.1694   -0.2468 H   0  0  0  0  0  0  0  0  0  0  0  0
    3.4182   -9.9023    0.2836 H   0  0  0  0  0  0  0  0  0  0  0  0
    3.8384  -12.0084    1.3215 H   0  0  0  0  0  0  0  0  0  0  0  0
    0.1976  -10.5949   -3.4304 H   0  0  0  0  0  0  0  0  0  0  0  0
  1  2  2  0  0  0  0
  2  3  1  0  0  0  0
  2 11  1  0  0  0  0
  3  4  2  0  0  0  0
  4  5  1  0  0  0  0
  4  7  1  0  0  0  0
  5  6  2  0  0  0  0
  6  1  1  0  0  0  0
  6 12  1  0  0  0  0
  7  8  2  0  0  0  0
  8  9  1  0  0  0  0
  8 36  1  0  0  0  0
  9 10  2  0  0  0  0
  9 13  1  0  0  0  0
 10  5  1  0  0  0  0
 11 37  1  0  0  0  0
 11 38  1  0  0  0  0
 12 39  1  0  0  0  0
 12 40  1  0  0  0  0
 13 14  1  0  0  0  0
 13 41  1  0  0  0  0
 13 42  1  0  0  0  0
 14 15  1  0  0  0  0
 14 16  1  0  0  0  0
 14 43  1  0  0  0  0
 15 19  2  0  0  0  0
 16 17  1  0  0  0  0
 16 44  1  0  0  0  0
 16 45  1  0  0  0  0
 17 18  3  0  0  0  0
 18 46  1  0  0  0  0
 19 20  1  0  0  0  0
 19 47  1  0  0  0  0
 20 21  2  0  0  0  0
 20 48  1  0  0  0  0
 21 22  1  0  0  0  0
 21 24  1  0  0  0  0
 22 23  2  0  0  0  0
 22 49  1  0  0  0  0
 23 15  1  0  0  0  0
 23 50  1  0  0  0  0
 24 25  1  0  0  0  0
 24 26  2  0  0  0  0
 25 27  1  0  0  0  0
 25 51  1  0  0  0  0
 27 28  1  0  0  0  0
 27 32  1  0  0  0  0
 27 52  1  6  0  0  0
 28 29  1  0  0  0  0
 28 53  1  0  0  0  0
 28 54  1  0  0  0  0
 29 30  1  0  0  0  0
 29 55  1  0  0  0  0
 29 56  1  0  0  0  0
 30 31  1  0  0  0  0
 30 35  2  0  0  0  0
 31 57  1  0  0  0  0
 32 33  2  0  0  0  0
 32 34  1  0  0  0  0
 34 58  1  0  0  0  0
M  END
>  <Mol_ID>
1114

>  <Formula>
C23H23N7O5

>  <MolWeight>
477.47262

>  <Cat>
S1497

>  <Name>
Pralatrexate (NSC 754230)

>  <Synonyms>
NSC 754230

>  <Target>
Apoptosis related,DHFR

>  <Form>
free base

>  <CAS>
146464-95-1

>  <URL>
http://selleckchem.com/products/Pralatrexate(Folotyn).html

$$$$
