¦Á-Lipoic Acid
 OpenBabel08302521373D

 26 26  0  0  1  0  0  0  0  0999 V2000
    2.2528    1.4714    1.4140 S   0  0  0  0  0  0  0  0  0  0  0  0
    3.1194   -0.3824    1.5091 S   0  0  0  0  0  0  0  0  0  0  0  0
    1.0299    3.9990   -6.1754 O   0  0  0  0  0  0  0  0  0  0  0  0
    2.9115    4.7994   -5.2171 O   0  0  0  0  0  0  0  0  0  0  0  0
    1.1052    1.1478    0.0317 C   0  0  3  0  0  0  0  0  0  0  0  0
    1.6068    1.7037   -1.3160 C   0  0  0  0  0  0  0  0  0  0  0  0
    0.9132   -0.3762   -0.0036 C   0  0  0  0  0  0  0  0  0  0  0  0
    1.7482    3.2321   -1.3372 C   0  0  0  0  0  0  0  0  0  0  0  0
    2.2639    3.7885   -2.6691 C   0  0  0  0  0  0  0  0  0  0  0  0
    2.2511   -1.1023    0.0987 C   0  0  0  0  0  0  0  0  0  0  0  0
    1.3241    3.5561   -3.8514 C   0  0  0  0  0  0  0  0  0  0  0  0
    1.8566    4.1897   -5.1181 C   0  0  0  0  0  0  0  0  0  0  0  0
    0.2240    3.4951   -5.9587 H   0  0  0  0  0  0  0  0  0  0  0  0
    0.1472    1.6228    0.2691 H   0  0  0  0  0  0  0  0  0  0  0  0
    2.5631    1.2462   -1.5974 H   0  0  0  0  0  0  0  0  0  0  0  0
    0.8837    1.4074   -2.0840 H   0  0  0  0  0  0  0  0  0  0  0  0
    0.2610   -0.6857    0.8255 H   0  0  0  0  0  0  0  0  0  0  0  0
    0.3949   -0.6804   -0.9214 H   0  0  0  0  0  0  0  0  0  0  0  0
    0.7860    3.6963   -1.0944 H   0  0  0  0  0  0  0  0  0  0  0  0
    2.4571    3.5491   -0.5625 H   0  0  0  0  0  0  0  0  0  0  0  0
    2.4224    4.8685   -2.5480 H   0  0  0  0  0  0  0  0  0  0  0  0
    3.2482    3.3589   -2.8885 H   0  0  0  0  0  0  0  0  0  0  0  0
    2.1081   -2.1760    0.2514 H   0  0  0  0  0  0  0  0  0  0  0  0
    2.8545   -0.9653   -0.8034 H   0  0  0  0  0  0  0  0  0  0  0  0
    1.2088    2.4840   -4.0408 H   0  0  0  0  0  0  0  0  0  0  0  0
    0.3427    3.9940   -3.6360 H   0  0  0  0  0  0  0  0  0  0  0  0
  1  2  1  0  0  0  0
  1  5  1  0  0  0  0
  2 10  1  0  0  0  0
  3 12  1  0  0  0  0
  3 13  1  0  0  0  0
  4 12  2  0  0  0  0
  5  6  1  0  0  0  0
  5  7  1  0  0  0  0
  5 14  1  0  0  0  0
  6  8  1  0  0  0  0
  6 15  1  0  0  0  0
  6 16  1  0  0  0  0
  7 10  1  0  0  0  0
  7 17  1  0  0  0  0
  7 18  1  0  0  0  0
  8  9  1  0  0  0  0
  8 19  1  0  0  0  0
  8 20  1  0  0  0  0
  9 11  1  0  0  0  0
  9 21  1  0  0  0  0
  9 22  1  0  0  0  0
 10 23  1  0  0  0  0
 10 24  1  0  0  0  0
 11 12  1  0  0  0  0
 11 25  1  0  0  0  0
 11 26  1  0  0  0  0
M  END
>  <Mol_ID>
7340

>  <Formula>
C8H14O2S2

>  <MolWeight>
206.32556

>  <Cat>
E4386

>  <Name>
¦Á-Lipoic Acid

>  <Synonyms>
¦Á-Lipoic Acid

>  <Target>
Endogenous Metabolite;HIV Protease;Mitochondrial Metabolism;NF-¦ÊB

>  <Form>
free base

>  <CAS>
62-46-4

>  <URL>
https://www.selleckchem.com/products/alpha-lipoic-acid.html

$$$$
