Liproxstatin-1.cdx
 OpenBabel08302519593D

 45 48  0  0  0  0  0  0  0  0999 V2000
    1.0055    0.2812    0.5545 C   0  0  0  0  0  0  0  0  0  0  0  0
    1.6007   -0.8606   -0.0178 C   0  0  0  0  0  0  0  0  0  0  0  0
    0.8913   -2.0648   -0.1729 N   0  0  0  0  0  0  0  0  0  0  0  0
   -0.4144   -2.0202   -0.0858 C   0  0  0  0  0  0  0  0  0  0  0  0
   -1.1746   -0.6422    0.1253 C   0  0  0  0  0  0  0  0  0  0  0  0
   -0.3360    0.2372    0.9913 N   0  0  0  0  0  0  0  0  0  0  0  0
    1.7682    1.4375    0.7489 C   0  0  0  0  0  0  0  0  0  0  0  0
    3.0869    1.4920    0.2969 C   0  0  0  0  0  0  0  0  0  0  0  0
    3.6640    0.3765   -0.3079 C   0  0  0  0  0  0  0  0  0  0  0  0
    2.9264   -0.8019   -0.4490 C   0  0  0  0  0  0  0  0  0  0  0  0
   -2.5348   -0.8221    0.8295 C   0  0  0  0  0  0  0  0  0  0  0  0
   -3.3379    0.4788    0.8681 C   0  0  0  0  0  0  0  0  0  0  0  0
   -3.5174    1.0417   -0.4703 N   0  0  0  0  0  0  0  0  0  0  0  0
   -2.2419    1.2858   -1.1417 C   0  0  0  0  0  0  0  0  0  0  0  0
   -1.4152    0.0082   -1.2528 C   0  0  0  0  0  0  0  0  0  0  0  0
   -1.1326   -3.1926   -0.2324 N   0  0  0  0  0  0  0  0  0  0  0  0
   -0.5915   -4.4921    0.1128 C   0  0  0  0  0  0  0  0  0  0  0  0
   -0.5809   -5.4136   -1.0801 C   0  0  0  0  0  0  0  0  0  0  0  0
    0.1885   -5.0934   -2.2088 C   0  0  0  0  0  0  0  0  0  0  0  0
    0.2507   -5.9636   -3.2983 C   0  0  0  0  0  0  0  0  0  0  0  0
   -0.4525   -7.1660   -3.2709 C   0  0  0  0  0  0  0  0  0  0  0  0
   -1.2180   -7.4989   -2.1546 C   0  0  0  0  0  0  0  0  0  0  0  0
   -1.2823   -6.6283   -1.0637 C   0  0  0  0  0  0  0  0  0  0  0  0
   -0.7132    1.1668    1.1297 H   0  0  0  0  0  0  0  0  0  0  0  0
    1.3323    2.3105    1.2256 H   0  0  0  0  0  0  0  0  0  0  0  0
    3.6632    2.4055    0.4168 H   0  0  0  0  0  0  0  0  0  0  0  0
    4.6905    0.4178   -0.6615 H   0  0  0  0  0  0  0  0  0  0  0  0
    3.3816   -1.6790   -0.9010 H   0  0  0  0  0  0  0  0  0  0  0  0
   -2.3938   -1.1987    1.8501 H   0  0  0  0  0  0  0  0  0  0  0  0
   -3.1476   -1.5654    0.3058 H   0  0  0  0  0  0  0  0  0  0  0  0
   -2.8658    1.2137    1.5302 H   0  0  0  0  0  0  0  0  0  0  0  0
   -4.3269    0.2719    1.2917 H   0  0  0  0  0  0  0  0  0  0  0  0
   -4.0329    1.9203   -0.4004 H   0  0  0  0  0  0  0  0  0  0  0  0
   -2.4411    1.6710   -2.1474 H   0  0  0  0  0  0  0  0  0  0  0  0
   -1.6824    2.0710   -0.6181 H   0  0  0  0  0  0  0  0  0  0  0  0
   -0.4725    0.2377   -1.7629 H   0  0  0  0  0  0  0  0  0  0  0  0
   -1.9401   -0.7030   -1.9056 H   0  0  0  0  0  0  0  0  0  0  0  0
   -2.1368   -3.1681   -0.3325 H   0  0  0  0  0  0  0  0  0  0  0  0
    0.4223   -4.4335    0.5275 H   0  0  0  0  0  0  0  0  0  0  0  0
   -1.2163   -4.9155    0.9095 H   0  0  0  0  0  0  0  0  0  0  0  0
    0.7524   -4.1619   -2.2315 H   0  0  0  0  0  0  0  0  0  0  0  0
    0.8546   -5.7037   -4.1636 H   0  0  0  0  0  0  0  0  0  0  0  0
   -0.3991   -7.8455   -4.1174 H   0  0  0  0  0  0  0  0  0  0  0  0
   -1.7589   -8.4415   -2.1311 H   0  0  0  0  0  0  0  0  0  0  0  0
   -1.8737   -6.9140   -0.1969 H   0  0  0  0  0  0  0  0  0  0  0  0
  1  2  2  0  0  0  0
  1  7  1  0  0  0  0
  2  3  1  0  0  0  0
  3  4  2  0  0  0  0
  4  5  1  0  0  0  0
  4 16  1  0  0  0  0
  5  6  1  0  0  0  0
  5 11  1  0  0  0  0
  6  1  1  0  0  0  0
  6 24  1  0  0  0  0
  7  8  2  0  0  0  0
  7 25  1  0  0  0  0
  8  9  1  0  0  0  0
  8 26  1  0  0  0  0
  9 10  2  0  0  0  0
  9 27  1  0  0  0  0
 10  2  1  0  0  0  0
 10 28  1  0  0  0  0
 11 12  1  0  0  0  0
 11 29  1  0  0  0  0
 11 30  1  0  0  0  0
 12 13  1  0  0  0  0
 12 31  1  0  0  0  0
 12 32  1  0  0  0  0
 13 14  1  0  0  0  0
 13 33  1  0  0  0  0
 14 15  1  0  0  0  0
 14 34  1  0  0  0  0
 14 35  1  0  0  0  0
 15  5  1  0  0  0  0
 15 36  1  0  0  0  0
 15 37  1  0  0  0  0
 16 17  1  0  0  0  0
 16 38  1  0  0  0  0
 17 18  1  0  0  0  0
 17 39  1  0  0  0  0
 17 40  1  0  0  0  0
 18 19  2  0  0  0  0
 19 20  1  0  0  0  0
 19 41  1  0  0  0  0
 20 21  2  0  0  0  0
 20 42  1  0  0  0  0
 21 22  1  0  0  0  0
 21 43  1  0  0  0  0
 22 23  2  0  0  0  0
 22 44  1  0  0  0  0
 23 18  1  0  0  0  0
 23 45  1  0  0  0  0
M  END
>  <Mol_ID>
2573

>  <Formula>
C19H21ClN4

>  <MolWeight>
340.84984

>  <Cat>
S7699

>  <Name>
Liproxstatin-1

>  <Synonyms>
N/A

>  <Target>
Ferroptosis

>  <Form>
free base

>  <CAS>
950455-15-9

>  <URL>
http://selleckchem.com/products/liproxstatin-1.html

$$$$
