LIT-927
 OpenBabel08302521223D

 36 38  0  0  0  0  0  0  0  0999 V2000
   -0.7625   -1.0888   -0.0089 C   0  0  0  0  0  0  0  0  0  0  0  0
    0.4325   -1.1940   -0.7211 C   0  0  0  0  0  0  0  0  0  0  0  0
    1.1810   -0.0524   -1.0013 C   0  0  0  0  0  0  0  0  0  0  0  0
    0.7226    1.1993   -0.5916 C   0  0  0  0  0  0  0  0  0  0  0  0
   -0.5000    1.3167    0.0814 C   0  0  0  0  0  0  0  0  0  0  0  0
   -1.2275    0.1636    0.3996 C   0  0  0  0  0  0  0  0  0  0  0  0
   -1.0683    2.6533    0.4228 C   0  0  0  0  0  0  0  0  0  0  0  0
   -0.8055    3.7340   -0.5600 C   0  0  0  0  0  0  0  0  0  0  0  0
   -1.3746    4.9063   -0.2722 C   0  0  0  0  0  0  0  0  0  0  0  0
   -2.1083    5.0465    0.8657 N   0  0  0  0  0  0  0  0  0  0  0  0
   -2.3370    4.0268    1.7586 C   0  0  0  0  0  0  0  0  0  0  0  0
   -1.7889    2.7993    1.4881 N   0  0  0  0  0  0  0  0  0  0  0  0
   -1.3133    6.0259   -1.2132 C   0  0  0  0  0  0  0  0  0  0  0  0
   -2.2975    6.1319   -2.2019 C   0  0  0  0  0  0  0  0  0  0  0  0
   -2.2569    7.1720   -3.1296 C   0  0  0  0  0  0  0  0  0  0  0  0
   -1.2367    8.1234   -3.0667 C   0  0  0  0  0  0  0  0  0  0  0  0
   -0.2576    8.0480   -2.0676 C   0  0  0  0  0  0  0  0  0  0  0  0
   -0.2903    6.9798   -1.1588 C   0  0  0  0  0  0  0  0  0  0  0  0
    0.8018    8.8989   -1.8899 O   0  0  0  0  0  0  0  0  0  0  0  0
   -1.2044    9.1049   -4.0172 O   0  0  0  0  0  0  0  0  0  0  0  0
   -3.0304    4.2479    2.7453 O   0  0  0  0  0  0  0  0  0  0  0  0
    0.5906   10.2553   -2.2704 C   0  0  0  0  0  0  0  0  0  0  0  0
   -1.3380   -1.9827    0.2196 H   0  0  0  0  0  0  0  0  0  0  0  0
    0.7847   -2.1676   -1.0531 H   0  0  0  0  0  0  0  0  0  0  0  0
    2.1201   -0.1349   -1.5425 H   0  0  0  0  0  0  0  0  0  0  0  0
    1.3357    2.0708   -0.8027 H   0  0  0  0  0  0  0  0  0  0  0  0
   -2.1667    0.2354    0.9445 H   0  0  0  0  0  0  0  0  0  0  0  0
   -0.2572    3.5550   -1.4744 H   0  0  0  0  0  0  0  0  0  0  0  0
   -2.5577    5.9246    1.0887 H   0  0  0  0  0  0  0  0  0  0  0  0
   -3.0985    5.3973   -2.2588 H   0  0  0  0  0  0  0  0  0  0  0  0
   -3.0276    7.2211   -3.8934 H   0  0  0  0  0  0  0  0  0  0  0  0
    0.4880    6.9072   -0.4015 H   0  0  0  0  0  0  0  0  0  0  0  0
   -1.8816    8.9213   -4.6890 H   0  0  0  0  0  0  0  0  0  0  0  0
    0.6926   10.3825   -3.3514 H   0  0  0  0  0  0  0  0  0  0  0  0
   -0.3699   10.6360   -1.9064 H   0  0  0  0  0  0  0  0  0  0  0  0
    1.3792   10.8549   -1.8047 H   0  0  0  0  0  0  0  0  0  0  0  0
  1  2  2  0  0  0  0
  1 23  1  0  0  0  0
  2  3  1  0  0  0  0
  2 24  1  0  0  0  0
  3  4  2  0  0  0  0
  3 25  1  0  0  0  0
  4  5  1  0  0  0  0
  4 26  1  0  0  0  0
  5  6  2  0  0  0  0
  5  7  1  0  0  0  0
  6  1  1  0  0  0  0
  6 27  1  0  0  0  0
  7  8  1  0  0  0  0
  8  9  2  0  0  0  0
  8 28  1  0  0  0  0
  9 10  1  0  0  0  0
  9 13  1  0  0  0  0
 10 11  1  0  0  0  0
 10 29  1  0  0  0  0
 11 12  1  0  0  0  0
 11 21  2  0  0  0  0
 12  7  2  0  0  0  0
 13 14  2  0  0  0  0
 14 15  1  0  0  0  0
 14 30  1  0  0  0  0
 15 16  2  0  0  0  0
 15 31  1  0  0  0  0
 16 17  1  0  0  0  0
 16 20  1  0  0  0  0
 17 18  2  0  0  0  0
 17 19  1  0  0  0  0
 18 13  1  0  0  0  0
 18 32  1  0  0  0  0
 19 22  1  0  0  0  0
 20 33  1  0  0  0  0
 22 34  1  0  0  0  0
 22 35  1  0  0  0  0
 22 36  1  0  0  0  0
M  END
>  <Mol_ID>
4606

>  <Formula>
C17H13ClN2O3

>  <MolWeight>
328.74972

>  <Cat>
S8813

>  <Name>
LIT-927

>  <Synonyms>
N/A

>  <Target>
CXCR

>  <Form>
Free Base

>  <CAS>
2172879-52-4

>  <URL>
http://www.selleckchem.com/products/lit-927.html

$$$$
