LJI308.cdx
 OpenBabel08302519593D

 45 48  0  0  0  0  0  0  0  0999 V2000
   -0.6169    0.0138   -1.2101 C   0  0  0  0  0  0  0  0  0  0  0  0
    0.7576    0.1705   -1.1991 C   0  0  0  0  0  0  0  0  0  0  0  0
    1.4799    0.0912    0.0166 C   0  0  0  0  0  0  0  0  0  0  0  0
    0.7430   -0.1449    1.2120 C   0  0  0  0  0  0  0  0  0  0  0  0
   -0.6528   -0.2633    1.0614 C   0  0  0  0  0  0  0  0  0  0  0  0
   -1.3402   -0.1971   -0.1020 N   0  0  0  0  0  0  0  0  0  0  0  0
    1.3201   -0.2725    2.5796 C   0  0  0  0  0  0  0  0  0  0  0  0
    2.9662    0.2053   -0.0572 C   0  0  0  0  0  0  0  0  0  0  0  0
    0.7180    0.3685    3.6828 C   0  0  0  0  0  0  0  0  0  0  0  0
    1.2880    0.3139    4.9569 C   0  0  0  0  0  0  0  0  0  0  0  0
    2.4880   -0.3463    5.1653 C   0  0  0  0  0  0  0  0  0  0  0  0
    3.0822   -1.0037    4.1003 C   0  0  0  0  0  0  0  0  0  0  0  0
    2.4913   -1.0106    2.8374 C   0  0  0  0  0  0  0  0  0  0  0  0
    3.7181    0.9513    0.8652 C   0  0  0  0  0  0  0  0  0  0  0  0
    5.1210    0.8624    0.9122 C   0  0  0  0  0  0  0  0  0  0  0  0
    5.8363    0.1141   -0.0237 C   0  0  0  0  0  0  0  0  0  0  0  0
    5.0934   -0.5219   -1.0232 C   0  0  0  0  0  0  0  0  0  0  0  0
    3.6916   -0.4992   -1.0295 C   0  0  0  0  0  0  0  0  0  0  0  0
    4.2612   -1.6150    4.2836 F   0  0  0  0  0  0  0  0  0  0  0  0
    3.0747   -0.3404    6.4001 O   0  0  0  0  0  0  0  0  0  0  0  0
    0.6641    0.9294    5.9712 F   0  0  0  0  0  0  0  0  0  0  0  0
    7.2086   -0.0432    0.0136 N   0  0  0  0  0  0  0  0  0  0  0  0
    7.9723   -0.0922    1.2679 C   0  0  0  0  0  0  0  0  0  0  0  0
    8.8525    1.1547    1.4290 C   0  0  0  0  0  0  0  0  0  0  0  0
    9.6718    1.3841    0.2701 O   0  0  0  0  0  0  0  0  0  0  0  0
    8.8462    1.5543   -0.8922 C   0  0  0  0  0  0  0  0  0  0  0  0
    7.9998    0.2995   -1.1756 C   0  0  0  0  0  0  0  0  0  0  0  0
   -1.1803    0.0545   -2.1373 H   0  0  0  0  0  0  0  0  0  0  0  0
    1.2654    0.3361   -2.1458 H   0  0  0  0  0  0  0  0  0  0  0  0
   -1.2931   -0.4472    1.9214 H   0  0  0  0  0  0  0  0  0  0  0  0
   -0.2017    0.9401    3.5721 H   0  0  0  0  0  0  0  0  0  0  0  0
    2.9976   -1.5572    2.0453 H   0  0  0  0  0  0  0  0  0  0  0  0
    3.2189    1.5634    1.6146 H   0  0  0  0  0  0  0  0  0  0  0  0
    5.6403    1.3944    1.7033 H   0  0  0  0  0  0  0  0  0  0  0  0
    5.6016   -1.1189   -1.7780 H   0  0  0  0  0  0  0  0  0  0  0  0
    3.1797   -1.0845   -1.7899 H   0  0  0  0  0  0  0  0  0  0  0  0
    3.9123   -0.8348    6.3241 H   0  0  0  0  0  0  0  0  0  0  0  0
    8.6259   -0.9718    1.2115 H   0  0  0  0  0  0  0  0  0  0  0  0
    7.3352   -0.2333    2.1476 H   0  0  0  0  0  0  0  0  0  0  0  0
    8.2455    2.0475    1.6168 H   0  0  0  0  0  0  0  0  0  0  0  0
    9.5254    1.0222    2.2833 H   0  0  0  0  0  0  0  0  0  0  0  0
    9.5075    1.7535   -1.7428 H   0  0  0  0  0  0  0  0  0  0  0  0
    8.2096    2.4367   -0.7505 H   0  0  0  0  0  0  0  0  0  0  0  0
    8.6635   -0.5433   -1.3963 H   0  0  0  0  0  0  0  0  0  0  0  0
    7.3812    0.4796   -2.0627 H   0  0  0  0  0  0  0  0  0  0  0  0
  1  2  2  0  0  0  0
  1 28  1  0  0  0  0
  2  3  1  0  0  0  0
  2 29  1  0  0  0  0
  3  4  2  0  0  0  0
  3  8  1  0  0  0  0
  4  5  1  0  0  0  0
  4  7  1  0  0  0  0
  5  6  2  0  0  0  0
  5 30  1  0  0  0  0
  6  1  1  0  0  0  0
  7  9  2  0  0  0  0
  8 14  2  0  0  0  0
  9 10  1  0  0  0  0
  9 31  1  0  0  0  0
 10 11  2  0  0  0  0
 10 21  1  0  0  0  0
 11 12  1  0  0  0  0
 11 20  1  0  0  0  0
 12 13  2  0  0  0  0
 12 19  1  0  0  0  0
 13  7  1  0  0  0  0
 13 32  1  0  0  0  0
 14 15  1  0  0  0  0
 14 33  1  0  0  0  0
 15 16  2  0  0  0  0
 15 34  1  0  0  0  0
 16 17  1  0  0  0  0
 16 22  1  0  0  0  0
 17 18  2  0  0  0  0
 17 35  1  0  0  0  0
 18  8  1  0  0  0  0
 18 36  1  0  0  0  0
 20 37  1  0  0  0  0
 22 23  1  0  0  0  0
 23 24  1  0  0  0  0
 23 38  1  0  0  0  0
 23 39  1  0  0  0  0
 24 25  1  0  0  0  0
 24 40  1  0  0  0  0
 24 41  1  0  0  0  0
 25 26  1  0  0  0  0
 26 27  1  0  0  0  0
 26 42  1  0  0  0  0
 26 43  1  0  0  0  0
 27 22  1  0  0  0  0
 27 44  1  0  0  0  0
 27 45  1  0  0  0  0
M  END
>  <Mol_ID>
2643

>  <Formula>
C21H18F2N2O2

>  <MolWeight>
368.3766264

>  <Cat>
S7871

>  <Name>
LJI308

>  <Synonyms>
N/A

>  <Target>
S6 Kinase

>  <Form>
free base

>  <CAS>
1627709-94-7

>  <URL>
http://selleckchem.com/products/lji308.html

$$$$
