LLY-283
 OpenBabel08302521243D

 43 46  0  0  0  0  0  0  0  0999 V2000
   -0.5258    1.0073    0.1633 C   0  0  0  0  0  0  0  0  0  0  0  0
   -0.3938   -0.3671   -0.0177 C   0  0  0  0  0  0  0  0  0  0  0  0
    0.7636   -1.0510   -0.0664 N   0  0  0  0  0  0  0  0  0  0  0  0
    1.8241   -0.2264    0.0664 C   0  0  0  0  0  0  0  0  0  0  0  0
    1.8315    1.1047    0.2878 N   0  0  0  0  0  0  0  0  0  0  0  0
    0.6498    1.7436    0.3597 C   0  0  0  0  0  0  0  0  0  0  0  0
   -1.9149    1.3079    0.1122 C   0  0  0  0  0  0  0  0  0  0  0  0
   -2.5850    0.1244   -0.0959 C   0  0  0  0  0  0  0  0  0  0  0  0
   -1.6580   -0.8981   -0.1222 N   0  0  0  0  0  0  0  0  0  0  0  0
   -2.0273   -2.2997   -0.2045 C   0  0  2  0  0  0  0  0  0  0  0  0
   -1.5145   -3.0251    0.9359 O   0  0  0  0  0  0  0  0  0  0  0  0
   -1.3818   -4.4201    0.5436 C   0  0  1  0  0  0  0  0  0  0  0  0
   -1.7325   -4.4955   -0.9508 C   0  0  2  0  0  0  0  0  0  0  0  0
   -1.5823   -3.0612   -1.4458 C   0  0  1  0  0  0  0  0  0  0  0  0
    0.0365   -4.9210    0.8928 C   0  0  2  0  0  0  0  0  0  0  0  0
    0.9993   -4.1010    0.2236 O   0  0  0  0  0  0  0  0  0  0  0  0
    0.2341   -6.3959    0.5554 C   0  0  0  0  0  0  0  0  0  0  0  0
    1.2550   -6.8189   -0.3078 C   0  0  0  0  0  0  0  0  0  0  0  0
    1.3996   -8.1665   -0.6491 C   0  0  0  0  0  0  0  0  0  0  0  0
    0.5281   -9.1178   -0.1266 C   0  0  0  0  0  0  0  0  0  0  0  0
   -0.4777   -8.7228    0.7496 C   0  0  0  0  0  0  0  0  0  0  0  0
   -0.6196   -7.3765    1.0967 C   0  0  0  0  0  0  0  0  0  0  0  0
   -3.1161   -4.8778   -1.1507 O   0  0  0  0  0  0  0  0  0  0  0  0
   -2.4262   -2.8218   -2.5752 O   0  0  0  0  0  0  0  0  0  0  0  0
    0.6684    3.1056    0.6202 N   0  0  0  0  0  0  0  0  0  0  0  0
    2.8008   -0.6895   -0.0152 H   0  0  0  0  0  0  0  0  0  0  0  0
   -2.3710    2.2829    0.2106 H   0  0  0  0  0  0  0  0  0  0  0  0
   -3.6430   -0.0766   -0.2058 H   0  0  0  0  0  0  0  0  0  0  0  0
   -3.1226   -2.3312   -0.1246 H   0  0  0  0  0  0  0  0  0  0  0  0
   -2.1185   -4.9697    1.1406 H   0  0  0  0  0  0  0  0  0  0  0  0
   -1.1356   -5.2027   -1.5312 H   0  0  0  0  0  0  0  0  0  0  0  0
   -0.5451   -2.8459   -1.7185 H   0  0  0  0  0  0  0  0  0  0  0  0
    0.2184   -4.7918    1.9670 H   0  0  0  0  0  0  0  0  0  0  0  0
    0.8376   -3.1784    0.5149 H   0  0  0  0  0  0  0  0  0  0  0  0
    1.9494   -6.0959   -0.7340 H   0  0  0  0  0  0  0  0  0  0  0  0
    2.1935   -8.4696   -1.3279 H   0  0  0  0  0  0  0  0  0  0  0  0
    0.6388  -10.1644   -0.3991 H   0  0  0  0  0  0  0  0  0  0  0  0
   -1.1556   -9.4688    1.1630 H   0  0  0  0  0  0  0  0  0  0  0  0
   -1.4104   -7.1064    1.7927 H   0  0  0  0  0  0  0  0  0  0  0  0
   -3.6204   -4.7190   -0.3327 H   0  0  0  0  0  0  0  0  0  0  0  0
   -3.0628   -3.5680   -2.5957 H   0  0  0  0  0  0  0  0  0  0  0  0
   -0.1010    3.6314    0.2317 H   0  0  0  0  0  0  0  0  0  0  0  0
    1.5968    3.4917    0.4919 H   0  0  0  0  0  0  0  0  0  0  0  0
  1  2  1  0  0  0  0
  1  7  1  0  0  0  0
  2  3  2  0  0  0  0
  3  4  1  0  0  0  0
  4  5  2  0  0  0  0
  4 26  1  0  0  0  0
  5  6  1  0  0  0  0
  6  1  2  0  0  0  0
  6 25  1  0  0  0  0
  7  8  2  0  0  0  0
  7 27  1  0  0  0  0
  8  9  1  0  0  0  0
  8 28  1  0  0  0  0
  9  2  1  0  0  0  0
 10  9  1  0  0  0  0
 10 11  1  0  0  0  0
 10 29  1  1  0  0  0
 12 11  1  0  0  0  0
 12 13  1  0  0  0  0
 12 30  1  1  0  0  0
 12 15  1  0  0  0  0
 13 14  1  0  0  0  0
 13 23  1  0  0  0  0
 13 31  1  6  0  0  0
 14 10  1  0  0  0  0
 14 24  1  0  0  0  0
 14 32  1  6  0  0  0
 15 33  1  1  0  0  0
 15 17  1  0  0  0  0
 15 16  1  0  0  0  0
 16 34  1  0  0  0  0
 17 18  2  0  0  0  0
 18 19  1  0  0  0  0
 18 35  1  0  0  0  0
 19 20  2  0  0  0  0
 19 36  1  0  0  0  0
 20 21  1  0  0  0  0
 20 37  1  0  0  0  0
 21 22  2  0  0  0  0
 21 38  1  0  0  0  0
 22 17  1  0  0  0  0
 22 39  1  0  0  0  0
 23 40  1  0  0  0  0
 24 41  1  0  0  0  0
 25 42  1  0  0  0  0
 25 43  1  0  0  0  0
M  END
>  <Mol_ID>
5024

>  <Formula>
C17H18N4O4

>  <MolWeight>
342.34922

>  <Cat>
S8883

>  <Name>
LLY-283

>  <Synonyms>
N/A

>  <Target>
PRMT

>  <Form>
Free Base

>  <CAS>
2040291-27-6

>  <URL>
http://www.selleckchem.com/products/lly-283.html

$$$$
