LLY-283.cdx
 OpenBabel08302520433D

 43 46  0  0  0  0  0  0  0  0999 V2000
   -0.5511    1.0152    0.1721 C   0  0  0  0  0  0  0  0  0  0  0  0
   -0.4157   -0.3556   -0.0316 C   0  0  0  0  0  0  0  0  0  0  0  0
    0.7456   -1.0307   -0.1254 N   0  0  0  0  0  0  0  0  0  0  0  0
    1.8027   -0.2070    0.0136 C   0  0  0  0  0  0  0  0  0  0  0  0
    1.8101    1.1230    0.2455 N   0  0  0  0  0  0  0  0  0  0  0  0
    0.6285    1.7534    0.3380 C   0  0  0  0  0  0  0  0  0  0  0  0
   -1.9409    1.3092    0.1576 C   0  0  0  0  0  0  0  0  0  0  0  0
   -2.6113    0.1227   -0.0357 C   0  0  0  0  0  0  0  0  0  0  0  0
   -1.6804   -0.8945   -0.1000 N   0  0  0  0  0  0  0  0  0  0  0  0
   -2.0424   -2.2981   -0.1782 C   0  0  2  0  0  0  0  0  0  0  0  0
   -1.5425   -3.0124    0.9708 O   0  0  0  0  0  0  0  0  0  0  0  0
   -1.4051   -4.4053    0.5988 C   0  0  1  0  0  0  0  0  0  0  0  0
   -1.7448   -4.5004   -0.8998 C   0  0  2  0  0  0  0  0  0  0  0  0
   -1.5744   -3.0708   -1.4035 C   0  0  1  0  0  0  0  0  0  0  0  0
    0.0033   -4.9467    0.9304 C   0  0  2  0  0  0  0  0  0  0  0  0
    0.1110   -6.2979    0.4635 O   0  0  0  0  0  0  0  0  0  0  0  0
    0.3314   -4.9331    2.4129 C   0  0  0  0  0  0  0  0  0  0  0  0
   -0.4570   -5.6272    3.3471 C   0  0  0  0  0  0  0  0  0  0  0  0
   -0.1386   -5.6029    4.7065 C   0  0  0  0  0  0  0  0  0  0  0  0
    0.9781   -4.8983    5.1486 C   0  0  0  0  0  0  0  0  0  0  0  0
    1.7814   -4.2239    4.2315 C   0  0  0  0  0  0  0  0  0  0  0  0
    1.4618   -4.2422    2.8724 C   0  0  0  0  0  0  0  0  0  0  0  0
   -3.1315   -4.8576   -1.1242 O   0  0  0  0  0  0  0  0  0  0  0  0
   -2.3877   -2.8425   -2.5590 O   0  0  0  0  0  0  0  0  0  0  0  0
    0.6466    3.1201    0.5935 N   0  0  0  0  0  0  0  0  0  0  0  0
    2.7797   -0.6693   -0.0727 H   0  0  0  0  0  0  0  0  0  0  0  0
   -2.3996    2.2804    0.2792 H   0  0  0  0  0  0  0  0  0  0  0  0
   -3.6710   -0.0844   -0.1096 H   0  0  0  0  0  0  0  0  0  0  0  0
   -3.1391   -2.3335   -0.1146 H   0  0  0  0  0  0  0  0  0  0  0  0
   -2.1524   -4.9623    1.1754 H   0  0  0  0  0  0  0  0  0  0  0  0
   -1.1454   -5.2180   -1.4649 H   0  0  0  0  0  0  0  0  0  0  0  0
   -0.5277   -2.8673   -1.6504 H   0  0  0  0  0  0  0  0  0  0  0  0
    0.7531   -4.3597    0.3877 H   0  0  0  0  0  0  0  0  0  0  0  0
    0.7400   -6.7603    1.0472 H   0  0  0  0  0  0  0  0  0  0  0  0
   -1.3276   -6.1936    3.0241 H   0  0  0  0  0  0  0  0  0  0  0  0
   -0.7641   -6.1314    5.4218 H   0  0  0  0  0  0  0  0  0  0  0  0
    1.2225   -4.8725    6.2073 H   0  0  0  0  0  0  0  0  0  0  0  0
    2.6549   -3.6759    4.5753 H   0  0  0  0  0  0  0  0  0  0  0  0
    2.0995   -3.7028    2.1749 H   0  0  0  0  0  0  0  0  0  0  0  0
   -3.6127   -4.8340   -0.2775 H   0  0  0  0  0  0  0  0  0  0  0  0
   -3.0507   -3.5675   -2.5623 H   0  0  0  0  0  0  0  0  0  0  0  0
   -0.1256    3.6376    0.2019 H   0  0  0  0  0  0  0  0  0  0  0  0
    1.5733    3.5037    0.4454 H   0  0  0  0  0  0  0  0  0  0  0  0
  1  2  1  0  0  0  0
  1  7  1  0  0  0  0
  2  3  2  0  0  0  0
  3  4  1  0  0  0  0
  4  5  2  0  0  0  0
  4 26  1  0  0  0  0
  5  6  1  0  0  0  0
  6  1  2  0  0  0  0
  6 25  1  0  0  0  0
  7  8  2  0  0  0  0
  7 27  1  0  0  0  0
  8  9  1  0  0  0  0
  8 28  1  0  0  0  0
  9  2  1  0  0  0  0
 10  9  1  0  0  0  0
 10 11  1  0  0  0  0
 10 29  1  1  0  0  0
 12 11  1  0  0  0  0
 12 13  1  0  0  0  0
 12 30  1  1  0  0  0
 12 15  1  0  0  0  0
 13 14  1  0  0  0  0
 13 23  1  0  0  0  0
 13 31  1  6  0  0  0
 14 10  1  0  0  0  0
 14 24  1  0  0  0  0
 14 32  1  6  0  0  0
 15 33  1  6  0  0  0
 15 17  1  0  0  0  0
 15 16  1  0  0  0  0
 16 34  1  0  0  0  0
 17 18  2  0  0  0  0
 18 19  1  0  0  0  0
 18 35  1  0  0  0  0
 19 20  2  0  0  0  0
 19 36  1  0  0  0  0
 20 21  1  0  0  0  0
 20 37  1  0  0  0  0
 21 22  2  0  0  0  0
 21 38  1  0  0  0  0
 22 17  1  0  0  0  0
 22 39  1  0  0  0  0
 23 40  1  0  0  0  0
 24 41  1  0  0  0  0
 25 42  1  0  0  0  0
 25 43  1  0  0  0  0
M  END
>  <Mol_ID>
4190

>  <Formula>
C17H18N4O4

>  <MolWeight>
342.34922

>  <Cat>
S8479

>  <Name>
LLY-284

>  <Synonyms>
N/A

>  <Target>
PRMT

>  <Form>
free base

>  <CAS>
2226515-75-7

>  <URL>
https://www.selleckchem.com/products/lly-284.html

$$$$
