LM-3067 4¦Ì8C.cdx
 OpenBabel08302519583D

 23 24  0  0  0  0  0  0  0  0999 V2000
    2.5624   -0.4506    0.0020 C   0  0  0  0  0  0  0  0  0  0  0  0
    2.4809    0.9386    0.0421 C   0  0  0  0  0  0  0  0  0  0  0  0
    1.2305    1.5654    0.0426 C   0  0  0  0  0  0  0  0  0  0  0  0
    0.0423    0.8207    0.0040 C   0  0  0  0  0  0  0  0  0  0  0  0
    0.1529   -0.5788   -0.0248 C   0  0  0  0  0  0  0  0  0  0  0  0
    1.4001   -1.2265   -0.0293 C   0  0  0  0  0  0  0  0  0  0  0  0
   -1.2992    1.4306   -0.0126 C   0  0  0  0  0  0  0  0  0  0  0  0
   -2.3703    0.6184   -0.0215 C   0  0  0  0  0  0  0  0  0  0  0  0
   -2.2852   -0.8463   -0.0091 C   0  0  0  0  0  0  0  0  0  0  0  0
   -1.0131   -1.3773   -0.0393 O   0  0  0  0  0  0  0  0  0  0  0  0
    3.7924   -1.0480   -0.0036 O   0  0  0  0  0  0  0  0  0  0  0  0
    1.5221   -2.7047   -0.0695 C   0  0  0  0  0  0  0  0  0  0  0  0
    0.5702   -3.4729   -0.1003 O   0  0  0  0  0  0  0  0  0  0  0  0
   -3.2999   -1.5320    0.0207 O   0  0  0  0  0  0  0  0  0  0  0  0
   -1.5125    2.9170   -0.0254 C   0  0  0  0  0  0  0  0  0  0  0  0
    3.3744    1.5565    0.0721 H   0  0  0  0  0  0  0  0  0  0  0  0
    1.2257    2.6503    0.0756 H   0  0  0  0  0  0  0  0  0  0  0  0
   -3.3825    1.0058   -0.0358 H   0  0  0  0  0  0  0  0  0  0  0  0
    4.4882   -0.3676    0.0181 H   0  0  0  0  0  0  0  0  0  0  0  0
    2.5485   -3.1094   -0.0716 H   0  0  0  0  0  0  0  0  0  0  0  0
   -2.0618    3.2130   -0.9262 H   0  0  0  0  0  0  0  0  0  0  0  0
   -2.0926    3.2238    0.8521 H   0  0  0  0  0  0  0  0  0  0  0  0
   -0.5952    3.5057   -0.0140 H   0  0  0  0  0  0  0  0  0  0  0  0
  1  2  2  0  0  0  0
  1 11  1  0  0  0  0
  2  3  1  0  0  0  0
  2 16  1  0  0  0  0
  3  4  2  0  0  0  0
  3 17  1  0  0  0  0
  4  5  1  0  0  0  0
  4  7  1  0  0  0  0
  5  6  2  0  0  0  0
  6  1  1  0  0  0  0
  6 12  1  0  0  0  0
  7  8  2  0  0  0  0
  7 15  1  0  0  0  0
  8  9  1  0  0  0  0
  8 18  1  0  0  0  0
  9 10  1  0  0  0  0
  9 14  2  0  0  0  0
 10  5  1  0  0  0  0
 11 19  1  0  0  0  0
 12 13  2  0  0  0  0
 12 20  1  0  0  0  0
 15 21  1  0  0  0  0
 15 22  1  0  0  0  0
 15 23  1  0  0  0  0
M  END
>  <Mol_ID>
2345

>  <Formula>
C11H8O4

>  <MolWeight>
204.17882

>  <Cat>
S7272

>  <Name>
4¦Ì8C

>  <Synonyms>
IRE1 Inhibitor III

>  <Target>
IRE1

>  <Form>
free base

>  <CAS>
14003-96-4

>  <URL>
http://selleckchem.com/products/4u8c.html

$$$$
