LM-3086.cdx
 OpenBabel08302519583D

 32 34  0  0  0  0  0  0  0  0999 V2000
   -0.3155   -0.9344   -1.8833 C   0  0  0  0  0  0  0  0  0  0  0  0
   -1.1750   -0.0087   -1.3863 N   0  0  0  0  0  0  0  0  0  0  0  0
   -0.6584    0.9095   -0.5652 C   0  0  0  0  0  0  0  0  0  0  0  0
    0.6768    0.9471   -0.1743 C   0  0  0  0  0  0  0  0  0  0  0  0
    1.5385   -0.0264   -0.6790 C   0  0  0  0  0  0  0  0  0  0  0  0
    1.0370   -1.0004   -1.5428 C   0  0  0  0  0  0  0  0  0  0  0  0
    2.9637    0.0518   -0.3182 C   0  0  0  0  0  0  0  0  0  0  0  0
    3.7191   -1.2534   -0.2666 C   0  0  0  0  0  0  0  0  0  0  0  0
    5.0637   -1.2406   -0.2976 C   0  0  0  0  0  0  0  0  0  0  0  0
    5.9177   -2.4032    0.0310 C   0  0  0  0  0  0  0  0  0  0  0  0
    3.4935    1.1230   -0.0173 O   0  0  0  0  0  0  0  0  0  0  0  0
    7.2117   -2.1562    0.4492 C   0  0  0  0  0  0  0  0  0  0  0  0
    7.7572   -2.9830    1.4226 C   0  0  0  0  0  0  0  0  0  0  0  0
    6.9545   -4.0022    1.9508 C   0  0  0  0  0  0  0  0  0  0  0  0
    5.8388   -4.3806    1.1959 C   0  0  0  0  0  0  0  0  0  0  0  0
    5.3192   -3.5998    0.2328 N   0  0  0  0  0  0  0  0  0  0  0  0
    7.1776   -4.5836    3.2002 C   0  0  0  0  0  0  0  0  0  0  0  0
    6.2234   -5.4619    3.7348 C   0  0  0  0  0  0  0  0  0  0  0  0
    5.2423   -5.9690    2.9023 C   0  0  0  0  0  0  0  0  0  0  0  0
    5.2217   -5.5674    1.5734 C   0  0  0  0  0  0  0  0  0  0  0  0
   -0.7607   -1.6589   -2.5711 H   0  0  0  0  0  0  0  0  0  0  0  0
   -1.3564    1.6490   -0.1728 H   0  0  0  0  0  0  0  0  0  0  0  0
    1.0257    1.6997    0.5234 H   0  0  0  0  0  0  0  0  0  0  0  0
    1.6571   -1.7504   -2.0010 H   0  0  0  0  0  0  0  0  0  0  0  0
    3.1611   -2.1801   -0.1173 H   0  0  0  0  0  0  0  0  0  0  0  0
    5.5781   -0.2825   -0.3787 H   0  0  0  0  0  0  0  0  0  0  0  0
    7.7413   -1.2537    0.1578 H   0  0  0  0  0  0  0  0  0  0  0  0
    8.7243   -2.7507    1.8529 H   0  0  0  0  0  0  0  0  0  0  0  0
    8.0177   -4.2829    3.8154 H   0  0  0  0  0  0  0  0  0  0  0  0
    6.2854   -5.7885    4.7725 H   0  0  0  0  0  0  0  0  0  0  0  0
    4.5203   -6.6989    3.2608 H   0  0  0  0  0  0  0  0  0  0  0  0
    4.7817   -6.1915    0.8158 H   0  0  0  0  0  0  0  0  0  0  0  0
  1  2  2  0  0  0  0
  1 21  1  0  0  0  0
  2  3  1  0  0  0  0
  3  4  2  0  0  0  0
  3 22  1  0  0  0  0
  4  5  1  0  0  0  0
  4 23  1  0  0  0  0
  5  6  2  0  0  0  0
  5  7  1  0  0  0  0
  6  1  1  0  0  0  0
  6 24  1  0  0  0  0
  7  8  1  0  0  0  0
  7 11  2  0  0  0  0
  8  9  2  0  0  0  0
  8 25  1  0  0  0  0
  9 10  1  0  0  0  0
  9 26  1  0  0  0  0
 10 12  2  0  0  0  0
 12 13  1  0  0  0  0
 12 27  1  0  0  0  0
 13 14  2  0  0  0  0
 13 28  1  0  0  0  0
 14 15  1  0  0  0  0
 14 17  1  0  0  0  0
 15 16  2  0  0  0  0
 16 10  1  0  0  0  0
 17 18  2  0  0  0  0
 17 29  1  0  0  0  0
 18 19  1  0  0  0  0
 18 30  1  0  0  0  0
 19 20  2  0  0  0  0
 19 31  1  0  0  0  0
 20 15  1  0  0  0  0
 20 32  1  0  0  0  0
M  END
>  <Mol_ID>
2403

>  <Formula>
C17H12N2O

>  <MolWeight>
260.28998

>  <Cat>
S7289

>  <Name>
PFK15

>  <Synonyms>
PFK-015

>  <Target>
Autophagy,PFKFB

>  <Form>
free base

>  <CAS>
4382-63-2

>  <URL>
http://selleckchem.com/products/pfk15.html

$$$$
