LM-3228 AR-A014418.cdx
 OpenBabel08302519583D

 33 34  0  0  0  0  0  0  0  0999 V2000
    1.2536    0.6695   -0.0703 C   0  0  0  0  0  0  0  0  0  0  0  0
    0.0630    1.1935   -0.5119 C   0  0  0  0  0  0  0  0  0  0  0  0
   -1.0840   -0.0273   -0.7393 S   0  0  0  0  0  0  0  0  0  0  0  0
    0.0690   -1.1886   -0.2410 C   0  0  0  0  0  0  0  0  0  0  0  0
    1.2635   -0.7190    0.0509 N   0  0  0  0  0  0  0  0  0  0  0  0
   -0.2542    2.5636   -0.7769 N   0  3  0  0  0  0  0  0  0  0  0  0
    0.6515    3.3835   -0.5646 O   0  0  0  0  0  0  0  0  0  0  0  0
   -1.3837    2.8342   -1.1951 O   0  5  0  0  0  0  0  0  0  0  0  0
   -0.2202   -2.5323   -0.2231 N   0  0  0  0  0  0  0  0  0  0  0  0
   -1.4912   -3.0551   -0.1793 C   0  0  0  0  0  0  0  0  0  0  0  0
   -1.5105   -4.4274   -0.1379 N   0  0  0  0  0  0  0  0  0  0  0  0
   -2.5345   -2.4134   -0.1663 O   0  0  0  0  0  0  0  0  0  0  0  0
   -2.7774   -5.1361   -0.0892 C   0  0  0  0  0  0  0  0  0  0  0  0
   -2.9452   -6.0539   -1.2694 C   0  0  0  0  0  0  0  0  0  0  0  0
   -3.1467   -7.4240   -1.0713 C   0  0  0  0  0  0  0  0  0  0  0  0
   -3.3279   -8.2835   -2.1565 C   0  0  0  0  0  0  0  0  0  0  0  0
   -3.3139   -7.7863   -3.4606 C   0  0  0  0  0  0  0  0  0  0  0  0
   -3.1399   -6.4161   -3.6638 C   0  0  0  0  0  0  0  0  0  0  0  0
   -2.9578   -5.5532   -2.5791 C   0  0  0  0  0  0  0  0  0  0  0  0
   -3.4527   -8.5320   -4.5990 O   0  0  0  0  0  0  0  0  0  0  0  0
   -3.6192   -9.9341   -4.4218 C   0  0  0  0  0  0  0  0  0  0  0  0
    2.1489    1.2299    0.1680 H   0  0  0  0  0  0  0  0  0  0  0  0
    0.5727   -3.1364   -0.0809 H   0  0  0  0  0  0  0  0  0  0  0  0
   -0.6637   -4.9619   -0.0638 H   0  0  0  0  0  0  0  0  0  0  0  0
   -2.7796   -5.7038    0.8477 H   0  0  0  0  0  0  0  0  0  0  0  0
   -3.6298   -4.4509   -0.0487 H   0  0  0  0  0  0  0  0  0  0  0  0
   -3.1710   -7.8378   -0.0653 H   0  0  0  0  0  0  0  0  0  0  0  0
   -3.4800   -9.3366   -1.9476 H   0  0  0  0  0  0  0  0  0  0  0  0
   -3.1492   -6.0148   -4.6751 H   0  0  0  0  0  0  0  0  0  0  0  0
   -2.8314   -4.4874   -2.7608 H   0  0  0  0  0  0  0  0  0  0  0  0
   -2.8028  -10.3669   -3.8331 H   0  0  0  0  0  0  0  0  0  0  0  0
   -4.5913  -10.1510   -3.9664 H   0  0  0  0  0  0  0  0  0  0  0  0
   -3.5943  -10.4059   -5.4082 H   0  0  0  0  0  0  0  0  0  0  0  0
  1  2  2  0  0  0  0
  1 22  1  0  0  0  0
  2  3  1  0  0  0  0
  2  6  1  0  0  0  0
  3  4  1  0  0  0  0
  4  5  2  0  0  0  0
  4  9  1  0  0  0  0
  5  1  1  0  0  0  0
  6  7  2  0  0  0  0
  6  8  1  0  0  0  0
  9 10  1  0  0  0  0
  9 23  1  0  0  0  0
 10 11  1  0  0  0  0
 10 12  2  0  0  0  0
 11 13  1  0  0  0  0
 11 24  1  0  0  0  0
 13 14  1  0  0  0  0
 13 25  1  0  0  0  0
 13 26  1  0  0  0  0
 14 15  2  0  0  0  0
 15 16  1  0  0  0  0
 15 27  1  0  0  0  0
 16 17  2  0  0  0  0
 16 28  1  0  0  0  0
 17 18  1  0  0  0  0
 17 20  1  0  0  0  0
 18 19  2  0  0  0  0
 18 29  1  0  0  0  0
 19 14  1  0  0  0  0
 19 30  1  0  0  0  0
 20 21  1  0  0  0  0
 21 31  1  0  0  0  0
 21 32  1  0  0  0  0
 21 33  1  0  0  0  0
M  CHG  2   6   1   8  -1
M  END
>  <Mol_ID>
2351

>  <Formula>
C12H12N4O4S

>  <MolWeight>
308.31308

>  <Cat>
S7435

>  <Name>
AR-A014418

>  <Synonyms>
GSK-3¦Â Inhibitor VIII

>  <Target>
GSK-3

>  <Form>
free base

>  <CAS>
487021-52-3

>  <URL>
http://selleckchem.com/products/A014418.html

$$$$
