LM-3334 VX-509.cdx
 OpenBabel08302519593D

 47 49  0  0  0  0  0  0  0  0999 V2000
    6.9615   -3.4607    0.9647 C   0  0  0  0  0  0  0  0  0  0  0  0
    6.2708   -4.4607    0.2949 C   0  0  0  0  0  0  0  0  0  0  0  0
    5.8206   -4.2177   -1.0018 C   0  0  0  0  0  0  0  0  0  0  0  0
    6.0805   -2.9570   -1.5640 C   0  0  0  0  0  0  0  0  0  0  0  0
    6.7911   -2.0551   -0.7817 C   0  0  0  0  0  0  0  0  0  0  0  0
    7.2565   -2.2344    0.4697 N   0  0  0  0  0  0  0  0  0  0  0  0
    5.8076   -2.3130   -2.8109 C   0  0  0  0  0  0  0  0  0  0  0  0
    6.3768   -1.0494   -2.7414 C   0  0  0  0  0  0  0  0  0  0  0  0
    6.9597   -0.9067   -1.5079 N   0  0  0  0  0  0  0  0  0  0  0  0
    5.0845   -2.8139   -3.9683 C   0  0  0  0  0  0  0  0  0  0  0  0
    5.4420   -2.3488   -5.1758 N   0  0  0  0  0  0  0  0  0  0  0  0
    4.7642   -2.8547   -6.2151 C   0  0  0  0  0  0  0  0  0  0  0  0
    3.7395   -3.7644   -6.0818 C   0  0  0  0  0  0  0  0  0  0  0  0
    3.3902   -4.1298   -4.7957 C   0  0  0  0  0  0  0  0  0  0  0  0
    4.0780   -3.6799   -3.7398 N   0  0  0  0  0  0  0  0  0  0  0  0
    2.2669   -4.9400   -4.6083 N   0  0  0  0  0  0  0  0  0  0  0  0
    1.5111   -4.9044   -3.3177 C   0  0  2  0  0  0  0  0  0  0  0  0
    1.3902   -3.4678   -2.7007 C   0  0  0  0  0  0  0  0  0  0  0  0
    2.1944   -5.8451   -2.3079 C   0  0  0  0  0  0  0  0  0  0  0  0
    0.0811   -5.4759   -3.5567 C   0  0  0  0  0  0  0  0  0  0  0  0
   -0.8065   -4.7369   -4.5537 C   0  0  0  0  0  0  0  0  0  0  0  0
    1.2006   -2.4500   -3.6205 N   0  0  0  0  0  0  0  0  0  0  0  0
    1.3862   -3.2461   -1.4908 O   0  0  0  0  0  0  0  0  0  0  0  0
    1.4451   -1.0592   -3.2336 C   0  0  0  0  0  0  0  0  0  0  0  0
    1.5138   -0.0862   -4.4128 C   0  0  0  0  0  0  0  0  0  0  0  0
    1.5042   -0.7572   -5.5944 F   0  0  0  0  0  0  0  0  0  0  0  0
    0.4613    0.7601   -4.4228 F   0  0  0  0  0  0  0  0  0  0  0  0
    2.6424    0.6553   -4.3845 F   0  0  0  0  0  0  0  0  0  0  0  0
    7.3190   -3.6340    1.9767 H   0  0  0  0  0  0  0  0  0  0  0  0
    6.0866   -5.4181    0.7707 H   0  0  0  0  0  0  0  0  0  0  0  0
    5.2895   -4.9799   -1.5588 H   0  0  0  0  0  0  0  0  0  0  0  0
    6.4078   -0.2426   -3.4624 H   0  0  0  0  0  0  0  0  0  0  0  0
    7.4510   -0.0973   -1.1630 H   0  0  0  0  0  0  0  0  0  0  0  0
    5.0650   -2.4857   -7.1914 H   0  0  0  0  0  0  0  0  0  0  0  0
    3.2039   -4.1208   -6.9513 H   0  0  0  0  0  0  0  0  0  0  0  0
    1.6837   -5.0220   -5.4303 H   0  0  0  0  0  0  0  0  0  0  0  0
    1.6607   -5.8589   -1.3499 H   0  0  0  0  0  0  0  0  0  0  0  0
    2.2328   -6.8745   -2.6828 H   0  0  0  0  0  0  0  0  0  0  0  0
    3.2197   -5.5393   -2.0957 H   0  0  0  0  0  0  0  0  0  0  0  0
    0.1630   -6.5160   -3.9006 H   0  0  0  0  0  0  0  0  0  0  0  0
   -0.4562   -5.5071   -2.5993 H   0  0  0  0  0  0  0  0  0  0  0  0
   -0.3711   -4.7141   -5.5560 H   0  0  0  0  0  0  0  0  0  0  0  0
   -1.7719   -5.2492   -4.6311 H   0  0  0  0  0  0  0  0  0  0  0  0
   -1.0133   -3.7122   -4.2361 H   0  0  0  0  0  0  0  0  0  0  0  0
    1.3950   -2.6891   -4.5856 H   0  0  0  0  0  0  0  0  0  0  0  0
    0.6485   -0.7658   -2.5420 H   0  0  0  0  0  0  0  0  0  0  0  0
    2.3890   -1.0275   -2.6769 H   0  0  0  0  0  0  0  0  0  0  0  0
  1  2  2  0  0  0  0
  1 29  1  0  0  0  0
  2  3  1  0  0  0  0
  2 30  1  0  0  0  0
  3  4  2  0  0  0  0
  3 31  1  0  0  0  0
  4  5  1  0  0  0  0
  4  7  1  0  0  0  0
  5  6  2  0  0  0  0
  6  1  1  0  0  0  0
  7  8  2  0  0  0  0
  7 10  1  0  0  0  0
  8  9  1  0  0  0  0
  8 32  1  0  0  0  0
  9  5  1  0  0  0  0
  9 33  1  0  0  0  0
 10 11  2  0  0  0  0
 11 12  1  0  0  0  0
 12 13  2  0  0  0  0
 12 34  1  0  0  0  0
 13 14  1  0  0  0  0
 13 35  1  0  0  0  0
 14 15  2  0  0  0  0
 14 16  1  0  0  0  0
 15 10  1  0  0  0  0
 16 36  1  0  0  0  0
 17 19  1  0  0  0  0
 17 20  1  0  0  0  0
 17 18  1  1  0  0  0
 17 16  1  0  0  0  0
 18 22  1  0  0  0  0
 18 23  2  0  0  0  0
 19 37  1  0  0  0  0
 19 38  1  0  0  0  0
 19 39  1  0  0  0  0
 20 21  1  0  0  0  0
 20 40  1  0  0  0  0
 20 41  1  0  0  0  0
 21 42  1  0  0  0  0
 21 43  1  0  0  0  0
 21 44  1  0  0  0  0
 22 24  1  0  0  0  0
 22 45  1  0  0  0  0
 24 25  1  0  0  0  0
 24 46  1  0  0  0  0
 24 47  1  0  0  0  0
 25 26  1  0  0  0  0
 25 27  1  0  0  0  0
 25 28  1  0  0  0  0
M  END
>  <Mol_ID>
2636

>  <Formula>
C18H19F3N6O

>  <MolWeight>
392.3782696

>  <Cat>
S7541

>  <Name>
Decernotinib (VX-509)

>  <Synonyms>
N/A

>  <Target>
JAK

>  <Form>
free base

>  <CAS>
944842-54-0

>  <URL>
http://selleckchem.com/products/decernotinib-vx-509.html

$$$$
