LM-3243 CRT0044876.cdx
 OpenBabel08302519583D

 21 22  0  0  0  0  0  0  0  0999 V2000
   -0.2657    0.6261   -0.0069 C   0  0  0  0  0  0  0  0  0  0  0  0
   -0.2270   -0.7670   -0.0004 C   0  0  0  0  0  0  0  0  0  0  0  0
    0.9119    1.4048   -0.0101 C   0  0  0  0  0  0  0  0  0  0  0  0
   -1.5998    0.9805   -0.0134 N   0  0  0  0  0  0  0  0  0  0  0  0
   -1.5704   -1.2308   -0.0133 C   0  0  0  0  0  0  0  0  0  0  0  0
    1.0194   -1.4211    0.0068 C   0  0  0  0  0  0  0  0  0  0  0  0
    2.1454    0.7251   -0.0197 C   0  0  0  0  0  0  0  0  0  0  0  0
    0.9119    2.8725   -0.0106 N   0  3  0  0  0  0  0  0  0  0  0  0
   -2.4156   -0.1353   -0.0502 C   0  0  0  0  0  0  0  0  0  0  0  0
    2.1959   -0.6674   -0.0103 C   0  0  0  0  0  0  0  0  0  0  0  0
   -0.1927    3.4368   -0.0073 O   0  0  0  0  0  0  0  0  0  0  0  0
    2.0027    3.4574   -0.0133 O   0  5  0  0  0  0  0  0  0  0  0  0
   -3.8538   -0.0086   -0.1166 C   0  0  0  0  0  0  0  0  0  0  0  0
   -4.4954   -1.1984   -0.1556 O   0  0  0  0  0  0  0  0  0  0  0  0
   -4.4520    1.0557   -0.1455 O   0  0  0  0  0  0  0  0  0  0  0  0
   -1.9448    1.9368   -0.0166 H   0  0  0  0  0  0  0  0  0  0  0  0
   -1.8545   -2.2748   -0.0159 H   0  0  0  0  0  0  0  0  0  0  0  0
    1.0690   -2.5069    0.0145 H   0  0  0  0  0  0  0  0  0  0  0  0
    3.0850    1.2764   -0.0362 H   0  0  0  0  0  0  0  0  0  0  0  0
    3.1580   -1.1754   -0.0190 H   0  0  0  0  0  0  0  0  0  0  0  0
   -3.9081   -1.9716   -0.1396 H   0  0  0  0  0  0  0  0  0  0  0  0
  1  2  1  0  0  0  0
  1  3  2  0  0  0  0
  1  4  1  0  0  0  0
  2  5  1  0  0  0  0
  2  6  2  0  0  0  0
  3  7  1  0  0  0  0
  3  8  1  0  0  0  0
  4  9  1  0  0  0  0
  4 16  1  0  0  0  0
  5  9  2  0  0  0  0
  5 17  1  0  0  0  0
  6 10  1  0  0  0  0
  6 18  1  0  0  0  0
  7 10  2  0  0  0  0
  7 19  1  0  0  0  0
  8 11  2  0  0  0  0
  8 12  1  0  0  0  0
  9 13  1  0  0  0  0
 10 20  1  0  0  0  0
 13 14  1  0  0  0  0
 13 15  2  0  0  0  0
 14 21  1  0  0  0  0
M  CHG  2   8   1  12  -1
M  END
>  <Mol_ID>
2373

>  <Formula>
C9H6N2O4

>  <MolWeight>
206.15494

>  <Cat>
S7449

>  <Name>
CRT0044876

>  <Synonyms>
NSC 69877,7-NO2-ICA

>  <Target>
DNA/RNA Synthesis

>  <Form>
free base

>  <CAS>
6960-45-8

>  <URL>
http://selleckchem.com/products/crt0044876.html

$$$$
