LM-3096 IWP L6.cdx
 OpenBabel08302519583D

 53 57  0  0  0  0  0  0  0  0999 V2000
    0.8176   -1.0034    0.8060 C   0  0  0  0  0  0  0  0  0  0  0  0
    0.3529   -1.4638   -0.3455 C   0  0  0  0  0  0  0  0  0  0  0  0
    0.8397   -0.8584   -1.5929 C   0  0  0  0  0  0  0  0  0  0  0  0
    1.6282    0.3014   -1.4150 N   0  0  0  0  0  0  0  0  0  0  0  0
    2.1927    0.5327   -0.1539 C   0  0  0  0  0  0  0  0  0  0  0  0
    1.7900   -0.0648    0.9234 N   0  0  0  0  0  0  0  0  0  0  0  0
    3.3906    1.7610    0.1836 S   0  0  0  0  0  0  0  0  0  0  0  0
    1.6224    1.2178   -2.5272 C   0  0  0  0  0  0  0  0  0  0  0  0
    0.5553   -1.3564   -2.6796 O   0  0  0  0  0  0  0  0  0  0  0  0
    0.1710   -1.5946    2.0210 C   0  0  0  0  0  0  0  0  0  0  0  0
   -1.0751   -2.3546    1.5527 C   0  0  0  0  0  0  0  0  0  0  0  0
   -0.8588   -2.6681   -0.2359 S   0  0  0  0  0  0  0  0  0  0  0  0
    4.9068    0.8436    0.5800 C   0  0  0  0  0  0  0  0  0  0  0  0
    5.0219   -0.1081    1.7700 C   0  0  0  0  0  0  0  0  0  0  0  0
    3.8879   -0.5767    2.3588 N   0  0  0  0  0  0  0  0  0  0  0  0
    6.1482   -0.4586    2.1381 O   0  0  0  0  0  0  0  0  0  0  0  0
    3.8136   -1.6110    3.2936 C   0  0  0  0  0  0  0  0  0  0  0  0
    2.8833   -1.4326    4.2459 N   0  0  0  0  0  0  0  0  0  0  0  0
    2.8046   -2.3796    5.2128 C   0  0  0  0  0  0  0  0  0  0  0  0
    3.5203   -3.5784    5.2395 C   0  0  0  0  0  0  0  0  0  0  0  0
    4.3791   -3.7791    4.1502 C   0  0  0  0  0  0  0  0  0  0  0  0
    4.5604   -2.7772    3.1892 C   0  0  0  0  0  0  0  0  0  0  0  0
    3.4363   -4.5013    6.3953 C   0  0  0  0  0  0  0  0  0  0  0  0
    2.2656   -4.6076    7.1720 C   0  0  0  0  0  0  0  0  0  0  0  0
    2.2441   -5.3307    8.3695 C   0  0  0  0  0  0  0  0  0  0  0  0
    3.3867   -5.9928    8.8037 C   0  0  0  0  0  0  0  0  0  0  0  0
    4.5385   -5.9592    8.0252 C   0  0  0  0  0  0  0  0  0  0  0  0
    4.5607   -5.2251    6.8341 C   0  0  0  0  0  0  0  0  0  0  0  0
    0.3880    1.4554   -3.1819 C   0  0  0  0  0  0  0  0  0  0  0  0
    0.2886    2.2571   -4.3192 C   0  0  0  0  0  0  0  0  0  0  0  0
    1.4310    2.8490   -4.8358 C   0  0  0  0  0  0  0  0  0  0  0  0
    2.6550    2.6482   -4.2003 C   0  0  0  0  0  0  0  0  0  0  0  0
    2.7564    1.8428   -3.0482 C   0  0  0  0  0  0  0  0  0  0  0  0
    0.8646   -2.2758    2.5227 H   0  0  0  0  0  0  0  0  0  0  0  0
   -0.1147   -0.8147    2.7368 H   0  0  0  0  0  0  0  0  0  0  0  0
   -1.2089   -3.2900    2.1027 H   0  0  0  0  0  0  0  0  0  0  0  0
   -1.9721   -1.7401    1.6835 H   0  0  0  0  0  0  0  0  0  0  0  0
    5.2416    0.2922   -0.3033 H   0  0  0  0  0  0  0  0  0  0  0  0
    5.6555    1.6241    0.7745 H   0  0  0  0  0  0  0  0  0  0  0  0
    3.0483   -0.0035    2.3125 H   0  0  0  0  0  0  0  0  0  0  0  0
    2.1400   -2.1039    6.0272 H   0  0  0  0  0  0  0  0  0  0  0  0
    4.9357   -4.7065    4.0435 H   0  0  0  0  0  0  0  0  0  0  0  0
    5.2446   -2.9315    2.3647 H   0  0  0  0  0  0  0  0  0  0  0  0
    1.3498   -4.1037    6.8701 H   0  0  0  0  0  0  0  0  0  0  0  0
    1.3390   -5.3568    8.9712 H   0  0  0  0  0  0  0  0  0  0  0  0
    3.3816   -6.5291    9.7490 H   0  0  0  0  0  0  0  0  0  0  0  0
    5.4338   -6.4791    8.3568 H   0  0  0  0  0  0  0  0  0  0  0  0
    5.4956   -5.1885    6.2790 H   0  0  0  0  0  0  0  0  0  0  0  0
   -0.5311    0.9962   -2.8127 H   0  0  0  0  0  0  0  0  0  0  0  0
   -0.6753    2.3973   -4.8037 H   0  0  0  0  0  0  0  0  0  0  0  0
    1.3654    3.4532   -5.7379 H   0  0  0  0  0  0  0  0  0  0  0  0
    3.5491    3.1034   -4.6227 H   0  0  0  0  0  0  0  0  0  0  0  0
    3.7422    1.6739   -2.6353 H   0  0  0  0  0  0  0  0  0  0  0  0
  1  2  2  0  0  0  0
  1 10  1  0  0  0  0
  2  3  1  0  0  0  0
  3  4  1  0  0  0  0
  3  9  2  0  0  0  0
  4  5  1  0  0  0  0
  4  8  1  0  0  0  0
  5  6  2  0  0  0  0
  5  7  1  0  0  0  0
  6  1  1  0  0  0  0
  7 13  1  0  0  0  0
  8 29  2  0  0  0  0
 10 11  1  0  0  0  0
 10 34  1  0  0  0  0
 10 35  1  0  0  0  0
 11 12  1  0  0  0  0
 11 36  1  0  0  0  0
 11 37  1  0  0  0  0
 12  2  1  0  0  0  0
 13 14  1  0  0  0  0
 13 38  1  0  0  0  0
 13 39  1  0  0  0  0
 14 15  1  0  0  0  0
 14 16  2  0  0  0  0
 15 17  1  0  0  0  0
 15 40  1  0  0  0  0
 17 18  2  0  0  0  0
 18 19  1  0  0  0  0
 19 20  2  0  0  0  0
 19 41  1  0  0  0  0
 20 21  1  0  0  0  0
 20 23  1  0  0  0  0
 21 22  2  0  0  0  0
 21 42  1  0  0  0  0
 22 17  1  0  0  0  0
 22 43  1  0  0  0  0
 23 24  2  0  0  0  0
 24 25  1  0  0  0  0
 24 44  1  0  0  0  0
 25 26  2  0  0  0  0
 25 45  1  0  0  0  0
 26 27  1  0  0  0  0
 26 46  1  0  0  0  0
 27 28  2  0  0  0  0
 27 47  1  0  0  0  0
 28 23  1  0  0  0  0
 28 48  1  0  0  0  0
 29 30  1  0  0  0  0
 29 49  1  0  0  0  0
 30 31  2  0  0  0  0
 30 50  1  0  0  0  0
 31 32  1  0  0  0  0
 31 51  1  0  0  0  0
 32 33  2  0  0  0  0
 32 52  1  0  0  0  0
 33  8  1  0  0  0  0
 33 53  1  0  0  0  0
M  END
>  <Mol_ID>
2348

>  <Formula>
C25H20N4O2S2

>  <MolWeight>
472.5819

>  <Cat>
S7301

>  <Name>
IWP-L6

>  <Synonyms>
Porcn Inhibitor III

>  <Target>
PORCN

>  <Form>
free base

>  <CAS>
1427782-89-5

>  <URL>
http://selleckchem.com/products/iwp-l6.html

$$$$
