LM-3151 K 02288.cdx
 OpenBabel08302519583D

 46 48  0  0  0  0  0  0  0  0999 V2000
    0.3506    1.1967    0.0445 N   0  0  0  0  0  0  0  0  0  0  0  0
   -1.0007    1.2342   -0.0013 C   0  0  0  0  0  0  0  0  0  0  0  0
   -1.8379    0.1231    0.0093 C   0  0  0  0  0  0  0  0  0  0  0  0
   -1.1814   -1.1093    0.1191 C   0  0  0  0  0  0  0  0  0  0  0  0
    0.2245   -1.2226    0.1688 C   0  0  0  0  0  0  0  0  0  0  0  0
    0.9390   -0.0130    0.1119 C   0  0  0  0  0  0  0  0  0  0  0  0
   -3.3062    0.2278   -0.0964 C   0  0  0  0  0  0  0  0  0  0  0  0
   -3.9236    1.2705   -0.8192 C   0  0  0  0  0  0  0  0  0  0  0  0
   -5.3179    1.3649   -0.9178 C   0  0  0  0  0  0  0  0  0  0  0  0
   -6.1326    0.4086   -0.3226 C   0  0  0  0  0  0  0  0  0  0  0  0
   -5.5444   -0.6369    0.3734 C   0  0  0  0  0  0  0  0  0  0  0  0
   -4.1596   -0.7309    0.4917 C   0  0  0  0  0  0  0  0  0  0  0  0
    2.3313    0.0495    0.1355 N   0  0  0  0  0  0  0  0  0  0  0  0
    0.8628   -2.5623    0.2168 C   0  0  0  0  0  0  0  0  0  0  0  0
   -6.2932   -1.6133    0.9624 O   0  0  0  0  0  0  0  0  0  0  0  0
    0.3095   -3.6549   -0.4656 C   0  0  0  0  0  0  0  0  0  0  0  0
    0.9279   -4.9149   -0.4957 C   0  0  0  0  0  0  0  0  0  0  0  0
    2.1760   -5.1053    0.1448 C   0  0  0  0  0  0  0  0  0  0  0  0
    2.7252   -4.0346    0.8728 C   0  0  0  0  0  0  0  0  0  0  0  0
    2.0449   -2.8060    0.9190 C   0  0  0  0  0  0  0  0  0  0  0  0
    3.9130   -3.9353    1.5465 O   0  0  0  0  0  0  0  0  0  0  0  0
    4.7286   -5.0665    1.7711 C   0  0  0  0  0  0  0  0  0  0  0  0
    2.8848   -6.2799    0.1068 O   0  0  0  0  0  0  0  0  0  0  0  0
    2.7526   -7.0735   -1.0716 C   0  0  0  0  0  0  0  0  0  0  0  0
    0.3066   -5.9899   -1.0919 O   0  0  0  0  0  0  0  0  0  0  0  0
   -0.5895   -5.6980   -2.1642 C   0  0  0  0  0  0  0  0  0  0  0  0
   -1.4020    2.2432   -0.0438 H   0  0  0  0  0  0  0  0  0  0  0  0
   -1.7794   -2.0187    0.1450 H   0  0  0  0  0  0  0  0  0  0  0  0
   -3.3248    2.0301   -1.3195 H   0  0  0  0  0  0  0  0  0  0  0  0
   -5.7610    2.1879   -1.4742 H   0  0  0  0  0  0  0  0  0  0  0  0
   -7.2105    0.4915   -0.4143 H   0  0  0  0  0  0  0  0  0  0  0  0
   -3.7574   -1.5630    1.0640 H   0  0  0  0  0  0  0  0  0  0  0  0
    2.5938    1.0210    0.0149 H   0  0  0  0  0  0  0  0  0  0  0  0
    2.7499   -0.5617   -0.5557 H   0  0  0  0  0  0  0  0  0  0  0  0
   -7.2332   -1.4163    0.8141 H   0  0  0  0  0  0  0  0  0  0  0  0
   -0.6315   -3.5091   -0.9833 H   0  0  0  0  0  0  0  0  0  0  0  0
    2.4898   -2.0104    1.5182 H   0  0  0  0  0  0  0  0  0  0  0  0
    4.2503   -5.7566    2.4712 H   0  0  0  0  0  0  0  0  0  0  0  0
    5.0297   -5.5559    0.8422 H   0  0  0  0  0  0  0  0  0  0  0  0
    5.6480   -4.7018    2.2433 H   0  0  0  0  0  0  0  0  0  0  0  0
    1.9615   -7.8178   -0.9325 H   0  0  0  0  0  0  0  0  0  0  0  0
    2.5835   -6.4781   -1.9767 H   0  0  0  0  0  0  0  0  0  0  0  0
    3.6900   -7.6161   -1.2208 H   0  0  0  0  0  0  0  0  0  0  0  0
   -1.5130   -5.2337   -1.8029 H   0  0  0  0  0  0  0  0  0  0  0  0
   -0.1045   -5.0737   -2.9229 H   0  0  0  0  0  0  0  0  0  0  0  0
   -0.8710   -6.6436   -2.6363 H   0  0  0  0  0  0  0  0  0  0  0  0
  1  2  2  0  0  0  0
  2  3  1  0  0  0  0
  2 27  1  0  0  0  0
  3  4  2  0  0  0  0
  3  7  1  0  0  0  0
  4  5  1  0  0  0  0
  4 28  1  0  0  0  0
  5  6  2  0  0  0  0
  5 14  1  0  0  0  0
  6  1  1  0  0  0  0
  6 13  1  0  0  0  0
  7  8  2  0  0  0  0
  8  9  1  0  0  0  0
  8 29  1  0  0  0  0
  9 10  2  0  0  0  0
  9 30  1  0  0  0  0
 10 11  1  0  0  0  0
 10 31  1  0  0  0  0
 11 12  2  0  0  0  0
 11 15  1  0  0  0  0
 12  7  1  0  0  0  0
 12 32  1  0  0  0  0
 13 33  1  0  0  0  0
 13 34  1  0  0  0  0
 14 16  2  0  0  0  0
 15 35  1  0  0  0  0
 16 17  1  0  0  0  0
 16 36  1  0  0  0  0
 17 18  2  0  0  0  0
 17 25  1  0  0  0  0
 18 19  1  0  0  0  0
 18 23  1  0  0  0  0
 19 20  2  0  0  0  0
 19 21  1  0  0  0  0
 20 14  1  0  0  0  0
 20 37  1  0  0  0  0
 21 22  1  0  0  0  0
 22 38  1  0  0  0  0
 22 39  1  0  0  0  0
 22 40  1  0  0  0  0
 23 24  1  0  0  0  0
 24 41  1  0  0  0  0
 24 42  1  0  0  0  0
 24 43  1  0  0  0  0
 25 26  1  0  0  0  0
 26 44  1  0  0  0  0
 26 45  1  0  0  0  0
 26 46  1  0  0  0  0
M  END
>  <Mol_ID>
2352

>  <Formula>
C20H20N2O4

>  <MolWeight>
352.3838

>  <Cat>
S7359

>  <Name>
K02288

>  <Synonyms>
N/A

>  <Target>
TGF-beta/Smad

>  <Form>
free base

>  <CAS>
1431985-92-0

>  <URL>
http://selleckchem.com/products/k02288.html

$$$$
