LM-3229 ME 0328.cdx
 OpenBabel08302519583D

 43 45  0  0  0  0  0  0  0  0999 V2000
    1.8729   15.1698   -2.6312 C   0  0  0  0  0  0  0  0  0  0  0  0
    1.3667   15.5440   -1.3853 C   0  0  0  0  0  0  0  0  0  0  0  0
    1.0329   14.5692   -0.4380 C   0  0  0  0  0  0  0  0  0  0  0  0
    1.2101   13.2123   -0.7193 C   0  0  0  0  0  0  0  0  0  0  0  0
    1.7141   12.8541   -1.9719 C   0  0  0  0  0  0  0  0  0  0  0  0
    2.0438   13.8199   -2.9324 C   0  0  0  0  0  0  0  0  0  0  0  0
    0.9048   12.2623    0.2762 N   0  0  0  0  0  0  0  0  0  0  0  0
    1.1256   11.0167    0.0041 C   0  0  0  0  0  0  0  0  0  0  0  0
    1.5994   10.5828   -1.2044 N   0  0  0  0  0  0  0  0  0  0  0  0
    1.8893   11.4207   -2.2507 C   0  0  0  0  0  0  0  0  0  0  0  0
    2.2627   11.0139   -3.3429 O   0  0  0  0  0  0  0  0  0  0  0  0
    0.8870    9.9430    1.0450 C   0  0  0  0  0  0  0  0  0  0  0  0
   -0.5122    9.3430    0.9699 C   0  0  0  0  0  0  0  0  0  0  0  0
   -0.7469    8.5005   -0.2698 C   0  0  0  0  0  0  0  0  0  0  0  0
   -2.0302    8.0123   -0.3431 N   0  0  0  0  0  0  0  0  0  0  0  0
    0.1161    8.2956   -1.1172 O   0  0  0  0  0  0  0  0  0  0  0  0
   -2.5431    7.3111   -1.5110 C   0  0  2  0  0  0  0  0  0  0  0  0
   -4.0350    7.5703   -1.6435 C   0  0  0  0  0  0  0  0  0  0  0  0
   -2.2198    5.8170   -1.4687 C   0  0  0  0  0  0  0  0  0  0  0  0
   -4.9610    7.0685   -0.7124 C   0  0  0  0  0  0  0  0  0  0  0  0
   -6.3253    7.3359   -0.8474 C   0  0  0  0  0  0  0  0  0  0  0  0
   -6.7830    8.1097   -1.9111 C   0  0  0  0  0  0  0  0  0  0  0  0
   -5.8778    8.6208   -2.8377 C   0  0  0  0  0  0  0  0  0  0  0  0
   -4.5130    8.3566   -2.7035 C   0  0  0  0  0  0  0  0  0  0  0  0
    2.1375   15.9284   -3.3638 H   0  0  0  0  0  0  0  0  0  0  0  0
    1.2366   16.5967   -1.1466 H   0  0  0  0  0  0  0  0  0  0  0  0
    0.6422   14.8682    0.5314 H   0  0  0  0  0  0  0  0  0  0  0  0
    2.4370   13.5194   -3.9003 H   0  0  0  0  0  0  0  0  0  0  0  0
    1.6247    9.5873   -1.4095 H   0  0  0  0  0  0  0  0  0  0  0  0
    1.6480    9.1626    0.9376 H   0  0  0  0  0  0  0  0  0  0  0  0
    1.0254   10.3994    2.0325 H   0  0  0  0  0  0  0  0  0  0  0  0
   -0.6595    8.6896    1.8395 H   0  0  0  0  0  0  0  0  0  0  0  0
   -1.2688   10.1344    1.0041 H   0  0  0  0  0  0  0  0  0  0  0  0
   -2.6688    8.1791    0.4234 H   0  0  0  0  0  0  0  0  0  0  0  0
   -2.0301    7.7251   -2.3885 H   0  0  0  0  0  0  0  0  0  0  0  0
   -2.5689    5.3210   -2.3826 H   0  0  0  0  0  0  0  0  0  0  0  0
   -1.1407    5.6500   -1.3863 H   0  0  0  0  0  0  0  0  0  0  0  0
   -2.6913    5.3138   -0.6173 H   0  0  0  0  0  0  0  0  0  0  0  0
   -4.6286    6.4641    0.1284 H   0  0  0  0  0  0  0  0  0  0  0  0
   -7.0318    6.9396   -0.1225 H   0  0  0  0  0  0  0  0  0  0  0  0
   -7.8451    8.3161   -2.0175 H   0  0  0  0  0  0  0  0  0  0  0  0
   -6.2332    9.2280   -3.6668 H   0  0  0  0  0  0  0  0  0  0  0  0
   -3.8229    8.7713   -3.4360 H   0  0  0  0  0  0  0  0  0  0  0  0
  1  2  2  0  0  0  0
  1 25  1  0  0  0  0
  2  3  1  0  0  0  0
  2 26  1  0  0  0  0
  3  4  2  0  0  0  0
  3 27  1  0  0  0  0
  4  5  1  0  0  0  0
  4  7  1  0  0  0  0
  5  6  2  0  0  0  0
  6  1  1  0  0  0  0
  6 28  1  0  0  0  0
  7  8  2  0  0  0  0
  8  9  1  0  0  0  0
  8 12  1  0  0  0  0
  9 10  1  0  0  0  0
  9 29  1  0  0  0  0
 10  5  1  0  0  0  0
 10 11  2  0  0  0  0
 12 13  1  0  0  0  0
 12 30  1  0  0  0  0
 12 31  1  0  0  0  0
 13 14  1  0  0  0  0
 13 32  1  0  0  0  0
 13 33  1  0  0  0  0
 14 15  1  0  0  0  0
 14 16  2  0  0  0  0
 15 34  1  0  0  0  0
 17 19  1  0  0  0  0
 17 35  1  6  0  0  0
 17 18  1  0  0  0  0
 17 15  1  0  0  0  0
 18 20  2  0  0  0  0
 19 36  1  0  0  0  0
 19 37  1  0  0  0  0
 19 38  1  0  0  0  0
 20 21  1  0  0  0  0
 20 39  1  0  0  0  0
 21 22  2  0  0  0  0
 21 40  1  0  0  0  0
 22 23  1  0  0  0  0
 22 41  1  0  0  0  0
 23 24  2  0  0  0  0
 23 42  1  0  0  0  0
 24 18  1  0  0  0  0
 24 43  1  0  0  0  0
M  END
>  <Mol_ID>
2362

>  <Formula>
C19H19N3O2

>  <MolWeight>
321.37306

>  <Cat>
S7438

>  <Name>
ME0328

>  <Synonyms>
N/A

>  <Target>
PARP

>  <Form>
free base

>  <CAS>
1445251-22-8

>  <URL>
http://selleckchem.com/products/me0328.html

$$$$
