LM-3241 ZLN005.cdx
 OpenBabel08302519583D

 37 39  0  0  0  0  0  0  0  0999 V2000
    2.2105    0.7527   -0.3142 C   0  0  0  0  0  0  0  0  0  0  0  0
    2.2608   -0.4935    0.3166 C   0  0  0  0  0  0  0  0  0  0  0  0
    1.0927   -1.1978    0.6318 C   0  0  0  0  0  0  0  0  0  0  0  0
   -0.1129   -0.5871    0.2868 C   0  0  0  0  0  0  0  0  0  0  0  0
   -0.1951    0.6455   -0.3466 C   0  0  0  0  0  0  0  0  0  0  0  0
    0.9845    1.3358   -0.6582 C   0  0  0  0  0  0  0  0  0  0  0  0
   -1.4220   -0.9623    0.4508 N   0  0  0  0  0  0  0  0  0  0  0  0
   -2.2359    0.0358   -0.0404 C   0  0  0  0  0  0  0  0  0  0  0  0
   -1.5020    1.0007   -0.5662 N   0  0  0  0  0  0  0  0  0  0  0  0
   -3.6949   -0.0025    0.0272 C   0  0  0  0  0  0  0  0  0  0  0  0
   -4.3618   -0.6628    1.0609 C   0  0  0  0  0  0  0  0  0  0  0  0
   -5.7602   -0.6635    1.1260 C   0  0  0  0  0  0  0  0  0  0  0  0
   -6.5401   -0.0090    0.1589 C   0  0  0  0  0  0  0  0  0  0  0  0
   -5.8551    0.6531   -0.8766 C   0  0  0  0  0  0  0  0  0  0  0  0
   -4.4568    0.6627   -0.9373 C   0  0  0  0  0  0  0  0  0  0  0  0
   -8.0772    0.0169    0.2196 C   0  0  0  0  0  0  0  0  0  0  0  0
   -8.6546   -0.7683    1.4193 C   0  0  0  0  0  0  0  0  0  0  0  0
   -8.5696    1.4749    0.3416 C   0  0  0  0  0  0  0  0  0  0  0  0
   -8.6698   -0.6071   -1.0616 C   0  0  0  0  0  0  0  0  0  0  0  0
    3.1342    1.2801   -0.5425 H   0  0  0  0  0  0  0  0  0  0  0  0
    3.2275   -0.9235    0.5714 H   0  0  0  0  0  0  0  0  0  0  0  0
    1.1316   -2.1628    1.1241 H   0  0  0  0  0  0  0  0  0  0  0  0
    0.9354    2.3023   -1.1443 H   0  0  0  0  0  0  0  0  0  0  0  0
   -1.7390   -1.8233    0.8693 H   0  0  0  0  0  0  0  0  0  0  0  0
   -3.8131   -1.1607    1.8560 H   0  0  0  0  0  0  0  0  0  0  0  0
   -6.2147   -1.1816    1.9663 H   0  0  0  0  0  0  0  0  0  0  0  0
   -6.4010    1.1870   -1.6518 H   0  0  0  0  0  0  0  0  0  0  0  0
   -3.9591    1.1997   -1.7436 H   0  0  0  0  0  0  0  0  0  0  0  0
   -8.3207   -0.3470    2.3743 H   0  0  0  0  0  0  0  0  0  0  0  0
   -9.7507   -0.7445    1.4213 H   0  0  0  0  0  0  0  0  0  0  0  0
   -8.3559   -1.8237    1.3896 H   0  0  0  0  0  0  0  0  0  0  0  0
   -8.2482    2.0935   -0.5034 H   0  0  0  0  0  0  0  0  0  0  0  0
   -9.6647    1.5193    0.3732 H   0  0  0  0  0  0  0  0  0  0  0  0
   -8.1902    1.9454    1.2564 H   0  0  0  0  0  0  0  0  0  0  0  0
   -8.3726   -0.0632   -1.9648 H   0  0  0  0  0  0  0  0  0  0  0  0
   -8.3470   -1.6480   -1.1809 H   0  0  0  0  0  0  0  0  0  0  0  0
   -9.7659   -0.6004   -1.0301 H   0  0  0  0  0  0  0  0  0  0  0  0
  1  2  2  0  0  0  0
  1 20  1  0  0  0  0
  2  3  1  0  0  0  0
  2 21  1  0  0  0  0
  3  4  2  0  0  0  0
  3 22  1  0  0  0  0
  4  5  1  0  0  0  0
  4  7  1  0  0  0  0
  5  6  2  0  0  0  0
  6  1  1  0  0  0  0
  6 23  1  0  0  0  0
  7  8  1  0  0  0  0
  7 24  1  0  0  0  0
  8  9  2  0  0  0  0
  8 10  1  0  0  0  0
  9  5  1  0  0  0  0
 10 11  2  0  0  0  0
 11 12  1  0  0  0  0
 11 25  1  0  0  0  0
 12 13  2  0  0  0  0
 12 26  1  0  0  0  0
 13 14  1  0  0  0  0
 13 16  1  0  0  0  0
 14 15  2  0  0  0  0
 14 27  1  0  0  0  0
 15 10  1  0  0  0  0
 15 28  1  0  0  0  0
 16 17  1  0  0  0  0
 16 18  1  0  0  0  0
 16 19  1  0  0  0  0
 17 29  1  0  0  0  0
 17 30  1  0  0  0  0
 17 31  1  0  0  0  0
 18 32  1  0  0  0  0
 18 33  1  0  0  0  0
 18 34  1  0  0  0  0
 19 35  1  0  0  0  0
 19 36  1  0  0  0  0
 19 37  1  0  0  0  0
M  END
>  <Mol_ID>
2356

>  <Formula>
C17H18N2

>  <MolWeight>
250.33822

>  <Cat>
S7447

>  <Name>
ZLN005

>  <Synonyms>
N/A

>  <Target>
PGC-1¦Á

>  <Form>
free base

>  <CAS>
49671-76-3

>  <URL>
http://selleckchem.com/products/ZLN005.html

$$$$
