LM-3572.cdx
 OpenBabel08302519593D

 56 58  0  0  0  0  0  0  0  0999 V2000
   -0.3401    0.3377   -1.6022 C   0  0  0  0  0  0  0  0  0  0  0  0
   -0.0665   -0.7841   -0.8076 C   0  0  0  0  0  0  0  0  0  0  0  0
   -1.2833   -1.6153   -0.8387 C   0  0  0  0  0  0  0  0  0  0  0  0
   -2.2626   -0.9058   -1.7442 C   0  0  0  0  0  0  0  0  0  0  0  0
   -1.6196    0.2583   -2.1322 N   0  0  0  0  0  0  0  0  0  0  0  0
    0.5742    1.3566   -1.7883 C   0  0  0  0  0  0  0  0  0  0  0  0
    1.8071    1.2340   -1.1460 C   0  0  0  0  0  0  0  0  0  0  0  0
    2.0850    0.1132   -0.3489 C   0  0  0  0  0  0  0  0  0  0  0  0
    1.1549   -0.9096   -0.1693 C   0  0  0  0  0  0  0  0  0  0  0  0
    3.2737    0.0264    0.2618 F   0  0  0  0  0  0  0  0  0  0  0  0
   -3.3645   -1.2723   -2.1095 O   0  0  0  0  0  0  0  0  0  0  0  0
   -2.5531   -3.5638    0.0389 C   0  0  0  0  0  0  0  0  0  0  0  0
   -3.5335   -3.6092   -0.9089 N   0  0  0  0  0  0  0  0  0  0  0  0
   -4.5038   -4.5074   -0.5587 C   0  0  0  0  0  0  0  0  0  0  0  0
   -4.1481   -5.0981    0.6553 C   0  0  0  0  0  0  0  0  0  0  0  0
   -2.9180   -4.4393    1.0587 C   0  0  0  0  0  0  0  0  0  0  0  0
   -2.1476   -4.6108    2.3256 C   0  0  0  0  0  0  0  0  0  0  0  0
   -5.6865   -4.6885   -1.4473 C   0  0  0  0  0  0  0  0  0  0  0  0
   -4.9502   -6.1630    1.2953 C   0  0  0  0  0  0  0  0  0  0  0  0
   -4.4509   -6.7074    2.4581 N   0  0  0  0  0  0  0  0  0  0  0  0
   -5.1508   -7.7452    3.1925 C   0  0  0  0  0  0  0  0  0  0  0  0
   -6.0033   -6.5711    0.8081 O   0  0  0  0  0  0  0  0  0  0  0  0
   -4.1871   -8.6112    4.0347 C   0  0  0  0  0  0  0  0  0  0  0  0
   -3.3925   -7.8731    5.0446 N   0  0  0  0  0  0  0  0  0  0  0  0
   -1.4073   -2.7383   -0.1170 C   0  0  0  0  0  0  0  0  0  0  0  0
   -4.2228   -7.2072    6.0695 C   0  0  0  0  0  0  0  0  0  0  0  0
   -2.3686   -8.7228    5.6844 C   0  0  0  0  0  0  0  0  0  0  0  0
   -5.1459   -8.0971    6.9024 C   0  0  0  0  0  0  0  0  0  0  0  0
   -1.2879   -9.2195    4.7271 C   0  0  0  0  0  0  0  0  0  0  0  0
   -2.0480    0.9318   -2.7479 H   0  0  0  0  0  0  0  0  0  0  0  0
    0.3471    2.2198   -2.4034 H   0  0  0  0  0  0  0  0  0  0  0  0
    2.5642    2.0057   -1.2533 H   0  0  0  0  0  0  0  0  0  0  0  0
    1.4029   -1.7566    0.4580 H   0  0  0  0  0  0  0  0  0  0  0  0
   -3.5771   -3.0195   -1.7350 H   0  0  0  0  0  0  0  0  0  0  0  0
   -2.7954   -4.4477    3.1925 H   0  0  0  0  0  0  0  0  0  0  0  0
   -1.7000   -5.6073    2.3761 H   0  0  0  0  0  0  0  0  0  0  0  0
   -1.3359   -3.8821    2.4149 H   0  0  0  0  0  0  0  0  0  0  0  0
   -5.7505   -5.7190   -1.8080 H   0  0  0  0  0  0  0  0  0  0  0  0
   -6.6089   -4.4366   -0.9152 H   0  0  0  0  0  0  0  0  0  0  0  0
   -5.6277   -4.0349   -2.3259 H   0  0  0  0  0  0  0  0  0  0  0  0
   -3.6813   -6.2766    2.9386 H   0  0  0  0  0  0  0  0  0  0  0  0
   -5.9070   -7.2562    3.8150 H   0  0  0  0  0  0  0  0  0  0  0  0
   -5.6833   -8.3873    2.4825 H   0  0  0  0  0  0  0  0  0  0  0  0
   -4.7512   -9.4275    4.5001 H   0  0  0  0  0  0  0  0  0  0  0  0
   -3.5014   -9.0809    3.3197 H   0  0  0  0  0  0  0  0  0  0  0  0
   -0.5493   -3.0552    0.4706 H   0  0  0  0  0  0  0  0  0  0  0  0
   -3.5643   -6.6614    6.7587 H   0  0  0  0  0  0  0  0  0  0  0  0
   -4.8221   -6.4243    5.5926 H   0  0  0  0  0  0  0  0  0  0  0  0
   -1.8533   -8.1316    6.4524 H   0  0  0  0  0  0  0  0  0  0  0  0
   -2.8194   -9.5834    6.1935 H   0  0  0  0  0  0  0  0  0  0  0  0
   -4.5790   -8.7660    7.5575 H   0  0  0  0  0  0  0  0  0  0  0  0
   -5.7807   -7.4728    7.5407 H   0  0  0  0  0  0  0  0  0  0  0  0
   -5.8136   -8.7018    6.2828 H   0  0  0  0  0  0  0  0  0  0  0  0
   -0.9793   -8.4382    4.0249 H   0  0  0  0  0  0  0  0  0  0  0  0
   -0.4008   -9.5258    5.2928 H   0  0  0  0  0  0  0  0  0  0  0  0
   -1.6287  -10.0892    4.1566 H   0  0  0  0  0  0  0  0  0  0  0  0
  1  2  2  0  0  0  0
  1  6  1  0  0  0  0
  2  3  1  0  0  0  0
  3  4  1  0  0  0  0
  3 25  2  0  0  0  0
  4  5  1  0  0  0  0
  4 11  2  0  0  0  0
  5  1  1  0  0  0  0
  5 30  1  0  0  0  0
  6  7  2  0  0  0  0
  6 31  1  0  0  0  0
  7  8  1  0  0  0  0
  7 32  1  0  0  0  0
  8  9  2  0  0  0  0
  8 10  1  0  0  0  0
  9  2  1  0  0  0  0
  9 33  1  0  0  0  0
 12 13  1  0  0  0  0
 13 14  1  0  0  0  0
 13 34  1  0  0  0  0
 14 15  2  0  0  0  0
 14 18  1  0  0  0  0
 15 16  1  0  0  0  0
 15 19  1  0  0  0  0
 16 12  2  0  0  0  0
 16 17  1  0  0  0  0
 17 35  1  0  0  0  0
 17 36  1  0  0  0  0
 17 37  1  0  0  0  0
 18 38  1  0  0  0  0
 18 39  1  0  0  0  0
 18 40  1  0  0  0  0
 19 20  1  0  0  0  0
 19 22  2  0  0  0  0
 20 21  1  0  0  0  0
 20 41  1  0  0  0  0
 21 23  1  0  0  0  0
 21 42  1  0  0  0  0
 21 43  1  0  0  0  0
 23 24  1  0  0  0  0
 23 44  1  0  0  0  0
 23 45  1  0  0  0  0
 24 26  1  0  0  0  0
 24 27  1  0  0  0  0
 25 12  1  0  0  0  0
 25 46  1  0  0  0  0
 26 28  1  0  0  0  0
 26 47  1  0  0  0  0
 26 48  1  0  0  0  0
 27 29  1  0  0  0  0
 27 49  1  0  0  0  0
 27 50  1  0  0  0  0
 28 51  1  0  0  0  0
 28 52  1  0  0  0  0
 28 53  1  0  0  0  0
 29 54  1  0  0  0  0
 29 55  1  0  0  0  0
 29 56  1  0  0  0  0
M  END
>  <Mol_ID>
2561

>  <Formula>
C22H27FN4O2

>  <MolWeight>
398.4737832

>  <Cat>
S7781

>  <Name>
Sunitinib (SU11248)

>  <Synonyms>
SU11248

>  <Target>
Apoptosis related,Autophagy,c-Kit,IRE1,PDGFR,VEGFR

>  <Form>
free base

>  <CAS>
557795-19-4

>  <URL>
http://selleckchem.com/products/sunitinib.html

$$$$
