LM-3093 AZD9291.cdx
 OpenBabel08302519583D

 70 73  0  0  0  0  0  0  0  0999 V2000
   -1.0609    1.0358    3.9504 C   0  0  0  0  0  0  0  0  0  0  0  0
    0.0488    1.8260    3.8612 C   0  0  0  0  0  0  0  0  0  0  0  0
    0.5046    2.2992    2.6985 N   0  0  0  0  0  0  0  0  0  0  0  0
   -0.1548    1.9807    1.5763 C   0  0  0  0  0  0  0  0  0  0  0  0
   -1.2612    1.2237    1.5648 N   0  0  0  0  0  0  0  0  0  0  0  0
   -1.7158    0.7835    2.7643 C   0  0  0  0  0  0  0  0  0  0  0  0
   -2.9588    0.0147    2.7558 C   0  0  0  0  0  0  0  0  0  0  0  0
    0.3523    2.3997    0.3451 N   0  0  0  0  0  0  0  0  0  0  0  0
    1.3877    3.3088    0.0716 C   0  0  0  0  0  0  0  0  0  0  0  0
   -3.3753   -0.7152    1.6551 C   0  0  0  0  0  0  0  0  0  0  0  0
   -4.5549   -1.3389    1.9641 N   0  0  0  0  0  0  0  0  0  0  0  0
   -4.9468   -1.0145    3.2436 C   0  0  0  0  0  0  0  0  0  0  0  0
   -3.9724   -0.1526    3.7629 C   0  0  0  0  0  0  0  0  0  0  0  0
   -6.0809   -1.3971    3.9848 C   0  0  0  0  0  0  0  0  0  0  0  0
   -6.2274   -0.8957    5.2802 C   0  0  0  0  0  0  0  0  0  0  0  0
   -5.2816   -0.0369    5.8200 C   0  0  0  0  0  0  0  0  0  0  0  0
   -4.1630    0.3476    5.0741 C   0  0  0  0  0  0  0  0  0  0  0  0
    2.2607    3.1939   -1.0197 C   0  0  0  0  0  0  0  0  0  0  0  0
    3.3901    4.0463   -1.1350 C   0  0  0  0  0  0  0  0  0  0  0  0
    3.6799    5.0747   -0.2156 C   0  0  0  0  0  0  0  0  0  0  0  0
    2.7423    5.2220    0.8298 C   0  0  0  0  0  0  0  0  0  0  0  0
    1.6623    4.3420    0.9825 C   0  0  0  0  0  0  0  0  0  0  0  0
    2.7857    6.3681    1.6495 N   0  0  0  0  0  0  0  0  0  0  0  0
    2.2110    2.2159   -1.9894 O   0  0  0  0  0  0  0  0  0  0  0  0
    0.9454    1.9915   -2.6006 C   0  0  0  0  0  0  0  0  0  0  0  0
    4.8368    5.8783   -0.2982 N   0  0  0  0  0  0  0  0  0  0  0  0
    5.6667    5.9083   -1.5186 C   0  0  0  0  0  0  0  0  0  0  0  0
    5.5716    6.1333    0.9511 C   0  0  0  0  0  0  0  0  0  0  0  0
    5.0430    6.7597   -2.6511 C   0  0  0  0  0  0  0  0  0  0  0  0
    4.6250    8.1332   -2.2959 N   0  0  0  0  0  0  0  0  0  0  0  0
    5.7262    8.9600   -1.8070 C   0  0  0  0  0  0  0  0  0  0  0  0
    2.6973    6.3392    3.0257 C   0  0  0  0  0  0  0  0  0  0  0  0
    2.8151    7.7069    3.6021 C   0  0  0  0  0  0  0  0  0  0  0  0
    2.6187    5.3472    3.7379 O   0  0  0  0  0  0  0  0  0  0  0  0
    3.0450    7.8919    4.9110 C   0  0  0  0  0  0  0  0  0  0  0  0
    3.9702    8.7849   -3.4307 C   0  0  0  0  0  0  0  0  0  0  0  0
   -5.2821   -2.2060    1.0706 C   0  0  0  0  0  0  0  0  0  0  0  0
   -1.3756    0.6392    4.9026 H   0  0  0  0  0  0  0  0  0  0  0  0
    0.6280    2.1087    4.7337 H   0  0  0  0  0  0  0  0  0  0  0  0
   -0.0979    1.9063   -0.4011 H   0  0  0  0  0  0  0  0  0  0  0  0
   -2.9106   -0.8437    0.6868 H   0  0  0  0  0  0  0  0  0  0  0  0
   -6.8324   -2.0549    3.5633 H   0  0  0  0  0  0  0  0  0  0  0  0
   -7.0969   -1.1783    5.8688 H   0  0  0  0  0  0  0  0  0  0  0  0
   -5.4123    0.3491    6.8314 H   0  0  0  0  0  0  0  0  0  0  0  0
   -3.4607    1.0452    5.5193 H   0  0  0  0  0  0  0  0  0  0  0  0
    4.0603    3.8426   -1.9641 H   0  0  0  0  0  0  0  0  0  0  0  0
    0.9789    4.5137    1.8121 H   0  0  0  0  0  0  0  0  0  0  0  0
    3.1951    7.1746    1.1967 H   0  0  0  0  0  0  0  0  0  0  0  0
    0.4765    1.1076   -2.1581 H   0  0  0  0  0  0  0  0  0  0  0  0
    0.2765    2.8573   -2.5494 H   0  0  0  0  0  0  0  0  0  0  0  0
    1.1147    1.7610   -3.6575 H   0  0  0  0  0  0  0  0  0  0  0  0
    6.6520    6.3376   -1.2969 H   0  0  0  0  0  0  0  0  0  0  0  0
    5.8916    4.8964   -1.8740 H   0  0  0  0  0  0  0  0  0  0  0  0
    5.1642    7.0004    1.4791 H   0  0  0  0  0  0  0  0  0  0  0  0
    5.5789    5.2629    1.6149 H   0  0  0  0  0  0  0  0  0  0  0  0
    6.6169    6.4031    0.7650 H   0  0  0  0  0  0  0  0  0  0  0  0
    5.7562    6.7906   -3.4853 H   0  0  0  0  0  0  0  0  0  0  0  0
    4.1604    6.2171   -3.0110 H   0  0  0  0  0  0  0  0  0  0  0  0
    6.5184    9.0755   -2.5564 H   0  0  0  0  0  0  0  0  0  0  0  0
    5.3630    9.9585   -1.5367 H   0  0  0  0  0  0  0  0  0  0  0  0
    6.1731    8.5457   -0.8989 H   0  0  0  0  0  0  0  0  0  0  0  0
    2.7007    8.5517    2.9357 H   0  0  0  0  0  0  0  0  0  0  0  0
    3.1135    8.8911    5.3250 H   0  0  0  0  0  0  0  0  0  0  0  0
    3.1593    7.0514    5.5888 H   0  0  0  0  0  0  0  0  0  0  0  0
    4.6802    9.3142   -4.0768 H   0  0  0  0  0  0  0  0  0  0  0  0
    3.4243    8.0710   -4.0579 H   0  0  0  0  0  0  0  0  0  0  0  0
    3.2339    9.5060   -3.0611 H   0  0  0  0  0  0  0  0  0  0  0  0
   -5.3442   -3.1988    1.5294 H   0  0  0  0  0  0  0  0  0  0  0  0
   -6.2823   -1.7903    0.9173 H   0  0  0  0  0  0  0  0  0  0  0  0
   -4.7606   -2.2755    0.1141 H   0  0  0  0  0  0  0  0  0  0  0  0
  1  2  2  0  0  0  0
  1 38  1  0  0  0  0
  2  3  1  0  0  0  0
  2 39  1  0  0  0  0
  3  4  2  0  0  0  0
  4  5  1  0  0  0  0
  4  8  1  0  0  0  0
  5  6  2  0  0  0  0
  6  1  1  0  0  0  0
  6  7  1  0  0  0  0
  7 10  2  0  0  0  0
  8  9  1  0  0  0  0
  8 40  1  0  0  0  0
  9 18  2  0  0  0  0
 10 11  1  0  0  0  0
 10 41  1  0  0  0  0
 11 12  1  0  0  0  0
 11 37  1  0  0  0  0
 12 13  2  0  0  0  0
 12 14  1  0  0  0  0
 13  7  1  0  0  0  0
 14 15  2  0  0  0  0
 14 42  1  0  0  0  0
 15 16  1  0  0  0  0
 15 43  1  0  0  0  0
 16 17  2  0  0  0  0
 16 44  1  0  0  0  0
 17 13  1  0  0  0  0
 17 45  1  0  0  0  0
 18 19  1  0  0  0  0
 18 24  1  0  0  0  0
 19 20  2  0  0  0  0
 19 46  1  0  0  0  0
 20 21  1  0  0  0  0
 20 26  1  0  0  0  0
 21 22  2  0  0  0  0
 21 23  1  0  0  0  0
 22  9  1  0  0  0  0
 22 47  1  0  0  0  0
 23 32  1  0  0  0  0
 23 48  1  0  0  0  0
 24 25  1  0  0  0  0
 25 49  1  0  0  0  0
 25 50  1  0  0  0  0
 25 51  1  0  0  0  0
 26 27  1  0  0  0  0
 26 28  1  0  0  0  0
 27 29  1  0  0  0  0
 27 52  1  0  0  0  0
 27 53  1  0  0  0  0
 28 54  1  0  0  0  0
 28 55  1  0  0  0  0
 28 56  1  0  0  0  0
 29 30  1  0  0  0  0
 29 57  1  0  0  0  0
 29 58  1  0  0  0  0
 30 31  1  0  0  0  0
 30 36  1  0  0  0  0
 31 59  1  0  0  0  0
 31 60  1  0  0  0  0
 31 61  1  0  0  0  0
 32 33  1  0  0  0  0
 32 34  2  0  0  0  0
 33 35  2  0  0  0  0
 33 62  1  0  0  0  0
 35 63  1  0  0  0  0
 35 64  1  0  0  0  0
 36 65  1  0  0  0  0
 36 66  1  0  0  0  0
 36 67  1  0  0  0  0
 37 68  1  0  0  0  0
 37 69  1  0  0  0  0
 37 70  1  0  0  0  0
M  END
>  <Mol_ID>
2398

>  <Formula>
C28H33N7O2

>  <MolWeight>
499.60732

>  <Cat>
S7297

>  <Name>
Osimertinib (AZD9291)

>  <Synonyms>
Mereletinib

>  <Target>
EGFR

>  <Form>
free base

>  <CAS>
1421373-65-0

>  <URL>
http://selleckchem.com/products/azd9291.html

$$$$
