LM-3267.cdx
 OpenBabel08302519583D

 48 49  0  0  0  0  0  0  0  0999 V2000
    4.6682    1.9020    0.6897 C   0  0  0  0  0  0  0  0  0  0  0  0
    4.2452    0.5799    0.5957 C   0  0  0  0  0  0  0  0  0  0  0  0
    2.8875    0.2964    0.4755 C   0  0  0  0  0  0  0  0  0  0  0  0
    1.9468    1.3313    0.4542 C   0  0  0  0  0  0  0  0  0  0  0  0
    2.3543    2.6604    0.5426 C   0  0  0  0  0  0  0  0  0  0  0  0
    3.7269    2.9366    0.6581 C   0  0  0  0  0  0  0  0  0  0  0  0
    1.4764    3.7673    0.5399 N   0  0  0  0  0  0  0  0  0  0  0  0
    0.0968    3.7689    0.5663 C   0  0  0  0  0  0  0  0  0  0  0  0
   -0.5001    5.0318    0.7160 N   0  0  0  0  0  0  0  0  0  0  0  0
   -0.5868    2.7501    0.4932 O   0  0  0  0  0  0  0  0  0  0  0  0
    0.2195    6.3027    0.8553 C   0  0  0  0  0  0  0  0  0  0  0  0
   -1.9519    5.0603    0.9670 C   0  0  0  0  0  0  0  0  0  0  0  0
   -2.7860    5.8502   -0.0518 C   0  0  0  0  0  0  0  0  0  0  0  0
   -2.8236    5.2183   -1.4439 C   0  0  0  0  0  0  0  0  0  0  0  0
   -3.6986    6.0318   -2.3908 C   0  0  0  0  0  0  0  0  0  0  0  0
    0.5767    6.6556    2.2856 C   0  0  0  0  0  0  0  0  0  0  0  0
    1.7541    6.1880    2.8894 C   0  0  0  0  0  0  0  0  0  0  0  0
    2.0900    6.5609    4.1936 C   0  0  0  0  0  0  0  0  0  0  0  0
    1.2522    7.4137    4.9163 C   0  0  0  0  0  0  0  0  0  0  0  0
    0.0547    7.8504    4.3437 C   0  0  0  0  0  0  0  0  0  0  0  0
   -0.2777    7.4766    3.0373 C   0  0  0  0  0  0  0  0  0  0  0  0
    1.6004    7.8544    6.2918 C   0  0  0  0  0  0  0  0  0  0  0  0
    2.9455    7.9106    6.5896 N   0  0  0  0  0  0  0  0  0  0  0  0
    0.7382    8.1944    7.0950 O   0  0  0  0  0  0  0  0  0  0  0  0
    3.2641    8.4797    7.8438 O   0  0  0  0  0  0  0  0  0  0  0  0
    5.7266    2.1287    0.7876 H   0  0  0  0  0  0  0  0  0  0  0  0
    4.9707   -0.2299    0.6163 H   0  0  0  0  0  0  0  0  0  0  0  0
    2.5513   -0.7347    0.3973 H   0  0  0  0  0  0  0  0  0  0  0  0
    0.8983    1.0607    0.3587 H   0  0  0  0  0  0  0  0  0  0  0  0
    4.0874    3.9585    0.7393 H   0  0  0  0  0  0  0  0  0  0  0  0
    1.9358    4.6549    0.5481 H   0  0  0  0  0  0  0  0  0  0  0  0
    1.1253    6.3034    0.2406 H   0  0  0  0  0  0  0  0  0  0  0  0
   -0.3872    7.1054    0.4233 H   0  0  0  0  0  0  0  0  0  0  0  0
   -2.3600    4.0463    1.0362 H   0  0  0  0  0  0  0  0  0  0  0  0
   -2.0984    5.5013    1.9593 H   0  0  0  0  0  0  0  0  0  0  0  0
   -3.8140    5.9009    0.3308 H   0  0  0  0  0  0  0  0  0  0  0  0
   -2.4389    6.8859   -0.1257 H   0  0  0  0  0  0  0  0  0  0  0  0
   -1.8132    5.1477   -1.8609 H   0  0  0  0  0  0  0  0  0  0  0  0
   -3.2233    4.2001   -1.3767 H   0  0  0  0  0  0  0  0  0  0  0  0
   -3.2507    7.0102   -2.5928 H   0  0  0  0  0  0  0  0  0  0  0  0
   -3.8172    5.5104   -3.3460 H   0  0  0  0  0  0  0  0  0  0  0  0
   -4.6963    6.1947   -1.9695 H   0  0  0  0  0  0  0  0  0  0  0  0
    2.4349    5.5248    2.3679 H   0  0  0  0  0  0  0  0  0  0  0  0
    2.9973    6.1539    4.6349 H   0  0  0  0  0  0  0  0  0  0  0  0
   -0.6225    8.4896    4.9081 H   0  0  0  0  0  0  0  0  0  0  0  0
   -1.2111    7.8370    2.6087 H   0  0  0  0  0  0  0  0  0  0  0  0
    3.6602    7.9813    5.8740 H   0  0  0  0  0  0  0  0  0  0  0  0
    2.3751    8.6218    8.2382 H   0  0  0  0  0  0  0  0  0  0  0  0
  1  2  2  0  0  0  0
  1 26  1  0  0  0  0
  2  3  1  0  0  0  0
  2 27  1  0  0  0  0
  3  4  2  0  0  0  0
  3 28  1  0  0  0  0
  4  5  1  0  0  0  0
  4 29  1  0  0  0  0
  5  6  2  0  0  0  0
  5  7  1  0  0  0  0
  6  1  1  0  0  0  0
  6 30  1  0  0  0  0
  7  8  1  0  0  0  0
  7 31  1  0  0  0  0
  8  9  1  0  0  0  0
  8 10  2  0  0  0  0
  9 11  1  0  0  0  0
  9 12  1  0  0  0  0
 11 16  1  0  0  0  0
 11 32  1  0  0  0  0
 11 33  1  0  0  0  0
 12 13  1  0  0  0  0
 12 34  1  0  0  0  0
 12 35  1  0  0  0  0
 13 14  1  0  0  0  0
 13 36  1  0  0  0  0
 13 37  1  0  0  0  0
 14 15  1  0  0  0  0
 14 38  1  0  0  0  0
 14 39  1  0  0  0  0
 15 40  1  0  0  0  0
 15 41  1  0  0  0  0
 15 42  1  0  0  0  0
 16 17  2  0  0  0  0
 17 18  1  0  0  0  0
 17 43  1  0  0  0  0
 18 19  2  0  0  0  0
 18 44  1  0  0  0  0
 19 20  1  0  0  0  0
 19 22  1  0  0  0  0
 20 21  2  0  0  0  0
 20 45  1  0  0  0  0
 21 16  1  0  0  0  0
 21 46  1  0  0  0  0
 22 23  1  0  0  0  0
 22 24  2  0  0  0  0
 23 25  1  0  0  0  0
 23 47  1  0  0  0  0
 25 48  1  0  0  0  0
M  END
>  <Mol_ID>
2380

>  <Formula>
C19H23N3O3

>  <MolWeight>
341.40422

>  <Cat>
S7473

>  <Name>
Nexturastat A

>  <Synonyms>
N/A

>  <Target>
HDAC

>  <Form>
free base

>  <CAS>
1403783-31-2

>  <URL>
http://selleckchem.com/products/nexturastat-a.html

$$$$
