LM10.cdx
 OpenBabel08302520433D

 25 27  0  0  0  0  0  0  0  0999 V2000
   -0.6863    1.0442   -0.0073 C   0  0  0  0  0  0  0  0  0  0  0  0
    0.6326    0.5775    0.0027 C   0  0  0  0  0  0  0  0  0  0  0  0
    0.9586   -0.7828    0.0093 C   0  0  0  0  0  0  0  0  0  0  0  0
   -0.0988   -1.7218    0.0038 C   0  0  0  0  0  0  0  0  0  0  0  0
   -1.4256   -1.2709   -0.0059 C   0  0  0  0  0  0  0  0  0  0  0  0
   -1.7007    0.0896   -0.0102 C   0  0  0  0  0  0  0  0  0  0  0  0
    1.8136    1.2806    0.0047 N   0  0  0  0  0  0  0  0  0  0  0  0
    2.8785    0.4202    0.0157 C   0  0  0  0  0  0  0  0  0  0  0  0
    2.3891   -0.8706    0.0177 C   0  0  0  0  0  0  0  0  0  0  0  0
    3.1793   -2.0662    0.0179 C   0  0  0  0  0  0  0  0  0  0  0  0
    4.5236   -2.1117    0.0159 C   0  0  0  0  0  0  0  0  0  0  0  0
    5.2070   -3.3468   -0.0135 C   0  0  0  0  0  0  0  0  0  0  0  0
    6.5760   -3.3593   -0.0087 N   0  0  0  0  0  0  0  0  0  0  0  0
    7.0299   -4.6176   -0.0672 N   0  0  0  0  0  0  0  0  0  0  0  0
    5.9416   -5.3727   -0.0966 N   0  0  0  0  0  0  0  0  0  0  0  0
    4.8042   -4.6004   -0.0608 N   0  0  0  0  0  0  0  0  0  0  0  0
   -2.9770    0.4995   -0.0195 F   0  0  0  0  0  0  0  0  0  0  0  0
   -0.9259    2.1015   -0.0134 H   0  0  0  0  0  0  0  0  0  0  0  0
    0.1072   -2.7885    0.0061 H   0  0  0  0  0  0  0  0  0  0  0  0
   -2.2472   -1.9801   -0.0104 H   0  0  0  0  0  0  0  0  0  0  0  0
    1.8800    2.2891   -0.0035 H   0  0  0  0  0  0  0  0  0  0  0  0
    3.8849    0.8135    0.0173 H   0  0  0  0  0  0  0  0  0  0  0  0
    2.6296   -3.0069    0.0117 H   0  0  0  0  0  0  0  0  0  0  0  0
    5.1024   -1.1943    0.0235 H   0  0  0  0  0  0  0  0  0  0  0  0
    7.2352   -2.5936    0.0267 H   0  0  0  0  0  0  0  0  0  0  0  0
  1  2  2  0  0  0  0
  1 18  1  0  0  0  0
  2  3  1  0  0  0  0
  2  7  1  0  0  0  0
  3  4  2  0  0  0  0
  4  5  1  0  0  0  0
  4 19  1  0  0  0  0
  5  6  2  0  0  0  0
  5 20  1  0  0  0  0
  6  1  1  0  0  0  0
  6 17  1  0  0  0  0
  7  8  1  0  0  0  0
  7 21  1  0  0  0  0
  8  9  2  0  0  0  0
  8 22  1  0  0  0  0
  9  3  1  0  0  0  0
  9 10  1  0  0  0  0
 10 11  2  0  0  0  0
 10 23  1  0  0  0  0
 11 12  1  0  0  0  0
 11 24  1  0  0  0  0
 12 13  1  0  0  0  0
 13 14  1  0  0  0  0
 13 25  1  0  0  0  0
 14 15  2  0  0  0  0
 15 16  1  0  0  0  0
 16 12  2  0  0  0  0
M  END
>  <Mol_ID>
4089

>  <Formula>
C11H8FN5

>  <MolWeight>
229.2131232

>  <Cat>
S8368

>  <Name>
LM10

>  <Synonyms>
N/A

>  <Target>
IDO/TDO

>  <Form>
free base

>  <CAS>
1316695-35-8

>  <URL>
http://selleckchem.com/products/lm10.html

$$$$
