LM11A-31
 OpenBabel08302521313D

 42 42  0  0  0  0  0  0  0  0999 V2000
    0.9675    0.0148   -0.2592 C   0  0  0  0  0  0  0  0  0  0  0  0
    0.1859    0.8430    0.7945 C   0  0  3  0  0  0  0  0  0  0  0  0
   -1.3387    0.5319    0.7606 C   0  0  3  0  0  0  0  0  0  0  0  0
   -1.6711   -0.9257    1.1567 C   0  0  0  0  0  0  0  0  0  0  0  0
   -3.1548   -1.2619    1.0525 C   0  0  0  0  0  0  0  0  0  0  0  0
    0.4471   -0.5186   -1.2270 O   0  0  0  0  0  0  0  0  0  0  0  0
    2.3295   -0.0338   -0.0103 N   0  0  0  0  0  0  0  0  0  0  0  0
    3.1753   -0.9500   -0.7479 C   0  0  0  0  0  0  0  0  0  0  0  0
    4.6679   -0.6329   -0.5652 C   0  0  0  0  0  0  0  0  0  0  0  0
    5.5742   -1.4496   -1.3942 N   0  0  0  0  0  0  0  0  0  0  0  0
    5.5243   -2.8967   -1.0922 C   0  0  0  0  0  0  0  0  0  0  0  0
    6.1459   -3.2608    0.2651 C   0  0  0  0  0  0  0  0  0  0  0  0
    7.5086   -2.8233    0.3433 O   0  0  0  0  0  0  0  0  0  0  0  0
    7.6135   -1.4132    0.1076 C   0  0  0  0  0  0  0  0  0  0  0  0
    6.9788   -1.0070   -1.2360 C   0  0  0  0  0  0  0  0  0  0  0  0
   -2.1264    1.5439    1.6038 C   0  0  0  0  0  0  0  0  0  0  0  0
    0.8235    0.6743    2.1275 N   0  0  0  0  0  0  0  0  0  0  0  0
    0.3267    1.8909    0.5002 H   0  0  0  0  0  0  0  0  0  0  0  0
   -1.6724    0.6675   -0.2779 H   0  0  0  0  0  0  0  0  0  0  0  0
   -1.1306   -1.6148    0.4982 H   0  0  0  0  0  0  0  0  0  0  0  0
   -1.3339   -1.1372    2.1777 H   0  0  0  0  0  0  0  0  0  0  0  0
   -3.5686   -0.9422    0.0909 H   0  0  0  0  0  0  0  0  0  0  0  0
   -3.3035   -2.3427    1.1420 H   0  0  0  0  0  0  0  0  0  0  0  0
   -3.7269   -0.7854    1.8542 H   0  0  0  0  0  0  0  0  0  0  0  0
    2.5934    0.2856    0.9187 H   0  0  0  0  0  0  0  0  0  0  0  0
    2.9384   -1.9540   -0.3804 H   0  0  0  0  0  0  0  0  0  0  0  0
    2.9012   -0.9098   -1.8088 H   0  0  0  0  0  0  0  0  0  0  0  0
    4.8095    0.4212   -0.8378 H   0  0  0  0  0  0  0  0  0  0  0  0
    4.9144   -0.7050    0.5007 H   0  0  0  0  0  0  0  0  0  0  0  0
    6.0913   -3.4128   -1.8788 H   0  0  0  0  0  0  0  0  0  0  0  0
    4.5042   -3.2868   -1.1648 H   0  0  0  0  0  0  0  0  0  0  0  0
    5.5794   -2.8332    1.0999 H   0  0  0  0  0  0  0  0  0  0  0  0
    6.1425   -4.3482    0.3921 H   0  0  0  0  0  0  0  0  0  0  0  0
    8.6793   -1.1625    0.0983 H   0  0  0  0  0  0  0  0  0  0  0  0
    7.1598   -0.8754    0.9482 H   0  0  0  0  0  0  0  0  0  0  0  0
    7.5601   -1.4664   -2.0460 H   0  0  0  0  0  0  0  0  0  0  0  0
    7.0608    0.0766   -1.3798 H   0  0  0  0  0  0  0  0  0  0  0  0
   -1.8610    2.5694    1.3271 H   0  0  0  0  0  0  0  0  0  0  0  0
   -3.2038    1.4399    1.4390 H   0  0  0  0  0  0  0  0  0  0  0  0
   -1.9396    1.4161    2.6745 H   0  0  0  0  0  0  0  0  0  0  0  0
    0.2384    1.1246    2.8290 H   0  0  0  0  0  0  0  0  0  0  0  0
    0.8171   -0.3195    2.3665 H   0  0  0  0  0  0  0  0  0  0  0  0
  1  2  1  0  0  0  0
  1  6  2  0  0  0  0
  1  7  1  0  0  0  0
  2  3  1  0  0  0  0
  2 17  1  0  0  0  0
  2 18  1  0  0  0  0
  3  4  1  0  0  0  0
  3 16  1  0  0  0  0
  3 19  1  0  0  0  0
  4  5  1  0  0  0  0
  4 20  1  0  0  0  0
  4 21  1  0  0  0  0
  5 22  1  0  0  0  0
  5 23  1  0  0  0  0
  5 24  1  0  0  0  0
  7  8  1  0  0  0  0
  7 25  1  0  0  0  0
  8  9  1  0  0  0  0
  8 26  1  0  0  0  0
  8 27  1  0  0  0  0
  9 10  1  0  0  0  0
  9 28  1  0  0  0  0
  9 29  1  0  0  0  0
 10 11  1  0  0  0  0
 10 15  1  0  0  0  0
 11 12  1  0  0  0  0
 11 30  1  0  0  0  0
 11 31  1  0  0  0  0
 12 13  1  0  0  0  0
 12 32  1  0  0  0  0
 12 33  1  0  0  0  0
 13 14  1  0  0  0  0
 14 15  1  0  0  0  0
 14 34  1  0  0  0  0
 14 35  1  0  0  0  0
 15 36  1  0  0  0  0
 15 37  1  0  0  0  0
 16 38  1  0  0  0  0
 16 39  1  0  0  0  0
 16 40  1  0  0  0  0
 17 41  1  0  0  0  0
 17 42  1  0  0  0  0
M  END
>  <Mol_ID>
6036

>  <Formula>
C12H25N3O2

>  <MolWeight>
243.3458

>  <Cat>
S9848

>  <Name>
LM11A-31

>  <Synonyms>
N/A

>  <Target>
Others

>  <Form>
Free Base

>  <CAS>
289475-77-0

>  <URL>
http://www.selleckchem.com/products/lm11a-31.html

$$$$
