LMK-235.cdx
 OpenBabel08302519583D

 43 43  0  0  0  0  0  0  0  0999 V2000
    0.9660   -0.7475    1.5473 C   0  0  0  0  0  0  0  0  0  0  0  0
    1.5498   -0.7803    0.2767 C   0  0  0  0  0  0  0  0  0  0  0  0
    1.0224   -0.0165   -0.7708 C   0  0  0  0  0  0  0  0  0  0  0  0
   -0.0973    0.7971   -0.5374 C   0  0  0  0  0  0  0  0  0  0  0  0
   -0.6839    0.8627    0.7350 C   0  0  0  0  0  0  0  0  0  0  0  0
   -0.1342    0.0925    1.7730 C   0  0  0  0  0  0  0  0  0  0  0  0
    1.4987   -1.6030    2.6599 C   0  0  0  0  0  0  0  0  0  0  0  0
    1.6561   -0.0473   -2.1326 C   0  0  0  0  0  0  0  0  0  0  0  0
   -1.9276    1.6508    1.0259 C   0  0  0  0  0  0  0  0  0  0  0  0
   -2.4938    2.3216   -0.0401 N   0  0  0  0  0  0  0  0  0  0  0  0
   -3.6739    3.0593    0.2264 O   0  0  0  0  0  0  0  0  0  0  0  0
   -4.7828    2.1850   -0.0141 C   0  0  0  0  0  0  0  0  0  0  0  0
   -6.0984    2.9498    0.1072 C   0  0  0  0  0  0  0  0  0  0  0  0
   -7.3282    2.0662   -0.1462 C   0  0  0  0  0  0  0  0  0  0  0  0
   -7.4200    0.9026    0.8408 C   0  0  0  0  0  0  0  0  0  0  0  0
   -8.6568    0.0322    0.6408 C   0  0  0  0  0  0  0  0  0  0  0  0
   -8.5987   -1.1129    1.6280 C   0  0  0  0  0  0  0  0  0  0  0  0
   -2.4131    1.6247    2.1539 O   0  0  0  0  0  0  0  0  0  0  0  0
   -9.1981   -0.8524    2.8372 N   0  0  0  0  0  0  0  0  0  0  0  0
   -8.9671   -1.8182    3.8458 O   0  0  0  0  0  0  0  0  0  0  0  0
   -8.0044   -2.1650    1.4020 O   0  0  0  0  0  0  0  0  0  0  0  0
    2.4137   -1.4189    0.0974 H   0  0  0  0  0  0  0  0  0  0  0  0
   -0.5005    1.3516   -1.3777 H   0  0  0  0  0  0  0  0  0  0  0  0
   -0.5856    0.1246    2.7643 H   0  0  0  0  0  0  0  0  0  0  0  0
    1.9579   -0.9804    3.4333 H   0  0  0  0  0  0  0  0  0  0  0  0
    0.6880   -2.1913    3.1027 H   0  0  0  0  0  0  0  0  0  0  0  0
    2.2525   -2.3094    2.2956 H   0  0  0  0  0  0  0  0  0  0  0  0
    0.8906   -0.1896   -2.9038 H   0  0  0  0  0  0  0  0  0  0  0  0
    2.1823    0.8945   -2.3196 H   0  0  0  0  0  0  0  0  0  0  0  0
    2.3713   -0.8671   -2.2232 H   0  0  0  0  0  0  0  0  0  0  0  0
   -1.9359    2.6804   -0.8017 H   0  0  0  0  0  0  0  0  0  0  0  0
   -4.6980    1.7543   -1.0191 H   0  0  0  0  0  0  0  0  0  0  0  0
   -4.7415    1.3782    0.7235 H   0  0  0  0  0  0  0  0  0  0  0  0
   -6.1658    3.4096    1.1009 H   0  0  0  0  0  0  0  0  0  0  0  0
   -6.0978    3.7838   -0.6054 H   0  0  0  0  0  0  0  0  0  0  0  0
   -8.2306    2.6856   -0.0668 H   0  0  0  0  0  0  0  0  0  0  0  0
   -7.2976    1.6811   -1.1731 H   0  0  0  0  0  0  0  0  0  0  0  0
   -6.5417    0.2556    0.7361 H   0  0  0  0  0  0  0  0  0  0  0  0
   -7.4033    1.2900    1.8658 H   0  0  0  0  0  0  0  0  0  0  0  0
   -9.5755    0.6096    0.7918 H   0  0  0  0  0  0  0  0  0  0  0  0
   -8.6930   -0.3865   -0.3709 H   0  0  0  0  0  0  0  0  0  0  0  0
   -9.3942    0.0899    3.1568 H   0  0  0  0  0  0  0  0  0  0  0  0
   -8.3637   -2.4522    3.3982 H   0  0  0  0  0  0  0  0  0  0  0  0
  1  2  2  0  0  0  0
  1  7  1  0  0  0  0
  2  3  1  0  0  0  0
  2 22  1  0  0  0  0
  3  4  2  0  0  0  0
  3  8  1  0  0  0  0
  4  5  1  0  0  0  0
  4 23  1  0  0  0  0
  5  6  2  0  0  0  0
  5  9  1  0  0  0  0
  6  1  1  0  0  0  0
  6 24  1  0  0  0  0
  7 25  1  0  0  0  0
  7 26  1  0  0  0  0
  7 27  1  0  0  0  0
  8 28  1  0  0  0  0
  8 29  1  0  0  0  0
  8 30  1  0  0  0  0
  9 10  1  0  0  0  0
  9 18  2  0  0  0  0
 10 11  1  0  0  0  0
 10 31  1  0  0  0  0
 11 12  1  0  0  0  0
 12 13  1  0  0  0  0
 12 32  1  0  0  0  0
 12 33  1  0  0  0  0
 13 14  1  0  0  0  0
 13 34  1  0  0  0  0
 13 35  1  0  0  0  0
 14 15  1  0  0  0  0
 14 36  1  0  0  0  0
 14 37  1  0  0  0  0
 15 16  1  0  0  0  0
 15 38  1  0  0  0  0
 15 39  1  0  0  0  0
 16 17  1  0  0  0  0
 16 40  1  0  0  0  0
 16 41  1  0  0  0  0
 17 19  1  0  0  0  0
 17 21  2  0  0  0  0
 19 20  1  0  0  0  0
 19 42  1  0  0  0  0
 20 43  1  0  0  0  0
M  END
>  <Mol_ID>
2518

>  <Formula>
C15H22N2O4

>  <MolWeight>
294.34618

>  <Cat>
S7569

>  <Name>
LMK-235

>  <Synonyms>
N/A

>  <Target>
HDAC

>  <Form>
free base

>  <CAS>
1418033-25-6

>  <URL>
http://selleckchem.com/products/lmk-235.html

$$$$
