LMT-28
 OpenBabel08302521333D

 51 51  0  0  0  0  0  0  0  0999 V2000
   -0.7583   -1.1663    1.4446 C   0  0  0  0  0  0  0  0  0  0  0  0
    0.2081   -1.4926    0.2798 C   0  0  2  0  0  0  0  0  0  0  0  0
   -0.9242   -2.0719    2.2781 O   0  0  0  0  0  0  0  0  0  0  0  0
    1.4692   -0.5902    0.1005 C   0  0  1  0  0  0  0  0  0  0  0  0
   -0.5905   -1.9307   -0.9573 C   0  0  0  0  0  0  0  0  0  0  0  0
    2.6350   -1.1497   -0.7447 C   0  0  0  0  0  0  0  0  0  0  0  0
    1.1745    0.7000   -0.4098 O   0  0  0  0  0  0  0  0  0  0  0  0
    3.9494   -0.3701   -0.7515 C   0  0  0  0  0  0  0  0  0  0  0  0
    2.5813   -2.2642   -1.5002 C   0  0  0  0  0  0  0  0  0  0  0  0
    4.6766   -0.2266    0.5931 C   0  0  0  0  0  0  0  0  0  0  0  0
    4.9675   -1.5256    1.3537 C   0  0  0  0  0  0  0  0  0  0  0  0
    5.8941   -2.4944    0.6159 C   0  0  0  0  0  0  0  0  0  0  0  0
    6.1649   -3.7396    1.4506 C   0  0  0  0  0  0  0  0  0  0  0  0
   -2.3252    0.3239    3.9886 C   0  0  0  0  0  0  0  0  0  0  0  0
   -3.6395    0.4555    4.7951 C   0  0  0  0  0  0  0  0  0  0  0  0
   -1.4469   -0.7085    4.6874 C   0  0  0  0  0  0  0  0  0  0  0  0
   -1.4450    0.7540   -0.7173 O   0  0  0  0  0  0  0  0  0  0  0  0
   -1.5678   -0.0337    1.4967 N   0  0  0  0  0  0  0  0  0  0  0  0
   -2.6437    0.0412    2.4883 C   0  0  2  0  0  0  0  0  0  0  0  0
   -1.9995    0.6490    0.3584 C   0  0  0  0  0  0  0  0  0  0  0  0
   -3.5128    1.1660    1.9475 C   0  0  0  0  0  0  0  0  0  0  0  0
   -3.2189    1.2374    0.5664 O   0  0  0  0  0  0  0  0  0  0  0  0
    0.6689   -2.4312    0.6362 H   0  0  0  0  0  0  0  0  0  0  0  0
    1.8611   -0.4185    1.1093 H   0  0  0  0  0  0  0  0  0  0  0  0
   -0.1290   -1.6268   -1.8989 H   0  0  0  0  0  0  0  0  0  0  0  0
   -0.6629   -3.0273   -0.9598 H   0  0  0  0  0  0  0  0  0  0  0  0
   -1.6297   -1.5946   -0.9597 H   0  0  0  0  0  0  0  0  0  0  0  0
    1.0547    0.6245   -1.3733 H   0  0  0  0  0  0  0  0  0  0  0  0
    4.6550   -0.8305   -1.4582 H   0  0  0  0  0  0  0  0  0  0  0  0
    3.7651    0.6314   -1.1606 H   0  0  0  0  0  0  0  0  0  0  0  0
    1.7097   -2.8990   -1.5794 H   0  0  0  0  0  0  0  0  0  0  0  0
    3.4325   -2.5873   -2.0946 H   0  0  0  0  0  0  0  0  0  0  0  0
    5.6277    0.2916    0.4119 H   0  0  0  0  0  0  0  0  0  0  0  0
    4.0931    0.4349    1.2448 H   0  0  0  0  0  0  0  0  0  0  0  0
    5.4330   -1.2573    2.3115 H   0  0  0  0  0  0  0  0  0  0  0  0
    4.0262   -2.0301    1.6004 H   0  0  0  0  0  0  0  0  0  0  0  0
    5.4500   -2.8023   -0.3358 H   0  0  0  0  0  0  0  0  0  0  0  0
    6.8467   -2.0031    0.3869 H   0  0  0  0  0  0  0  0  0  0  0  0
    5.2304   -4.2382    1.7284 H   0  0  0  0  0  0  0  0  0  0  0  0
    6.7739   -4.4530    0.8860 H   0  0  0  0  0  0  0  0  0  0  0  0
    6.7047   -3.4871    2.3693 H   0  0  0  0  0  0  0  0  0  0  0  0
   -1.7958    1.2828    4.0582 H   0  0  0  0  0  0  0  0  0  0  0  0
   -4.3885   -0.2758    4.4688 H   0  0  0  0  0  0  0  0  0  0  0  0
   -3.4811    0.3048    5.8688 H   0  0  0  0  0  0  0  0  0  0  0  0
   -4.0726    1.4546    4.6746 H   0  0  0  0  0  0  0  0  0  0  0  0
   -0.4453   -0.7391    4.2503 H   0  0  0  0  0  0  0  0  0  0  0  0
   -1.3098   -0.4437    5.7433 H   0  0  0  0  0  0  0  0  0  0  0  0
   -1.8944   -1.7076    4.6564 H   0  0  0  0  0  0  0  0  0  0  0  0
   -3.2008   -0.9039    2.4135 H   0  0  0  0  0  0  0  0  0  0  0  0
   -4.5795    0.9629    2.0861 H   0  0  0  0  0  0  0  0  0  0  0  0
   -3.2833    2.1421    2.3892 H   0  0  0  0  0  0  0  0  0  0  0  0
  1  3  2  0  0  0  0
  1 18  1  0  0  0  0
  2  5  1  0  0  0  0
  2 23  1  1  0  0  0
  2  4  1  0  0  0  0
  2  1  1  0  0  0  0
  4  6  1  0  0  0  0
  4  7  1  0  0  0  0
  4 24  1  1  0  0  0
  5 25  1  0  0  0  0
  5 26  1  0  0  0  0
  5 27  1  0  0  0  0
  6  8  1  0  0  0  0
  6  9  2  0  0  0  0
  7 28  1  0  0  0  0
  8 10  1  0  0  0  0
  8 29  1  0  0  0  0
  8 30  1  0  0  0  0
  9 31  1  0  0  0  0
  9 32  1  0  0  0  0
 10 11  1  0  0  0  0
 10 33  1  0  0  0  0
 10 34  1  0  0  0  0
 11 12  1  0  0  0  0
 11 35  1  0  0  0  0
 11 36  1  0  0  0  0
 12 13  1  0  0  0  0
 12 37  1  0  0  0  0
 12 38  1  0  0  0  0
 13 39  1  0  0  0  0
 13 40  1  0  0  0  0
 13 41  1  0  0  0  0
 14 15  1  0  0  0  0
 14 16  1  0  0  0  0
 14 42  1  0  0  0  0
 15 43  1  0  0  0  0
 15 44  1  0  0  0  0
 15 45  1  0  0  0  0
 16 46  1  0  0  0  0
 16 47  1  0  0  0  0
 16 48  1  0  0  0  0
 17 20  2  0  0  0  0
 18 19  1  0  0  0  0
 18 20  1  0  0  0  0
 19 21  1  0  0  0  0
 19 49  1  6  0  0  0
 19 14  1  0  0  0  0
 20 22  1  0  0  0  0
 21 22  1  0  0  0  0
 21 50  1  0  0  0  0
 21 51  1  0  0  0  0
M  END
>  <Mol_ID>
6414

>  <Formula>
C17H29NO4

>  <MolWeight>
311.41646

>  <Cat>
E1153

>  <Name>
LMT-28

>  <Target>
Interleukins

>  <Form>
free base

>  <CAS>
1239600-18-0

>  <URL>
http://www.selleckchem.com/products/lmt-28.html

$$$$
