LOC14
 OpenBabel08302521273D

 41 44  0  0  0  0  0  0  0  0999 V2000
    6.2676   -0.4291   -1.3823 S   0  0  0  0  0  0  0  0  0  0  0  0
    0.4412   -1.3870    4.4348 O   0  0  0  0  0  0  0  0  0  0  0  0
    2.7282   -1.2035   -2.5616 O   0  0  0  0  0  0  0  0  0  0  0  0
    1.9443   -1.6858    2.7178 N   0  0  0  0  0  0  0  0  0  0  0  0
    4.2948   -0.7591    1.1586 N   0  0  0  0  0  0  0  0  0  0  0  0
    4.5688   -0.6798   -1.2224 N   0  0  0  0  0  0  0  0  0  0  0  0
    0.0656   -3.2687    3.0662 C   0  0  0  0  0  0  0  0  0  0  0  0
   -1.3157   -3.5123    3.6393 C   0  0  0  0  0  0  0  0  0  0  0  0
   -0.1747   -4.4020    4.0353 C   0  0  0  0  0  0  0  0  0  0  0  0
    0.8302   -2.0473    3.4756 C   0  0  0  0  0  0  0  0  0  0  0  0
    2.4315   -2.4516    1.5700 C   0  0  0  0  0  0  0  0  0  0  0  0
    2.3474   -0.2799    2.7609 C   0  0  0  0  0  0  0  0  0  0  0  0
    3.9170   -2.1793    1.2614 C   0  0  0  0  0  0  0  0  0  0  0  0
    3.8119   -0.0323    2.3522 C   0  0  0  0  0  0  0  0  0  0  0  0
    3.8383   -0.1435   -0.0871 C   0  0  0  0  0  0  0  0  0  0  0  0
    3.9249   -1.0121   -2.4054 C   0  0  0  0  0  0  0  0  0  0  0  0
    4.8897   -1.0604   -3.5213 C   0  0  0  0  0  0  0  0  0  0  0  0
    6.1887   -0.7724   -3.1150 C   0  0  0  0  0  0  0  0  0  0  0  0
    4.5734   -1.2743   -4.8563 C   0  0  0  0  0  0  0  0  0  0  0  0
    7.2201   -0.7221   -4.0423 C   0  0  0  0  0  0  0  0  0  0  0  0
    5.6042   -1.1941   -5.7979 C   0  0  0  0  0  0  0  0  0  0  0  0
    6.9206   -0.9260   -5.3949 C   0  0  0  0  0  0  0  0  0  0  0  0
    0.1461   -3.5331    2.0174 H   0  0  0  0  0  0  0  0  0  0  0  0
   -1.6998   -2.8202    4.3814 H   0  0  0  0  0  0  0  0  0  0  0  0
   -2.0731   -3.9066    2.9721 H   0  0  0  0  0  0  0  0  0  0  0  0
   -0.1697   -5.4145    3.6486 H   0  0  0  0  0  0  0  0  0  0  0  0
    0.1972   -4.3112    5.0500 H   0  0  0  0  0  0  0  0  0  0  0  0
    2.3131   -3.5203    1.7729 H   0  0  0  0  0  0  0  0  0  0  0  0
    1.7967   -2.1968    0.7132 H   0  0  0  0  0  0  0  0  0  0  0  0
    1.6716    0.2578    2.0839 H   0  0  0  0  0  0  0  0  0  0  0  0
    2.1830    0.1271    3.7661 H   0  0  0  0  0  0  0  0  0  0  0  0
    4.5134   -2.6165    2.0654 H   0  0  0  0  0  0  0  0  0  0  0  0
    4.2018   -2.7295    0.3561 H   0  0  0  0  0  0  0  0  0  0  0  0
    4.4519   -0.3342    3.1889 H   0  0  0  0  0  0  0  0  0  0  0  0
    3.9786    1.0433    2.2365 H   0  0  0  0  0  0  0  0  0  0  0  0
    4.0392    0.9368   -0.0825 H   0  0  0  0  0  0  0  0  0  0  0  0
    2.7589   -0.2566   -0.2422 H   0  0  0  0  0  0  0  0  0  0  0  0
    3.5495   -1.4647   -5.1611 H   0  0  0  0  0  0  0  0  0  0  0  0
    8.2387   -0.5012   -3.7328 H   0  0  0  0  0  0  0  0  0  0  0  0
    5.3800   -1.3217   -6.8558 H   0  0  0  0  0  0  0  0  0  0  0  0
    7.7128   -0.8663   -6.1385 H   0  0  0  0  0  0  0  0  0  0  0  0
  1  6  1  0  0  0  0
  1 18  1  0  0  0  0
  2 10  2  0  0  0  0
  3 16  2  0  0  0  0
  4 10  1  0  0  0  0
  4 11  1  0  0  0  0
  4 12  1  0  0  0  0
  5 13  1  0  0  0  0
  5 14  1  0  0  0  0
  5 15  1  0  0  0  0
  6 15  1  0  0  0  0
  6 16  1  0  0  0  0
  7  8  1  0  0  0  0
  7  9  1  0  0  0  0
  7 10  1  0  0  0  0
  7 23  1  0  0  0  0
  8  9  1  0  0  0  0
  8 24  1  0  0  0  0
  8 25  1  0  0  0  0
  9 26  1  0  0  0  0
  9 27  1  0  0  0  0
 11 13  1  0  0  0  0
 11 28  1  0  0  0  0
 11 29  1  0  0  0  0
 12 14  1  0  0  0  0
 12 30  1  0  0  0  0
 12 31  1  0  0  0  0
 13 32  1  0  0  0  0
 13 33  1  0  0  0  0
 14 34  1  0  0  0  0
 14 35  1  0  0  0  0
 15 36  1  0  0  0  0
 15 37  1  0  0  0  0
 16 17  1  0  0  0  0
 17 18  2  0  0  0  0
 17 19  1  0  0  0  0
 18 20  1  0  0  0  0
 19 21  2  0  0  0  0
 19 38  1  0  0  0  0
 20 22  2  0  0  0  0
 20 39  1  0  0  0  0
 21 22  1  0  0  0  0
 21 40  1  0  0  0  0
 22 41  1  0  0  0  0
M  END
>  <Mol_ID>
5366

>  <Formula>
C16H19N3O2S

>  <MolWeight>
317.40596

>  <Cat>
S0321

>  <Name>
LOC14

>  <Synonyms>
N/A

>  <Target>
PDI

>  <Form>
Free Base

>  <CAS>
877963-94-5

>  <URL>
https://www.selleckchem.com/products/loc14.html

$$$$
