Loganetin
 OpenBabel08302521553D

 32 33  0  0  1  0  0  0  0  0999 V2000
    0.8835    0.0029    0.1021 C   0  0  0  0  0  0  0  0  0  0  0  0
    0.4556    1.2837   -0.0198 O   0  0  0  0  0  0  0  0  0  0  0  0
    0.1833   -0.9832    0.2410 O   0  0  0  0  0  0  0  0  0  0  0  0
   -0.9508    1.5360    0.0487 C   0  0  0  0  0  0  0  0  0  0  0  0
    5.9664   -2.5630    1.3722 C   0  0  0  0  0  0  0  0  0  0  0  0
    6.3786    0.1747   -0.8102 O   0  0  0  0  0  0  0  0  0  0  0  0
    3.8966   -4.3535    1.2073 O   0  0  0  0  0  0  0  0  0  0  0  0
    3.1363   -1.2927    0.3827 C   0  0  1  0  0  0  0  0  0  0  0  0
    4.5094   -1.2230   -0.2954 C   0  0  3  0  0  0  0  0  0  0  0  0
    2.3787   -0.0377    0.0663 C   0  0  0  0  0  0  0  0  0  0  0  0
    2.6869   -2.6776   -0.0947 C   0  0  0  0  0  0  0  0  0  0  0  0
    5.1710   -2.5624    0.0655 C   0  0  3  0  0  0  0  0  0  0  0  0
    5.2278    0.0794    0.0173 C   0  0  3  0  0  0  0  0  0  0  0  0
    3.0650    1.0885   -0.1997 C   0  0  0  0  0  0  0  0  0  0  0  0
    3.9635   -3.5408    0.0449 C   0  0  3  0  0  0  0  0  0  0  0  0
    4.4262    1.2325   -0.2537 O   0  0  0  0  0  0  0  0  0  0  0  0
   -1.3371    1.6679   -0.9657 H   0  0  0  0  0  0  0  0  0  0  0  0
   -1.5026    0.7496    0.5692 H   0  0  0  0  0  0  0  0  0  0  0  0
   -1.0912    2.4762    0.5922 H   0  0  0  0  0  0  0  0  0  0  0  0
    6.3655   -3.5619    1.5815 H   0  0  0  0  0  0  0  0  0  0  0  0
    6.8237   -1.8848    1.3111 H   0  0  0  0  0  0  0  0  0  0  0  0
    5.3563   -2.2560    2.2279 H   0  0  0  0  0  0  0  0  0  0  0  0
    6.0222    0.3488   -1.6988 H   0  0  0  0  0  0  0  0  0  0  0  0
    3.6152   -3.8077    1.9607 H   0  0  0  0  0  0  0  0  0  0  0  0
    3.2479   -1.3306    1.4758 H   0  0  0  0  0  0  0  0  0  0  0  0
    4.3529   -1.2418   -1.3881 H   0  0  0  0  0  0  0  0  0  0  0  0
    1.8518   -3.0734    0.4909 H   0  0  0  0  0  0  0  0  0  0  0  0
    2.3842   -2.6371   -1.1490 H   0  0  0  0  0  0  0  0  0  0  0  0
    5.8679   -2.8343   -0.7377 H   0  0  0  0  0  0  0  0  0  0  0  0
    5.5539    0.1320    1.0603 H   0  0  0  0  0  0  0  0  0  0  0  0
    2.6136    2.0517   -0.4158 H   0  0  0  0  0  0  0  0  0  0  0  0
    4.0476   -4.2197   -0.8106 H   0  0  0  0  0  0  0  0  0  0  0  0
  1  2  1  0  0  0  0
  1  3  2  0  0  0  0
  1 10  1  0  0  0  0
  2  4  1  0  0  0  0
  4 17  1  0  0  0  0
  4 18  1  0  0  0  0
  4 19  1  0  0  0  0
  5 20  1  0  0  0  0
  5 21  1  0  0  0  0
  5 22  1  0  0  0  0
  6 23  1  0  0  0  0
  7 24  1  0  0  0  0
  8  9  1  0  0  0  0
  8 10  1  0  0  0  0
  8 11  1  0  0  0  0
  8 25  1  1  0  0  0
  9 12  1  0  0  0  0
  9 13  1  0  0  0  0
  9 26  1  0  0  0  0
 10 14  2  0  0  0  0
 11 15  1  0  0  0  0
 11 27  1  0  0  0  0
 11 28  1  0  0  0  0
 12  5  1  0  0  0  0
 12 15  1  0  0  0  0
 12 29  1  0  0  0  0
 13  6  1  0  0  0  0
 13 16  1  0  0  0  0
 13 30  1  0  0  0  0
 14 16  1  0  0  0  0
 14 31  1  0  0  0  0
 15  7  1  0  0  0  0
 15 32  1  0  0  0  0
M  END
>  <Mol_ID>
10029

>  <Formula>
C11H16O5

>  <MolWeight>
228.24174

>  <Cat>
E5559

>  <Name>
Loganetin

>  <Synonyms>
NA

>  <Target>
TLR4

>  <Form>
Free Base

>  <CAS>
29748-10-5

>  <URL>
https://www.selleckchem.com/products/loganetin.html

$$$$
