Lomefloxacin hydrochloride.cdx
 OpenBabel08302521383D

 44 46  0  0  0  0  0  0  0  0999 V2000
    2.5442   -0.7244    0.1635 C   0  0  0  0  0  0  0  0  0  0  0  0
    2.5034    0.6736    0.1051 C   0  0  0  0  0  0  0  0  0  0  0  0
    1.3088    1.3730    0.0362 C   0  0  0  0  0  0  0  0  0  0  0  0
    0.0972    0.6788    0.0112 C   0  0  0  0  0  0  0  0  0  0  0  0
    0.0521   -0.7274    0.0432 C   0  0  0  0  0  0  0  0  0  0  0  0
    1.2959   -1.3851    0.1477 C   0  0  0  0  0  0  0  0  0  0  0  0
   -1.1590    1.4705   -0.0487 C   0  0  0  0  0  0  0  0  0  0  0  0
   -2.4357    0.7260   -0.0446 C   0  0  0  0  0  0  0  0  0  0  0  0
   -2.3591   -0.6149   -0.0478 C   0  0  0  0  0  0  0  0  0  0  0  0
   -1.2012   -1.3821   -0.0237 N   0  0  0  0  0  0  0  0  0  0  0  0
    3.7230   -1.4509    0.2458 N   0  0  0  0  0  0  0  0  0  0  0  0
    4.9141   -0.9397    0.9287 C   0  0  0  0  0  0  0  0  0  0  0  0
    6.1211   -0.8568   -0.0266 C   0  0  0  0  0  0  0  0  0  0  0  0
    6.3596   -2.0907   -0.8095 N   0  0  0  0  0  0  0  0  0  0  0  0
    5.1260   -2.4892   -1.5316 C   0  0  3  0  0  0  0  0  0  0  0  0
    3.9067   -2.6531   -0.5847 C   0  0  0  0  0  0  0  0  0  0  0  0
    4.8171   -1.5278   -2.6865 C   0  0  0  0  0  0  0  0  0  0  0  0
    3.6381    1.3918    0.0761 F   0  0  0  0  0  0  0  0  0  0  0  0
    1.3245   -2.7207    0.3061 F   0  0  0  0  0  0  0  0  0  0  0  0
   -1.2599   -2.8567   -0.0656 C   0  0  0  0  0  0  0  0  0  0  0  0
   -1.3104   -3.4472    1.3369 C   0  0  0  0  0  0  0  0  0  0  0  0
   -1.0953    2.6912   -0.1168 O   0  0  0  0  0  0  0  0  0  0  0  0
   -3.7767    1.3424   -0.0440 C   0  0  0  0  0  0  0  0  0  0  0  0
   -4.8096    0.7836   -0.3657 O   0  0  0  0  0  0  0  0  0  0  0  0
   -3.7921    2.6024    0.4132 O   0  0  0  0  0  0  0  0  0  0  0  0
    1.3370    2.4585   -0.0065 H   0  0  0  0  0  0  0  0  0  0  0  0
   -3.2688   -1.2150   -0.0620 H   0  0  0  0  0  0  0  0  0  0  0  0
    4.7514    0.0316    1.4062 H   0  0  0  0  0  0  0  0  0  0  0  0
    5.1499   -1.6291    1.7486 H   0  0  0  0  0  0  0  0  0  0  0  0
    6.0018   -0.0076   -0.7084 H   0  0  0  0  0  0  0  0  0  0  0  0
    7.0193   -0.6484    0.5642 H   0  0  0  0  0  0  0  0  0  0  0  0
    6.5722   -2.8345   -0.1432 H   0  0  0  0  0  0  0  0  0  0  0  0
    5.3230   -3.4695   -1.9839 H   0  0  0  0  0  0  0  0  0  0  0  0
    4.0729   -3.5099    0.0805 H   0  0  0  0  0  0  0  0  0  0  0  0
    3.0279   -2.8916   -1.1960 H   0  0  0  0  0  0  0  0  0  0  0  0
    5.6852   -1.4212   -3.3455 H   0  0  0  0  0  0  0  0  0  0  0  0
    3.9870   -1.9091   -3.2913 H   0  0  0  0  0  0  0  0  0  0  0  0
    4.5329   -0.5292   -2.3392 H   0  0  0  0  0  0  0  0  0  0  0  0
   -2.1505   -3.1751   -0.6209 H   0  0  0  0  0  0  0  0  0  0  0  0
   -0.4339   -3.2865   -0.6430 H   0  0  0  0  0  0  0  0  0  0  0  0
   -2.1734   -3.0734    1.8975 H   0  0  0  0  0  0  0  0  0  0  0  0
   -1.3856   -4.5376    1.2814 H   0  0  0  0  0  0  0  0  0  0  0  0
   -0.4129   -3.2020    1.9132 H   0  0  0  0  0  0  0  0  0  0  0  0
   -4.7255    2.8876    0.3522 H   0  0  0  0  0  0  0  0  0  0  0  0
  1  2  2  0  0  0  0
  1 11  1  0  0  0  0
  2  3  1  0  0  0  0
  2 18  1  0  0  0  0
  3  4  2  0  0  0  0
  3 26  1  0  0  0  0
  4  5  1  0  0  0  0
  4  7  1  0  0  0  0
  5  6  2  0  0  0  0
  6  1  1  0  0  0  0
  6 19  1  0  0  0  0
  7  8  1  0  0  0  0
  7 22  2  0  0  0  0
  8  9  2  0  0  0  0
  8 23  1  0  0  0  0
  9 10  1  0  0  0  0
  9 27  1  0  0  0  0
 10  5  1  0  0  0  0
 10 20  1  0  0  0  0
 11 12  1  0  0  0  0
 12 13  1  0  0  0  0
 12 28  1  0  0  0  0
 12 29  1  0  0  0  0
 13 14  1  0  0  0  0
 13 30  1  0  0  0  0
 13 31  1  0  0  0  0
 14 15  1  0  0  0  0
 14 32  1  0  0  0  0
 15 16  1  0  0  0  0
 15 17  1  0  0  0  0
 15 33  1  0  0  0  0
 16 11  1  0  0  0  0
 16 34  1  0  0  0  0
 16 35  1  0  0  0  0
 17 36  1  0  0  0  0
 17 37  1  0  0  0  0
 17 38  1  0  0  0  0
 20 21  1  0  0  0  0
 20 39  1  0  0  0  0
 20 40  1  0  0  0  0
 21 41  1  0  0  0  0
 21 42  1  0  0  0  0
 21 43  1  0  0  0  0
 23 24  2  0  0  0  0
 23 25  1  0  0  0  0
 25 44  1  0  0  0  0
M  END
>  <Mol_ID>
7706

>  <Formula>
C17H20ClF2N3O3

>  <MolWeight>
387.8088064

>  <Cat>
S2539

>  <Name>
Lomefloxacin HCl

>  <Synonyms>
N/A

>  <Target>
Antibiotics

>  <Form>
Hydrochloride

>  <CAS>
98079-52-8

>  <URL>
http://selleckchem.com/products/Lomefloxacin-hydrochloride-Maxaquin.html

$$$$
