Longdaysin
 OpenBabel08302520403D

 40 42  0  0  0  0  0  0  0  0999 V2000
    1.6509   -1.1169   -0.0912 N   0  0  0  0  0  0  0  0  0  0  0  0
    2.3411    0.0047   -0.0436 C   0  0  0  0  0  0  0  0  0  0  0  0
    1.5316    1.1092   -0.0159 N   0  0  0  0  0  0  0  0  0  0  0  0
    0.2357    0.6626   -0.0154 C   0  0  0  0  0  0  0  0  0  0  0  0
   -0.8822    1.4015    0.0205 N   0  0  0  0  0  0  0  0  0  0  0  0
   -1.9767    0.6207    0.0272 C   0  0  0  0  0  0  0  0  0  0  0  0
   -2.0427   -0.7295    0.0106 N   0  0  0  0  0  0  0  0  0  0  0  0
   -0.8854   -1.4501   -0.0646 C   0  0  0  0  0  0  0  0  0  0  0  0
    0.3268   -0.7201   -0.0666 C   0  0  0  0  0  0  0  0  0  0  0  0
   -0.9433   -2.8272   -0.1677 N   0  0  0  0  0  0  0  0  0  0  0  0
   -2.0136   -3.5500    0.4926 C   0  0  0  0  0  0  0  0  0  0  0  0
   -1.4782   -4.4883    1.5576 C   0  0  0  0  0  0  0  0  0  0  0  0
   -0.8017   -3.9855    2.6822 C   0  0  0  0  0  0  0  0  0  0  0  0
   -0.3346   -4.8398    3.6964 C   0  0  0  0  0  0  0  0  0  0  0  0
   -0.5592   -6.2186    3.5776 C   0  0  0  0  0  0  0  0  0  0  0  0
   -1.2396   -6.7318    2.4726 C   0  0  0  0  0  0  0  0  0  0  0  0
   -1.6957   -5.8751    1.4694 C   0  0  0  0  0  0  0  0  0  0  0  0
    0.3957   -4.2961    4.9011 C   0  0  0  0  0  0  0  0  0  0  0  0
    0.5403   -2.9416    4.8916 F   0  0  0  0  0  0  0  0  0  0  0  0
   -0.2372   -4.5926    6.0710 F   0  0  0  0  0  0  0  0  0  0  0  0
    1.6539   -4.8043    5.0218 F   0  0  0  0  0  0  0  0  0  0  0  0
    1.9782    2.4988   -0.0024 C   0  0  0  0  0  0  0  0  0  0  0  0
    1.5196    3.2612   -1.2448 C   0  0  0  0  0  0  0  0  0  0  0  0
    1.5800    3.2261    1.2807 C   0  0  0  0  0  0  0  0  0  0  0  0
    3.4199    0.0729   -0.0313 H   0  0  0  0  0  0  0  0  0  0  0  0
   -2.9299    1.1325    0.0486 H   0  0  0  0  0  0  0  0  0  0  0  0
   -0.0519   -3.2957   -0.2874 H   0  0  0  0  0  0  0  0  0  0  0  0
   -2.7605   -2.8999    0.9637 H   0  0  0  0  0  0  0  0  0  0  0  0
   -2.5486   -4.1266   -0.2705 H   0  0  0  0  0  0  0  0  0  0  0  0
   -0.6421   -2.9099    2.7671 H   0  0  0  0  0  0  0  0  0  0  0  0
   -0.2069   -6.9000    4.3519 H   0  0  0  0  0  0  0  0  0  0  0  0
   -1.4156   -7.8018    2.3933 H   0  0  0  0  0  0  0  0  0  0  0  0
   -2.2354   -6.2930    0.6237 H   0  0  0  0  0  0  0  0  0  0  0  0
    3.0777    2.4619   -0.0293 H   0  0  0  0  0  0  0  0  0  0  0  0
    0.4301    3.3584   -1.2859 H   0  0  0  0  0  0  0  0  0  0  0  0
    1.9427    4.2714   -1.2581 H   0  0  0  0  0  0  0  0  0  0  0  0
    1.8421    2.7488   -2.1578 H   0  0  0  0  0  0  0  0  0  0  0  0
    1.9497    2.6921    2.1618 H   0  0  0  0  0  0  0  0  0  0  0  0
    2.0058    4.2348    1.3030 H   0  0  0  0  0  0  0  0  0  0  0  0
    0.4945    3.3194    1.3801 H   0  0  0  0  0  0  0  0  0  0  0  0
  1  2  2  0  0  0  0
  1  9  1  0  0  0  0
  2  3  1  0  0  0  0
  2 25  1  0  0  0  0
  3  4  1  0  0  0  0
  3 22  1  0  0  0  0
  4  5  1  0  0  0  0
  4  9  2  0  0  0  0
  5  6  2  0  0  0  0
  6  7  1  0  0  0  0
  6 26  1  0  0  0  0
  7  8  2  0  0  0  0
  8  9  1  0  0  0  0
  8 10  1  0  0  0  0
 10 11  1  0  0  0  0
 10 27  1  0  0  0  0
 11 12  1  0  0  0  0
 11 28  1  0  0  0  0
 11 29  1  0  0  0  0
 12 13  2  0  0  0  0
 12 17  1  0  0  0  0
 13 14  1  0  0  0  0
 13 30  1  0  0  0  0
 14 15  2  0  0  0  0
 14 18  1  0  0  0  0
 15 16  1  0  0  0  0
 15 31  1  0  0  0  0
 16 17  2  0  0  0  0
 16 32  1  0  0  0  0
 17 33  1  0  0  0  0
 18 19  1  0  0  0  0
 18 20  1  0  0  0  0
 18 21  1  0  0  0  0
 22 23  1  0  0  0  0
 22 24  1  0  0  0  0
 22 34  1  0  0  0  0
 23 35  1  0  0  0  0
 23 36  1  0  0  0  0
 23 37  1  0  0  0  0
 24 38  1  0  0  0  0
 24 39  1  0  0  0  0
 24 40  1  0  0  0  0
M  END
>  <Mol_ID>
3847

>  <Formula>
C16H16F3N5

>  <MolWeight>
335.3269496

>  <Cat>
S6578

>  <Name>
Longdaysin

>  <Synonyms>
N/A

>  <Target>
Casein Kinase

>  <Form>
free base

>  <CAS>
1353867-91-0

>  <URL>
http://www.selleck.cn/products/longdaysin.html

$$$$
