LOPID (gemfibrozil).cdx
 OpenBabel08302520433D

 40 40  0  0  0  0  0  0  0  0999 V2000
   -2.5681    3.0310   -0.4146 C   0  0  0  0  0  0  0  0  0  0  0  0
   -2.3753    3.8117   -1.5470 C   0  0  0  0  0  0  0  0  0  0  0  0
   -1.0966    3.9437   -2.0815 C   0  0  0  0  0  0  0  0  0  0  0  0
    0.0007    3.3559   -1.4201 C   0  0  0  0  0  0  0  0  0  0  0  0
   -0.1766    2.5756   -0.2658 C   0  0  0  0  0  0  0  0  0  0  0  0
   -1.4887    2.3705    0.2032 C   0  0  0  0  0  0  0  0  0  0  0  0
   -1.8314    1.4113    1.3080 C   0  0  0  0  0  0  0  0  0  0  0  0
   -0.9351    4.6550   -3.3979 C   0  0  0  0  0  0  0  0  0  0  0  0
    0.8489    1.9649    0.4365 O   0  0  0  0  0  0  0  0  0  0  0  0
    2.1826    2.3443    0.0793 C   0  0  0  0  0  0  0  0  0  0  0  0
    3.2677    1.8262    1.0398 C   0  0  0  0  0  0  0  0  0  0  0  0
    3.3254    0.3513    1.4705 C   0  0  0  0  0  0  0  0  0  0  0  0
    3.6044   -0.7867    0.4512 C   0  0  0  0  0  0  0  0  0  0  0  0
    3.6665   -2.1051    1.2500 C   0  0  0  0  0  0  0  0  0  0  0  0
    2.9015   -3.0493    1.1552 O   0  0  0  0  0  0  0  0  0  0  0  0
    4.6902   -2.1532    2.1202 O   0  0  0  0  0  0  0  0  0  0  0  0
    2.4684   -0.9075   -0.5720 C   0  0  0  0  0  0  0  0  0  0  0  0
    4.9381   -0.6461   -0.3059 C   0  0  0  0  0  0  0  0  0  0  0  0
   -3.5804    2.9039   -0.0349 H   0  0  0  0  0  0  0  0  0  0  0  0
   -3.2293    4.2790   -2.0325 H   0  0  0  0  0  0  0  0  0  0  0  0
    0.9851    3.4998   -1.8528 H   0  0  0  0  0  0  0  0  0  0  0  0
   -2.3520    1.9305    2.1193 H   0  0  0  0  0  0  0  0  0  0  0  0
   -2.4965    0.6360    0.9067 H   0  0  0  0  0  0  0  0  0  0  0  0
   -0.9556    0.9078    1.7222 H   0  0  0  0  0  0  0  0  0  0  0  0
   -1.4788    4.1088   -4.1783 H   0  0  0  0  0  0  0  0  0  0  0  0
   -1.3352    5.6731   -3.3394 H   0  0  0  0  0  0  0  0  0  0  0  0
    0.1136    4.7175   -3.7050 H   0  0  0  0  0  0  0  0  0  0  0  0
    2.4087    2.0073   -0.9352 H   0  0  0  0  0  0  0  0  0  0  0  0
    2.2581    3.4407    0.1000 H   0  0  0  0  0  0  0  0  0  0  0  0
    4.2456    2.1212    0.6398 H   0  0  0  0  0  0  0  0  0  0  0  0
    3.1489    2.3962    1.9740 H   0  0  0  0  0  0  0  0  0  0  0  0
    4.1238    0.3093    2.2267 H   0  0  0  0  0  0  0  0  0  0  0  0
    2.4067    0.1149    2.0219 H   0  0  0  0  0  0  0  0  0  0  0  0
    4.5893   -3.0348    2.5421 H   0  0  0  0  0  0  0  0  0  0  0  0
    2.4645   -0.0746   -1.2764 H   0  0  0  0  0  0  0  0  0  0  0  0
    2.5654   -1.8230   -1.1687 H   0  0  0  0  0  0  0  0  0  0  0  0
    1.4941   -0.9480   -0.0735 H   0  0  0  0  0  0  0  0  0  0  0  0
    5.0115    0.3059   -0.8385 H   0  0  0  0  0  0  0  0  0  0  0  0
    5.8055   -0.7295    0.3584 H   0  0  0  0  0  0  0  0  0  0  0  0
    5.0426   -1.4488   -1.0485 H   0  0  0  0  0  0  0  0  0  0  0  0
  1  2  2  0  0  0  0
  1 19  1  0  0  0  0
  2  3  1  0  0  0  0
  2 20  1  0  0  0  0
  3  4  2  0  0  0  0
  3  8  1  0  0  0  0
  4  5  1  0  0  0  0
  4 21  1  0  0  0  0
  5  6  2  0  0  0  0
  5  9  1  0  0  0  0
  6  1  1  0  0  0  0
  6  7  1  0  0  0  0
  7 22  1  0  0  0  0
  7 23  1  0  0  0  0
  7 24  1  0  0  0  0
  8 25  1  0  0  0  0
  8 26  1  0  0  0  0
  8 27  1  0  0  0  0
  9 10  1  0  0  0  0
 10 11  1  0  0  0  0
 10 28  1  0  0  0  0
 10 29  1  0  0  0  0
 11 12  1  0  0  0  0
 11 30  1  0  0  0  0
 11 31  1  0  0  0  0
 12 13  1  0  0  0  0
 12 32  1  0  0  0  0
 12 33  1  0  0  0  0
 13 14  1  0  0  0  0
 13 17  1  0  0  0  0
 13 18  1  0  0  0  0
 14 15  2  0  0  0  0
 14 16  1  0  0  0  0
 16 34  1  0  0  0  0
 17 35  1  0  0  0  0
 17 36  1  0  0  0  0
 17 37  1  0  0  0  0
 18 38  1  0  0  0  0
 18 39  1  0  0  0  0
 18 40  1  0  0  0  0
M  END
>  <Mol_ID>
415

>  <Formula>
C15H22O3

>  <MolWeight>
250.33338

>  <Cat>
S1729

>  <Name>
Gemfibrozil

>  <Synonyms>
CI-719

>  <Target>
PPAR

>  <Form>
free base

>  <CAS>
25812-30-0

>  <URL>
http://selleckchem.com/products/Gemfibrozil(Lopid).html

$$$$
