Loratadine(Alavert, Claritin).cdx
 OpenBabel08302519553D

 50 53  0  0  0  0  0  0  0  0999 V2000
    0.7307    1.2238   -0.2344 C   0  0  0  0  0  0  0  0  0  0  0  0
    1.4602   -0.0724    0.1587 C   0  0  0  0  0  0  0  0  0  0  0  0
    0.6969   -1.2496   -0.2499 N   0  0  0  0  0  0  0  0  0  0  0  0
   -0.6833   -1.2834    0.2132 C   0  0  0  0  0  0  0  0  0  0  0  0
   -1.4410   -0.0249   -0.2209 C   0  0  0  0  0  0  0  0  0  0  0  0
   -0.7297    1.2418    0.2504 C   0  0  0  0  0  0  0  0  0  0  0  0
   -1.2864    2.2348    1.0070 C   0  0  0  0  0  0  0  0  0  0  0  0
   -0.4049    3.3486    1.4534 C   0  0  0  0  0  0  0  0  0  0  0  0
   -0.0681    3.4498    2.8048 C   0  0  0  0  0  0  0  0  0  0  0  0
   -0.6431    2.4808    3.7975 C   0  0  0  0  0  0  0  0  0  0  0  0
   -2.1360    2.7367    3.9876 C   0  0  0  0  0  0  0  0  0  0  0  0
   -3.0804    2.4237    2.8389 C   0  0  0  0  0  0  0  0  0  0  0  0
   -2.7109    2.1968    1.4897 C   0  0  0  0  0  0  0  0  0  0  0  0
    0.0350    4.2173    0.5105 N   0  0  0  0  0  0  0  0  0  0  0  0
    0.8340    5.2216    0.9314 C   0  0  0  0  0  0  0  0  0  0  0  0
    1.2182    5.4052    2.2496 C   0  0  0  0  0  0  0  0  0  0  0  0
    0.7565    4.5046    3.2015 C   0  0  0  0  0  0  0  0  0  0  0  0
   -4.4523    2.4301    3.1855 C   0  0  0  0  0  0  0  0  0  0  0  0
   -5.4461    2.2034    2.2386 C   0  0  0  0  0  0  0  0  0  0  0  0
   -5.0903    1.9980    0.9149 C   0  0  0  0  0  0  0  0  0  0  0  0
   -3.7429    2.0228    0.5439 C   0  0  0  0  0  0  0  0  0  0  0  0
    1.1668   -2.2603   -1.0692 C   0  0  0  0  0  0  0  0  0  0  0  0
    0.4992   -3.2285   -1.4000 O   0  0  0  0  0  0  0  0  0  0  0  0
    2.4556   -2.0660   -1.4660 O   0  0  0  0  0  0  0  0  0  0  0  0
    3.0044   -3.0813   -2.3232 C   0  0  0  0  0  0  0  0  0  0  0  0
    3.4684   -4.2936   -1.5314 C   0  0  0  0  0  0  0  0  0  0  0  0
    1.3264    2.0605    0.1357 H   0  0  0  0  0  0  0  0  0  0  0  0
    0.7208    1.3090   -1.3288 H   0  0  0  0  0  0  0  0  0  0  0  0
    2.4638   -0.0778   -0.2766 H   0  0  0  0  0  0  0  0  0  0  0  0
    1.5771   -0.1222    1.2490 H   0  0  0  0  0  0  0  0  0  0  0  0
   -1.2040   -2.1698   -0.1607 H   0  0  0  0  0  0  0  0  0  0  0  0
   -0.6618   -1.3527    1.3084 H   0  0  0  0  0  0  0  0  0  0  0  0
   -1.5046    0.0075   -1.3175 H   0  0  0  0  0  0  0  0  0  0  0  0
   -2.4600   -0.1192    0.1552 H   0  0  0  0  0  0  0  0  0  0  0  0
   -0.4530    1.4469    3.4837 H   0  0  0  0  0  0  0  0  0  0  0  0
   -0.1347    2.5989    4.7626 H   0  0  0  0  0  0  0  0  0  0  0  0
   -2.4550    2.1399    4.8526 H   0  0  0  0  0  0  0  0  0  0  0  0
   -2.2876    3.7919    4.2579 H   0  0  0  0  0  0  0  0  0  0  0  0
    1.1692    5.9014    0.1533 H   0  0  0  0  0  0  0  0  0  0  0  0
    1.8553    6.2369    2.5302 H   0  0  0  0  0  0  0  0  0  0  0  0
    1.0268    4.6365    4.2460 H   0  0  0  0  0  0  0  0  0  0  0  0
   -4.7518    2.6281    4.2142 H   0  0  0  0  0  0  0  0  0  0  0  0
   -6.4921    2.2079    2.5336 H   0  0  0  0  0  0  0  0  0  0  0  0
   -5.8588    1.8335    0.1644 H   0  0  0  0  0  0  0  0  0  0  0  0
   -3.5011    1.9028   -0.5108 H   0  0  0  0  0  0  0  0  0  0  0  0
    2.2871   -3.3621   -3.1034 H   0  0  0  0  0  0  0  0  0  0  0  0
    3.8677   -2.6362   -2.8294 H   0  0  0  0  0  0  0  0  0  0  0  0
    2.6311   -4.7983   -1.0383 H   0  0  0  0  0  0  0  0  0  0  0  0
    3.9599   -5.0174   -2.1887 H   0  0  0  0  0  0  0  0  0  0  0  0
    4.1704   -3.9986   -0.7444 H   0  0  0  0  0  0  0  0  0  0  0  0
  1  2  1  0  0  0  0
  1 27  1  0  0  0  0
  1 28  1  0  0  0  0
  2  3  1  0  0  0  0
  2 29  1  0  0  0  0
  2 30  1  0  0  0  0
  3  4  1  0  0  0  0
  3 22  1  0  0  0  0
  4  5  1  0  0  0  0
  4 31  1  0  0  0  0
  4 32  1  0  0  0  0
  5  6  1  0  0  0  0
  5 33  1  0  0  0  0
  5 34  1  0  0  0  0
  6  1  1  0  0  0  0
  6  7  2  0  0  0  0
  7  8  1  0  0  0  0
  8  9  2  0  0  0  0
  8 14  1  0  0  0  0
  9 10  1  0  0  0  0
 10 11  1  0  0  0  0
 10 35  1  0  0  0  0
 10 36  1  0  0  0  0
 11 12  1  0  0  0  0
 11 37  1  0  0  0  0
 11 38  1  0  0  0  0
 12 13  2  0  0  0  0
 12 18  1  0  0  0  0
 13  7  1  0  0  0  0
 14 15  2  0  0  0  0
 15 16  1  0  0  0  0
 15 39  1  0  0  0  0
 16 17  2  0  0  0  0
 16 40  1  0  0  0  0
 17  9  1  0  0  0  0
 17 41  1  0  0  0  0
 18 19  2  0  0  0  0
 18 42  1  0  0  0  0
 19 20  1  0  0  0  0
 19 43  1  0  0  0  0
 20 21  2  0  0  0  0
 20 44  1  0  0  0  0
 21 13  1  0  0  0  0
 21 45  1  0  0  0  0
 22 23  2  0  0  0  0
 22 24  1  0  0  0  0
 24 25  1  0  0  0  0
 25 26  1  0  0  0  0
 25 46  1  0  0  0  0
 25 47  1  0  0  0  0
 26 48  1  0  0  0  0
 26 49  1  0  0  0  0
 26 50  1  0  0  0  0
M  END
>  <Mol_ID>
218

>  <Formula>
C22H23ClN2O2

>  <MolWeight>
382.88322

>  <Cat>
S1358

>  <Name>
Loratadine (SCH29851)

>  <Synonyms>
Alavert,Claritin,SCH29851

>  <Target>
Histamine Receptor

>  <Form>
free base

>  <CAS>
79794-75-5

>  <URL>
http://selleckchem.com/products/Loratadine.html

$$$$
