Lornoxicam.cdx
 OpenBabel08302521393D

 33 35  0  0  0  0  0  0  0  0999 V2000
    1.1002    0.0392    0.1487 N   0  0  0  0  0  0  0  0  0  0  0  0
    3.1148    0.9907   -0.8346 C   0  0  0  0  0  0  0  0  0  0  0  0
    0.3277   -0.7911    0.9761 C   0  0  0  0  0  0  0  0  0  0  0  0
    0.8908   -1.8505    1.5826 N   0  0  0  0  0  0  0  0  0  0  0  0
    0.1257   -2.6008    2.4025 C   0  0  0  0  0  0  0  0  0  0  0  0
   -1.2030   -2.3302    2.6682 C   0  0  0  0  0  0  0  0  0  0  0  0
   -1.7769   -1.2302    2.0460 C   0  0  0  0  0  0  0  0  0  0  0  0
   -1.0048   -0.4499    1.1837 C   0  0  0  0  0  0  0  0  0  0  0  0
    2.7451    2.3728   -0.5977 N   0  0  0  0  0  0  0  0  0  0  0  0
    3.2387    3.5723   -1.6703 S   0  0  0  0  0  0  0  0  0  0  0  0
    4.5006    2.9369   -2.6280 C   0  0  0  0  0  0  0  0  0  0  0  0
    4.7917    1.6002   -2.5093 C   0  0  0  0  0  0  0  0  0  0  0  0
    4.1193    0.6487   -1.6838 C   0  0  0  0  0  0  0  0  0  0  0  0
    5.2947    3.6458   -3.5653 C   0  0  0  0  0  0  0  0  0  0  0  0
    6.2122    2.8096   -4.1580 C   0  0  0  0  0  0  0  0  0  0  0  0
    6.1035    1.2097   -3.5585 S   0  0  0  0  0  0  0  0  0  0  0  0
    1.9377    2.8538    0.5304 C   0  0  0  0  0  0  0  0  0  0  0  0
    4.5706   -0.6515   -1.8620 O   0  0  0  0  0  0  0  0  0  0  0  0
    2.4419   -0.1474   -0.0999 C   0  0  0  0  0  0  0  0  0  0  0  0
    3.1001   -1.1567    0.1477 O   0  0  0  0  0  0  0  0  0  0  0  0
    2.1617    3.8135   -2.6041 O   0  0  0  0  0  0  0  0  0  0  0  0
    3.8681    4.6445   -0.9292 O   0  0  0  0  0  0  0  0  0  0  0  0
    0.6411    0.8332   -0.2703 H   0  0  0  0  0  0  0  0  0  0  0  0
    0.6318   -3.4482    2.8565 H   0  0  0  0  0  0  0  0  0  0  0  0
   -1.7713   -2.9593    3.3426 H   0  0  0  0  0  0  0  0  0  0  0  0
   -2.8170   -0.9792    2.2324 H   0  0  0  0  0  0  0  0  0  0  0  0
   -1.4520    0.4126    0.7020 H   0  0  0  0  0  0  0  0  0  0  0  0
    5.1958    4.7001   -3.7946 H   0  0  0  0  0  0  0  0  0  0  0  0
    6.9460    3.0562   -4.9144 H   0  0  0  0  0  0  0  0  0  0  0  0
    2.4015    3.7281    0.9985 H   0  0  0  0  0  0  0  0  0  0  0  0
    0.9410    3.1354    0.1751 H   0  0  0  0  0  0  0  0  0  0  0  0
    1.8353    2.1149    1.3273 H   0  0  0  0  0  0  0  0  0  0  0  0
    4.2084   -1.2194   -1.1437 H   0  0  0  0  0  0  0  0  0  0  0  0
  1  3  1  0  0  0  0
  1 23  1  0  0  0  0
  2  9  1  0  0  0  0
  2 19  1  0  0  0  0
  3  4  2  0  0  0  0
  4  5  1  0  0  0  0
  5  6  2  0  0  0  0
  5 24  1  0  0  0  0
  6  7  1  0  0  0  0
  6 25  1  0  0  0  0
  7  8  2  0  0  0  0
  7 26  1  0  0  0  0
  8  3  1  0  0  0  0
  8 27  1  0  0  0  0
  9 10  1  0  0  0  0
  9 17  1  0  0  0  0
 10 11  1  0  0  0  0
 10 21  2  0  0  0  0
 10 22  2  0  0  0  0
 11 12  2  0  0  0  0
 11 14  1  0  0  0  0
 12 13  1  0  0  0  0
 13  2  2  0  0  0  0
 13 18  1  0  0  0  0
 14 15  2  0  0  0  0
 14 28  1  0  0  0  0
 15 16  1  0  0  0  0
 15 29  1  0  0  0  0
 16 12  1  0  0  0  0
 17 30  1  0  0  0  0
 17 31  1  0  0  0  0
 17 32  1  0  0  0  0
 18 33  1  0  0  0  0
 19 20  2  0  0  0  0
 19  1  1  0  0  0  0
M  END
>  <Mol_ID>
7992

>  <Formula>
C13H10ClN3O4S2

>  <MolWeight>
371.8192

>  <Cat>
S2047

>  <Name>
Lornoxicam

>  <Synonyms>
Chlortenoxicam

>  <Target>
COX

>  <Form>
free base

>  <CAS>
70374-39-9

>  <URL>
http://selleckchem.com/products/lornoxicam-xefo.html

$$$$
