Losartan Carboxylic Acid (EXP-3174)
 OpenBabel08302521313D

 52 55  0  0  0  0  0  0  0  0999 V2000
   -3.4339   -4.1889    1.1428 O   0  0  0  0  0  0  0  0  0  0  0  0
   -3.3693   -3.2535    3.1711 O   0  0  0  0  0  0  0  0  0  0  0  0
   -1.8219   -1.0283    1.7200 N   0  0  0  0  0  0  0  0  0  0  0  0
   -2.1766   -0.5872   -0.4344 N   0  0  0  0  0  0  0  0  0  0  0  0
    4.9674   -4.9446    2.1591 N   0  0  0  0  0  0  0  0  0  0  0  0
    3.9875   -3.5881    3.6796 N   0  0  0  0  0  0  0  0  0  0  0  0
    5.3660   -3.6667    2.0916 N   0  0  0  0  0  0  0  0  0  0  0  0
    4.8063   -2.8273    2.9671 N   0  0  0  0  0  0  0  0  0  0  0  0
   -0.6626    1.0230    0.6662 C   0  0  0  0  0  0  0  0  0  0  0  0
   -1.5633   -0.1710    0.6599 C   0  0  0  0  0  0  0  0  0  0  0  0
   -1.2347   -0.9932    3.0632 C   0  0  0  0  0  0  0  0  0  0  0  0
   -1.3997    2.3208    0.3097 C   0  0  0  0  0  0  0  0  0  0  0  0
   -0.3981   -2.2261    3.3420 C   0  0  0  0  0  0  0  0  0  0  0  0
   -2.6538   -2.0376    1.2459 C   0  0  0  0  0  0  0  0  0  0  0  0
   -2.3473    2.7930    1.4087 C   0  0  0  0  0  0  0  0  0  0  0  0
   -2.8252   -1.7303   -0.0913 C   0  0  0  0  0  0  0  0  0  0  0  0
    0.5765   -2.6266    2.4286 C   0  0  0  0  0  0  0  0  0  0  0  0
   -0.6146   -3.0197    4.4761 C   0  0  0  0  0  0  0  0  0  0  0  0
    1.0788   -4.6338    3.7381 C   0  0  0  0  0  0  0  0  0  0  0  0
    1.2480   -3.8367    2.5944 C   0  0  0  0  0  0  0  0  0  0  0  0
    0.1187   -4.2020    4.6710 C   0  0  0  0  0  0  0  0  0  0  0  0
   -3.0125    4.1194    1.0566 C   0  0  0  0  0  0  0  0  0  0  0  0
    1.8809   -5.8754    3.9407 C   0  0  0  0  0  0  0  0  0  0  0  0
   -3.1701   -3.1562    1.9706 C   0  0  0  0  0  0  0  0  0  0  0  0
    3.2652   -5.9835    3.6304 C   0  0  0  0  0  0  0  0  0  0  0  0
    1.2415   -7.0381    4.4334 C   0  0  0  0  0  0  0  0  0  0  0  0
    3.9292   -7.2204    3.7771 C   0  0  0  0  0  0  0  0  0  0  0  0
    1.9247   -8.2484    4.6036 C   0  0  0  0  0  0  0  0  0  0  0  0
    4.0711   -4.8603    3.1612 C   0  0  0  0  0  0  0  0  0  0  0  0
    3.2670   -8.3423    4.2659 C   0  0  0  0  0  0  0  0  0  0  0  0
   -3.7197   -4.9039    1.7452 H   0  0  0  0  0  0  0  0  0  0  0  0
    6.0543   -3.3493    1.4152 H   0  0  0  0  0  0  0  0  0  0  0  0
   -0.1131    1.1491    1.6010 H   0  0  0  0  0  0  0  0  0  0  0  0
    0.0967    0.8519   -0.1089 H   0  0  0  0  0  0  0  0  0  0  0  0
   -0.6088   -0.1036    3.1664 H   0  0  0  0  0  0  0  0  0  0  0  0
   -2.0673   -0.8896    3.7675 H   0  0  0  0  0  0  0  0  0  0  0  0
   -0.6467    3.0979    0.1349 H   0  0  0  0  0  0  0  0  0  0  0  0
   -1.9504    2.2065   -0.6311 H   0  0  0  0  0  0  0  0  0  0  0  0
   -3.1284    2.0462    1.5941 H   0  0  0  0  0  0  0  0  0  0  0  0
   -1.7877    2.9165    2.3447 H   0  0  0  0  0  0  0  0  0  0  0  0
   -3.3921   -2.2958   -0.8177 H   0  0  0  0  0  0  0  0  0  0  0  0
    0.8045   -2.0206    1.5542 H   0  0  0  0  0  0  0  0  0  0  0  0
   -1.3780   -2.7490    5.2044 H   0  0  0  0  0  0  0  0  0  0  0  0
    1.9353   -4.1346    1.8063 H   0  0  0  0  0  0  0  0  0  0  0  0
   -0.0812   -4.7860    5.5676 H   0  0  0  0  0  0  0  0  0  0  0  0
   -3.8005    3.9724    0.3117 H   0  0  0  0  0  0  0  0  0  0  0  0
   -3.4700    4.5619    1.9475 H   0  0  0  0  0  0  0  0  0  0  0  0
   -2.2906    4.8371    0.6555 H   0  0  0  0  0  0  0  0  0  0  0  0
    0.1799   -7.0200    4.6761 H   0  0  0  0  0  0  0  0  0  0  0  0
    4.9827   -7.3053    3.5137 H   0  0  0  0  0  0  0  0  0  0  0  0
    1.4013   -9.1204    4.9887 H   0  0  0  0  0  0  0  0  0  0  0  0
    3.8003   -9.2820    4.3814 H   0  0  0  0  0  0  0  0  0  0  0  0
  1 24  1  0  0  0  0
  1 31  1  0  0  0  0
  2 24  2  0  0  0  0
  3 10  1  0  0  0  0
  3 11  1  0  0  0  0
  3 14  1  0  0  0  0
  4 10  2  0  0  0  0
  4 16  1  0  0  0  0
  5  7  1  0  0  0  0
  5 29  2  0  0  0  0
  6  8  2  0  0  0  0
  6 29  1  0  0  0  0
  7  8  1  0  0  0  0
  7 32  1  0  0  0  0
  9 10  1  0  0  0  0
  9 12  1  0  0  0  0
  9 33  1  0  0  0  0
  9 34  1  0  0  0  0
 11 13  1  0  0  0  0
 11 35  1  0  0  0  0
 11 36  1  0  0  0  0
 12 15  1  0  0  0  0
 12 37  1  0  0  0  0
 12 38  1  0  0  0  0
 13 17  2  0  0  0  0
 13 18  1  0  0  0  0
 14 16  2  0  0  0  0
 14 24  1  0  0  0  0
 15 22  1  0  0  0  0
 15 39  1  0  0  0  0
 15 40  1  0  0  0  0
 16 41  1  0  0  0  0
 17 20  1  0  0  0  0
 17 42  1  0  0  0  0
 18 21  2  0  0  0  0
 18 43  1  0  0  0  0
 19 20  2  0  0  0  0
 19 21  1  0  0  0  0
 19 23  1  0  0  0  0
 20 44  1  0  0  0  0
 21 45  1  0  0  0  0
 22 46  1  0  0  0  0
 22 47  1  0  0  0  0
 22 48  1  0  0  0  0
 23 25  1  0  0  0  0
 23 26  2  0  0  0  0
 25 27  2  0  0  0  0
 25 29  1  0  0  0  0
 26 28  1  0  0  0  0
 26 49  1  0  0  0  0
 27 30  1  0  0  0  0
 27 50  1  0  0  0  0
 28 30  2  0  0  0  0
 28 51  1  0  0  0  0
 30 52  1  0  0  0  0
M  END
>  <Mol_ID>
5882

>  <Formula>
C22H21ClN6O2

>  <MolWeight>
436.89414

>  <Cat>
S5980

>  <Name>
Losartan Carboxylic Acid (EXP-3174)

>  <Synonyms>
E-3174

>  <Target>
Angiotensin Receptor

>  <Form>
Free Base

>  <CAS>
124750-92-1

>  <URL>
http://www.selleckchem.com/products/losartan-carboxylic-acid-exp-3174-.html

$$$$
