Losartan Potassium (DuP 753)
 OpenBabel08302522033D

 53 56  0  0  0  0  0  0  0  0999 V2000
    1.4157   -0.2954    0.1394 C   0  0  0  0  0  0  0  0  0  0  0  0
    0.4427   -1.2943    0.2595 C   0  0  0  0  0  0  0  0  0  0  0  0
   -0.8706   -1.0587   -0.1517 C   0  0  0  0  0  0  0  0  0  0  0  0
   -1.1738    0.2000   -0.6861 C   0  0  0  0  0  0  0  0  0  0  0  0
   -0.2313    1.2207   -0.7068 C   0  0  0  0  0  0  0  0  0  0  0  0
    1.0912    0.9964   -0.3081 C   0  0  0  0  0  0  0  0  0  0  0  0
    2.0986    2.0748   -0.4338 C   0  0  0  0  0  0  0  0  0  0  0  0
    3.0944    2.3611    0.5338 C   0  0  0  0  0  0  0  0  0  0  0  0
    4.0710    3.3351    0.2415 C   0  0  0  0  0  0  0  0  0  0  0  0
    4.0516    4.0520   -0.9560 C   0  0  0  0  0  0  0  0  0  0  0  0
    3.0524    3.8148   -1.8850 C   0  0  0  0  0  0  0  0  0  0  0  0
    2.0966    2.8364   -1.6278 C   0  0  0  0  0  0  0  0  0  0  0  0
    3.1920    1.6869    1.8293 C   0  0  0  0  0  0  0  0  0  0  0  0
    2.1378    1.3131    2.6221 N   0  0  0  0  0  0  0  0  0  0  0  0
    2.5759    0.6409    3.6950 N   0  0  0  0  0  0  0  0  0  0  0  0
    3.8956    0.6481    3.5881 N   0  0  0  0  0  0  0  0  0  0  0  0
    4.2939    1.3122    2.4538 N   0  0  0  0  0  0  0  0  0  0  0  0
   -1.9374   -2.1211   -0.0308 C   0  0  0  0  0  0  0  0  0  0  0  0
   -2.6929   -2.0032    1.2134 N   0  0  0  0  0  0  0  0  0  0  0  0
   -2.4480   -2.6945    2.3882 C   0  0  0  0  0  0  0  0  0  0  0  0
   -3.4352   -2.2807    3.2578 C   0  0  0  0  0  0  0  0  0  0  0  0
   -4.2688   -1.3866    2.6589 N   0  0  0  0  0  0  0  0  0  0  0  0
   -3.8358   -1.2460    1.4230 C   0  0  0  0  0  0  0  0  0  0  0  0
   -1.3437   -3.6428    2.6371 C   0  0  0  0  0  0  0  0  0  0  0  0
   -0.2208   -2.8691    3.0269 O   0  0  0  0  0  0  0  0  0  0  0  0
   -4.5275   -0.3780    0.4234 C   0  0  0  0  0  0  0  0  0  0  0  0
   -5.5933   -1.1095   -0.3894 C   0  0  0  0  0  0  0  0  0  0  0  0
   -6.7515   -1.6072    0.4735 C   0  0  0  0  0  0  0  0  0  0  0  0
   -7.8278   -2.2628   -0.3731 C   0  0  0  0  0  0  0  0  0  0  0  0
    2.4395   -0.5490    0.4154 H   0  0  0  0  0  0  0  0  0  0  0  0
    0.7356   -2.2604    0.6679 H   0  0  0  0  0  0  0  0  0  0  0  0
   -2.1427    0.4104   -1.1146 H   0  0  0  0  0  0  0  0  0  0  0  0
   -0.5474    2.1967   -1.0720 H   0  0  0  0  0  0  0  0  0  0  0  0
    4.8673    3.5384    0.9586 H   0  0  0  0  0  0  0  0  0  0  0  0
    4.8220    4.7892   -1.1625 H   0  0  0  0  0  0  0  0  0  0  0  0
    3.0252    4.3670   -2.8208 H   0  0  0  0  0  0  0  0  0  0  0  0
    1.3500    2.6465   -2.3988 H   0  0  0  0  0  0  0  0  0  0  0  0
    1.1432    1.4187    2.4675 H   0  0  0  0  0  0  0  0  0  0  0  0
   -2.6415   -2.0610   -0.8675 H   0  0  0  0  0  0  0  0  0  0  0  0
   -1.4987   -3.1204   -0.0817 H   0  0  0  0  0  0  0  0  0  0  0  0
   -3.5881   -2.5851    4.2830 H   0  0  0  0  0  0  0  0  0  0  0  0
   -1.5897   -4.3371    3.4478 H   0  0  0  0  0  0  0  0  0  0  0  0
   -1.0769   -4.2326    1.7588 H   0  0  0  0  0  0  0  0  0  0  0  0
   -0.5323   -2.2248    3.6883 H   0  0  0  0  0  0  0  0  0  0  0  0
   -4.9833    0.4681    0.9500 H   0  0  0  0  0  0  0  0  0  0  0  0
   -3.8259    0.0674   -0.2724 H   0  0  0  0  0  0  0  0  0  0  0  0
   -5.9842   -0.4130   -1.1434 H   0  0  0  0  0  0  0  0  0  0  0  0
   -5.1463   -1.9474   -0.9368 H   0  0  0  0  0  0  0  0  0  0  0  0
   -6.3921   -2.3372    1.2064 H   0  0  0  0  0  0  0  0  0  0  0  0
   -7.1862   -0.7697    1.0312 H   0  0  0  0  0  0  0  0  0  0  0  0
   -7.4254   -3.1252   -0.9139 H   0  0  0  0  0  0  0  0  0  0  0  0
   -8.6462   -2.6105    0.2641 H   0  0  0  0  0  0  0  0  0  0  0  0
   -8.2371   -1.5574   -1.1028 H   0  0  0  0  0  0  0  0  0  0  0  0
  1  2  2  0  0  0  0
  1 30  1  0  0  0  0
  2  3  1  0  0  0  0
  2 31  1  0  0  0  0
  3  4  2  0  0  0  0
  3 18  1  0  0  0  0
  4  5  1  0  0  0  0
  4 32  1  0  0  0  0
  5  6  2  0  0  0  0
  5 33  1  0  0  0  0
  6  1  1  0  0  0  0
  6  7  1  0  0  0  0
  7  8  1  0  0  0  0
  8  9  2  0  0  0  0
  8 13  1  0  0  0  0
  9 10  1  0  0  0  0
  9 34  1  0  0  0  0
 10 11  2  0  0  0  0
 10 35  1  0  0  0  0
 11 12  1  0  0  0  0
 11 36  1  0  0  0  0
 12  7  2  0  0  0  0
 12 37  1  0  0  0  0
 13 14  1  0  0  0  0
 14 15  1  0  0  0  0
 14 38  1  0  0  0  0
 15 16  2  0  0  0  0
 16 17  1  0  0  0  0
 17 13  2  0  0  0  0
 18 19  1  0  0  0  0
 18 39  1  0  0  0  0
 18 40  1  0  0  0  0
 19 20  1  0  0  0  0
 20 21  2  0  0  0  0
 20 24  1  0  0  0  0
 21 22  1  0  0  0  0
 21 41  1  0  0  0  0
 22 23  2  0  0  0  0
 23 19  1  0  0  0  0
 23 26  1  0  0  0  0
 24 25  1  0  0  0  0
 24 42  1  0  0  0  0
 24 43  1  0  0  0  0
 25 44  1  0  0  0  0
 26 27  1  0  0  0  0
 26 45  1  0  0  0  0
 26 46  1  0  0  0  0
 27 28  1  0  0  0  0
 27 47  1  0  0  0  0
 27 48  1  0  0  0  0
 28 29  1  0  0  0  0
 28 49  1  0  0  0  0
 28 50  1  0  0  0  0
 29 51  1  0  0  0  0
 29 52  1  0  0  0  0
 29 53  1  0  0  0  0
M  END
>  <Mol_ID>
1178

>  <Formula>
C22H23ClKN6O

>  <MolWeight>
462.00892

>  <Cat>
S1359

>  <Name>
Losartan Potassium (DuP 753)

>  <Synonyms>
MK 954,DuP 753

>  <Target>
Angiotensin Receptor

>  <Form>
Potassium salt

>  <CAS>
124750-99-8

>  <URL>
http://selleckchem.com/products/losartan-potassium.html

$$$$
