Lotamilast (RVT-501)
 OpenBabel08302521323D

 59 62  0  0  0  0  0  0  0  0999 V2000
   -6.0734    2.7796   -6.3898 C   0  0  0  0  0  0  0  0  0  0  0  0
   -5.0683    1.7207   -6.0874 C   0  0  0  0  0  0  0  0  0  0  0  0
   -4.7065    1.5316   -4.7511 C   0  0  0  0  0  0  0  0  0  0  0  0
   -3.7936    0.5329   -4.4068 C   0  0  0  0  0  0  0  0  0  0  0  0
   -3.2296   -0.3023   -5.3876 C   0  0  0  0  0  0  0  0  0  0  0  0
   -3.5832   -0.1081   -6.7269 C   0  0  0  0  0  0  0  0  0  0  0  0
   -4.4950    0.9034   -7.0752 C   0  0  0  0  0  0  0  0  0  0  0  0
   -6.6396    3.4306   -5.5280 O   0  0  0  0  0  0  0  0  0  0  0  0
   -6.2460    2.9083   -7.7293 O   0  0  0  0  0  0  0  0  0  0  0  0
   -2.3369   -1.4032   -4.9159 C   0  0  0  0  0  0  0  0  0  0  0  0
   -2.4560   -1.7257   -3.7371 O   0  0  0  0  0  0  0  0  0  0  0  0
   -1.4414   -1.9496   -5.8305 N   0  0  0  0  0  0  0  0  0  0  0  0
   -0.4425   -2.9153   -5.5358 C   0  0  0  0  0  0  0  0  0  0  0  0
   -0.3110   -3.5107   -4.2838 C   0  0  0  0  0  0  0  0  0  0  0  0
    0.8064   -4.2929   -3.9087 C   0  0  0  0  0  0  0  0  0  0  0  0
    1.7557   -4.5652   -4.8969 C   0  0  0  0  0  0  0  0  0  0  0  0
    1.5806   -4.0775   -6.1991 C   0  0  0  0  0  0  0  0  0  0  0  0
    0.4992   -3.2415   -6.5114 C   0  0  0  0  0  0  0  0  0  0  0  0
    0.4900   -5.0330    0.1807 N   0  0  0  0  0  0  0  0  0  0  0  0
    0.3532   -3.8401   -0.3911 C   0  0  0  0  0  0  0  0  0  0  0  0
    0.5601   -3.6239   -1.6823 N   0  0  0  0  0  0  0  0  0  0  0  0
    0.9114   -4.6622   -2.4752 C   0  0  0  0  0  0  0  0  0  0  0  0
    1.1702   -5.9344   -1.9537 C   0  0  0  0  0  0  0  0  0  0  0  0
    1.6298   -7.0730   -2.6690 C   0  0  0  0  0  0  0  0  0  0  0  0
    1.7815   -8.3237   -2.0571 C   0  0  0  0  0  0  0  0  0  0  0  0
    1.4268   -8.4470   -0.7104 C   0  0  0  0  0  0  0  0  0  0  0  0
    1.0134   -7.3039   -0.0020 C   0  0  0  0  0  0  0  0  0  0  0  0
    0.8934   -6.0572   -0.5878 C   0  0  0  0  0  0  0  0  0  0  0  0
   -0.0175   -2.7181    0.3297 N   0  0  0  0  0  0  0  0  0  0  0  0
   -1.0521   -2.9057    1.3212 C   0  0  0  0  0  0  0  0  0  0  0  0
    1.4191   -9.5724    0.0726 O   0  0  0  0  0  0  0  0  0  0  0  0
    1.6585  -10.8314   -0.5378 C   0  0  0  0  0  0  0  0  0  0  0  0
    2.2563   -9.4228   -2.7181 O   0  0  0  0  0  0  0  0  0  0  0  0
    2.6471   -9.2845   -4.0779 C   0  0  0  0  0  0  0  0  0  0  0  0
   -7.1782    3.9249   -8.1136 C   0  0  0  0  0  0  0  0  0  0  0  0
   -5.1436    2.1461   -3.9655 H   0  0  0  0  0  0  0  0  0  0  0  0
   -3.5357    0.3962   -3.3562 H   0  0  0  0  0  0  0  0  0  0  0  0
   -3.2013   -0.7514   -7.5135 H   0  0  0  0  0  0  0  0  0  0  0  0
   -4.7702    1.0248   -8.1194 H   0  0  0  0  0  0  0  0  0  0  0  0
   -1.3797   -1.5277   -6.7456 H   0  0  0  0  0  0  0  0  0  0  0  0
   -1.0599   -3.3384   -3.5161 H   0  0  0  0  0  0  0  0  0  0  0  0
    2.6598   -5.1226   -4.6678 H   0  0  0  0  0  0  0  0  0  0  0  0
    2.3197   -4.3098   -6.9635 H   0  0  0  0  0  0  0  0  0  0  0  0
    0.4310   -2.8300   -7.5144 H   0  0  0  0  0  0  0  0  0  0  0  0
    1.8736   -6.9561   -3.7156 H   0  0  0  0  0  0  0  0  0  0  0  0
    0.7568   -7.4072    1.0511 H   0  0  0  0  0  0  0  0  0  0  0  0
   -0.2469   -2.0223   -0.3767 H   0  0  0  0  0  0  0  0  0  0  0  0
   -0.8205   -2.2829    2.1912 H   0  0  0  0  0  0  0  0  0  0  0  0
   -2.0182   -2.5723    0.9263 H   0  0  0  0  0  0  0  0  0  0  0  0
   -1.1621   -3.9357    1.6727 H   0  0  0  0  0  0  0  0  0  0  0  0
    0.9911  -11.0103   -1.3873 H   0  0  0  0  0  0  0  0  0  0  0  0
    2.7127  -10.9293   -0.8139 H   0  0  0  0  0  0  0  0  0  0  0  0
    1.4428  -11.6064    0.2041 H   0  0  0  0  0  0  0  0  0  0  0  0
    1.8148   -8.9380   -4.6990 H   0  0  0  0  0  0  0  0  0  0  0  0
    3.5152   -8.6234   -4.1702 H   0  0  0  0  0  0  0  0  0  0  0  0
    2.9382  -10.2735   -4.4441 H   0  0  0  0  0  0  0  0  0  0  0  0
   -8.1895    3.5076   -8.1223 H   0  0  0  0  0  0  0  0  0  0  0  0
   -7.1333    4.8029   -7.4610 H   0  0  0  0  0  0  0  0  0  0  0  0
   -6.9234    4.2459   -9.1273 H   0  0  0  0  0  0  0  0  0  0  0  0
  1  2  1  0  0  0  0
  1  8  2  0  0  0  0
  1  9  1  0  0  0  0
  2  3  2  0  0  0  0
  2  7  1  0  0  0  0
  3  4  1  0  0  0  0
  3 36  1  0  0  0  0
  4  5  2  0  0  0  0
  4 37  1  0  0  0  0
  5  6  1  0  0  0  0
  5 10  1  0  0  0  0
  6  7  2  0  0  0  0
  6 38  1  0  0  0  0
  7 39  1  0  0  0  0
  9 35  1  0  0  0  0
 10 11  2  0  0  0  0
 10 12  1  0  0  0  0
 12 13  1  0  0  0  0
 12 40  1  0  0  0  0
 13 14  2  0  0  0  0
 13 18  1  0  0  0  0
 14 15  1  0  0  0  0
 14 41  1  0  0  0  0
 15 16  2  0  0  0  0
 15 22  1  0  0  0  0
 16 17  1  0  0  0  0
 16 42  1  0  0  0  0
 17 18  2  0  0  0  0
 17 43  1  0  0  0  0
 18 44  1  0  0  0  0
 19 20  2  0  0  0  0
 19 28  1  0  0  0  0
 20 21  1  0  0  0  0
 20 29  1  0  0  0  0
 21 22  2  0  0  0  0
 22 23  1  0  0  0  0
 23 24  1  0  0  0  0
 23 28  2  0  0  0  0
 24 25  2  0  0  0  0
 24 45  1  0  0  0  0
 25 26  1  0  0  0  0
 25 33  1  0  0  0  0
 26 27  2  0  0  0  0
 26 31  1  0  0  0  0
 27 28  1  0  0  0  0
 27 46  1  0  0  0  0
 29 30  1  0  0  0  0
 29 47  1  0  0  0  0
 30 48  1  0  0  0  0
 30 49  1  0  0  0  0
 30 50  1  0  0  0  0
 31 32  1  0  0  0  0
 32 51  1  0  0  0  0
 32 52  1  0  0  0  0
 32 53  1  0  0  0  0
 33 34  1  0  0  0  0
 34 54  1  0  0  0  0
 34 55  1  0  0  0  0
 34 56  1  0  0  0  0
 35 57  1  0  0  0  0
 35 58  1  0  0  0  0
 35 59  1  0  0  0  0
M  END
>  <Mol_ID>
6151

>  <Formula>
C26H24N4O5

>  <MolWeight>
472.49256

>  <Cat>
S0190

>  <Name>
Lotamilast (RVT-501)

>  <Synonyms>
E6005

>  <Target>
PDE

>  <Form>
free base

>  <CAS>
947620-48-6

>  <URL>
http://www.selleckchem.com/products/e6005.html

$$$$
