Loureirin D
 OpenBabel08302521463D

 37 38  0  0  0  0  0  0  0  0999 V2000
    0.6846    0.1030   -0.0180 C   0  0  0  0  0  0  0  0  0  0  0  0
    0.6631    1.0217   -1.2463 C   0  0  0  0  0  0  0  0  0  0  0  0
   -0.7271    1.2669   -1.8208 C   0  0  0  0  0  0  0  0  0  0  0  0
   -1.7297    0.6968   -1.3913 O   0  0  0  0  0  0  0  0  0  0  0  0
    2.6473   -2.0060   -1.1849 O   0  0  0  0  0  0  0  0  0  0  0  0
    3.4778   -1.2586   -0.3093 C   0  0  0  0  0  0  0  0  0  0  0  0
   -1.8900   -1.0662    0.4293 O   0  0  0  0  0  0  0  0  0  0  0  0
   -0.6159   -5.3542   -1.0880 O   0  0  0  0  0  0  0  0  0  0  0  0
   -1.6594    5.1218   -5.8361 O   0  0  0  0  0  0  0  0  0  0  0  0
    0.4173   -1.3649   -0.2820 C   0  0  0  0  0  0  0  0  0  0  0  0
    1.3666   -2.2800   -0.7808 C   0  0  0  0  0  0  0  0  0  0  0  0
   -0.8820   -1.8684   -0.0391 C   0  0  0  0  0  0  0  0  0  0  0  0
    0.9935   -3.6145   -1.0356 C   0  0  0  0  0  0  0  0  0  0  0  0
   -1.2500   -3.1865   -0.2906 C   0  0  0  0  0  0  0  0  0  0  0  0
   -0.3029   -4.0560   -0.7954 C   0  0  0  0  0  0  0  0  0  0  0  0
   -0.9036    2.2652   -2.9183 C   0  0  0  0  0  0  0  0  0  0  0  0
    0.1370    3.0908   -3.3608 C   0  0  0  0  0  0  0  0  0  0  0  0
   -2.1791    2.4021   -3.4896 C   0  0  0  0  0  0  0  0  0  0  0  0
   -0.1035    4.0576   -4.3442 C   0  0  0  0  0  0  0  0  0  0  0  0
   -2.4154    3.3610   -4.4746 C   0  0  0  0  0  0  0  0  0  0  0  0
   -1.3785    4.1867   -4.8877 C   0  0  0  0  0  0  0  0  0  0  0  0
   -0.0269    0.4808    0.7272 H   0  0  0  0  0  0  0  0  0  0  0  0
    1.6440    0.2166    0.4924 H   0  0  0  0  0  0  0  0  0  0  0  0
    1.0446    1.9947   -0.9126 H   0  0  0  0  0  0  0  0  0  0  0  0
    1.3154    0.6348   -2.0351 H   0  0  0  0  0  0  0  0  0  0  0  0
    3.5109   -0.2212   -0.6550 H   0  0  0  0  0  0  0  0  0  0  0  0
    3.1781   -1.3197    0.7417 H   0  0  0  0  0  0  0  0  0  0  0  0
    4.4969   -1.6534   -0.3834 H   0  0  0  0  0  0  0  0  0  0  0  0
   -1.9812   -0.3406   -0.2319 H   0  0  0  0  0  0  0  0  0  0  0  0
   -1.5724   -5.4740   -0.9329 H   0  0  0  0  0  0  0  0  0  0  0  0
   -0.8617    5.6502   -6.0036 H   0  0  0  0  0  0  0  0  0  0  0  0
    1.7226   -4.3148   -1.4351 H   0  0  0  0  0  0  0  0  0  0  0  0
   -2.2747   -3.4936   -0.1120 H   0  0  0  0  0  0  0  0  0  0  0  0
    1.1387    3.0155   -2.9494 H   0  0  0  0  0  0  0  0  0  0  0  0
   -3.0022    1.7670   -3.1660 H   0  0  0  0  0  0  0  0  0  0  0  0
    0.7094    4.7018   -4.6658 H   0  0  0  0  0  0  0  0  0  0  0  0
   -3.4057    3.4693   -4.9081 H   0  0  0  0  0  0  0  0  0  0  0  0
  1  2  1  0  0  0  0
  1 10  1  0  0  0  0
  1 22  1  0  0  0  0
  1 23  1  0  0  0  0
  2  3  1  0  0  0  0
  2 24  1  0  0  0  0
  2 25  1  0  0  0  0
  3  4  2  0  0  0  0
  3 16  1  0  0  0  0
  5  6  1  0  0  0  0
  5 11  1  0  0  0  0
  6 26  1  0  0  0  0
  6 27  1  0  0  0  0
  6 28  1  0  0  0  0
  7 12  1  0  0  0  0
  7 29  1  0  0  0  0
  8 15  1  0  0  0  0
  8 30  1  0  0  0  0
  9 21  1  0  0  0  0
  9 31  1  0  0  0  0
 10 11  2  0  0  0  0
 10 12  1  0  0  0  0
 11 13  1  0  0  0  0
 12 14  2  0  0  0  0
 13 15  2  0  0  0  0
 13 32  1  0  0  0  0
 14 15  1  0  0  0  0
 14 33  1  0  0  0  0
 16 17  2  0  0  0  0
 16 18  1  0  0  0  0
 17 19  1  0  0  0  0
 17 34  1  0  0  0  0
 18 20  2  0  0  0  0
 18 35  1  0  0  0  0
 19 21  2  0  0  0  0
 19 36  1  0  0  0  0
 20 21  1  0  0  0  0
 20 37  1  0  0  0  0
M  END
>  <Mol_ID>
9646

>  <Formula>
C16H16O5

>  <MolWeight>
288.29524

>  <Cat>
E2105

>  <Name>
Loureirin D

>  <Synonyms>
N/A

>  <Target>
Immunology & Inflammation related

>  <Form>
free base

>  <CAS>
119425-91-1

>  <URL>
https://www.selleckchem.com/products/loureirin-d.html

$$$$
