Loureirin C
 OpenBabel08302521453D

 36 37  0  0  0  0  0  0  0  0999 V2000
    0.7553   -0.1722   -0.1323 C   0  0  0  0  0  0  0  0  0  0  0  0
    0.5310   -1.1530   -1.2946 C   0  0  0  0  0  0  0  0  0  0  0  0
    0.9159   -0.5497   -2.6294 C   0  0  0  0  0  0  0  0  0  0  0  0
    0.1140    0.1487   -3.2480 O   0  0  0  0  0  0  0  0  0  0  0  0
    1.0439    1.3755    2.6247 O   0  0  0  0  0  0  0  0  0  0  0  0
    1.5401    2.1654    1.5679 C   0  0  0  0  0  0  0  0  0  0  0  0
   -0.6718   -2.1768    5.0308 O   0  0  0  0  0  0  0  0  0  0  0  0
    5.9762   -1.3382   -5.0323 O   0  0  0  0  0  0  0  0  0  0  0  0
    0.4045   -0.6588    1.2685 C   0  0  0  0  0  0  0  0  0  0  0  0
    0.5666    0.1090    2.4426 C   0  0  0  0  0  0  0  0  0  0  0  0
   -0.1359   -1.9610    1.4217 C   0  0  0  0  0  0  0  0  0  0  0  0
    0.1924   -0.4371    3.6892 C   0  0  0  0  0  0  0  0  0  0  0  0
   -0.4970   -2.4889    2.6646 C   0  0  0  0  0  0  0  0  0  0  0  0
   -0.3304   -1.7186    3.7954 C   0  0  0  0  0  0  0  0  0  0  0  0
    2.2678   -0.8097   -3.2208 C   0  0  0  0  0  0  0  0  0  0  0  0
    3.3068   -1.4237   -2.5093 C   0  0  0  0  0  0  0  0  0  0  0  0
    2.4984   -0.3977   -4.5440 C   0  0  0  0  0  0  0  0  0  0  0  0
    4.5593   -1.6137   -3.1098 C   0  0  0  0  0  0  0  0  0  0  0  0
    3.7478   -0.5870   -5.1404 C   0  0  0  0  0  0  0  0  0  0  0  0
    4.7689   -1.1877   -4.4174 C   0  0  0  0  0  0  0  0  0  0  0  0
    0.1592    0.7227   -0.3420 H   0  0  0  0  0  0  0  0  0  0  0  0
    1.8138    0.1054   -0.1457 H   0  0  0  0  0  0  0  0  0  0  0  0
    1.0605   -2.0976   -1.1422 H   0  0  0  0  0  0  0  0  0  0  0  0
   -0.5326   -1.4152   -1.3669 H   0  0  0  0  0  0  0  0  0  0  0  0
    2.4096    1.7021    1.0967 H   0  0  0  0  0  0  0  0  0  0  0  0
    0.7534    2.4130    0.8519 H   0  0  0  0  0  0  0  0  0  0  0  0
    1.8843    3.1107    2.0010 H   0  0  0  0  0  0  0  0  0  0  0  0
   -1.0476   -3.0676    4.9402 H   0  0  0  0  0  0  0  0  0  0  0  0
    6.6042   -1.7359   -4.4069 H   0  0  0  0  0  0  0  0  0  0  0  0
   -0.3021   -2.6091    0.5655 H   0  0  0  0  0  0  0  0  0  0  0  0
    0.3091    0.1572    4.5913 H   0  0  0  0  0  0  0  0  0  0  0  0
   -0.9065   -3.4917    2.7178 H   0  0  0  0  0  0  0  0  0  0  0  0
    3.1799   -1.7579   -1.4851 H   0  0  0  0  0  0  0  0  0  0  0  0
    1.7054    0.0764   -5.1197 H   0  0  0  0  0  0  0  0  0  0  0  0
    5.3543   -2.0873   -2.5424 H   0  0  0  0  0  0  0  0  0  0  0  0
    3.9183   -0.2599   -6.1629 H   0  0  0  0  0  0  0  0  0  0  0  0
  1  2  1  0  0  0  0
  1  9  1  0  0  0  0
  1 21  1  0  0  0  0
  1 22  1  0  0  0  0
  2  3  1  0  0  0  0
  2 23  1  0  0  0  0
  2 24  1  0  0  0  0
  3  4  2  0  0  0  0
  3 15  1  0  0  0  0
  5  6  1  0  0  0  0
  5 10  1  0  0  0  0
  6 25  1  0  0  0  0
  6 26  1  0  0  0  0
  6 27  1  0  0  0  0
  7 14  1  0  0  0  0
  7 28  1  0  0  0  0
  8 20  1  0  0  0  0
  8 29  1  0  0  0  0
  9 10  2  0  0  0  0
  9 11  1  0  0  0  0
 10 12  1  0  0  0  0
 11 13  2  0  0  0  0
 11 30  1  0  0  0  0
 12 14  2  0  0  0  0
 12 31  1  0  0  0  0
 13 14  1  0  0  0  0
 13 32  1  0  0  0  0
 15 16  2  0  0  0  0
 15 17  1  0  0  0  0
 16 18  1  0  0  0  0
 16 33  1  0  0  0  0
 17 19  2  0  0  0  0
 17 34  1  0  0  0  0
 18 20  2  0  0  0  0
 18 35  1  0  0  0  0
 19 20  1  0  0  0  0
 19 36  1  0  0  0  0
M  END
>  <Mol_ID>
9569

>  <Formula>
C16H16O4

>  <MolWeight>
272.29584

>  <Cat>
E2006

>  <Name>
Loureirin C

>  <Synonyms>
NA

>  <Target>
Estrogen receptor ¦Á, NRF2

>  <Form>
Free Base

>  <CAS>
116384-24-8

>  <URL>
https://www.selleckchem.com/products/loureirin-c.html

$$$$
