Loureirin A
 OpenBabel08302521243D

 39 40  0  0  0  0  0  0  0  0999 V2000
   -0.3511    1.0218    0.7199 C   0  0  0  0  0  0  0  0  0  0  0  0
   -0.9385   -0.1906    1.1117 C   0  0  0  0  0  0  0  0  0  0  0  0
   -0.3283   -1.4084    0.8008 C   0  0  0  0  0  0  0  0  0  0  0  0
    0.8577   -1.4083    0.0698 C   0  0  0  0  0  0  0  0  0  0  0  0
    1.4699   -0.2072   -0.2897 C   0  0  0  0  0  0  0  0  0  0  0  0
    0.8932    1.0219    0.0661 C   0  0  0  0  0  0  0  0  0  0  0  0
    1.6403    2.3034   -0.2328 C   0  0  0  0  0  0  0  0  0  0  0  0
    1.3242    2.8967   -1.6061 C   0  0  0  0  0  0  0  0  0  0  0  0
    2.1151    4.1777   -1.8356 C   0  0  0  0  0  0  0  0  0  0  0  0
    2.0357    4.8463   -3.1660 C   0  0  0  0  0  0  0  0  0  0  0  0
    2.7931    4.7061   -0.9566 O   0  0  0  0  0  0  0  0  0  0  0  0
   -0.9062    2.2493    0.9828 O   0  0  0  0  0  0  0  0  0  0  0  0
   -2.3271    2.2767    1.0790 C   0  0  0  0  0  0  0  0  0  0  0  0
   -0.7902   -2.6500    1.1459 O   0  0  0  0  0  0  0  0  0  0  0  0
   -1.9144   -2.7020    2.0153 C   0  0  0  0  0  0  0  0  0  0  0  0
    2.2384    6.2357   -3.2221 C   0  0  0  0  0  0  0  0  0  0  0  0
    2.2120    6.9086   -4.4465 C   0  0  0  0  0  0  0  0  0  0  0  0
    1.9964    6.1859   -5.6140 C   0  0  0  0  0  0  0  0  0  0  0  0
    1.7931    4.8101   -5.5747 C   0  0  0  0  0  0  0  0  0  0  0  0
    1.8090    4.1364   -4.3491 C   0  0  0  0  0  0  0  0  0  0  0  0
    1.9880    6.7923   -6.8343 O   0  0  0  0  0  0  0  0  0  0  0  0
   -1.8577   -0.1782    1.6816 H   0  0  0  0  0  0  0  0  0  0  0  0
    1.3285   -2.3531   -0.1943 H   0  0  0  0  0  0  0  0  0  0  0  0
    2.4142   -0.2352   -0.8277 H   0  0  0  0  0  0  0  0  0  0  0  0
    1.4422    3.0380    0.5585 H   0  0  0  0  0  0  0  0  0  0  0  0
    2.7184    2.1037   -0.1615 H   0  0  0  0  0  0  0  0  0  0  0  0
    1.5760    2.1615   -2.3759 H   0  0  0  0  0  0  0  0  0  0  0  0
    0.2579    3.1377   -1.6802 H   0  0  0  0  0  0  0  0  0  0  0  0
   -2.7976    1.7501    0.2409 H   0  0  0  0  0  0  0  0  0  0  0  0
   -2.6620    1.8672    2.0373 H   0  0  0  0  0  0  0  0  0  0  0  0
   -2.6462    3.3225    1.0360 H   0  0  0  0  0  0  0  0  0  0  0  0
   -1.7096   -2.1950    2.9645 H   0  0  0  0  0  0  0  0  0  0  0  0
   -2.8040   -2.2882    1.5297 H   0  0  0  0  0  0  0  0  0  0  0  0
   -2.1167   -3.7541    2.2381 H   0  0  0  0  0  0  0  0  0  0  0  0
    2.4190    6.7977   -2.3070 H   0  0  0  0  0  0  0  0  0  0  0  0
    2.3669    7.9826   -4.4657 H   0  0  0  0  0  0  0  0  0  0  0  0
    1.6366    4.2614   -6.4986 H   0  0  0  0  0  0  0  0  0  0  0  0
    1.6735    3.0601   -4.3536 H   0  0  0  0  0  0  0  0  0  0  0  0
    2.2056    7.7322   -6.7179 H   0  0  0  0  0  0  0  0  0  0  0  0
  1  2  2  0  0  0  0
  1 12  1  0  0  0  0
  2  3  1  0  0  0  0
  2 22  1  0  0  0  0
  3  4  2  0  0  0  0
  3 14  1  0  0  0  0
  4  5  1  0  0  0  0
  4 23  1  0  0  0  0
  5  6  2  0  0  0  0
  5 24  1  0  0  0  0
  6  1  1  0  0  0  0
  6  7  1  0  0  0  0
  7  8  1  0  0  0  0
  7 25  1  0  0  0  0
  7 26  1  0  0  0  0
  8  9  1  0  0  0  0
  8 27  1  0  0  0  0
  8 28  1  0  0  0  0
  9 10  1  0  0  0  0
  9 11  2  0  0  0  0
 10 16  2  0  0  0  0
 12 13  1  0  0  0  0
 13 29  1  0  0  0  0
 13 30  1  0  0  0  0
 13 31  1  0  0  0  0
 14 15  1  0  0  0  0
 15 32  1  0  0  0  0
 15 33  1  0  0  0  0
 15 34  1  0  0  0  0
 16 17  1  0  0  0  0
 16 35  1  0  0  0  0
 17 18  2  0  0  0  0
 17 36  1  0  0  0  0
 18 19  1  0  0  0  0
 18 21  1  0  0  0  0
 19 20  2  0  0  0  0
 19 37  1  0  0  0  0
 20 10  1  0  0  0  0
 20 38  1  0  0  0  0
 21 39  1  0  0  0  0
M  END
>  <Mol_ID>
5122

>  <Formula>
C17H18O4

>  <MolWeight>
286.32242

>  <Cat>
S3241

>  <Name>
Loureirin A

>  <Synonyms>
N/A

>  <Target>
Akt,PI3K

>  <Form>
free base

>  <CAS>
119425-89-7

>  <URL>
http://www.selleckchem.com/products/loureirin-a.html

$$$$
