loxapine succinate.cdx
 OpenBabel08302522053D

 55 57  0  0  0  0  0  0  0  0999 V2000
    0.7387   -2.0171   -1.2791 C   0  0  0  0  0  0  0  0  0  0  0  0
    1.6335   -0.8280   -1.0058 C   0  0  0  0  0  0  0  0  0  0  0  0
    1.3316   -3.2289   -1.5830 N   0  0  0  0  0  0  0  0  0  0  0  0
   -0.5686   -1.9849   -1.3096 N   0  0  0  0  0  0  0  0  0  0  0  0
    1.2608    0.4673   -1.3999 C   0  0  0  0  0  0  0  0  0  0  0  0
    2.8632   -0.9735   -0.3378 C   0  0  0  0  0  0  0  0  0  0  0  0
    2.0347   -4.1087   -0.6469 C   0  0  0  0  0  0  0  0  0  0  0  0
    0.9196   -3.9718   -2.7796 C   0  0  0  0  0  0  0  0  0  0  0  0
   -1.3504   -0.8648   -0.9882 C   0  0  0  0  0  0  0  0  0  0  0  0
    0.0886    0.7472   -2.0704 O   0  0  0  0  0  0  0  0  0  0  0  0
    2.0751    1.5708   -1.1006 C   0  0  0  0  0  0  0  0  0  0  0  0
    3.6541    0.1299   -0.0013 C   0  0  0  0  0  0  0  0  0  0  0  0
    3.3465   -4.5646   -1.3372 C   0  0  0  0  0  0  0  0  0  0  0  0
    2.2118   -4.4210   -3.4963 C   0  0  0  0  0  0  0  0  0  0  0  0
   -1.0259    0.4502   -1.3203 C   0  0  0  0  0  0  0  0  0  0  0  0
   -2.5233   -1.0909   -0.2588 C   0  0  0  0  0  0  0  0  0  0  0  0
    3.2540    1.4055   -0.3738 C   0  0  0  0  0  0  0  0  0  0  0  0
    3.0927   -5.2487   -2.6301 N   0  0  0  0  0  0  0  0  0  0  0  0
   -1.8136    1.5221   -0.8838 C   0  0  0  0  0  0  0  0  0  0  0  0
   -3.2998   -0.0271    0.2099 C   0  0  0  0  0  0  0  0  0  0  0  0
    4.3498   -5.5298   -3.3208 C   0  0  0  0  0  0  0  0  0  0  0  0
   -2.9371    1.2821   -0.0953 C   0  0  0  0  0  0  0  0  0  0  0  0
    0.6133    0.4194    2.1081 C   0  0  0  0  0  0  0  0  0  0  0  0
    0.1199   -1.0068    2.1752 C   0  0  0  0  0  0  0  0  0  0  0  0
   -0.1194    1.4664    2.9024 C   0  0  0  0  0  0  0  0  0  0  0  0
   -0.1441   -1.4771    3.5675 C   0  0  0  0  0  0  0  0  0  0  0  0
   -1.4579    1.3646    2.9095 O   0  0  0  0  0  0  0  0  0  0  0  0
    0.4640    2.4126    3.4136 O   0  0  0  0  0  0  0  0  0  0  0  0
    0.9744   -1.7500    4.2643 O   0  0  0  0  0  0  0  0  0  0  0  0
   -1.2714   -1.6007    4.0184 O   0  0  0  0  0  0  0  0  0  0  0  0
    3.2389   -1.9361   -0.0353 H   0  0  0  0  0  0  0  0  0  0  0  0
    1.4149   -4.9879   -0.4146 H   0  0  0  0  0  0  0  0  0  0  0  0
    2.2339   -3.6353    0.3130 H   0  0  0  0  0  0  0  0  0  0  0  0
    0.3101   -4.8423   -2.4998 H   0  0  0  0  0  0  0  0  0  0  0  0
    0.3212   -3.3520   -3.4548 H   0  0  0  0  0  0  0  0  0  0  0  0
    1.7623    2.5708   -1.3932 H   0  0  0  0  0  0  0  0  0  0  0  0
    4.5751   -0.0124    0.5606 H   0  0  0  0  0  0  0  0  0  0  0  0
    3.8872   -5.2372   -0.6620 H   0  0  0  0  0  0  0  0  0  0  0  0
    3.9816   -3.6832   -1.5018 H   0  0  0  0  0  0  0  0  0  0  0  0
    2.7503   -3.5199   -3.8245 H   0  0  0  0  0  0  0  0  0  0  0  0
    1.9376   -4.9904   -4.3906 H   0  0  0  0  0  0  0  0  0  0  0  0
   -2.8039   -2.1127   -0.0091 H   0  0  0  0  0  0  0  0  0  0  0  0
    3.8524    2.2689   -0.0918 H   0  0  0  0  0  0  0  0  0  0  0  0
   -1.5299    2.5416   -1.1308 H   0  0  0  0  0  0  0  0  0  0  0  0
   -4.1761   -0.2245    0.8245 H   0  0  0  0  0  0  0  0  0  0  0  0
    4.1559   -6.0631   -4.2581 H   0  0  0  0  0  0  0  0  0  0  0  0
    4.9091   -4.6178   -3.5524 H   0  0  0  0  0  0  0  0  0  0  0  0
    4.9851   -6.1805   -2.7094 H   0  0  0  0  0  0  0  0  0  0  0  0
   -3.5237    2.1149    0.2851 H   0  0  0  0  0  0  0  0  0  0  0  0
    0.5815    0.7738    1.0835 H   0  0  0  0  0  0  0  0  0  0  0  0
    1.6626    0.4428    2.4308 H   0  0  0  0  0  0  0  0  0  0  0  0
   -0.8193   -1.1112    1.6376 H   0  0  0  0  0  0  0  0  0  0  0  0
    0.8158   -1.7000    1.6915 H   0  0  0  0  0  0  0  0  0  0  0  0
   -1.8377    0.5907    2.4502 H   0  0  0  0  0  0  0  0  0  0  0  0
    1.8027   -1.6025    3.7698 H   0  0  0  0  0  0  0  0  0  0  0  0
  1  2  1  0  0  0  0
  1  3  1  0  0  0  0
  1  4  2  0  0  0  0
  2  5  2  0  0  0  0
  2  6  1  0  0  0  0
  3  8  1  0  0  0  0
  3  7  1  0  0  0  0
  4  9  1  0  0  0  0
  5 10  1  0  0  0  0
  5 11  1  0  0  0  0
  6 12  2  0  0  0  0
  6 31  1  0  0  0  0
  7 13  1  0  0  0  0
  7 32  1  0  0  0  0
  7 33  1  0  0  0  0
  8 14  1  0  0  0  0
  8 34  1  0  0  0  0
  8 35  1  0  0  0  0
  9 15  2  0  0  0  0
  9 16  1  0  0  0  0
 10 15  1  0  0  0  0
 11 17  2  0  0  0  0
 11 36  1  0  0  0  0
 12 17  1  0  0  0  0
 12 37  1  0  0  0  0
 13 18  1  0  0  0  0
 13 38  1  0  0  0  0
 13 39  1  0  0  0  0
 14 18  1  0  0  0  0
 14 40  1  0  0  0  0
 14 41  1  0  0  0  0
 15 19  1  0  0  0  0
 16 20  2  0  0  0  0
 16 42  1  0  0  0  0
 17 43  1  0  0  0  0
 18 21  1  0  0  0  0
 19 22  2  0  0  0  0
 19 44  1  0  0  0  0
 20 22  1  0  0  0  0
 20 45  1  0  0  0  0
 21 46  1  0  0  0  0
 21 47  1  0  0  0  0
 21 48  1  0  0  0  0
 22 49  1  0  0  0  0
 23 24  1  0  0  0  0
 23 25  1  0  0  0  0
 23 50  1  0  0  0  0
 23 51  1  0  0  0  0
 24 26  1  0  0  0  0
 24 52  1  0  0  0  0
 24 53  1  0  0  0  0
 25 27  1  0  0  0  0
 25 28  2  0  0  0  0
 26 29  1  0  0  0  0
 26 30  2  0  0  0  0
 27 54  1  0  0  0  0
 29 55  1  0  0  0  0
M  END
>  <Mol_ID>
1332

>  <Formula>
C22H24ClN3O5

>  <MolWeight>
445.89606

>  <Cat>
S4086

>  <Name>
Loxapine Succinate

>  <Synonyms>
NSC 759578

>  <Target>
5-HT Receptor,Dopamine Receptor

>  <Form>
Succinate

>  <CAS>
27833-64-3

>  <URL>
http://selleckchem.com/products/loxapine-succinate.html

$$$$
