LTI-291
 OpenBabel08302520413D

 56 58  0  0  0  0  0  0  0  0999 V2000
    1.7740   -0.3831    0.1815 C   0  0  0  0  0  0  0  0  0  0  0  0
    2.0713   -0.7670    1.4619 N   0  0  0  0  0  0  0  0  0  0  0  0
    1.6308   -0.0004    2.4173 C   0  0  0  0  0  0  0  0  0  0  0  0
    0.8324    1.2444    2.2158 C   0  0  0  0  0  0  0  0  0  0  0  0
    0.5592    1.5819    0.9455 C   0  0  0  0  0  0  0  0  0  0  0  0
    1.0250    0.7716   -0.1003 N   0  0  0  0  0  0  0  0  0  0  0  0
    0.8474    0.9193   -1.4353 N   0  0  0  0  0  0  0  0  0  0  0  0
    1.4862   -0.1175   -1.9799 C   0  0  0  0  0  0  0  0  0  0  0  0
    2.0930   -0.9658   -1.0290 C   0  0  0  0  0  0  0  0  0  0  0  0
    2.8608   -2.1823   -1.2548 C   0  0  0  0  0  0  0  0  0  0  0  0
    3.0981   -2.5944   -2.3889 O   0  0  0  0  0  0  0  0  0  0  0  0
    3.2823   -2.8238   -0.1121 N   0  0  0  0  0  0  0  0  0  0  0  0
    4.0349   -4.0726   -0.0953 C   0  0  2  0  0  0  0  0  0  0  0  0
    3.1853   -5.2719   -0.5497 C   0  0  0  0  0  0  0  0  0  0  0  0
    3.9773   -6.5883   -0.4876 C   0  0  0  0  0  0  0  0  0  0  0  0
    4.5102   -6.8517    0.9333 C   0  0  2  0  0  0  0  0  0  0  0  0
    5.3298   -5.6452    1.4063 C   0  0  0  0  0  0  0  0  0  0  0  0
    4.5834   -4.3255    1.3084 C   0  0  0  0  0  0  0  0  0  0  0  0
    5.3158   -8.0521    0.9628 O   0  0  0  0  0  0  0  0  0  0  0  0
    5.7424   -8.3891    2.2904 C   0  0  0  0  0  0  0  0  0  0  0  0
    6.5892   -9.6589    2.3758 C   0  0  0  0  0  0  0  0  0  0  0  0
    7.8598   -9.7114    1.5201 C   0  0  0  0  0  0  0  0  0  0  0  0
    8.8907   -8.6245    1.8329 C   0  0  0  0  0  0  0  0  0  0  0  0
   10.1387   -8.7847    0.9707 C   0  0  0  0  0  0  0  0  0  0  0  0
   -0.2303    2.8133    0.6033 C   0  0  0  0  0  0  0  0  0  0  0  0
    1.9511   -0.4056    3.8316 C   0  0  0  0  0  0  0  0  0  0  0  0
    0.5188    1.8139    3.0710 H   0  0  0  0  0  0  0  0  0  0  0  0
    1.4833   -0.2238   -3.0596 H   0  0  0  0  0  0  0  0  0  0  0  0
    3.0658   -2.3601    0.7690 H   0  0  0  0  0  0  0  0  0  0  0  0
    4.8757   -3.9526   -0.7912 H   0  0  0  0  0  0  0  0  0  0  0  0
    2.2958   -5.3577    0.0889 H   0  0  0  0  0  0  0  0  0  0  0  0
    2.8160   -5.1124   -1.5691 H   0  0  0  0  0  0  0  0  0  0  0  0
    3.3360   -7.4181   -0.8105 H   0  0  0  0  0  0  0  0  0  0  0  0
    4.8069   -6.5592   -1.2064 H   0  0  0  0  0  0  0  0  0  0  0  0
    3.6401   -7.0009    1.5872 H   0  0  0  0  0  0  0  0  0  0  0  0
    5.6199   -5.7661    2.4534 H   0  0  0  0  0  0  0  0  0  0  0  0
    6.2641   -5.6007    0.8326 H   0  0  0  0  0  0  0  0  0  0  0  0
    5.2612   -3.5158    1.6057 H   0  0  0  0  0  0  0  0  0  0  0  0
    3.7669   -4.3247    2.0444 H   0  0  0  0  0  0  0  0  0  0  0  0
    6.3414   -7.5813    2.7132 H   0  0  0  0  0  0  0  0  0  0  0  0
    4.8541   -8.5190    2.9208 H   0  0  0  0  0  0  0  0  0  0  0  0
    6.8757   -9.7941    3.4273 H   0  0  0  0  0  0  0  0  0  0  0  0
    5.9650  -10.5171    2.1041 H   0  0  0  0  0  0  0  0  0  0  0  0
    8.3309  -10.6885    1.6942 H   0  0  0  0  0  0  0  0  0  0  0  0
    7.5939   -9.6787    0.4581 H   0  0  0  0  0  0  0  0  0  0  0  0
    8.4658   -7.6322    1.6532 H   0  0  0  0  0  0  0  0  0  0  0  0
    9.1816   -8.6711    2.8895 H   0  0  0  0  0  0  0  0  0  0  0  0
    9.8901   -8.7033   -0.0925 H   0  0  0  0  0  0  0  0  0  0  0  0
   10.8714   -8.0061    1.2069 H   0  0  0  0  0  0  0  0  0  0  0  0
   10.6148   -9.7569    1.1368 H   0  0  0  0  0  0  0  0  0  0  0  0
    0.3637    3.4951   -0.0136 H   0  0  0  0  0  0  0  0  0  0  0  0
   -1.1473    2.5552    0.0633 H   0  0  0  0  0  0  0  0  0  0  0  0
   -0.5275    3.3646    1.5039 H   0  0  0  0  0  0  0  0  0  0  0  0
    1.5231   -1.3936    4.0267 H   0  0  0  0  0  0  0  0  0  0  0  0
    3.0374   -0.4573    3.9531 H   0  0  0  0  0  0  0  0  0  0  0  0
    1.5467    0.3025    4.5537 H   0  0  0  0  0  0  0  0  0  0  0  0
  1  2  1  0  0  0  0
  1  6  1  0  0  0  0
  1  9  2  0  0  0  0
  2  3  2  0  0  0  0
  3  4  1  0  0  0  0
  3 26  1  0  0  0  0
  4  5  2  0  0  0  0
  4 27  1  0  0  0  0
  5  6  1  0  0  0  0
  5 25  1  0  0  0  0
  6  7  1  0  0  0  0
  7  8  2  0  0  0  0
  8  9  1  0  0  0  0
  8 28  1  0  0  0  0
  9 10  1  0  0  0  0
 10 11  2  0  0  0  0
 10 12  1  0  0  0  0
 12 29  1  0  0  0  0
 13 14  1  0  0  0  0
 13 18  1  0  0  0  0
 13 12  1  0  0  0  0
 13 30  1  6  0  0  0
 14 15  1  0  0  0  0
 14 31  1  0  0  0  0
 14 32  1  0  0  0  0
 15 16  1  0  0  0  0
 15 33  1  0  0  0  0
 15 34  1  0  0  0  0
 16 17  1  0  0  0  0
 16 35  1  1  0  0  0
 16 19  1  0  0  0  0
 17 18  1  0  0  0  0
 17 36  1  0  0  0  0
 17 37  1  0  0  0  0
 18 38  1  0  0  0  0
 18 39  1  0  0  0  0
 19 20  1  0  0  0  0
 20 21  1  0  0  0  0
 20 40  1  0  0  0  0
 20 41  1  0  0  0  0
 21 22  1  0  0  0  0
 21 42  1  0  0  0  0
 21 43  1  0  0  0  0
 22 23  1  0  0  0  0
 22 44  1  0  0  0  0
 22 45  1  0  0  0  0
 23 24  1  0  0  0  0
 23 46  1  0  0  0  0
 23 47  1  0  0  0  0
 24 48  1  0  0  0  0
 24 49  1  0  0  0  0
 24 50  1  0  0  0  0
 25 51  1  0  0  0  0
 25 52  1  0  0  0  0
 25 53  1  0  0  0  0
 26 54  1  0  0  0  0
 26 55  1  0  0  0  0
 26 56  1  0  0  0  0
M  END
>  <Mol_ID>
3993

>  <Formula>
C20H30N4O2

>  <MolWeight>
358.4778

>  <Cat>
S1024

>  <Name>
LTI-291

>  <Synonyms>
N/A

>  <Target>
Others

>  <Form>
Free Base

>  <CAS>
1919820-28-2

>  <URL>
http://www.selleck.cn/products/lti-291.html

$$$$
