Lu-135252
 OpenBabel08302521313D

 52 54  0  0  0  0  0  0  0  0999 V2000
    0.7109    2.1308    1.1481 C   0  0  0  0  0  0  0  0  0  0  0  0
    0.0822    0.6489    0.9095 C   0  0  2  0  0  0  0  0  0  0  0  0
    1.9166    2.3273    0.0960 C   0  0  0  0  0  0  0  0  0  0  0  0
    1.0700    2.5020    2.6541 C   0  0  0  0  0  0  0  0  0  0  0  0
   -0.3044    3.1458    0.8768 O   0  0  0  0  0  0  0  0  0  0  0  0
   -1.2866    0.4354    1.3089 O   0  0  0  0  0  0  0  0  0  0  0  0
    1.0819   -0.4022    1.4861 C   0  0  0  0  0  0  0  0  0  0  0  0
    2.2227    1.3580   -0.8975 C   0  0  0  0  0  0  0  0  0  0  0  0
    2.6252    3.5350   -0.0409 C   0  0  0  0  0  0  0  0  0  0  0  0
    1.6763    3.7370    3.0122 C   0  0  0  0  0  0  0  0  0  0  0  0
    0.7384    1.6954    3.7623 C   0  0  0  0  0  0  0  0  0  0  0  0
   -0.7394    3.3395   -0.4566 C   0  0  0  0  0  0  0  0  0  0  0  0
   -2.2101    0.0388    0.3215 C   0  0  0  0  0  0  0  0  0  0  0  0
    0.6442   -1.6777    1.4104 O   0  0  0  0  0  0  0  0  0  0  0  0
    2.2079   -0.1739    1.9039 O   0  0  0  0  0  0  0  0  0  0  0  0
    3.0861    1.6051   -1.9709 C   0  0  0  0  0  0  0  0  0  0  0  0
    3.5487    3.7620   -1.0734 C   0  0  0  0  0  0  0  0  0  0  0  0
    2.1080    4.0515    4.3018 C   0  0  0  0  0  0  0  0  0  0  0  0
    1.1451    2.0187    5.0768 C   0  0  0  0  0  0  0  0  0  0  0  0
   -1.7894   -0.4415   -0.8775 N   0  0  0  0  0  0  0  0  0  0  0  0
   -3.4908    0.0930    0.7181 N   0  0  0  0  0  0  0  0  0  0  0  0
    3.7540    2.8106   -2.0583 C   0  0  0  0  0  0  0  0  0  0  0  0
    1.8665    3.1762    5.3427 C   0  0  0  0  0  0  0  0  0  0  0  0
   -2.7859   -0.8231   -1.7259 C   0  0  0  0  0  0  0  0  0  0  0  0
   -4.4143   -0.3138   -0.1803 C   0  0  0  0  0  0  0  0  0  0  0  0
   -4.1208   -0.7813   -1.4265 C   0  0  0  0  0  0  0  0  0  0  0  0
   -2.5565   -1.3555   -2.9872 O   0  0  0  0  0  0  0  0  0  0  0  0
   -5.7699   -0.2761    0.0913 O   0  0  0  0  0  0  0  0  0  0  0  0
   -1.2751   -1.1542   -3.5464 C   0  0  0  0  0  0  0  0  0  0  0  0
   -6.1139    0.3124    1.3328 C   0  0  0  0  0  0  0  0  0  0  0  0
    0.0862    0.4947   -0.1638 H   0  0  0  0  0  0  0  0  0  0  0  0
    1.7950    0.3623   -0.9231 H   0  0  0  0  0  0  0  0  0  0  0  0
    2.4605    4.3820    0.6026 H   0  0  0  0  0  0  0  0  0  0  0  0
    1.7804    4.5333    2.2860 H   0  0  0  0  0  0  0  0  0  0  0  0
    0.1517    0.7892    3.6525 H   0  0  0  0  0  0  0  0  0  0  0  0
    0.0805    3.4404   -1.1691 H   0  0  0  0  0  0  0  0  0  0  0  0
   -1.4110    2.5402   -0.7687 H   0  0  0  0  0  0  0  0  0  0  0  0
   -1.2955    4.2820   -0.4836 H   0  0  0  0  0  0  0  0  0  0  0  0
   -0.2427   -1.7710    1.0087 H   0  0  0  0  0  0  0  0  0  0  0  0
    3.2210    0.8455   -2.7366 H   0  0  0  0  0  0  0  0  0  0  0  0
    4.0795    4.7094   -1.1172 H   0  0  0  0  0  0  0  0  0  0  0  0
    2.6303    4.9877    4.4823 H   0  0  0  0  0  0  0  0  0  0  0  0
    0.8945    1.3554    5.9003 H   0  0  0  0  0  0  0  0  0  0  0  0
    4.4249    3.0074   -2.8876 H   0  0  0  0  0  0  0  0  0  0  0  0
    2.2117    3.4076    6.3483 H   0  0  0  0  0  0  0  0  0  0  0  0
   -4.8852   -1.1034   -2.1222 H   0  0  0  0  0  0  0  0  0  0  0  0
   -1.0945   -0.0939   -3.7437 H   0  0  0  0  0  0  0  0  0  0  0  0
   -0.4962   -1.5934   -2.9215 H   0  0  0  0  0  0  0  0  0  0  0  0
   -1.2630   -1.6746   -4.5129 H   0  0  0  0  0  0  0  0  0  0  0  0
   -5.9609   -0.4048    2.1435 H   0  0  0  0  0  0  0  0  0  0  0  0
   -5.5736    1.2455    1.5137 H   0  0  0  0  0  0  0  0  0  0  0  0
   -7.1814    0.5543    1.2915 H   0  0  0  0  0  0  0  0  0  0  0  0
  1  3  1  0  0  0  0
  1  4  1  0  0  0  0
  1  5  1  0  0  0  0
  2  7  1  0  0  0  0
  2 31  1  6  0  0  0
  2  6  1  0  0  0  0
  2  1  1  0  0  0  0
  3  8  2  0  0  0  0
  3  9  1  0  0  0  0
  4 10  2  0  0  0  0
  4 11  1  0  0  0  0
  5 12  1  0  0  0  0
  6 13  1  0  0  0  0
  7 14  1  0  0  0  0
  7 15  2  0  0  0  0
  8 16  1  0  0  0  0
  8 32  1  0  0  0  0
  9 17  2  0  0  0  0
  9 33  1  0  0  0  0
 10 18  1  0  0  0  0
 10 34  1  0  0  0  0
 11 19  2  0  0  0  0
 11 35  1  0  0  0  0
 12 36  1  0  0  0  0
 12 37  1  0  0  0  0
 12 38  1  0  0  0  0
 13 20  2  0  0  0  0
 13 21  1  0  0  0  0
 14 39  1  0  0  0  0
 16 22  2  0  0  0  0
 16 40  1  0  0  0  0
 17 22  1  0  0  0  0
 17 41  1  0  0  0  0
 18 23  2  0  0  0  0
 18 42  1  0  0  0  0
 19 23  1  0  0  0  0
 19 43  1  0  0  0  0
 20 24  1  0  0  0  0
 21 25  2  0  0  0  0
 22 44  1  0  0  0  0
 23 45  1  0  0  0  0
 24 26  2  0  0  0  0
 24 27  1  0  0  0  0
 25 28  1  0  0  0  0
 25 26  1  0  0  0  0
 26 46  1  0  0  0  0
 27 29  1  0  0  0  0
 28 30  1  0  0  0  0
 29 47  1  0  0  0  0
 29 48  1  0  0  0  0
 29 49  1  0  0  0  0
 30 50  1  0  0  0  0
 30 51  1  0  0  0  0
 30 52  1  0  0  0  0
M  END
>  <Mol_ID>
6095

>  <Formula>
C22H22N2O6

>  <MolWeight>
410.41988

>  <Cat>
S0017

>  <Name>
Lu-135252

>  <Synonyms>
Darusentan, HMR-4005

>  <Target>
Endothelin Receptor

>  <Form>
free base

>  <CAS>
171714-84-4

>  <URL>
http://www.selleckchem.com/products/lu-135252.html

$$$$
