Lubiprostone.cdx
 OpenBabel08302522063D

 59 59  0  0  0  0  0  0  0  0999 V2000
   -0.5906   -1.1041   -0.1128 C   0  0  0  0  0  0  0  0  0  0  0  0
    0.8988   -1.1801    0.0186 C   0  0  0  0  0  0  0  0  0  0  0  0
    1.3136    0.2812    0.1423 C   0  0  2  0  0  0  0  0  0  0  0  0
    0.0634    1.1347   -0.1525 C   0  0  1  0  0  0  0  0  0  0  0  0
   -1.1282    0.2586    0.2749 C   0  0  1  0  0  0  0  0  0  0  0  0
    2.3652    0.5417   -0.7796 O   0  0  0  0  0  0  0  0  0  0  0  0
    0.1329    3.9449    2.5827 C   0  0  0  0  0  0  0  0  0  0  0  0
    0.1362    2.5337    2.0395 C   0  0  0  0  0  0  0  0  0  0  0  0
    0.1007    2.5254    0.5051 C   0  0  0  0  0  0  0  0  0  0  0  0
   -0.5082    4.1627    3.9497 C   0  0  0  0  0  0  0  0  0  0  0  0
   -1.6578    5.1630    3.8552 C   0  0  0  0  0  0  0  0  0  0  0  0
   -0.9606    3.0028    4.5008 F   0  0  0  0  0  0  0  0  0  0  0  0
    0.4041    4.6456    4.8430 F   0  0  0  0  0  0  0  0  0  0  0  0
   -2.8061    4.7843    2.9091 C   0  0  0  0  0  0  0  0  0  0  0  0
   -3.5441    3.4989    3.2840 C   0  0  0  0  0  0  0  0  0  0  0  0
   -4.6877    3.2164    2.3204 C   0  0  0  0  0  0  0  0  0  0  0  0
   -2.4340    0.6523   -0.4140 C   0  0  0  0  0  0  0  0  0  0  0  0
   -3.6283   -0.1860    0.0614 C   0  0  0  0  0  0  0  0  0  0  0  0
   -4.9518    0.2047   -0.5985 C   0  0  0  0  0  0  0  0  0  0  0  0
   -4.9379    0.0563   -2.1229 C   0  0  0  0  0  0  0  0  0  0  0  0
   -6.2796    0.3894   -2.7771 C   0  0  0  0  0  0  0  0  0  0  0  0
   -6.7291    1.8328   -2.5416 C   0  0  0  0  0  0  0  0  0  0  0  0
   -8.0358    2.1296   -3.2368 C   0  0  0  0  0  0  0  0  0  0  0  0
   -8.4520    3.4006   -3.0274 O   0  0  0  0  0  0  0  0  0  0  0  0
   -8.6769    1.3393   -3.9133 O   0  0  0  0  0  0  0  0  0  0  0  0
   -1.2752   -2.0692   -0.4188 O   0  0  0  0  0  0  0  0  0  0  0  0
    0.6467    4.8744    1.9437 O   0  0  0  0  0  0  0  0  0  0  0  0
    1.1308   -1.7237    0.9401 H   0  0  0  0  0  0  0  0  0  0  0  0
    1.3350   -1.6867   -0.8453 H   0  0  0  0  0  0  0  0  0  0  0  0
    1.7128    0.4598    1.1438 H   0  0  0  0  0  0  0  0  0  0  0  0
    0.0086    1.3042   -1.2391 H   0  0  0  0  0  0  0  0  0  0  0  0
   -1.2551    0.2499    1.3617 H   0  0  0  0  0  0  0  0  0  0  0  0
    2.1657    1.3305   -1.3113 H   0  0  0  0  0  0  0  0  0  0  0  0
   -0.7424    2.0145    2.4265 H   0  0  0  0  0  0  0  0  0  0  0  0
    1.0296    2.0357    2.4297 H   0  0  0  0  0  0  0  0  0  0  0  0
    0.9701    3.0725    0.1185 H   0  0  0  0  0  0  0  0  0  0  0  0
   -0.7776    3.0973    0.1771 H   0  0  0  0  0  0  0  0  0  0  0  0
   -2.0613    5.3320    4.8603 H   0  0  0  0  0  0  0  0  0  0  0  0
   -1.2519    6.1290    3.5260 H   0  0  0  0  0  0  0  0  0  0  0  0
   -3.5247    5.6140    2.9086 H   0  0  0  0  0  0  0  0  0  0  0  0
   -2.4303    4.7058    1.8818 H   0  0  0  0  0  0  0  0  0  0  0  0
   -2.8652    2.6424    3.2600 H   0  0  0  0  0  0  0  0  0  0  0  0
   -3.9378    3.5774    4.3037 H   0  0  0  0  0  0  0  0  0  0  0  0
   -4.3170    3.1142    1.2955 H   0  0  0  0  0  0  0  0  0  0  0  0
   -5.1912    2.2832    2.5922 H   0  0  0  0  0  0  0  0  0  0  0  0
   -5.4284    4.0217    2.3392 H   0  0  0  0  0  0  0  0  0  0  0  0
   -2.6538    1.7085   -0.2120 H   0  0  0  0  0  0  0  0  0  0  0  0
   -2.3091    0.5533   -1.4974 H   0  0  0  0  0  0  0  0  0  0  0  0
   -3.4584   -1.2489   -0.1286 H   0  0  0  0  0  0  0  0  0  0  0  0
   -3.7340   -0.0751    1.1477 H   0  0  0  0  0  0  0  0  0  0  0  0
   -5.7428   -0.4341   -0.1855 H   0  0  0  0  0  0  0  0  0  0  0  0
   -5.1905    1.2336   -0.3139 H   0  0  0  0  0  0  0  0  0  0  0  0
   -4.1714    0.7013   -2.5653 H   0  0  0  0  0  0  0  0  0  0  0  0
   -4.6707   -0.9764   -2.3814 H   0  0  0  0  0  0  0  0  0  0  0  0
   -6.1879    0.2131   -3.8563 H   0  0  0  0  0  0  0  0  0  0  0  0
   -7.0473   -0.3051   -2.4142 H   0  0  0  0  0  0  0  0  0  0  0  0
   -6.8813    2.0135   -1.4731 H   0  0  0  0  0  0  0  0  0  0  0  0
   -5.9693    2.5251   -2.9195 H   0  0  0  0  0  0  0  0  0  0  0  0
   -7.8485    3.9258   -2.4683 H   0  0  0  0  0  0  0  0  0  0  0  0
  1  2  1  0  0  0  0
  1 26  2  0  0  0  0
  2  3  1  0  0  0  0
  2 28  1  0  0  0  0
  2 29  1  0  0  0  0
  3  4  1  0  0  0  0
  3 30  1  1  0  0  0
  3  6  1  0  0  0  0
  4  5  1  0  0  0  0
  4  9  1  0  0  0  0
  4 31  1  6  0  0  0
  5  1  1  0  0  0  0
  5 17  1  0  0  0  0
  5 32  1  1  0  0  0
  6 33  1  0  0  0  0
  7  8  1  0  0  0  0
  7 10  1  0  0  0  0
  7 27  2  0  0  0  0
  8  9  1  0  0  0  0
  8 34  1  0  0  0  0
  8 35  1  0  0  0  0
  9 36  1  0  0  0  0
  9 37  1  0  0  0  0
 10 11  1  0  0  0  0
 10 12  1  0  0  0  0
 10 13  1  0  0  0  0
 11 14  1  0  0  0  0
 11 38  1  0  0  0  0
 11 39  1  0  0  0  0
 14 15  1  0  0  0  0
 14 40  1  0  0  0  0
 14 41  1  0  0  0  0
 15 16  1  0  0  0  0
 15 42  1  0  0  0  0
 15 43  1  0  0  0  0
 16 44  1  0  0  0  0
 16 45  1  0  0  0  0
 16 46  1  0  0  0  0
 17 18  1  0  0  0  0
 17 47  1  0  0  0  0
 17 48  1  0  0  0  0
 18 19  1  0  0  0  0
 18 49  1  0  0  0  0
 18 50  1  0  0  0  0
 19 20  1  0  0  0  0
 19 51  1  0  0  0  0
 19 52  1  0  0  0  0
 20 21  1  0  0  0  0
 20 53  1  0  0  0  0
 20 54  1  0  0  0  0
 21 22  1  0  0  0  0
 21 55  1  0  0  0  0
 21 56  1  0  0  0  0
 22 23  1  0  0  0  0
 22 57  1  0  0  0  0
 22 58  1  0  0  0  0
 23 24  1  0  0  0  0
 23 25  2  0  0  0  0
 24 59  1  0  0  0  0
M  END
>  <Mol_ID>
1385

>  <Formula>
C20H32F2O5

>  <MolWeight>
390.4618864

>  <Cat>
S1675

>  <Name>
Lubiprostone

>  <Synonyms>
RU 0211,SPI-0211

>  <Target>
Chloride Channel

>  <Form>
Free Base

>  <CAS>
136790-76-6

>  <URL>
http://selleckchem.com/products/Lubiprostone(Amitiza).html

$$$$
