Lucanthone
 OpenBabel08302520403D

 48 50  0  0  0  0  0  0  0  0999 V2000
   -1.1174   -0.5654    0.0803 C   0  0  0  0  0  0  0  0  0  0  0  0
   -1.2194    0.8429    0.1283 C   0  0  0  0  0  0  0  0  0  0  0  0
   -2.2727   -1.3691   -0.1459 C   0  0  0  0  0  0  0  0  0  0  0  0
    0.1998   -1.2418    0.2859 C   0  0  0  0  0  0  0  0  0  0  0  0
    0.1933    1.9201    0.3156 S   0  0  0  0  0  0  0  0  0  0  0  0
   -2.4949    1.4568    0.0254 C   0  0  0  0  0  0  0  0  0  0  0  0
   -3.5164   -0.7259   -0.2198 C   0  0  0  0  0  0  0  0  0  0  0  0
   -2.1679   -2.7239   -0.4480 N   0  0  0  0  0  0  0  0  0  0  0  0
    1.4932   -0.5318    0.1112 C   0  0  0  0  0  0  0  0  0  0  0  0
    0.2479   -2.4219    0.6276 O   0  0  0  0  0  0  0  0  0  0  0  0
    1.5790    0.8558    0.0875 C   0  0  0  0  0  0  0  0  0  0  0  0
   -3.6300    0.6569   -0.1163 C   0  0  0  0  0  0  0  0  0  0  0  0
   -2.6870    2.9528    0.0309 C   0  0  0  0  0  0  0  0  0  0  0  0
   -3.2473   -3.5454   -0.9755 C   0  0  0  0  0  0  0  0  0  0  0  0
    2.6688   -1.3013    0.0074 C   0  0  0  0  0  0  0  0  0  0  0  0
    2.8379    1.4645   -0.0571 C   0  0  0  0  0  0  0  0  0  0  0  0
   -2.7019   -4.8877   -1.5242 C   0  0  0  0  0  0  0  0  0  0  0  0
    3.9149   -0.6872   -0.1263 C   0  0  0  0  0  0  0  0  0  0  0  0
    4.0000    0.6982   -0.1623 C   0  0  0  0  0  0  0  0  0  0  0  0
   -2.1269   -5.7853   -0.5027 N   0  0  0  0  0  0  0  0  0  0  0  0
   -3.1035   -6.2425    0.5017 C   0  0  0  0  0  0  0  0  0  0  0  0
   -1.3756   -6.9112   -1.0758 C   0  0  0  0  0  0  0  0  0  0  0  0
   -4.3010   -7.0349   -0.0182 C   0  0  0  0  0  0  0  0  0  0  0  0
   -0.1457   -6.4792   -1.8709 C   0  0  0  0  0  0  0  0  0  0  0  0
   -4.4282   -1.2995   -0.3545 H   0  0  0  0  0  0  0  0  0  0  0  0
   -1.4029   -3.2209    0.0263 H   0  0  0  0  0  0  0  0  0  0  0  0
   -4.6211    1.1036   -0.1746 H   0  0  0  0  0  0  0  0  0  0  0  0
   -2.2636    3.3990    0.9361 H   0  0  0  0  0  0  0  0  0  0  0  0
   -2.2241    3.3969   -0.8578 H   0  0  0  0  0  0  0  0  0  0  0  0
   -3.7481    3.2207    0.0121 H   0  0  0  0  0  0  0  0  0  0  0  0
   -4.0196   -3.7092   -0.2169 H   0  0  0  0  0  0  0  0  0  0  0  0
   -3.7226   -3.0261   -1.8170 H   0  0  0  0  0  0  0  0  0  0  0  0
    2.6128   -2.3876    0.0412 H   0  0  0  0  0  0  0  0  0  0  0  0
    2.9262    2.5480   -0.0710 H   0  0  0  0  0  0  0  0  0  0  0  0
   -3.4932   -5.3964   -2.0874 H   0  0  0  0  0  0  0  0  0  0  0  0
   -1.9320   -4.6251   -2.2586 H   0  0  0  0  0  0  0  0  0  0  0  0
    4.8149   -1.2940   -0.1946 H   0  0  0  0  0  0  0  0  0  0  0  0
    4.9670    1.1856   -0.2593 H   0  0  0  0  0  0  0  0  0  0  0  0
   -2.5823   -6.8552    1.2496 H   0  0  0  0  0  0  0  0  0  0  0  0
   -3.4708   -5.3806    1.0700 H   0  0  0  0  0  0  0  0  0  0  0  0
   -1.0106   -7.5416   -0.2550 H   0  0  0  0  0  0  0  0  0  0  0  0
   -2.0114   -7.5434   -1.7065 H   0  0  0  0  0  0  0  0  0  0  0  0
   -3.9921   -7.9799   -0.4769 H   0  0  0  0  0  0  0  0  0  0  0  0
   -4.9711   -7.2773    0.8144 H   0  0  0  0  0  0  0  0  0  0  0  0
   -4.8871   -6.4696   -0.7467 H   0  0  0  0  0  0  0  0  0  0  0  0
    0.3653   -5.6338   -1.3983 H   0  0  0  0  0  0  0  0  0  0  0  0
    0.5695   -7.3063   -1.9329 H   0  0  0  0  0  0  0  0  0  0  0  0
   -0.4129   -6.1970   -2.8939 H   0  0  0  0  0  0  0  0  0  0  0  0
  1  2  1  0  0  0  0
  1  3  2  0  0  0  0
  1  4  1  0  0  0  0
  2  5  1  0  0  0  0
  2  6  2  0  0  0  0
  3  7  1  0  0  0  0
  3  8  1  0  0  0  0
  4  9  1  0  0  0  0
  4 10  2  0  0  0  0
  5 11  1  0  0  0  0
  6 12  1  0  0  0  0
  6 13  1  0  0  0  0
  7 12  2  0  0  0  0
  7 25  1  0  0  0  0
  8 14  1  0  0  0  0
  8 26  1  0  0  0  0
  9 15  2  0  0  0  0
  9 11  1  0  0  0  0
 11 16  2  0  0  0  0
 12 27  1  0  0  0  0
 13 28  1  0  0  0  0
 13 29  1  0  0  0  0
 13 30  1  0  0  0  0
 14 17  1  0  0  0  0
 14 31  1  0  0  0  0
 14 32  1  0  0  0  0
 15 18  1  0  0  0  0
 15 33  1  0  0  0  0
 16 19  1  0  0  0  0
 16 34  1  0  0  0  0
 17 20  1  0  0  0  0
 17 35  1  0  0  0  0
 17 36  1  0  0  0  0
 18 19  2  0  0  0  0
 18 37  1  0  0  0  0
 19 38  1  0  0  0  0
 20 21  1  0  0  0  0
 20 22  1  0  0  0  0
 21 23  1  0  0  0  0
 21 39  1  0  0  0  0
 21 40  1  0  0  0  0
 22 24  1  0  0  0  0
 22 41  1  0  0  0  0
 22 42  1  0  0  0  0
 23 43  1  0  0  0  0
 23 44  1  0  0  0  0
 23 45  1  0  0  0  0
 24 46  1  0  0  0  0
 24 47  1  0  0  0  0
 24 48  1  0  0  0  0
M  END
>  <Mol_ID>
3780

>  <Formula>
C20H24N2OS

>  <MolWeight>
340.48236

>  <Cat>
S6471

>  <Name>
Lucanthone

>  <Synonyms>
N/A

>  <Target>
Autophagy

>  <Form>
Free Base

>  <CAS>
479-50-5

>  <URL>
http://www.selleck.cn/products/lucanthone.html

$$$$
