Lumiracoxib.cdx
 OpenBabel08302522003D

 33 34  0  0  0  0  0  0  0  0999 V2000
    0.3093   -0.6499    3.2455 C   0  0  0  0  0  0  0  0  0  0  0  0
    1.3939    0.2254    3.2318 C   0  0  0  0  0  0  0  0  0  0  0  0
    2.3493    0.1316    2.2223 C   0  0  0  0  0  0  0  0  0  0  0  0
    2.1722   -0.7899    1.1927 C   0  0  0  0  0  0  0  0  0  0  0  0
    1.0576   -1.6378    1.1504 C   0  0  0  0  0  0  0  0  0  0  0  0
    0.1509   -1.5861    2.2203 C   0  0  0  0  0  0  0  0  0  0  0  0
    0.7760   -2.3912   -0.0263 N   0  0  0  0  0  0  0  0  0  0  0  0
    0.1307   -3.6514   -0.0535 C   0  0  0  0  0  0  0  0  0  0  0  0
    0.3170   -4.5633    0.9994 C   0  0  0  0  0  0  0  0  0  0  0  0
   -0.3545   -5.7824    1.0294 C   0  0  0  0  0  0  0  0  0  0  0  0
   -1.2314   -6.1192   -0.0020 C   0  0  0  0  0  0  0  0  0  0  0  0
   -1.3810   -5.2407   -1.0829 C   0  0  0  0  0  0  0  0  0  0  0  0
   -0.6682   -4.0289   -1.1511 C   0  0  0  0  0  0  0  0  0  0  0  0
   -0.7772   -3.2064   -2.4178 C   0  0  0  0  0  0  0  0  0  0  0  0
   -1.9076   -2.2049   -2.4847 C   0  0  0  0  0  0  0  0  0  0  0  0
   -1.8990   -1.2900   -1.4788 O   0  0  0  0  0  0  0  0  0  0  0  0
   -2.7177   -2.1654   -3.3911 O   0  0  0  0  0  0  0  0  0  0  0  0
   -1.9595   -7.4285    0.0365 C   0  0  0  0  0  0  0  0  0  0  0  0
    3.0791   -0.8464    0.2042 F   0  0  0  0  0  0  0  0  0  0  0  0
   -0.4435   -0.5763    4.0281 H   0  0  0  0  0  0  0  0  0  0  0  0
    1.4809    0.9926    3.9971 H   0  0  0  0  0  0  0  0  0  0  0  0
    3.2034    0.8006    2.2031 H   0  0  0  0  0  0  0  0  0  0  0  0
   -0.7192   -2.2400    2.2446 H   0  0  0  0  0  0  0  0  0  0  0  0
    1.5842   -2.3731   -0.6541 H   0  0  0  0  0  0  0  0  0  0  0  0
    0.9913   -4.3266    1.8208 H   0  0  0  0  0  0  0  0  0  0  0  0
   -0.1974   -6.4579    1.8651 H   0  0  0  0  0  0  0  0  0  0  0  0
   -2.0544   -5.5135   -1.8974 H   0  0  0  0  0  0  0  0  0  0  0  0
    0.1659   -2.6904   -2.6277 H   0  0  0  0  0  0  0  0  0  0  0  0
   -0.9189   -3.8925   -3.2638 H   0  0  0  0  0  0  0  0  0  0  0  0
   -1.2095   -1.4654   -0.8109 H   0  0  0  0  0  0  0  0  0  0  0  0
   -1.2460   -8.2556   -0.0261 H   0  0  0  0  0  0  0  0  0  0  0  0
   -2.5338   -7.5164    0.9651 H   0  0  0  0  0  0  0  0  0  0  0  0
   -2.6609   -7.5216   -0.7997 H   0  0  0  0  0  0  0  0  0  0  0  0
  1  2  2  0  0  0  0
  1 20  1  0  0  0  0
  2  3  1  0  0  0  0
  2 21  1  0  0  0  0
  3  4  2  0  0  0  0
  3 22  1  0  0  0  0
  4  5  1  0  0  0  0
  4 19  1  0  0  0  0
  5  6  2  0  0  0  0
  5  7  1  0  0  0  0
  6  1  1  0  0  0  0
  6 23  1  0  0  0  0
  7  8  1  0  0  0  0
  7 24  1  0  0  0  0
  8  9  2  0  0  0  0
  9 10  1  0  0  0  0
  9 25  1  0  0  0  0
 10 11  2  0  0  0  0
 10 26  1  0  0  0  0
 11 12  1  0  0  0  0
 11 18  1  0  0  0  0
 12 13  2  0  0  0  0
 12 27  1  0  0  0  0
 13  8  1  0  0  0  0
 13 14  1  0  0  0  0
 14 15  1  0  0  0  0
 14 28  1  0  0  0  0
 14 29  1  0  0  0  0
 15 16  1  0  0  0  0
 15 17  2  0  0  0  0
 16 30  1  0  0  0  0
 18 31  1  0  0  0  0
 18 32  1  0  0  0  0
 18 33  1  0  0  0  0
M  END
>  <Mol_ID>
1074

>  <Formula>
C15H13ClFNO2

>  <MolWeight>
293.7206232

>  <Cat>
S2903

>  <Name>
Lumiracoxib

>  <Synonyms>
COX-189

>  <Target>
COX

>  <Form>
free base

>  <CAS>
220991-20-8

>  <URL>
http://selleckchem.com/products/lumiracoxib-cox-189.html

$$$$
