Lumichrome
 OpenBabel08302521453D

 28 30  0  0  0  0  0  0  0  0999 V2000
   -2.5367    2.6037    0.0321 O   0  0  0  0  0  0  0  0  0  0  0  0
   -4.5797   -1.4085    0.0049 O   0  0  0  0  0  0  0  0  0  0  0  0
    4.8878    1.4758   -0.0139 C   0  0  0  0  0  0  0  0  0  0  0  0
    4.9451   -1.5524    0.0179 C   0  0  0  0  0  0  0  0  0  0  0  0
   -1.1397    0.6578   -0.0057 C   0  0  0  0  0  0  0  0  0  0  0  0
   -1.1798   -0.8536    0.0069 C   0  0  0  0  0  0  0  0  0  0  0  0
   -0.0188    1.3208   -0.0164 N   0  0  0  0  0  0  0  0  0  0  0  0
   -2.4532    1.3877   -0.0064 C   0  0  0  0  0  0  0  0  0  0  0  0
    0.0154   -1.5217    0.0224 N   0  0  0  0  0  0  0  0  0  0  0  0
   -2.3125   -1.4803    0.0036 N   0  0  0  0  0  0  0  0  0  0  0  0
    1.1905    0.5936   -0.0098 C   0  0  0  0  0  0  0  0  0  0  0  0
   -3.5306    0.5537   -0.0418 N   0  0  0  0  0  0  0  0  0  0  0  0
    1.2223   -0.8137    0.0115 C   0  0  0  0  0  0  0  0  0  0  0  0
   -3.5063   -0.8135   -0.0121 C   0  0  0  0  0  0  0  0  0  0  0  0
    2.3909    1.3045   -0.0210 C   0  0  0  0  0  0  0  0  0  0  0  0
    2.4520   -1.4772    0.0207 C   0  0  0  0  0  0  0  0  0  0  0  0
    3.6328    0.6465   -0.0106 C   0  0  0  0  0  0  0  0  0  0  0  0
    3.6642   -0.7614    0.0106 C   0  0  0  0  0  0  0  0  0  0  0  0
    5.4630    1.2943    0.8996 H   0  0  0  0  0  0  0  0  0  0  0  0
    5.4995    1.2380   -0.8898 H   0  0  0  0  0  0  0  0  0  0  0  0
    4.6635    2.5471   -0.0536 H   0  0  0  0  0  0  0  0  0  0  0  0
    4.9835   -2.1918    0.9062 H   0  0  0  0  0  0  0  0  0  0  0  0
    4.9993   -2.1804   -0.8776 H   0  0  0  0  0  0  0  0  0  0  0  0
    5.8374   -0.9219    0.0314 H   0  0  0  0  0  0  0  0  0  0  0  0
    0.0175   -2.5306    0.0371 H   0  0  0  0  0  0  0  0  0  0  0  0
   -4.4453    0.9777   -0.0320 H   0  0  0  0  0  0  0  0  0  0  0  0
    2.3454    2.3918   -0.0369 H   0  0  0  0  0  0  0  0  0  0  0  0
    2.4783   -2.5648    0.0365 H   0  0  0  0  0  0  0  0  0  0  0  0
  1  8  2  0  0  0  0
  2 14  2  0  0  0  0
  3 17  1  0  0  0  0
  3 19  1  0  0  0  0
  3 20  1  0  0  0  0
  3 21  1  0  0  0  0
  4 18  1  0  0  0  0
  4 22  1  0  0  0  0
  4 23  1  0  0  0  0
  4 24  1  0  0  0  0
  5  6  1  0  0  0  0
  5  7  2  0  0  0  0
  5  8  1  0  0  0  0
  6  9  1  0  0  0  0
  6 10  2  0  0  0  0
  7 11  1  0  0  0  0
  8 12  1  0  0  0  0
  9 13  1  0  0  0  0
  9 25  1  0  0  0  0
 10 14  1  0  0  0  0
 11 13  2  0  0  0  0
 11 15  1  0  0  0  0
 12 14  1  0  0  0  0
 12 26  1  0  0  0  0
 13 16  1  0  0  0  0
 15 17  2  0  0  0  0
 15 27  1  0  0  0  0
 16 18  2  0  0  0  0
 16 28  1  0  0  0  0
 17 18  1  0  0  0  0
M  END
>  <Mol_ID>
9535

>  <Formula>
C12H10N4O2

>  <MolWeight>
242.2334

>  <Cat>
E4519

>  <Name>
Lumichrome

>  <Synonyms>
Lumichrome

>  <Target>
Others

>  <Form>
free base

>  <CAS>
1086-80-2

>  <URL>
https://www.selleckchem.com/products/lumichrome.html

$$$$
