Lvguidingan
 OpenBabel08302521243D

 32 32  0  0  0  0  0  0  0  0999 V2000
    1.1027   -0.1905    0.1341 O   0  0  0  0  0  0  0  0  0  0  0  0
    3.1628   -0.9798   -0.5190 N   0  0  0  0  0  0  0  0  0  0  0  0
    2.6933   -2.1006   -1.3343 C   0  0  3  0  0  0  0  0  0  0  0  0
    2.4761   -1.6964   -2.8062 C   0  0  0  0  0  0  0  0  0  0  0  0
    3.6583   -3.2785   -1.1987 C   0  0  0  0  0  0  0  0  0  0  0  0
    3.7067   -1.1289   -3.5043 C   0  0  0  0  0  0  0  0  0  0  0  0
    2.3233   -0.1032    0.1230 C   0  0  0  0  0  0  0  0  0  0  0  0
    3.0573    1.0021    0.8085 C   0  0  0  0  0  0  0  0  0  0  0  0
    3.0690    3.1215    2.0640 C   0  0  0  0  0  0  0  0  0  0  0  0
    2.3924    1.9747    1.4522 C   0  0  0  0  0  0  0  0  0  0  0  0
    3.3057    4.2757    1.3077 C   0  0  0  0  0  0  0  0  0  0  0  0
    3.4672    3.0967    3.4058 C   0  0  0  0  0  0  0  0  0  0  0  0
    3.9207    5.3927    1.8835 C   0  0  0  0  0  0  0  0  0  0  0  0
    4.0804    4.2150    3.9835 C   0  0  0  0  0  0  0  0  0  0  0  0
    4.3057    5.3616    3.2223 C   0  0  0  0  0  0  0  0  0  0  0  0
    4.1556   -0.7818   -0.5402 H   0  0  0  0  0  0  0  0  0  0  0  0
    1.7198   -2.4198   -0.9393 H   0  0  0  0  0  0  0  0  0  0  0  0
    2.1280   -2.5696   -3.3735 H   0  0  0  0  0  0  0  0  0  0  0  0
    1.6746   -0.9501   -2.8618 H   0  0  0  0  0  0  0  0  0  0  0  0
    3.7358   -3.5891   -0.1508 H   0  0  0  0  0  0  0  0  0  0  0  0
    3.3169   -4.1408   -1.7809 H   0  0  0  0  0  0  0  0  0  0  0  0
    4.6684   -3.0175   -1.5314 H   0  0  0  0  0  0  0  0  0  0  0  0
    4.5196   -1.8594   -3.5495 H   0  0  0  0  0  0  0  0  0  0  0  0
    3.4571   -0.8502   -4.5338 H   0  0  0  0  0  0  0  0  0  0  0  0
    4.0730   -0.2310   -2.9979 H   0  0  0  0  0  0  0  0  0  0  0  0
    4.1379    1.0088    0.7542 H   0  0  0  0  0  0  0  0  0  0  0  0
    1.3058    1.9758    1.5140 H   0  0  0  0  0  0  0  0  0  0  0  0
    2.9977    4.3216    0.2648 H   0  0  0  0  0  0  0  0  0  0  0  0
    3.2887    2.2150    4.0176 H   0  0  0  0  0  0  0  0  0  0  0  0
    4.0898    6.2864    1.2899 H   0  0  0  0  0  0  0  0  0  0  0  0
    4.3762    4.1939    5.0290 H   0  0  0  0  0  0  0  0  0  0  0  0
    4.7752    6.2326    3.6738 H   0  0  0  0  0  0  0  0  0  0  0  0
  1  7  2  0  0  0  0
  2  3  1  0  0  0  0
  2  7  1  0  0  0  0
  2 16  1  0  0  0  0
  3  4  1  0  0  0  0
  3  5  1  0  0  0  0
  3 17  1  0  0  0  0
  4  6  1  0  0  0  0
  4 18  1  0  0  0  0
  4 19  1  0  0  0  0
  5 20  1  0  0  0  0
  5 21  1  0  0  0  0
  5 22  1  0  0  0  0
  6 23  1  0  0  0  0
  6 24  1  0  0  0  0
  6 25  1  0  0  0  0
  7  8  1  0  0  0  0
  8 10  2  0  0  0  0
  8 26  1  0  0  0  0
  9 10  1  0  0  0  0
  9 11  2  0  0  0  0
  9 12  1  0  0  0  0
 10 27  1  0  0  0  0
 11 13  1  0  0  0  0
 11 28  1  0  0  0  0
 12 14  2  0  0  0  0
 12 29  1  0  0  0  0
 13 15  2  0  0  0  0
 13 30  1  0  0  0  0
 14 15  1  0  0  0  0
 14 31  1  0  0  0  0
 15 32  1  0  0  0  0
M  END
>  <Mol_ID>
4973

>  <Formula>
C13H15Cl2NO

>  <MolWeight>
272.1703

>  <Cat>
S0222

>  <Name>
Lvguidingan

>  <Synonyms>
Anticonvulsant 7903, 3,4-dichlorophenyl propenylisobutylamide

>  <Target>
5-HT Receptor

>  <Form>
Free Base

>  <CAS>
82351-05-1

>  <URL>
http://www.selleckchem.com/products/lvguidingan.html

$$$$
