LW 6.cdx
 OpenBabel08302520433D

 61 65  0  0  0  0  0  0  0  0999 V2000
    1.4499   -0.2230    0.1313 C   0  0  0  0  0  0  0  0  0  0  0  0
    0.6415   -1.3471    0.3502 C   0  0  0  0  0  0  0  0  0  0  0  0
   -0.7419   -1.2325    0.4855 C   0  0  0  0  0  0  0  0  0  0  0  0
   -1.3010    0.0397    0.4353 C   0  0  0  0  0  0  0  0  0  0  0  0
   -0.4962    1.1685    0.2121 C   0  0  0  0  0  0  0  0  0  0  0  0
    0.8919    1.0718    0.0348 C   0  0  0  0  0  0  0  0  0  0  0  0
    1.7842    2.2851   -0.2942 C   0  0  3  0  0  0  0  0  0  0  0  0
   -1.6466   -2.2666    0.6577 O   0  0  0  0  0  0  0  0  0  0  0  0
   -1.0691   -3.5489    0.5488 C   0  0  0  0  0  0  0  0  0  0  0  0
   -1.9231   -4.8146    0.6646 C   0  0  0  0  0  0  0  0  0  0  0  0
   -1.3374   -5.8943    0.5434 O   0  0  0  0  0  0  0  0  0  0  0  0
   -3.2650   -4.7018    0.9672 N   0  0  0  0  0  0  0  0  0  0  0  0
   -4.1602   -5.7989    1.2195 C   0  0  0  0  0  0  0  0  0  0  0  0
   -3.7610   -7.1093    1.5559 C   0  0  0  0  0  0  0  0  0  0  0  0
   -4.6654   -8.1706    1.6115 C   0  0  0  0  0  0  0  0  0  0  0  0
   -6.0237   -7.9271    1.5171 C   0  0  0  0  0  0  0  0  0  0  0  0
   -6.4739   -6.6089    1.3906 C   0  0  0  0  0  0  0  0  0  0  0  0
   -5.5460   -5.5596    1.1821 C   0  0  0  0  0  0  0  0  0  0  0  0
   -2.5176   -7.4585    2.0001 O   0  0  0  0  0  0  0  0  0  0  0  0
   -7.9204   -6.2931    1.5720 C   0  0  0  0  0  0  0  0  0  0  0  0
   -8.3925   -5.1790    1.4352 O   0  0  0  0  0  0  0  0  0  0  0  0
   -8.5848   -7.3967    2.0066 O   0  0  0  0  0  0  0  0  0  0  0  0
   -9.9382   -7.1820    2.4121 C   0  0  0  0  0  0  0  0  0  0  0  0
    0.9875    3.6240   -0.3488 C   0  0  0  0  0  0  0  0  0  0  0  0
    1.8894    4.8122   -0.7116 C   0  0  3  0  0  0  0  0  0  0  0  0
    2.9911    4.9476    0.3474 C   0  0  0  0  0  0  0  0  0  0  0  0
    3.8281    3.6611    0.3951 C   0  0  3  0  0  0  0  0  0  0  0  0
    2.9189    2.4678    0.7584 C   0  0  0  0  0  0  0  0  0  0  0  0
    4.4602    3.4194   -0.9857 C   0  0  0  0  0  0  0  0  0  0  0  0
    3.3603    3.2760   -2.0496 C   0  0  3  0  0  0  0  0  0  0  0  0
    2.4556    2.0837   -1.6872 C   0  0  0  0  0  0  0  0  0  0  0  0
    2.5195    4.5597   -2.0881 C   0  0  0  0  0  0  0  0  0  0  0  0
    2.5164   -0.3674    0.0148 H   0  0  0  0  0  0  0  0  0  0  0  0
    1.1564   -2.3059    0.4060 H   0  0  0  0  0  0  0  0  0  0  0  0
   -2.3734    0.1665    0.5550 H   0  0  0  0  0  0  0  0  0  0  0  0
   -1.0096    2.1286    0.1695 H   0  0  0  0  0  0  0  0  0  0  0  0
   -0.5680   -3.6395   -0.4257 H   0  0  0  0  0  0  0  0  0  0  0  0
   -0.3301   -3.6676    1.3540 H   0  0  0  0  0  0  0  0  0  0  0  0
   -3.6793   -3.7839    0.8302 H   0  0  0  0  0  0  0  0  0  0  0  0
   -4.2994   -9.1771    1.8009 H   0  0  0  0  0  0  0  0  0  0  0  0
   -6.7092   -8.7642    1.6251 H   0  0  0  0  0  0  0  0  0  0  0  0
   -5.9292   -4.5532    1.0217 H   0  0  0  0  0  0  0  0  0  0  0  0
   -1.9175   -6.7101    1.8281 H   0  0  0  0  0  0  0  0  0  0  0  0
   -9.9613   -6.5644    3.3141 H   0  0  0  0  0  0  0  0  0  0  0  0
  -10.5190   -6.7242    1.6065 H   0  0  0  0  0  0  0  0  0  0  0  0
  -10.3792   -8.1556    2.6499 H   0  0  0  0  0  0  0  0  0  0  0  0
    0.1827    3.5598   -1.0927 H   0  0  0  0  0  0  0  0  0  0  0  0
    0.5137    3.8216    0.6221 H   0  0  0  0  0  0  0  0  0  0  0  0
    1.2914    5.7298   -0.7422 H   0  0  0  0  0  0  0  0  0  0  0  0
    3.6311    5.8073    0.1131 H   0  0  0  0  0  0  0  0  0  0  0  0
    2.5457    5.1416    1.3309 H   0  0  0  0  0  0  0  0  0  0  0  0
    4.6185    3.7663    1.1470 H   0  0  0  0  0  0  0  0  0  0  0  0
    2.4880    2.6233    1.7560 H   0  0  0  0  0  0  0  0  0  0  0  0
    3.5412    1.5665    0.8287 H   0  0  0  0  0  0  0  0  0  0  0  0
    5.0806    2.5153   -0.9615 H   0  0  0  0  0  0  0  0  0  0  0  0
    5.1251    4.2531   -1.2456 H   0  0  0  0  0  0  0  0  0  0  0  0
    3.8175    3.1063   -3.0311 H   0  0  0  0  0  0  0  0  0  0  0  0
    3.0637    1.1694   -1.7016 H   0  0  0  0  0  0  0  0  0  0  0  0
    1.6882    1.9540   -2.4617 H   0  0  0  0  0  0  0  0  0  0  0  0
    3.1459    5.4127   -2.3760 H   0  0  0  0  0  0  0  0  0  0  0  0
    1.7346    4.4698   -2.8494 H   0  0  0  0  0  0  0  0  0  0  0  0
  1  2  2  0  0  0  0
  1 33  1  0  0  0  0
  2  3  1  0  0  0  0
  2 34  1  0  0  0  0
  3  4  2  0  0  0  0
  3  8  1  0  0  0  0
  4  5  1  0  0  0  0
  4 35  1  0  0  0  0
  5  6  2  0  0  0  0
  5 36  1  0  0  0  0
  6  1  1  0  0  0  0
  6  7  1  0  0  0  0
  7 24  1  0  0  0  0
  7 31  1  0  0  0  0
  8  9  1  0  0  0  0
  9 10  1  0  0  0  0
  9 37  1  0  0  0  0
  9 38  1  0  0  0  0
 10 11  2  0  0  0  0
 10 12  1  0  0  0  0
 12 13  1  0  0  0  0
 12 39  1  0  0  0  0
 13 14  2  0  0  0  0
 14 15  1  0  0  0  0
 14 19  1  0  0  0  0
 15 16  2  0  0  0  0
 15 40  1  0  0  0  0
 16 17  1  0  0  0  0
 16 41  1  0  0  0  0
 17 18  2  0  0  0  0
 17 20  1  0  0  0  0
 18 13  1  0  0  0  0
 18 42  1  0  0  0  0
 19 43  1  0  0  0  0
 20 21  2  0  0  0  0
 20 22  1  0  0  0  0
 22 23  1  0  0  0  0
 23 44  1  0  0  0  0
 23 45  1  0  0  0  0
 23 46  1  0  0  0  0
 24 25  1  0  0  0  0
 24 47  1  0  0  0  0
 24 48  1  0  0  0  0
 25 26  1  0  0  0  0
 25 32  1  0  0  0  0
 25 49  1  0  0  0  0
 26 27  1  0  0  0  0
 26 50  1  0  0  0  0
 26 51  1  0  0  0  0
 27 28  1  0  0  0  0
 27 29  1  0  0  0  0
 27 52  1  0  0  0  0
 28  7  1  0  0  0  0
 28 53  1  0  0  0  0
 28 54  1  0  0  0  0
 29 30  1  0  0  0  0
 29 55  1  0  0  0  0
 29 56  1  0  0  0  0
 30 31  1  0  0  0  0
 30 57  1  0  0  0  0
 31 58  1  0  0  0  0
 31 59  1  0  0  0  0
 32 30  1  0  0  0  0
 32 60  1  0  0  0  0
 32 61  1  0  0  0  0
M  END
>  <Mol_ID>
4151

>  <Formula>
C26H29NO5

>  <MolWeight>
435.51216

>  <Cat>
S8441

>  <Name>
LW 6

>  <Synonyms>
CAY10585, AC1-001

>  <Target>
HIF

>  <Form>
free base

>  <CAS>
934593-90-5

>  <URL>
http://selleckchem.com/products/lw-6.html

$$$$
