LY-2183240
 OpenBabel08302521313D

 40 42  0  0  0  0  0  0  0  0999 V2000
    2.9258   -3.4574   -2.3408 O   0  0  0  0  0  0  0  0  0  0  0  0
    2.4046   -2.1678   -0.5629 N   0  0  0  0  0  0  0  0  0  0  0  0
    1.0249   -4.0421   -1.1075 N   0  0  0  0  0  0  0  0  0  0  0  0
    3.3171   -0.5044    0.5422 N   0  0  0  0  0  0  0  0  0  0  0  0
    1.3949   -1.3737   -0.1150 N   0  0  0  0  0  0  0  0  0  0  0  0
    1.9608   -0.3794    0.5416 N   0  0  0  0  0  0  0  0  0  0  0  0
    4.9924   -2.1048   -0.3444 C   0  0  0  0  0  0  0  0  0  0  0  0
    5.1919   -3.5929   -0.4857 C   0  0  0  0  0  0  0  0  0  0  0  0
    5.4969   -6.4053   -0.8600 C   0  0  0  0  0  0  0  0  0  0  0  0
    3.6010   -1.5994   -0.1439 C   0  0  0  0  0  0  0  0  0  0  0  0
    5.7585   -4.1077   -1.6588 C   0  0  0  0  0  0  0  0  0  0  0  0
    4.8337   -4.4871    0.5262 C   0  0  0  0  0  0  0  0  0  0  0  0
    5.8932   -5.4879   -1.8466 C   0  0  0  0  0  0  0  0  0  0  0  0
    4.9908   -5.8662    0.3355 C   0  0  0  0  0  0  0  0  0  0  0  0
    5.5961   -7.8702   -1.0682 C   0  0  0  0  0  0  0  0  0  0  0  0
    2.1492   -3.2561   -1.4147 C   0  0  0  0  0  0  0  0  0  0  0  0
    6.6100   -8.4447   -1.8573 C   0  0  0  0  0  0  0  0  0  0  0  0
    4.6686   -8.7524   -0.4814 C   0  0  0  0  0  0  0  0  0  0  0  0
    6.6989   -9.8300   -2.0400 C   0  0  0  0  0  0  0  0  0  0  0  0
    4.7637  -10.1380   -0.6483 C   0  0  0  0  0  0  0  0  0  0  0  0
    0.8528   -5.2876   -1.8372 C   0  0  0  0  0  0  0  0  0  0  0  0
    0.1272   -3.8523    0.0296 C   0  0  0  0  0  0  0  0  0  0  0  0
    5.7804  -10.6764   -1.4277 C   0  0  0  0  0  0  0  0  0  0  0  0
    5.4250   -1.5784   -1.2041 H   0  0  0  0  0  0  0  0  0  0  0  0
    5.5923   -1.7902    0.5216 H   0  0  0  0  0  0  0  0  0  0  0  0
    6.0568   -3.4401   -2.4653 H   0  0  0  0  0  0  0  0  0  0  0  0
    4.4204   -4.1249    1.4663 H   0  0  0  0  0  0  0  0  0  0  0  0
    6.2856   -5.8315   -2.8009 H   0  0  0  0  0  0  0  0  0  0  0  0
    4.7011   -6.5233    1.1563 H   0  0  0  0  0  0  0  0  0  0  0  0
    7.3604   -7.8204   -2.3368 H   0  0  0  0  0  0  0  0  0  0  0  0
    3.8425   -8.3693    0.1126 H   0  0  0  0  0  0  0  0  0  0  0  0
    7.4920  -10.2454   -2.6566 H   0  0  0  0  0  0  0  0  0  0  0  0
    4.0398  -10.7906   -0.1680 H   0  0  0  0  0  0  0  0  0  0  0  0
    0.9624   -6.1205   -1.1361 H   0  0  0  0  0  0  0  0  0  0  0  0
   -0.1527   -5.3063   -2.2672 H   0  0  0  0  0  0  0  0  0  0  0  0
    1.5866   -5.4099   -2.6372 H   0  0  0  0  0  0  0  0  0  0  0  0
    0.7066   -3.8619    0.9573 H   0  0  0  0  0  0  0  0  0  0  0  0
   -0.4151   -2.9107   -0.0771 H   0  0  0  0  0  0  0  0  0  0  0  0
   -0.6179   -4.6535    0.0635 H   0  0  0  0  0  0  0  0  0  0  0  0
    5.8560  -11.7524   -1.5582 H   0  0  0  0  0  0  0  0  0  0  0  0
  1 16  2  0  0  0  0
  2  5  1  0  0  0  0
  2 10  1  0  0  0  0
  2 16  1  0  0  0  0
  3 16  1  0  0  0  0
  3 21  1  0  0  0  0
  3 22  1  0  0  0  0
  4  6  1  0  0  0  0
  4 10  2  0  0  0  0
  5  6  2  0  0  0  0
  7  8  1  0  0  0  0
  7 10  1  0  0  0  0
  7 24  1  0  0  0  0
  7 25  1  0  0  0  0
  8 11  2  0  0  0  0
  8 12  1  0  0  0  0
  9 13  2  0  0  0  0
  9 14  1  0  0  0  0
  9 15  1  0  0  0  0
 11 13  1  0  0  0  0
 11 26  1  0  0  0  0
 12 14  2  0  0  0  0
 12 27  1  0  0  0  0
 13 28  1  0  0  0  0
 14 29  1  0  0  0  0
 15 17  2  0  0  0  0
 15 18  1  0  0  0  0
 17 19  1  0  0  0  0
 17 30  1  0  0  0  0
 18 20  2  0  0  0  0
 18 31  1  0  0  0  0
 19 23  2  0  0  0  0
 19 32  1  0  0  0  0
 20 23  1  0  0  0  0
 20 33  1  0  0  0  0
 21 34  1  0  0  0  0
 21 35  1  0  0  0  0
 21 36  1  0  0  0  0
 22 37  1  0  0  0  0
 22 38  1  0  0  0  0
 22 39  1  0  0  0  0
 23 40  1  0  0  0  0
M  END
>  <Mol_ID>
5779

>  <Formula>
C17H17N5O

>  <MolWeight>
307.34978

>  <Cat>
S8052

>  <Name>
LY-2183240

>  <Synonyms>
N/A

>  <Target>
FAAH

>  <Form>
Free Base

>  <CAS>
874902-19-9

>  <URL>
http://www.selleckchem.com/products/ly-2183240.html

$$$$
