LY-3475070
 OpenBabel08302521353D

 39 41  0  0  0  0  0  0  0  0999 V2000
    3.6082    0.9042    1.6235 N   0  0  0  0  0  0  0  0  0  0  0  0
    3.1705    0.9091    0.3477 C   0  0  0  0  0  0  0  0  0  0  0  0
    2.4542   -0.1655   -0.1533 C   0  0  0  0  0  0  0  0  0  0  0  0
    2.1581   -1.2720    0.6569 C   0  0  0  0  0  0  0  0  0  0  0  0
    2.6989   -1.2484    1.9467 C   0  0  0  0  0  0  0  0  0  0  0  0
    3.3870   -0.1804    2.4189 N   0  0  0  0  0  0  0  0  0  0  0  0
    3.4467    2.1194   -0.4339 C   0  0  0  0  0  0  0  0  0  0  0  0
    2.5366   -2.3716    2.9225 C   0  0  0  0  0  0  0  0  0  0  0  0
    3.3994    3.3286    0.1487 C   0  0  0  0  0  0  0  0  0  0  0  0
    3.6581    4.4783   -0.5452 N   0  0  0  0  0  0  0  0  0  0  0  0
    3.9993    4.5031   -1.8659 C   0  0  0  0  0  0  0  0  0  0  0  0
    4.0567    3.2847   -2.4803 N   0  0  0  0  0  0  0  0  0  0  0  0
    3.8006    2.0783   -1.8838 C   0  0  0  0  0  0  0  0  0  0  0  0
    3.8665    1.0314   -2.5209 O   0  0  0  0  0  0  0  0  0  0  0  0
    4.2327    5.5498   -2.4609 O   0  0  0  0  0  0  0  0  0  0  0  0
    1.3248   -2.3985    0.0862 C   0  0  1  0  0  0  0  0  0  0  0  0
    0.0301   -2.8372    0.7234 C   0  0  0  0  0  0  0  0  0  0  0  0
   -0.0161   -2.0496   -0.5573 C   0  0  2  0  0  0  0  0  0  0  0  0
   -0.3955   -2.6766   -1.8784 C   0  0  0  0  0  0  0  0  0  0  0  0
   -1.8275   -3.2096   -1.8533 C   0  0  0  0  0  0  0  0  0  0  0  0
   -0.2514   -1.6534   -3.0100 C   0  0  0  0  0  0  0  0  0  0  0  0
    2.0966   -0.1550   -1.1792 H   0  0  0  0  0  0  0  0  0  0  0  0
    3.4275   -2.4425    3.5577 H   0  0  0  0  0  0  0  0  0  0  0  0
    1.6712   -2.1863    3.5656 H   0  0  0  0  0  0  0  0  0  0  0  0
    2.4203   -3.3382    2.4253 H   0  0  0  0  0  0  0  0  0  0  0  0
    3.1490    3.4588    1.1988 H   0  0  0  0  0  0  0  0  0  0  0  0
    3.6177    5.3780   -0.0793 H   0  0  0  0  0  0  0  0  0  0  0  0
    4.3077    3.2754   -3.4557 H   0  0  0  0  0  0  0  0  0  0  0  0
    1.9027   -3.1963   -0.3790 H   0  0  0  0  0  0  0  0  0  0  0  0
   -0.2159   -3.8926    0.6950 H   0  0  0  0  0  0  0  0  0  0  0  0
   -0.3101   -2.3377    1.6246 H   0  0  0  0  0  0  0  0  0  0  0  0
   -0.4038   -1.0387   -0.4628 H   0  0  0  0  0  0  0  0  0  0  0  0
    0.2757   -3.5173   -2.0930 H   0  0  0  0  0  0  0  0  0  0  0  0
   -2.5525   -2.4011   -1.7104 H   0  0  0  0  0  0  0  0  0  0  0  0
   -2.0648   -3.7169   -2.7949 H   0  0  0  0  0  0  0  0  0  0  0  0
   -1.9689   -3.9312   -1.0427 H   0  0  0  0  0  0  0  0  0  0  0  0
    0.7748   -1.2773   -3.0721 H   0  0  0  0  0  0  0  0  0  0  0  0
   -0.5100   -2.0980   -3.9768 H   0  0  0  0  0  0  0  0  0  0  0  0
   -0.9092   -0.7905   -2.8508 H   0  0  0  0  0  0  0  0  0  0  0  0
  1  2  2  0  0  0  0
  2  3  1  0  0  0  0
  2  7  1  0  0  0  0
  3  4  2  0  0  0  0
  3 22  1  0  0  0  0
  4  5  1  0  0  0  0
  5  6  2  0  0  0  0
  5  8  1  0  0  0  0
  6  1  1  0  0  0  0
  7  9  2  0  0  0  0
  8 23  1  0  0  0  0
  8 24  1  0  0  0  0
  8 25  1  0  0  0  0
  9 10  1  0  0  0  0
  9 26  1  0  0  0  0
 10 11  1  0  0  0  0
 10 27  1  0  0  0  0
 11 12  1  0  0  0  0
 11 15  2  0  0  0  0
 12 13  1  0  0  0  0
 12 28  1  0  0  0  0
 13  7  1  0  0  0  0
 13 14  2  0  0  0  0
 16 17  1  0  0  0  0
 16 29  1  6  0  0  0
 16  4  1  0  0  0  0
 17 18  1  0  0  0  0
 17 30  1  0  0  0  0
 17 31  1  0  0  0  0
 18 16  1  0  0  0  0
 18 32  1  1  0  0  0
 18 19  1  0  0  0  0
 19 20  1  0  0  0  0
 19 21  1  0  0  0  0
 19 33  1  0  0  0  0
 20 34  1  0  0  0  0
 20 35  1  0  0  0  0
 20 36  1  0  0  0  0
 21 37  1  0  0  0  0
 21 38  1  0  0  0  0
 21 39  1  0  0  0  0
M  END
>  <Mol_ID>
6779

>  <Formula>
C15H18N4O2

>  <MolWeight>
286.32902

>  <Cat>
S9867

>  <Name>
LY-3475070

>  <Synonyms>
N/A

>  <Target>
CD markers

>  <Form>
Free base

>  <CAS>
2375815-63-5

>  <URL>
http://www.selleckchem.com/products/ly-3475070.html

$$$$
