LY2109761.cdx
 OpenBabel08302521393D

 60 65  0  0  0  0  0  0  0  0999 V2000
   -0.1592   -0.4789   -0.4733 C   0  0  0  0  0  0  0  0  0  0  0  0
   -0.1804    0.9111   -0.2061 C   0  0  0  0  0  0  0  0  0  0  0  0
    0.9811    1.6613   -0.3661 C   0  0  0  0  0  0  0  0  0  0  0  0
    2.1889    1.1427   -0.8589 C   0  0  0  0  0  0  0  0  0  0  0  0
    2.1976   -0.1941   -1.2422 C   0  0  0  0  0  0  0  0  0  0  0  0
    1.0393   -0.9772   -1.0601 C   0  0  0  0  0  0  0  0  0  0  0  0
   -1.3413   -1.2308   -0.1357 C   0  0  0  0  0  0  0  0  0  0  0  0
   -2.4797   -0.5356    0.2874 C   0  0  0  0  0  0  0  0  0  0  0  0
   -2.4168    0.8381    0.3941 C   0  0  0  0  0  0  0  0  0  0  0  0
   -1.2921    1.5499    0.2068 N   0  0  0  0  0  0  0  0  0  0  0  0
    3.2278    2.0232   -0.8970 O   0  0  0  0  0  0  0  0  0  0  0  0
    4.4731    1.7023   -1.5331 C   0  0  0  0  0  0  0  0  0  0  0  0
    5.3401    2.9767   -1.8847 C   0  0  0  0  0  0  0  0  0  0  0  0
    4.6127    4.0750   -2.5589 N   0  0  0  0  0  0  0  0  0  0  0  0
    5.4165    5.0352   -3.3591 C   0  0  0  0  0  0  0  0  0  0  0  0
    5.8658    6.3989   -2.7386 C   0  0  0  0  0  0  0  0  0  0  0  0
    5.0728    6.8877   -1.6517 O   0  0  0  0  0  0  0  0  0  0  0  0
    4.6896    5.8182   -0.7928 C   0  0  0  0  0  0  0  0  0  0  0  0
    3.8126    4.8593   -1.5997 C   0  0  0  0  0  0  0  0  0  0  0  0
   -1.4023   -2.7091   -0.1059 C   0  0  0  0  0  0  0  0  0  0  0  0
   -2.4820   -3.6671   -0.3591 C   0  0  0  0  0  0  0  0  0  0  0  0
   -2.0976   -4.9412   -0.0519 N   0  0  0  0  0  0  0  0  0  0  0  0
   -0.8532   -4.7729    0.3560 N   0  0  0  0  0  0  0  0  0  0  0  0
   -0.4113   -3.5027    0.4355 C   0  0  0  0  0  0  0  0  0  0  0  0
    0.0607   -5.7774    0.8626 C   0  0  0  0  0  0  0  0  0  0  0  0
    1.0703   -4.9068    1.6351 C   0  0  0  0  0  0  0  0  0  0  0  0
    0.9227   -3.4693    1.0731 C   0  0  0  0  0  0  0  0  0  0  0  0
   -3.8676   -3.4311   -0.8190 C   0  0  0  0  0  0  0  0  0  0  0  0
   -4.0656   -2.3788   -1.6462 N   0  0  0  0  0  0  0  0  0  0  0  0
   -5.3343   -2.1417   -2.0522 C   0  0  0  0  0  0  0  0  0  0  0  0
   -6.4282   -2.8965   -1.6639 C   0  0  0  0  0  0  0  0  0  0  0  0
   -6.2109   -3.9746   -0.8155 C   0  0  0  0  0  0  0  0  0  0  0  0
   -4.9134   -4.2505   -0.3915 C   0  0  0  0  0  0  0  0  0  0  0  0
    0.9443    2.7168   -0.0940 H   0  0  0  0  0  0  0  0  0  0  0  0
    3.0786   -0.6543   -1.6663 H   0  0  0  0  0  0  0  0  0  0  0  0
    1.0658   -2.0109   -1.4011 H   0  0  0  0  0  0  0  0  0  0  0  0
   -3.4074   -1.0331    0.5359 H   0  0  0  0  0  0  0  0  0  0  0  0
   -3.2953    1.4154    0.6661 H   0  0  0  0  0  0  0  0  0  0  0  0
    5.0531    1.0901   -0.8300 H   0  0  0  0  0  0  0  0  0  0  0  0
    4.3094    1.1253   -2.4492 H   0  0  0  0  0  0  0  0  0  0  0  0
    5.8201    3.3301   -0.9653 H   0  0  0  0  0  0  0  0  0  0  0  0
    6.1613    2.6255   -2.5237 H   0  0  0  0  0  0  0  0  0  0  0  0
    4.7603    5.3108   -4.1972 H   0  0  0  0  0  0  0  0  0  0  0  0
    6.2789    4.5602   -3.8441 H   0  0  0  0  0  0  0  0  0  0  0  0
    6.9052    6.3526   -2.3997 H   0  0  0  0  0  0  0  0  0  0  0  0
    5.8147    7.1767   -3.5122 H   0  0  0  0  0  0  0  0  0  0  0  0
    4.1273    6.2241    0.0518 H   0  0  0  0  0  0  0  0  0  0  0  0
    5.5911    5.3475   -0.3816 H   0  0  0  0  0  0  0  0  0  0  0  0
    3.0799    5.4340   -2.1803 H   0  0  0  0  0  0  0  0  0  0  0  0
    3.2360    4.2342   -0.9234 H   0  0  0  0  0  0  0  0  0  0  0  0
    0.5170   -6.2716   -0.0042 H   0  0  0  0  0  0  0  0  0  0  0  0
   -0.4697   -6.4875    1.4976 H   0  0  0  0  0  0  0  0  0  0  0  0
    0.8125   -4.9119    2.7011 H   0  0  0  0  0  0  0  0  0  0  0  0
    2.0941   -5.2805    1.5427 H   0  0  0  0  0  0  0  0  0  0  0  0
    0.9927   -2.7240    1.8712 H   0  0  0  0  0  0  0  0  0  0  0  0
    1.7088   -3.2894    0.3378 H   0  0  0  0  0  0  0  0  0  0  0  0
   -5.4508   -1.2931   -2.7223 H   0  0  0  0  0  0  0  0  0  0  0  0
   -7.4234   -2.6507   -2.0169 H   0  0  0  0  0  0  0  0  0  0  0  0
   -7.0422   -4.5952   -0.4911 H   0  0  0  0  0  0  0  0  0  0  0  0
   -4.7259   -5.0961    0.2677 H   0  0  0  0  0  0  0  0  0  0  0  0
  1  2  1  0  0  0  0
  1  7  1  0  0  0  0
  2  3  2  0  0  0  0
  3  4  1  0  0  0  0
  3 34  1  0  0  0  0
  4  5  2  0  0  0  0
  4 11  1  0  0  0  0
  5  6  1  0  0  0  0
  5 35  1  0  0  0  0
  6  1  2  0  0  0  0
  6 36  1  0  0  0  0
  7  8  2  0  0  0  0
  7 20  1  0  0  0  0
  8  9  1  0  0  0  0
  8 37  1  0  0  0  0
  9 10  2  0  0  0  0
  9 38  1  0  0  0  0
 10  2  1  0  0  0  0
 11 12  1  0  0  0  0
 12 13  1  0  0  0  0
 12 39  1  0  0  0  0
 12 40  1  0  0  0  0
 13 14  1  0  0  0  0
 13 41  1  0  0  0  0
 13 42  1  0  0  0  0
 14 15  1  0  0  0  0
 15 16  1  0  0  0  0
 15 43  1  0  0  0  0
 15 44  1  0  0  0  0
 16 17  1  0  0  0  0
 16 45  1  0  0  0  0
 16 46  1  0  0  0  0
 17 18  1  0  0  0  0
 18 19  1  0  0  0  0
 18 47  1  0  0  0  0
 18 48  1  0  0  0  0
 19 14  1  0  0  0  0
 19 49  1  0  0  0  0
 19 50  1  0  0  0  0
 20 21  1  0  0  0  0
 21 22  2  0  0  0  0
 21 28  1  0  0  0  0
 22 23  1  0  0  0  0
 23 24  1  0  0  0  0
 23 25  1  0  0  0  0
 24 20  2  0  0  0  0
 25 26  1  0  0  0  0
 25 51  1  0  0  0  0
 25 52  1  0  0  0  0
 26 27  1  0  0  0  0
 26 53  1  0  0  0  0
 26 54  1  0  0  0  0
 27 24  1  0  0  0  0
 27 55  1  0  0  0  0
 27 56  1  0  0  0  0
 28 29  2  0  0  0  0
 29 30  1  0  0  0  0
 30 31  2  0  0  0  0
 30 57  1  0  0  0  0
 31 32  1  0  0  0  0
 31 58  1  0  0  0  0
 32 33  2  0  0  0  0
 32 59  1  0  0  0  0
 33 28  1  0  0  0  0
 33 60  1  0  0  0  0
M  END
>  <Mol_ID>
8185

>  <Formula>
C26H27N5O2

>  <MolWeight>
441.52488

>  <Cat>
S2704

>  <Name>
LY2109761

>  <Synonyms>
N/A

>  <Target>
Apoptosis related,Autophagy,TGF-beta/Smad

>  <Form>
Free Base

>  <CAS>
700874-71-1

>  <URL>
http://selleckchem.com/products/ly2109761.html

$$$$
