LY2119620.cdx
 OpenBabel08302519583D

 53 56  0  0  0  0  0  0  0  0999 V2000
   -2.1673   -0.8216   -0.2687 C   0  0  0  0  0  0  0  0  0  0  0  0
   -2.2900    0.5544   -0.1882 C   0  0  0  0  0  0  0  0  0  0  0  0
   -1.1388    1.3555   -0.0868 C   0  0  0  0  0  0  0  0  0  0  0  0
    0.1184    0.6818   -0.0341 C   0  0  0  0  0  0  0  0  0  0  0  0
    0.0865   -0.7080   -0.1437 C   0  0  0  0  0  0  0  0  0  0  0  0
   -1.0051   -1.4875   -0.2608 N   0  0  0  0  0  0  0  0  0  0  0  0
    1.4874    1.1168    0.1386 C   0  0  0  0  0  0  0  0  0  0  0  0
    2.4152    0.0851    0.0606 C   0  0  0  0  0  0  0  0  0  0  0  0
    1.6311   -1.4221   -0.1281 S   0  0  0  0  0  0  0  0  0  0  0  0
    1.8440    2.4044    0.3565 N   0  0  0  0  0  0  0  0  0  0  0  0
    3.8759    0.1838    0.1001 C   0  0  0  0  0  0  0  0  0  0  0  0
    4.4580    1.2590    0.2602 O   0  0  0  0  0  0  0  0  0  0  0  0
    4.6060   -0.9972   -0.0559 N   0  0  0  0  0  0  0  0  0  0  0  0
    6.0287   -0.9643   -0.2341 C   0  0  0  0  0  0  0  0  0  0  0  0
    6.5641   -1.0217   -1.6424 C   0  0  0  0  0  0  0  0  0  0  0  0
    6.8842   -2.1201   -0.6752 C   0  0  0  0  0  0  0  0  0  0  0  0
   -1.3111    2.8511   -0.0372 C   0  0  0  0  0  0  0  0  0  0  0  0
   -3.3469   -1.5372   -0.2877 O   0  0  0  0  0  0  0  0  0  0  0  0
   -3.1912   -2.8454   -0.8249 C   0  0  0  0  0  0  0  0  0  0  0  0
   -4.4929   -3.6414   -0.6770 C   0  0  0  0  0  0  0  0  0  0  0  0
   -4.8612   -4.0786    0.6019 N   0  0  0  0  0  0  0  0  0  0  0  0
   -5.1749   -3.9037   -1.6720 O   0  0  0  0  0  0  0  0  0  0  0  0
   -6.0175   -4.9804    0.6703 C   0  0  0  0  0  0  0  0  0  0  0  0
   -6.5279   -5.2525    2.0985 C   0  0  0  0  0  0  0  0  0  0  0  0
   -5.4782   -5.5825    3.0817 N   0  0  0  0  0  0  0  0  0  0  0  0
   -4.4641   -4.5133    3.0587 C   0  0  0  0  0  0  0  0  0  0  0  0
   -3.8673   -4.2092    1.6719 C   0  0  0  0  0  0  0  0  0  0  0  0
   -4.8927   -6.8987    2.8321 C   0  0  0  0  0  0  0  0  0  0  0  0
   -3.2787    0.9990   -0.2181 H   0  0  0  0  0  0  0  0  0  0  0  0
    2.7909    2.6383    0.6706 H   0  0  0  0  0  0  0  0  0  0  0  0
    1.1843    3.1641    0.4679 H   0  0  0  0  0  0  0  0  0  0  0  0
    4.1042   -1.8683   -0.1775 H   0  0  0  0  0  0  0  0  0  0  0  0
    6.5169   -0.2872    0.4653 H   0  0  0  0  0  0  0  0  0  0  0  0
    5.8895   -1.2659   -2.4552 H   0  0  0  0  0  0  0  0  0  0  0  0
    7.3256   -0.2964   -1.9026 H   0  0  0  0  0  0  0  0  0  0  0  0
    7.9095   -2.1616   -0.3167 H   0  0  0  0  0  0  0  0  0  0  0  0
    6.4437   -3.0931   -0.8465 H   0  0  0  0  0  0  0  0  0  0  0  0
   -0.9586    3.2389    0.9218 H   0  0  0  0  0  0  0  0  0  0  0  0
   -0.7577    3.3233   -0.8545 H   0  0  0  0  0  0  0  0  0  0  0  0
   -2.3626    3.1400   -0.1426 H   0  0  0  0  0  0  0  0  0  0  0  0
   -2.9633   -2.7716   -1.8959 H   0  0  0  0  0  0  0  0  0  0  0  0
   -2.3876   -3.4145   -0.3455 H   0  0  0  0  0  0  0  0  0  0  0  0
   -6.8342   -4.5552    0.0738 H   0  0  0  0  0  0  0  0  0  0  0  0
   -5.7261   -5.9222    0.1899 H   0  0  0  0  0  0  0  0  0  0  0  0
   -7.0531   -4.3578    2.4592 H   0  0  0  0  0  0  0  0  0  0  0  0
   -7.2858   -6.0458    2.0760 H   0  0  0  0  0  0  0  0  0  0  0  0
   -4.9338   -3.5984    3.4435 H   0  0  0  0  0  0  0  0  0  0  0  0
   -3.6550   -4.7455    3.7622 H   0  0  0  0  0  0  0  0  0  0  0  0
   -3.1821   -5.0113    1.3730 H   0  0  0  0  0  0  0  0  0  0  0  0
   -3.2822   -3.2877    1.7391 H   0  0  0  0  0  0  0  0  0  0  0  0
   -4.4153   -6.9851    1.8507 H   0  0  0  0  0  0  0  0  0  0  0  0
   -4.1408   -7.1316    3.5944 H   0  0  0  0  0  0  0  0  0  0  0  0
   -5.6609   -7.6767    2.9037 H   0  0  0  0  0  0  0  0  0  0  0  0
  1  2  2  0  0  0  0
  1 18  1  0  0  0  0
  2  3  1  0  0  0  0
  2 29  1  0  0  0  0
  3  4  2  0  0  0  0
  3 17  1  0  0  0  0
  4  5  1  0  0  0  0
  4  7  1  0  0  0  0
  5  6  2  0  0  0  0
  6  1  1  0  0  0  0
  7  8  2  0  0  0  0
  7 10  1  0  0  0  0
  8  9  1  0  0  0  0
  8 11  1  0  0  0  0
  9  5  1  0  0  0  0
 10 30  1  0  0  0  0
 10 31  1  0  0  0  0
 11 12  2  0  0  0  0
 11 13  1  0  0  0  0
 13 14  1  0  0  0  0
 13 32  1  0  0  0  0
 14 15  1  0  0  0  0
 14 33  1  0  0  0  0
 15 16  1  0  0  0  0
 15 34  1  0  0  0  0
 15 35  1  0  0  0  0
 16 14  1  0  0  0  0
 16 36  1  0  0  0  0
 16 37  1  0  0  0  0
 17 38  1  0  0  0  0
 17 39  1  0  0  0  0
 17 40  1  0  0  0  0
 18 19  1  0  0  0  0
 19 20  1  0  0  0  0
 19 41  1  0  0  0  0
 19 42  1  0  0  0  0
 20 21  1  0  0  0  0
 20 22  2  0  0  0  0
 21 23  1  0  0  0  0
 23 24  1  0  0  0  0
 23 43  1  0  0  0  0
 23 44  1  0  0  0  0
 24 25  1  0  0  0  0
 24 45  1  0  0  0  0
 24 46  1  0  0  0  0
 25 26  1  0  0  0  0
 25 28  1  0  0  0  0
 26 27  1  0  0  0  0
 26 47  1  0  0  0  0
 26 48  1  0  0  0  0
 27 21  1  0  0  0  0
 27 49  1  0  0  0  0
 27 50  1  0  0  0  0
 28 51  1  0  0  0  0
 28 52  1  0  0  0  0
 28 53  1  0  0  0  0
M  END
>  <Mol_ID>
2486

>  <Formula>
C19H24ClN5O3S

>  <MolWeight>
437.94356

>  <Cat>
S7366

>  <Name>
LY2119620

>  <Synonyms>
N/A

>  <Target>
AChR

>  <Form>
free base

>  <CAS>
886047-22-9

>  <URL>
http://selleckchem.com/products/ly2119620.html

$$$$
