LY2157299.cdx
 OpenBabel08302521413D

 47 51  0  0  0  0  0  0  0  0999 V2000
   -1.1942   -1.0489    0.1346 C   0  0  0  0  0  0  0  0  0  0  0  0
    0.0502   -1.2416   -0.4548 C   0  0  0  0  0  0  0  0  0  0  0  0
    0.7313   -0.1365   -0.9543 C   0  0  0  0  0  0  0  0  0  0  0  0
    0.1530    1.1250   -0.8494 C   0  0  0  0  0  0  0  0  0  0  0  0
   -1.0959    1.2437   -0.2448 C   0  0  0  0  0  0  0  0  0  0  0  0
   -1.7697    0.1713    0.2417 N   0  0  0  0  0  0  0  0  0  0  0  0
   -1.9612   -2.1957    0.7184 C   0  0  0  0  0  0  0  0  0  0  0  0
   -2.5830    3.0356    1.0246 C   0  0  0  0  0  0  0  0  0  0  0  0
   -3.0225    2.3582    2.2572 C   0  0  0  0  0  0  0  0  0  0  0  0
   -2.8133    4.3573    0.6963 C   0  0  0  0  0  0  0  0  0  0  0  0
   -2.2244    4.5466   -0.5094 N   0  0  0  0  0  0  0  0  0  0  0  0
   -1.5104    3.5439   -0.9821 N   0  0  0  0  0  0  0  0  0  0  0  0
   -1.7258    2.5632   -0.0678 C   0  0  0  0  0  0  0  0  0  0  0  0
   -3.4547    5.6319    1.1183 C   0  0  0  0  0  0  0  0  0  0  0  0
   -3.5947    6.3752   -0.2335 C   0  0  0  0  0  0  0  0  0  0  0  0
   -2.4308    5.8602   -1.0910 C   0  0  0  0  0  0  0  0  0  0  0  0
   -2.1095    1.5337    2.9233 C   0  0  0  0  0  0  0  0  0  0  0  0
   -2.4861    0.9225    4.1024 C   0  0  0  0  0  0  0  0  0  0  0  0
   -3.6646    1.1372    4.7136 N   0  0  0  0  0  0  0  0  0  0  0  0
   -4.5397    1.9500    4.1082 C   0  0  0  0  0  0  0  0  0  0  0  0
   -4.3090    2.5351    2.8436 C   0  0  0  0  0  0  0  0  0  0  0  0
   -5.7213    2.2392    4.7810 C   0  0  0  0  0  0  0  0  0  0  0  0
   -6.6855    3.1109    4.2596 C   0  0  0  0  0  0  0  0  0  0  0  0
   -6.5097    3.6399    2.9865 C   0  0  0  0  0  0  0  0  0  0  0  0
   -5.3660    3.2742    2.2649 C   0  0  0  0  0  0  0  0  0  0  0  0
   -7.4178    4.6496    2.3651 C   0  0  0  0  0  0  0  0  0  0  0  0
   -7.1583    5.1635    1.2829 O   0  0  0  0  0  0  0  0  0  0  0  0
   -8.5350    5.0375    3.0468 N   0  0  0  0  0  0  0  0  0  0  0  0
    0.4891   -2.2314   -0.5268 H   0  0  0  0  0  0  0  0  0  0  0  0
    1.7062   -0.2546   -1.4183 H   0  0  0  0  0  0  0  0  0  0  0  0
    0.6739    2.0021   -1.2213 H   0  0  0  0  0  0  0  0  0  0  0  0
   -2.0926   -2.0418    1.7941 H   0  0  0  0  0  0  0  0  0  0  0  0
   -2.9464   -2.2616    0.2467 H   0  0  0  0  0  0  0  0  0  0  0  0
   -1.4450   -3.1491    0.5697 H   0  0  0  0  0  0  0  0  0  0  0  0
   -2.7922    6.1804    1.7939 H   0  0  0  0  0  0  0  0  0  0  0  0
   -4.4289    5.5448    1.5948 H   0  0  0  0  0  0  0  0  0  0  0  0
   -4.5439    6.0869   -0.7046 H   0  0  0  0  0  0  0  0  0  0  0  0
   -3.6002    7.4622   -0.1206 H   0  0  0  0  0  0  0  0  0  0  0  0
   -2.6824    5.7555   -2.1496 H   0  0  0  0  0  0  0  0  0  0  0  0
   -1.5159    6.4399   -0.9450 H   0  0  0  0  0  0  0  0  0  0  0  0
   -1.1167    1.3444    2.5341 H   0  0  0  0  0  0  0  0  0  0  0  0
   -1.8176    0.2307    4.6083 H   0  0  0  0  0  0  0  0  0  0  0  0
   -5.8765    1.8035    5.7669 H   0  0  0  0  0  0  0  0  0  0  0  0
   -7.5459    3.3495    4.8724 H   0  0  0  0  0  0  0  0  0  0  0  0
   -5.2794    3.6167    1.2371 H   0  0  0  0  0  0  0  0  0  0  0  0
   -8.8222    4.6885    3.9442 H   0  0  0  0  0  0  0  0  0  0  0  0
   -9.0999    5.7582    2.6135 H   0  0  0  0  0  0  0  0  0  0  0  0
  1  2  2  0  0  0  0
  1  7  1  0  0  0  0
  2  3  1  0  0  0  0
  2 29  1  0  0  0  0
  3  4  2  0  0  0  0
  3 30  1  0  0  0  0
  4  5  1  0  0  0  0
  4 31  1  0  0  0  0
  5  6  2  0  0  0  0
  5 13  1  0  0  0  0
  6  1  1  0  0  0  0
  7 32  1  0  0  0  0
  7 33  1  0  0  0  0
  7 34  1  0  0  0  0
  8  9  1  0  0  0  0
  8 10  2  0  0  0  0
  9 17  2  0  0  0  0
 10 11  1  0  0  0  0
 10 14  1  0  0  0  0
 11 12  1  0  0  0  0
 12 13  2  0  0  0  0
 13  8  1  0  0  0  0
 14 15  1  0  0  0  0
 14 35  1  0  0  0  0
 14 36  1  0  0  0  0
 15 16  1  0  0  0  0
 15 37  1  0  0  0  0
 15 38  1  0  0  0  0
 16 11  1  0  0  0  0
 16 39  1  0  0  0  0
 16 40  1  0  0  0  0
 17 18  1  0  0  0  0
 17 41  1  0  0  0  0
 18 19  2  0  0  0  0
 18 42  1  0  0  0  0
 19 20  1  0  0  0  0
 20 21  2  0  0  0  0
 20 22  1  0  0  0  0
 21  9  1  0  0  0  0
 22 23  2  0  0  0  0
 22 43  1  0  0  0  0
 23 24  1  0  0  0  0
 23 44  1  0  0  0  0
 24 25  2  0  0  0  0
 24 26  1  0  0  0  0
 25 21  1  0  0  0  0
 25 45  1  0  0  0  0
 26 27  2  0  0  0  0
 26 28  1  0  0  0  0
 28 46  1  0  0  0  0
 28 47  1  0  0  0  0
M  END
>  <Mol_ID>
823

>  <Formula>
C22H19N5O

>  <MolWeight>
369.41916

>  <Cat>
S2230

>  <Name>
Galunisertib (LY2157299)

>  <Synonyms>
N/A

>  <Target>
TGF-beta/Smad

>  <Form>
free base

>  <CAS>
700874-72-2

>  <URL>
http://selleckchem.com/products/ly2157299.html

$$$$
