LY255283
 OpenBabel08302521303D

 54 55  0  0  0  0  0  0  0  0999 V2000
    1.5747    0.2198    0.0135 O   0  0  0  0  0  0  0  0  0  0  0  0
    2.2084    3.2634   -3.6469 O   0  0  0  0  0  0  0  0  0  0  0  0
    0.4853    5.2394   -3.8030 O   0  0  0  0  0  0  0  0  0  0  0  0
   -1.8838   -4.1680   -2.1260 N   0  0  0  0  0  0  0  0  0  0  0  0
    0.0322   -4.0960   -3.3294 N   0  0  0  0  0  0  0  0  0  0  0  0
   -1.9836   -3.4824   -3.2773 N   0  0  0  0  0  0  0  0  0  0  0  0
   -0.8732   -3.4152   -4.0202 N   0  0  0  0  0  0  0  0  0  0  0  0
    0.0962   -5.3691   -1.1403 C   0  0  0  0  0  0  0  0  0  0  0  0
    0.6452   -4.4580   -0.0071 C   0  0  0  0  0  0  0  0  0  0  0  0
    1.7274   -3.4303   -0.3771 C   0  0  0  0  0  0  0  0  0  0  0  0
    2.0634   -2.5898    0.8644 C   0  0  0  0  0  0  0  0  0  0  0  0
    1.2151   -6.2262   -1.7682 C   0  0  0  0  0  0  0  0  0  0  0  0
   -0.9009   -6.3496   -0.4684 C   0  0  0  0  0  0  0  0  0  0  0  0
   -0.6001   -4.5493   -2.1954 C   0  0  0  0  0  0  0  0  0  0  0  0
    3.1461   -1.5310    0.6526 C   0  0  0  0  0  0  0  0  0  0  0  0
    2.7938   -0.4350   -0.3553 C   0  0  0  0  0  0  0  0  0  0  0  0
    1.1558    1.2513   -0.7919 C   0  0  0  0  0  0  0  0  0  0  0  0
   -0.0212    1.9200   -0.4099 C   0  0  0  0  0  0  0  0  0  0  0  0
   -0.7117    1.7074    0.9191 C   0  0  0  0  0  0  0  0  0  0  0  0
    1.8413    1.6990   -1.9283 C   0  0  0  0  0  0  0  0  0  0  0  0
   -0.5016    2.9900   -1.1826 C   0  0  0  0  0  0  0  0  0  0  0  0
    0.2445    3.5058   -2.2365 C   0  0  0  0  0  0  0  0  0  0  0  0
    1.4080    2.8360   -2.6206 C   0  0  0  0  0  0  0  0  0  0  0  0
   -0.3394    2.8734    1.8407 C   0  0  0  0  0  0  0  0  0  0  0  0
   -0.1425    4.8129   -2.8361 C   0  0  0  0  0  0  0  0  0  0  0  0
   -1.2544    5.6038   -2.1824 C   0  0  0  0  0  0  0  0  0  0  0  0
    1.8176    4.0908   -4.0096 H   0  0  0  0  0  0  0  0  0  0  0  0
   -2.8564   -3.0454   -3.5679 H   0  0  0  0  0  0  0  0  0  0  0  0
    1.0482   -5.0953    0.7921 H   0  0  0  0  0  0  0  0  0  0  0  0
   -0.1989   -3.9115    0.4370 H   0  0  0  0  0  0  0  0  0  0  0  0
    1.3692   -2.7793   -1.1813 H   0  0  0  0  0  0  0  0  0  0  0  0
    2.6292   -3.9367   -0.7336 H   0  0  0  0  0  0  0  0  0  0  0  0
    2.4053   -3.2643    1.6606 H   0  0  0  0  0  0  0  0  0  0  0  0
    1.1534   -2.1063    1.2394 H   0  0  0  0  0  0  0  0  0  0  0  0
    1.7437   -6.8109   -1.0067 H   0  0  0  0  0  0  0  0  0  0  0  0
    0.8015   -6.9330   -2.5004 H   0  0  0  0  0  0  0  0  0  0  0  0
    1.9573   -5.6170   -2.2955 H   0  0  0  0  0  0  0  0  0  0  0  0
   -1.6917   -5.8107    0.0675 H   0  0  0  0  0  0  0  0  0  0  0  0
   -1.3854   -7.0014   -1.2038 H   0  0  0  0  0  0  0  0  0  0  0  0
   -0.3923   -6.9884    0.2641 H   0  0  0  0  0  0  0  0  0  0  0  0
    4.0812   -2.0160    0.3473 H   0  0  0  0  0  0  0  0  0  0  0  0
    3.3362   -1.0595    1.6255 H   0  0  0  0  0  0  0  0  0  0  0  0
    2.7012   -0.8762   -1.3534 H   0  0  0  0  0  0  0  0  0  0  0  0
    3.6157    0.2921   -0.3527 H   0  0  0  0  0  0  0  0  0  0  0  0
   -1.8002    1.7044    0.7672 H   0  0  0  0  0  0  0  0  0  0  0  0
   -0.4504    0.7540    1.3717 H   0  0  0  0  0  0  0  0  0  0  0  0
    2.7550    1.2249   -2.2716 H   0  0  0  0  0  0  0  0  0  0  0  0
   -1.4248    3.4664   -0.8648 H   0  0  0  0  0  0  0  0  0  0  0  0
   -0.8476    3.7973    1.5379 H   0  0  0  0  0  0  0  0  0  0  0  0
   -0.6297    2.6657    2.8733 H   0  0  0  0  0  0  0  0  0  0  0  0
    0.7379    3.0794    1.8134 H   0  0  0  0  0  0  0  0  0  0  0  0
   -2.2058    5.0745   -2.2867 H   0  0  0  0  0  0  0  0  0  0  0  0
   -1.0272    5.7734   -1.1243 H   0  0  0  0  0  0  0  0  0  0  0  0
   -1.3497    6.5810   -2.6616 H   0  0  0  0  0  0  0  0  0  0  0  0
  1 16  1  0  0  0  0
  1 17  1  0  0  0  0
  2 23  1  0  0  0  0
  2 27  1  0  0  0  0
  3 25  2  0  0  0  0
  4  6  1  0  0  0  0
  4 14  2  0  0  0  0
  5  7  2  0  0  0  0
  5 14  1  0  0  0  0
  6  7  1  0  0  0  0
  6 28  1  0  0  0  0
  8  9  1  0  0  0  0
  8 12  1  0  0  0  0
  8 13  1  0  0  0  0
  8 14  1  0  0  0  0
  9 10  1  0  0  0  0
  9 29  1  0  0  0  0
  9 30  1  0  0  0  0
 10 11  1  0  0  0  0
 10 31  1  0  0  0  0
 10 32  1  0  0  0  0
 11 15  1  0  0  0  0
 11 33  1  0  0  0  0
 11 34  1  0  0  0  0
 12 35  1  0  0  0  0
 12 36  1  0  0  0  0
 12 37  1  0  0  0  0
 13 38  1  0  0  0  0
 13 39  1  0  0  0  0
 13 40  1  0  0  0  0
 15 16  1  0  0  0  0
 15 41  1  0  0  0  0
 15 42  1  0  0  0  0
 16 43  1  0  0  0  0
 16 44  1  0  0  0  0
 17 18  2  0  0  0  0
 17 20  1  0  0  0  0
 18 19  1  0  0  0  0
 18 21  1  0  0  0  0
 19 24  1  0  0  0  0
 19 45  1  0  0  0  0
 19 46  1  0  0  0  0
 20 23  2  0  0  0  0
 20 47  1  0  0  0  0
 21 22  2  0  0  0  0
 21 48  1  0  0  0  0
 22 23  1  0  0  0  0
 22 25  1  0  0  0  0
 24 49  1  0  0  0  0
 24 50  1  0  0  0  0
 24 51  1  0  0  0  0
 25 26  1  0  0  0  0
 26 52  1  0  0  0  0
 26 53  1  0  0  0  0
 26 54  1  0  0  0  0
M  END
>  <Mol_ID>
5675

>  <Formula>
C19H28N4O3

>  <MolWeight>
360.45062

>  <Cat>
S2959

>  <Name>
LY255283

>  <Synonyms>
N/A

>  <Target>
LTR

>  <Form>
Free Base

>  <CAS>
117690-79-6

>  <URL>
http://www.selleckchem.com/products/ly255283.html

$$$$
