LY2603618.cdx
 OpenBabel08302521433D

 49 51  0  0  0  0  0  0  0  0999 V2000
    2.4000   -0.9004   -0.1050 C   0  0  0  0  0  0  0  0  0  0  0  0
    1.0056   -1.0781   -0.0088 C   0  0  0  0  0  0  0  0  0  0  0  0
    0.1848    0.0556    0.0426 C   0  0  0  0  0  0  0  0  0  0  0  0
    0.7374    1.3362    0.0321 C   0  0  0  0  0  0  0  0  0  0  0  0
    2.1171    1.5129   -0.0763 C   0  0  0  0  0  0  0  0  0  0  0  0
    2.9610    0.3820   -0.1864 C   0  0  0  0  0  0  0  0  0  0  0  0
    0.4385   -2.4691    0.0018 C   0  0  0  0  0  0  0  0  0  0  0  0
   -1.7108   -0.0746    0.1160 Br  0  0  0  0  0  0  0  0  0  0  0  0
    4.3120    0.6115   -0.3760 O   0  0  0  0  0  0  0  0  0  0  0  0
    5.0763   -0.4878   -0.9108 C   0  0  0  0  0  0  0  0  0  0  0  0
    6.3749    0.0043   -1.5855 C   0  0  2  0  0  0  0  0  0  0  0  0
    7.0566   -1.1671   -2.3363 C   0  0  0  0  0  0  0  0  0  0  0  0
    8.3322   -0.7837   -2.9745 N   0  0  0  0  0  0  0  0  0  0  0  0
    9.2072   -0.1792   -1.9555 C   0  0  0  0  0  0  0  0  0  0  0  0
    8.5088    0.9671   -1.2198 C   0  0  0  0  0  0  0  0  0  0  0  0
    7.2876    0.5327   -0.5997 O   0  0  0  0  0  0  0  0  0  0  0  0
    2.7062    2.7900   -0.0854 N   0  0  0  0  0  0  0  0  0  0  0  0
    2.1346    4.0293    0.0439 C   0  0  0  0  0  0  0  0  0  0  0  0
    2.9994    5.0959    0.0961 N   0  0  0  0  0  0  0  0  0  0  0  0
    4.3891    5.0580   -0.0039 C   0  0  0  0  0  0  0  0  0  0  0  0
    0.9344    4.2687    0.1590 O   0  0  0  0  0  0  0  0  0  0  0  0
    5.1649    6.1655    0.3118 C   0  0  0  0  0  0  0  0  0  0  0  0
    6.5271    6.1322    0.3326 N   0  0  0  0  0  0  0  0  0  0  0  0
    7.0895    4.9392    0.0131 C   0  0  0  0  0  0  0  0  0  0  0  0
    6.3100    3.8564   -0.3476 C   0  0  0  0  0  0  0  0  0  0  0  0
    4.9683    3.9003   -0.3722 N   0  0  0  0  0  0  0  0  0  0  0  0
    8.5690    4.7882    0.1227 C   0  0  0  0  0  0  0  0  0  0  0  0
    3.0291   -1.7832   -0.1148 H   0  0  0  0  0  0  0  0  0  0  0  0
    0.0711    2.1907    0.0930 H   0  0  0  0  0  0  0  0  0  0  0  0
   -0.1689   -2.6312    0.8977 H   0  0  0  0  0  0  0  0  0  0  0  0
   -0.1707   -2.6339   -0.8927 H   0  0  0  0  0  0  0  0  0  0  0  0
    1.2297   -3.2275    0.0042 H   0  0  0  0  0  0  0  0  0  0  0  0
    5.3206   -1.1734   -0.0905 H   0  0  0  0  0  0  0  0  0  0  0  0
    4.4881   -1.0087   -1.6765 H   0  0  0  0  0  0  0  0  0  0  0  0
    6.1250    0.8156   -2.2814 H   0  0  0  0  0  0  0  0  0  0  0  0
    7.2614   -1.9890   -1.6383 H   0  0  0  0  0  0  0  0  0  0  0  0
    6.3885   -1.5600   -3.1099 H   0  0  0  0  0  0  0  0  0  0  0  0
    8.1407   -0.0872   -3.6955 H   0  0  0  0  0  0  0  0  0  0  0  0
    9.5069   -0.9515   -1.2378 H   0  0  0  0  0  0  0  0  0  0  0  0
   10.1191    0.1916   -2.4361 H   0  0  0  0  0  0  0  0  0  0  0  0
    9.1595    1.3591   -0.4324 H   0  0  0  0  0  0  0  0  0  0  0  0
    8.2903    1.7909   -1.9110 H   0  0  0  0  0  0  0  0  0  0  0  0
    3.7221    2.7876   -0.1800 H   0  0  0  0  0  0  0  0  0  0  0  0
    2.5403    5.9727    0.3016 H   0  0  0  0  0  0  0  0  0  0  0  0
    4.7254    7.1135    0.6008 H   0  0  0  0  0  0  0  0  0  0  0  0
    6.7340    2.9019   -0.6077 H   0  0  0  0  0  0  0  0  0  0  0  0
    9.0767    5.5419   -0.4909 H   0  0  0  0  0  0  0  0  0  0  0  0
    8.8767    4.9070    1.1681 H   0  0  0  0  0  0  0  0  0  0  0  0
    8.9006    3.8034   -0.2133 H   0  0  0  0  0  0  0  0  0  0  0  0
  1  2  2  0  0  0  0
  1 28  1  0  0  0  0
  2  3  1  0  0  0  0
  2  7  1  0  0  0  0
  3  4  2  0  0  0  0
  3  8  1  0  0  0  0
  4  5  1  0  0  0  0
  4 29  1  0  0  0  0
  5  6  2  0  0  0  0
  5 17  1  0  0  0  0
  6  1  1  0  0  0  0
  6  9  1  0  0  0  0
  7 30  1  0  0  0  0
  7 31  1  0  0  0  0
  7 32  1  0  0  0  0
  9 10  1  0  0  0  0
 10 33  1  0  0  0  0
 10 34  1  0  0  0  0
 11 10  1  0  0  0  0
 11 12  1  0  0  0  0
 11 35  1  6  0  0  0
 12 13  1  0  0  0  0
 12 36  1  0  0  0  0
 12 37  1  0  0  0  0
 13 14  1  0  0  0  0
 13 38  1  0  0  0  0
 14 15  1  0  0  0  0
 14 39  1  0  0  0  0
 14 40  1  0  0  0  0
 15 16  1  0  0  0  0
 15 41  1  0  0  0  0
 15 42  1  0  0  0  0
 16 11  1  0  0  0  0
 17 18  1  0  0  0  0
 17 43  1  0  0  0  0
 18 19  1  0  0  0  0
 18 21  2  0  0  0  0
 19 20  1  0  0  0  0
 19 44  1  0  0  0  0
 20 22  2  0  0  0  0
 22 23  1  0  0  0  0
 22 45  1  0  0  0  0
 23 24  2  0  0  0  0
 24 25  1  0  0  0  0
 24 27  1  0  0  0  0
 25 26  2  0  0  0  0
 25 46  1  0  0  0  0
 26 20  1  0  0  0  0
 27 47  1  0  0  0  0
 27 48  1  0  0  0  0
 27 49  1  0  0  0  0
M  END
>  <Mol_ID>
857

>  <Formula>
C18H22BrN5O3

>  <MolWeight>
436.30298

>  <Cat>
S2626

>  <Name>
Rabusertib (LY2603618)

>  <Synonyms>
IC-83

>  <Target>
Apoptosis related,Autophagy,Chk

>  <Form>
free base

>  <CAS>
911222-45-2

>  <URL>
http://selleckchem.com/products/LY2603618-IC-83.html

$$$$
