LY2784544.cdx
 OpenBabel08302521343D

 58 62  0  0  0  0  0  0  0  0999 V2000
   -2.0095    0.7915   -0.2554 C   0  0  0  0  0  0  0  0  0  0  0  0
   -2.0405   -0.7111   -0.2593 C   0  0  0  0  0  0  0  0  0  0  0  0
   -0.9508   -1.4373   -0.2529 N   0  0  0  0  0  0  0  0  0  0  0  0
    0.2065   -0.7077   -0.3504 N   0  0  0  0  0  0  0  0  0  0  0  0
    0.3245    0.6667   -0.4521 C   0  0  0  0  0  0  0  0  0  0  0  0
   -0.8464    1.4548   -0.3419 C   0  0  0  0  0  0  0  0  0  0  0  0
    1.4940   -1.2013   -0.2980 C   0  0  0  0  0  0  0  0  0  0  0  0
    2.3160   -0.0918   -0.4118 C   0  0  0  0  0  0  0  0  0  0  0  0
    1.5768    1.0512   -0.5483 N   0  0  0  0  0  0  0  0  0  0  0  0
   -0.8042    2.9522   -0.1095 C   0  0  0  0  0  0  0  0  0  0  0  0
   -1.0675    3.7717   -1.2988 N   0  0  0  0  0  0  0  0  0  0  0  0
    0.0329    3.7238   -2.2932 C   0  0  0  0  0  0  0  0  0  0  0  0
    1.2813    4.5523   -1.9359 C   0  0  0  0  0  0  0  0  0  0  0  0
    0.9379    5.9133   -1.6420 O   0  0  0  0  0  0  0  0  0  0  0  0
   -0.0009    5.9630   -0.5644 C   0  0  0  0  0  0  0  0  0  0  0  0
   -1.2836    5.1883   -0.9149 C   0  0  0  0  0  0  0  0  0  0  0  0
   -3.2629   -1.3590   -0.1790 N   0  0  0  0  0  0  0  0  0  0  0  0
   -4.4770   -0.8792   -0.5556 C   0  0  0  0  0  0  0  0  0  0  0  0
   -4.6240   -0.1103   -1.6820 N   0  0  0  0  0  0  0  0  0  0  0  0
   -5.8666    0.3612   -1.8494 N   0  0  0  0  0  0  0  0  0  0  0  0
   -6.5563   -0.1766   -0.8375 C   0  0  0  0  0  0  0  0  0  0  0  0
   -5.7405   -1.0177   -0.0374 C   0  0  0  0  0  0  0  0  0  0  0  0
   -7.9832    0.1779   -0.6561 C   0  0  0  0  0  0  0  0  0  0  0  0
    3.7900    0.0005   -0.3294 C   0  0  0  0  0  0  0  0  0  0  0  0
    1.8326   -2.6380   -0.1009 C   0  0  0  0  0  0  0  0  0  0  0  0
    2.0703   -2.9999    1.3470 C   0  0  0  0  0  0  0  0  0  0  0  0
    1.0200   -2.9726    2.2774 C   0  0  0  0  0  0  0  0  0  0  0  0
    1.2329   -3.3507    3.6055 C   0  0  0  0  0  0  0  0  0  0  0  0
    2.4967   -3.7662    4.0216 C   0  0  0  0  0  0  0  0  0  0  0  0
    3.5524   -3.7848    3.1124 C   0  0  0  0  0  0  0  0  0  0  0  0
    3.3348   -3.3992    1.7911 C   0  0  0  0  0  0  0  0  0  0  0  0
    4.3700   -3.4247    0.9388 F   0  0  0  0  0  0  0  0  0  0  0  0
   -2.9408    1.3177   -0.0786 H   0  0  0  0  0  0  0  0  0  0  0  0
   -1.5790    3.1718    0.6396 H   0  0  0  0  0  0  0  0  0  0  0  0
    0.1417    3.2207    0.3764 H   0  0  0  0  0  0  0  0  0  0  0  0
   -0.3769    4.1266   -3.2287 H   0  0  0  0  0  0  0  0  0  0  0  0
    0.3237    2.6939   -2.5230 H   0  0  0  0  0  0  0  0  0  0  0  0
    1.8268    4.1282   -1.0861 H   0  0  0  0  0  0  0  0  0  0  0  0
    1.9650    4.5709   -2.7912 H   0  0  0  0  0  0  0  0  0  0  0  0
   -0.2444    7.0158   -0.3873 H   0  0  0  0  0  0  0  0  0  0  0  0
    0.4744    5.5801    0.3462 H   0  0  0  0  0  0  0  0  0  0  0  0
   -1.7633    5.6842   -1.7676 H   0  0  0  0  0  0  0  0  0  0  0  0
   -1.9960    5.2580   -0.0839 H   0  0  0  0  0  0  0  0  0  0  0  0
   -3.2138   -2.2324    0.3400 H   0  0  0  0  0  0  0  0  0  0  0  0
   -3.9134    0.1450   -2.3581 H   0  0  0  0  0  0  0  0  0  0  0  0
   -6.0316   -1.5682    0.8459 H   0  0  0  0  0  0  0  0  0  0  0  0
   -8.0814    1.2542   -0.4734 H   0  0  0  0  0  0  0  0  0  0  0  0
   -8.5627   -0.0721   -1.5504 H   0  0  0  0  0  0  0  0  0  0  0  0
   -8.4199   -0.3502    0.1968 H   0  0  0  0  0  0  0  0  0  0  0  0
    4.1450   -0.4577    0.5982 H   0  0  0  0  0  0  0  0  0  0  0  0
    4.2644   -0.4974   -1.1787 H   0  0  0  0  0  0  0  0  0  0  0  0
    4.1067    1.0491   -0.3239 H   0  0  0  0  0  0  0  0  0  0  0  0
    1.0527   -3.2937   -0.5064 H   0  0  0  0  0  0  0  0  0  0  0  0
    2.7308   -2.8655   -0.6908 H   0  0  0  0  0  0  0  0  0  0  0  0
    0.0248   -2.6607    1.9696 H   0  0  0  0  0  0  0  0  0  0  0  0
    0.4077   -3.3268    4.3129 H   0  0  0  0  0  0  0  0  0  0  0  0
    2.6570   -4.0754    5.0511 H   0  0  0  0  0  0  0  0  0  0  0  0
    4.5428   -4.1031    3.4222 H   0  0  0  0  0  0  0  0  0  0  0  0
  1  2  1  0  0  0  0
  1 33  1  0  0  0  0
  2  3  2  0  0  0  0
  2 17  1  0  0  0  0
  3  4  1  0  0  0  0
  4  5  1  0  0  0  0
  4  7  1  0  0  0  0
  5  6  1  0  0  0  0
  6  1  2  0  0  0  0
  6 10  1  0  0  0  0
  7  8  2  0  0  0  0
  7 25  1  0  0  0  0
  8  9  1  0  0  0  0
  8 24  1  0  0  0  0
  9  5  2  0  0  0  0
 10 11  1  0  0  0  0
 10 34  1  0  0  0  0
 10 35  1  0  0  0  0
 11 12  1  0  0  0  0
 12 13  1  0  0  0  0
 12 36  1  0  0  0  0
 12 37  1  0  0  0  0
 13 14  1  0  0  0  0
 13 38  1  0  0  0  0
 13 39  1  0  0  0  0
 14 15  1  0  0  0  0
 15 16  1  0  0  0  0
 15 40  1  0  0  0  0
 15 41  1  0  0  0  0
 16 11  1  0  0  0  0
 16 42  1  0  0  0  0
 16 43  1  0  0  0  0
 17 18  1  0  0  0  0
 17 44  1  0  0  0  0
 18 19  1  0  0  0  0
 19 20  1  0  0  0  0
 19 45  1  0  0  0  0
 20 21  2  0  0  0  0
 21 22  1  0  0  0  0
 21 23  1  0  0  0  0
 22 18  2  0  0  0  0
 22 46  1  0  0  0  0
 23 47  1  0  0  0  0
 23 48  1  0  0  0  0
 23 49  1  0  0  0  0
 24 50  1  0  0  0  0
 24 51  1  0  0  0  0
 24 52  1  0  0  0  0
 25 26  1  0  0  0  0
 25 53  1  0  0  0  0
 25 54  1  0  0  0  0
 26 27  2  0  0  0  0
 27 28  1  0  0  0  0
 27 55  1  0  0  0  0
 28 29  2  0  0  0  0
 28 56  1  0  0  0  0
 29 30  1  0  0  0  0
 29 57  1  0  0  0  0
 30 31  2  0  0  0  0
 30 58  1  0  0  0  0
 31 26  1  0  0  0  0
 31 32  1  0  0  0  0
M  END
>  <Mol_ID>
628

>  <Formula>
C23H25ClFN7O

>  <MolWeight>
469.9423032

>  <Cat>
S2179

>  <Name>
Gandotinib (LY2784544)

>  <Synonyms>
N/A

>  <Target>
JAK

>  <Form>
free base

>  <CAS>
1229236-86-5

>  <URL>
http://selleckchem.com/products/LY2784544.html

$$$$
