LY2874455.cdx
 OpenBabel08302519583D

 49 52  0  0  0  0  0  0  0  0999 V2000
    4.1711   -3.4484   -2.7444 N   0  0  0  0  0  0  0  0  0  0  0  0
    4.9006   -3.1453   -1.6516 C   0  0  0  0  0  0  0  0  0  0  0  0
    4.5012   -2.2337   -0.6872 C   0  0  0  0  0  0  0  0  0  0  0  0
    3.2805   -1.5668   -0.8521 C   0  0  0  0  0  0  0  0  0  0  0  0
    2.4919   -1.8984   -1.9588 C   0  0  0  0  0  0  0  0  0  0  0  0
    2.9795   -2.8248   -2.8686 C   0  0  0  0  0  0  0  0  0  0  0  0
    2.9460   -0.3877    0.0447 C   0  0  2  0  0  0  0  0  0  0  0  0
    1.5452   -0.2693    0.3145 O   0  0  0  0  0  0  0  0  0  0  0  0
    1.0276   -0.8078    1.4552 C   0  0  0  0  0  0  0  0  0  0  0  0
    1.7357   -1.2298    2.5797 C   0  0  0  0  0  0  0  0  0  0  0  0
    1.1091   -1.8753    3.6578 C   0  0  0  0  0  0  0  0  0  0  0  0
   -0.2726   -1.9886    3.6030 C   0  0  0  0  0  0  0  0  0  0  0  0
   -1.0302   -1.4376    2.5829 C   0  0  0  0  0  0  0  0  0  0  0  0
   -0.3717   -0.8861    1.4663 C   0  0  0  0  0  0  0  0  0  0  0  0
   -1.1788   -2.5978    4.4246 N   0  0  0  0  0  0  0  0  0  0  0  0
   -2.4589   -2.3085    4.1361 N   0  0  0  0  0  0  0  0  0  0  0  0
   -2.3697   -1.5784    3.0132 C   0  0  0  0  0  0  0  0  0  0  0  0
   -3.4979   -1.0945    2.2923 C   0  0  0  0  0  0  0  0  0  0  0  0
   -4.7371   -1.0231    2.7945 C   0  0  0  0  0  0  0  0  0  0  0  0
   -5.8762   -1.1991    1.9658 C   0  0  0  0  0  0  0  0  0  0  0  0
   -7.0331   -1.7589    2.4633 C   0  0  0  0  0  0  0  0  0  0  0  0
   -7.3435   -2.6455    1.4611 N   0  0  0  0  0  0  0  0  0  0  0  0
   -6.9297   -2.2205    0.2374 N   0  0  0  0  0  0  0  0  0  0  0  0
   -5.9742   -1.3333    0.5651 C   0  0  0  0  0  0  0  0  0  0  0  0
   -7.4879   -4.0738    1.7159 C   0  0  0  0  0  0  0  0  0  0  0  0
   -8.6372   -4.6859    0.9226 C   0  0  0  0  0  0  0  0  0  0  0  0
   -8.3178   -4.7541   -0.4561 O   0  0  0  0  0  0  0  0  0  0  0  0
    3.3715    0.8779   -0.7002 C   0  0  0  0  0  0  0  0  0  0  0  0
    5.8610   -3.6480   -1.5811 H   0  0  0  0  0  0  0  0  0  0  0  0
    5.1578   -2.0138    0.1480 H   0  0  0  0  0  0  0  0  0  0  0  0
    1.5398   -1.4100   -2.1401 H   0  0  0  0  0  0  0  0  0  0  0  0
    2.4199   -3.0758   -3.7654 H   0  0  0  0  0  0  0  0  0  0  0  0
    3.5441   -0.4310    0.9579 H   0  0  0  0  0  0  0  0  0  0  0  0
    2.8042   -1.0762    2.6721 H   0  0  0  0  0  0  0  0  0  0  0  0
    1.6805   -2.2372    4.5054 H   0  0  0  0  0  0  0  0  0  0  0  0
   -0.9408   -0.5077    0.6195 H   0  0  0  0  0  0  0  0  0  0  0  0
   -0.9923   -3.2212    5.2073 H   0  0  0  0  0  0  0  0  0  0  0  0
   -3.3404   -0.9537    1.2192 H   0  0  0  0  0  0  0  0  0  0  0  0
   -4.8717   -1.1871    3.8637 H   0  0  0  0  0  0  0  0  0  0  0  0
   -7.3694   -1.9303    3.4776 H   0  0  0  0  0  0  0  0  0  0  0  0
   -5.3024   -0.9866   -0.2082 H   0  0  0  0  0  0  0  0  0  0  0  0
   -6.5201   -4.5379    1.4496 H   0  0  0  0  0  0  0  0  0  0  0  0
   -7.6435   -4.2017    2.7982 H   0  0  0  0  0  0  0  0  0  0  0  0
   -8.8128   -5.6973    1.2823 H   0  0  0  0  0  0  0  0  0  0  0  0
   -9.5471   -4.0952    1.0586 H   0  0  0  0  0  0  0  0  0  0  0  0
   -7.8984   -3.8966   -0.6996 H   0  0  0  0  0  0  0  0  0  0  0  0
    3.2534    1.7592   -0.0498 H   0  0  0  0  0  0  0  0  0  0  0  0
    4.4193    0.8281   -1.0143 H   0  0  0  0  0  0  0  0  0  0  0  0
    2.7523    1.0545   -1.5826 H   0  0  0  0  0  0  0  0  0  0  0  0
  1  2  2  0  0  0  0
  2  3  1  0  0  0  0
  2 29  1  0  0  0  0
  3  4  2  0  0  0  0
  3 30  1  0  0  0  0
  4  5  1  0  0  0  0
  5  6  2  0  0  0  0
  5 31  1  0  0  0  0
  6  1  1  0  0  0  0
  6 32  1  0  0  0  0
  7 28  1  0  0  0  0
  7 33  1  1  0  0  0
  7  8  1  0  0  0  0
  7  4  1  0  0  0  0
  8  9  1  0  0  0  0
  9 10  2  0  0  0  0
 10 11  1  0  0  0  0
 10 34  1  0  0  0  0
 11 12  2  0  0  0  0
 11 35  1  0  0  0  0
 12 13  1  0  0  0  0
 12 15  1  0  0  0  0
 13 14  2  0  0  0  0
 14  9  1  0  0  0  0
 14 36  1  0  0  0  0
 15 16  1  0  0  0  0
 15 37  1  0  0  0  0
 16 17  2  0  0  0  0
 17 13  1  0  0  0  0
 17 18  1  0  0  0  0
 18 19  2  0  0  0  0
 18 38  1  0  0  0  0
 19 20  1  0  0  0  0
 19 39  1  0  0  0  0
 20 21  2  0  0  0  0
 21 22  1  0  0  0  0
 21 40  1  0  0  0  0
 22 23  1  0  0  0  0
 22 25  1  0  0  0  0
 23 24  2  0  0  0  0
 24 20  1  0  0  0  0
 24 41  1  0  0  0  0
 25 26  1  0  0  0  0
 25 42  1  0  0  0  0
 25 43  1  0  0  0  0
 26 27  1  0  0  0  0
 26 44  1  0  0  0  0
 26 45  1  0  0  0  0
 27 46  1  0  0  0  0
 28 47  1  0  0  0  0
 28 48  1  0  0  0  0
 28 49  1  0  0  0  0
M  END
>  <Mol_ID>
2481

>  <Formula>
C21H19Cl2N5O2

>  <MolWeight>
444.31386

>  <Cat>
S7057

>  <Name>
LY2874455

>  <Synonyms>
N/A

>  <Target>
FGFR,VEGFR

>  <Form>
free base

>  <CAS>
1254473-64-7

>  <URL>
http://selleckchem.com/products/ly2874455.html

$$$$
