LY2857785.cdx
 OpenBabel08302520003D

 69 73  0  0  0  0  0  0  0  0999 V2000
   -1.6271    1.1037    0.0070 C   0  0  0  0  0  0  0  0  0  0  0  0
   -2.0513   -0.3633   -0.0185 C   0  0  0  0  0  0  0  0  0  0  0  0
   -0.9833   -1.2881   -0.6113 C   0  0  2  0  0  0  0  0  0  0  0  0
    0.3162   -1.1120    0.2011 C   0  0  0  0  0  0  0  0  0  0  0  0
    0.7853    0.3227    0.4471 C   0  0  0  0  0  0  0  0  0  0  0  0
   -0.2993    1.3737    0.7373 C   0  0  2  0  0  0  0  0  0  0  0  0
   -0.5694    1.5438    2.1728 N   0  0  0  0  0  0  0  0  0  0  0  0
   -0.7493   -1.0941   -2.0554 N   0  0  0  0  0  0  0  0  0  0  0  0
   -1.8655   -1.4875   -2.9548 C   0  0  0  0  0  0  0  0  0  0  0  0
    0.2529    2.4429    2.8561 C   0  0  0  0  0  0  0  0  0  0  0  0
   -0.2639    3.0293    3.9491 N   0  0  0  0  0  0  0  0  0  0  0  0
    0.5142    3.8991    4.6484 C   0  0  0  0  0  0  0  0  0  0  0  0
    1.8286    4.1293    4.2975 C   0  0  0  0  0  0  0  0  0  0  0  0
    2.2788    3.4609    3.1884 C   0  0  0  0  0  0  0  0  0  0  0  0
    1.5150    2.6309    2.4514 N   0  0  0  0  0  0  0  0  0  0  0  0
   -0.1346    4.6052    5.7846 C   0  0  0  0  0  0  0  0  0  0  0  0
    0.5976    4.8830    6.9755 C   0  0  0  0  0  0  0  0  0  0  0  0
   -0.1371    5.5857    7.9389 C   0  0  0  0  0  0  0  0  0  0  0  0
   -1.5031    6.0148    7.7980 C   0  0  0  0  0  0  0  0  0  0  0  0
   -2.2354    5.7395    6.6349 C   0  0  0  0  0  0  0  0  0  0  0  0
   -1.5075    5.0277    5.6514 C   0  0  0  0  0  0  0  0  0  0  0  0
    0.3020    5.9961    9.1853 C   0  0  0  0  0  0  0  0  0  0  0  0
   -0.7945    6.6568    9.7098 N   0  0  0  0  0  0  0  0  0  0  0  0
   -1.8761    6.6694    8.9029 N   0  0  0  0  0  0  0  0  0  0  0  0
   -0.9409    7.3394   10.9757 C   0  0  0  0  0  0  0  0  0  0  0  0
    1.6167    5.8446    9.9097 C   0  0  0  0  0  0  0  0  0  0  0  0
    1.9854    4.3768   10.1322 C   0  0  0  0  0  0  0  0  0  0  0  0
    2.7414    6.6033    9.2036 C   0  0  0  0  0  0  0  0  0  0  0  0
   -2.3475   -2.9420   -2.8014 C   0  0  0  0  0  0  0  0  0  0  0  0
   -3.3916   -3.2703   -3.8654 C   0  0  0  0  0  0  0  0  0  0  0  0
   -2.8317   -3.1108   -5.1641 O   0  0  0  0  0  0  0  0  0  0  0  0
   -2.4654   -1.7568   -5.4196 C   0  0  0  0  0  0  0  0  0  0  0  0
   -1.4242   -1.2625   -4.4173 C   0  0  0  0  0  0  0  0  0  0  0  0
   -1.5362    1.4606   -1.0261 H   0  0  0  0  0  0  0  0  0  0  0  0
   -2.4326    1.6934    0.4646 H   0  0  0  0  0  0  0  0  0  0  0  0
   -2.2662   -0.6882    1.0078 H   0  0  0  0  0  0  0  0  0  0  0  0
   -2.9956   -0.4603   -0.5646 H   0  0  0  0  0  0  0  0  0  0  0  0
   -1.2887   -2.3275   -0.4515 H   0  0  0  0  0  0  0  0  0  0  0  0
    0.1679   -1.5910    1.1790 H   0  0  0  0  0  0  0  0  0  0  0  0
    1.1354   -1.6687   -0.2743 H   0  0  0  0  0  0  0  0  0  0  0  0
    1.5233    0.2979    1.2594 H   0  0  0  0  0  0  0  0  0  0  0  0
    1.3380    0.6568   -0.4397 H   0  0  0  0  0  0  0  0  0  0  0  0
    0.0545    2.3396    0.3505 H   0  0  0  0  0  0  0  0  0  0  0  0
   -0.5482    0.6833    2.7042 H   0  0  0  0  0  0  0  0  0  0  0  0
    0.0773   -1.6298   -2.3277 H   0  0  0  0  0  0  0  0  0  0  0  0
   -2.7154   -0.8195   -2.7691 H   0  0  0  0  0  0  0  0  0  0  0  0
    2.4725    4.8109    4.8365 H   0  0  0  0  0  0  0  0  0  0  0  0
    3.3010    3.5759    2.8397 H   0  0  0  0  0  0  0  0  0  0  0  0
    1.6221    4.5695    7.1127 H   0  0  0  0  0  0  0  0  0  0  0  0
   -3.2624    6.0499    6.5030 H   0  0  0  0  0  0  0  0  0  0  0  0
   -2.0294    4.7942    4.7202 H   0  0  0  0  0  0  0  0  0  0  0  0
   -1.1582    8.3913   10.7701 H   0  0  0  0  0  0  0  0  0  0  0  0
   -1.7738    6.8805   11.5153 H   0  0  0  0  0  0  0  0  0  0  0  0
   -0.0395    7.2706   11.5804 H   0  0  0  0  0  0  0  0  0  0  0  0
    1.5455    6.2801   10.9098 H   0  0  0  0  0  0  0  0  0  0  0  0
    2.1599    3.8411    9.1952 H   0  0  0  0  0  0  0  0  0  0  0  0
    2.9013    4.2985   10.7287 H   0  0  0  0  0  0  0  0  0  0  0  0
    1.1900    3.8532   10.6741 H   0  0  0  0  0  0  0  0  0  0  0  0
    2.4882    7.6641    9.0967 H   0  0  0  0  0  0  0  0  0  0  0  0
    3.6696    6.5398    9.7826 H   0  0  0  0  0  0  0  0  0  0  0  0
    2.9474    6.2070    8.2049 H   0  0  0  0  0  0  0  0  0  0  0  0
   -1.4960   -3.6246   -2.9201 H   0  0  0  0  0  0  0  0  0  0  0  0
   -2.7877   -3.1167   -1.8150 H   0  0  0  0  0  0  0  0  0  0  0  0
   -3.7177   -4.3102   -3.7664 H   0  0  0  0  0  0  0  0  0  0  0  0
   -4.2814   -2.6364   -3.7643 H   0  0  0  0  0  0  0  0  0  0  0  0
   -3.3650   -1.1310   -5.4110 H   0  0  0  0  0  0  0  0  0  0  0  0
   -2.0515   -1.7174   -6.4333 H   0  0  0  0  0  0  0  0  0  0  0  0
   -1.2231   -0.2007   -4.5997 H   0  0  0  0  0  0  0  0  0  0  0  0
   -0.4908   -1.8105   -4.6015 H   0  0  0  0  0  0  0  0  0  0  0  0
  1  2  1  0  0  0  0
  1 34  1  0  0  0  0
  1 35  1  0  0  0  0
  2  3  1  0  0  0  0
  2 36  1  0  0  0  0
  2 37  1  0  0  0  0
  3  4  1  0  0  0  0
  3 38  1  1  0  0  0
  3  8  1  0  0  0  0
  4  5  1  0  0  0  0
  4 39  1  0  0  0  0
  4 40  1  0  0  0  0
  5  6  1  0  0  0  0
  5 41  1  0  0  0  0
  5 42  1  0  0  0  0
  6  1  1  0  0  0  0
  6 43  1  6  0  0  0
  6  7  1  0  0  0  0
  7 10  1  0  0  0  0
  7 44  1  0  0  0  0
  8  9  1  0  0  0  0
  8 45  1  0  0  0  0
  9 29  1  0  0  0  0
  9 46  1  0  0  0  0
 10 11  2  0  0  0  0
 11 12  1  0  0  0  0
 12 13  2  0  0  0  0
 12 16  1  0  0  0  0
 13 14  1  0  0  0  0
 13 47  1  0  0  0  0
 14 15  2  0  0  0  0
 14 48  1  0  0  0  0
 15 10  1  0  0  0  0
 16 17  2  0  0  0  0
 17 18  1  0  0  0  0
 17 49  1  0  0  0  0
 18 19  1  0  0  0  0
 18 22  2  0  0  0  0
 19 20  1  0  0  0  0
 20 21  2  0  0  0  0
 20 50  1  0  0  0  0
 21 16  1  0  0  0  0
 21 51  1  0  0  0  0
 22 23  1  0  0  0  0
 22 26  1  0  0  0  0
 23 24  1  0  0  0  0
 23 25  1  0  0  0  0
 24 19  2  0  0  0  0
 25 52  1  0  0  0  0
 25 53  1  0  0  0  0
 25 54  1  0  0  0  0
 26 27  1  0  0  0  0
 26 28  1  0  0  0  0
 26 55  1  0  0  0  0
 27 56  1  0  0  0  0
 27 57  1  0  0  0  0
 27 58  1  0  0  0  0
 28 59  1  0  0  0  0
 28 60  1  0  0  0  0
 28 61  1  0  0  0  0
 29 30  1  0  0  0  0
 29 62  1  0  0  0  0
 29 63  1  0  0  0  0
 30 31  1  0  0  0  0
 30 64  1  0  0  0  0
 30 65  1  0  0  0  0
 31 32  1  0  0  0  0
 32 33  1  0  0  0  0
 32 66  1  0  0  0  0
 32 67  1  0  0  0  0
 33  9  1  0  0  0  0
 33 68  1  0  0  0  0
 33 69  1  0  0  0  0
M  END
>  <Mol_ID>
2727

>  <Formula>
C26H36N6O

>  <MolWeight>
448.60364

>  <Cat>
S7511

>  <Name>
LY2857785

>  <Synonyms>
N/A

>  <Target>
CDK

>  <Form>
free base

>  <CAS>
1619903-54-6

>  <URL>
http://selleckchem.com/products/ly2857785.html

$$$$
