LY2880070
 OpenBabel08302521353D

 51 54  0  0  1  0  0  0  0  0999 V2000
    2.9255   -0.5369    2.1419 O   0  0  0  0  0  0  0  0  0  0  0  0
    3.3378    0.4696    3.0688 C   0  0  0  0  0  0  0  0  0  0  0  0
    0.9165   -5.5318    1.1612 N   0  0  0  0  0  0  0  0  0  0  0  0
    2.6169    3.3506   -0.6119 C   0  0  0  0  0  0  0  0  0  0  0  0
   -0.9150   -9.9473    1.1284 O   0  0  0  0  0  0  0  0  0  0  0  0
    2.0104   -2.3506    0.0115 C   0  0  0  0  0  0  0  0  0  0  0  0
    1.7157   -3.2060    1.0659 C   0  0  0  0  0  0  0  0  0  0  0  0
    2.0449   -3.1929   -1.0734 N   0  0  0  0  0  0  0  0  0  0  0  0
    1.3981   -4.4641    0.4780 C   0  0  0  0  0  0  0  0  0  0  0  0
    1.5888   -4.4254   -0.8402 N   0  0  0  0  0  0  0  0  0  0  0  0
    2.2136   -0.8935   -0.1218 C   0  0  0  0  0  0  0  0  0  0  0  0
    2.6293   -0.0237    0.8905 C   0  0  0  0  0  0  0  0  0  0  0  0
    1.9290   -0.2857   -1.3599 C   0  0  0  0  0  0  0  0  0  0  0  0
    2.7729    1.3235    0.7226 N   0  0  0  0  0  0  0  0  0  0  0  0
    2.0659    1.0891   -1.5463 C   0  0  0  0  0  0  0  0  0  0  0  0
    2.4853    1.8632   -0.4813 C   0  0  0  0  0  0  0  0  0  0  0  0
    0.0334   -6.5171    0.6591 C   0  0  0  0  0  0  0  0  0  0  0  0
    0.0861   -7.7752    1.1792 N   0  0  0  0  0  0  0  0  0  0  0  0
   -0.9389   -6.1864   -0.3026 C   0  0  0  0  0  0  0  0  0  0  0  0
   -0.8354   -8.6453    0.6876 C   0  0  0  0  0  0  0  0  0  0  0  0
   -1.8809   -7.0448   -0.7681 N   0  0  0  0  0  0  0  0  0  0  0  0
   -1.8035   -8.2820   -0.2425 C   0  0  0  0  0  0  0  0  0  0  0  0
    0.2466  -10.5134    1.7448 C   0  0  2  0  0  0  0  0  0  0  0  0
    1.2910  -10.9338    0.6999 C   0  0  0  0  0  0  0  0  0  0  0  0
   -0.2336  -11.7737    2.5053 C   0  0  0  0  0  0  0  0  0  0  0  0
    0.7818  -12.0777   -0.1823 C   0  0  0  0  0  0  0  0  0  0  0  0
   -0.7529  -12.8225    1.6104 N   0  0  0  0  0  0  0  0  0  0  0  0
    0.2555  -13.2505    0.6450 C   0  0  0  0  0  0  0  0  0  0  0  0
    4.2769    0.9395    2.7521 H   0  0  0  0  0  0  0  0  0  0  0  0
    2.5560    1.2246    3.2182 H   0  0  0  0  0  0  0  0  0  0  0  0
    3.5175   -0.0106    4.0347 H   0  0  0  0  0  0  0  0  0  0  0  0
    1.4906   -5.9427    1.8869 H   0  0  0  0  0  0  0  0  0  0  0  0
    1.9288    3.8454    0.0804 H   0  0  0  0  0  0  0  0  0  0  0  0
    3.6407    3.6589   -0.3792 H   0  0  0  0  0  0  0  0  0  0  0  0
    2.3812    3.6901   -1.6257 H   0  0  0  0  0  0  0  0  0  0  0  0
    1.6167   -2.9322    2.1070 H   0  0  0  0  0  0  0  0  0  0  0  0
    2.3098   -2.9652   -2.0245 H   0  0  0  0  0  0  0  0  0  0  0  0
    1.5598   -0.8644   -2.2025 H   0  0  0  0  0  0  0  0  0  0  0  0
    1.8300    1.5352   -2.5070 H   0  0  0  0  0  0  0  0  0  0  0  0
   -1.0085   -5.1821   -0.7074 H   0  0  0  0  0  0  0  0  0  0  0  0
   -2.5443   -8.9966   -0.5842 H   0  0  0  0  0  0  0  0  0  0  0  0
    0.6786   -9.8168    2.4732 H   0  0  0  0  0  0  0  0  0  0  0  0
    1.5653  -10.0882    0.0606 H   0  0  0  0  0  0  0  0  0  0  0  0
    2.2027  -11.2610    1.2164 H   0  0  0  0  0  0  0  0  0  0  0  0
    0.5840  -12.1836    3.1109 H   0  0  0  0  0  0  0  0  0  0  0  0
   -1.0427  -11.4944    3.1895 H   0  0  0  0  0  0  0  0  0  0  0  0
   -0.0142  -11.7071   -0.8404 H   0  0  0  0  0  0  0  0  0  0  0  0
    1.5945  -12.4271   -0.8304 H   0  0  0  0  0  0  0  0  0  0  0  0
   -1.0722  -13.6194    2.1589 H   0  0  0  0  0  0  0  0  0  0  0  0
   -0.1911  -13.9907   -0.0291 H   0  0  0  0  0  0  0  0  0  0  0  0
    1.0813  -13.7518    1.1642 H   0  0  0  0  0  0  0  0  0  0  0  0
  1  2  1  0  0  0  0
  1 12  1  0  0  0  0
  2 29  1  0  0  0  0
  2 30  1  0  0  0  0
  2 31  1  0  0  0  0
  3  9  1  0  0  0  0
  3 17  1  0  0  0  0
  3 32  1  0  0  0  0
  4 16  1  0  0  0  0
  4 33  1  0  0  0  0
  4 34  1  0  0  0  0
  4 35  1  0  0  0  0
  5 20  1  0  0  0  0
  6  7  2  0  0  0  0
  6  8  1  0  0  0  0
  6 11  1  0  0  0  0
  7  9  1  0  0  0  0
  7 36  1  0  0  0  0
  8 10  1  0  0  0  0
  8 37  1  0  0  0  0
  9 10  2  0  0  0  0
 11 12  2  0  0  0  0
 11 13  1  0  0  0  0
 12 14  1  0  0  0  0
 13 15  2  0  0  0  0
 13 38  1  0  0  0  0
 14 16  2  0  0  0  0
 15 16  1  0  0  0  0
 15 39  1  0  0  0  0
 17 18  2  0  0  0  0
 17 19  1  0  0  0  0
 18 20  1  0  0  0  0
 19 21  2  0  0  0  0
 19 40  1  0  0  0  0
 20 22  2  0  0  0  0
 21 22  1  0  0  0  0
 22 41  1  0  0  0  0
 23  5  1  0  0  0  0
 23 24  1  0  0  0  0
 23 25  1  0  0  0  0
 23 42  1  1  0  0  0
 24 26  1  0  0  0  0
 24 43  1  0  0  0  0
 24 44  1  0  0  0  0
 25 27  1  0  0  0  0
 25 45  1  0  0  0  0
 25 46  1  0  0  0  0
 26 28  1  0  0  0  0
 26 47  1  0  0  0  0
 26 48  1  0  0  0  0
 27 28  1  0  0  0  0
 27 49  1  0  0  0  0
 28 50  1  0  0  0  0
 28 51  1  0  0  0  0
M  END
>  <Mol_ID>
6965

>  <Formula>
C19H23N7O2

>  <MolWeight>
381.43162

>  <Cat>
E1667

>  <Name>
LY2880070

>  <Target>
Chk

>  <Form>
free base

>  <CAS>
1375637-35-6

>  <URL>
https://www.selleckchem.com/products/ly2880070.html

$$$$
