LY3039478.cdx
 OpenBabel08302520003D

 56 58  0  0  0  0  0  0  0  0999 V2000
    6.2663   -5.8537    0.8732 C   0  0  0  0  0  0  0  0  0  0  0  0
    7.1072   -5.1765    1.9484 C   0  0  0  0  0  0  0  0  0  0  0  0
    6.6332   -5.5038    3.3537 C   0  0  0  0  0  0  0  0  0  0  0  0
    5.5458   -6.3023    3.3693 F   0  0  0  0  0  0  0  0  0  0  0  0
    7.6092   -6.1512    4.0336 F   0  0  0  0  0  0  0  0  0  0  0  0
    6.3384   -4.3848    4.0477 F   0  0  0  0  0  0  0  0  0  0  0  0
    4.8503   -5.3201    0.8768 C   0  0  0  0  0  0  0  0  0  0  0  0
    4.5937   -4.1402    1.0991 O   0  0  0  0  0  0  0  0  0  0  0  0
    3.8988   -6.2569    0.5777 N   0  0  0  0  0  0  0  0  0  0  0  0
    2.4720   -5.9552    0.6637 C   0  0  1  0  0  0  0  0  0  0  0  0
    1.9532   -5.4379   -0.6673 C   0  0  0  0  0  0  0  0  0  0  0  0
    1.7733   -7.2656    1.0661 C   0  0  0  0  0  0  0  0  0  0  0  0
    2.3891   -8.3389    1.0840 O   0  0  0  0  0  0  0  0  0  0  0  0
    0.4492   -7.2802    1.3635 N   0  0  0  0  0  0  0  0  0  0  0  0
   -0.3646   -6.1591    1.8281 C   0  0  2  0  0  0  0  0  0  0  0  0
   -1.0937   -6.4498    3.1544 C   0  0  0  0  0  0  0  0  0  0  0  0
   -2.0289   -7.4745    3.1677 N   0  0  0  0  0  0  0  0  0  0  0  0
   -2.2395   -8.3971    2.1158 C   0  0  0  0  0  0  0  0  0  0  0  0
   -2.4487   -7.9894    0.7860 C   0  0  0  0  0  0  0  0  0  0  0  0
   -2.4243   -6.5756    0.3669 C   0  0  0  0  0  0  0  0  0  0  0  0
   -1.4225   -5.6937    0.8339 C   0  0  0  0  0  0  0  0  0  0  0  0
   -0.9261   -5.7029    4.1248 O   0  0  0  0  0  0  0  0  0  0  0  0
   -3.0822   -7.4292    4.1826 C   0  0  0  0  0  0  0  0  0  0  0  0
   -3.4358   -6.0588   -0.4662 C   0  0  0  0  0  0  0  0  0  0  0  0
   -3.4699   -4.7078   -0.8136 C   0  0  0  0  0  0  0  0  0  0  0  0
   -2.4984   -3.8421   -0.3279 C   0  0  0  0  0  0  0  0  0  0  0  0
   -1.4871   -4.3281    0.4971 C   0  0  0  0  0  0  0  0  0  0  0  0
   -2.1712   -9.7003    2.4897 N   0  0  0  0  0  0  0  0  0  0  0  0
   -2.3219  -10.6409    1.5360 C   0  0  0  0  0  0  0  0  0  0  0  0
   -2.6040  -10.3485    0.2186 C   0  0  0  0  0  0  0  0  0  0  0  0
   -2.6775   -9.0096   -0.1529 C   0  0  0  0  0  0  0  0  0  0  0  0
   -3.9761   -6.1784    4.0080 C   0  0  0  0  0  0  0  0  0  0  0  0
   -4.5933   -6.1422    2.7270 O   0  0  0  0  0  0  0  0  0  0  0  0
    6.2747   -6.9399    1.0125 H   0  0  0  0  0  0  0  0  0  0  0  0
    6.6889   -5.6434   -0.1156 H   0  0  0  0  0  0  0  0  0  0  0  0
    8.1487   -5.4995    1.8354 H   0  0  0  0  0  0  0  0  0  0  0  0
    7.1046   -4.0892    1.8067 H   0  0  0  0  0  0  0  0  0  0  0  0
    4.1364   -7.2457    0.6358 H   0  0  0  0  0  0  0  0  0  0  0  0
    2.3369   -5.2115    1.4513 H   0  0  0  0  0  0  0  0  0  0  0  0
    1.9285   -6.2329   -1.4242 H   0  0  0  0  0  0  0  0  0  0  0  0
    0.9361   -5.0548   -0.5752 H   0  0  0  0  0  0  0  0  0  0  0  0
    2.5734   -4.6238   -1.0556 H   0  0  0  0  0  0  0  0  0  0  0  0
    0.1534   -8.2130    1.6322 H   0  0  0  0  0  0  0  0  0  0  0  0
    0.3122   -5.3262    2.0424 H   0  0  0  0  0  0  0  0  0  0  0  0
   -3.7021   -8.3315    4.1188 H   0  0  0  0  0  0  0  0  0  0  0  0
   -2.6132   -7.4052    5.1733 H   0  0  0  0  0  0  0  0  0  0  0  0
   -4.2403   -6.7021   -0.8206 H   0  0  0  0  0  0  0  0  0  0  0  0
   -4.2682   -4.3302   -1.4483 H   0  0  0  0  0  0  0  0  0  0  0  0
   -2.5345   -2.7850   -0.5801 H   0  0  0  0  0  0  0  0  0  0  0  0
   -0.7534   -3.6260    0.8914 H   0  0  0  0  0  0  0  0  0  0  0  0
   -2.2012  -11.6678    1.8710 H   0  0  0  0  0  0  0  0  0  0  0  0
   -2.7487  -11.1405   -0.5081 H   0  0  0  0  0  0  0  0  0  0  0  0
   -2.8901   -8.7675   -1.1919 H   0  0  0  0  0  0  0  0  0  0  0  0
   -4.7755   -6.1949    4.7571 H   0  0  0  0  0  0  0  0  0  0  0  0
   -3.4126   -5.2533    4.1506 H   0  0  0  0  0  0  0  0  0  0  0  0
   -4.1195   -5.4591    2.1963 H   0  0  0  0  0  0  0  0  0  0  0  0
  1  2  1  0  0  0  0
  1  7  1  0  0  0  0
  1 34  1  0  0  0  0
  1 35  1  0  0  0  0
  2  3  1  0  0  0  0
  2 36  1  0  0  0  0
  2 37  1  0  0  0  0
  3  4  1  0  0  0  0
  3  5  1  0  0  0  0
  3  6  1  0  0  0  0
  7  8  2  0  0  0  0
  7  9  1  0  0  0  0
  9 10  1  0  0  0  0
  9 38  1  0  0  0  0
 10 11  1  0  0  0  0
 10 12  1  0  0  0  0
 10 39  1  1  0  0  0
 11 40  1  0  0  0  0
 11 41  1  0  0  0  0
 11 42  1  0  0  0  0
 12 13  2  0  0  0  0
 12 14  1  0  0  0  0
 14 43  1  0  0  0  0
 15 16  1  0  0  0  0
 15 44  1  1  0  0  0
 15 14  1  0  0  0  0
 16 17  1  0  0  0  0
 16 22  2  0  0  0  0
 17 18  1  0  0  0  0
 17 23  1  0  0  0  0
 18 19  2  0  0  0  0
 18 28  1  0  0  0  0
 19 20  1  0  0  0  0
 20 21  2  0  0  0  0
 20 24  1  0  0  0  0
 21 15  1  0  0  0  0
 23 32  1  0  0  0  0
 23 45  1  0  0  0  0
 23 46  1  0  0  0  0
 24 25  2  0  0  0  0
 24 47  1  0  0  0  0
 25 26  1  0  0  0  0
 25 48  1  0  0  0  0
 26 27  2  0  0  0  0
 26 49  1  0  0  0  0
 27 21  1  0  0  0  0
 27 50  1  0  0  0  0
 28 29  2  0  0  0  0
 29 30  1  0  0  0  0
 29 51  1  0  0  0  0
 30 31  2  0  0  0  0
 30 52  1  0  0  0  0
 31 19  1  0  0  0  0
 31 53  1  0  0  0  0
 32 33  1  0  0  0  0
 32 54  1  0  0  0  0
 32 55  1  0  0  0  0
 33 56  1  0  0  0  0
M  END
>  <Mol_ID>
2720

>  <Formula>
C22H23F3N4O4

>  <MolWeight>
464.4376296

>  <Cat>
S7169

>  <Name>
Crenigacestat (LY3039478)

>  <Target>
Gamma-secretase,Notch

>  <Form>
free base

>  <CAS>
1421438-81-4

>  <URL>
http://selleckchem.com/products/ly3039478.html

$$$$
