LY3023414.cdx
 OpenBabel08302520433D

 56 59  0  0  0  0  0  0  0  0999 V2000
   -0.0406   -0.3668   -3.7979 C   0  0  0  0  0  0  0  0  0  0  0  0
   -0.1920   -1.6706   -3.3151 C   0  0  0  0  0  0  0  0  0  0  0  0
   -0.1478   -1.8499   -1.9310 C   0  0  0  0  0  0  0  0  0  0  0  0
    0.3523   -0.8205   -1.1499 C   0  0  0  0  0  0  0  0  0  0  0  0
    0.3985    0.4591   -1.7191 C   0  0  0  0  0  0  0  0  0  0  0  0
    0.1688    0.7158   -3.0209 N   0  0  0  0  0  0  0  0  0  0  0  0
   -0.2091   -2.8763   -4.2332 C   0  0  0  0  0  0  0  0  0  0  0  0
   -1.5339   -2.9659   -4.9775 C   0  0  0  0  0  0  0  0  0  0  0  0
    1.0004   -2.8668   -5.1793 C   0  0  0  0  0  0  0  0  0  0  0  0
   -0.0956   -4.0745   -3.4418 O   0  0  0  0  0  0  0  0  0  0  0  0
    1.3413   -1.1146   -0.1080 C   0  0  0  0  0  0  0  0  0  0  0  0
    1.3786   -0.3744    1.0689 C   0  0  0  0  0  0  0  0  0  0  0  0
    2.6158   -0.0015    1.5872 C   0  0  0  0  0  0  0  0  0  0  0  0
    3.8049   -0.4305    1.0195 C   0  0  0  0  0  0  0  0  0  0  0  0
    3.7370   -1.4092    0.0095 C   0  0  0  0  0  0  0  0  0  0  0  0
    2.5090   -1.7647   -0.5441 C   0  0  0  0  0  0  0  0  0  0  0  0
    4.9748    0.1008    1.4401 N   0  0  0  0  0  0  0  0  0  0  0  0
    6.1337   -0.3674    0.9148 C   0  0  0  0  0  0  0  0  0  0  0  0
    6.1472   -1.4006    0.0214 C   0  0  0  0  0  0  0  0  0  0  0  0
    4.9479   -1.9012   -0.4511 C   0  0  0  0  0  0  0  0  0  0  0  0
    7.2054   -2.1843   -0.4597 N   0  0  0  0  0  0  0  0  0  0  0  0
    6.6459   -2.9793   -1.5141 C   0  0  0  0  0  0  0  0  0  0  0  0
    5.2175   -3.0445   -1.2713 N   0  0  0  0  0  0  0  0  0  0  0  0
    7.8314   -3.0304    0.5637 C   0  0  0  0  0  0  0  0  0  0  0  0
    7.2907   -3.6213   -2.3275 O   0  0  0  0  0  0  0  0  0  0  0  0
    4.8715   -4.3133   -0.5890 C   0  0  0  0  0  0  0  0  0  0  0  0
    3.8607   -5.2646   -1.2376 C   0  0  1  0  0  0  0  0  0  0  0  0
    4.3972   -6.0186   -2.3283 O   0  0  0  0  0  0  0  0  0  0  0  0
    3.5020   -6.3056   -0.1621 C   0  0  0  0  0  0  0  0  0  0  0  0
    4.6129   -5.2707   -3.5202 C   0  0  0  0  0  0  0  0  0  0  0  0
   -0.0160   -0.1474   -4.8613 H   0  0  0  0  0  0  0  0  0  0  0  0
   -0.2477   -2.8446   -1.5015 H   0  0  0  0  0  0  0  0  0  0  0  0
    0.8028    1.3022   -1.1612 H   0  0  0  0  0  0  0  0  0  0  0  0
   -1.7142   -2.0900   -5.6071 H   0  0  0  0  0  0  0  0  0  0  0  0
   -1.5621   -3.8634   -5.6033 H   0  0  0  0  0  0  0  0  0  0  0  0
   -2.3637   -3.0557   -4.2657 H   0  0  0  0  0  0  0  0  0  0  0  0
    1.9376   -2.8553   -4.6074 H   0  0  0  0  0  0  0  0  0  0  0  0
    1.0228   -3.7759   -5.7890 H   0  0  0  0  0  0  0  0  0  0  0  0
    1.0070   -2.0069   -5.8558 H   0  0  0  0  0  0  0  0  0  0  0  0
   -0.0218   -4.8259   -4.0476 H   0  0  0  0  0  0  0  0  0  0  0  0
    0.4668    0.0503    1.4814 H   0  0  0  0  0  0  0  0  0  0  0  0
    2.6543    0.6995    2.4140 H   0  0  0  0  0  0  0  0  0  0  0  0
    2.4946   -2.3651   -1.4561 H   0  0  0  0  0  0  0  0  0  0  0  0
    7.0404    0.1183    1.2557 H   0  0  0  0  0  0  0  0  0  0  0  0
    7.2112   -3.0592    1.4724 H   0  0  0  0  0  0  0  0  0  0  0  0
    7.8914   -4.0712    0.2166 H   0  0  0  0  0  0  0  0  0  0  0  0
    8.8297   -2.6739    0.8055 H   0  0  0  0  0  0  0  0  0  0  0  0
    5.7982   -4.8770   -0.4202 H   0  0  0  0  0  0  0  0  0  0  0  0
    4.5013   -4.0595    0.4150 H   0  0  0  0  0  0  0  0  0  0  0  0
    2.9474   -4.7489   -1.5520 H   0  0  0  0  0  0  0  0  0  0  0  0
    2.9399   -5.8544    0.6604 H   0  0  0  0  0  0  0  0  0  0  0  0
    2.9217   -7.1326   -0.5826 H   0  0  0  0  0  0  0  0  0  0  0  0
    4.4137   -6.7505    0.2601 H   0  0  0  0  0  0  0  0  0  0  0  0
    3.8006   -4.5633   -3.6935 H   0  0  0  0  0  0  0  0  0  0  0  0
    5.5668   -4.7390   -3.4545 H   0  0  0  0  0  0  0  0  0  0  0  0
    4.6665   -5.9540   -4.3581 H   0  0  0  0  0  0  0  0  0  0  0  0
  1  2  2  0  0  0  0
  1 31  1  0  0  0  0
  2  3  1  0  0  0  0
  2  7  1  0  0  0  0
  3  4  2  0  0  0  0
  3 32  1  0  0  0  0
  4  5  1  0  0  0  0
  4 11  1  0  0  0  0
  5  6  2  0  0  0  0
  5 33  1  0  0  0  0
  6  1  1  0  0  0  0
  7  8  1  0  0  0  0
  7  9  1  0  0  0  0
  7 10  1  0  0  0  0
  8 34  1  0  0  0  0
  8 35  1  0  0  0  0
  8 36  1  0  0  0  0
  9 37  1  0  0  0  0
  9 38  1  0  0  0  0
  9 39  1  0  0  0  0
 10 40  1  0  0  0  0
 11 12  2  0  0  0  0
 12 13  1  0  0  0  0
 12 41  1  0  0  0  0
 13 14  2  0  0  0  0
 13 42  1  0  0  0  0
 14 15  1  0  0  0  0
 14 17  1  0  0  0  0
 15 16  2  0  0  0  0
 16 11  1  0  0  0  0
 16 43  1  0  0  0  0
 17 18  2  0  0  0  0
 18 19  1  0  0  0  0
 18 44  1  0  0  0  0
 19 20  2  0  0  0  0
 19 21  1  0  0  0  0
 20 15  1  0  0  0  0
 21 22  1  0  0  0  0
 21 24  1  0  0  0  0
 22 23  1  0  0  0  0
 22 25  2  0  0  0  0
 23 20  1  0  0  0  0
 23 26  1  0  0  0  0
 24 45  1  0  0  0  0
 24 46  1  0  0  0  0
 24 47  1  0  0  0  0
 26 27  1  0  0  0  0
 26 48  1  0  0  0  0
 26 49  1  0  0  0  0
 27 28  1  0  0  0  0
 27 29  1  0  0  0  0
 27 50  1  6  0  0  0
 28 30  1  0  0  0  0
 29 51  1  0  0  0  0
 29 52  1  0  0  0  0
 29 53  1  0  0  0  0
 30 54  1  0  0  0  0
 30 55  1  0  0  0  0
 30 56  1  0  0  0  0
M  END
>  <Mol_ID>
4053

>  <Formula>
C23H26N4O3

>  <MolWeight>
406.47754

>  <Cat>
S8322

>  <Name>
Samotolisib (LY3023414)

>  <Synonyms>
GTPL8918

>  <Target>
DNA-PK,mTOR,PI3K

>  <Form>
free base

>  <CAS>
1386874-06-1

>  <URL>
http://selleckchem.com/products/ly3023414.html

$$$$
