LY315920.cdx
 OpenBabel08302521323D

 48 50  0  0  0  0  0  0  0  0999 V2000
    2.4275   -0.0047    0.0042 C   0  0  0  0  0  0  0  0  0  0  0  0
    1.5496   -1.0700   -0.0921 N   0  0  0  0  0  0  0  0  0  0  0  0
    0.2447   -0.6218   -0.1521 C   0  0  0  0  0  0  0  0  0  0  0  0
    0.2645    0.7658    0.0086 C   0  0  0  0  0  0  0  0  0  0  0  0
    1.6607    1.1685    0.0502 C   0  0  0  0  0  0  0  0  0  0  0  0
   -0.9451   -1.3481   -0.3333 C   0  0  0  0  0  0  0  0  0  0  0  0
   -2.1549   -0.6769   -0.2374 C   0  0  0  0  0  0  0  0  0  0  0  0
   -2.1794    0.6905   -0.0006 C   0  0  0  0  0  0  0  0  0  0  0  0
   -0.9912    1.4398    0.0703 C   0  0  0  0  0  0  0  0  0  0  0  0
    1.9008   -2.4942   -0.0866 C   0  0  0  0  0  0  0  0  0  0  0  0
    2.0870   -3.1191   -1.4530 C   0  0  0  0  0  0  0  0  0  0  0  0
    1.9330   -2.4218   -2.6573 C   0  0  0  0  0  0  0  0  0  0  0  0
    2.1008   -3.0706   -3.8827 C   0  0  0  0  0  0  0  0  0  0  0  0
    2.4254   -4.4238   -3.9218 C   0  0  0  0  0  0  0  0  0  0  0  0
    2.5906   -5.1310   -2.7345 C   0  0  0  0  0  0  0  0  0  0  0  0
    2.4246   -4.4844   -1.5082 C   0  0  0  0  0  0  0  0  0  0  0  0
    3.9186   -0.2172   -0.0371 C   0  0  0  0  0  0  0  0  0  0  0  0
    4.5108   -0.5222    1.3344 C   0  0  0  0  0  0  0  0  0  0  0  0
    2.1327    2.5640    0.0487 C   0  0  0  0  0  0  0  0  0  0  0  0
    3.3855    3.0735    0.8014 C   0  0  0  0  0  0  0  0  0  0  0  0
    1.5347    3.4423   -0.5841 O   0  0  0  0  0  0  0  0  0  0  0  0
    3.5106    4.4433    0.8278 N   0  0  0  0  0  0  0  0  0  0  0  0
    4.2228    2.3688    1.3331 O   0  0  0  0  0  0  0  0  0  0  0  0
   -1.0259    2.8017    0.2825 O   0  0  0  0  0  0  0  0  0  0  0  0
   -2.0563    3.5013   -0.4184 C   0  0  0  0  0  0  0  0  0  0  0  0
   -3.2629    3.8230    0.4517 C   0  0  0  0  0  0  0  0  0  0  0  0
   -3.4286    3.5641    1.6322 O   0  0  0  0  0  0  0  0  0  0  0  0
   -4.2416    4.4565   -0.2338 O   0  0  0  0  0  0  0  0  0  0  0  0
   -0.9367   -2.4175   -0.5239 H   0  0  0  0  0  0  0  0  0  0  0  0
   -3.0868   -1.2250   -0.3264 H   0  0  0  0  0  0  0  0  0  0  0  0
   -3.1478    1.1590    0.1329 H   0  0  0  0  0  0  0  0  0  0  0  0
    2.8085   -2.6174    0.5076 H   0  0  0  0  0  0  0  0  0  0  0  0
    1.1030   -3.0190    0.4524 H   0  0  0  0  0  0  0  0  0  0  0  0
    1.6779   -1.3643   -2.6715 H   0  0  0  0  0  0  0  0  0  0  0  0
    1.9727   -2.5168   -4.8085 H   0  0  0  0  0  0  0  0  0  0  0  0
    2.5489   -4.9252   -4.8778 H   0  0  0  0  0  0  0  0  0  0  0  0
    2.8481   -6.1862   -2.7630 H   0  0  0  0  0  0  0  0  0  0  0  0
    2.5549   -5.0566   -0.5924 H   0  0  0  0  0  0  0  0  0  0  0  0
    4.1651   -1.0415   -0.7173 H   0  0  0  0  0  0  0  0  0  0  0  0
    4.4037    0.6606   -0.4763 H   0  0  0  0  0  0  0  0  0  0  0  0
    4.2591   -1.5311    1.6718 H   0  0  0  0  0  0  0  0  0  0  0  0
    5.6026   -0.4528    1.2936 H   0  0  0  0  0  0  0  0  0  0  0  0
    4.1500    0.1596    2.1090 H   0  0  0  0  0  0  0  0  0  0  0  0
    4.3120    4.8601    1.2770 H   0  0  0  0  0  0  0  0  0  0  0  0
    2.8191    5.0186    0.3603 H   0  0  0  0  0  0  0  0  0  0  0  0
   -1.6305    4.4554   -0.7460 H   0  0  0  0  0  0  0  0  0  0  0  0
   -2.3876    2.9642   -1.3170 H   0  0  0  0  0  0  0  0  0  0  0  0
   -4.9445    4.5909    0.4383 H   0  0  0  0  0  0  0  0  0  0  0  0
  1  2  1  0  0  0  0
  1 17  1  0  0  0  0
  2  3  1  0  0  0  0
  2 10  1  0  0  0  0
  3  4  2  0  0  0  0
  3  6  1  0  0  0  0
  4  5  1  0  0  0  0
  5  1  2  0  0  0  0
  5 19  1  0  0  0  0
  6  7  2  0  0  0  0
  6 29  1  0  0  0  0
  7  8  1  0  0  0  0
  7 30  1  0  0  0  0
  8  9  2  0  0  0  0
  8 31  1  0  0  0  0
  9  4  1  0  0  0  0
  9 24  1  0  0  0  0
 10 11  1  0  0  0  0
 10 32  1  0  0  0  0
 10 33  1  0  0  0  0
 11 12  2  0  0  0  0
 12 13  1  0  0  0  0
 12 34  1  0  0  0  0
 13 14  2  0  0  0  0
 13 35  1  0  0  0  0
 14 15  1  0  0  0  0
 14 36  1  0  0  0  0
 15 16  2  0  0  0  0
 15 37  1  0  0  0  0
 16 11  1  0  0  0  0
 16 38  1  0  0  0  0
 17 18  1  0  0  0  0
 17 39  1  0  0  0  0
 17 40  1  0  0  0  0
 18 41  1  0  0  0  0
 18 42  1  0  0  0  0
 18 43  1  0  0  0  0
 19 20  1  0  0  0  0
 19 21  2  0  0  0  0
 20 22  1  0  0  0  0
 20 23  2  0  0  0  0
 22 44  1  0  0  0  0
 22 45  1  0  0  0  0
 24 25  1  0  0  0  0
 25 26  1  0  0  0  0
 25 46  1  0  0  0  0
 25 47  1  0  0  0  0
 26 27  2  0  0  0  0
 26 28  1  0  0  0  0
 28 48  1  0  0  0  0
M  END
>  <Mol_ID>
69

>  <Formula>
C21H20N2O5

>  <MolWeight>
380.3939

>  <Cat>
S1110

>  <Name>
Varespladib (LY315920)

>  <Synonyms>
N/A

>  <Target>
Phospholipase (e.g. PLA)

>  <Form>
free base

>  <CAS>
172732-68-2

>  <URL>
http://selleckchem.com/products/LY315920(Varespladib).html

$$$$
