LY3214996.cdx
 OpenBabel08302520433D

 59 63  0  0  0  0  0  0  0  0999 V2000
    1.2984    0.5497    0.0151 N   0  0  0  0  0  0  0  0  0  0  0  0
    0.8278    0.0748   -1.1366 C   0  0  0  0  0  0  0  0  0  0  0  0
   -0.3999   -0.5056   -1.2536 C   0  0  0  0  0  0  0  0  0  0  0  0
   -1.1392   -0.5697   -0.0944 C   0  0  0  0  0  0  0  0  0  0  0  0
   -0.7043   -0.0946    1.0930 N   0  0  0  0  0  0  0  0  0  0  0  0
    0.5224    0.4416    1.1139 C   0  0  0  0  0  0  0  0  0  0  0  0
    0.9993    0.8311    2.3693 N   0  0  0  0  0  0  0  0  0  0  0  0
    2.3119    0.9614    2.6966 C   0  0  0  0  0  0  0  0  0  0  0  0
   -2.4486   -1.2254   -0.1003 C   0  0  0  0  0  0  0  0  0  0  0  0
   -3.3768   -1.2916   -1.1372 C   0  0  0  0  0  0  0  0  0  0  0  0
   -4.4545   -2.1253   -0.7943 C   0  0  0  0  0  0  0  0  0  0  0  0
   -4.3484   -2.6190    0.4717 C   0  0  0  0  0  0  0  0  0  0  0  0
   -2.9723   -2.1295    1.2823 S   0  0  0  0  0  0  0  0  0  0  0  0
   -5.6834   -2.5903   -1.3781 C   0  0  0  0  0  0  0  0  0  0  0  0
   -6.3573   -3.2468   -0.3371 N   0  0  0  0  0  0  0  0  0  0  0  0
   -5.5038   -3.4806    0.8690 C   0  0  0  0  0  0  0  0  0  0  0  0
   -6.0335   -2.4325   -2.5363 O   0  0  0  0  0  0  0  0  0  0  0  0
   -7.6989   -3.7917   -0.5156 C   0  0  0  0  0  0  0  0  0  0  0  0
   -8.7722   -3.1203    0.3767 C   0  0  0  0  0  0  0  0  0  0  0  0
  -10.1311   -3.6517    0.2141 N   0  0  0  0  0  0  0  0  0  0  0  0
   -6.1211   -2.9933    2.1761 C   0  0  0  0  0  0  0  0  0  0  0  0
   -5.0765   -4.9485    0.9562 C   0  0  0  0  0  0  0  0  0  0  0  0
  -10.6873   -3.4294   -1.1321 C   0  0  0  0  0  0  0  0  0  0  0  0
  -11.0806   -1.9703   -1.4119 C   0  0  0  0  0  0  0  0  0  0  0  0
  -12.0113   -1.4881   -0.4352 O   0  0  0  0  0  0  0  0  0  0  0  0
  -11.4699   -1.6033    0.8859 C   0  0  0  0  0  0  0  0  0  0  0  0
  -11.0686   -3.0559    1.2002 C   0  0  0  0  0  0  0  0  0  0  0  0
    3.4333    1.1785    1.9172 C   0  0  0  0  0  0  0  0  0  0  0  0
    4.5163    1.1430    2.8011 C   0  0  0  0  0  0  0  0  0  0  0  0
    4.1346    0.9431    4.0660 N   0  0  0  0  0  0  0  0  0  0  0  0
    2.7855    0.8455    3.9813 N   0  0  0  0  0  0  0  0  0  0  0  0
    2.0637    0.5474    5.1943 C   0  0  0  0  0  0  0  0  0  0  0  0
    1.5023    0.1647   -1.9868 H   0  0  0  0  0  0  0  0  0  0  0  0
   -0.7408   -0.9119   -2.1969 H   0  0  0  0  0  0  0  0  0  0  0  0
    0.2755    0.6211    3.0441 H   0  0  0  0  0  0  0  0  0  0  0  0
   -3.2735   -0.7732   -2.0817 H   0  0  0  0  0  0  0  0  0  0  0  0
   -7.9642   -3.6392   -1.5652 H   0  0  0  0  0  0  0  0  0  0  0  0
   -7.6646   -4.8700   -0.3415 H   0  0  0  0  0  0  0  0  0  0  0  0
   -8.5185   -3.3155    1.4169 H   0  0  0  0  0  0  0  0  0  0  0  0
   -8.7208   -2.0292    0.2560 H   0  0  0  0  0  0  0  0  0  0  0  0
   -6.9491   -3.6324    2.4890 H   0  0  0  0  0  0  0  0  0  0  0  0
   -5.4012   -3.0255    3.0010 H   0  0  0  0  0  0  0  0  0  0  0  0
   -6.4840   -1.9624    2.0877 H   0  0  0  0  0  0  0  0  0  0  0  0
   -4.6530   -5.3048    0.0092 H   0  0  0  0  0  0  0  0  0  0  0  0
   -4.3171   -5.0964    1.7323 H   0  0  0  0  0  0  0  0  0  0  0  0
   -5.9292   -5.5938    1.1944 H   0  0  0  0  0  0  0  0  0  0  0  0
  -11.5789   -4.0588   -1.2186 H   0  0  0  0  0  0  0  0  0  0  0  0
  -10.0052   -3.7875   -1.9121 H   0  0  0  0  0  0  0  0  0  0  0  0
  -10.2071   -1.3090   -1.4366 H   0  0  0  0  0  0  0  0  0  0  0  0
  -11.5684   -1.9100   -2.3897 H   0  0  0  0  0  0  0  0  0  0  0  0
  -12.2442   -1.2751    1.5872 H   0  0  0  0  0  0  0  0  0  0  0  0
  -10.6229   -0.9156    0.9905 H   0  0  0  0  0  0  0  0  0  0  0  0
  -11.9768   -3.6723    1.1936 H   0  0  0  0  0  0  0  0  0  0  0  0
  -10.6656   -3.1242    2.2179 H   0  0  0  0  0  0  0  0  0  0  0  0
    3.4716    1.3188    0.8478 H   0  0  0  0  0  0  0  0  0  0  0  0
    5.5724    1.2427    2.5750 H   0  0  0  0  0  0  0  0  0  0  0  0
    2.5112   -0.3426    5.6479 H   0  0  0  0  0  0  0  0  0  0  0  0
    2.1639    1.4056    5.8602 H   0  0  0  0  0  0  0  0  0  0  0  0
    1.0096    0.3507    4.9918 H   0  0  0  0  0  0  0  0  0  0  0  0
  1  2  2  0  0  0  0
  2  3  1  0  0  0  0
  2 33  1  0  0  0  0
  3  4  2  0  0  0  0
  3 34  1  0  0  0  0
  4  5  1  0  0  0  0
  4  9  1  0  0  0  0
  5  6  2  0  0  0  0
  6  1  1  0  0  0  0
  6  7  1  0  0  0  0
  7  8  1  0  0  0  0
  7 35  1  0  0  0  0
  8 28  2  0  0  0  0
  9 10  2  0  0  0  0
 10 11  1  0  0  0  0
 10 36  1  0  0  0  0
 11 12  2  0  0  0  0
 11 14  1  0  0  0  0
 12 13  1  0  0  0  0
 13  9  1  0  0  0  0
 14 15  1  0  0  0  0
 14 17  2  0  0  0  0
 15 16  1  0  0  0  0
 15 18  1  0  0  0  0
 16 12  1  0  0  0  0
 16 21  1  0  0  0  0
 16 22  1  0  0  0  0
 18 19  1  0  0  0  0
 18 37  1  0  0  0  0
 18 38  1  0  0  0  0
 19 20  1  0  0  0  0
 19 39  1  0  0  0  0
 19 40  1  0  0  0  0
 20 23  1  0  0  0  0
 21 41  1  0  0  0  0
 21 42  1  0  0  0  0
 21 43  1  0  0  0  0
 22 44  1  0  0  0  0
 22 45  1  0  0  0  0
 22 46  1  0  0  0  0
 23 24  1  0  0  0  0
 23 47  1  0  0  0  0
 23 48  1  0  0  0  0
 24 25  1  0  0  0  0
 24 49  1  0  0  0  0
 24 50  1  0  0  0  0
 25 26  1  0  0  0  0
 26 27  1  0  0  0  0
 26 51  1  0  0  0  0
 26 52  1  0  0  0  0
 27 20  1  0  0  0  0
 27 53  1  0  0  0  0
 27 54  1  0  0  0  0
 28 29  1  0  0  0  0
 28 55  1  0  0  0  0
 29 30  2  0  0  0  0
 29 56  1  0  0  0  0
 30 31  1  0  0  0  0
 31  8  1  0  0  0  0
 31 32  1  0  0  0  0
 32 57  1  0  0  0  0
 32 58  1  0  0  0  0
 32 59  1  0  0  0  0
M  END
>  <Mol_ID>
4164

>  <Formula>
C22H27N7O2S

>  <MolWeight>
453.56048

>  <Cat>
S8534

>  <Name>
Temuterkib (LY3214996)

>  <Synonyms>
N/A

>  <Target>
ERK

>  <Form>
free base

>  <CAS>
1951483-29-6

>  <URL>
http://selleckchem.com/products/ly3214996.html

$$$$
