LY3405105
 OpenBabel08302521313D

 75 78  0  0  0  0  0  0  0  0999 V2000
    0.6887   -1.3051   -0.1081 C   0  0  0  0  0  0  0  0  0  0  0  0
    1.3295   -0.0426    0.2492 N   0  0  0  0  0  0  0  0  0  0  0  0
    0.6641    1.1472   -0.2601 C   0  0  0  0  0  0  0  0  0  0  0  0
   -0.7660    1.2110    0.2651 C   0  0  0  0  0  0  0  0  0  0  0  0
   -1.5282   -0.0785   -0.0838 C   0  0  3  0  0  0  0  0  0  0  0  0
   -0.7580   -1.3254    0.3817 C   0  0  0  0  0  0  0  0  0  0  0  0
    2.3965    0.0684    1.1318 C   0  0  0  0  0  0  0  0  0  0  0  0
    2.8423   -1.1325    1.6187 O   0  0  0  0  0  0  0  0  0  0  0  0
    2.9032    1.1463    1.4307 O   0  0  0  0  0  0  0  0  0  0  0  0
   -2.8639   -0.0535    0.5397 N   0  0  0  0  0  0  0  0  0  0  0  0
   -3.8243    0.8998    0.1516 C   0  0  0  0  0  0  0  0  0  0  0  0
    3.9379   -1.0124    2.5306 C   0  0  3  0  0  0  0  0  0  0  0  0
    5.2743   -0.7842    1.8289 C   0  0  0  0  0  0  0  0  0  0  0  0
    6.2439   -1.0702    2.8791 N   0  0  0  0  0  0  0  0  0  0  0  0
    5.6857   -2.0646    3.7911 C   0  0  0  0  0  0  0  0  0  0  0  0
    4.2535   -2.3056    3.2951 C   0  0  0  0  0  0  0  0  0  0  0  0
    7.3722   -0.3606    3.2351 C   0  0  0  0  0  0  0  0  0  0  0  0
    8.0628   -0.6762    4.2045 O   0  0  0  0  0  0  0  0  0  0  0  0
    7.7281    0.8266    2.4007 C   0  0  0  0  0  0  0  0  0  0  0  0
    8.7316    1.6484    2.7449 C   0  0  0  0  0  0  0  0  0  0  0  0
    9.1218    2.8669    1.9566 C   0  0  0  0  0  0  0  0  0  0  0  0
   10.4988    2.7769    1.4497 N   0  0  0  0  0  0  0  0  0  0  0  0
   10.6345    1.7079    0.4575 C   0  0  0  0  0  0  0  0  0  0  0  0
   10.9169    4.0520    0.8620 C   0  0  0  0  0  0  0  0  0  0  0  0
   -4.2503    1.0556   -1.1145 C   0  0  0  0  0  0  0  0  0  0  0  0
   -5.2265    2.1568   -1.3703 C   0  0  0  0  0  0  0  0  0  0  0  0
   -5.6979    2.9680   -0.4688 N   0  0  0  0  0  0  0  0  0  0  0  0
   -5.2521    2.7856    0.8103 C   0  0  0  0  0  0  0  0  0  0  0  0
   -4.3452    1.7736    1.1425 N   0  0  0  0  0  0  0  0  0  0  0  0
   -5.6850    2.3422   -2.7943 C   0  0  0  0  0  0  0  0  0  0  0  0
   -5.5235    3.4745    1.9769 C   0  0  0  0  0  0  0  0  0  0  0  0
   -4.7392    2.8190    2.9530 C   0  0  0  0  0  0  0  0  0  0  0  0
   -4.0256    1.8020    2.4683 N   0  0  0  0  0  0  0  0  0  0  0  0
   -6.4416    4.6503    2.1460 C   0  0  0  0  0  0  0  0  0  0  0  0
   -7.5680    4.3522    3.1380 C   0  0  0  0  0  0  0  0  0  0  0  0
   -5.6846    5.9141    2.5602 C   0  0  0  0  0  0  0  0  0  0  0  0
    1.2400   -2.1586    0.2896 H   0  0  0  0  0  0  0  0  0  0  0  0
    0.7216   -1.3753   -1.2014 H   0  0  0  0  0  0  0  0  0  0  0  0
    0.6568    1.0846   -1.3551 H   0  0  0  0  0  0  0  0  0  0  0  0
    1.2028    2.0619    0.0108 H   0  0  0  0  0  0  0  0  0  0  0  0
   -1.2753    2.0832   -0.1614 H   0  0  0  0  0  0  0  0  0  0  0  0
   -0.7546    1.3523    1.3538 H   0  0  0  0  0  0  0  0  0  0  0  0
   -1.6426   -0.1425   -1.1738 H   0  0  0  0  0  0  0  0  0  0  0  0
   -0.7685   -1.3831    1.4771 H   0  0  0  0  0  0  0  0  0  0  0  0
   -1.2526   -2.2310    0.0104 H   0  0  0  0  0  0  0  0  0  0  0  0
   -2.7897   -0.0236    1.5666 H   0  0  0  0  0  0  0  0  0  0  0  0
    3.7416   -0.2247    3.2715 H   0  0  0  0  0  0  0  0  0  0  0  0
    5.4232   -1.5285    1.0350 H   0  0  0  0  0  0  0  0  0  0  0  0
    5.3544    0.2041    1.3800 H   0  0  0  0  0  0  0  0  0  0  0  0
    5.6957   -1.6661    4.8109 H   0  0  0  0  0  0  0  0  0  0  0  0
    6.2932   -2.9754    3.7616 H   0  0  0  0  0  0  0  0  0  0  0  0
    3.5558   -2.4950    4.1175 H   0  0  0  0  0  0  0  0  0  0  0  0
    4.2086   -3.1764    2.6288 H   0  0  0  0  0  0  0  0  0  0  0  0
    7.1625    1.0256    1.5071 H   0  0  0  0  0  0  0  0  0  0  0  0
    9.3196    1.4481    3.6399 H   0  0  0  0  0  0  0  0  0  0  0  0
    8.4149    3.0522    1.1357 H   0  0  0  0  0  0  0  0  0  0  0  0
    9.0389    3.7255    2.6361 H   0  0  0  0  0  0  0  0  0  0  0  0
    9.9672    1.8538   -0.3997 H   0  0  0  0  0  0  0  0  0  0  0  0
   11.6648    1.6548    0.0885 H   0  0  0  0  0  0  0  0  0  0  0  0
   10.4234    0.7284    0.8990 H   0  0  0  0  0  0  0  0  0  0  0  0
   10.2632    4.3669    0.0403 H   0  0  0  0  0  0  0  0  0  0  0  0
   10.9284    4.8435    1.6195 H   0  0  0  0  0  0  0  0  0  0  0  0
   11.9400    3.9805    0.4742 H   0  0  0  0  0  0  0  0  0  0  0  0
   -3.9181    0.4335   -1.9300 H   0  0  0  0  0  0  0  0  0  0  0  0
   -6.7698    2.2101   -2.8438 H   0  0  0  0  0  0  0  0  0  0  0  0
   -5.4326    3.3533   -3.1262 H   0  0  0  0  0  0  0  0  0  0  0  0
   -5.2095    1.6227   -3.4660 H   0  0  0  0  0  0  0  0  0  0  0  0
   -4.6600    3.0512    4.0088 H   0  0  0  0  0  0  0  0  0  0  0  0
   -6.9146    4.8624    1.1776 H   0  0  0  0  0  0  0  0  0  0  0  0
   -7.1794    4.1497    4.1423 H   0  0  0  0  0  0  0  0  0  0  0  0
   -8.2579    5.2000    3.2093 H   0  0  0  0  0  0  0  0  0  0  0  0
   -8.1450    3.4765    2.8206 H   0  0  0  0  0  0  0  0  0  0  0  0
   -4.9091    6.1645    1.8277 H   0  0  0  0  0  0  0  0  0  0  0  0
   -6.3664    6.7692    2.6292 H   0  0  0  0  0  0  0  0  0  0  0  0
   -5.1974    5.7943    3.5343 H   0  0  0  0  0  0  0  0  0  0  0  0
  1  2  1  0  0  0  0
  1 37  1  0  0  0  0
  1 38  1  0  0  0  0
  2  3  1  0  0  0  0
  2  7  1  0  0  0  0
  3  4  1  0  0  0  0
  3 39  1  0  0  0  0
  3 40  1  0  0  0  0
  4  5  1  0  0  0  0
  4 41  1  0  0  0  0
  4 42  1  0  0  0  0
  5  6  1  0  0  0  0
  5 10  1  0  0  0  0
  5 43  1  0  0  0  0
  6  1  1  0  0  0  0
  6 44  1  0  0  0  0
  6 45  1  0  0  0  0
  7  8  1  0  0  0  0
  7  9  2  0  0  0  0
  8 12  1  0  0  0  0
 10 11  1  0  0  0  0
 10 46  1  0  0  0  0
 11 25  2  0  0  0  0
 12 13  1  0  0  0  0
 12 47  1  0  0  0  0
 13 14  1  0  0  0  0
 13 48  1  0  0  0  0
 13 49  1  0  0  0  0
 14 15  1  0  0  0  0
 14 17  1  0  0  0  0
 15 16  1  0  0  0  0
 15 50  1  0  0  0  0
 15 51  1  0  0  0  0
 16 12  1  0  0  0  0
 16 52  1  0  0  0  0
 16 53  1  0  0  0  0
 17 18  2  0  0  0  0
 17 19  1  0  0  0  0
 19 20  2  0  0  0  0
 19 54  1  0  0  0  0
 20 21  1  0  0  0  0
 20 55  1  0  0  0  0
 21 22  1  0  0  0  0
 21 56  1  0  0  0  0
 21 57  1  0  0  0  0
 22 23  1  0  0  0  0
 22 24  1  0  0  0  0
 23 58  1  0  0  0  0
 23 59  1  0  0  0  0
 23 60  1  0  0  0  0
 24 61  1  0  0  0  0
 24 62  1  0  0  0  0
 24 63  1  0  0  0  0
 25 26  1  0  0  0  0
 25 64  1  0  0  0  0
 26 27  2  0  0  0  0
 26 30  1  0  0  0  0
 27 28  1  0  0  0  0
 28 29  1  0  0  0  0
 28 31  2  0  0  0  0
 29 11  1  0  0  0  0
 30 65  1  0  0  0  0
 30 66  1  0  0  0  0
 30 67  1  0  0  0  0
 31 32  1  0  0  0  0
 31 34  1  0  0  0  0
 32 33  2  0  0  0  0
 32 68  1  0  0  0  0
 33 29  1  0  0  0  0
 34 35  1  0  0  0  0
 34 36  1  0  0  0  0
 34 69  1  0  0  0  0
 35 70  1  0  0  0  0
 35 71  1  0  0  0  0
 35 72  1  0  0  0  0
 36 73  1  0  0  0  0
 36 74  1  0  0  0  0
 36 75  1  0  0  0  0
M  END
>  <Mol_ID>
5903

>  <Formula>
C26H39N7O3

>  <MolWeight>
497.63296

>  <Cat>
S6884

>  <Name>
LY3405105

>  <Synonyms>
N/A

>  <Target>
CDK

>  <Form>
Free Base

>  <CAS>
2326428-25-3

>  <URL>
http://www.selleckchem.com/products/ly3405105.html

$$$$
