LY364947.cdx
 OpenBabel08302521393D

 33 36  0  0  0  0  0  0  0  0999 V2000
   -1.0809    1.3548    0.0598 N   0  0  0  0  0  0  0  0  0  0  0  0
   -2.1273    0.6838   -0.4475 C   0  0  0  0  0  0  0  0  0  0  0  0
   -2.2304   -0.6903   -0.4410 C   0  0  0  0  0  0  0  0  0  0  0  0
   -1.1638   -1.4538    0.0480 C   0  0  0  0  0  0  0  0  0  0  0  0
   -0.0358   -0.7705    0.5970 C   0  0  0  0  0  0  0  0  0  0  0  0
    1.1237   -1.3885    1.1483 C   0  0  0  0  0  0  0  0  0  0  0  0
    2.1568   -0.6469    1.7200 C   0  0  0  0  0  0  0  0  0  0  0  0
    2.0845    0.7340    1.7133 C   0  0  0  0  0  0  0  0  0  0  0  0
    0.9793    1.3606    1.1300 C   0  0  0  0  0  0  0  0  0  0  0  0
   -0.0732    0.6424    0.5837 C   0  0  0  0  0  0  0  0  0  0  0  0
   -1.1402   -5.0503    0.4666 N   0  0  0  0  0  0  0  0  0  0  0  0
   -1.7471   -5.0660   -0.7231 N   0  0  0  0  0  0  0  0  0  0  0  0
   -1.8251   -3.7675   -1.0820 C   0  0  0  0  0  0  0  0  0  0  0  0
   -1.2725   -2.9187   -0.0522 C   0  0  0  0  0  0  0  0  0  0  0  0
   -0.9194   -3.7998    0.9513 C   0  0  0  0  0  0  0  0  0  0  0  0
   -2.4336   -3.3867   -2.3672 C   0  0  0  0  0  0  0  0  0  0  0  0
   -3.4827   -4.1315   -2.9014 C   0  0  0  0  0  0  0  0  0  0  0  0
   -4.0661   -3.7126   -4.0950 C   0  0  0  0  0  0  0  0  0  0  0  0
   -3.5910   -2.5652   -4.7185 C   0  0  0  0  0  0  0  0  0  0  0  0
   -2.5453   -1.8826   -4.1221 C   0  0  0  0  0  0  0  0  0  0  0  0
   -1.9575   -2.2683   -2.9703 N   0  0  0  0  0  0  0  0  0  0  0  0
   -2.9092    1.3002   -0.8809 H   0  0  0  0  0  0  0  0  0  0  0  0
   -3.1244   -1.1453   -0.8533 H   0  0  0  0  0  0  0  0  0  0  0  0
    1.2414   -2.4677    1.1359 H   0  0  0  0  0  0  0  0  0  0  0  0
    3.0142   -1.1513    2.1568 H   0  0  0  0  0  0  0  0  0  0  0  0
    2.8827    1.3304    2.1455 H   0  0  0  0  0  0  0  0  0  0  0  0
    0.9401    2.4489    1.1079 H   0  0  0  0  0  0  0  0  0  0  0  0
   -0.9238   -5.9395    0.9055 H   0  0  0  0  0  0  0  0  0  0  0  0
   -0.5092   -3.6579    1.9408 H   0  0  0  0  0  0  0  0  0  0  0  0
   -3.8489   -5.0173   -2.3911 H   0  0  0  0  0  0  0  0  0  0  0  0
   -4.8849   -4.2779   -4.5310 H   0  0  0  0  0  0  0  0  0  0  0  0
   -4.0234   -2.2117   -5.6475 H   0  0  0  0  0  0  0  0  0  0  0  0
   -2.1419   -0.9753   -4.5631 H   0  0  0  0  0  0  0  0  0  0  0  0
  1  2  2  0  0  0  0
  1 10  1  0  0  0  0
  2  3  1  0  0  0  0
  2 22  1  0  0  0  0
  3  4  2  0  0  0  0
  3 23  1  0  0  0  0
  4  5  1  0  0  0  0
  4 14  1  0  0  0  0
  5  6  1  0  0  0  0
  5 10  2  0  0  0  0
  6  7  2  0  0  0  0
  6 24  1  0  0  0  0
  7  8  1  0  0  0  0
  7 25  1  0  0  0  0
  8  9  2  0  0  0  0
  8 26  1  0  0  0  0
  9 10  1  0  0  0  0
  9 27  1  0  0  0  0
 11 12  1  0  0  0  0
 11 15  1  0  0  0  0
 11 28  1  0  0  0  0
 12 13  2  0  0  0  0
 13 14  1  0  0  0  0
 13 16  1  0  0  0  0
 14 15  2  0  0  0  0
 15 29  1  0  0  0  0
 16 17  2  0  0  0  0
 16 21  1  0  0  0  0
 17 18  1  0  0  0  0
 17 30  1  0  0  0  0
 18 19  2  0  0  0  0
 18 31  1  0  0  0  0
 19 20  1  0  0  0  0
 19 32  1  0  0  0  0
 20 21  2  0  0  0  0
 20 33  1  0  0  0  0
M  END
>  <Mol_ID>
8187

>  <Formula>
C17H12N4

>  <MolWeight>
272.30398

>  <Cat>
S2805

>  <Name>
LY364947

>  <Synonyms>
HTS 466284

>  <Target>
Casein Kinase,Mixed Lineage Kinase,RIP kinase,TGF-beta/Smad

>  <Form>
Free Base

>  <CAS>
396129-53-6

>  <URL>
http://selleckchem.com/products/ly364947.html

$$$$
