ly404039.cdx
 OpenBabel08302521403D

 24 25  0  0  0  0  0  0  0  0999 V2000
   -0.2769   -0.9623    0.0282 C   0  0  1  0  0  0  0  0  0  0  0  0
    0.9476   -0.0990   -0.2762 C   0  0  3  0  0  0  0  0  0  0  0  0
    0.6788    1.3672   -0.5756 C   0  0  3  0  0  0  0  0  0  0  0  0
   -0.5250    1.7136    0.2926 C   0  0  0  0  0  0  0  0  0  0  0  0
   -1.6078    0.2709    0.0754 S   0  0  0  0  0  0  0  0  0  0  0  0
   -2.2841    0.2929   -1.1973 O   0  0  0  0  0  0  0  0  0  0  0  0
   -2.3196    0.0459    1.3127 O   0  0  0  0  0  0  0  0  0  0  0  0
    0.3132    1.6062   -1.9870 N   0  0  0  0  0  0  0  0  0  0  0  0
    1.9828    2.1571   -0.3484 C   0  0  0  0  0  0  0  0  0  0  0  0
    3.0644    1.8604   -0.8423 O   0  0  0  0  0  0  0  0  0  0  0  0
    1.8648    3.3028    0.3356 O   0  0  0  0  0  0  0  0  0  0  0  0
    0.5445   -1.2203   -1.2039 C   0  0  3  0  0  0  0  0  0  0  0  0
    1.4727   -2.3751   -1.2135 C   0  0  0  0  0  0  0  0  0  0  0  0
    1.8949   -2.9180   -0.2078 O   0  0  0  0  0  0  0  0  0  0  0  0
    1.9064   -2.7178   -2.4396 O   0  0  0  0  0  0  0  0  0  0  0  0
   -0.2431   -1.6686    0.8449 H   0  0  0  0  0  0  0  0  0  0  0  0
    1.7712   -0.2407    0.4193 H   0  0  0  0  0  0  0  0  0  0  0  0
   -1.0633    2.6278    0.0357 H   0  0  0  0  0  0  0  0  0  0  0  0
   -0.2557    1.7397    1.3581 H   0  0  0  0  0  0  0  0  0  0  0  0
    0.0529    2.5864   -2.1167 H   0  0  0  0  0  0  0  0  0  0  0  0
    1.1203    1.4445   -2.5905 H   0  0  0  0  0  0  0  0  0  0  0  0
    2.7728    3.6773    0.2734 H   0  0  0  0  0  0  0  0  0  0  0  0
    0.1059   -0.9766   -2.1648 H   0  0  0  0  0  0  0  0  0  0  0  0
    2.5650   -3.4222   -2.2558 H   0  0  0  0  0  0  0  0  0  0  0  0
  1  2  1  0  0  0  0
  1  5  1  0  0  0  0
  1 12  1  0  0  0  0
  1 16  1  1  0  0  0
  2  3  1  0  0  0  0
  2 17  1  0  0  0  0
  3  4  1  0  0  0  0
  3  8  1  0  0  0  0
  3  9  1  0  0  0  0
  4  5  1  0  0  0  0
  4 18  1  0  0  0  0
  4 19  1  0  0  0  0
  5  6  2  0  0  0  0
  5  7  2  0  0  0  0
  8 20  1  0  0  0  0
  8 21  1  0  0  0  0
  9 10  2  0  0  0  0
  9 11  1  0  0  0  0
 11 22  1  0  0  0  0
 12  2  1  0  0  0  0
 12 13  1  0  0  0  0
 12 23  1  0  0  0  0
 13 14  2  0  0  0  0
 13 15  1  0  0  0  0
 15 24  1  0  0  0  0
M  END
>  <Mol_ID>
8237

>  <Formula>
C7H9NO6S

>  <MolWeight>
235.21446

>  <Cat>
S6001

>  <Name>
pomaglumetad (LY404039)

>  <Synonyms>
N/A

>  <Target>
GluR

>  <Form>
Free Base

>  <CAS>
635318-11-5

>  <URL>
http://selleckchem.com/products/LY2140023(LY404039).html

$$$$
