m-3M3FBS
 OpenBabel08302521313D

 39 40  0  0  0  0  0  0  0  0999 V2000
    1.1414   -0.0877    0.0856 S   0  0  0  0  0  0  0  0  0  0  0  0
    3.4546    2.0182    5.4570 F   0  0  0  0  0  0  0  0  0  0  0  0
    2.9791    4.1396    5.4546 F   0  0  0  0  0  0  0  0  0  0  0  0
    1.8174    2.7621    6.6739 F   0  0  0  0  0  0  0  0  0  0  0  0
    0.4377    0.9068   -0.6918 O   0  0  0  0  0  0  0  0  0  0  0  0
    0.8119   -1.4913   -0.0664 O   0  0  0  0  0  0  0  0  0  0  0  0
    0.8970    0.1420    1.7261 N   0  0  0  0  0  0  0  0  0  0  0  0
    2.9253    0.1213   -0.1364 C   0  0  0  0  0  0  0  0  0  0  0  0
    3.7562   -0.9738   -0.4943 C   0  0  0  0  0  0  0  0  0  0  0  0
    3.5244    1.3829    0.0903 C   0  0  0  0  0  0  0  0  0  0  0  0
    5.7563    0.3718   -0.0479 C   0  0  0  0  0  0  0  0  0  0  0  0
    5.1583   -0.8395   -0.3912 C   0  0  0  0  0  0  0  0  0  0  0  0
    4.9349    1.4779    0.1525 C   0  0  0  0  0  0  0  0  0  0  0  0
    0.7416    1.3832    2.3921 C   0  0  0  0  0  0  0  0  0  0  0  0
    3.2859   -2.3041   -1.0235 C   0  0  0  0  0  0  0  0  0  0  0  0
    2.7985    2.6994    0.1833 C   0  0  0  0  0  0  0  0  0  0  0  0
    7.2464    0.4692    0.0743 C   0  0  0  0  0  0  0  0  0  0  0  0
    1.6814    1.6705    3.3823 C   0  0  0  0  0  0  0  0  0  0  0  0
    1.4500    2.6899    4.3198 C   0  0  0  0  0  0  0  0  0  0  0  0
   -0.4358    2.1256    2.3170 C   0  0  0  0  0  0  0  0  0  0  0  0
    0.2722    3.4483    4.2273 C   0  0  0  0  0  0  0  0  0  0  0  0
   -0.6635    3.1693    3.2285 C   0  0  0  0  0  0  0  0  0  0  0  0
    2.4166    2.9014    5.4585 C   0  0  0  0  0  0  0  0  0  0  0  0
    0.4624   -0.6652    2.1649 H   0  0  0  0  0  0  0  0  0  0  0  0
    5.7964   -1.6949   -0.6076 H   0  0  0  0  0  0  0  0  0  0  0  0
    5.3917    2.4479    0.3481 H   0  0  0  0  0  0  0  0  0  0  0  0
    4.0124   -2.6885   -1.7523 H   0  0  0  0  0  0  0  0  0  0  0  0
    3.1934   -3.0369   -0.2176 H   0  0  0  0  0  0  0  0  0  0  0  0
    2.3582   -2.2234   -1.5929 H   0  0  0  0  0  0  0  0  0  0  0  0
    3.0556    3.2083    1.1170 H   0  0  0  0  0  0  0  0  0  0  0  0
    3.1040    3.3345   -0.6565 H   0  0  0  0  0  0  0  0  0  0  0  0
    1.7166    2.6314    0.1322 H   0  0  0  0  0  0  0  0  0  0  0  0
    7.5928   -0.1027    0.9416 H   0  0  0  0  0  0  0  0  0  0  0  0
    7.7329    0.0845   -0.8283 H   0  0  0  0  0  0  0  0  0  0  0  0
    7.5678    1.5075    0.2056 H   0  0  0  0  0  0  0  0  0  0  0  0
    2.5827    1.0706    3.4421 H   0  0  0  0  0  0  0  0  0  0  0  0
   -1.2070    1.8807    1.5909 H   0  0  0  0  0  0  0  0  0  0  0  0
    0.0635    4.2247    4.9608 H   0  0  0  0  0  0  0  0  0  0  0  0
   -1.5936    3.7349    3.1906 H   0  0  0  0  0  0  0  0  0  0  0  0
  1  5  2  0  0  0  0
  1  6  2  0  0  0  0
  1  7  1  0  0  0  0
  1  8  1  0  0  0  0
  2 23  1  0  0  0  0
  3 23  1  0  0  0  0
  4 23  1  0  0  0  0
  7 14  1  0  0  0  0
  7 24  1  0  0  0  0
  8  9  2  0  0  0  0
  8 10  1  0  0  0  0
  9 12  1  0  0  0  0
  9 15  1  0  0  0  0
 10 13  2  0  0  0  0
 10 16  1  0  0  0  0
 11 12  2  0  0  0  0
 11 13  1  0  0  0  0
 11 17  1  0  0  0  0
 12 25  1  0  0  0  0
 13 26  1  0  0  0  0
 14 18  2  0  0  0  0
 14 20  1  0  0  0  0
 15 27  1  0  0  0  0
 15 28  1  0  0  0  0
 15 29  1  0  0  0  0
 16 30  1  0  0  0  0
 16 31  1  0  0  0  0
 16 32  1  0  0  0  0
 17 33  1  0  0  0  0
 17 34  1  0  0  0  0
 17 35  1  0  0  0  0
 18 19  1  0  0  0  0
 18 36  1  0  0  0  0
 19 21  2  0  0  0  0
 19 23  1  0  0  0  0
 20 22  2  0  0  0  0
 20 37  1  0  0  0  0
 21 22  1  0  0  0  0
 21 38  1  0  0  0  0
 22 39  1  0  0  0  0
M  END
>  <Mol_ID>
5859

>  <Formula>
C16H16F3NO2S

>  <MolWeight>
343.3639496

>  <Cat>
S0982

>  <Name>
m-3M3FBS

>  <Synonyms>
N/A

>  <Target>
Phospholipase (e.g. PLA)

>  <Form>
Free Base

>  <CAS>
200933-14-8

>  <URL>
http://www.selleckchem.com/products/m-3m3fbs.html

$$$$
