m-Coumaric acid
 OpenBabel08302521363D

 20 20  0  0  0  0  0  0  0  0999 V2000
    0.8409    0.0592    0.0937 C   0  0  0  0  0  0  0  0  0  0  0  0
    0.3855    0.1027   -1.1682 C   0  0  0  0  0  0  0  0  0  0  0  0
   -0.7785    0.8911   -1.6366 C   0  0  0  0  0  0  0  0  0  0  0  0
   -1.2543    0.4165   -2.8056 O   0  0  0  0  0  0  0  0  0  0  0  0
   -1.2506    1.8626   -1.0772 O   0  0  0  0  0  0  0  0  0  0  0  0
    0.4828    3.9458    3.0365 O   0  0  0  0  0  0  0  0  0  0  0  0
    0.2610    0.7467    1.2491 C   0  0  0  0  0  0  0  0  0  0  0  0
    0.6756    2.0415    1.5812 C   0  0  0  0  0  0  0  0  0  0  0  0
   -0.7105    0.1076    2.0295 C   0  0  0  0  0  0  0  0  0  0  0  0
    0.1067    2.6840    2.6786 C   0  0  0  0  0  0  0  0  0  0  0  0
   -1.2751    0.7646    3.1249 C   0  0  0  0  0  0  0  0  0  0  0  0
   -0.8669    2.0576    3.4480 C   0  0  0  0  0  0  0  0  0  0  0  0
    1.7171   -0.5429    0.3255 H   0  0  0  0  0  0  0  0  0  0  0  0
    0.9169   -0.4666   -1.9224 H   0  0  0  0  0  0  0  0  0  0  0  0
   -0.8366   -0.4002   -3.1314 H   0  0  0  0  0  0  0  0  0  0  0  0
    1.0976    4.2831    2.3646 H   0  0  0  0  0  0  0  0  0  0  0  0
    1.4258    2.5405    0.9761 H   0  0  0  0  0  0  0  0  0  0  0  0
   -1.0399   -0.8992    1.7867 H   0  0  0  0  0  0  0  0  0  0  0  0
   -2.0388    0.2727    3.7212 H   0  0  0  0  0  0  0  0  0  0  0  0
   -1.3117    2.5791    4.2906 H   0  0  0  0  0  0  0  0  0  0  0  0
  1  2  2  3  0  0  0
  1  7  1  0  0  0  0
  1 13  1  0  0  0  0
  2  3  1  0  0  0  0
  2 14  1  0  0  0  0
  3  4  1  0  0  0  0
  3  5  2  0  0  0  0
  4 15  1  0  0  0  0
  6 10  1  0  0  0  0
  6 16  1  0  0  0  0
  7  8  2  0  0  0  0
  7  9  1  0  0  0  0
  8 10  1  0  0  0  0
  8 17  1  0  0  0  0
  9 11  2  0  0  0  0
  9 18  1  0  0  0  0
 10 12  2  0  0  0  0
 11 12  1  0  0  0  0
 11 19  1  0  0  0  0
 12 20  1  0  0  0  0
M  END
>  <Mol_ID>
7315

>  <Formula>
C9H8O3

>  <MolWeight>
164.15802

>  <Cat>
E4351

>  <Name>
m-Coumaric acid

>  <Synonyms>
m-Coumaric acid

>  <Target>
Endogenous Metabolite

>  <Form>
free base

>  <CAS>
588-30-7

>  <URL>
https://www.selleckchem.com/products/m-coumaric-acid.html

$$$$
