m-Tolualdehyde
 OpenBabel08302521363D

 17 17  0  0  0  0  0  0  0  0999 V2000
    2.4643   -0.0347   -0.0083 C   0  0  0  0  0  0  0  0  0  0  0  0
    3.1120   -1.0740   -0.0118 O   0  0  0  0  0  0  0  0  0  0  0  0
   -1.8469    2.5187    0.0112 C   0  0  0  0  0  0  0  0  0  0  0  0
    0.9873   -0.0247   -0.0022 C   0  0  0  0  0  0  0  0  0  0  0  0
    0.3082    1.1987    0.0022 C   0  0  0  0  0  0  0  0  0  0  0  0
    0.2801   -1.2291   -0.0032 C   0  0  0  0  0  0  0  0  0  0  0  0
   -1.0930    1.2211    0.0026 C   0  0  0  0  0  0  0  0  0  0  0  0
   -1.1134   -1.2104   -0.0055 C   0  0  0  0  0  0  0  0  0  0  0  0
   -1.7959    0.0078   -0.0043 C   0  0  0  0  0  0  0  0  0  0  0  0
    2.9627    0.9493   -0.0109 H   0  0  0  0  0  0  0  0  0  0  0  0
   -2.4739    2.5969   -0.8826 H   0  0  0  0  0  0  0  0  0  0  0  0
   -2.4799    2.5802    0.9023 H   0  0  0  0  0  0  0  0  0  0  0  0
   -1.1681    3.3776    0.0221 H   0  0  0  0  0  0  0  0  0  0  0  0
    0.8634    2.1337    0.0053 H   0  0  0  0  0  0  0  0  0  0  0  0
    0.8108   -2.1786   -0.0036 H   0  0  0  0  0  0  0  0  0  0  0  0
   -1.6683   -2.1454   -0.0083 H   0  0  0  0  0  0  0  0  0  0  0  0
   -2.8844    0.0062   -0.0080 H   0  0  0  0  0  0  0  0  0  0  0  0
  1  2  2  0  0  0  0
  1  4  1  0  0  0  0
  1 10  1  0  0  0  0
  3  7  1  0  0  0  0
  3 11  1  0  0  0  0
  3 12  1  0  0  0  0
  3 13  1  0  0  0  0
  4  5  2  0  0  0  0
  4  6  1  0  0  0  0
  5  7  1  0  0  0  0
  5 14  1  0  0  0  0
  6  8  2  0  0  0  0
  6 15  1  0  0  0  0
  7  9  2  0  0  0  0
  8  9  1  0  0  0  0
  8 16  1  0  0  0  0
  9 17  1  0  0  0  0
M  END
>  <Mol_ID>
7062

>  <Formula>
C8H8O

>  <MolWeight>
120.14852

>  <Cat>
E4075

>  <Name>
m-Tolualdehyde

>  <Synonyms>
3-Methylbenzaldehyde

>  <Target>
Others

>  <Form>
Free base

>  <CAS>
620-23-5

>  <URL>
https://www.selleckchem.com/products/m-tolualdehyde.html

$$$$
