M2912
 OpenBabel08302521353D

 39 41  0  0  0  0  0  0  0  0999 V2000
   -1.8339   -5.8853   -2.1560 C   0  0  0  0  0  0  0  0  0  0  0  0
   -0.3336   -0.9204    0.9317 O   0  0  0  0  0  0  0  0  0  0  0  0
   -8.2916    0.7796   -2.1441 C   0  0  0  0  0  0  0  0  0  0  0  0
   -8.0516    2.2875   -2.2964 C   0  0  0  0  0  0  0  0  0  0  0  0
   -8.9621    0.2084   -3.3998 C   0  0  0  0  0  0  0  0  0  0  0  0
   -9.2125    0.6079   -1.0599 O   0  0  0  0  0  0  0  0  0  0  0  0
   -1.6845   -3.6266   -1.0148 N   0  0  0  0  0  0  0  0  0  0  0  0
   -0.7776   -2.9337   -0.2344 C   0  0  0  0  0  0  0  0  0  0  0  0
   -2.9108   -3.0625   -1.3610 C   0  0  0  0  0  0  0  0  0  0  0  0
   -1.1434   -4.8639   -1.3235 C   0  0  0  0  0  0  0  0  0  0  0  0
   -1.0811   -1.6021    0.2399 C   0  0  0  0  0  0  0  0  0  0  0  0
    0.3350   -3.7253   -0.0455 C   0  0  0  0  0  0  0  0  0  0  0  0
   -3.2192   -1.8277   -0.9271 C   0  0  0  0  0  0  0  0  0  0  0  0
    0.1049   -4.9382   -0.7294 C   0  0  0  0  0  0  0  0  0  0  0  0
   -2.3207   -1.1245   -0.1516 N   0  0  0  0  0  0  0  0  0  0  0  0
   -4.5007   -1.1889   -1.2425 C   0  0  0  0  0  0  0  0  0  0  0  0
   -5.5825   -1.3035   -0.3642 C   0  0  0  0  0  0  0  0  0  0  0  0
   -4.6592   -0.4573   -2.4215 C   0  0  0  0  0  0  0  0  0  0  0  0
   -6.8051   -0.6867   -0.6585 C   0  0  0  0  0  0  0  0  0  0  0  0
   -5.8858    0.1467   -2.7198 C   0  0  0  0  0  0  0  0  0  0  0  0
   -6.9780    0.0584   -1.8367 C   0  0  0  0  0  0  0  0  0  0  0  0
   -1.8471   -5.5790   -3.2066 H   0  0  0  0  0  0  0  0  0  0  0  0
   -2.8624   -6.0475   -1.8197 H   0  0  0  0  0  0  0  0  0  0  0  0
   -1.3124   -6.8468   -2.0944 H   0  0  0  0  0  0  0  0  0  0  0  0
   -7.3988    2.5244   -3.1433 H   0  0  0  0  0  0  0  0  0  0  0  0
   -8.9964    2.8241   -2.4395 H   0  0  0  0  0  0  0  0  0  0  0  0
   -7.5937    2.7002   -1.3892 H   0  0  0  0  0  0  0  0  0  0  0  0
   -9.1882   -0.8573   -3.2723 H   0  0  0  0  0  0  0  0  0  0  0  0
   -9.9201    0.7065   -3.5894 H   0  0  0  0  0  0  0  0  0  0  0  0
   -8.3402    0.3206   -4.2943 H   0  0  0  0  0  0  0  0  0  0  0  0
  -10.0162    1.1099   -1.2719 H   0  0  0  0  0  0  0  0  0  0  0  0
   -3.5806   -3.6564   -1.9698 H   0  0  0  0  0  0  0  0  0  0  0  0
    1.2116   -3.4481    0.5269 H   0  0  0  0  0  0  0  0  0  0  0  0
    0.7794   -5.7840   -0.7849 H   0  0  0  0  0  0  0  0  0  0  0  0
   -2.5544   -0.1954    0.1719 H   0  0  0  0  0  0  0  0  0  0  0  0
   -5.4839   -1.8671    0.5611 H   0  0  0  0  0  0  0  0  0  0  0  0
   -3.8288   -0.3435   -3.1152 H   0  0  0  0  0  0  0  0  0  0  0  0
   -7.6241   -0.7885    0.0511 H   0  0  0  0  0  0  0  0  0  0  0  0
   -5.9754    0.7001   -3.6523 H   0  0  0  0  0  0  0  0  0  0  0  0
  1 10  1  0  0  0  0
  1 22  1  0  0  0  0
  1 23  1  0  0  0  0
  1 24  1  0  0  0  0
  2 11  2  0  0  0  0
  3  4  1  0  0  0  0
  3  5  1  0  0  0  0
  3  6  1  0  0  0  0
  3 21  1  0  0  0  0
  4 25  1  0  0  0  0
  4 26  1  0  0  0  0
  4 27  1  0  0  0  0
  5 28  1  0  0  0  0
  5 29  1  0  0  0  0
  5 30  1  0  0  0  0
  6 31  1  0  0  0  0
  7  8  1  0  0  0  0
  7  9  1  0  0  0  0
  7 10  1  0  0  0  0
  8 11  1  0  0  0  0
  8 12  2  0  0  0  0
  9 13  2  0  0  0  0
  9 32  1  0  0  0  0
 10 14  2  0  0  0  0
 11 15  1  0  0  0  0
 12 14  1  0  0  0  0
 12 33  1  0  0  0  0
 13 15  1  0  0  0  0
 13 16  1  0  0  0  0
 14 34  1  0  0  0  0
 15 35  1  0  0  0  0
 16 17  2  0  0  0  0
 16 18  1  0  0  0  0
 17 19  1  0  0  0  0
 17 36  1  0  0  0  0
 18 20  2  0  0  0  0
 18 37  1  0  0  0  0
 19 21  2  0  0  0  0
 19 38  1  0  0  0  0
 20 21  1  0  0  0  0
 20 39  1  0  0  0  0
M  END
>  <Mol_ID>
6903

>  <Formula>
C17H18N2O2

>  <MolWeight>
282.33702

>  <Cat>
E1069

>  <Name>
M2912

>  <Synonyms>
MSC2504877

>  <Target>
PARP,Wnt/beta-catenin

>  <Form>
Free base

>  <CAS>
1460286-21-8

>  <URL>
http://www.selleckchem.com/products/M2912.html

$$$$
