M435-1279
 OpenBabel08302521323D

 45 48  0  0  0  0  0  0  0  0999 V2000
   -1.1657   -0.8986    0.0286 C   0  0  0  0  0  0  0  0  0  0  0  0
   -0.6959    0.4105    0.0156 C   0  0  0  0  0  0  0  0  0  0  0  0
    0.7339    0.4301    0.0167 C   0  0  0  0  0  0  0  0  0  0  0  0
    1.2391   -0.8407    0.0229 C   0  0  0  0  0  0  0  0  0  0  0  0
    0.0888   -2.0615    0.0250 S   0  0  0  0  0  0  0  0  0  0  0  0
   -2.6081   -1.3006    0.0016 C   0  0  0  0  0  0  0  0  0  0  0  0
   -3.5034   -0.1125    0.3790 C   0  0  0  0  0  0  0  0  0  0  0  0
   -3.0733    1.1670   -0.3489 C   0  0  0  0  0  0  0  0  0  0  0  0
   -1.6403    1.5805    0.0256 C   0  0  0  0  0  0  0  0  0  0  0  0
    1.6804    1.5041    0.0007 C   0  0  0  0  0  0  0  0  0  0  0  0
    3.0172    1.2668    0.0264 C   0  0  0  0  0  0  0  0  0  0  0  0
    3.4987   -0.1603    0.0474 C   0  0  0  0  0  0  0  0  0  0  0  0
    2.5639   -1.1657    0.0271 N   0  0  0  0  0  0  0  0  0  0  0  0
    1.1055    2.7601   -0.0606 O   0  0  0  0  0  0  0  0  0  0  0  0
    3.9607    2.4297    0.0104 C   0  0  0  0  0  0  0  0  0  0  0  0
    4.7019   -0.4201    0.0765 O   0  0  0  0  0  0  0  0  0  0  0  0
    5.2866    2.1376    0.2628 N   0  0  0  0  0  0  0  0  0  0  0  0
    6.3633    3.0511    0.2614 C   0  0  0  0  0  0  0  0  0  0  0  0
    6.1870    4.4368    0.2901 C   0  0  0  0  0  0  0  0  0  0  0  0
    7.2795    5.2978    0.1799 C   0  0  0  0  0  0  0  0  0  0  0  0
    8.5653    4.7729    0.0539 C   0  0  0  0  0  0  0  0  0  0  0  0
    8.7709    3.3928    0.0829 C   0  0  0  0  0  0  0  0  0  0  0  0
    7.6671    2.5354    0.2016 C   0  0  0  0  0  0  0  0  0  0  0  0
    3.5104    3.5487   -0.2451 O   0  0  0  0  0  0  0  0  0  0  0  0
    9.9264    5.8767   -0.1534 S   0  0  0  0  0  0  0  0  0  0  0  0
   10.8774    5.5465    1.1876 N   0  0  0  0  0  0  0  0  0  0  0  0
   10.6853    5.4778   -1.3099 O   0  0  0  0  0  0  0  0  0  0  0  0
    9.4728    7.2398    0.0409 O   0  0  0  0  0  0  0  0  0  0  0  0
   -2.8612   -1.6370   -1.0116 H   0  0  0  0  0  0  0  0  0  0  0  0
   -2.8011   -2.1331    0.6869 H   0  0  0  0  0  0  0  0  0  0  0  0
   -4.5451   -0.3500    0.1362 H   0  0  0  0  0  0  0  0  0  0  0  0
   -3.4558    0.0563    1.4625 H   0  0  0  0  0  0  0  0  0  0  0  0
   -3.1343    1.0004   -1.4322 H   0  0  0  0  0  0  0  0  0  0  0  0
   -3.7642    1.9839   -0.1121 H   0  0  0  0  0  0  0  0  0  0  0  0
   -1.3097    2.3542   -0.6750 H   0  0  0  0  0  0  0  0  0  0  0  0
   -1.6419    2.0192    1.0313 H   0  0  0  0  0  0  0  0  0  0  0  0
    2.8587   -2.1324    0.0243 H   0  0  0  0  0  0  0  0  0  0  0  0
    1.8175    3.4176   -0.2291 H   0  0  0  0  0  0  0  0  0  0  0  0
    5.5348    1.1485    0.3273 H   0  0  0  0  0  0  0  0  0  0  0  0
    5.2041    4.8854    0.3979 H   0  0  0  0  0  0  0  0  0  0  0  0
    7.1093    6.3719    0.1789 H   0  0  0  0  0  0  0  0  0  0  0  0
    9.7736    2.9808   -0.0028 H   0  0  0  0  0  0  0  0  0  0  0  0
    7.8378    1.4603    0.2049 H   0  0  0  0  0  0  0  0  0  0  0  0
   11.8468    5.4642    0.8859 H   0  0  0  0  0  0  0  0  0  0  0  0
   10.7363    6.2688    1.8976 H   0  0  0  0  0  0  0  0  0  0  0  0
  1  2  2  0  0  0  0
  1  6  1  0  0  0  0
  2  3  1  0  0  0  0
  3  4  2  0  0  0  0
  3 10  1  0  0  0  0
  4  5  1  0  0  0  0
  5  1  1  0  0  0  0
  6  7  1  0  0  0  0
  6 29  1  0  0  0  0
  6 30  1  0  0  0  0
  7  8  1  0  0  0  0
  7 31  1  0  0  0  0
  7 32  1  0  0  0  0
  8  9  1  0  0  0  0
  8 33  1  0  0  0  0
  8 34  1  0  0  0  0
  9  2  1  0  0  0  0
  9 35  1  0  0  0  0
  9 36  1  0  0  0  0
 10 11  2  0  0  0  0
 10 14  1  0  0  0  0
 11 12  1  0  0  0  0
 11 15  1  0  0  0  0
 12 13  1  0  0  0  0
 12 16  2  0  0  0  0
 13  4  1  0  0  0  0
 13 37  1  0  0  0  0
 14 38  1  0  0  0  0
 15 17  1  0  0  0  0
 15 24  2  0  0  0  0
 17 18  1  0  0  0  0
 17 39  1  0  0  0  0
 18 19  2  0  0  0  0
 19 20  1  0  0  0  0
 19 40  1  0  0  0  0
 20 21  2  0  0  0  0
 20 41  1  0  0  0  0
 21 22  1  0  0  0  0
 21 25  1  0  0  0  0
 22 23  2  0  0  0  0
 22 42  1  0  0  0  0
 23 18  1  0  0  0  0
 23 43  1  0  0  0  0
 25 26  1  0  0  0  0
 25 27  2  0  0  0  0
 25 28  2  0  0  0  0
 26 44  1  0  0  0  0
 26 45  1  0  0  0  0
M  END
>  <Mol_ID>
6112

>  <Formula>
C18H17N3O5S2

>  <MolWeight>
419.47468

>  <Cat>
S9965

>  <Name>
M435-1279

>  <Target>
Wnt/beta-catenin

>  <Form>
free base

>  <CAS>
1359431-16-5

>  <URL>
http://www.selleckchem.com/products/m435-1279.html

$$$$
