M7583
 OpenBabel08302521343D

 59 62  0  0  0  0  0  0  0  0999 V2000
    2.2899    0.0037    0.3942 N   0  0  0  0  0  0  0  0  0  0  0  0
    2.8951   -1.1844    0.9905 C   0  0  0  0  0  0  0  0  0  0  0  0
   -2.0686    2.2213   -0.0015 N   0  0  0  0  0  0  0  0  0  0  0  0
    2.5734    6.4984    0.2816 O   0  0  0  0  0  0  0  0  0  0  0  0
    4.8913   -0.9421   -0.2260 F   0  0  0  0  0  0  0  0  0  0  0  0
    3.0672   -5.9942   -0.6592 C   0  0  0  0  0  0  0  0  0  0  0  0
    3.7451   -7.0288    0.1681 C   0  0  0  0  0  0  0  0  0  0  0  0
    2.4280   -6.3354   -1.6524 O   0  0  0  0  0  0  0  0  0  0  0  0
    3.2855   -8.2867    0.1784 C   0  0  0  0  0  0  0  0  0  0  0  0
    0.2118    1.2868    0.1537 C   0  0  0  0  0  0  0  0  0  0  0  0
    0.9003    0.0544    0.2413 C   0  0  0  0  0  0  0  0  0  0  0  0
   -1.1846    1.1380    0.0308 C   0  0  0  0  0  0  0  0  0  0  0  0
    0.2728   -1.1364    0.1768 N   0  0  0  0  0  0  0  0  0  0  0  0
   -1.8224   -0.0398   -0.0212 N   0  0  0  0  0  0  0  0  0  0  0  0
   -1.0551   -1.1280    0.0521 C   0  0  0  0  0  0  0  0  0  0  0  0
    0.8749    2.6299    0.2337 C   0  0  0  0  0  0  0  0  0  0  0  0
    2.1227    2.8845   -0.3610 C   0  0  0  0  0  0  0  0  0  0  0  0
    0.2836    3.7266    0.8969 C   0  0  0  0  0  0  0  0  0  0  0  0
    2.7564    4.1264   -0.2721 C   0  0  0  0  0  0  0  0  0  0  0  0
    0.8564    5.0070    0.8812 C   0  0  0  0  0  0  0  0  0  0  0  0
    2.0867    5.2133    0.2703 C   0  0  0  0  0  0  0  0  0  0  0  0
    3.9343   -1.8784    0.0813 C   0  0  0  0  0  0  0  0  0  0  0  0
    3.3964   -2.4145   -1.2472 C   0  0  0  0  0  0  0  0  0  0  0  0
    4.6314   -3.0105    0.8482 C   0  0  0  0  0  0  0  0  0  0  0  0
    2.5237   -3.6483   -1.0653 C   0  0  0  0  0  0  0  0  0  0  0  0
    3.7110   -4.2135    1.0265 C   0  0  0  0  0  0  0  0  0  0  0  0
    3.2112   -4.6681   -0.2701 N   0  0  0  0  0  0  0  0  0  0  0  0
    3.4079    6.9221   -0.7304 C   0  0  0  0  0  0  0  0  0  0  0  0
    3.3438    6.4764   -2.0556 C   0  0  0  0  0  0  0  0  0  0  0  0
    4.3394    7.8994   -0.3783 C   0  0  0  0  0  0  0  0  0  0  0  0
    4.2732    6.9258   -2.9933 C   0  0  0  0  0  0  0  0  0  0  0  0
    5.2429    8.3800   -1.3269 C   0  0  0  0  0  0  0  0  0  0  0  0
    5.2225    7.8780   -2.6285 C   0  0  0  0  0  0  0  0  0  0  0  0
    2.7724    0.2969   -0.4501 H   0  0  0  0  0  0  0  0  0  0  0  0
    3.4353   -0.8137    1.8710 H   0  0  0  0  0  0  0  0  0  0  0  0
    2.1547   -1.8910    1.3756 H   0  0  0  0  0  0  0  0  0  0  0  0
   -3.0066    1.8555   -0.1415 H   0  0  0  0  0  0  0  0  0  0  0  0
   -1.8070    2.9140   -0.6934 H   0  0  0  0  0  0  0  0  0  0  0  0
    4.6430   -6.7736    0.7111 H   0  0  0  0  0  0  0  0  0  0  0  0
    3.7856   -9.0589    0.7522 H   0  0  0  0  0  0  0  0  0  0  0  0
    2.4075   -8.5731   -0.3948 H   0  0  0  0  0  0  0  0  0  0  0  0
   -1.5558   -2.0850    0.0059 H   0  0  0  0  0  0  0  0  0  0  0  0
    2.6464    2.1282   -0.9314 H   0  0  0  0  0  0  0  0  0  0  0  0
   -0.6592    3.6104    1.4262 H   0  0  0  0  0  0  0  0  0  0  0  0
    3.7576    4.2255   -0.6813 H   0  0  0  0  0  0  0  0  0  0  0  0
    0.3319    5.8374    1.3464 H   0  0  0  0  0  0  0  0  0  0  0  0
    2.8580   -1.6381   -1.8009 H   0  0  0  0  0  0  0  0  0  0  0  0
    4.2547   -2.6810   -1.8803 H   0  0  0  0  0  0  0  0  0  0  0  0
    5.5299   -3.3177    0.2966 H   0  0  0  0  0  0  0  0  0  0  0  0
    4.9842   -2.6528    1.8223 H   0  0  0  0  0  0  0  0  0  0  0  0
    1.5897   -3.4036   -0.5509 H   0  0  0  0  0  0  0  0  0  0  0  0
    2.2540   -4.0385   -2.0527 H   0  0  0  0  0  0  0  0  0  0  0  0
    2.8340   -3.9571    1.6371 H   0  0  0  0  0  0  0  0  0  0  0  0
    4.2367   -4.9915    1.5748 H   0  0  0  0  0  0  0  0  0  0  0  0
    2.5922    5.7581   -2.3709 H   0  0  0  0  0  0  0  0  0  0  0  0
    4.3649    8.2824    0.6380 H   0  0  0  0  0  0  0  0  0  0  0  0
    4.2536    6.5323   -4.0063 H   0  0  0  0  0  0  0  0  0  0  0  0
    5.9671    9.1409   -1.0493 H   0  0  0  0  0  0  0  0  0  0  0  0
    5.9403    8.2358   -3.3615 H   0  0  0  0  0  0  0  0  0  0  0  0
  1  2  1  0  0  0  0
  1 11  1  0  0  0  0
  1 34  1  0  0  0  0
  2 22  1  0  0  0  0
  2 35  1  0  0  0  0
  2 36  1  0  0  0  0
  3 12  1  0  0  0  0
  3 37  1  0  0  0  0
  3 38  1  0  0  0  0
  4 21  1  0  0  0  0
  4 28  1  0  0  0  0
  5 22  1  0  0  0  0
  6  7  1  0  0  0  0
  6  8  2  0  0  0  0
  6 27  1  0  0  0  0
  7  9  2  0  0  0  0
  7 39  1  0  0  0  0
  9 40  1  0  0  0  0
  9 41  1  0  0  0  0
 10 11  1  0  0  0  0
 10 12  2  0  0  0  0
 10 16  1  0  0  0  0
 11 13  2  0  0  0  0
 12 14  1  0  0  0  0
 13 15  1  0  0  0  0
 14 15  2  0  0  0  0
 15 42  1  0  0  0  0
 16 17  2  0  0  0  0
 16 18  1  0  0  0  0
 17 19  1  0  0  0  0
 17 43  1  0  0  0  0
 18 20  2  0  0  0  0
 18 44  1  0  0  0  0
 19 21  2  0  0  0  0
 19 45  1  0  0  0  0
 20 21  1  0  0  0  0
 20 46  1  0  0  0  0
 22 23  1  0  0  0  0
 22 24  1  0  0  0  0
 23 25  1  0  0  0  0
 23 47  1  0  0  0  0
 23 48  1  0  0  0  0
 24 26  1  0  0  0  0
 24 49  1  0  0  0  0
 24 50  1  0  0  0  0
 25 27  1  0  0  0  0
 25 51  1  0  0  0  0
 25 52  1  0  0  0  0
 26 27  1  0  0  0  0
 26 53  1  0  0  0  0
 26 54  1  0  0  0  0
 28 29  2  0  0  0  0
 28 30  1  0  0  0  0
 29 31  1  0  0  0  0
 29 55  1  0  0  0  0
 30 32  2  0  0  0  0
 30 56  1  0  0  0  0
 31 33  2  0  0  0  0
 31 57  1  0  0  0  0
 32 33  1  0  0  0  0
 32 58  1  0  0  0  0
 33 59  1  0  0  0  0
M  END
>  <Mol_ID>
6512

>  <Formula>
C25H26FN5O2

>  <MolWeight>
447.5046432

>  <Cat>
E2838

>  <Name>
M7583

>  <Target>
BTK

>  <Form>
free base

>  <CAS>
1415823-49-2

>  <URL>
http://www.selleckchem.com/products/tl-895.html

$$$$
