MAC-545496
 OpenBabel08302521243D

 46 48  0  0  0  0  0  0  0  0999 V2000
    1.4464   -0.2489    0.0716 C   0  0  0  0  0  0  0  0  0  0  0  0
    0.6189   -1.3884   -0.0099 C   0  0  0  0  0  0  0  0  0  0  0  0
   -0.7593   -1.1210   -0.1377 C   0  0  0  0  0  0  0  0  0  0  0  0
   -1.2812    0.1758   -0.1005 C   0  0  0  0  0  0  0  0  0  0  0  0
   -0.4342    1.2707    0.0640 C   0  0  0  0  0  0  0  0  0  0  0  0
    0.9351    1.0574    0.1796 C   0  0  0  0  0  0  0  0  0  0  0  0
    2.8905   -0.3372    0.0769 N   0  3  0  0  0  0  0  0  0  0  0  0
    3.4573   -0.4639   -1.0171 O   0  0  0  0  0  0  0  0  0  0  0  0
    3.4675   -0.1464    1.1608 O   0  5  0  0  0  0  0  0  0  0  0  0
    1.0638   -2.6972    0.1956 N   0  0  0  0  0  0  0  0  0  0  0  0
   -1.0455    2.6113    0.1998 C   0  0  0  0  0  0  0  0  0  0  0  0
   -0.3383    3.7526   -0.1532 N   0  0  0  0  0  0  0  0  0  0  0  0
   -2.1855    2.7066    0.6564 O   0  0  0  0  0  0  0  0  0  0  0  0
    0.5846    4.1009   -1.1343 C   0  0  0  0  0  0  0  0  0  0  0  0
    1.0709    5.3827   -1.0590 N   0  0  0  0  0  0  0  0  0  0  0  0
    1.1828    3.1447   -2.3680 S   0  0  0  0  0  0  0  0  0  0  0  0
    0.5186    6.4682   -0.3650 C   0  0  0  0  0  0  0  0  0  0  0  0
   -0.5929    6.2792    0.3808 N   0  0  0  0  0  0  0  0  0  0  0  0
   -1.1552    7.3677    0.9490 C   0  0  0  0  0  0  0  0  0  0  0  0
   -0.6572    8.6491    0.8018 C   0  0  0  0  0  0  0  0  0  0  0  0
    0.4935    8.8218    0.0427 C   0  0  0  0  0  0  0  0  0  0  0  0
    1.0982    7.7148   -0.5455 C   0  0  0  0  0  0  0  0  0  0  0  0
    0.1099   -3.6510    0.7944 C   0  0  0  0  0  0  0  0  0  0  0  0
    0.8728   -4.7502    1.5265 C   0  0  0  0  0  0  0  0  0  0  0  0
    1.9110   -5.4130    0.6261 C   0  0  0  0  0  0  0  0  0  0  0  0
    2.8038   -4.3710   -0.0468 C   0  0  0  0  0  0  0  0  0  0  0  0
    1.9602   -3.3265   -0.7856 C   0  0  0  0  0  0  0  0  0  0  0  0
   -1.4752   -1.9334   -0.2431 H   0  0  0  0  0  0  0  0  0  0  0  0
   -2.3584    0.3205   -0.1618 H   0  0  0  0  0  0  0  0  0  0  0  0
    1.6169    1.8851    0.3571 H   0  0  0  0  0  0  0  0  0  0  0  0
   -0.8281    4.5771    0.1957 H   0  0  0  0  0  0  0  0  0  0  0  0
    1.8345    5.5792   -1.6927 H   0  0  0  0  0  0  0  0  0  0  0  0
   -2.0505    7.1765    1.5355 H   0  0  0  0  0  0  0  0  0  0  0  0
   -1.1577    9.4934    1.2632 H   0  0  0  0  0  0  0  0  0  0  0  0
    0.9116    9.8144   -0.1025 H   0  0  0  0  0  0  0  0  0  0  0  0
    1.9874    7.8426   -1.1531 H   0  0  0  0  0  0  0  0  0  0  0  0
   -0.5273   -4.0875    0.0140 H   0  0  0  0  0  0  0  0  0  0  0  0
   -0.5398   -3.1591    1.5292 H   0  0  0  0  0  0  0  0  0  0  0  0
    0.1663   -5.5003    1.8993 H   0  0  0  0  0  0  0  0  0  0  0  0
    1.3748   -4.3171    2.4006 H   0  0  0  0  0  0  0  0  0  0  0  0
    2.5212   -6.1050    1.2164 H   0  0  0  0  0  0  0  0  0  0  0  0
    1.4007   -6.0055   -0.1428 H   0  0  0  0  0  0  0  0  0  0  0  0
    3.4149   -3.8724    0.7166 H   0  0  0  0  0  0  0  0  0  0  0  0
    3.4905   -4.8631   -0.7433 H   0  0  0  0  0  0  0  0  0  0  0  0
    2.6259   -2.6246   -1.2841 H   0  0  0  0  0  0  0  0  0  0  0  0
    1.3695   -3.8058   -1.5767 H   0  0  0  0  0  0  0  0  0  0  0  0
  1  2  2  0  0  0  0
  1  7  1  0  0  0  0
  2  3  1  0  0  0  0
  2 10  1  0  0  0  0
  3  4  2  0  0  0  0
  3 28  1  0  0  0  0
  4  5  1  0  0  0  0
  4 29  1  0  0  0  0
  5  6  2  0  0  0  0
  5 11  1  0  0  0  0
  6  1  1  0  0  0  0
  6 30  1  0  0  0  0
  7  8  2  0  0  0  0
  7  9  1  0  0  0  0
 10 23  1  0  0  0  0
 11 12  1  0  0  0  0
 11 13  2  0  0  0  0
 12 14  1  0  0  0  0
 12 31  1  0  0  0  0
 14 15  1  0  0  0  0
 14 16  2  0  0  0  0
 15 17  1  0  0  0  0
 15 32  1  0  0  0  0
 17 18  2  0  0  0  0
 18 19  1  0  0  0  0
 19 20  2  0  0  0  0
 19 33  1  0  0  0  0
 20 21  1  0  0  0  0
 20 34  1  0  0  0  0
 21 22  2  0  0  0  0
 21 35  1  0  0  0  0
 22 17  1  0  0  0  0
 22 36  1  0  0  0  0
 23 24  1  0  0  0  0
 23 37  1  0  0  0  0
 23 38  1  0  0  0  0
 24 25  1  0  0  0  0
 24 39  1  0  0  0  0
 24 40  1  0  0  0  0
 25 26  1  0  0  0  0
 25 41  1  0  0  0  0
 25 42  1  0  0  0  0
 26 27  1  0  0  0  0
 26 43  1  0  0  0  0
 26 44  1  0  0  0  0
 27 10  1  0  0  0  0
 27 45  1  0  0  0  0
 27 46  1  0  0  0  0
M  CHG  2   7   1   9  -1
M  END
>  <Mol_ID>
4921

>  <Formula>
C18H18ClN5O3S

>  <MolWeight>
419.88522

>  <Cat>
S6771

>  <Name>
MAC-545496

>  <Synonyms>
N/A

>  <Target>
Anti-infection

>  <Form>
Free Base

>  <CAS>
838810-96-1

>  <URL>
http://www.selleckchem.com/products/mac-545496.html

$$$$
