Madrasin
 OpenBabel08302521453D

 40 42  0  0  0  0  0  0  0  0999 V2000
   -2.4426   -0.6672   -0.0181 C   0  0  0  0  0  0  0  0  0  0  0  0
   -2.4548    0.7194   -0.0712 C   0  0  0  0  0  0  0  0  0  0  0  0
   -1.2492    1.4238   -0.0352 C   0  0  0  0  0  0  0  0  0  0  0  0
   -0.0114    0.7396    0.0430 C   0  0  0  0  0  0  0  0  0  0  0  0
   -0.0071   -0.6514    0.0852 C   0  0  0  0  0  0  0  0  0  0  0  0
   -1.2174   -1.3331    0.0605 C   0  0  0  0  0  0  0  0  0  0  0  0
    1.2597    1.3323    0.0784 C   0  0  0  0  0  0  0  0  0  0  0  0
    2.4080    0.6137    0.1312 N   0  0  0  0  0  0  0  0  0  0  0  0
    2.3025   -0.7180    0.1297 C   0  0  0  0  0  0  0  0  0  0  0  0
    1.1197   -1.3623    0.1300 N   0  0  0  0  0  0  0  0  0  0  0  0
    4.7339   -3.1752   -0.8718 N   0  0  0  0  0  0  0  0  0  0  0  0
    3.5944   -2.7295   -0.4338 C   0  0  0  0  0  0  0  0  0  0  0  0
    3.4776   -1.4643    0.0702 N   0  0  0  0  0  0  0  0  0  0  0  0
    4.7806   -4.4454   -1.4204 C   0  0  0  0  0  0  0  0  0  0  0  0
    3.4825   -5.1493   -1.7347 C   0  0  0  0  0  0  0  0  0  0  0  0
    2.3565   -4.6142   -1.2329 C   0  0  0  0  0  0  0  0  0  0  0  0
    2.4535   -3.4706   -0.4915 N   0  0  0  0  0  0  0  0  0  0  0  0
    5.8404   -4.9947   -1.7101 O   0  0  0  0  0  0  0  0  0  0  0  0
    3.5728   -6.3909   -2.5610 C   0  0  0  0  0  0  0  0  0  0  0  0
    0.9776   -5.1593   -1.4697 C   0  0  0  0  0  0  0  0  0  0  0  0
   -3.5374   -1.4850   -0.0323 O   0  0  0  0  0  0  0  0  0  0  0  0
   -4.8083   -0.8559   -0.1409 C   0  0  0  0  0  0  0  0  0  0  0  0
    1.4248    2.8251    0.0539 C   0  0  0  0  0  0  0  0  0  0  0  0
   -3.3781    1.2857   -0.1382 H   0  0  0  0  0  0  0  0  0  0  0  0
   -1.2827    2.5098   -0.0748 H   0  0  0  0  0  0  0  0  0  0  0  0
   -1.2124   -2.4200    0.0995 H   0  0  0  0  0  0  0  0  0  0  0  0
    4.2936   -0.8764   -0.0068 H   0  0  0  0  0  0  0  0  0  0  0  0
    1.5883   -2.9959   -0.2348 H   0  0  0  0  0  0  0  0  0  0  0  0
    4.0283   -6.1713   -3.5319 H   0  0  0  0  0  0  0  0  0  0  0  0
    4.1771   -7.1481   -2.0518 H   0  0  0  0  0  0  0  0  0  0  0  0
    2.5921   -6.8355   -2.7559 H   0  0  0  0  0  0  0  0  0  0  0  0
    0.7593   -5.2070   -2.5417 H   0  0  0  0  0  0  0  0  0  0  0  0
    0.8718   -6.1555   -1.0312 H   0  0  0  0  0  0  0  0  0  0  0  0
    0.2105   -4.5192   -1.0180 H   0  0  0  0  0  0  0  0  0  0  0  0
   -4.9822   -0.1650    0.6904 H   0  0  0  0  0  0  0  0  0  0  0  0
   -4.9088   -0.3481   -1.1057 H   0  0  0  0  0  0  0  0  0  0  0  0
   -5.5744   -1.6352   -0.0894 H   0  0  0  0  0  0  0  0  0  0  0  0
    0.9397    3.2498   -0.8310 H   0  0  0  0  0  0  0  0  0  0  0  0
    0.9892    3.2656    0.9559 H   0  0  0  0  0  0  0  0  0  0  0  0
    2.4830    3.1010    0.0171 H   0  0  0  0  0  0  0  0  0  0  0  0
  1  2  2  0  0  0  0
  1 21  1  0  0  0  0
  2  3  1  0  0  0  0
  2 24  1  0  0  0  0
  3  4  2  0  0  0  0
  3 25  1  0  0  0  0
  4  5  1  0  0  0  0
  4  7  1  0  0  0  0
  5  6  2  0  0  0  0
  6  1  1  0  0  0  0
  6 26  1  0  0  0  0
  7  8  2  0  0  0  0
  7 23  1  0  0  0  0
  8  9  1  0  0  0  0
  9 10  2  0  0  0  0
 10  5  1  0  0  0  0
 11 12  2  0  0  0  0
 11 14  1  0  0  0  0
 12 13  1  0  0  0  0
 13  9  1  0  0  0  0
 13 27  1  0  0  0  0
 14 15  1  0  0  0  0
 14 18  2  0  0  0  0
 15 16  2  0  0  0  0
 15 19  1  0  0  0  0
 16 17  1  0  0  0  0
 16 20  1  0  0  0  0
 17 12  1  0  0  0  0
 17 28  1  0  0  0  0
 19 29  1  0  0  0  0
 19 30  1  0  0  0  0
 19 31  1  0  0  0  0
 20 32  1  0  0  0  0
 20 33  1  0  0  0  0
 20 34  1  0  0  0  0
 21 22  1  0  0  0  0
 22 35  1  0  0  0  0
 22 36  1  0  0  0  0
 22 37  1  0  0  0  0
 23 38  1  0  0  0  0
 23 39  1  0  0  0  0
 23 40  1  0  0  0  0
M  END
>  <Mol_ID>
9354

>  <Formula>
C16H17N5O2

>  <MolWeight>
311.33848

>  <Cat>
S0280

>  <Name>
Madrasin

>  <Synonyms>
DDD00107587

>  <Target>
DNA/RNA Synthesis

>  <Form>
free base

>  <CAS>
374913-63-0

>  <URL>
http://www.selleckchem.com/products/madrasin.html

$$$$
