Magnolol.cdx
 OpenBabel08302521363D

 38 39  0  0  0  0  0  0  0  0999 V2000
   -1.2374   -1.2536    0.0069 C   0  0  0  0  0  0  0  0  0  0  0  0
    0.1522   -1.2941    0.0647 C   0  0  0  0  0  0  0  0  0  0  0  0
    0.8913   -0.1037    0.0960 C   0  0  0  0  0  0  0  0  0  0  0  0
    0.2726    1.1648    0.0344 C   0  0  0  0  0  0  0  0  0  0  0  0
   -1.1348    1.1563   -0.0552 C   0  0  0  0  0  0  0  0  0  0  0  0
   -1.8962   -0.0253   -0.0285 C   0  0  0  0  0  0  0  0  0  0  0  0
    1.0222    2.4607    0.0364 C   0  0  0  0  0  0  0  0  0  0  0  0
    2.2845    2.5530   -0.5854 C   0  0  0  0  0  0  0  0  0  0  0  0
    3.0524    3.7305   -0.5877 C   0  0  0  0  0  0  0  0  0  0  0  0
    2.5171    4.8882   -0.0251 C   0  0  0  0  0  0  0  0  0  0  0  0
    1.2610    4.8520    0.5720 C   0  0  0  0  0  0  0  0  0  0  0  0
    0.5359    3.6532    0.6169 C   0  0  0  0  0  0  0  0  0  0  0  0
   -3.4032    0.0481   -0.0506 C   0  0  0  0  0  0  0  0  0  0  0  0
   -3.9544    0.0508   -1.4455 C   0  0  0  0  0  0  0  0  0  0  0  0
   -4.7993   -0.8747   -1.9219 C   0  0  0  0  0  0  0  0  0  0  0  0
    2.2559   -0.2115    0.2031 O   0  0  0  0  0  0  0  0  0  0  0  0
    4.4268    3.7301   -1.2080 C   0  0  0  0  0  0  0  0  0  0  0  0
    4.3901    4.0598   -2.6719 C   0  0  0  0  0  0  0  0  0  0  0  0
    5.0239    5.0993   -3.2248 C   0  0  0  0  0  0  0  0  0  0  0  0
   -0.6748    3.6719    1.2637 O   0  0  0  0  0  0  0  0  0  0  0  0
   -1.8030   -2.1818   -0.0026 H   0  0  0  0  0  0  0  0  0  0  0  0
    0.6456   -2.2605    0.1023 H   0  0  0  0  0  0  0  0  0  0  0  0
   -1.6717    2.0986   -0.1423 H   0  0  0  0  0  0  0  0  0  0  0  0
    2.7009    1.6804   -1.0843 H   0  0  0  0  0  0  0  0  0  0  0  0
    3.0784    5.8190   -0.0432 H   0  0  0  0  0  0  0  0  0  0  0  0
    0.8660    5.7619    1.0136 H   0  0  0  0  0  0  0  0  0  0  0  0
   -3.8130   -0.7806    0.5405 H   0  0  0  0  0  0  0  0  0  0  0  0
   -3.7301    0.9620    0.4629 H   0  0  0  0  0  0  0  0  0  0  0  0
   -3.6455    0.8680   -2.0921 H   0  0  0  0  0  0  0  0  0  0  0  0
   -5.1662   -0.8145   -2.9427 H   0  0  0  0  0  0  0  0  0  0  0  0
   -5.1368   -1.7055   -1.3120 H   0  0  0  0  0  0  0  0  0  0  0  0
    2.5113   -1.1373    0.0672 H   0  0  0  0  0  0  0  0  0  0  0  0
    5.0723    4.4268   -0.6580 H   0  0  0  0  0  0  0  0  0  0  0  0
    4.8859    2.7412   -1.0753 H   0  0  0  0  0  0  0  0  0  0  0  0
    3.8165    3.3881   -3.3081 H   0  0  0  0  0  0  0  0  0  0  0  0
    4.9612    5.2808   -4.2952 H   0  0  0  0  0  0  0  0  0  0  0  0
    5.6121    5.7920   -2.6306 H   0  0  0  0  0  0  0  0  0  0  0  0
   -0.9182    4.5919    1.4517 H   0  0  0  0  0  0  0  0  0  0  0  0
  1  2  2  0  0  0  0
  1 21  1  0  0  0  0
  2  3  1  0  0  0  0
  2 22  1  0  0  0  0
  3  4  2  0  0  0  0
  3 16  1  0  0  0  0
  4  5  1  0  0  0  0
  4  7  1  0  0  0  0
  5  6  2  0  0  0  0
  5 23  1  0  0  0  0
  6  1  1  0  0  0  0
  6 13  1  0  0  0  0
  7  8  2  0  0  0  0
  8  9  1  0  0  0  0
  8 24  1  0  0  0  0
  9 10  2  0  0  0  0
  9 17  1  0  0  0  0
 10 11  1  0  0  0  0
 10 25  1  0  0  0  0
 11 12  2  0  0  0  0
 11 26  1  0  0  0  0
 12  7  1  0  0  0  0
 12 20  1  0  0  0  0
 13 14  1  0  0  0  0
 13 27  1  0  0  0  0
 13 28  1  0  0  0  0
 14 15  2  0  0  0  0
 14 29  1  0  0  0  0
 15 30  1  0  0  0  0
 15 31  1  0  0  0  0
 16 32  1  0  0  0  0
 17 18  1  0  0  0  0
 17 33  1  0  0  0  0
 17 34  1  0  0  0  0
 18 19  2  0  0  0  0
 18 35  1  0  0  0  0
 19 36  1  0  0  0  0
 19 37  1  0  0  0  0
 20 38  1  0  0  0  0
M  END
>  <Mol_ID>
702

>  <Formula>
C18H18O2

>  <MolWeight>
266.33432

>  <Cat>
S2321

>  <Name>
Magnolol

>  <Synonyms>
NSC 293099

>  <Target>
Fungal,NF-¦ÊB

>  <Form>
free base

>  <CAS>
528-43-8

>  <URL>
http://selleckchem.com/products/Magnolol(2,2-Bichavicol).html

$$$$
