Magnesium chloride
 OpenBabel08302521312D

  0  0  0  0  0  0  0  0  0  0999 V2000
M  END
>  <Mol_ID>
5961

>  <Formula>
Cl2Mg

>  <MolWeight>
95.211

>  <Cat>
E0183

>  <Name>
Magnesium chloride

>  <Synonyms>
N/A

>  <Target>
Others

>  <Form>
Free Base

>  <CAS>
7786-30-3

>  <URL>
http://www.selleckchem.com/products/magnesium-chloride.html

$$$$
