MAK683
 OpenBabel08302521343D

 45 49  0  0  0  0  0  0  0  0999 V2000
    0.2494    1.1770    2.1357 F   0  0  0  0  0  0  0  0  0  0  0  0
    2.0035   -0.9265   -2.5691 O   0  0  0  0  0  0  0  0  0  0  0  0
    2.0056    3.5573    0.5315 N   0  0  0  0  0  0  0  0  0  0  0  0
    2.3295    5.7939   -0.2321 N   0  0  0  0  0  0  0  0  0  0  0  0
    3.7762    4.8824    1.3583 N   0  0  0  0  0  0  0  0  0  0  0  0
    2.4089    7.7652   -1.1856 N   0  0  0  0  0  0  0  0  0  0  0  0
    1.3543    7.0648   -1.7280 N   0  0  0  0  0  0  0  0  0  0  0  0
    6.7181    9.8377    0.0092 N   0  0  0  0  0  0  0  0  0  0  0  0
    2.2402    0.5674   -0.8156 C   0  0  0  0  0  0  0  0  0  0  0  0
    3.4311    0.8341   -1.6544 C   0  0  0  0  0  0  0  0  0  0  0  0
    1.8436    1.1551    0.3836 C   0  0  0  0  0  0  0  0  0  0  0  0
    1.4956   -0.4512   -1.3929 C   0  0  0  0  0  0  0  0  0  0  0  0
    3.1991   -0.1510   -2.8037 C   0  0  0  0  0  0  0  0  0  0  0  0
    2.5826    2.3085    1.0090 C   0  0  0  0  0  0  0  0  0  0  0  0
    0.6778    0.6529    0.9779 C   0  0  0  0  0  0  0  0  0  0  0  0
    0.3411   -0.9395   -0.8141 C   0  0  0  0  0  0  0  0  0  0  0  0
    2.7269    4.7331    0.5943 C   0  0  0  0  0  0  0  0  0  0  0  0
   -0.0660   -0.3826    0.3970 C   0  0  0  0  0  0  0  0  0  0  0  0
    2.9886    6.9955   -0.2889 C   0  0  0  0  0  0  0  0  0  0  0  0
    4.1055    7.1588    0.5633 C   0  0  0  0  0  0  0  0  0  0  0  0
    4.8635    8.4185    0.6487 C   0  0  0  0  0  0  0  0  0  0  0  0
    4.4247    6.1077    1.3443 C   0  0  0  0  0  0  0  0  0  0  0  0
    1.3239    5.8868   -1.1492 C   0  0  0  0  0  0  0  0  0  0  0  0
    6.0541    8.6527   -0.0528 C   0  0  0  0  0  0  0  0  0  0  0  0
    4.3270    9.4750    1.3966 C   0  0  0  0  0  0  0  0  0  0  0  0
    6.6413    7.6304   -0.9832 C   0  0  0  0  0  0  0  0  0  0  0  0
    4.9783   10.7017    1.4350 C   0  0  0  0  0  0  0  0  0  0  0  0
    6.1647   10.8302    0.7385 C   0  0  0  0  0  0  0  0  0  0  0  0
    1.0480    3.6586    0.8630 H   0  0  0  0  0  0  0  0  0  0  0  0
    3.4685    1.8658   -2.0147 H   0  0  0  0  0  0  0  0  0  0  0  0
    4.3577    0.5965   -1.1222 H   0  0  0  0  0  0  0  0  0  0  0  0
    3.0877    0.3757   -3.7583 H   0  0  0  0  0  0  0  0  0  0  0  0
    4.0420   -0.8446   -2.9040 H   0  0  0  0  0  0  0  0  0  0  0  0
    2.5348    2.2538    2.1027 H   0  0  0  0  0  0  0  0  0  0  0  0
    3.6420    2.2488    0.7332 H   0  0  0  0  0  0  0  0  0  0  0  0
   -0.2248   -1.7344   -1.2885 H   0  0  0  0  0  0  0  0  0  0  0  0
   -0.9608   -0.7442    0.8942 H   0  0  0  0  0  0  0  0  0  0  0  0
    5.2518    6.1816    2.0490 H   0  0  0  0  0  0  0  0  0  0  0  0
    0.6238    5.0899   -1.3634 H   0  0  0  0  0  0  0  0  0  0  0  0
    3.3800    9.3567    1.9191 H   0  0  0  0  0  0  0  0  0  0  0  0
    6.9106    6.7180   -0.4441 H   0  0  0  0  0  0  0  0  0  0  0  0
    5.9288    7.3907   -1.7793 H   0  0  0  0  0  0  0  0  0  0  0  0
    7.5479    8.0186   -1.4604 H   0  0  0  0  0  0  0  0  0  0  0  0
    4.5591   11.5404    1.9783 H   0  0  0  0  0  0  0  0  0  0  0  0
    6.7120   11.7684    0.7333 H   0  0  0  0  0  0  0  0  0  0  0  0
  1 15  1  0  0  0  0
  2 12  1  0  0  0  0
  2 13  1  0  0  0  0
  3 14  1  0  0  0  0
  3 17  1  0  0  0  0
  3 29  1  0  0  0  0
  4 17  1  0  0  0  0
  4 19  1  0  0  0  0
  4 23  1  0  0  0  0
  5 17  2  0  0  0  0
  5 22  1  0  0  0  0
  6  7  1  0  0  0  0
  6 19  2  0  0  0  0
  7 23  2  0  0  0  0
  8 24  2  0  0  0  0
  8 28  1  0  0  0  0
  9 10  1  0  0  0  0
  9 11  1  0  0  0  0
  9 12  2  0  0  0  0
 10 13  1  0  0  0  0
 10 30  1  0  0  0  0
 10 31  1  0  0  0  0
 11 14  1  0  0  0  0
 11 15  2  0  0  0  0
 12 16  1  0  0  0  0
 13 32  1  0  0  0  0
 13 33  1  0  0  0  0
 14 34  1  0  0  0  0
 14 35  1  0  0  0  0
 15 18  1  0  0  0  0
 16 18  2  0  0  0  0
 16 36  1  0  0  0  0
 18 37  1  0  0  0  0
 19 20  1  0  0  0  0
 20 21  1  0  0  0  0
 20 22  2  0  0  0  0
 21 24  1  0  0  0  0
 21 25  2  0  0  0  0
 22 38  1  0  0  0  0
 23 39  1  0  0  0  0
 24 26  1  0  0  0  0
 25 27  1  0  0  0  0
 25 40  1  0  0  0  0
 26 41  1  0  0  0  0
 26 42  1  0  0  0  0
 26 43  1  0  0  0  0
 27 28  2  0  0  0  0
 27 44  1  0  0  0  0
 28 45  1  0  0  0  0
M  END
>  <Mol_ID>
6546

>  <Formula>
C20H17FN6O

>  <MolWeight>
376.3869832

>  <Cat>
S8983

>  <Name>
MAK683

>  <Synonyms>
EED inhibitor-1

>  <Target>
Histone Methyltransferase

>  <Form>
free base

>  <CAS>
1951408-58-4

>  <URL>
http://www.selleckchem.com/products/mak683.html

$$$$
