Maleic acid
 OpenBabel08302521293D

 12 11  0  0  0  0  0  0  0  0999 V2000
    1.2672   -0.2112   -0.5886 O   0  0  0  0  0  0  0  0  0  0  0  0
    0.1446   -1.0804    1.4419 O   0  0  0  0  0  0  0  0  0  0  0  0
    0.8738    1.2795   -2.2010 O   0  0  0  0  0  0  0  0  0  0  0  0
   -1.8442   -0.6163    2.3742 O   0  0  0  0  0  0  0  0  0  0  0  0
   -0.9690    0.4056   -0.9846 C   0  0  0  0  0  0  0  0  0  0  0  0
   -1.5781   -0.0631    0.1145 C   0  0  0  0  0  0  0  0  0  0  0  0
    0.4491    0.5637   -1.3141 C   0  0  0  0  0  0  0  0  0  0  0  0
   -1.0978   -0.5869    1.4056 C   0  0  0  0  0  0  0  0  0  0  0  0
    2.1557    0.0127   -0.9546 H   0  0  0  0  0  0  0  0  0  0  0  0
    0.6466   -0.9628    0.6067 H   0  0  0  0  0  0  0  0  0  0  0  0
   -1.6049    0.7940   -1.7792 H   0  0  0  0  0  0  0  0  0  0  0  0
   -2.6673   -0.0138    0.1198 H   0  0  0  0  0  0  0  0  0  0  0  0
  1  7  1  0  0  0  0
  1  9  1  0  0  0  0
  2  8  1  0  0  0  0
  2 10  1  0  0  0  0
  3  7  2  0  0  0  0
  4  8  2  0  0  0  0
  5  6  2  0  0  0  0
  5  7  1  0  0  0  0
  5 11  1  0  0  0  0
  6  8  1  0  0  0  0
  6 12  1  0  0  0  0
M  END
>  <Mol_ID>
5440

>  <Formula>
C4H4O4

>  <MolWeight>
116.07216

>  <Cat>
S3086

>  <Name>
Maleic acid

>  <Synonyms>
N/A

>  <Target>
Decarboxylase

>  <Form>
Free Base

>  <CAS>
110-16-7

>  <URL>
https://www.selleckchem.com/products/maleic-acid.html

$$$$
