Maleimide
 OpenBabel08302521293D

 10 10  0  0  0  0  0  0  0  0999 V2000
   -2.2701    0.4675    0.0022 O   0  0  0  0  0  0  0  0  0  0  0  0
    2.2691    0.4728   -0.0014 O   0  0  0  0  0  0  0  0  0  0  0  0
   -0.0011    0.8719   -0.0238 N   0  0  0  0  0  0  0  0  0  0  0  0
   -1.1107    0.1051   -0.0079 C   0  0  0  0  0  0  0  0  0  0  0  0
    1.1104    0.1076   -0.0113 C   0  0  0  0  0  0  0  0  0  0  0  0
   -0.6660   -1.2921   -0.0003 C   0  0  0  0  0  0  0  0  0  0  0  0
    0.6689   -1.2907   -0.0043 C   0  0  0  0  0  0  0  0  0  0  0  0
   -0.0022    1.8775   -0.0242 H   0  0  0  0  0  0  0  0  0  0  0  0
   -1.3390   -2.1309    0.0086 H   0  0  0  0  0  0  0  0  0  0  0  0
    1.3440   -2.1278   -0.0001 H   0  0  0  0  0  0  0  0  0  0  0  0
  1  4  2  0  0  0  0
  2  5  2  0  0  0  0
  3  4  1  0  0  0  0
  3  5  1  0  0  0  0
  3  8  1  0  0  0  0
  4  6  1  0  0  0  0
  5  7  1  0  0  0  0
  6  7  2  0  0  0  0
  6  9  1  0  0  0  0
  7 10  1  0  0  0  0
M  END
>  <Mol_ID>
5465

>  <Formula>
C4H3NO2

>  <MolWeight>
97.07212

>  <Cat>
S3141

>  <Name>
Maleimide

>  <Synonyms>
N/A

>  <Target>
ADC Linker,Dyes

>  <Form>
Free Base

>  <CAS>
541-59-3

>  <URL>
https://www.selleckchem.com/products/maleimide.html

$$$$
