Malonic acid
 OpenBabel08302521293D

 11 10  0  0  0  0  0  0  0  0999 V2000
    0.7091    1.9638   -0.9961 O   0  0  0  0  0  0  0  0  0  0  0  0
   -0.8806   -1.8312   -1.2048 O   0  0  0  0  0  0  0  0  0  0  0  0
    1.0531   -0.2239   -1.2312 O   0  0  0  0  0  0  0  0  0  0  0  0
   -2.9686   -1.0474   -1.0209 O   0  0  0  0  0  0  0  0  0  0  0  0
   -1.2209    0.5795   -1.0471 C   0  0  0  0  0  0  0  0  0  0  0  0
    0.2654    0.7016   -1.1002 C   0  0  0  0  0  0  0  0  0  0  0  0
   -1.7634   -0.8242   -1.0870 C   0  0  0  0  0  0  0  0  0  0  0  0
    1.6874    1.8899   -1.0479 H   0  0  0  0  0  0  0  0  0  0  0  0
    0.0685   -1.5637   -1.2589 H   0  0  0  0  0  0  0  0  0  0  0  0
   -1.5644    1.0373   -0.1139 H   0  0  0  0  0  0  0  0  0  0  0  0
   -1.6345    1.1172   -1.9055 H   0  0  0  0  0  0  0  0  0  0  0  0
  1  6  1  0  0  0  0
  1  8  1  0  0  0  0
  2  7  1  0  0  0  0
  2  9  1  0  0  0  0
  3  6  2  0  0  0  0
  4  7  2  0  0  0  0
  5  6  1  0  0  0  0
  5  7  1  0  0  0  0
  5 10  1  0  0  0  0
  5 11  1  0  0  0  0
M  END
>  <Mol_ID>
5438

>  <Formula>
C3H4O4

>  <MolWeight>
104.06146

>  <Cat>
S3029

>  <Name>
Malonic acid

>  <Synonyms>
MOA

>  <Target>
Others

>  <Form>
Free Base

>  <CAS>
141-82-2

>  <URL>
https://www.selleckchem.com/products/malonic-acid.html

$$$$
