MALT1 inhibitor.cdx
 OpenBabel08302519583D

 46 48  0  0  0  0  0  0  0  0999 V2000
   -0.2858   -1.0123   -0.0645 N   0  0  0  0  0  0  0  0  0  0  0  0
    0.9161   -0.4869   -0.3014 C   0  0  0  0  0  0  0  0  0  0  0  0
    0.9468    0.8615   -0.4325 N   0  0  0  0  0  0  0  0  0  0  0  0
   -0.3142    1.2366   -0.2904 C   0  0  0  0  0  0  0  0  0  0  0  0
   -1.0984    0.0813   -0.1701 N   0  0  0  0  0  0  0  0  0  0  0  0
   -0.7195    2.6456   -0.2019 C   0  0  0  0  0  0  0  0  0  0  0  0
   -2.5184   -0.0731   -0.1690 C   0  0  0  0  0  0  0  0  0  0  0  0
    2.0342   -1.2344   -0.2241 O   0  0  0  0  0  0  0  0  0  0  0  0
    1.9141   -2.5570   -0.7384 C   0  0  0  0  0  0  0  0  0  0  0  0
    3.2843   -3.2270   -0.5923 C   0  0  0  0  0  0  0  0  0  0  0  0
    3.2059   -4.6128   -0.9252 O   0  0  0  0  0  0  0  0  0  0  0  0
    4.4807   -5.2441   -0.8578 C   0  0  0  0  0  0  0  0  0  0  0  0
   -3.3472    0.8491   -0.8139 C   0  0  0  0  0  0  0  0  0  0  0  0
   -4.7409    0.7184   -0.7585 C   0  0  0  0  0  0  0  0  0  0  0  0
   -5.3404   -0.3425   -0.0813 C   0  0  0  0  0  0  0  0  0  0  0  0
   -4.5079   -1.2885    0.5343 C   0  0  0  0  0  0  0  0  0  0  0  0
   -3.1070   -1.1664    0.4798 C   0  0  0  0  0  0  0  0  0  0  0  0
   -6.7428   -0.5218    0.0028 N   0  0  0  0  0  0  0  0  0  0  0  0
   -7.7195    0.2973   -0.5463 C   0  0  0  0  0  0  0  0  0  0  0  0
   -0.0130    3.5950   -0.9579 C   0  0  0  0  0  0  0  0  0  0  0  0
   -0.3551    4.9491   -0.9202 C   0  0  0  0  0  0  0  0  0  0  0  0
   -1.4129    5.3764   -0.1233 C   0  0  0  0  0  0  0  0  0  0  0  0
   -2.1031    4.4561    0.6618 C   0  0  0  0  0  0  0  0  0  0  0  0
   -1.7414    3.1045    0.6435 C   0  0  0  0  0  0  0  0  0  0  0  0
   -7.5460    1.3341   -1.1791 O   0  0  0  0  0  0  0  0  0  0  0  0
   -9.1182   -0.2114   -0.2922 C   0  0  0  0  0  0  0  0  0  0  0  0
    1.1647   -3.1396   -0.1904 H   0  0  0  0  0  0  0  0  0  0  0  0
    1.6331   -2.5355   -1.7995 H   0  0  0  0  0  0  0  0  0  0  0  0
    4.0177   -2.7254   -1.2366 H   0  0  0  0  0  0  0  0  0  0  0  0
    3.6320   -3.1232    0.4432 H   0  0  0  0  0  0  0  0  0  0  0  0
    5.0567   -5.0168   -1.7599 H   0  0  0  0  0  0  0  0  0  0  0  0
    5.0397   -4.9312    0.0303 H   0  0  0  0  0  0  0  0  0  0  0  0
    4.3275   -6.3257   -0.8059 H   0  0  0  0  0  0  0  0  0  0  0  0
   -2.9495    1.6760   -1.3965 H   0  0  0  0  0  0  0  0  0  0  0  0
   -5.3288    1.4735   -1.2708 H   0  0  0  0  0  0  0  0  0  0  0  0
   -4.9302   -2.1344    1.0716 H   0  0  0  0  0  0  0  0  0  0  0  0
   -2.4923   -1.9131    0.9811 H   0  0  0  0  0  0  0  0  0  0  0  0
   -7.0576   -1.3418    0.5070 H   0  0  0  0  0  0  0  0  0  0  0  0
    0.8232    3.2794   -1.5807 H   0  0  0  0  0  0  0  0  0  0  0  0
    0.2074    5.6666   -1.5121 H   0  0  0  0  0  0  0  0  0  0  0  0
   -1.6901    6.4274   -0.1035 H   0  0  0  0  0  0  0  0  0  0  0  0
   -2.9220    4.7907    1.2942 H   0  0  0  0  0  0  0  0  0  0  0  0
   -2.2804    2.4230    1.2975 H   0  0  0  0  0  0  0  0  0  0  0  0
   -9.2612   -1.1759   -0.7851 H   0  0  0  0  0  0  0  0  0  0  0  0
   -9.2977   -0.3041    0.7819 H   0  0  0  0  0  0  0  0  0  0  0  0
   -9.8411    0.5008   -0.7039 H   0  0  0  0  0  0  0  0  0  0  0  0
  1  2  2  0  0  0  0
  2  3  1  0  0  0  0
  2  8  1  0  0  0  0
  3  4  2  0  0  0  0
  4  5  1  0  0  0  0
  4  6  1  0  0  0  0
  5  1  1  0  0  0  0
  5  7  1  0  0  0  0
  6 20  2  0  0  0  0
  7 13  2  0  0  0  0
  8  9  1  0  0  0  0
  9 10  1  0  0  0  0
  9 27  1  0  0  0  0
  9 28  1  0  0  0  0
 10 11  1  0  0  0  0
 10 29  1  0  0  0  0
 10 30  1  0  0  0  0
 11 12  1  0  0  0  0
 12 31  1  0  0  0  0
 12 32  1  0  0  0  0
 12 33  1  0  0  0  0
 13 14  1  0  0  0  0
 13 34  1  0  0  0  0
 14 15  2  0  0  0  0
 14 35  1  0  0  0  0
 15 16  1  0  0  0  0
 15 18  1  0  0  0  0
 16 17  2  0  0  0  0
 16 36  1  0  0  0  0
 17  7  1  0  0  0  0
 17 37  1  0  0  0  0
 18 19  1  0  0  0  0
 18 38  1  0  0  0  0
 19 25  2  0  0  0  0
 19 26  1  0  0  0  0
 20 21  1  0  0  0  0
 20 39  1  0  0  0  0
 21 22  2  0  0  0  0
 21 40  1  0  0  0  0
 22 23  1  0  0  0  0
 22 41  1  0  0  0  0
 23 24  2  0  0  0  0
 23 42  1  0  0  0  0
 24  6  1  0  0  0  0
 24 43  1  0  0  0  0
 26 44  1  0  0  0  0
 26 45  1  0  0  0  0
 26 46  1  0  0  0  0
M  END
>  <Mol_ID>
2432

>  <Formula>
C19H17Cl3N4O3

>  <MolWeight>
455.72228

>  <Cat>
S7429

>  <Name>
MI-2 (MALT1 inhibitor)

>  <Synonyms>
N/A

>  <Target>
MALT

>  <Form>
free base

>  <CAS>
1047953-91-2

>  <URL>
http://selleckchem.com/products/mi-2-malt1-inhibitor.html

$$$$
