MAO-B-IN-2
 OpenBabel08302521453D

 33 35  0  0  0  0  0  0  0  0999 V2000
   -0.3574   -1.7630   -0.5361 C   0  0  0  0  0  0  0  0  0  0  0  0
   -1.7313   -1.3569   -0.1466 C   0  0  0  0  0  0  0  0  0  0  0  0
   -1.9616   -0.1197    0.3302 C   0  0  0  0  0  0  0  0  0  0  0  0
   -0.8659    0.8180    0.5343 C   0  0  0  0  0  0  0  0  0  0  0  0
    0.4320    0.3958    0.2691 C   0  0  0  0  0  0  0  0  0  0  0  0
    0.6777   -0.8879   -0.2390 O   0  0  0  0  0  0  0  0  0  0  0  0
    1.5358    1.2196    0.4753 C   0  0  0  0  0  0  0  0  0  0  0  0
    1.3344    2.5104    0.9550 C   0  0  0  0  0  0  0  0  0  0  0  0
    0.0384    2.9603    1.2171 C   0  0  0  0  0  0  0  0  0  0  0  0
   -1.0602    2.1164    1.0097 C   0  0  0  0  0  0  0  0  0  0  0  0
   -0.1164   -2.8268   -1.0938 O   0  0  0  0  0  0  0  0  0  0  0  0
   -2.9181   -2.2574   -0.3000 C   0  0  0  0  0  0  0  0  0  0  0  0
   -2.6647   -3.7243   -0.2996 C   0  0  0  0  0  0  0  0  0  0  0  0
   -3.5485   -4.5926   -0.8177 C   0  0  0  0  0  0  0  0  0  0  0  0
   -4.0609   -1.8110   -0.3803 O   0  0  0  0  0  0  0  0  0  0  0  0
   -3.2920   -6.0420   -0.8957 C   0  0  0  0  0  0  0  0  0  0  0  0
   -4.3692   -6.9357   -0.8354 C   0  0  0  0  0  0  0  0  0  0  0  0
   -4.1571   -8.3162   -0.9213 C   0  0  0  0  0  0  0  0  0  0  0  0
   -2.8673   -8.8181   -1.0802 C   0  0  0  0  0  0  0  0  0  0  0  0
   -1.7898   -7.9413   -1.1688 C   0  0  0  0  0  0  0  0  0  0  0  0
   -2.0024   -6.5626   -1.0873 C   0  0  0  0  0  0  0  0  0  0  0  0
   -2.9626    0.2086    0.5962 H   0  0  0  0  0  0  0  0  0  0  0  0
    2.5383    0.8599    0.2622 H   0  0  0  0  0  0  0  0  0  0  0  0
    2.1858    3.1671    1.1214 H   0  0  0  0  0  0  0  0  0  0  0  0
   -0.1158    3.9716    1.5862 H   0  0  0  0  0  0  0  0  0  0  0  0
   -2.0596    2.4881    1.2247 H   0  0  0  0  0  0  0  0  0  0  0  0
   -1.7276   -4.0667    0.1185 H   0  0  0  0  0  0  0  0  0  0  0  0
   -4.4994   -4.2447   -1.2152 H   0  0  0  0  0  0  0  0  0  0  0  0
   -5.3854   -6.5680   -0.7123 H   0  0  0  0  0  0  0  0  0  0  0  0
   -4.9998   -8.9994   -0.8638 H   0  0  0  0  0  0  0  0  0  0  0  0
   -2.7016   -9.8907   -1.1448 H   0  0  0  0  0  0  0  0  0  0  0  0
   -0.7824   -8.3260   -1.3075 H   0  0  0  0  0  0  0  0  0  0  0  0
   -1.1429   -5.9027   -1.1877 H   0  0  0  0  0  0  0  0  0  0  0  0
  1  2  1  0  0  0  0
  1  6  1  0  0  0  0
  1 11  2  0  0  0  0
  2  3  2  0  0  0  0
  2 12  1  0  0  0  0
  3  4  1  0  0  0  0
  3 22  1  0  0  0  0
  4  5  2  0  0  0  0
  5  6  1  0  0  0  0
  7  8  2  0  0  0  0
  7  5  1  0  0  0  0
  7 23  1  0  0  0  0
  8  9  1  0  0  0  0
  8 24  1  0  0  0  0
  9 10  2  0  0  0  0
  9 25  1  0  0  0  0
 10  4  1  0  0  0  0
 10 26  1  0  0  0  0
 12 13  1  0  0  0  0
 12 15  2  0  0  0  0
 13 14  2  0  0  0  0
 13 27  1  0  0  0  0
 14 16  1  0  0  0  0
 14 28  1  0  0  0  0
 16 17  2  0  0  0  0
 16 21  1  0  0  0  0
 17 18  1  0  0  0  0
 17 29  1  0  0  0  0
 18 19  2  0  0  0  0
 18 30  1  0  0  0  0
 19 20  1  0  0  0  0
 19 31  1  0  0  0  0
 20 21  2  0  0  0  0
 20 32  1  0  0  0  0
 21 33  1  0  0  0  0
M  END
>  <Mol_ID>
9439

>  <Formula>
C18H11ClO3

>  <MolWeight>
310.73114

>  <Cat>
E0784

>  <Name>
MAO-B-IN-2

>  <Target>
BChE,MAO

>  <Form>
free base

>  <CAS>
1253978-24-3

>  <URL>
http://www.selleckchem.com/products/mao-b-in-2.html

$$$$
