Maprotiline hydrochloride.cdx
 OpenBabel08302521393D

 44 47  0  0  0  0  0  0  0  0999 V2000
   -3.3576   -1.1333   -0.5751 C   0  0  0  0  0  0  0  0  0  0  0  0
   -3.4165   -1.0024    0.8210 C   0  0  0  0  0  0  0  0  0  0  0  0
   -2.4103   -0.3304    1.5152 C   0  0  0  0  0  0  0  0  0  0  0  0
   -1.3456    0.2062    0.8006 C   0  0  0  0  0  0  0  0  0  0  0  0
   -1.2659    0.0591   -0.6141 C   0  0  0  0  0  0  0  0  0  0  0  0
   -2.2814   -0.6067   -1.2960 C   0  0  0  0  0  0  0  0  0  0  0  0
   -0.1453    0.9226    1.4262 C   0  0  3  0  0  0  0  0  0  0  0  0
    1.1105    0.1775    0.9893 C   0  0  0  0  0  0  0  0  0  0  0  0
    1.1782   -0.0731   -0.4115 C   0  0  0  0  0  0  0  0  0  0  0  0
    0.0524    0.6203   -1.2157 C   0  0  3  0  0  0  0  0  0  0  0  0
    2.0883   -0.2933    1.8576 C   0  0  0  0  0  0  0  0  0  0  0  0
    3.1040   -1.0961    1.3466 C   0  0  0  0  0  0  0  0  0  0  0  0
    3.1061   -1.4569   -0.0071 C   0  0  0  0  0  0  0  0  0  0  0  0
    2.1408   -0.9551   -0.8869 C   0  0  0  0  0  0  0  0  0  0  0  0
    0.1273    0.5124   -2.7639 C   0  0  0  0  0  0  0  0  0  0  0  0
    1.3570    1.1504   -3.4418 C   0  0  0  0  0  0  0  0  0  0  0  0
    1.3804    0.9979   -4.9711 C   0  0  0  0  0  0  0  0  0  0  0  0
    0.2561    1.6830   -5.6097 N   0  0  0  0  0  0  0  0  0  0  0  0
    0.3377    1.5954   -7.0632 C   0  0  0  0  0  0  0  0  0  0  0  0
    0.0683    2.1357   -0.7800 C   0  0  0  0  0  0  0  0  0  0  0  0
   -0.0715    2.3047    0.7569 C   0  0  0  0  0  0  0  0  0  0  0  0
   -4.1471   -1.6632   -1.0981 H   0  0  0  0  0  0  0  0  0  0  0  0
   -4.2469   -1.4453    1.3637 H   0  0  0  0  0  0  0  0  0  0  0  0
   -2.4531   -0.2549    2.5959 H   0  0  0  0  0  0  0  0  0  0  0  0
   -2.2493   -0.7462   -2.3713 H   0  0  0  0  0  0  0  0  0  0  0  0
   -0.2311    0.9954    2.5148 H   0  0  0  0  0  0  0  0  0  0  0  0
    2.0558   -0.0573    2.9174 H   0  0  0  0  0  0  0  0  0  0  0  0
    3.8787   -1.4752    2.0079 H   0  0  0  0  0  0  0  0  0  0  0  0
    3.8656   -2.1421   -0.3758 H   0  0  0  0  0  0  0  0  0  0  0  0
    2.1501   -1.2808   -1.9216 H   0  0  0  0  0  0  0  0  0  0  0  0
    0.0706   -0.5411   -3.0691 H   0  0  0  0  0  0  0  0  0  0  0  0
   -0.7679    0.9996   -3.1731 H   0  0  0  0  0  0  0  0  0  0  0  0
    1.4154    2.2209   -3.1998 H   0  0  0  0  0  0  0  0  0  0  0  0
    2.2763    0.7007   -3.0547 H   0  0  0  0  0  0  0  0  0  0  0  0
    2.3236    1.4200   -5.3399 H   0  0  0  0  0  0  0  0  0  0  0  0
    1.3726   -0.0677   -5.2288 H   0  0  0  0  0  0  0  0  0  0  0  0
   -0.6190    1.2615   -5.3060 H   0  0  0  0  0  0  0  0  0  0  0  0
    0.4531    0.5610   -7.4042 H   0  0  0  0  0  0  0  0  0  0  0  0
   -0.5852    1.9887   -7.5026 H   0  0  0  0  0  0  0  0  0  0  0  0
    1.1671    2.1965   -7.4492 H   0  0  0  0  0  0  0  0  0  0  0  0
   -0.7466    2.6845   -1.2724 H   0  0  0  0  0  0  0  0  0  0  0  0
    1.0057    2.6191   -1.0857 H   0  0  0  0  0  0  0  0  0  0  0  0
   -0.9697    2.8936    0.9843 H   0  0  0  0  0  0  0  0  0  0  0  0
    0.7849    2.8729    1.1425 H   0  0  0  0  0  0  0  0  0  0  0  0
  1  2  2  0  0  0  0
  1 22  1  0  0  0  0
  2  3  1  0  0  0  0
  2 23  1  0  0  0  0
  3  4  2  0  0  0  0
  3 24  1  0  0  0  0
  4  5  1  0  0  0  0
  4  7  1  0  0  0  0
  5  6  2  0  0  0  0
  6  1  1  0  0  0  0
  6 25  1  0  0  0  0
  7  8  1  0  0  0  0
  7 26  1  0  0  0  0
  8  9  2  0  0  0  0
  8 11  1  0  0  0  0
  9 10  1  0  0  0  0
 10  5  1  0  0  0  0
 10 15  1  0  0  0  0
 10 20  1  0  0  0  0
 11 12  2  0  0  0  0
 11 27  1  0  0  0  0
 12 13  1  0  0  0  0
 12 28  1  0  0  0  0
 13 14  2  0  0  0  0
 13 29  1  0  0  0  0
 14  9  1  0  0  0  0
 14 30  1  0  0  0  0
 15 16  1  0  0  0  0
 15 31  1  0  0  0  0
 15 32  1  0  0  0  0
 16 17  1  0  0  0  0
 16 33  1  0  0  0  0
 16 34  1  0  0  0  0
 17 18  1  0  0  0  0
 17 35  1  0  0  0  0
 17 36  1  0  0  0  0
 18 19  1  0  0  0  0
 18 37  1  0  0  0  0
 19 38  1  0  0  0  0
 19 39  1  0  0  0  0
 19 40  1  0  0  0  0
 20 21  1  0  0  0  0
 20 41  1  0  0  0  0
 20 42  1  0  0  0  0
 21  7  1  0  0  0  0
 21 43  1  0  0  0  0
 21 44  1  0  0  0  0
M  END
>  <Mol_ID>
780

>  <Formula>
C20H24ClN

>  <MolWeight>
313.86426

>  <Cat>
S2517

>  <Name>
Maprotiline HCl

>  <Synonyms>
N/A

>  <Target>
Adrenergic Receptor

>  <Form>
Hydrochloride

>  <CAS>
10347-81-6

>  <URL>
http://selleckchem.com/products/Maprotiline-hydrochloride.html

$$$$
