Marbofloxacin.cdx
 OpenBabel08302521393D

 45 48  0  0  0  0  0  0  0  0999 V2000
   -1.3058    2.4367    0.0528 C   0  0  0  0  0  0  0  0  0  0  0  0
    0.1026    2.4427    0.0972 C   0  0  0  0  0  0  0  0  0  0  0  0
    0.7430    1.1753    0.1173 C   0  0  0  0  0  0  0  0  0  0  0  0
    0.0200   -0.0278    0.0487 C   0  0  0  0  0  0  0  0  0  0  0  0
   -1.3791    0.0381   -0.0155 C   0  0  0  0  0  0  0  0  0  0  0  0
   -2.0457    1.2607    0.0009 C   0  0  0  0  0  0  0  0  0  0  0  0
    0.6891   -1.2897    0.0284 N   0  0  0  0  0  0  0  0  0  0  0  0
   -0.0921   -2.4373    0.0793 C   0  0  0  0  0  0  0  0  0  0  0  0
   -1.4320   -2.4924    0.0100 C   0  0  0  0  0  0  0  0  0  0  0  0
   -2.1609   -1.2134   -0.0737 C   0  0  0  0  0  0  0  0  0  0  0  0
   -1.9955    3.5891    0.0727 F   0  0  0  0  0  0  0  0  0  0  0  0
    0.8543    3.6150    0.0208 N   0  0  0  0  0  0  0  0  0  0  0  0
    2.1156    1.1642    0.1854 O   0  0  0  0  0  0  0  0  0  0  0  0
    2.0474   -1.2737    0.4816 N   0  0  0  0  0  0  0  0  0  0  0  0
    2.7275   -0.0950   -0.0890 C   0  0  0  0  0  0  0  0  0  0  0  0
    2.8076   -2.4588    0.0556 C   0  0  0  0  0  0  0  0  0  0  0  0
   -3.3858   -1.2015   -0.1677 O   0  0  0  0  0  0  0  0  0  0  0  0
   -2.1063   -3.8043    0.0430 C   0  0  0  0  0  0  0  0  0  0  0  0
   -3.4511   -3.7479   -0.0030 O   0  0  0  0  0  0  0  0  0  0  0  0
   -1.5050   -4.8675    0.0987 O   0  0  0  0  0  0  0  0  0  0  0  0
    0.2888    4.8251   -0.5956 C   0  0  0  0  0  0  0  0  0  0  0  0
    1.4454    5.6832   -1.1589 C   0  0  0  0  0  0  0  0  0  0  0  0
    2.4509    6.0390   -0.1302 N   0  0  0  0  0  0  0  0  0  0  0  0
    2.9501    4.8036    0.5232 C   0  0  0  0  0  0  0  0  0  0  0  0
    1.8112    3.9254    1.0992 C   0  0  0  0  0  0  0  0  0  0  0  0
    3.5524    6.7827   -0.7362 C   0  0  0  0  0  0  0  0  0  0  0  0
   -3.1298    1.3176   -0.0288 H   0  0  0  0  0  0  0  0  0  0  0  0
    0.4661   -3.3636    0.1652 H   0  0  0  0  0  0  0  0  0  0  0  0
    2.8682   -0.1795   -1.1746 H   0  0  0  0  0  0  0  0  0  0  0  0
    3.7258   -0.0243    0.3612 H   0  0  0  0  0  0  0  0  0  0  0  0
    2.5432   -3.3295    0.6644 H   0  0  0  0  0  0  0  0  0  0  0  0
    2.6555   -2.6966   -1.0038 H   0  0  0  0  0  0  0  0  0  0  0  0
    3.8833   -2.3122    0.2145 H   0  0  0  0  0  0  0  0  0  0  0  0
   -3.8211   -2.8329   -0.0671 H   0  0  0  0  0  0  0  0  0  0  0  0
   -0.2835    5.4001    0.1436 H   0  0  0  0  0  0  0  0  0  0  0  0
   -0.3755    4.5731   -1.4306 H   0  0  0  0  0  0  0  0  0  0  0  0
    1.0199    6.5962   -1.5908 H   0  0  0  0  0  0  0  0  0  0  0  0
    1.9250    5.1245   -1.9752 H   0  0  0  0  0  0  0  0  0  0  0  0
    3.5245    4.2026   -0.1956 H   0  0  0  0  0  0  0  0  0  0  0  0
    3.6271    5.0732    1.3422 H   0  0  0  0  0  0  0  0  0  0  0  0
    1.2936    4.4650    1.9028 H   0  0  0  0  0  0  0  0  0  0  0  0
    2.2537    3.0373    1.5594 H   0  0  0  0  0  0  0  0  0  0  0  0
    4.2797    7.0800    0.0266 H   0  0  0  0  0  0  0  0  0  0  0  0
    4.0753    6.2014   -1.5045 H   0  0  0  0  0  0  0  0  0  0  0  0
    3.1816    7.7050   -1.1971 H   0  0  0  0  0  0  0  0  0  0  0  0
  1  2  2  0  0  0  0
  1 11  1  0  0  0  0
  2  3  1  0  0  0  0
  2 12  1  0  0  0  0
  3  4  2  0  0  0  0
  3 13  1  0  0  0  0
  4  5  1  0  0  0  0
  4  7  1  0  0  0  0
  5  6  2  0  0  0  0
  6  1  1  0  0  0  0
  6 27  1  0  0  0  0
  7  8  1  0  0  0  0
  7 14  1  0  0  0  0
  8  9  2  0  0  0  0
  8 28  1  0  0  0  0
  9 10  1  0  0  0  0
  9 18  1  0  0  0  0
 10  5  1  0  0  0  0
 10 17  2  0  0  0  0
 12 21  1  0  0  0  0
 13 15  1  0  0  0  0
 14 15  1  0  0  0  0
 14 16  1  0  0  0  0
 15 29  1  0  0  0  0
 15 30  1  0  0  0  0
 16 31  1  0  0  0  0
 16 32  1  0  0  0  0
 16 33  1  0  0  0  0
 18 19  1  0  0  0  0
 18 20  2  0  0  0  0
 19 34  1  0  0  0  0
 21 22  1  0  0  0  0
 21 35  1  0  0  0  0
 21 36  1  0  0  0  0
 22 23  1  0  0  0  0
 22 37  1  0  0  0  0
 22 38  1  0  0  0  0
 23 24  1  0  0  0  0
 23 26  1  0  0  0  0
 24 25  1  0  0  0  0
 24 39  1  0  0  0  0
 24 40  1  0  0  0  0
 25 12  1  0  0  0  0
 25 41  1  0  0  0  0
 25 42  1  0  0  0  0
 26 43  1  0  0  0  0
 26 44  1  0  0  0  0
 26 45  1  0  0  0  0
M  END
>  <Mol_ID>
8222

>  <Formula>
C17H19FN4O4

>  <MolWeight>
362.3555632

>  <Cat>
S1464

>  <Name>
Marbofloxacin

>  <Synonyms>
N/A

>  <Target>
Topoisomerase

>  <Form>
free base

>  <CAS>
115550-35-1

>  <URL>
http://selleckchem.com/products/Marbofloxacin.html

$$$$
