Marimastat (BB-25.cdx
 OpenBabel08302519593D

 52 51  0  0  0  0  0  0  0  0999 V2000
    2.4688   -1.7065    1.7560 N   0  0  0  0  0  0  0  0  0  0  0  0
    2.1126   -1.2376    0.5020 C   0  0  0  0  0  0  0  0  0  0  0  0
    2.8668   -1.9099   -0.6965 C   0  0  2  0  0  0  0  0  0  0  0  0
    3.9423   -0.9465   -1.3191 C   0  0  0  0  0  0  0  0  0  0  0  0
    3.3087    0.2697   -2.0250 C   0  0  0  0  0  0  0  0  0  0  0  0
    4.9217   -0.4268   -0.2445 C   0  0  0  0  0  0  0  0  0  0  0  0
    4.7778   -1.7022   -2.3743 C   0  0  0  0  0  0  0  0  0  0  0  0
    1.8970   -2.3779   -1.7177 N   0  0  0  0  0  0  0  0  0  0  0  0
    1.6320   -3.7153   -1.9373 C   0  0  0  0  0  0  0  0  0  0  0  0
    0.5377   -4.0347   -2.9808 C   0  0  1  0  0  0  0  0  0  0  0  0
    2.2089   -4.5994   -1.3061 O   0  0  0  0  0  0  0  0  0  0  0  0
    0.9296   -3.6728   -4.4363 C   0  0  1  0  0  0  0  0  0  0  0  0
    0.0487   -5.5080   -2.8548 C   0  0  0  0  0  0  0  0  0  0  0  0
    2.2564   -4.2817   -4.9383 C   0  0  0  0  0  0  0  0  0  0  0  0
    2.1157   -4.9370   -6.1532 N   0  0  0  0  0  0  0  0  0  0  0  0
    3.3271   -5.3965   -6.7215 O   0  0  0  0  0  0  0  0  0  0  0  0
    3.3135   -4.1905   -4.3255 O   0  0  0  0  0  0  0  0  0  0  0  0
   -0.7217   -5.8386   -1.5535 C   0  0  0  0  0  0  0  0  0  0  0  0
   -1.9801   -4.9842   -1.3823 C   0  0  0  0  0  0  0  0  0  0  0  0
   -1.1195   -7.3201   -1.5432 C   0  0  0  0  0  0  0  0  0  0  0  0
   -0.1477   -3.9706   -5.3438 O   0  0  0  0  0  0  0  0  0  0  0  0
    1.2938   -0.3389    0.3381 O   0  0  0  0  0  0  0  0  0  0  0  0
    2.0208   -1.1031    2.9947 C   0  0  0  0  0  0  0  0  0  0  0  0
    3.0637   -2.5225    1.8216 H   0  0  0  0  0  0  0  0  0  0  0  0
    3.3886   -2.7878   -0.2958 H   0  0  0  0  0  0  0  0  0  0  0  0
    2.7665    0.9134   -1.3272 H   0  0  0  0  0  0  0  0  0  0  0  0
    4.0813    0.8889   -2.4970 H   0  0  0  0  0  0  0  0  0  0  0  0
    2.6209   -0.0349   -2.8202 H   0  0  0  0  0  0  0  0  0  0  0  0
    5.5219   -1.2411    0.1762 H   0  0  0  0  0  0  0  0  0  0  0  0
    5.6169    0.3061   -0.6719 H   0  0  0  0  0  0  0  0  0  0  0  0
    4.4052    0.0738    0.5802 H   0  0  0  0  0  0  0  0  0  0  0  0
    5.3340   -2.5344   -1.9291 H   0  0  0  0  0  0  0  0  0  0  0  0
    4.1448   -2.1003   -3.1708 H   0  0  0  0  0  0  0  0  0  0  0  0
    5.5056   -1.0343   -2.8505 H   0  0  0  0  0  0  0  0  0  0  0  0
    1.3039   -1.6725   -2.1361 H   0  0  0  0  0  0  0  0  0  0  0  0
   -0.3175   -3.3918   -2.7443 H   0  0  0  0  0  0  0  0  0  0  0  0
    1.0592   -2.5851   -4.5050 H   0  0  0  0  0  0  0  0  0  0  0  0
   -0.6227   -5.7589   -3.6827 H   0  0  0  0  0  0  0  0  0  0  0  0
    0.9082   -6.1857   -2.9466 H   0  0  0  0  0  0  0  0  0  0  0  0
    1.4673   -4.5201   -6.8206 H   0  0  0  0  0  0  0  0  0  0  0  0
    3.4126   -6.2849   -6.3248 H   0  0  0  0  0  0  0  0  0  0  0  0
   -0.0707   -5.6642   -0.6917 H   0  0  0  0  0  0  0  0  0  0  0  0
   -2.6395   -5.0707   -2.2525 H   0  0  0  0  0  0  0  0  0  0  0  0
   -2.5445   -5.2975   -0.4976 H   0  0  0  0  0  0  0  0  0  0  0  0
   -1.7324   -3.9284   -1.2424 H   0  0  0  0  0  0  0  0  0  0  0  0
   -0.2397   -7.9649   -1.6345 H   0  0  0  0  0  0  0  0  0  0  0  0
   -1.6258   -7.5791   -0.6065 H   0  0  0  0  0  0  0  0  0  0  0  0
   -1.8012   -7.5561   -2.3679 H   0  0  0  0  0  0  0  0  0  0  0  0
   -0.2211   -4.9481   -5.4143 H   0  0  0  0  0  0  0  0  0  0  0  0
    1.6779   -1.8922    3.6706 H   0  0  0  0  0  0  0  0  0  0  0  0
    2.8792   -0.6028    3.4538 H   0  0  0  0  0  0  0  0  0  0  0  0
    1.2207   -0.3759    2.8363 H   0  0  0  0  0  0  0  0  0  0  0  0
  1  2  1  0  0  0  0
  1 23  1  0  0  0  0
  1 24  1  0  0  0  0
  2 22  2  0  0  0  0
  3  8  1  0  0  0  0
  3 25  1  1  0  0  0
  3  4  1  0  0  0  0
  3  2  1  0  0  0  0
  4  5  1  0  0  0  0
  4  6  1  0  0  0  0
  4  7  1  0  0  0  0
  5 26  1  0  0  0  0
  5 27  1  0  0  0  0
  5 28  1  0  0  0  0
  6 29  1  0  0  0  0
  6 30  1  0  0  0  0
  6 31  1  0  0  0  0
  7 32  1  0  0  0  0
  7 33  1  0  0  0  0
  7 34  1  0  0  0  0
  8  9  1  0  0  0  0
  8 35  1  0  0  0  0
  9 11  2  0  0  0  0
 10  9  1  0  0  0  0
 10 12  1  0  0  0  0
 10 13  1  0  0  0  0
 10 36  1  1  0  0  0
 12 14  1  0  0  0  0
 12 21  1  0  0  0  0
 12 37  1  6  0  0  0
 13 18  1  0  0  0  0
 13 38  1  0  0  0  0
 13 39  1  0  0  0  0
 14 15  1  0  0  0  0
 14 17  2  0  0  0  0
 15 16  1  0  0  0  0
 15 40  1  0  0  0  0
 16 41  1  0  0  0  0
 18 19  1  0  0  0  0
 18 20  1  0  0  0  0
 18 42  1  0  0  0  0
 19 43  1  0  0  0  0
 19 44  1  0  0  0  0
 19 45  1  0  0  0  0
 20 46  1  0  0  0  0
 20 47  1  0  0  0  0
 20 48  1  0  0  0  0
 21 49  1  0  0  0  0
 23 50  1  0  0  0  0
 23 51  1  0  0  0  0
 23 52  1  0  0  0  0
M  END
>  <Mol_ID>
2585

>  <Formula>
C15H29N3O5

>  <MolWeight>
331.40786

>  <Cat>
S7156

>  <Name>
Marimastat (BB-2516)

>  <Synonyms>
TA2516

>  <Target>
MMP

>  <Form>
free base

>  <CAS>
154039-60-8

>  <URL>
http://selleckchem.com/products/marimastat.html

$$$$
