Marmesin
 OpenBabel08302521253D

 32 34  0  0  0  0  0  0  0  0999 V2000
   -2.3329   -0.7077    0.0920 C   0  0  0  0  0  0  0  0  0  0  0  0
   -2.2420    0.7444   -0.1275 C   0  0  0  0  0  0  0  0  0  0  0  0
   -1.0812    1.3540   -0.3831 C   0  0  0  0  0  0  0  0  0  0  0  0
    0.1375    0.5661   -0.4439 C   0  0  0  0  0  0  0  0  0  0  0  0
    0.0925   -0.7826   -0.0495 C   0  0  0  0  0  0  0  0  0  0  0  0
   -1.1408   -1.4030    0.2372 O   0  0  0  0  0  0  0  0  0  0  0  0
    1.3502    1.1300   -0.8429 C   0  0  0  0  0  0  0  0  0  0  0  0
    2.4830    0.3408   -0.7600 C   0  0  0  0  0  0  0  0  0  0  0  0
    2.4339   -0.9472   -0.2493 C   0  0  0  0  0  0  0  0  0  0  0  0
    1.2420   -1.5605    0.0725 C   0  0  0  0  0  0  0  0  0  0  0  0
    3.8876    0.6607   -1.1095 C   0  0  0  0  0  0  0  0  0  0  0  0
    4.5775   -0.3480   -0.1780 C   0  0  2  0  0  0  0  0  0  0  0  0
    3.6773   -1.4848   -0.0211 O   0  0  0  0  0  0  0  0  0  0  0  0
   -3.4268   -1.2550    0.1792 O   0  0  0  0  0  0  0  0  0  0  0  0
    5.0074    0.2730    1.1941 C   0  0  0  0  0  0  0  0  0  0  0  0
    3.8472    0.8427    2.0294 C   0  0  0  0  0  0  0  0  0  0  0  0
    5.7588   -0.7566    2.0406 C   0  0  0  0  0  0  0  0  0  0  0  0
    5.9116    1.3558    0.9204 O   0  0  0  0  0  0  0  0  0  0  0  0
   -3.1735    1.2923   -0.0721 H   0  0  0  0  0  0  0  0  0  0  0  0
   -1.0247    2.4292   -0.5184 H   0  0  0  0  0  0  0  0  0  0  0  0
    1.4183    2.1608   -1.1726 H   0  0  0  0  0  0  0  0  0  0  0  0
    1.2066   -2.5812    0.4310 H   0  0  0  0  0  0  0  0  0  0  0  0
    4.1708    1.7012   -0.9367 H   0  0  0  0  0  0  0  0  0  0  0  0
    4.0599    0.4012   -2.1612 H   0  0  0  0  0  0  0  0  0  0  0  0
    5.4832   -0.7100   -0.6834 H   0  0  0  0  0  0  0  0  0  0  0  0
    3.1141    0.0760    2.2975 H   0  0  0  0  0  0  0  0  0  0  0  0
    4.2202    1.2853    2.9606 H   0  0  0  0  0  0  0  0  0  0  0  0
    3.3387    1.6600    1.5076 H   0  0  0  0  0  0  0  0  0  0  0  0
    6.6349   -1.1389    1.4998 H   0  0  0  0  0  0  0  0  0  0  0  0
    6.1411   -0.2972    2.9561 H   0  0  0  0  0  0  0  0  0  0  0  0
    5.1207   -1.6020    2.3179 H   0  0  0  0  0  0  0  0  0  0  0  0
    6.1285    1.7862    1.7660 H   0  0  0  0  0  0  0  0  0  0  0  0
  1  2  1  0  0  0  0
  1 14  2  0  0  0  0
  2  3  2  0  0  0  0
  2 19  1  0  0  0  0
  3  4  1  0  0  0  0
  3 20  1  0  0  0  0
  4  5  2  0  0  0  0
  4  7  1  0  0  0  0
  5  6  1  0  0  0  0
  6  1  1  0  0  0  0
  7  8  2  0  0  0  0
  7 21  1  0  0  0  0
  8  9  1  0  0  0  0
  8 11  1  0  0  0  0
  9 10  2  0  0  0  0
 10  5  1  0  0  0  0
 10 22  1  0  0  0  0
 11 12  1  0  0  0  0
 11 23  1  0  0  0  0
 11 24  1  0  0  0  0
 12 13  1  0  0  0  0
 12 15  1  0  0  0  0
 12 25  1  6  0  0  0
 13  9  1  0  0  0  0
 15 16  1  0  0  0  0
 15 17  1  0  0  0  0
 15 18  1  0  0  0  0
 16 26  1  0  0  0  0
 16 27  1  0  0  0  0
 16 28  1  0  0  0  0
 17 29  1  0  0  0  0
 17 30  1  0  0  0  0
 17 31  1  0  0  0  0
 18 32  1  0  0  0  0
M  END
>  <Mol_ID>
5157

>  <Formula>
C14H14O4

>  <MolWeight>
246.25856

>  <Cat>
S3283

>  <Name>
Marmesin

>  <Synonyms>
S-(+)-Marmesin, (+)-Marmesin, (S)-Marmesin

>  <Target>
COX,Lipoxygenase

>  <Form>
free base

>  <CAS>
13849-08-6

>  <URL>
http://www.selleckchem.com/products/marmesin.html

$$$$
