matrine.cdx
 OpenBabel08302521363D

 42 45  0  0  0  0  0  0  0  0999 V2000
   -2.9117    0.4450   -0.1934 C   0  0  0  0  0  0  0  0  0  0  0  0
   -3.0743    1.9433   -0.2727 C   0  0  0  0  0  0  0  0  0  0  0  0
   -1.9368    2.6159    0.4643 C   0  0  0  0  0  0  0  0  0  0  0  0
   -0.6868    2.3752   -0.2245 N   0  0  3  0  0  0  0  0  0  0  0  0
   -0.3617    1.0143   -0.6588 C   0  0  3  0  0  0  0  0  0  0  0  0
   -1.4856   -0.0564   -0.4922 C   0  0  3  0  0  0  0  0  0  0  0  0
    0.3354    3.3634    0.0617 C   0  0  0  0  0  0  0  0  0  0  0  0
    1.7522    2.9172   -0.2457 C   0  0  0  0  0  0  0  0  0  0  0  0
    1.9644    1.5472    0.3614 C   0  0  0  0  0  0  0  0  0  0  0  0
    1.1043    0.5021   -0.3728 C   0  0  3  0  0  0  0  0  0  0  0  0
    1.2787   -0.8697    0.3409 C   0  0  3  0  0  0  0  0  0  0  0  0
    0.1196   -1.7383    0.1961 N   0  0  0  0  0  0  0  0  0  0  0  0
   -1.1330   -1.1084    0.5446 C   0  0  0  0  0  0  0  0  0  0  0  0
    2.5924   -1.5490   -0.0801 C   0  0  0  0  0  0  0  0  0  0  0  0
    2.6544   -2.9436    0.5190 C   0  0  0  0  0  0  0  0  0  0  0  0
    1.5210   -3.7603   -0.0611 C   0  0  0  0  0  0  0  0  0  0  0  0
    0.1776   -3.1263    0.2045 C   0  0  0  0  0  0  0  0  0  0  0  0
   -0.8194   -3.8422    0.3173 O   0  0  0  0  0  0  0  0  0  0  0  0
   -3.2132    0.1356    0.8175 H   0  0  0  0  0  0  0  0  0  0  0  0
   -3.6261   -0.0427   -0.8683 H   0  0  0  0  0  0  0  0  0  0  0  0
   -3.1087    2.2712   -1.3196 H   0  0  0  0  0  0  0  0  0  0  0  0
   -4.0305    2.2319    0.1816 H   0  0  0  0  0  0  0  0  0  0  0  0
   -2.1494    3.6913    0.5154 H   0  0  0  0  0  0  0  0  0  0  0  0
   -1.8656    2.2455    1.4946 H   0  0  0  0  0  0  0  0  0  0  0  0
   -0.3478    1.1550   -1.7537 H   0  0  0  0  0  0  0  0  0  0  0  0
   -1.5475   -0.5773   -1.4609 H   0  0  0  0  0  0  0  0  0  0  0  0
    0.1238    4.2830   -0.4962 H   0  0  0  0  0  0  0  0  0  0  0  0
    0.2950    3.6301    1.1263 H   0  0  0  0  0  0  0  0  0  0  0  0
    1.9328    2.8944   -1.3268 H   0  0  0  0  0  0  0  0  0  0  0  0
    2.4598    3.6328    0.1884 H   0  0  0  0  0  0  0  0  0  0  0  0
    3.0257    1.2850    0.3062 H   0  0  0  0  0  0  0  0  0  0  0  0
    1.6977    1.5733    1.4268 H   0  0  0  0  0  0  0  0  0  0  0  0
    1.5555    0.3957   -1.3723 H   0  0  0  0  0  0  0  0  0  0  0  0
    1.3493   -0.6942    1.4238 H   0  0  0  0  0  0  0  0  0  0  0  0
   -1.9374   -1.8483    0.6151 H   0  0  0  0  0  0  0  0  0  0  0  0
   -1.0248   -0.6633    1.5422 H   0  0  0  0  0  0  0  0  0  0  0  0
    2.6578   -1.6205   -1.1737 H   0  0  0  0  0  0  0  0  0  0  0  0
    3.4557   -0.9661    0.2576 H   0  0  0  0  0  0  0  0  0  0  0  0
    3.6159   -3.4158    0.2932 H   0  0  0  0  0  0  0  0  0  0  0  0
    2.5617   -2.8871    1.6109 H   0  0  0  0  0  0  0  0  0  0  0  0
    1.6357   -3.8782   -1.1460 H   0  0  0  0  0  0  0  0  0  0  0  0
    1.5265   -4.7593    0.3887 H   0  0  0  0  0  0  0  0  0  0  0  0
  1  2  1  0  0  0  0
  1 19  1  0  0  0  0
  1 20  1  0  0  0  0
  2  3  1  0  0  0  0
  2 21  1  0  0  0  0
  2 22  1  0  0  0  0
  3  4  1  0  0  0  0
  3 23  1  0  0  0  0
  3 24  1  0  0  0  0
  4  7  1  0  0  0  0
  5  4  1  0  0  0  0
  5  6  1  0  0  0  0
  5 25  1  0  0  0  0
  6  1  1  0  0  0  0
  6 26  1  0  0  0  0
  7  8  1  0  0  0  0
  7 27  1  0  0  0  0
  7 28  1  0  0  0  0
  8  9  1  0  0  0  0
  8 29  1  0  0  0  0
  8 30  1  0  0  0  0
  9 31  1  0  0  0  0
  9 32  1  0  0  0  0
 10  9  1  0  0  0  0
 10  5  1  0  0  0  0
 10 11  1  0  0  0  0
 10 33  1  0  0  0  0
 11 12  1  0  0  0  0
 11 14  1  0  0  0  0
 11 34  1  0  0  0  0
 12 13  1  0  0  0  0
 13  6  1  0  0  0  0
 13 35  1  0  0  0  0
 13 36  1  0  0  0  0
 14 15  1  0  0  0  0
 14 37  1  0  0  0  0
 14 38  1  0  0  0  0
 15 16  1  0  0  0  0
 15 39  1  0  0  0  0
 15 40  1  0  0  0  0
 16 17  1  0  0  0  0
 16 41  1  0  0  0  0
 16 42  1  0  0  0  0
 17 12  1  0  0  0  0
 17 18  2  0  0  0  0
M  END
>  <Mol_ID>
703

>  <Formula>
C15H24N2O

>  <MolWeight>
248.36386

>  <Cat>
S2322

>  <Name>
(+)-Matrine

>  <Synonyms>
N/A

>  <Target>
Opioid Receptor

>  <Form>
free base

>  <CAS>
519-02-8

>  <URL>
http://selleckchem.com/products/matrine.html

$$$$
