Mavacamten (MYK-461)
 OpenBabel08302521233D

 39 40  0  0  0  0  0  0  0  0999 V2000
    2.8532   -7.2627    1.4865 N   0  0  0  0  0  0  0  0  0  0  0  0
    3.4502   -6.6089    2.5471 C   0  0  0  0  0  0  0  0  0  0  0  0
    3.7388   -5.1656    2.3678 C   0  0  0  0  0  0  0  0  0  0  0  0
    3.3267   -4.5205    1.2726 C   0  0  0  0  0  0  0  0  0  0  0  0
    2.6835   -5.2429    0.3183 N   0  0  0  0  0  0  0  0  0  0  0  0
    2.4412   -6.5857    0.3485 C   0  0  0  0  0  0  0  0  0  0  0  0
    2.5631   -8.7060    1.5739 C   0  0  0  0  0  0  0  0  0  0  0  0
    3.8212   -9.5540    1.7874 C   0  0  0  0  0  0  0  0  0  0  0  0
    1.4926   -9.0180    2.6227 C   0  0  0  0  0  0  0  0  0  0  0  0
    1.8755   -7.1095   -0.6109 O   0  0  0  0  0  0  0  0  0  0  0  0
    3.7487   -7.1184    3.6263 O   0  0  0  0  0  0  0  0  0  0  0  0
    3.5347   -3.1691    1.0445 N   0  0  0  0  0  0  0  0  0  0  0  0
    2.4646   -2.1949    1.3333 C   0  0  2  0  0  0  0  0  0  0  0  0
    2.4953   -1.0639    0.3149 C   0  0  0  0  0  0  0  0  0  0  0  0
    2.5686   -1.7234    2.7875 C   0  0  0  0  0  0  0  0  0  0  0  0
    3.1359    0.1653    0.5456 C   0  0  0  0  0  0  0  0  0  0  0  0
    3.0316    1.2127   -0.3758 C   0  0  0  0  0  0  0  0  0  0  0  0
    2.3085    1.0418   -1.5531 C   0  0  0  0  0  0  0  0  0  0  0  0
    1.7097   -0.1848   -1.8231 C   0  0  0  0  0  0  0  0  0  0  0  0
    1.8077   -1.2297   -0.9002 C   0  0  0  0  0  0  0  0  0  0  0  0
    4.2499   -4.6751    3.1856 H   0  0  0  0  0  0  0  0  0  0  0  0
    2.4188   -4.7639   -0.5311 H   0  0  0  0  0  0  0  0  0  0  0  0
    2.1472   -9.0330    0.6135 H   0  0  0  0  0  0  0  0  0  0  0  0
    4.2845   -9.3789    2.7616 H   0  0  0  0  0  0  0  0  0  0  0  0
    3.5764  -10.6198    1.7282 H   0  0  0  0  0  0  0  0  0  0  0  0
    4.5661   -9.3372    1.0166 H   0  0  0  0  0  0  0  0  0  0  0  0
    0.5857   -8.4324    2.4349 H   0  0  0  0  0  0  0  0  0  0  0  0
    1.2198  -10.0782    2.5901 H   0  0  0  0  0  0  0  0  0  0  0  0
    1.8293   -8.7946    3.6397 H   0  0  0  0  0  0  0  0  0  0  0  0
    4.3951   -2.8505    1.4908 H   0  0  0  0  0  0  0  0  0  0  0  0
    1.4875   -2.6888    1.2339 H   0  0  0  0  0  0  0  0  0  0  0  0
    1.7778   -1.0017    3.0233 H   0  0  0  0  0  0  0  0  0  0  0  0
    2.4696   -2.5658    3.4822 H   0  0  0  0  0  0  0  0  0  0  0  0
    3.5338   -1.2509    3.0026 H   0  0  0  0  0  0  0  0  0  0  0  0
    3.7071    0.3427    1.4515 H   0  0  0  0  0  0  0  0  0  0  0  0
    3.5079    2.1683   -0.1682 H   0  0  0  0  0  0  0  0  0  0  0  0
    2.2141    1.8626   -2.2598 H   0  0  0  0  0  0  0  0  0  0  0  0
    1.1547   -0.3263   -2.7470 H   0  0  0  0  0  0  0  0  0  0  0  0
    1.3213   -2.1764   -1.1271 H   0  0  0  0  0  0  0  0  0  0  0  0
  1  2  1  0  0  0  0
  1  7  1  0  0  0  0
  2  3  1  0  0  0  0
  2 11  2  0  0  0  0
  3  4  2  0  0  0  0
  3 21  1  0  0  0  0
  4  5  1  0  0  0  0
  4 12  1  0  0  0  0
  5  6  1  0  0  0  0
  5 22  1  0  0  0  0
  6  1  1  0  0  0  0
  6 10  2  0  0  0  0
  7  8  1  0  0  0  0
  7  9  1  0  0  0  0
  7 23  1  0  0  0  0
  8 24  1  0  0  0  0
  8 25  1  0  0  0  0
  8 26  1  0  0  0  0
  9 27  1  0  0  0  0
  9 28  1  0  0  0  0
  9 29  1  0  0  0  0
 12 30  1  0  0  0  0
 13 15  1  0  0  0  0
 13 31  1  6  0  0  0
 13 14  1  0  0  0  0
 13 12  1  0  0  0  0
 14 16  2  0  0  0  0
 15 32  1  0  0  0  0
 15 33  1  0  0  0  0
 15 34  1  0  0  0  0
 16 17  1  0  0  0  0
 16 35  1  0  0  0  0
 17 18  2  0  0  0  0
 17 36  1  0  0  0  0
 18 19  1  0  0  0  0
 18 37  1  0  0  0  0
 19 20  2  0  0  0  0
 19 38  1  0  0  0  0
 20 14  1  0  0  0  0
 20 39  1  0  0  0  0
M  END
>  <Mol_ID>
4811

>  <Formula>
C15H19N3O2

>  <MolWeight>
273.33026

>  <Cat>
S8861

>  <Name>
Mavacamten (MYK-461)

>  <Synonyms>
SAR439152

>  <Target>
MLCK

>  <Form>
Free Base

>  <CAS>
1642288-47-8

>  <URL>
http://www.selleck.cn/products/myk-461.html

$$$$
