Mavacoxib
 OpenBabel08302521243D

 37 39  0  0  0  0  0  0  0  0999 V2000
    1.3708   -0.3101    0.2192 C   0  0  0  0  0  0  0  0  0  0  0  0
    0.4442   -1.2804    0.6154 C   0  0  0  0  0  0  0  0  0  0  0  0
   -0.9261   -1.0066    0.5219 C   0  0  0  0  0  0  0  0  0  0  0  0
   -1.3581    0.2270    0.0130 C   0  0  0  0  0  0  0  0  0  0  0  0
   -0.4183    1.2264   -0.2761 C   0  0  0  0  0  0  0  0  0  0  0  0
    0.9452    0.9543   -0.1890 C   0  0  0  0  0  0  0  0  0  0  0  0
    3.1053   -0.6508    0.2590 S   0  0  0  0  0  0  0  0  0  0  0  0
    3.8327    0.5915    0.3634 O   0  0  0  0  0  0  0  0  0  0  0  0
    3.3577   -1.7776    1.1268 O   0  0  0  0  0  0  0  0  0  0  0  0
    3.3801   -1.2052   -1.3090 N   0  0  0  0  0  0  0  0  0  0  0  0
   -2.7429    0.4308   -0.2612 N   0  0  0  0  0  0  0  0  0  0  0  0
   -3.6755   -0.1950    0.5060 N   0  0  0  0  0  0  0  0  0  0  0  0
   -4.8512    0.3512    0.1538 C   0  0  0  0  0  0  0  0  0  0  0  0
   -4.6867    1.2043   -0.9627 C   0  0  0  0  0  0  0  0  0  0  0  0
   -3.3372    1.1951   -1.2729 C   0  0  0  0  0  0  0  0  0  0  0  0
   -6.1562    0.0527    0.8458 C   0  0  0  0  0  0  0  0  0  0  0  0
   -6.0406   -0.7944    1.8994 F   0  0  0  0  0  0  0  0  0  0  0  0
   -6.7320    1.1917    1.3180 F   0  0  0  0  0  0  0  0  0  0  0  0
   -7.0586   -0.5037   -0.0098 F   0  0  0  0  0  0  0  0  0  0  0  0
   -2.6635    1.8029   -2.4334 C   0  0  0  0  0  0  0  0  0  0  0  0
   -1.5960    1.1655   -3.0884 C   0  0  0  0  0  0  0  0  0  0  0  0
   -0.8967    1.8056   -4.1138 C   0  0  0  0  0  0  0  0  0  0  0  0
   -1.3149    3.0540   -4.5489 C   0  0  0  0  0  0  0  0  0  0  0  0
   -2.4215    3.6704   -3.9806 C   0  0  0  0  0  0  0  0  0  0  0  0
   -3.0918    3.0492   -2.9210 C   0  0  0  0  0  0  0  0  0  0  0  0
   -0.6439    3.6698   -5.5302 F   0  0  0  0  0  0  0  0  0  0  0  0
    0.7765   -2.2567    0.9654 H   0  0  0  0  0  0  0  0  0  0  0  0
   -1.6424   -1.7833    0.7880 H   0  0  0  0  0  0  0  0  0  0  0  0
   -0.7256    2.2232   -0.5850 H   0  0  0  0  0  0  0  0  0  0  0  0
    1.6628    1.7245   -0.4631 H   0  0  0  0  0  0  0  0  0  0  0  0
    3.9485   -0.5318   -1.8238 H   0  0  0  0  0  0  0  0  0  0  0  0
    3.7910   -2.1390   -1.2720 H   0  0  0  0  0  0  0  0  0  0  0  0
   -5.4735    1.7163   -1.5022 H   0  0  0  0  0  0  0  0  0  0  0  0
   -1.2639    0.1757   -2.7836 H   0  0  0  0  0  0  0  0  0  0  0  0
   -0.0277    1.3380   -4.5659 H   0  0  0  0  0  0  0  0  0  0  0  0
   -2.7480    4.6358   -4.3548 H   0  0  0  0  0  0  0  0  0  0  0  0
   -3.9405    3.5621   -2.4734 H   0  0  0  0  0  0  0  0  0  0  0  0
  1  2  2  0  0  0  0
  1  6  1  0  0  0  0
  1  7  1  0  0  0  0
  2  3  1  0  0  0  0
  2 27  1  0  0  0  0
  3  4  2  0  0  0  0
  3 28  1  0  0  0  0
  4  5  1  0  0  0  0
  4 11  1  0  0  0  0
  5  6  2  0  0  0  0
  5 29  1  0  0  0  0
  6 30  1  0  0  0  0
  7  8  2  0  0  0  0
  7  9  2  0  0  0  0
  7 10  1  0  0  0  0
 10 31  1  0  0  0  0
 10 32  1  0  0  0  0
 11 12  1  0  0  0  0
 11 15  1  0  0  0  0
 12 13  2  0  0  0  0
 13 14  1  0  0  0  0
 13 16  1  0  0  0  0
 14 15  2  0  0  0  0
 14 33  1  0  0  0  0
 15 20  1  0  0  0  0
 16 17  1  0  0  0  0
 16 18  1  0  0  0  0
 16 19  1  0  0  0  0
 20 21  2  0  0  0  0
 20 25  1  0  0  0  0
 21 22  1  0  0  0  0
 21 34  1  0  0  0  0
 22 23  2  0  0  0  0
 22 35  1  0  0  0  0
 23 24  1  0  0  0  0
 23 26  1  0  0  0  0
 24 25  2  0  0  0  0
 24 36  1  0  0  0  0
 25 37  1  0  0  0  0
M  END
>  <Mol_ID>
4918

>  <Formula>
C16H11F4N3O2S

>  <MolWeight>
385.3360528

>  <Cat>
S6685

>  <Name>
Mavacoxib

>  <Synonyms>
Trocoxil

>  <Target>
COX

>  <Form>
Free Base

>  <CAS>
170569-88-7

>  <URL>
http://www.selleckchem.com/products/mavacoxib.html

$$$$
