Mavorixafor
 OpenBabel08302521373D

 53 56  0  0  1  0  0  0  0  0999 V2000
    3.1849   -0.4642   -1.2761 N   0  0  0  0  0  0  0  0  0  0  0  0
    2.4828   -1.6109   -1.9200 C   0  0  0  0  0  0  0  0  0  0  0  0
    4.6482   -0.5399   -1.3619 C   0  0  0  0  0  0  0  0  0  0  0  0
    5.2598   -0.7688   -2.7578 C   0  0  0  0  0  0  0  0  0  0  0  0
    5.0219    0.3628   -3.7680 C   0  0  0  0  0  0  0  0  0  0  0  0
    5.5089    1.7500   -3.3322 C   0  0  0  0  0  0  0  0  0  0  0  0
    6.9332    1.7751   -3.0332 N   0  0  0  0  0  0  0  0  0  0  0  0
    2.6660   -0.1903    0.1132 C   0  0  2  0  0  0  0  0  0  0  0  0
    1.1675    0.1763    0.1560 C   0  0  0  0  0  0  0  0  0  0  0  0
    3.4241    0.9300    0.8779 C   0  0  0  0  0  0  0  0  0  0  0  0
    0.7182    1.4997    0.2742 C   0  0  0  0  0  0  0  0  0  0  0  0
    0.2948   -0.8642    0.1005 N   0  0  0  0  0  0  0  0  0  0  0  0
    3.1212    2.3117    0.3039 C   0  0  0  0  0  0  0  0  0  0  0  0
    1.6503    2.6610    0.4904 C   0  0  0  0  0  0  0  0  0  0  0  0
   -0.6634    1.7348    0.2954 C   0  0  0  0  0  0  0  0  0  0  0  0
   -1.0278   -0.6013    0.1123 C   0  0  0  0  0  0  0  0  0  0  0  0
   -1.5512    0.6717    0.2020 C   0  0  0  0  0  0  0  0  0  0  0  0
    2.6606   -3.0077   -1.3635 C   0  0  0  0  0  0  0  0  0  0  0  0
    3.8776   -3.6447   -1.2681 N   0  0  0  0  0  0  0  0  0  0  0  0
    1.6887   -3.8672   -1.1030 N   0  0  0  0  0  0  0  0  0  0  0  0
    3.6680   -4.9792   -1.0334 C   0  0  0  0  0  0  0  0  0  0  0  0
    2.2888   -5.0914   -0.9376 C   0  0  0  0  0  0  0  0  0  0  0  0
    4.5382   -6.0688   -0.9450 C   0  0  0  0  0  0  0  0  0  0  0  0
    1.7181   -6.3596   -0.7538 C   0  0  0  0  0  0  0  0  0  0  0  0
    3.9499   -7.3299   -0.7908 C   0  0  0  0  0  0  0  0  0  0  0  0
    2.5634   -7.4769   -0.7010 C   0  0  0  0  0  0  0  0  0  0  0  0
    1.4111   -1.4016   -1.9892 H   0  0  0  0  0  0  0  0  0  0  0  0
    2.7702   -1.6532   -2.9779 H   0  0  0  0  0  0  0  0  0  0  0  0
    5.0866    0.3961   -1.0064 H   0  0  0  0  0  0  0  0  0  0  0  0
    5.0293   -1.3083   -0.6801 H   0  0  0  0  0  0  0  0  0  0  0  0
    6.3424   -0.9089   -2.6346 H   0  0  0  0  0  0  0  0  0  0  0  0
    4.9101   -1.7076   -3.1968 H   0  0  0  0  0  0  0  0  0  0  0  0
    5.5191    0.0911   -4.7101 H   0  0  0  0  0  0  0  0  0  0  0  0
    3.9515    0.4238   -3.9969 H   0  0  0  0  0  0  0  0  0  0  0  0
    5.3096    2.4602   -4.1421 H   0  0  0  0  0  0  0  0  0  0  0  0
    4.9455    2.1009   -2.4633 H   0  0  0  0  0  0  0  0  0  0  0  0
    7.2039    2.7216   -2.7692 H   0  0  0  0  0  0  0  0  0  0  0  0
    7.1332    1.1954   -2.2200 H   0  0  0  0  0  0  0  0  0  0  0  0
    2.7956   -1.1047    0.7082 H   0  0  0  0  0  0  0  0  0  0  0  0
    4.5042    0.7576    0.8993 H   0  0  0  0  0  0  0  0  0  0  0  0
    3.1199    0.9104    1.9335 H   0  0  0  0  0  0  0  0  0  0  0  0
    3.7349    3.0705    0.8050 H   0  0  0  0  0  0  0  0  0  0  0  0
    3.3782    2.3521   -0.7592 H   0  0  0  0  0  0  0  0  0  0  0  0
    1.5032    3.0129    1.5192 H   0  0  0  0  0  0  0  0  0  0  0  0
    1.3848    3.4875   -0.1785 H   0  0  0  0  0  0  0  0  0  0  0  0
   -1.0483    2.7463    0.3994 H   0  0  0  0  0  0  0  0  0  0  0  0
   -1.6677   -1.4731    0.0366 H   0  0  0  0  0  0  0  0  0  0  0  0
   -2.6237    0.8301    0.2146 H   0  0  0  0  0  0  0  0  0  0  0  0
    4.7753   -3.2354   -1.4644 H   0  0  0  0  0  0  0  0  0  0  0  0
    5.6136   -5.9565   -1.0248 H   0  0  0  0  0  0  0  0  0  0  0  0
    0.6411   -6.4666   -0.6954 H   0  0  0  0  0  0  0  0  0  0  0  0
    4.5840   -8.2139   -0.7538 H   0  0  0  0  0  0  0  0  0  0  0  0
    2.1312   -8.4700   -0.6023 H   0  0  0  0  0  0  0  0  0  0  0  0
  1  2  1  0  0  0  0
  1  3  1  0  0  0  0
  2 18  1  0  0  0  0
  2 27  1  0  0  0  0
  2 28  1  0  0  0  0
  3  4  1  0  0  0  0
  3 29  1  0  0  0  0
  3 30  1  0  0  0  0
  4  5  1  0  0  0  0
  4 31  1  0  0  0  0
  4 32  1  0  0  0  0
  5  6  1  0  0  0  0
  5 33  1  0  0  0  0
  5 34  1  0  0  0  0
  6  7  1  0  0  0  0
  6 35  1  0  0  0  0
  6 36  1  0  0  0  0
  7 37  1  0  0  0  0
  7 38  1  0  0  0  0
  8  9  1  0  0  0  0
  8 10  1  0  0  0  0
  8 39  1  1  0  0  0
  8  1  1  0  0  0  0
  9 11  2  0  0  0  0
  9 12  1  0  0  0  0
 10 13  1  0  0  0  0
 10 40  1  0  0  0  0
 10 41  1  0  0  0  0
 11 14  1  0  0  0  0
 11 15  1  0  0  0  0
 12 16  2  0  0  0  0
 13 14  1  0  0  0  0
 13 42  1  0  0  0  0
 13 43  1  0  0  0  0
 14 44  1  0  0  0  0
 14 45  1  0  0  0  0
 15 17  2  0  0  0  0
 15 46  1  0  0  0  0
 16 17  1  0  0  0  0
 16 47  1  0  0  0  0
 17 48  1  0  0  0  0
 18 19  1  0  0  0  0
 18 20  2  0  0  0  0
 19 21  1  0  0  0  0
 19 49  1  0  0  0  0
 20 22  1  0  0  0  0
 21 22  2  0  0  0  0
 21 23  1  0  0  0  0
 22 24  1  0  0  0  0
 23 25  2  0  0  0  0
 23 50  1  0  0  0  0
 24 26  2  0  0  0  0
 24 51  1  0  0  0  0
 25 26  1  0  0  0  0
 25 52  1  0  0  0  0
 26 53  1  0  0  0  0
M  END
>  <Mol_ID>
7511

>  <Formula>
C21H27N5

>  <MolWeight>
349.47258

>  <Cat>
E1318

>  <Name>
Mavorixafor

>  <Synonyms>
AMD-070

>  <Target>
CXCR

>  <Form>
free base

>  <CAS>
558447-26-0

>  <URL>
https://www.selleckchem.com/products/mavorixafor.html

$$$$
