MAXALT (rizatriptan benzoate).cdx
 OpenBabel08302520343D

 54 56  0  0  0  0  0  0  0  0999 V2000
    0.9038    1.6949    1.2247 C   0  0  0  0  0  0  0  0  0  0  0  0
    2.0300    0.8784    1.2103 C   0  0  0  0  0  0  0  0  0  0  0  0
    1.8951   -0.5097    1.1783 C   0  0  0  0  0  0  0  0  0  0  0  0
    0.5858   -1.0901    1.2292 C   0  0  0  0  0  0  0  0  0  0  0  0
   -0.5953   -0.2875    1.0968 C   0  0  0  0  0  0  0  0  0  0  0  0
   -0.3638    1.0982    1.1225 C   0  0  0  0  0  0  0  0  0  0  0  0
   -2.0363   -0.4706    0.7894 C   0  0  0  0  0  0  0  0  0  0  0  0
   -2.5460    0.8194    0.7029 C   0  0  0  0  0  0  0  0  0  0  0  0
   -1.5713    1.7255    0.9674 N   0  0  0  0  0  0  0  0  0  0  0  0
    3.1208   -1.3416    0.8316 C   0  0  0  0  0  0  0  0  0  0  0  0
    4.1138   -1.5406    1.8712 N   0  0  0  0  0  0  0  0  0  0  0  0
    3.9282   -1.8249    3.1835 C   0  0  0  0  0  0  0  0  0  0  0  0
    5.0830   -2.1304    3.7381 N   0  0  0  0  0  0  0  0  0  0  0  0
    5.9593   -2.0405    2.6953 C   0  0  0  0  0  0  0  0  0  0  0  0
    5.4172   -1.6884    1.5274 N   0  0  0  0  0  0  0  0  0  0  0  0
   -2.9374   -1.6116    0.2952 C   0  0  0  0  0  0  0  0  0  0  0  0
   -3.3034   -2.8626    1.0981 C   0  0  0  0  0  0  0  0  0  0  0  0
   -3.9932   -2.6573    2.3726 N   0  0  0  0  0  0  0  0  0  0  0  0
   -5.3143   -2.0607    2.1917 C   0  0  0  0  0  0  0  0  0  0  0  0
   -4.1009   -3.9341    3.0880 C   0  0  0  0  0  0  0  0  0  0  0  0
    1.9344   -0.3508   -2.3314 C   0  0  0  0  0  0  0  0  0  0  0  0
    1.4738   -1.6541   -2.0682 C   0  0  0  0  0  0  0  0  0  0  0  0
    0.1169   -1.9241   -1.9591 C   0  0  0  0  0  0  0  0  0  0  0  0
   -0.7943   -0.8897   -2.2383 C   0  0  0  0  0  0  0  0  0  0  0  0
   -0.3347    0.4205   -2.4754 C   0  0  0  0  0  0  0  0  0  0  0  0
    1.0277    0.6927   -2.4900 C   0  0  0  0  0  0  0  0  0  0  0  0
   -0.2707   -3.2171   -1.3020 C   0  0  0  0  0  0  0  0  0  0  0  0
    0.1719   -4.3091   -1.9381 O   0  0  0  0  0  0  0  0  0  0  0  0
   -0.8271   -3.3378   -0.2405 O   0  0  0  0  0  0  0  0  0  0  0  0
    1.0135    2.7755    1.2054 H   0  0  0  0  0  0  0  0  0  0  0  0
    3.0128    1.3467    1.1488 H   0  0  0  0  0  0  0  0  0  0  0  0
    0.4970   -2.1714    1.2517 H   0  0  0  0  0  0  0  0  0  0  0  0
   -3.5275    1.1541    0.3961 H   0  0  0  0  0  0  0  0  0  0  0  0
   -1.6850    2.7265    0.9153 H   0  0  0  0  0  0  0  0  0  0  0  0
    2.8436   -2.3371    0.4701 H   0  0  0  0  0  0  0  0  0  0  0  0
    3.6493   -0.8418    0.0047 H   0  0  0  0  0  0  0  0  0  0  0  0
    2.9641   -1.8150    3.6664 H   0  0  0  0  0  0  0  0  0  0  0  0
    7.0189   -2.2449    2.7908 H   0  0  0  0  0  0  0  0  0  0  0  0
   -3.8870   -1.1487   -0.0144 H   0  0  0  0  0  0  0  0  0  0  0  0
   -2.5777   -1.9704   -0.6645 H   0  0  0  0  0  0  0  0  0  0  0  0
   -3.9416   -3.4838    0.4441 H   0  0  0  0  0  0  0  0  0  0  0  0
   -2.4115   -3.4605    1.2846 H   0  0  0  0  0  0  0  0  0  0  0  0
   -6.0096   -2.7366    1.6779 H   0  0  0  0  0  0  0  0  0  0  0  0
   -5.7371   -1.7956    3.1644 H   0  0  0  0  0  0  0  0  0  0  0  0
   -5.2696   -1.1326    1.6141 H   0  0  0  0  0  0  0  0  0  0  0  0
   -5.0499   -4.4501    2.9014 H   0  0  0  0  0  0  0  0  0  0  0  0
   -3.3024   -4.6397    2.8221 H   0  0  0  0  0  0  0  0  0  0  0  0
   -4.0047   -3.7487    4.1607 H   0  0  0  0  0  0  0  0  0  0  0  0
    3.0000   -0.1351   -2.3274 H   0  0  0  0  0  0  0  0  0  0  0  0
    2.2110   -2.4240   -1.8377 H   0  0  0  0  0  0  0  0  0  0  0  0
   -1.8626   -1.0311   -2.1985 H   0  0  0  0  0  0  0  0  0  0  0  0
   -1.0500    1.2386   -2.5742 H   0  0  0  0  0  0  0  0  0  0  0  0
    1.3819    1.7187   -2.5757 H   0  0  0  0  0  0  0  0  0  0  0  0
    0.6834   -4.1110   -2.7319 H   0  0  0  0  0  0  0  0  0  0  0  0
  1  2  2  0  0  0  0
  1 30  1  0  0  0  0
  2  3  1  0  0  0  0
  2 31  1  0  0  0  0
  3  4  2  0  0  0  0
  3 10  1  0  0  0  0
  4  5  1  0  0  0  0
  4 32  1  0  0  0  0
  5  6  2  0  0  0  0
  5  7  1  0  0  0  0
  6  1  1  0  0  0  0
  7  8  2  0  0  0  0
  7 16  1  0  0  0  0
  8  9  1  0  0  0  0
  8 33  1  0  0  0  0
  9  6  1  0  0  0  0
  9 34  1  0  0  0  0
 10 11  1  0  0  0  0
 10 35  1  0  0  0  0
 10 36  1  0  0  0  0
 11 12  1  0  0  0  0
 12 13  2  0  0  0  0
 12 37  1  0  0  0  0
 13 14  1  0  0  0  0
 14 15  2  0  0  0  0
 14 38  1  0  0  0  0
 15 11  1  0  0  0  0
 16 17  1  0  0  0  0
 16 39  1  0  0  0  0
 16 40  1  0  0  0  0
 17 18  1  0  0  0  0
 17 41  1  0  0  0  0
 17 42  1  0  0  0  0
 18 19  1  0  0  0  0
 18 20  1  0  0  0  0
 19 43  1  0  0  0  0
 19 44  1  0  0  0  0
 19 45  1  0  0  0  0
 20 46  1  0  0  0  0
 20 47  1  0  0  0  0
 20 48  1  0  0  0  0
 21 22  2  0  0  0  0
 21 49  1  0  0  0  0
 22 23  1  0  0  0  0
 22 50  1  0  0  0  0
 23 24  2  0  0  0  0
 23 27  1  0  0  0  0
 24 25  1  0  0  0  0
 24 51  1  0  0  0  0
 25 26  2  0  0  0  0
 25 52  1  0  0  0  0
 26 21  1  0  0  0  0
 26 53  1  0  0  0  0
 27 28  1  0  0  0  0
 27 29  2  0  0  0  0
 28 54  1  0  0  0  0
M  END
>  <Mol_ID>
345

>  <Formula>
C22H25N5O2

>  <MolWeight>
391.4662

>  <Cat>
S1607

>  <Name>
Rizatriptan Benzoate

>  <Synonyms>
MK-462 Benzoate

>  <Target>
5-HT Receptor

>  <Form>
Benzoate

>  <CAS>
145202-66-0

>  <URL>
http://selleckchem.com/products/Rizatriptan-Benzoate(Maxalt).html

$$$$
