MBCQ
 OpenBabel08302521323D

 34 37  0  0  0  0  0  0  0  0999 V2000
    1.0276   -0.2761    0.0068 N   0  0  0  0  0  0  0  0  0  0  0  0
    0.1820    0.2587    1.0653 C   0  0  0  0  0  0  0  0  0  0  0  0
    1.1553   -1.0014   -2.3123 C   0  0  0  0  0  0  0  0  0  0  0  0
    0.3890   -0.5172   -1.2302 C   0  0  0  0  0  0  0  0  0  0  0  0
    0.4453   -1.2505   -3.4976 C   0  0  0  0  0  0  0  0  0  0  0  0
    2.5504   -1.2509   -2.2760 C   0  0  0  0  0  0  0  0  0  0  0  0
   -0.9373   -0.3245   -1.3282 N   0  0  0  0  0  0  0  0  0  0  0  0
    1.1389   -1.7398   -4.5996 C   0  0  0  0  0  0  0  0  0  0  0  0
   -0.8693   -1.0434   -3.6078 N   0  0  0  0  0  0  0  0  0  0  0  0
    3.2239   -1.7350   -3.3949 C   0  0  0  0  0  0  0  0  0  0  0  0
   -1.4966   -0.5935   -2.5159 C   0  0  0  0  0  0  0  0  0  0  0  0
    2.5144   -1.9837   -4.5614 C   0  0  0  0  0  0  0  0  0  0  0  0
    1.0505    0.5482    2.2747 C   0  0  0  0  0  0  0  0  0  0  0  0
    1.6353    1.8164    2.4412 C   0  0  0  0  0  0  0  0  0  0  0  0
    1.3216   -0.4691    3.2208 C   0  0  0  0  0  0  0  0  0  0  0  0
    2.4470    2.0224    3.5384 C   0  0  0  0  0  0  0  0  0  0  0  0
    2.1460   -0.2279    4.3262 C   0  0  0  0  0  0  0  0  0  0  0  0
    2.6944    1.0290    4.4556 C   0  0  0  0  0  0  0  0  0  0  0  0
    3.0883    3.1825    3.8453 O   0  0  0  0  0  0  0  0  0  0  0  0
    3.5209    1.4385    5.4552 O   0  0  0  0  0  0  0  0  0  0  0  0
    3.7632    2.8057    5.0641 C   0  0  0  0  0  0  0  0  0  0  0  0
    1.8406    0.3120   -0.1450 H   0  0  0  0  0  0  0  0  0  0  0  0
   -0.3141    1.1867    0.7530 H   0  0  0  0  0  0  0  0  0  0  0  0
   -0.5999   -0.4583    1.3467 H   0  0  0  0  0  0  0  0  0  0  0  0
    3.1146   -1.0777   -1.3629 H   0  0  0  0  0  0  0  0  0  0  0  0
    0.5907   -1.9436   -5.5176 H   0  0  0  0  0  0  0  0  0  0  0  0
    4.2933   -1.9236   -3.3501 H   0  0  0  0  0  0  0  0  0  0  0  0
   -2.5650   -0.4295   -2.6020 H   0  0  0  0  0  0  0  0  0  0  0  0
    3.0231   -2.3723   -5.4398 H   0  0  0  0  0  0  0  0  0  0  0  0
    1.4615    2.6190    1.7323 H   0  0  0  0  0  0  0  0  0  0  0  0
    0.8891   -1.4597    3.0883 H   0  0  0  0  0  0  0  0  0  0  0  0
    2.3529   -1.0040    5.0544 H   0  0  0  0  0  0  0  0  0  0  0  0
    4.8417    2.9455    4.9256 H   0  0  0  0  0  0  0  0  0  0  0  0
    3.4257    3.4667    5.8711 H   0  0  0  0  0  0  0  0  0  0  0  0
  1  2  1  0  0  0  0
  1  4  1  0  0  0  0
  1 22  1  0  0  0  0
  2 13  1  0  0  0  0
  2 23  1  0  0  0  0
  2 24  1  0  0  0  0
  3  4  1  0  0  0  0
  3  5  1  0  0  0  0
  3  6  2  0  0  0  0
  4  7  2  0  0  0  0
  5  8  2  0  0  0  0
  5  9  1  0  0  0  0
  6 10  1  0  0  0  0
  6 25  1  0  0  0  0
  7 11  1  0  0  0  0
  8 12  1  0  0  0  0
  8 26  1  0  0  0  0
  9 11  2  0  0  0  0
 10 12  2  0  0  0  0
 10 27  1  0  0  0  0
 11 28  1  0  0  0  0
 12 29  1  0  0  0  0
 13 14  2  0  0  0  0
 13 15  1  0  0  0  0
 14 16  1  0  0  0  0
 14 30  1  0  0  0  0
 15 17  2  0  0  0  0
 15 31  1  0  0  0  0
 16 18  2  0  0  0  0
 16 19  1  0  0  0  0
 17 18  1  0  0  0  0
 17 32  1  0  0  0  0
 18 20  1  0  0  0  0
 19 21  1  0  0  0  0
 20 21  1  0  0  0  0
 21 33  1  0  0  0  0
 21 34  1  0  0  0  0
M  END
>  <Mol_ID>
6139

>  <Formula>
C16H12ClN3O2

>  <MolWeight>
313.73838

>  <Cat>
E0337

>  <Name>
MBCQ

>  <Target>
PDE

>  <Form>
free base

>  <CAS>
150450-53-6

>  <URL>
http://www.selleckchem.com/products/mbcq.html

$$$$
