MBP146-78
 OpenBabel08302521243D

 47 50  0  0  0  0  0  0  0  0999 V2000
   -1.2853   -1.0432    0.7193 C   0  0  0  0  0  0  0  0  0  0  0  0
    0.1026   -1.0725    0.8914 C   0  0  0  0  0  0  0  0  0  0  0  0
    0.8717   -0.0098    0.4390 C   0  0  0  0  0  0  0  0  0  0  0  0
    0.2763    1.0952   -0.1517 C   0  0  0  0  0  0  0  0  0  0  0  0
   -1.1148    1.1399   -0.2860 C   0  0  0  0  0  0  0  0  0  0  0  0
   -1.9162    0.0578    0.1135 C   0  0  0  0  0  0  0  0  0  0  0  0
   -3.3766    0.0715   -0.0912 C   0  0  0  0  0  0  0  0  0  0  0  0
   -4.2115    0.5852   -1.0904 C   0  0  0  0  0  0  0  0  0  0  0  0
   -5.5540    0.3356   -0.6819 C   0  0  0  0  0  0  0  0  0  0  0  0
   -5.5448   -0.3232    0.5295 C   0  0  0  0  0  0  0  0  0  0  0  0
   -4.2200   -0.5050    0.8464 N   0  0  0  0  0  0  0  0  0  0  0  0
   -3.8139    1.2629   -2.3257 C   0  0  0  0  0  0  0  0  0  0  0  0
   -2.6849    0.8892   -3.0529 C   0  0  0  0  0  0  0  0  0  0  0  0
   -2.3774    1.5864   -4.2108 C   0  0  0  0  0  0  0  0  0  0  0  0
   -3.1362    2.5828   -4.7144 N   0  0  0  0  0  0  0  0  0  0  0  0
   -4.2477    2.8984   -4.0229 C   0  0  0  0  0  0  0  0  0  0  0  0
   -4.6172    2.2890   -2.8370 C   0  0  0  0  0  0  0  0  0  0  0  0
   -6.6958   -0.8227    1.3824 C   0  0  0  0  0  0  0  0  0  0  0  0
   -7.9365    0.0792    1.2773 C   0  0  0  0  0  0  0  0  0  0  0  0
   -7.7177    1.4276    1.9686 C   0  0  0  0  0  0  0  0  0  0  0  0
   -7.3187    1.2828    3.3767 N   0  0  0  0  0  0  0  0  0  0  0  0
   -6.1653    0.3894    3.5484 C   0  0  0  0  0  0  0  0  0  0  0  0
   -6.3617   -0.9676    2.8722 C   0  0  0  0  0  0  0  0  0  0  0  0
   -7.0053    2.6031    3.9351 C   0  0  0  0  0  0  0  0  0  0  0  0
    2.2034   -0.0516    0.5750 F   0  0  0  0  0  0  0  0  0  0  0  0
   -1.8598   -1.9053    1.0490 H   0  0  0  0  0  0  0  0  0  0  0  0
    0.5869   -1.9224    1.3618 H   0  0  0  0  0  0  0  0  0  0  0  0
    0.8930    1.9145   -0.5071 H   0  0  0  0  0  0  0  0  0  0  0  0
   -1.5630    2.0282   -0.7261 H   0  0  0  0  0  0  0  0  0  0  0  0
   -6.4454    0.6156   -1.2283 H   0  0  0  0  0  0  0  0  0  0  0  0
   -3.8895   -0.9573    1.6848 H   0  0  0  0  0  0  0  0  0  0  0  0
   -2.0409    0.0782   -2.7337 H   0  0  0  0  0  0  0  0  0  0  0  0
   -1.4828    1.3538   -4.7788 H   0  0  0  0  0  0  0  0  0  0  0  0
   -4.8609    3.6833   -4.4634 H   0  0  0  0  0  0  0  0  0  0  0  0
   -5.5204    2.6148   -2.3313 H   0  0  0  0  0  0  0  0  0  0  0  0
   -6.9614   -1.8152    0.9930 H   0  0  0  0  0  0  0  0  0  0  0  0
   -8.7891   -0.4293    1.7482 H   0  0  0  0  0  0  0  0  0  0  0  0
   -8.2254    0.2433    0.2330 H   0  0  0  0  0  0  0  0  0  0  0  0
   -8.6625    1.9846    1.9235 H   0  0  0  0  0  0  0  0  0  0  0  0
   -6.9772    2.0134    1.4097 H   0  0  0  0  0  0  0  0  0  0  0  0
   -5.2475    0.8595    3.1725 H   0  0  0  0  0  0  0  0  0  0  0  0
   -6.0126    0.2116    4.6211 H   0  0  0  0  0  0  0  0  0  0  0  0
   -7.1873   -1.4941    3.3701 H   0  0  0  0  0  0  0  0  0  0  0  0
   -5.4738   -1.5924    3.0257 H   0  0  0  0  0  0  0  0  0  0  0  0
   -6.7597    2.5245    5.0001 H   0  0  0  0  0  0  0  0  0  0  0  0
   -6.1580    3.0733    3.4229 H   0  0  0  0  0  0  0  0  0  0  0  0
   -7.8678    3.2743    3.8549 H   0  0  0  0  0  0  0  0  0  0  0  0
  1  2  2  0  0  0  0
  1 26  1  0  0  0  0
  2  3  1  0  0  0  0
  2 27  1  0  0  0  0
  3  4  2  0  0  0  0
  3 25  1  0  0  0  0
  4  5  1  0  0  0  0
  4 28  1  0  0  0  0
  5  6  2  0  0  0  0
  5 29  1  0  0  0  0
  6  1  1  0  0  0  0
  6  7  1  0  0  0  0
  7  8  2  0  0  0  0
  8  9  1  0  0  0  0
  8 12  1  0  0  0  0
  9 10  2  0  0  0  0
  9 30  1  0  0  0  0
 10 11  1  0  0  0  0
 10 18  1  0  0  0  0
 11  7  1  0  0  0  0
 11 31  1  0  0  0  0
 12 13  2  0  0  0  0
 13 14  1  0  0  0  0
 13 32  1  0  0  0  0
 14 15  2  0  0  0  0
 14 33  1  0  0  0  0
 15 16  1  0  0  0  0
 16 17  2  0  0  0  0
 16 34  1  0  0  0  0
 17 12  1  0  0  0  0
 17 35  1  0  0  0  0
 18 19  1  0  0  0  0
 18 36  1  0  0  0  0
 19 20  1  0  0  0  0
 19 37  1  0  0  0  0
 19 38  1  0  0  0  0
 20 21  1  0  0  0  0
 20 39  1  0  0  0  0
 20 40  1  0  0  0  0
 21 22  1  0  0  0  0
 21 24  1  0  0  0  0
 22 23  1  0  0  0  0
 22 41  1  0  0  0  0
 22 42  1  0  0  0  0
 23 18  1  0  0  0  0
 23 43  1  0  0  0  0
 23 44  1  0  0  0  0
 24 45  1  0  0  0  0
 24 46  1  0  0  0  0
 24 47  1  0  0  0  0
M  END
>  <Mol_ID>
5067

>  <Formula>
C21H22FN3

>  <MolWeight>
335.4178832

>  <Cat>
S0378

>  <Name>
MBP146-78

>  <Synonyms>
N/A

>  <Target>
PKG

>  <Form>
free base

>  <CAS>
188343-77-3

>  <URL>
http://www.selleckchem.com/products/mbp146-78.html

$$$$
