MC-1568.cdx
 OpenBabel08302520003D

 38 39  0  0  0  0  0  0  0  0999 V2000
   -1.5901    0.7913    2.0155 C   0  0  0  0  0  0  0  0  0  0  0  0
   -0.9979    0.5362    3.2500 C   0  0  0  0  0  0  0  0  0  0  0  0
   -0.8265   -0.7789    3.6670 C   0  0  0  0  0  0  0  0  0  0  0  0
   -1.2279   -1.8499    2.8728 C   0  0  0  0  0  0  0  0  0  0  0  0
   -1.8084   -1.6011    1.6244 C   0  0  0  0  0  0  0  0  0  0  0  0
   -1.9985   -0.2739    1.2075 C   0  0  0  0  0  0  0  0  0  0  0  0
   -0.2663   -1.0227    4.8591 F   0  0  0  0  0  0  0  0  0  0  0  0
   -2.2559   -2.6928    0.7117 C   0  0  0  0  0  0  0  0  0  0  0  0
   -1.5210   -3.9844    0.7628 C   0  0  0  0  0  0  0  0  0  0  0  0
   -1.8678   -5.0154   -0.0268 C   0  0  0  0  0  0  0  0  0  0  0  0
   -1.2051   -6.2806   -0.0538 C   0  0  0  0  0  0  0  0  0  0  0  0
   -3.1744   -2.4968   -0.0767 O   0  0  0  0  0  0  0  0  0  0  0  0
   -0.1308   -6.6631    0.7153 C   0  0  0  0  0  0  0  0  0  0  0  0
    0.1983   -7.9601    0.3931 N   0  0  0  0  0  0  0  0  0  0  0  0
   -0.6430   -8.4230   -0.6034 C   0  0  0  0  0  0  0  0  0  0  0  0
   -1.5254   -7.3855   -0.8789 C   0  0  0  0  0  0  0  0  0  0  0  0
    1.2707   -8.6768    1.0543 C   0  0  0  0  0  0  0  0  0  0  0  0
   -0.5005   -9.7369   -1.1389 C   0  0  0  0  0  0  0  0  0  0  0  0
   -1.3264  -10.1749   -2.1033 C   0  0  0  0  0  0  0  0  0  0  0  0
   -1.1830  -11.5345   -2.6745 C   0  0  0  0  0  0  0  0  0  0  0  0
   -2.1127  -11.8112   -3.6452 N   0  0  0  0  0  0  0  0  0  0  0  0
   -0.3277  -12.3373   -2.3233 O   0  0  0  0  0  0  0  0  0  0  0  0
   -2.0582  -13.0879   -4.2443 O   0  0  0  0  0  0  0  0  0  0  0  0
   -1.7362    1.8158    1.6810 H   0  0  0  0  0  0  0  0  0  0  0  0
   -0.6762    1.3509    3.8919 H   0  0  0  0  0  0  0  0  0  0  0  0
   -1.0935   -2.8525    3.2630 H   0  0  0  0  0  0  0  0  0  0  0  0
   -2.4629   -0.0664    0.2441 H   0  0  0  0  0  0  0  0  0  0  0  0
   -0.6774   -4.0622    1.4329 H   0  0  0  0  0  0  0  0  0  0  0  0
   -2.7115   -4.8904   -0.7052 H   0  0  0  0  0  0  0  0  0  0  0  0
    0.4305   -6.1309    1.4711 H   0  0  0  0  0  0  0  0  0  0  0  0
   -2.3253   -7.4165   -1.6075 H   0  0  0  0  0  0  0  0  0  0  0  0
    0.8408   -9.5273    1.5883 H   0  0  0  0  0  0  0  0  0  0  0  0
    1.9959   -8.9987    0.3041 H   0  0  0  0  0  0  0  0  0  0  0  0
    1.7638   -8.0118    1.7704 H   0  0  0  0  0  0  0  0  0  0  0  0
    0.2848  -10.3952   -0.7735 H   0  0  0  0  0  0  0  0  0  0  0  0
   -2.1209   -9.5591   -2.5012 H   0  0  0  0  0  0  0  0  0  0  0  0
   -2.8409  -11.1844   -3.9642 H   0  0  0  0  0  0  0  0  0  0  0  0
   -1.3005  -13.5061   -3.7815 H   0  0  0  0  0  0  0  0  0  0  0  0
  1  2  2  0  0  0  0
  1 24  1  0  0  0  0
  2  3  1  0  0  0  0
  2 25  1  0  0  0  0
  3  4  2  0  0  0  0
  3  7  1  0  0  0  0
  4  5  1  0  0  0  0
  4 26  1  0  0  0  0
  5  6  2  0  0  0  0
  5  8  1  0  0  0  0
  6  1  1  0  0  0  0
  6 27  1  0  0  0  0
  8  9  1  0  0  0  0
  8 12  2  0  0  0  0
  9 10  2  0  0  0  0
  9 28  1  0  0  0  0
 10 11  1  0  0  0  0
 10 29  1  0  0  0  0
 11 13  2  0  0  0  0
 13 14  1  0  0  0  0
 13 30  1  0  0  0  0
 14 15  1  0  0  0  0
 14 17  1  0  0  0  0
 15 16  2  0  0  0  0
 15 18  1  0  0  0  0
 16 11  1  0  0  0  0
 16 31  1  0  0  0  0
 17 32  1  0  0  0  0
 17 33  1  0  0  0  0
 17 34  1  0  0  0  0
 18 19  2  0  0  0  0
 18 35  1  0  0  0  0
 19 20  1  0  0  0  0
 19 36  1  0  0  0  0
 20 21  1  0  0  0  0
 20 22  2  0  0  0  0
 21 23  1  0  0  0  0
 21 37  1  0  0  0  0
 23 38  1  0  0  0  0
M  END
>  <Mol_ID>
284

>  <Formula>
C17H15FN2O3

>  <MolWeight>
314.3110032

>  <Cat>
S1484

>  <Name>
MC1568

>  <Synonyms>
N/A

>  <Target>
HDAC

>  <Form>
free base

>  <CAS>
852475-26-4

>  <URL>
http://selleckchem.com/products/MC1568.html

$$$$
