MCC950
 OpenBabel08302521303D

 52 55  0  0  0  0  0  0  0  0999 V2000
    2.0832   -6.7354    3.5664 C   0  0  0  0  0  0  0  0  0  0  0  0
    1.3723   -5.6191    3.9591 C   0  0  0  0  0  0  0  0  0  0  0  0
    0.6178   -5.1307    2.9405 O   0  0  0  0  0  0  0  0  0  0  0  0
    0.8039   -5.9499    1.8470 C   0  0  0  0  0  0  0  0  0  0  0  0
    1.6788   -6.9579    2.2220 C   0  0  0  0  0  0  0  0  0  0  0  0
    3.0950   -7.5421    4.3374 C   0  0  0  0  0  0  0  0  0  0  0  0
    0.0474   -5.6424    0.2511 S   0  0  0  0  0  0  0  0  0  0  0  0
    0.6641   -6.6202   -0.6272 O   0  0  0  0  0  0  0  0  0  0  0  0
   -1.3732   -5.6065    0.4835 O   0  0  0  0  0  0  0  0  0  0  0  0
    0.5057   -4.1603   -0.2978 N   0  0  0  0  0  0  0  0  0  0  0  0
    1.7757   -3.6154   -0.4086 C   0  0  0  0  0  0  0  0  0  0  0  0
    2.8363   -4.4281   -0.1045 N   0  0  0  0  0  0  0  0  0  0  0  0
    1.8599   -2.4678   -0.8200 O   0  0  0  0  0  0  0  0  0  0  0  0
    4.1642   -3.9676   -0.0349 C   0  0  0  0  0  0  0  0  0  0  0  0
    4.5514   -2.8316    0.6776 C   0  0  0  0  0  0  0  0  0  0  0  0
    5.9047   -2.4297    0.7114 C   0  0  0  0  0  0  0  0  0  0  0  0
    6.8939   -3.1171    0.0268 C   0  0  0  0  0  0  0  0  0  0  0  0
    6.5009   -4.2400   -0.6832 C   0  0  0  0  0  0  0  0  0  0  0  0
    5.1667   -4.6828   -0.6908 C   0  0  0  0  0  0  0  0  0  0  0  0
    7.3562   -5.0508   -1.6030 C   0  0  0  0  0  0  0  0  0  0  0  0
    6.4662   -6.2588   -1.9063 C   0  0  0  0  0  0  0  0  0  0  0  0
    5.0142   -5.8668   -1.5971 C   0  0  0  0  0  0  0  0  0  0  0  0
    3.7472   -1.9378    1.5805 C   0  0  0  0  0  0  0  0  0  0  0  0
    4.6686   -0.7191    1.7285 C   0  0  0  0  0  0  0  0  0  0  0  0
    6.1014   -1.2339    1.5922 C   0  0  0  0  0  0  0  0  0  0  0  0
    4.2917   -6.6725    4.7425 C   0  0  0  0  0  0  0  0  0  0  0  0
    2.4800   -8.2122    5.5697 C   0  0  0  0  0  0  0  0  0  0  0  0
    3.6036   -8.5914    3.4987 O   0  0  0  0  0  0  0  0  0  0  0  0
    1.3179   -5.0577    4.8833 H   0  0  0  0  0  0  0  0  0  0  0  0
    2.0211   -7.7507    1.5691 H   0  0  0  0  0  0  0  0  0  0  0  0
   -0.2583   -3.5635   -0.5966 H   0  0  0  0  0  0  0  0  0  0  0  0
    2.7054   -5.3954   -0.3745 H   0  0  0  0  0  0  0  0  0  0  0  0
    7.9253   -2.7814    0.0319 H   0  0  0  0  0  0  0  0  0  0  0  0
    8.2951   -5.3557   -1.1311 H   0  0  0  0  0  0  0  0  0  0  0  0
    7.5680   -4.4792   -2.5125 H   0  0  0  0  0  0  0  0  0  0  0  0
    6.5824   -6.5977   -2.9421 H   0  0  0  0  0  0  0  0  0  0  0  0
    6.7618   -7.0994   -1.2654 H   0  0  0  0  0  0  0  0  0  0  0  0
    4.4855   -5.5735   -2.5104 H   0  0  0  0  0  0  0  0  0  0  0  0
    4.4865   -6.6938   -1.1133 H   0  0  0  0  0  0  0  0  0  0  0  0
    2.7898   -1.6206    1.1682 H   0  0  0  0  0  0  0  0  0  0  0  0
    3.5831   -2.4276    2.5456 H   0  0  0  0  0  0  0  0  0  0  0  0
    4.5046   -0.1836    2.6688 H   0  0  0  0  0  0  0  0  0  0  0  0
    4.4621   -0.0102    0.9143 H   0  0  0  0  0  0  0  0  0  0  0  0
    6.5071   -1.5421    2.5610 H   0  0  0  0  0  0  0  0  0  0  0  0
    6.7528   -0.4837    1.1348 H   0  0  0  0  0  0  0  0  0  0  0  0
    3.9944   -5.8419    5.3915 H   0  0  0  0  0  0  0  0  0  0  0  0
    5.0490   -7.2658    5.2681 H   0  0  0  0  0  0  0  0  0  0  0  0
    4.7853   -6.2541    3.8565 H   0  0  0  0  0  0  0  0  0  0  0  0
    1.6598   -8.8824    5.2828 H   0  0  0  0  0  0  0  0  0  0  0  0
    3.2215   -8.8366    6.0837 H   0  0  0  0  0  0  0  0  0  0  0  0
    2.0920   -7.4815    6.2856 H   0  0  0  0  0  0  0  0  0  0  0  0
    4.2925   -9.0642    3.9946 H   0  0  0  0  0  0  0  0  0  0  0  0
  1  2  2  0  0  0  0
  1  6  1  0  0  0  0
  2  3  1  0  0  0  0
  2 29  1  0  0  0  0
  3  4  1  0  0  0  0
  4  5  2  0  0  0  0
  4  7  1  0  0  0  0
  5  1  1  0  0  0  0
  5 30  1  0  0  0  0
  6 26  1  0  0  0  0
  6 27  1  0  0  0  0
  6 28  1  0  0  0  0
  7  8  2  0  0  0  0
  7  9  2  0  0  0  0
  7 10  1  0  0  0  0
 10 11  1  0  0  0  0
 10 31  1  0  0  0  0
 11 12  1  0  0  0  0
 11 13  2  0  0  0  0
 12 14  1  0  0  0  0
 12 32  1  0  0  0  0
 14 15  2  0  0  0  0
 15 16  1  0  0  0  0
 15 23  1  0  0  0  0
 16 17  2  0  0  0  0
 17 18  1  0  0  0  0
 17 33  1  0  0  0  0
 18 19  2  0  0  0  0
 18 20  1  0  0  0  0
 19 14  1  0  0  0  0
 20 21  1  0  0  0  0
 20 34  1  0  0  0  0
 20 35  1  0  0  0  0
 21 22  1  0  0  0  0
 21 36  1  0  0  0  0
 21 37  1  0  0  0  0
 22 19  1  0  0  0  0
 22 38  1  0  0  0  0
 22 39  1  0  0  0  0
 23 24  1  0  0  0  0
 23 40  1  0  0  0  0
 23 41  1  0  0  0  0
 24 25  1  0  0  0  0
 24 42  1  0  0  0  0
 24 43  1  0  0  0  0
 25 16  1  0  0  0  0
 25 44  1  0  0  0  0
 25 45  1  0  0  0  0
 26 46  1  0  0  0  0
 26 47  1  0  0  0  0
 26 48  1  0  0  0  0
 27 49  1  0  0  0  0
 27 50  1  0  0  0  0
 27 51  1  0  0  0  0
 28 52  1  0  0  0  0
M  END
>  <Mol_ID>
5546

>  <Formula>
C20H24N2O5S

>  <MolWeight>
404.47996

>  <Cat>
S8930

>  <Name>
MCC950

>  <Synonyms>
CP-456773, CRID3

>  <Target>
NLRP3

>  <Form>
Free Base

>  <CAS>
210826-40-7

>  <URL>
https://www.selleckchem.com/products/mcc950.html

$$$$
