MCC950.cdx
 OpenBabel08302521363D

 52 55  0  0  0  0  0  0  0  0999 V2000
    2.0312   -6.7888    3.6962 C   0  0  0  0  0  0  0  0  0  0  0  0
    1.3376   -5.6538    4.0660 C   0  0  0  0  0  0  0  0  0  0  0  0
    0.6170   -5.1556    3.0246 O   0  0  0  0  0  0  0  0  0  0  0  0
    0.8161   -5.9783    1.9386 C   0  0  0  0  0  0  0  0  0  0  0  0
    1.6846   -6.9876    2.3313 C   0  0  0  0  0  0  0  0  0  0  0  0
    2.9536   -7.6663    4.5050 C   0  0  0  0  0  0  0  0  0  0  0  0
    0.0738   -5.6883    0.3342 S   0  0  0  0  0  0  0  0  0  0  0  0
    0.7036   -6.6679   -0.5291 O   0  0  0  0  0  0  0  0  0  0  0  0
   -1.3600   -5.6743    0.5580 O   0  0  0  0  0  0  0  0  0  0  0  0
    0.5119   -4.2060   -0.2195 N   0  0  0  0  0  0  0  0  0  0  0  0
    1.7796   -3.6642   -0.3459 C   0  0  0  0  0  0  0  0  0  0  0  0
    2.8435   -4.4742   -0.0424 N   0  0  0  0  0  0  0  0  0  0  0  0
    1.8596   -2.5186   -0.7691 O   0  0  0  0  0  0  0  0  0  0  0  0
    4.1702   -4.0099    0.0017 C   0  0  0  0  0  0  0  0  0  0  0  0
    4.5625   -2.8608    0.6893 C   0  0  0  0  0  0  0  0  0  0  0  0
    5.9115   -2.4431    0.6845 C   0  0  0  0  0  0  0  0  0  0  0  0
    6.8910   -3.1313   -0.0148 C   0  0  0  0  0  0  0  0  0  0  0  0
    6.4942   -4.2703   -0.6931 C   0  0  0  0  0  0  0  0  0  0  0  0
    5.1655   -4.7289   -0.6609 C   0  0  0  0  0  0  0  0  0  0  0  0
    7.3385   -5.0878   -1.6172 C   0  0  0  0  0  0  0  0  0  0  0  0
    6.4571   -6.3119   -1.8807 C   0  0  0  0  0  0  0  0  0  0  0  0
    5.0088   -5.9395   -1.5332 C   0  0  0  0  0  0  0  0  0  0  0  0
    3.7718   -1.9632    1.6017 C   0  0  0  0  0  0  0  0  0  0  0  0
    4.6808   -0.7318    1.7065 C   0  0  0  0  0  0  0  0  0  0  0  0
    6.1166   -1.2306    1.5399 C   0  0  0  0  0  0  0  0  0  0  0  0
    2.5989   -7.6976    5.9939 C   0  0  0  0  0  0  0  0  0  0  0  0
    2.8599   -9.0188    4.0321 O   0  0  0  0  0  0  0  0  0  0  0  0
    4.4189   -7.2539    4.3278 C   0  0  0  0  0  0  0  0  0  0  0  0
    1.2510   -5.0985    4.9899 H   0  0  0  0  0  0  0  0  0  0  0  0
    2.0302   -7.7851    1.6852 H   0  0  0  0  0  0  0  0  0  0  0  0
   -0.2554   -3.6112   -0.5109 H   0  0  0  0  0  0  0  0  0  0  0  0
    2.7108   -5.4433   -0.3051 H   0  0  0  0  0  0  0  0  0  0  0  0
    7.9168   -2.7827   -0.0388 H   0  0  0  0  0  0  0  0  0  0  0  0
    8.2909   -5.3723   -1.1612 H   0  0  0  0  0  0  0  0  0  0  0  0
    7.5231   -4.5298   -2.5414 H   0  0  0  0  0  0  0  0  0  0  0  0
    6.5475   -6.6590   -2.9161 H   0  0  0  0  0  0  0  0  0  0  0  0
    6.7862   -7.1416   -1.2421 H   0  0  0  0  0  0  0  0  0  0  0  0
    4.4424   -5.6839   -2.4342 H   0  0  0  0  0  0  0  0  0  0  0  0
    4.5157   -6.7635   -1.0076 H   0  0  0  0  0  0  0  0  0  0  0  0
    2.7982   -1.6658    1.2140 H   0  0  0  0  0  0  0  0  0  0  0  0
    3.6428   -2.4417    2.5784 H   0  0  0  0  0  0  0  0  0  0  0  0
    4.5359   -0.1834    2.6425 H   0  0  0  0  0  0  0  0  0  0  0  0
    4.4447   -0.0384    0.8869 H   0  0  0  0  0  0  0  0  0  0  0  0
    6.5517   -1.5192    2.5032 H   0  0  0  0  0  0  0  0  0  0  0  0
    6.7458   -0.4815    1.0536 H   0  0  0  0  0  0  0  0  0  0  0  0
    1.5640   -8.0266    6.1435 H   0  0  0  0  0  0  0  0  0  0  0  0
    3.2318   -8.4165    6.5273 H   0  0  0  0  0  0  0  0  0  0  0  0
    2.7194   -6.7170    6.4662 H   0  0  0  0  0  0  0  0  0  0  0  0
    1.9228   -9.2744    4.0879 H   0  0  0  0  0  0  0  0  0  0  0  0
    4.7173   -7.2931    3.2730 H   0  0  0  0  0  0  0  0  0  0  0  0
    4.6097   -6.2420    4.6989 H   0  0  0  0  0  0  0  0  0  0  0  0
    5.0825   -7.9487    4.8574 H   0  0  0  0  0  0  0  0  0  0  0  0
  1  2  2  0  0  0  0
  1  6  1  0  0  0  0
  2  3  1  0  0  0  0
  2 29  1  0  0  0  0
  3  4  1  0  0  0  0
  4  5  2  0  0  0  0
  4  7  1  0  0  0  0
  5  1  1  0  0  0  0
  5 30  1  0  0  0  0
  6 26  1  0  0  0  0
  6 27  1  0  0  0  0
  6 28  1  0  0  0  0
  7  8  2  0  0  0  0
  7  9  2  0  0  0  0
  7 10  1  0  0  0  0
 10 11  1  0  0  0  0
 10 31  1  0  0  0  0
 11 12  1  0  0  0  0
 11 13  2  0  0  0  0
 12 14  1  0  0  0  0
 12 32  1  0  0  0  0
 14 15  2  0  0  0  0
 15 16  1  0  0  0  0
 15 23  1  0  0  0  0
 16 17  2  0  0  0  0
 17 18  1  0  0  0  0
 17 33  1  0  0  0  0
 18 19  2  0  0  0  0
 18 20  1  0  0  0  0
 19 14  1  0  0  0  0
 20 21  1  0  0  0  0
 20 34  1  0  0  0  0
 20 35  1  0  0  0  0
 21 22  1  0  0  0  0
 21 36  1  0  0  0  0
 21 37  1  0  0  0  0
 22 19  1  0  0  0  0
 22 38  1  0  0  0  0
 22 39  1  0  0  0  0
 23 24  1  0  0  0  0
 23 40  1  0  0  0  0
 23 41  1  0  0  0  0
 24 25  1  0  0  0  0
 24 42  1  0  0  0  0
 24 43  1  0  0  0  0
 25 16  1  0  0  0  0
 25 44  1  0  0  0  0
 25 45  1  0  0  0  0
 26 46  1  0  0  0  0
 26 47  1  0  0  0  0
 26 48  1  0  0  0  0
 27 49  1  0  0  0  0
 28 50  1  0  0  0  0
 28 51  1  0  0  0  0
 28 52  1  0  0  0  0
M  END
>  <Mol_ID>
7140

>  <Formula>
C20H23N2NaO5S

>  <MolWeight>
426.46179

>  <Cat>
S7809

>  <Name>
MCC950 Sodium (CP-456773 Sodium)

>  <Synonyms>
CRID3 sodium salt

>  <Target>
NLRP3

>  <Form>
Sodium

>  <CAS>
256373-96-3

>  <URL>
http://selleckchem.com/products/mcc950-sodium-salt.html

$$$$
