MD2-IN-1
 OpenBabel08302520403D

 48 49  0  0  0  0  0  0  0  0999 V2000
    1.0868    0.2639    0.0072 O   0  0  0  0  0  0  0  0  0  0  0  0
    1.0205    1.8379    2.3766 O   0  0  0  0  0  0  0  0  0  0  0  0
   -0.3268   -2.1956    0.0041 O   0  0  0  0  0  0  0  0  0  0  0  0
   -7.2744   -5.3499    7.6464 O   0  0  0  0  0  0  0  0  0  0  0  0
   -9.0830   -4.0067    5.7934 O   0  0  0  0  0  0  0  0  0  0  0  0
   -2.9473   -2.6656    6.8703 O   0  0  0  0  0  0  0  0  0  0  0  0
   -1.1205   -1.0386    3.3445 C   0  0  0  0  0  0  0  0  0  0  0  0
    0.4330   -0.1208    1.1525 C   0  0  0  0  0  0  0  0  0  0  0  0
    0.3527    0.6421    2.3395 C   0  0  0  0  0  0  0  0  0  0  0  0
   -0.2690   -1.3425    1.0818 C   0  0  0  0  0  0  0  0  0  0  0  0
   -0.4131    0.1685    3.4186 C   0  0  0  0  0  0  0  0  0  0  0  0
   -1.0457   -1.7817    2.1663 C   0  0  0  0  0  0  0  0  0  0  0  0
   -5.0357   -3.0032    5.8319 C   0  0  0  0  0  0  0  0  0  0  0  0
   -1.8428   -1.5056    4.5396 C   0  0  0  0  0  0  0  0  0  0  0  0
   -5.4672   -3.9849    6.7387 C   0  0  0  0  0  0  0  0  0  0  0  0
   -3.6015   -2.6100    5.8312 C   0  0  0  0  0  0  0  0  0  0  0  0
   -6.8137   -4.3879    6.7887 C   0  0  0  0  0  0  0  0  0  0  0  0
   -2.9947   -2.1944    4.5329 C   0  0  0  0  0  0  0  0  0  0  0  0
   -5.9591   -2.3865    4.9904 C   0  0  0  0  0  0  0  0  0  0  0  0
   -7.7376   -3.7749    5.9219 C   0  0  0  0  0  0  0  0  0  0  0  0
   -7.2974   -2.7758    5.0397 C   0  0  0  0  0  0  0  0  0  0  0  0
    2.1704    1.1783    0.1084 C   0  0  0  0  0  0  0  0  0  0  0  0
    0.9744    2.6279    3.5551 C   0  0  0  0  0  0  0  0  0  0  0  0
    0.8680   -2.3360   -0.7575 C   0  0  0  0  0  0  0  0  0  0  0  0
   -6.3493   -5.9929    8.5127 C   0  0  0  0  0  0  0  0  0  0  0  0
   -9.6952   -5.0033    6.5967 C   0  0  0  0  0  0  0  0  0  0  0  0
   -0.4866    0.7419    4.3379 H   0  0  0  0  0  0  0  0  0  0  0  0
   -1.5660   -2.7324    2.0767 H   0  0  0  0  0  0  0  0  0  0  0  0
   -1.3838   -1.2411    5.4923 H   0  0  0  0  0  0  0  0  0  0  0  0
   -4.7231   -4.4223    7.3993 H   0  0  0  0  0  0  0  0  0  0  0  0
   -3.5058   -2.4668    3.6187 H   0  0  0  0  0  0  0  0  0  0  0  0
   -5.6701   -1.5888    4.3123 H   0  0  0  0  0  0  0  0  0  0  0  0
   -8.0187   -2.2899    4.3847 H   0  0  0  0  0  0  0  0  0  0  0  0
    2.7394    1.1247   -0.8250 H   0  0  0  0  0  0  0  0  0  0  0  0
    1.8052    2.2062    0.1939 H   0  0  0  0  0  0  0  0  0  0  0  0
    2.8557    0.9155    0.9216 H   0  0  0  0  0  0  0  0  0  0  0  0
   -0.0284    3.0387    3.7057 H   0  0  0  0  0  0  0  0  0  0  0  0
    1.3166    2.0693    4.4318 H   0  0  0  0  0  0  0  0  0  0  0  0
    1.6634    3.4667    3.4142 H   0  0  0  0  0  0  0  0  0  0  0  0
    0.9247   -1.5671   -1.5334 H   0  0  0  0  0  0  0  0  0  0  0  0
    1.7656   -2.3406   -0.1295 H   0  0  0  0  0  0  0  0  0  0  0  0
    0.8212   -3.3024   -1.2702 H   0  0  0  0  0  0  0  0  0  0  0  0
   -5.5796   -6.5257    7.9453 H   0  0  0  0  0  0  0  0  0  0  0  0
   -5.9079   -5.2803    9.2164 H   0  0  0  0  0  0  0  0  0  0  0  0
   -6.9036   -6.7352    9.0958 H   0  0  0  0  0  0  0  0  0  0  0  0
   -9.2654   -5.9918    6.4069 H   0  0  0  0  0  0  0  0  0  0  0  0
   -9.6612   -4.7329    7.6566 H   0  0  0  0  0  0  0  0  0  0  0  0
  -10.7506   -5.0539    6.3102 H   0  0  0  0  0  0  0  0  0  0  0  0
  1  8  1  0  0  0  0
  1 22  1  0  0  0  0
  2  9  1  0  0  0  0
  2 23  1  0  0  0  0
  3 10  1  0  0  0  0
  3 24  1  0  0  0  0
  4 17  1  0  0  0  0
  4 25  1  0  0  0  0
  5 20  1  0  0  0  0
  5 26  1  0  0  0  0
  6 16  2  0  0  0  0
  7 11  2  0  0  0  0
  7 12  1  0  0  0  0
  7 14  1  0  0  0  0
  8  9  2  0  0  0  0
  8 10  1  0  0  0  0
  9 11  1  0  0  0  0
 10 12  2  0  0  0  0
 11 27  1  0  0  0  0
 12 28  1  0  0  0  0
 13 15  2  0  0  0  0
 13 16  1  0  0  0  0
 13 19  1  0  0  0  0
 14 18  2  0  0  0  0
 14 29  1  0  0  0  0
 15 17  1  0  0  0  0
 15 30  1  0  0  0  0
 16 18  1  0  0  0  0
 17 20  2  0  0  0  0
 18 31  1  0  0  0  0
 19 21  2  0  0  0  0
 19 32  1  0  0  0  0
 20 21  1  0  0  0  0
 21 33  1  0  0  0  0
 22 34  1  0  0  0  0
 22 35  1  0  0  0  0
 22 36  1  0  0  0  0
 23 37  1  0  0  0  0
 23 38  1  0  0  0  0
 23 39  1  0  0  0  0
 24 40  1  0  0  0  0
 24 41  1  0  0  0  0
 24 42  1  0  0  0  0
 25 43  1  0  0  0  0
 25 44  1  0  0  0  0
 25 45  1  0  0  0  0
 26 46  1  0  0  0  0
 26 47  1  0  0  0  0
 26 48  1  0  0  0  0
M  END
>  <Mol_ID>
3842

>  <Formula>
C20H22O6

>  <MolWeight>
358.38508

>  <Cat>
S6573

>  <Name>
MD2-IN-1

>  <Synonyms>
N/A

>  <Target>
TLR

>  <Form>
free base

>  <CAS>
111797-22-9

>  <URL>
http://www.selleck.cn/products/md2-in-1.html

$$$$
