Mdivi-1.cdx
 OpenBabel08302519583D

 32 34  0  0  0  0  0  0  0  0999 V2000
    1.2431   -1.3732   -0.0046 N   0  0  0  0  0  0  0  0  0  0  0  0
    2.3482   -0.6919   -0.0727 C   0  0  0  0  0  0  0  0  0  0  0  0
    2.4024    0.6979   -0.0587 N   0  0  0  0  0  0  0  0  0  0  0  0
    1.2278    1.4511    0.0748 C   0  0  0  0  0  0  0  0  0  0  0  0
   -0.0397    0.6995    0.0447 C   0  0  0  0  0  0  0  0  0  0  0  0
   -1.2720    1.3619    0.0012 C   0  0  0  0  0  0  0  0  0  0  0  0
   -2.4504    0.6177   -0.0612 C   0  0  0  0  0  0  0  0  0  0  0  0
   -2.3909   -0.7741   -0.0407 C   0  0  0  0  0  0  0  0  0  0  0  0
   -1.1557   -1.4236    0.0187 C   0  0  0  0  0  0  0  0  0  0  0  0
    0.0327   -0.6871    0.0333 C   0  0  0  0  0  0  0  0  0  0  0  0
    1.1713    2.6723    0.2018 O   0  0  0  0  0  0  0  0  0  0  0  0
    3.6260    1.4268   -0.1086 C   0  0  0  0  0  0  0  0  0  0  0  0
    4.0112    2.2274    0.9716 C   0  0  0  0  0  0  0  0  0  0  0  0
    5.1708    2.9957    0.8873 C   0  0  0  0  0  0  0  0  0  0  0  0
    5.9320    2.9787   -0.2834 C   0  0  0  0  0  0  0  0  0  0  0  0
    5.5639    2.1697   -1.3614 C   0  0  0  0  0  0  0  0  0  0  0  0
    4.4212    1.3765   -1.2608 C   0  0  0  0  0  0  0  0  0  0  0  0
    6.3793    2.2504   -2.4571 O   0  0  0  0  0  0  0  0  0  0  0  0
    6.0296    1.4370   -3.5726 C   0  0  0  0  0  0  0  0  0  0  0  0
    3.8000   -1.6800   -0.1159 S   0  0  0  0  0  0  0  0  0  0  0  0
   -1.3150    2.4489   -0.0054 H   0  0  0  0  0  0  0  0  0  0  0  0
   -3.4100    1.1238   -0.1302 H   0  0  0  0  0  0  0  0  0  0  0  0
   -3.3067   -1.3596   -0.0843 H   0  0  0  0  0  0  0  0  0  0  0  0
   -1.1119   -2.5094    0.0334 H   0  0  0  0  0  0  0  0  0  0  0  0
    3.4216    2.2516    1.8854 H   0  0  0  0  0  0  0  0  0  0  0  0
    5.4755    3.6204    1.7234 H   0  0  0  0  0  0  0  0  0  0  0  0
    6.8184    3.6038   -0.3574 H   0  0  0  0  0  0  0  0  0  0  0  0
    4.1171    0.7287   -2.0760 H   0  0  0  0  0  0  0  0  0  0  0  0
    6.1760    0.3785   -3.3354 H   0  0  0  0  0  0  0  0  0  0  0  0
    5.0044    1.6279   -3.9091 H   0  0  0  0  0  0  0  0  0  0  0  0
    6.6967    1.6941   -4.4009 H   0  0  0  0  0  0  0  0  0  0  0  0
    4.7287   -0.7325    0.0389 H   0  0  0  0  0  0  0  0  0  0  0  0
  1  2  2  0  0  0  0
  1 10  1  0  0  0  0
  2  3  1  0  0  0  0
  2 20  1  0  0  0  0
  3  4  1  0  0  0  0
  3 12  1  0  0  0  0
  4  5  1  0  0  0  0
  4 11  2  0  0  0  0
  5  6  1  0  0  0  0
  5 10  2  0  0  0  0
  6  7  2  0  0  0  0
  6 21  1  0  0  0  0
  7  8  1  0  0  0  0
  7 22  1  0  0  0  0
  8  9  2  0  0  0  0
  8 23  1  0  0  0  0
  9 10  1  0  0  0  0
  9 24  1  0  0  0  0
 12 13  2  0  0  0  0
 12 17  1  0  0  0  0
 13 14  1  0  0  0  0
 13 25  1  0  0  0  0
 14 15  2  0  0  0  0
 14 26  1  0  0  0  0
 15 16  1  0  0  0  0
 15 27  1  0  0  0  0
 16 17  2  0  0  0  0
 16 18  1  0  0  0  0
 17 28  1  0  0  0  0
 18 19  1  0  0  0  0
 19 29  1  0  0  0  0
 19 30  1  0  0  0  0
 19 31  1  0  0  0  0
 20 32  1  0  0  0  0
M  END
>  <Mol_ID>
2329

>  <Formula>
C15H10Cl2N2O2S

>  <MolWeight>
353.2231

>  <Cat>
S7162

>  <Name>
Mdivi-1

>  <Synonyms>
Mitochondrial division inhibitor 1

>  <Target>
Apoptosis related,Dynamin,Mitophagy

>  <Form>
free base

>  <CAS>
338967-87-6

>  <URL>
http://selleckchem.com/products/mdivi-1.html

$$$$
