Mebicar
 OpenBabel08302521333D

 28 29  0  0  0  0  0  0  0  0999 V2000
    0.8906    0.0070   -0.0750 C   0  0  0  0  0  0  0  0  0  0  0  0
   -0.3935    1.5861   -3.0420 C   0  0  0  0  0  0  0  0  0  0  0  0
    0.2040   -2.5605   -5.6025 C   0  0  0  0  0  0  0  0  0  0  0  0
   -0.0158   -4.2055   -2.3978 C   0  0  0  0  0  0  0  0  0  0  0  0
   -0.3071   -2.6464    0.0278 O   0  0  0  0  0  0  0  0  0  0  0  0
   -1.1705    0.0054   -5.3423 O   0  0  0  0  0  0  0  0  0  0  0  0
    0.8692   -0.5661   -2.5396 C   0  0  3  0  0  0  0  0  0  0  0  0
    0.8228   -1.9580   -3.2205 C   0  0  3  0  0  0  0  0  0  0  0  0
    0.4845   -0.8238   -1.1783 N   0  0  0  0  0  0  0  0  0  0  0  0
   -0.0903    0.2043   -3.2920 N   0  0  0  0  0  0  0  0  0  0  0  0
    0.0752   -1.7365   -4.4292 N   0  0  0  0  0  0  0  0  0  0  0  0
    0.1310   -2.7796   -2.2549 N   0  0  0  0  0  0  0  0  0  0  0  0
    0.0369   -2.1316   -1.0262 C   0  0  0  0  0  0  0  0  0  0  0  0
   -0.4920   -0.4666   -4.4438 C   0  0  0  0  0  0  0  0  0  0  0  0
    0.5066   -0.3915    0.8678 H   0  0  0  0  0  0  0  0  0  0  0  0
    0.5206    1.0230   -0.2194 H   0  0  0  0  0  0  0  0  0  0  0  0
    1.9840    0.0139   -0.0304 H   0  0  0  0  0  0  0  0  0  0  0  0
   -0.3248    2.1515   -3.9794 H   0  0  0  0  0  0  0  0  0  0  0  0
   -1.4176    1.6563   -2.6683 H   0  0  0  0  0  0  0  0  0  0  0  0
    0.3037    2.0102   -2.3162 H   0  0  0  0  0  0  0  0  0  0  0  0
    1.2172   -2.4431   -5.9974 H   0  0  0  0  0  0  0  0  0  0  0  0
    0.0308   -3.6068   -5.3470 H   0  0  0  0  0  0  0  0  0  0  0  0
   -0.5083   -2.2478   -6.3707 H   0  0  0  0  0  0  0  0  0  0  0  0
   -0.5629   -4.4267   -3.3154 H   0  0  0  0  0  0  0  0  0  0  0  0
    0.9784   -4.6587   -2.4348 H   0  0  0  0  0  0  0  0  0  0  0  0
   -0.5627   -4.6214   -1.5477 H   0  0  0  0  0  0  0  0  0  0  0  0
    1.8617   -0.1075   -2.6077 H   0  0  0  0  0  0  0  0  0  0  0  0
    1.8243   -2.3560   -3.4150 H   0  0  0  0  0  0  0  0  0  0  0  0
  1  9  1  0  0  0  0
  1 15  1  0  0  0  0
  1 16  1  0  0  0  0
  1 17  1  0  0  0  0
  2 10  1  0  0  0  0
  2 18  1  0  0  0  0
  2 19  1  0  0  0  0
  2 20  1  0  0  0  0
  3 11  1  0  0  0  0
  3 21  1  0  0  0  0
  3 22  1  0  0  0  0
  3 23  1  0  0  0  0
  4 12  1  0  0  0  0
  4 24  1  0  0  0  0
  4 25  1  0  0  0  0
  4 26  1  0  0  0  0
  5 13  2  0  0  0  0
  6 14  2  0  0  0  0
  7  8  1  0  0  0  0
  7  9  1  0  0  0  0
  7 10  1  0  0  0  0
  7 27  1  0  0  0  0
  8 11  1  0  0  0  0
  8 12  1  0  0  0  0
  8 28  1  0  0  0  0
  9 13  1  0  0  0  0
 10 14  1  0  0  0  0
 11 14  1  0  0  0  0
 12 13  1  0  0  0  0
M  END
>  <Mol_ID>
6378

>  <Formula>
C8H14N4O2

>  <MolWeight>
198.22236

>  <Cat>
E0949

>  <Name>
Mebicar

>  <Target>
Adrenergic Receptor

>  <Form>
free base

>  <CAS>
10095-06-4

>  <URL>
http://www.selleckchem.com/products/mebicar.html

$$$$
