Mecamylamine Hydrochloride
 OpenBabel08302521223D

 33 34  0  0  0  0  0  0  0  0999 V2000
   -1.2142   -0.8406   -0.6173 C   0  0  3  0  0  0  0  0  0  0  0  0
    0.0604   -1.1202    0.2653 C   0  0  3  0  0  0  0  0  0  0  0  0
   -1.2629    0.7711   -0.5775 C   0  0  0  0  0  0  0  0  0  0  0  0
   -2.4300   -1.4226    0.0057 N   0  0  0  0  0  0  0  0  0  0  0  0
   -1.0885   -1.4165   -2.0430 C   0  0  0  0  0  0  0  0  0  0  0  0
   -0.0086   -0.0245    1.3323 C   0  0  0  0  0  0  0  0  0  0  0  0
    1.3650   -0.7284   -0.4501 C   0  0  0  0  0  0  0  0  0  0  0  0
   -0.0037    1.1040    0.2957 C   0  0  3  0  0  0  0  0  0  0  0  0
   -1.2347    1.4691   -1.9536 C   0  0  0  0  0  0  0  0  0  0  0  0
   -2.5142    1.3614    0.1333 C   0  0  0  0  0  0  0  0  0  0  0  0
   -2.4303   -2.8630    0.2204 C   0  0  0  0  0  0  0  0  0  0  0  0
    1.3168    0.8013   -0.4389 C   0  0  0  0  0  0  0  0  0  0  0  0
    0.1274   -2.1317    0.6679 H   0  0  0  0  0  0  0  0  0  0  0  0
   -2.5991   -0.9843    0.9121 H   0  0  0  0  0  0  0  0  0  0  0  0
   -0.3051   -0.9305   -2.6350 H   0  0  0  0  0  0  0  0  0  0  0  0
   -0.8363   -2.4800   -2.0314 H   0  0  0  0  0  0  0  0  0  0  0  0
   -2.0231   -1.2948   -2.6021 H   0  0  0  0  0  0  0  0  0  0  0  0
    0.8716   -0.0085    1.9849 H   0  0  0  0  0  0  0  0  0  0  0  0
   -0.9000   -0.0650    1.9606 H   0  0  0  0  0  0  0  0  0  0  0  0
    1.4725   -1.1465   -1.4524 H   0  0  0  0  0  0  0  0  0  0  0  0
    2.2289   -1.0738    0.1315 H   0  0  0  0  0  0  0  0  0  0  0  0
   -0.0218    2.1116    0.7240 H   0  0  0  0  0  0  0  0  0  0  0  0
   -2.1446    1.2472   -2.5212 H   0  0  0  0  0  0  0  0  0  0  0  0
   -1.1793    2.5579   -1.8331 H   0  0  0  0  0  0  0  0  0  0  0  0
   -0.3856    1.1825   -2.5771 H   0  0  0  0  0  0  0  0  0  0  0  0
   -2.6268    1.0266    1.1686 H   0  0  0  0  0  0  0  0  0  0  0  0
   -2.4537    2.4550    0.1772 H   0  0  0  0  0  0  0  0  0  0  0  0
   -3.4321    1.1062   -0.4085 H   0  0  0  0  0  0  0  0  0  0  0  0
   -1.6500   -3.1869    0.9139 H   0  0  0  0  0  0  0  0  0  0  0  0
   -3.3850   -3.1495    0.6756 H   0  0  0  0  0  0  0  0  0  0  0  0
   -2.3461   -3.4269   -0.7118 H   0  0  0  0  0  0  0  0  0  0  0  0
    1.3856    1.2294   -1.4403 H   0  0  0  0  0  0  0  0  0  0  0  0
    2.1669    1.1896    0.1332 H   0  0  0  0  0  0  0  0  0  0  0  0
  1  2  1  0  0  0  0
  1  3  1  0  0  0  0
  1  4  1  0  0  0  0
  1  5  1  0  0  0  0
  2  6  1  0  0  0  0
  2  7  1  0  0  0  0
  2 13  1  0  0  0  0
  3  8  1  0  0  0  0
  3  9  1  0  0  0  0
  3 10  1  0  0  0  0
  4 11  1  0  0  0  0
  4 14  1  0  0  0  0
  5 15  1  0  0  0  0
  5 16  1  0  0  0  0
  5 17  1  0  0  0  0
  6  8  1  0  0  0  0
  6 18  1  0  0  0  0
  6 19  1  0  0  0  0
  7 12  1  0  0  0  0
  7 20  1  0  0  0  0
  7 21  1  0  0  0  0
  8 12  1  0  0  0  0
  8 22  1  0  0  0  0
  9 23  1  0  0  0  0
  9 24  1  0  0  0  0
  9 25  1  0  0  0  0
 10 26  1  0  0  0  0
 10 27  1  0  0  0  0
 10 28  1  0  0  0  0
 11 29  1  0  0  0  0
 11 30  1  0  0  0  0
 11 31  1  0  0  0  0
 12 32  1  0  0  0  0
 12 33  1  0  0  0  0
M  END
>  <Mol_ID>
4620

>  <Formula>
C11H22ClN

>  <MolWeight>
203.75208

>  <Cat>
S9459

>  <Name>
Mecamylamine Hydrochloride

>  <Synonyms>
N/A

>  <Target>
AChR

>  <Form>
Hydrochloride

>  <CAS>
826-39-1

>  <URL>
N/A

$$$$
