Mecarbinate.cdx
 OpenBabel08302522013D

 32 33  0  0  0  0  0  0  0  0999 V2000
   -2.1605    0.6911    0.0057 C   0  0  0  0  0  0  0  0  0  0  0  0
   -2.1602   -0.6948   -0.0053 C   0  0  0  0  0  0  0  0  0  0  0  0
   -0.9695   -1.4148   -0.0218 C   0  0  0  0  0  0  0  0  0  0  0  0
    0.2662   -0.7278   -0.0242 C   0  0  0  0  0  0  0  0  0  0  0  0
    0.2538    0.6690   -0.0033 C   0  0  0  0  0  0  0  0  0  0  0  0
   -0.9519    1.3963    0.0076 C   0  0  0  0  0  0  0  0  0  0  0  0
    1.6355   -1.1594   -0.0511 C   0  0  0  0  0  0  0  0  0  0  0  0
    2.4226   -0.0075   -0.0152 C   0  0  0  0  0  0  0  0  0  0  0  0
    1.5715    1.0819   -0.0005 N   0  0  0  0  0  0  0  0  0  0  0  0
   -3.3250   -1.4062   -0.0012 O   0  0  0  0  0  0  0  0  0  0  0  0
    2.0067    2.4646    0.0053 C   0  0  0  0  0  0  0  0  0  0  0  0
    3.9115    0.1220   -0.0049 C   0  0  0  0  0  0  0  0  0  0  0  0
    2.0821   -2.5538   -0.1088 C   0  0  0  0  0  0  0  0  0  0  0  0
    1.3105   -3.5072   -0.1578 O   0  0  0  0  0  0  0  0  0  0  0  0
    3.4411   -2.6917   -0.1059 O   0  0  0  0  0  0  0  0  0  0  0  0
    3.9291   -4.0384   -0.1685 C   0  0  0  0  0  0  0  0  0  0  0  0
    3.8802   -4.6937    1.2003 C   0  0  0  0  0  0  0  0  0  0  0  0
   -3.0922    1.2485    0.0142 H   0  0  0  0  0  0  0  0  0  0  0  0
   -0.9991   -2.5010   -0.0316 H   0  0  0  0  0  0  0  0  0  0  0  0
   -0.9639    2.4811    0.0177 H   0  0  0  0  0  0  0  0  0  0  0  0
   -4.0696   -0.7838    0.0036 H   0  0  0  0  0  0  0  0  0  0  0  0
    2.6017    2.6345    0.9064 H   0  0  0  0  0  0  0  0  0  0  0  0
    2.6016    2.6405   -0.8949 H   0  0  0  0  0  0  0  0  0  0  0  0
    1.1513    3.1409    0.0065 H   0  0  0  0  0  0  0  0  0  0  0  0
    4.3266   -0.3554    0.8892 H   0  0  0  0  0  0  0  0  0  0  0  0
    4.3380   -0.3610   -0.8901 H   0  0  0  0  0  0  0  0  0  0  0  0
    4.2555    1.1591   -0.0070 H   0  0  0  0  0  0  0  0  0  0  0  0
    3.3800   -4.6202   -0.9181 H   0  0  0  0  0  0  0  0  0  0  0  0
    4.9692   -3.9822   -0.5061 H   0  0  0  0  0  0  0  0  0  0  0  0
    2.8506   -4.7976    1.5566 H   0  0  0  0  0  0  0  0  0  0  0  0
    4.3339   -5.6880    1.1685 H   0  0  0  0  0  0  0  0  0  0  0  0
    4.4108   -4.0835    1.9384 H   0  0  0  0  0  0  0  0  0  0  0  0
  1  2  2  0  0  0  0
  1 18  1  0  0  0  0
  2  3  1  0  0  0  0
  2 10  1  0  0  0  0
  3  4  2  0  0  0  0
  3 19  1  0  0  0  0
  4  5  1  0  0  0  0
  4  7  1  0  0  0  0
  5  6  2  0  0  0  0
  6  1  1  0  0  0  0
  6 20  1  0  0  0  0
  7  8  2  0  0  0  0
  7 13  1  0  0  0  0
  8  9  1  0  0  0  0
  8 12  1  0  0  0  0
  9  5  1  0  0  0  0
  9 11  1  0  0  0  0
 10 21  1  0  0  0  0
 11 22  1  0  0  0  0
 11 23  1  0  0  0  0
 11 24  1  0  0  0  0
 12 25  1  0  0  0  0
 12 26  1  0  0  0  0
 12 27  1  0  0  0  0
 13 14  2  0  0  0  0
 13 15  1  0  0  0  0
 15 16  1  0  0  0  0
 16 17  1  0  0  0  0
 16 28  1  0  0  0  0
 16 29  1  0  0  0  0
 17 30  1  0  0  0  0
 17 31  1  0  0  0  0
 17 32  1  0  0  0  0
M  END
>  <Mol_ID>
1134

>  <Formula>
C13H15NO3

>  <MolWeight>
233.2631

>  <Cat>
S2074

>  <Name>
Mecarbinate

>  <Synonyms>
Dimecarbin

>  <Target>
HCV Protease

>  <Form>
free base

>  <CAS>
15574-49-9

>  <URL>
http://selleckchem.com/products/mecarbinate.html

$$$$
