Meclofenamate sodium.cdx
 OpenBabel08302522063D

 30 31  0  0  0  0  0  0  0  0999 V2000
   -1.1312    1.1405   -0.7160 C   0  0  0  0  0  0  0  0  0  0  0  0
    0.0978    1.3466   -0.0893 C   0  0  0  0  0  0  0  0  0  0  0  0
    0.7331    0.2899    0.5660 C   0  0  0  0  0  0  0  0  0  0  0  0
    0.1213   -0.9731    0.5737 C   0  0  0  0  0  0  0  0  0  0  0  0
   -1.1144   -1.2008   -0.0516 C   0  0  0  0  0  0  0  0  0  0  0  0
   -1.7320   -0.1219   -0.6962 C   0  0  0  0  0  0  0  0  0  0  0  0
   -1.7086   -2.4801   -0.1198 N   0  0  0  0  0  0  0  0  0  0  0  0
   -1.1140   -3.7433    0.0959 C   0  0  0  0  0  0  0  0  0  0  0  0
    0.1636   -4.0024   -0.4325 C   0  0  0  0  0  0  0  0  0  0  0  0
    0.8377   -5.1928   -0.1633 C   0  0  0  0  0  0  0  0  0  0  0  0
    0.2492   -6.1562    0.6470 C   0  0  0  0  0  0  0  0  0  0  0  0
   -1.0245   -5.9345    1.1688 C   0  0  0  0  0  0  0  0  0  0  0  0
   -1.7122   -4.7379    0.8957 C   0  0  0  0  0  0  0  0  0  0  0  0
   -3.0739   -4.5351    1.4460 C   0  0  0  0  0  0  0  0  0  0  0  0
   -3.9141   -3.7663    1.0126 O   0  0  0  0  0  0  0  0  0  0  0  0
    2.0474    0.4815    1.2624 C   0  0  0  0  0  0  0  0  0  0  0  0
   -3.3122   -5.2934    2.5334 O   0  0  0  0  0  0  0  0  0  0  0  0
   -1.6182    1.9635   -1.2332 H   0  0  0  0  0  0  0  0  0  0  0  0
    0.5534    2.3337   -0.1172 H   0  0  0  0  0  0  0  0  0  0  0  0
    0.6172   -1.7852    1.0998 H   0  0  0  0  0  0  0  0  0  0  0  0
   -2.6782   -0.2656   -1.2102 H   0  0  0  0  0  0  0  0  0  0  0  0
   -2.7237   -2.4658    0.0076 H   0  0  0  0  0  0  0  0  0  0  0  0
    0.6397   -3.2629   -1.0736 H   0  0  0  0  0  0  0  0  0  0  0  0
    1.8281   -5.3580   -0.5831 H   0  0  0  0  0  0  0  0  0  0  0  0
    0.7785   -7.0797    0.8677 H   0  0  0  0  0  0  0  0  0  0  0  0
   -1.4770   -6.7028    1.7948 H   0  0  0  0  0  0  0  0  0  0  0  0
    1.9386    0.2781    2.3327 H   0  0  0  0  0  0  0  0  0  0  0  0
    2.7989   -0.1964    0.8436 H   0  0  0  0  0  0  0  0  0  0  0  0
    2.4198    1.5045    1.1490 H   0  0  0  0  0  0  0  0  0  0  0  0
   -4.2199   -5.0484    2.8090 H   0  0  0  0  0  0  0  0  0  0  0  0
  1  2  2  0  0  0  0
  1 18  1  0  0  0  0
  2  3  1  0  0  0  0
  2 19  1  0  0  0  0
  3  4  2  0  0  0  0
  3 16  1  0  0  0  0
  4  5  1  0  0  0  0
  4 20  1  0  0  0  0
  5  6  2  0  0  0  0
  5  7  1  0  0  0  0
  6  1  1  0  0  0  0
  6 21  1  0  0  0  0
  7  8  1  0  0  0  0
  7 22  1  0  0  0  0
  8  9  2  0  0  0  0
  9 10  1  0  0  0  0
  9 23  1  0  0  0  0
 10 11  2  0  0  0  0
 10 24  1  0  0  0  0
 11 12  1  0  0  0  0
 11 25  1  0  0  0  0
 12 13  2  0  0  0  0
 12 26  1  0  0  0  0
 13  8  1  0  0  0  0
 13 14  1  0  0  0  0
 14 15  2  0  0  0  0
 14 17  1  0  0  0  0
 16 27  1  0  0  0  0
 16 28  1  0  0  0  0
 16 29  1  0  0  0  0
 17 30  1  0  0  0  0
M  END
>  <Mol_ID>
1435

>  <Formula>
C14H10Cl2NNaO2

>  <MolWeight>
318.13047

>  <Cat>
S4295

>  <Name>
Meclofenamate Sodium

>  <Synonyms>
CI 583

>  <Target>
COX,FTO

>  <Form>
Sodium Salt

>  <CAS>
6385-02-0

>  <URL>
http://selleckchem.com/products/meclofenamate-sodium.html

$$$$
