Meclofenoxate HCl.cdx
 OpenBabel08302522063D

 33 33  0  0  0  0  0  0  0  0999 V2000
    2.1237    5.7054   -0.4336 C   0  0  0  0  0  0  0  0  0  0  0  0
    1.5460    6.6754   -1.2398 C   0  0  0  0  0  0  0  0  0  0  0  0
    0.1812    6.6148   -1.5106 C   0  0  0  0  0  0  0  0  0  0  0  0
   -0.6144    5.5726   -0.9970 C   0  0  0  0  0  0  0  0  0  0  0  0
   -0.0359    4.5774   -0.2204 C   0  0  0  0  0  0  0  0  0  0  0  0
    1.3368    4.6652    0.0690 C   0  0  0  0  0  0  0  0  0  0  0  0
   -0.6238    3.3875    0.0981 O   0  0  0  0  0  0  0  0  0  0  0  0
   -1.9392    3.2050    0.5702 C   0  0  0  0  0  0  0  0  0  0  0  0
   -3.3514    3.4109   -0.0608 C   0  0  0  0  0  0  0  0  0  0  0  0
   -4.1729    2.3900    0.3760 O   0  0  0  0  0  0  0  0  0  0  0  0
   -5.6059    2.4214    0.1980 C   0  0  0  0  0  0  0  0  0  0  0  0
   -6.1639    2.1443   -1.2195 C   0  0  0  0  0  0  0  0  0  0  0  0
   -5.7704    0.9433   -1.9743 N   0  0  0  0  0  0  0  0  0  0  0  0
   -4.3336    0.7141   -1.9816 C   0  0  0  0  0  0  0  0  0  0  0  0
   -3.7255    4.3527   -0.7532 O   0  0  0  0  0  0  0  0  0  0  0  0
   -6.5088   -0.2661   -1.6506 C   0  0  0  0  0  0  0  0  0  0  0  0
    3.1950    5.7330   -0.2261 H   0  0  0  0  0  0  0  0  0  0  0  0
    2.1587    7.4646   -1.6739 H   0  0  0  0  0  0  0  0  0  0  0  0
   -0.2682    7.3630   -2.1637 H   0  0  0  0  0  0  0  0  0  0  0  0
   -1.6608    5.5260   -1.2878 H   0  0  0  0  0  0  0  0  0  0  0  0
    1.8140    3.8857    0.6620 H   0  0  0  0  0  0  0  0  0  0  0  0
   -1.9242    2.1124    0.7251 H   0  0  0  0  0  0  0  0  0  0  0  0
   -2.0047    3.6206    1.5877 H   0  0  0  0  0  0  0  0  0  0  0  0
   -6.0058    1.6663    0.8831 H   0  0  0  0  0  0  0  0  0  0  0  0
   -5.9805    3.3916    0.5532 H   0  0  0  0  0  0  0  0  0  0  0  0
   -7.2622    2.1550   -1.1433 H   0  0  0  0  0  0  0  0  0  0  0  0
   -5.9214    3.0061   -1.8476 H   0  0  0  0  0  0  0  0  0  0  0  0
   -3.9712    0.3406   -1.0172 H   0  0  0  0  0  0  0  0  0  0  0  0
   -4.0637   -0.0199   -2.7465 H   0  0  0  0  0  0  0  0  0  0  0  0
   -3.7989    1.6351   -2.2345 H   0  0  0  0  0  0  0  0  0  0  0  0
   -6.2859   -0.6480   -0.6465 H   0  0  0  0  0  0  0  0  0  0  0  0
   -7.5914   -0.1054   -1.7289 H   0  0  0  0  0  0  0  0  0  0  0  0
   -6.2731   -1.0558   -2.3740 H   0  0  0  0  0  0  0  0  0  0  0  0
  1  2  2  0  0  0  0
  1 17  1  0  0  0  0
  2  3  1  0  0  0  0
  2 18  1  0  0  0  0
  3  4  2  0  0  0  0
  3 19  1  0  0  0  0
  4  5  1  0  0  0  0
  4 20  1  0  0  0  0
  5  6  2  0  0  0  0
  5  7  1  0  0  0  0
  6  1  1  0  0  0  0
  6 21  1  0  0  0  0
  7  8  1  0  0  0  0
  8  9  1  0  0  0  0
  8 22  1  0  0  0  0
  8 23  1  0  0  0  0
  9 10  1  0  0  0  0
  9 15  2  0  0  0  0
 10 11  1  0  0  0  0
 11 12  1  0  0  0  0
 11 24  1  0  0  0  0
 11 25  1  0  0  0  0
 12 13  1  0  0  0  0
 12 26  1  0  0  0  0
 12 27  1  0  0  0  0
 13 14  1  0  0  0  0
 13 16  1  0  0  0  0
 14 28  1  0  0  0  0
 14 29  1  0  0  0  0
 14 30  1  0  0  0  0
 16 31  1  0  0  0  0
 16 32  1  0  0  0  0
 16 33  1  0  0  0  0
M  END
>  <Mol_ID>
1418

>  <Formula>
C12H17Cl2NO3

>  <MolWeight>
294.17428

>  <Cat>
S4280

>  <Name>
Meclofenoxate (Centrophenoxine) HCl

>  <Synonyms>
Centrophenoxine

>  <Target>
Transferase

>  <Form>
Hydrochloride

>  <CAS>
3685-84-5

>  <URL>
http://selleckchem.com/products/meclofenoxate-centrophenoxine-hci.html

$$$$
