Medrysone
 OpenBabel08302520402D

 57 60  0  0  0  0  0  0  0  0999 V2000
    1.2219    2.1673    0.0000 C   0  0  0  0  0  0  0  0  0  0  0  0
    2.4201    1.4432    0.0000 C   0  0  0  0  0  0  0  0  0  0  0  0
    3.6463    2.1189    0.0000 C   0  0  0  0  0  0  0  0  0  0  0  0
    3.6742    3.5186    0.0000 C   0  0  2  0  0  0  0  0  0  0  0  0
    2.4760    4.2427    0.0000 C   0  0  0  0  0  0  0  0  0  0  0  0
    1.2498    3.5670    0.0000 C   0  0  0  0  0  0  0  0  0  0  0  0
    4.8445    1.3949    0.0000 C   0  0  2  0  0  0  0  0  0  0  0  0
    6.0707    2.0705    0.0000 C   0  0  0  0  0  0  0  0  0  0  0  0
    6.0986    3.4703    0.0000 C   0  0  2  0  0  0  0  0  0  0  0  0
    4.9004    4.1943    0.0000 C   0  0  3  0  0  0  0  0  0  0  0  0
    7.3248    4.1459    0.0000 C   0  0  3  0  0  0  0  0  0  0  0  0
    7.3527    5.5456    0.0000 C   0  0  3  0  0  0  0  0  0  0  0  0
    6.1545    6.2697    0.0000 C   0  0  0  0  0  0  0  0  0  0  0  0
    4.9283    5.5940    0.0000 C   0  0  3  0  0  0  0  0  0  0  0  0
    8.6474    3.6868    0.0000 C   0  0  0  0  0  0  0  0  0  0  0  0
    9.4927    4.8028    0.0000 C   0  0  0  0  0  0  0  0  0  0  0  0
    8.6926    5.9516    0.0000 C   0  0  3  0  0  0  0  0  0  0  0  0
    9.1501    7.2696    0.0000 C   0  0  0  0  0  0  0  0  0  0  0  0
    7.3527    6.9456    0.0000 C   0  0  0  0  0  0  0  0  0  0  0  0
    3.7343    6.3156    0.0000 O   0  0  0  0  0  0  0  0  0  0  0  0
    3.7021    4.9135    0.0000 C   0  0  0  0  0  0  0  0  0  0  0  0
    4.8167    0.0000    0.0000 C   0  0  0  0  0  0  0  0  0  0  0  0
    0.0000    1.4940    0.0000 O   0  0  0  0  0  0  0  0  0  0  0  0
    8.2374    8.3248    0.0000 O   0  0  0  0  0  0  0  0  0  0  0  0
   10.5202    7.5324    0.0000 C   0  0  0  0  0  0  0  0  0  0  0  0
    2.3995    0.4114    0.0000 H   0  0  0  0  0  0  0  0  0  0  0  0
    2.4974    5.3125    0.0000 H   0  0  0  0  0  0  0  0  0  0  0  0
    1.5602    4.7961    0.0000 H   0  0  0  0  0  0  0  0  0  0  0  0
    0.3340    4.1204    0.0000 H   0  0  0  0  0  0  0  0  0  0  0  0
    0.3127    3.0506    0.0000 H   0  0  0  0  0  0  0  0  0  0  0  0
    3.9074    0.8785    0.0000 H   0  0  0  0  0  0  0  0  0  0  0  0
    6.9865    1.5171    0.0000 H   0  0  0  0  0  0  0  0  0  0  0  0
    7.0078    2.5869    0.0000 H   0  0  0  0  0  0  0  0  0  0  0  0
    5.1615    2.9539    0.0000 H   0  0  0  0  0  0  0  0  0  0  0  0
    4.8791    3.1245    0.0000 H   0  0  0  0  0  0  0  0  0  0  0  0
    6.4090    4.6993    0.0000 H   0  0  0  0  0  0  0  0  0  0  0  0
    6.1759    7.3395    0.0000 H   0  0  0  0  0  0  0  0  0  0  0  0
    5.2387    6.8231    0.0000 H   0  0  0  0  0  0  0  0  0  0  0  0
    5.8441    5.0406    0.0000 H   0  0  0  0  0  0  0  0  0  0  0  0
    8.9577    2.6628    0.0000 H   0  0  0  0  0  0  0  0  0  0  0  0
    9.7007    3.4984    0.0000 H   0  0  0  0  0  0  0  0  0  0  0  0
   10.5625    4.7815    0.0000 H   0  0  0  0  0  0  0  0  0  0  0  0
    9.9974    5.7463    0.0000 H   0  0  0  0  0  0  0  0  0  0  0  0
    8.3417    4.9408    0.0000 H   0  0  0  0  0  0  0  0  0  0  0  0
    8.2793    7.4806    0.0000 H   0  0  0  0  0  0  0  0  0  0  0  0
    6.4261    7.4806    0.0000 H   0  0  0  0  0  0  0  0  0  0  0  0
    7.3527    8.0156    0.0000 H   0  0  0  0  0  0  0  0  0  0  0  0
    3.7537    7.2854    0.0000 H   0  0  0  0  0  0  0  0  0  0  0  0
    4.6393    5.4299    0.0000 H   0  0  0  0  0  0  0  0  0  0  0  0
    2.7863    5.4669    0.0000 H   0  0  0  0  0  0  0  0  0  0  0  0
    3.7235    5.9833    0.0000 H   0  0  0  0  0  0  0  0  0  0  0  0
    3.8796   -0.5164    0.0000 H   0  0  0  0  0  0  0  0  0  0  0  0
    5.7325   -0.5534    0.0000 H   0  0  0  0  0  0  0  0  0  0  0  0
    4.7954   -1.0698    0.0000 H   0  0  0  0  0  0  0  0  0  0  0  0
   11.2202    6.7231    0.0000 H   0  0  0  0  0  0  0  0  0  0  0  0
   10.8711    8.5432    0.0000 H   0  0  0  0  0  0  0  0  0  0  0  0
   11.5710    7.7340    0.0000 H   0  0  0  0  0  0  0  0  0  0  0  0
  1  2  1  0  0  0  0
  1 23  2  0  0  0  0
  2  3  2  0  0  0  0
  2 26  1  0  0  0  0
  3  4  1  0  0  0  0
  3  7  1  0  0  0  0
  4  5  1  0  0  0  0
  4 21  1  1  0  0  0
  5  6  1  0  0  0  0
  5 27  1  0  0  0  0
  5 28  1  0  0  0  0
  6  1  1  0  0  0  0
  6 29  1  0  0  0  0
  6 30  1  0  0  0  0
  7  8  1  0  0  0  0
  7 22  1  0  0  0  0
  7 31  1  1  0  0  0
  8 32  1  0  0  0  0
  8 33  1  0  0  0  0
  9  8  1  0  0  0  0
  9 10  1  0  0  0  0
  9 11  1  0  0  0  0
  9 34  1  1  0  0  0
 10  4  1  0  0  0  0
 10 14  1  0  0  0  0
 10 35  1  0  0  0  0
 11 12  1  0  0  0  0
 11 15  1  0  0  0  0
 11 36  1  0  0  0  0
 12 13  1  0  0  0  0
 12 19  1  0  0  0  0
 13 14  1  0  0  0  0
 13 37  1  0  0  0  0
 13 38  1  0  0  0  0
 14 20  1  0  0  0  0
 14 39  1  0  0  0  0
 15 16  1  0  0  0  0
 15 40  1  0  0  0  0
 15 41  1  0  0  0  0
 16 17  1  0  0  0  0
 16 42  1  0  0  0  0
 16 43  1  0  0  0  0
 17 12  1  0  0  0  0
 17 18  1  0  0  0  0
 17 44  1  0  0  0  0
 18 24  2  0  0  0  0
 18 25  1  0  0  0  0
 19 45  1  0  0  0  0
 19 46  1  0  0  0  0
 19 47  1  0  0  0  0
 20 48  1  0  0  0  0
 21 49  1  0  0  0  0
 21 50  1  0  0  0  0
 21 51  1  0  0  0  0
 22 52  1  0  0  0  0
 22 53  1  0  0  0  0
 22 54  1  0  0  0  0
 25 55  1  0  0  0  0
 25 56  1  0  0  0  0
 25 57  1  0  0  0  0
M  END
>  <Mol_ID>
3321

>  <Formula>
C22H32O3

>  <MolWeight>
344.48768

>  <Cat>
S4332

>  <Name>
Medrysone

>  <Synonyms>
N/A

>  <Target>
Others

>  <Form>
Free Base

>  <CAS>
2668-66-8

>  <URL>
http://www.selleckchem.com/products/medrysone.html

$$$$
