MEDROL (methylprednisolone).cdx
 OpenBabel08302521232D

 57 60  0  0  0  0  0  0  0  0999 V2000
    1.2082    3.4951    0.0000 C   0  0  0  0  0  0  0  0  0  0  0  0
    1.2082    2.0951    0.0000 C   0  0  0  0  0  0  0  0  0  0  0  0
    2.4207    1.3951    0.0000 C   0  0  0  0  0  0  0  0  0  0  0  0
    3.6331    2.0951    0.0000 C   0  0  0  0  0  0  0  0  0  0  0  0
    3.6331    3.4951    0.0000 C   0  0  2  0  0  0  0  0  0  0  0  0
    2.4207    4.1951    0.0000 C   0  0  0  0  0  0  0  0  0  0  0  0
    4.8455    1.3951    0.0000 C   0  0  2  0  0  0  0  0  0  0  0  0
    6.0580    2.0951    0.0000 C   0  0  0  0  0  0  0  0  0  0  0  0
    6.0580    3.4951    0.0000 C   0  0  2  0  0  0  0  0  0  0  0  0
    4.8455    4.1951    0.0000 C   0  0  3  0  0  0  0  0  0  0  0  0
    7.2704    4.1951    0.0000 C   0  0  3  0  0  0  0  0  0  0  0  0
    7.2704    5.5951    0.0000 C   0  0  3  0  0  0  0  0  0  0  0  0
    6.0580    6.2951    0.0000 C   0  0  0  0  0  0  0  0  0  0  0  0
    4.8455    5.5951    0.0000 C   0  0  3  0  0  0  0  0  0  0  0  0
    8.6019    3.7625    0.0000 C   0  0  0  0  0  0  0  0  0  0  0  0
    9.4248    4.8951    0.0000 C   0  0  0  0  0  0  0  0  0  0  0  0
    8.6019    6.0278    0.0000 C   0  0  3  0  0  0  0  0  0  0  0  0
    0.0000    1.3976    0.0000 O   0  0  0  0  0  0  0  0  0  0  0  0
    3.6331    4.8903    0.0000 C   0  0  0  0  0  0  0  0  0  0  0  0
    3.6373    6.2927    0.0000 O   0  0  0  0  0  0  0  0  0  0  0  0
    7.4162    6.9826    0.0000 C   0  0  0  0  0  0  0  0  0  0  0  0
    9.0330    7.3546    0.0000 C   0  0  0  0  0  0  0  0  0  0  0  0
   10.3977    7.6447    0.0000 C   0  0  0  0  0  0  0  0  0  0  0  0
    8.0995    8.3914    0.0000 O   0  0  0  0  0  0  0  0  0  0  0  0
   11.3876    6.6547    0.0000 O   0  0  0  0  0  0  0  0  0  0  0  0
    4.8455    0.0000    0.0000 C   0  0  0  0  0  0  0  0  0  0  0  0
   10.0019    6.0278    0.0000 O   0  0  0  0  0  0  0  0  0  0  0  0
    0.3145    4.0111    0.0000 H   0  0  0  0  0  0  0  0  0  0  0  0
    2.4207    0.3631    0.0000 H   0  0  0  0  0  0  0  0  0  0  0  0
    2.4207    5.2271    0.0000 H   0  0  0  0  0  0  0  0  0  0  0  0
    3.9188    0.8601    0.0000 H   0  0  0  0  0  0  0  0  0  0  0  0
    6.9846    1.5601    0.0000 H   0  0  0  0  0  0  0  0  0  0  0  0
    6.9847    2.6301    0.0000 H   0  0  0  0  0  0  0  0  0  0  0  0
    5.1314    2.9601    0.0000 H   0  0  0  0  0  0  0  0  0  0  0  0
    4.8455    3.1251    0.0000 H   0  0  0  0  0  0  0  0  0  0  0  0
    6.3437    4.7301    0.0000 H   0  0  0  0  0  0  0  0  0  0  0  0
    6.0580    7.3651    0.0000 H   0  0  0  0  0  0  0  0  0  0  0  0
    5.1314    6.8301    0.0000 H   0  0  0  0  0  0  0  0  0  0  0  0
    5.7721    5.0601    0.0000 H   0  0  0  0  0  0  0  0  0  0  0  0
    8.9326    2.7449    0.0000 H   0  0  0  0  0  0  0  0  0  0  0  0
    9.6587    3.5951    0.0000 H   0  0  0  0  0  0  0  0  0  0  0  0
   10.4948    4.8951    0.0000 H   0  0  0  0  0  0  0  0  0  0  0  0
    9.9106    5.8485    0.0000 H   0  0  0  0  0  0  0  0  0  0  0  0
    4.5597    5.4253    0.0000 H   0  0  0  0  0  0  0  0  0  0  0  0
    2.7065    5.4253    0.0000 H   0  0  0  0  0  0  0  0  0  0  0  0
    3.6331    5.9603    0.0000 H   0  0  0  0  0  0  0  0  0  0  0  0
    3.6373    7.2627    0.0000 H   0  0  0  0  0  0  0  0  0  0  0  0
    8.3937    7.4178    0.0000 H   0  0  0  0  0  0  0  0  0  0  0  0
    6.5505    7.6115    0.0000 H   0  0  0  0  0  0  0  0  0  0  0  0
    7.5280    8.0467    0.0000 H   0  0  0  0  0  0  0  0  0  0  0  0
   10.7016    8.6706    0.0000 H   0  0  0  0  0  0  0  0  0  0  0  0
   11.4348    7.9080    0.0000 H   0  0  0  0  0  0  0  0  0  0  0  0
   11.1365    5.7178    0.0000 H   0  0  0  0  0  0  0  0  0  0  0  0
    3.9189   -0.5350    0.0000 H   0  0  0  0  0  0  0  0  0  0  0  0
    5.7721   -0.5350    0.0000 H   0  0  0  0  0  0  0  0  0  0  0  0
    4.8455   -1.0700    0.0000 H   0  0  0  0  0  0  0  0  0  0  0  0
   10.4869    5.1878    0.0000 H   0  0  0  0  0  0  0  0  0  0  0  0
  1  2  1  0  0  0  0
  1 28  1  0  0  0  0
  2  3  1  0  0  0  0
  2 18  2  0  0  0  0
  3  4  2  0  0  0  0
  3 29  1  0  0  0  0
  4  5  1  0  0  0  0
  4  7  1  0  0  0  0
  5  6  1  0  0  0  0
  5 19  1  1  0  0  0
  6  1  2  0  0  0  0
  6 30  1  0  0  0  0
  7  8  1  0  0  0  0
  7 26  1  0  0  0  0
  7 31  1  1  0  0  0
  8 32  1  0  0  0  0
  8 33  1  0  0  0  0
  9  8  1  0  0  0  0
  9 10  1  0  0  0  0
  9 11  1  0  0  0  0
  9 34  1  1  0  0  0
 10  5  1  0  0  0  0
 10 14  1  0  0  0  0
 10 35  1  0  0  0  0
 11 12  1  0  0  0  0
 11 15  1  0  0  0  0
 11 36  1  0  0  0  0
 12 13  1  0  0  0  0
 12 21  1  0  0  0  0
 13 14  1  0  0  0  0
 13 37  1  0  0  0  0
 13 38  1  0  0  0  0
 14 20  1  0  0  0  0
 14 39  1  0  0  0  0
 15 16  1  0  0  0  0
 15 40  1  0  0  0  0
 15 41  1  0  0  0  0
 16 17  1  0  0  0  0
 16 42  1  0  0  0  0
 16 43  1  0  0  0  0
 17 12  1  0  0  0  0
 17 22  1  0  0  0  0
 17 27  1  0  0  0  0
 19 44  1  0  0  0  0
 19 45  1  0  0  0  0
 19 46  1  0  0  0  0
 20 47  1  0  0  0  0
 21 48  1  0  0  0  0
 21 49  1  0  0  0  0
 21 50  1  0  0  0  0
 22 23  1  0  0  0  0
 22 24  2  0  0  0  0
 23 25  1  0  0  0  0
 23 51  1  0  0  0  0
 23 52  1  0  0  0  0
 25 53  1  0  0  0  0
 26 54  1  0  0  0  0
 26 55  1  0  0  0  0
 26 56  1  0  0  0  0
 27 57  1  0  0  0  0
M  END
>  <Mol_ID>
417

>  <Formula>
C22H30O5

>  <MolWeight>
374.4706

>  <Cat>
S1733

>  <Name>
Methylprednisolone (NSC-19987)

>  <Synonyms>
NSC-19987,U 7532

>  <Target>
ACE,Apoptosis related,Autophagy,Glucocorticoid Receptor,Immunology & Inflammation related,Interleukins

>  <Form>
free base

>  <CAS>
83-43-2

>  <URL>
http://selleckchem.com/products/Methylprednisolone.html

$$$$
