Mefenamic acid.cdx
 OpenBabel08302522033D

 33 34  0  0  0  0  0  0  0  0999 V2000
   -0.4688   -0.3762   -0.7134 C   0  0  0  0  0  0  0  0  0  0  0  0
    0.7264   -1.2361   -0.9305 C   0  0  0  0  0  0  0  0  0  0  0  0
    1.7224   -0.9528   -1.8881 C   0  0  0  0  0  0  0  0  0  0  0  0
    2.8224   -1.8248   -1.9767 C   0  0  0  0  0  0  0  0  0  0  0  0
    2.8962   -2.9832   -1.2013 C   0  0  0  0  0  0  0  0  0  0  0  0
    1.8879   -3.2738   -0.2902 C   0  0  0  0  0  0  0  0  0  0  0  0
    0.8181   -2.3920   -0.1374 C   0  0  0  0  0  0  0  0  0  0  0  0
   -1.0382   -0.2971    0.3606 O   0  0  0  0  0  0  0  0  0  0  0  0
   -0.8930    0.2746   -1.8181 O   0  0  0  0  0  0  0  0  0  0  0  0
    1.6129    0.1689   -2.7541 N   0  0  0  0  0  0  0  0  0  0  0  0
    2.1061    0.3017   -4.0784 C   0  0  0  0  0  0  0  0  0  0  0  0
    2.4676    1.5530   -4.6380 C   0  0  0  0  0  0  0  0  0  0  0  0
    2.9056    1.6047   -5.9894 C   0  0  0  0  0  0  0  0  0  0  0  0
    3.0007    0.4251   -6.7480 C   0  0  0  0  0  0  0  0  0  0  0  0
    2.6404   -0.7961   -6.2020 C   0  0  0  0  0  0  0  0  0  0  0  0
    2.1801   -0.8482   -4.8925 C   0  0  0  0  0  0  0  0  0  0  0  0
    3.2927    2.8815   -6.6950 C   0  0  0  0  0  0  0  0  0  0  0  0
    2.3906    2.8415   -3.8551 C   0  0  0  0  0  0  0  0  0  0  0  0
    3.6398   -1.6107   -2.6632 H   0  0  0  0  0  0  0  0  0  0  0  0
    3.7415   -3.6577   -1.3163 H   0  0  0  0  0  0  0  0  0  0  0  0
    1.9352   -4.1824    0.3050 H   0  0  0  0  0  0  0  0  0  0  0  0
    0.0396   -2.6181    0.5894 H   0  0  0  0  0  0  0  0  0  0  0  0
   -0.3565    0.0709   -2.6161 H   0  0  0  0  0  0  0  0  0  0  0  0
    1.5617    1.0352   -2.2238 H   0  0  0  0  0  0  0  0  0  0  0  0
    3.3460    0.4608   -7.7786 H   0  0  0  0  0  0  0  0  0  0  0  0
    2.7038   -1.7043   -6.7954 H   0  0  0  0  0  0  0  0  0  0  0  0
    1.8691   -1.8168   -4.5084 H   0  0  0  0  0  0  0  0  0  0  0  0
    4.3475    2.8392   -6.9864 H   0  0  0  0  0  0  0  0  0  0  0  0
    2.6789    3.0055   -7.5935 H   0  0  0  0  0  0  0  0  0  0  0  0
    3.1523    3.7768   -6.0863 H   0  0  0  0  0  0  0  0  0  0  0  0
    3.3507    3.3672   -3.9009 H   0  0  0  0  0  0  0  0  0  0  0  0
    1.6031    3.4803   -4.2685 H   0  0  0  0  0  0  0  0  0  0  0  0
    2.1806    2.7109   -2.7935 H   0  0  0  0  0  0  0  0  0  0  0  0
  1  2  1  0  0  0  0
  1  8  2  0  0  0  0
  1  9  1  0  0  0  0
  2  3  2  0  0  0  0
  2  7  1  0  0  0  0
  3  4  1  0  0  0  0
  3 10  1  0  0  0  0
  4  5  2  0  0  0  0
  4 19  1  0  0  0  0
  5  6  1  0  0  0  0
  5 20  1  0  0  0  0
  6  7  2  0  0  0  0
  6 21  1  0  0  0  0
  7 22  1  0  0  0  0
  9 23  1  0  0  0  0
 10 11  1  0  0  0  0
 10 24  1  0  0  0  0
 11 12  2  0  0  0  0
 11 16  1  0  0  0  0
 12 13  1  0  0  0  0
 12 18  1  0  0  0  0
 13 14  2  0  0  0  0
 13 17  1  0  0  0  0
 14 15  1  0  0  0  0
 14 25  1  0  0  0  0
 15 16  2  0  0  0  0
 15 26  1  0  0  0  0
 16 27  1  0  0  0  0
 17 28  1  0  0  0  0
 17 29  1  0  0  0  0
 17 30  1  0  0  0  0
 18 31  1  0  0  0  0
 18 32  1  0  0  0  0
 18 33  1  0  0  0  0
M  END
>  <Mol_ID>
1237

>  <Formula>
C15H15NO2

>  <MolWeight>
241.2851

>  <Cat>
S4078

>  <Name>
Mefenamic Acid

>  <Synonyms>
CI 473, CN-35355

>  <Target>
COX

>  <Form>
free base

>  <CAS>
61-68-7

>  <URL>
http://selleckchem.com/products/mefenamic-acid.html

$$$$
