Mefloquine hydrochloride.cdx
 OpenBabel08302522063D

 42 44  0  0  0  0  0  0  0  0999 V2000
    5.1345   -3.0212   -1.4349 C   0  0  0  0  0  0  0  0  0  0  0  0
    3.8733   -2.4505   -1.3886 C   0  0  0  0  0  0  0  0  0  0  0  0
    2.7716   -3.2398   -1.0614 C   0  0  0  0  0  0  0  0  0  0  0  0
    2.9047   -4.6235   -0.7951 C   0  0  0  0  0  0  0  0  0  0  0  0
    4.2021   -5.1994   -0.8916 C   0  0  0  0  0  0  0  0  0  0  0  0
    5.2998   -4.3942   -1.1856 C   0  0  0  0  0  0  0  0  0  0  0  0
    1.8159   -5.4744   -0.4346 C   0  0  0  0  0  0  0  0  0  0  0  0
    2.0873   -6.8399   -0.2798 C   0  0  0  0  0  0  0  0  0  0  0  0
    3.3778   -7.3319   -0.4149 C   0  0  0  0  0  0  0  0  0  0  0  0
    4.4154   -6.5091   -0.7030 N   0  0  0  0  0  0  0  0  0  0  0  0
    6.6753   -5.0098   -1.2330 C   0  0  0  0  0  0  0  0  0  0  0  0
    7.6541   -4.0858   -1.4883 F   0  0  0  0  0  0  0  0  0  0  0  0
    7.0544   -5.6011   -0.0652 F   0  0  0  0  0  0  0  0  0  0  0  0
    6.8189   -5.9463   -2.2115 F   0  0  0  0  0  0  0  0  0  0  0  0
    3.6337   -8.8245   -0.2306 C   0  0  0  0  0  0  0  0  0  0  0  0
    2.5066   -9.5347    0.0808 F   0  0  0  0  0  0  0  0  0  0  0  0
    4.1325   -9.4222   -1.3515 F   0  0  0  0  0  0  0  0  0  0  0  0
    4.5168   -9.0972    0.7712 F   0  0  0  0  0  0  0  0  0  0  0  0
    0.4081   -4.9229   -0.1503 C   0  0  2  0  0  0  0  0  0  0  0  0
    0.4836   -4.1183    1.0372 O   0  0  0  0  0  0  0  0  0  0  0  0
   -0.8062   -5.9212    0.0429 C   0  0  2  0  0  0  0  0  0  0  0  0
   -0.5523   -6.8887    1.1357 N   0  0  0  0  0  0  0  0  0  0  0  0
   -1.4697   -8.0231    1.1866 C   0  0  0  0  0  0  0  0  0  0  0  0
   -1.6162   -8.7189   -0.1626 C   0  0  0  0  0  0  0  0  0  0  0  0
   -2.1153   -7.7383   -1.2100 C   0  0  0  0  0  0  0  0  0  0  0  0
   -1.1736   -6.5478   -1.3161 C   0  0  0  0  0  0  0  0  0  0  0  0
    5.9962   -2.3970   -1.6722 H   0  0  0  0  0  0  0  0  0  0  0  0
    3.7437   -1.3905   -1.6009 H   0  0  0  0  0  0  0  0  0  0  0  0
    1.7981   -2.7546   -1.0251 H   0  0  0  0  0  0  0  0  0  0  0  0
    1.3095   -7.5531   -0.0441 H   0  0  0  0  0  0  0  0  0  0  0  0
    0.1283   -4.2509   -0.9726 H   0  0  0  0  0  0  0  0  0  0  0  0
    1.0228   -4.6264    1.6705 H   0  0  0  0  0  0  0  0  0  0  0  0
   -1.6702   -5.3262    0.3732 H   0  0  0  0  0  0  0  0  0  0  0  0
   -0.5798   -6.3942    2.0292 H   0  0  0  0  0  0  0  0  0  0  0  0
   -2.4488   -7.7006    1.5521 H   0  0  0  0  0  0  0  0  0  0  0  0
   -1.0781   -8.7483    1.9098 H   0  0  0  0  0  0  0  0  0  0  0  0
   -2.3186   -9.5552   -0.0744 H   0  0  0  0  0  0  0  0  0  0  0  0
   -0.6542   -9.1445   -0.4777 H   0  0  0  0  0  0  0  0  0  0  0  0
   -2.1880   -8.2354   -2.1841 H   0  0  0  0  0  0  0  0  0  0  0  0
   -3.1237   -7.3977   -0.9472 H   0  0  0  0  0  0  0  0  0  0  0  0
   -0.2740   -6.8646   -1.8538 H   0  0  0  0  0  0  0  0  0  0  0  0
   -1.6502   -5.7803   -1.9401 H   0  0  0  0  0  0  0  0  0  0  0  0
  1  2  2  0  0  0  0
  1 27  1  0  0  0  0
  2  3  1  0  0  0  0
  2 28  1  0  0  0  0
  3  4  2  0  0  0  0
  3 29  1  0  0  0  0
  4  5  1  0  0  0  0
  4  7  1  0  0  0  0
  5  6  2  0  0  0  0
  6  1  1  0  0  0  0
  6 11  1  0  0  0  0
  7  8  2  0  0  0  0
  7 19  1  0  0  0  0
  8  9  1  0  0  0  0
  8 30  1  0  0  0  0
  9 10  2  0  0  0  0
  9 15  1  0  0  0  0
 10  5  1  0  0  0  0
 11 12  1  0  0  0  0
 11 13  1  0  0  0  0
 11 14  1  0  0  0  0
 15 16  1  0  0  0  0
 15 17  1  0  0  0  0
 15 18  1  0  0  0  0
 19 20  1  0  0  0  0
 19 31  1  6  0  0  0
 20 32  1  0  0  0  0
 21 22  1  0  0  0  0
 21 26  1  0  0  0  0
 21 33  1  1  0  0  0
 21 19  1  0  0  0  0
 22 23  1  0  0  0  0
 22 34  1  0  0  0  0
 23 24  1  0  0  0  0
 23 35  1  0  0  0  0
 23 36  1  0  0  0  0
 24 25  1  0  0  0  0
 24 37  1  0  0  0  0
 24 38  1  0  0  0  0
 25 26  1  0  0  0  0
 25 39  1  0  0  0  0
 25 40  1  0  0  0  0
 26 41  1  0  0  0  0
 26 42  1  0  0  0  0
M  END
>  <Mol_ID>
1436

>  <Formula>
C17H17ClF6N2O

>  <MolWeight>
414.7730992

>  <Cat>
S4420

>  <Name>
Mefloquine HCl

>  <Synonyms>
Mefloquin hydrochloride

>  <Target>
Anti-infection

>  <Form>
Hydrochloride

>  <CAS>
51773-92-3

>  <URL>
http://selleckchem.com/products/mefloquine-hcl.html

$$$$
