Megestrol
 OpenBabel08302521303D

 55 58  0  0  0  0  0  0  0  0999 V2000
   -1.3831    0.4068    0.4379 O   0  0  0  0  0  0  0  0  0  0  0  0
    2.0014   -0.7888   -0.3758 O   0  0  0  0  0  0  0  0  0  0  0  0
    2.8305   -7.6549    6.4400 O   0  0  0  0  0  0  0  0  0  0  0  0
   -0.0936   -1.1305    1.8897 C   0  0  1  0  0  0  0  0  0  0  0  0
    0.0748   -2.6429    1.5671 C   0  0  2  0  0  0  0  0  0  0  0  0
    0.9639   -3.2718    2.6066 C   0  0  1  0  0  0  0  0  0  0  0  0
    0.0203   -3.5694    3.7974 C   0  0  1  0  0  0  0  0  0  0  0  0
   -0.3413   -0.5475    0.4409 C   0  0  1  0  0  0  0  0  0  0  0  0
   -1.1511   -1.2296    3.0538 C   0  0  0  0  0  0  0  0  0  0  0  0
    0.1371   -2.8875    0.0756 C   0  0  0  0  0  0  0  0  0  0  0  0
    0.7042   -4.5680    4.8298 C   0  0  2  0  0  0  0  0  0  0  0  0
   -0.6289   -2.1877    4.2515 C   0  0  0  0  0  0  0  0  0  0  0  0
   -0.7593   -1.7539   -0.4242 C   0  0  0  0  0  0  0  0  0  0  0  0
    1.0360   -0.2629    2.5245 C   0  0  0  0  0  0  0  0  0  0  0  0
    1.8248   -4.3937    2.1804 C   0  0  0  0  0  0  0  0  0  0  0  0
    2.2158   -4.8241    4.5387 C   0  0  0  0  0  0  0  0  0  0  0  0
    0.0839   -6.0174    4.6450 C   0  0  0  0  0  0  0  0  0  0  0  0
    2.5113   -5.0745    3.1052 C   0  0  0  0  0  0  0  0  0  0  0  0
    1.0177   -0.0535   -0.2285 C   0  0  0  0  0  0  0  0  0  0  0  0
    0.4030   -4.1200    6.2799 C   0  0  0  0  0  0  0  0  0  0  0  0
    1.0498   -7.2049    4.8708 C   0  0  0  0  0  0  0  0  0  0  0  0
    2.9184   -5.4929    5.4752 C   0  0  0  0  0  0  0  0  0  0  0  0
    2.2990   -6.8581    5.6698 C   0  0  0  0  0  0  0  0  0  0  0  0
    1.1184    1.3718   -0.6995 C   0  0  0  0  0  0  0  0  0  0  0  0
    3.5546   -6.0543    2.6378 C   0  0  0  0  0  0  0  0  0  0  0  0
   -1.2818    0.9788    1.2173 H   0  0  0  0  0  0  0  0  0  0  0  0
   -0.9194   -3.1013    1.7201 H   0  0  0  0  0  0  0  0  0  0  0  0
    1.6994   -2.5327    2.9432 H   0  0  0  0  0  0  0  0  0  0  0  0
   -0.8531   -4.1216    3.4259 H   0  0  0  0  0  0  0  0  0  0  0  0
   -1.3826   -0.2396    3.4677 H   0  0  0  0  0  0  0  0  0  0  0  0
   -2.1030   -1.6291    2.6802 H   0  0  0  0  0  0  0  0  0  0  0  0
   -0.2944   -3.8609   -0.1909 H   0  0  0  0  0  0  0  0  0  0  0  0
    1.1475   -2.8683   -0.3279 H   0  0  0  0  0  0  0  0  0  0  0  0
    0.0999   -1.6282    4.8474 H   0  0  0  0  0  0  0  0  0  0  0  0
   -1.4782   -2.3837    4.9178 H   0  0  0  0  0  0  0  0  0  0  0  0
   -1.8200   -1.9915   -0.2633 H   0  0  0  0  0  0  0  0  0  0  0  0
   -0.6302   -1.5820   -1.4977 H   0  0  0  0  0  0  0  0  0  0  0  0
    1.2477   -0.4893    3.5713 H   0  0  0  0  0  0  0  0  0  0  0  0
    1.9942   -0.3389    2.0093 H   0  0  0  0  0  0  0  0  0  0  0  0
    0.7262    0.7922    2.5166 H   0  0  0  0  0  0  0  0  0  0  0  0
    2.0439   -4.5290    1.1225 H   0  0  0  0  0  0  0  0  0  0  0  0
   -0.3090   -6.1388    3.6285 H   0  0  0  0  0  0  0  0  0  0  0  0
   -0.7864   -6.1401    5.3004 H   0  0  0  0  0  0  0  0  0  0  0  0
   -0.6747   -4.1575    6.4806 H   0  0  0  0  0  0  0  0  0  0  0  0
    0.8706   -4.7618    7.0336 H   0  0  0  0  0  0  0  0  0  0  0  0
    0.7474   -3.0992    6.4693 H   0  0  0  0  0  0  0  0  0  0  0  0
    1.3814   -7.6100    3.9092 H   0  0  0  0  0  0  0  0  0  0  0  0
    0.5186   -8.0164    5.3825 H   0  0  0  0  0  0  0  0  0  0  0  0
    3.0113   -5.1059    6.4907 H   0  0  0  0  0  0  0  0  0  0  0  0
    0.5419    1.4934   -1.6134 H   0  0  0  0  0  0  0  0  0  0  0  0
    0.7871    2.0428    0.0855 H   0  0  0  0  0  0  0  0  0  0  0  0
    2.1768    1.5860   -0.9090 H   0  0  0  0  0  0  0  0  0  0  0  0
    3.0736   -6.8680    2.0828 H   0  0  0  0  0  0  0  0  0  0  0  0
    4.2674   -5.5586    1.9681 H   0  0  0  0  0  0  0  0  0  0  0  0
    4.1356   -6.5024    3.4461 H   0  0  0  0  0  0  0  0  0  0  0  0
  1 26  1  0  0  0  0
  2 19  2  0  0  0  0
  3 23  2  0  0  0  0
  4  5  1  0  0  0  0
  4  8  1  0  0  0  0
  4  9  1  0  0  0  0
  4 14  1  1  0  0  0
  5  6  1  0  0  0  0
  5 10  1  0  0  0  0
  5 27  1  1  0  0  0
  6  7  1  0  0  0  0
  6 15  1  0  0  0  0
  6 28  1  1  0  0  0
  7 11  1  0  0  0  0
  7 12  1  0  0  0  0
  7 29  1  6  0  0  0
  8 13  1  0  0  0  0
  8 19  1  6  0  0  0
  8  1  1  0  0  0  0
  9 12  1  0  0  0  0
  9 30  1  0  0  0  0
  9 31  1  0  0  0  0
 10 13  1  0  0  0  0
 10 32  1  0  0  0  0
 10 33  1  0  0  0  0
 11 16  1  0  0  0  0
 11 17  1  0  0  0  0
 11 20  1  1  0  0  0
 12 34  1  0  0  0  0
 12 35  1  0  0  0  0
 13 36  1  0  0  0  0
 13 37  1  0  0  0  0
 14 38  1  0  0  0  0
 14 39  1  0  0  0  0
 14 40  1  0  0  0  0
 15 18  2  0  0  0  0
 15 41  1  0  0  0  0
 16 18  1  0  0  0  0
 16 22  2  3  0  0  0
 17 21  1  0  0  0  0
 17 42  1  0  0  0  0
 17 43  1  0  0  0  0
 18 25  1  0  0  0  0
 19 24  1  0  0  0  0
 20 44  1  0  0  0  0
 20 45  1  0  0  0  0
 20 46  1  0  0  0  0
 21 23  1  0  0  0  0
 21 47  1  0  0  0  0
 21 48  1  0  0  0  0
 22 23  1  0  0  0  0
 22 49  1  0  0  0  0
 24 50  1  0  0  0  0
 24 51  1  0  0  0  0
 24 52  1  0  0  0  0
 25 53  1  0  0  0  0
 25 54  1  0  0  0  0
 25 55  1  0  0  0  0
M  END
>  <Mol_ID>
5610

>  <Formula>
C22H30O3

>  <MolWeight>
342.4718

>  <Cat>
S5738

>  <Name>
Megestrol

>  <Synonyms>
Megace

>  <Target>
Estrogen/progestogen Receptor

>  <Form>
Free Base

>  <CAS>
3562-63-8

>  <URL>
http://www.selleckchem.com/products/megestrol.html

$$$$
