Megestrol Acetate.cdx
 OpenBabel08302519513D

 60 63  0  0  0  0  0  0  0  0999 V2000
    4.1885    4.1304    1.7250 C   0  0  0  0  0  0  0  0  0  0  0  0
    5.0843    2.9766    1.3924 C   0  0  0  0  0  0  0  0  0  0  0  0
    4.7252    2.1168    0.2463 C   0  0  0  0  0  0  0  0  0  0  0  0
    3.4654    2.0739   -0.2258 C   0  0  0  0  0  0  0  0  0  0  0  0
    2.3612    3.0356    0.3126 C   0  0  2  0  0  0  0  0  0  0  0  0
    2.7482    3.6549    1.6789 C   0  0  0  0  0  0  0  0  0  0  0  0
    3.0354    0.9546   -1.1189 C   0  0  0  0  0  0  0  0  0  0  0  0
    1.7385    0.8055   -1.4915 C   0  0  0  0  0  0  0  0  0  0  0  0
    0.6558    1.7037   -0.9674 C   0  0  2  0  0  0  0  0  0  0  0  0
    1.1015    2.1294    0.4567 C   0  0  2  0  0  0  0  0  0  0  0  0
   -0.7469    1.1476   -0.8388 C   0  0  1  0  0  0  0  0  0  0  0  0
   -1.7620    2.2751   -0.4503 C   0  0  2  0  0  0  0  0  0  0  0  0
   -1.3372    2.9752    0.8671 C   0  0  0  0  0  0  0  0  0  0  0  0
   -0.0293    2.4708    1.4537 C   0  0  0  0  0  0  0  0  0  0  0  0
   -1.4051    0.4936   -2.0388 C   0  0  0  0  0  0  0  0  0  0  0  0
   -2.8866    0.4353   -1.6194 C   0  0  0  0  0  0  0  0  0  0  0  0
   -3.0527    1.3856   -0.3829 C   0  0  2  0  0  0  0  0  0  0  0  0
    6.0964    2.7195    2.0430 O   0  0  0  0  0  0  0  0  0  0  0  0
    4.0101   -0.1535   -1.4444 C   0  0  0  0  0  0  0  0  0  0  0  0
    2.1351    4.2129   -0.6775 C   0  0  0  0  0  0  0  0  0  0  0  0
   -1.8815    3.4113   -1.5063 C   0  0  0  0  0  0  0  0  0  0  0  0
   -4.3602    2.2197   -0.4914 C   0  0  0  0  0  0  0  0  0  0  0  0
   -5.0164    2.7087    0.7694 C   0  0  0  0  0  0  0  0  0  0  0  0
   -4.8298    2.5558   -1.5842 O   0  0  0  0  0  0  0  0  0  0  0  0
   -2.8906    0.6412    0.8437 O   0  0  0  0  0  0  0  0  0  0  0  0
   -3.7634   -0.3201    1.2100 C   0  0  0  0  0  0  0  0  0  0  0  0
   -4.7983   -0.5947    0.6199 O   0  0  0  0  0  0  0  0  0  0  0  0
   -3.2848   -0.9871    2.4669 C   0  0  0  0  0  0  0  0  0  0  0  0
    4.4225    4.4858    2.7337 H   0  0  0  0  0  0  0  0  0  0  0  0
    4.3951    4.9466    1.0268 H   0  0  0  0  0  0  0  0  0  0  0  0
    5.5180    1.4517   -0.0716 H   0  0  0  0  0  0  0  0  0  0  0  0
    2.0902    4.5060    1.9075 H   0  0  0  0  0  0  0  0  0  0  0  0
    2.6011    2.9168    2.4767 H   0  0  0  0  0  0  0  0  0  0  0  0
    1.4481   -0.0320   -2.1210 H   0  0  0  0  0  0  0  0  0  0  0  0
    0.5965    2.5297   -1.6712 H   0  0  0  0  0  0  0  0  0  0  0  0
    1.4891    1.2166    0.9514 H   0  0  0  0  0  0  0  0  0  0  0  0
   -0.7077    0.3693   -0.0629 H   0  0  0  0  0  0  0  0  0  0  0  0
   -2.1192    2.8898    1.6291 H   0  0  0  0  0  0  0  0  0  0  0  0
   -1.2193    4.0552    0.7135 H   0  0  0  0  0  0  0  0  0  0  0  0
   -0.2744    1.5349    1.9763 H   0  0  0  0  0  0  0  0  0  0  0  0
    0.3038    3.1400    2.2511 H   0  0  0  0  0  0  0  0  0  0  0  0
   -1.0124   -0.5071   -2.2464 H   0  0  0  0  0  0  0  0  0  0  0  0
   -1.2832    1.0849   -2.9541 H   0  0  0  0  0  0  0  0  0  0  0  0
   -3.1420   -0.5992   -1.3683 H   0  0  0  0  0  0  0  0  0  0  0  0
   -3.5093    0.7214   -2.4738 H   0  0  0  0  0  0  0  0  0  0  0  0
    4.5071   -0.5070   -0.5332 H   0  0  0  0  0  0  0  0  0  0  0  0
    4.7665    0.1766   -2.1615 H   0  0  0  0  0  0  0  0  0  0  0  0
    3.5055   -1.0330   -1.8598 H   0  0  0  0  0  0  0  0  0  0  0  0
    2.1054    3.8998   -1.7257 H   0  0  0  0  0  0  0  0  0  0  0  0
    2.9346    4.9580   -0.6242 H   0  0  0  0  0  0  0  0  0  0  0  0
    1.1957    4.7317   -0.4513 H   0  0  0  0  0  0  0  0  0  0  0  0
   -2.1797    3.0584   -2.4940 H   0  0  0  0  0  0  0  0  0  0  0  0
   -2.6206    4.1560   -1.1867 H   0  0  0  0  0  0  0  0  0  0  0  0
   -0.9413    3.9586   -1.6204 H   0  0  0  0  0  0  0  0  0  0  0  0
   -4.4602    2.4239    1.6596 H   0  0  0  0  0  0  0  0  0  0  0  0
   -6.0235    2.2829    0.8276 H   0  0  0  0  0  0  0  0  0  0  0  0
   -5.0762    3.8009    0.7386 H   0  0  0  0  0  0  0  0  0  0  0  0
   -2.3037   -0.5987    2.7596 H   0  0  0  0  0  0  0  0  0  0  0  0
   -3.9894   -0.7835    3.2769 H   0  0  0  0  0  0  0  0  0  0  0  0
   -3.1830   -2.0615    2.2978 H   0  0  0  0  0  0  0  0  0  0  0  0
  1  2  1  0  0  0  0
  1 29  1  0  0  0  0
  1 30  1  0  0  0  0
  2  3  1  0  0  0  0
  2 18  2  0  0  0  0
  3  4  2  0  0  0  0
  3 31  1  0  0  0  0
  4  5  1  0  0  0  0
  4  7  1  0  0  0  0
  5  6  1  0  0  0  0
  5 20  1  6  0  0  0
  6  1  1  0  0  0  0
  6 32  1  0  0  0  0
  6 33  1  0  0  0  0
  7  8  2  0  0  0  0
  7 19  1  0  0  0  0
  8 34  1  0  0  0  0
  9  8  1  0  0  0  0
  9 10  1  0  0  0  0
  9 11  1  0  0  0  0
  9 35  1  6  0  0  0
 10  5  1  0  0  0  0
 10 14  1  0  0  0  0
 10 36  1  1  0  0  0
 11 12  1  0  0  0  0
 11 15  1  0  0  0  0
 11 37  1  1  0  0  0
 12 13  1  0  0  0  0
 12 21  1  6  0  0  0
 13 14  1  0  0  0  0
 13 38  1  0  0  0  0
 13 39  1  0  0  0  0
 14 40  1  0  0  0  0
 14 41  1  0  0  0  0
 15 16  1  0  0  0  0
 15 42  1  0  0  0  0
 15 43  1  0  0  0  0
 16 17  1  0  0  0  0
 16 44  1  0  0  0  0
 16 45  1  0  0  0  0
 17 12  1  0  0  0  0
 17 22  1  6  0  0  0
 17 25  1  0  0  0  0
 19 46  1  0  0  0  0
 19 47  1  0  0  0  0
 19 48  1  0  0  0  0
 20 49  1  0  0  0  0
 20 50  1  0  0  0  0
 20 51  1  0  0  0  0
 21 52  1  0  0  0  0
 21 53  1  0  0  0  0
 21 54  1  0  0  0  0
 22 23  1  0  0  0  0
 22 24  2  0  0  0  0
 23 55  1  0  0  0  0
 23 56  1  0  0  0  0
 23 57  1  0  0  0  0
 25 26  1  0  0  0  0
 26 27  2  0  0  0  0
 26 28  1  0  0  0  0
 28 58  1  0  0  0  0
 28 59  1  0  0  0  0
 28 60  1  0  0  0  0
M  END
>  <Mol_ID>
199

>  <Formula>
C24H32O4

>  <MolWeight>
384.50848

>  <Cat>
S1304

>  <Name>
Megestrol Acetate

>  <Synonyms>
BDH1298, SC10363

>  <Target>
Androgen Receptor,Estrogen/progestogen Receptor

>  <Form>
free base

>  <CAS>
595-33-5

>  <URL>
http://selleckchem.com/products/Megestrol-Acetate.html

$$$$
