MEHP
 OpenBabel08302521373D

 42 42  0  0  0  0  0  0  0  0999 V2000
   -0.6105   -0.4037   -0.8940 C   0  0  0  0  0  0  0  0  0  0  0  0
    0.6155   -0.7584   -0.4381 O   0  0  0  0  0  0  0  0  0  0  0  0
   -1.4878   -1.1790   -1.2291 O   0  0  0  0  0  0  0  0  0  0  0  0
    0.8946   -2.1752   -0.3658 C   0  0  0  0  0  0  0  0  0  0  0  0
    1.6539   -2.6629   -1.6235 C   0  0  3  0  0  0  0  0  0  0  0  0
    2.9029   -1.7955   -1.8804 C   0  0  0  0  0  0  0  0  0  0  0  0
    1.9551   -4.1793   -1.5413 C   0  0  0  0  0  0  0  0  0  0  0  0
    3.7738   -2.2029   -3.0791 C   0  0  0  0  0  0  0  0  0  0  0  0
    2.9584   -4.5978   -0.4723 C   0  0  0  0  0  0  0  0  0  0  0  0
    3.0785   -2.2147   -4.4416 C   0  0  0  0  0  0  0  0  0  0  0  0
    2.6035   -0.8442   -4.8967 C   0  0  0  0  0  0  0  0  0  0  0  0
   -3.3973    0.8947   -0.8629 C   0  0  0  0  0  0  0  0  0  0  0  0
   -3.4726   -0.0444    0.0990 O   0  0  0  0  0  0  0  0  0  0  0  0
   -4.3835    1.2832   -1.4722 O   0  0  0  0  0  0  0  0  0  0  0  0
   -0.8131    1.0684   -0.8575 C   0  0  0  0  0  0  0  0  0  0  0  0
   -2.1007    1.6349   -0.9402 C   0  0  0  0  0  0  0  0  0  0  0  0
    0.3029    1.9301   -0.8175 C   0  0  0  0  0  0  0  0  0  0  0  0
   -2.2362    3.0276   -1.0841 C   0  0  0  0  0  0  0  0  0  0  0  0
    0.1477    3.3167   -0.9208 C   0  0  0  0  0  0  0  0  0  0  0  0
   -1.1220    3.8624   -1.0831 C   0  0  0  0  0  0  0  0  0  0  0  0
    1.4988   -2.3238    0.5329 H   0  0  0  0  0  0  0  0  0  0  0  0
   -0.0277   -2.7536   -0.2197 H   0  0  0  0  0  0  0  0  0  0  0  0
    0.9758   -2.5142   -2.4729 H   0  0  0  0  0  0  0  0  0  0  0  0
    2.5981   -0.7502   -2.0144 H   0  0  0  0  0  0  0  0  0  0  0  0
    3.5364   -1.8028   -0.9842 H   0  0  0  0  0  0  0  0  0  0  0  0
    1.0167   -4.7235   -1.3680 H   0  0  0  0  0  0  0  0  0  0  0  0
    2.3223   -4.5277   -2.5116 H   0  0  0  0  0  0  0  0  0  0  0  0
    4.6289   -1.5181   -3.1253 H   0  0  0  0  0  0  0  0  0  0  0  0
    4.2005   -3.1966   -2.8986 H   0  0  0  0  0  0  0  0  0  0  0  0
    2.5930   -4.3743    0.5342 H   0  0  0  0  0  0  0  0  0  0  0  0
    3.1295   -5.6783   -0.5287 H   0  0  0  0  0  0  0  0  0  0  0  0
    3.9266   -4.1084   -0.6068 H   0  0  0  0  0  0  0  0  0  0  0  0
    3.7918   -2.5938   -5.1851 H   0  0  0  0  0  0  0  0  0  0  0  0
    2.2353   -2.9137   -4.4407 H   0  0  0  0  0  0  0  0  0  0  0  0
    3.4393   -0.1398   -4.9530 H   0  0  0  0  0  0  0  0  0  0  0  0
    2.1567   -0.9146   -5.8936 H   0  0  0  0  0  0  0  0  0  0  0  0
    1.8476   -0.4344   -4.2214 H   0  0  0  0  0  0  0  0  0  0  0  0
   -2.6424   -0.5238    0.2711 H   0  0  0  0  0  0  0  0  0  0  0  0
    1.3113    1.5325   -0.7248 H   0  0  0  0  0  0  0  0  0  0  0  0
   -3.2248    3.4736   -1.1912 H   0  0  0  0  0  0  0  0  0  0  0  0
    1.0170    3.9673   -0.8983 H   0  0  0  0  0  0  0  0  0  0  0  0
   -1.2459    4.9393   -1.2028 H   0  0  0  0  0  0  0  0  0  0  0  0
  1  2  1  0  0  0  0
  1  3  2  0  0  0  0
  1 15  1  0  0  0  0
  2  4  1  0  0  0  0
  4  5  1  0  0  0  0
  4 21  1  0  0  0  0
  4 22  1  0  0  0  0
  5  6  1  0  0  0  0
  5  7  1  0  0  0  0
  5 23  1  0  0  0  0
  6  8  1  0  0  0  0
  6 24  1  0  0  0  0
  6 25  1  0  0  0  0
  7  9  1  0  0  0  0
  7 26  1  0  0  0  0
  7 27  1  0  0  0  0
  8 10  1  0  0  0  0
  8 28  1  0  0  0  0
  8 29  1  0  0  0  0
  9 30  1  0  0  0  0
  9 31  1  0  0  0  0
  9 32  1  0  0  0  0
 10 11  1  0  0  0  0
 10 33  1  0  0  0  0
 10 34  1  0  0  0  0
 11 35  1  0  0  0  0
 11 36  1  0  0  0  0
 11 37  1  0  0  0  0
 12 13  1  0  0  0  0
 12 14  2  0  0  0  0
 12 16  1  0  0  0  0
 13 38  1  0  0  0  0
 15 16  2  0  0  0  0
 15 17  1  0  0  0  0
 16 18  1  0  0  0  0
 17 19  2  0  0  0  0
 17 39  1  0  0  0  0
 18 20  2  0  0  0  0
 18 40  1  0  0  0  0
 19 20  1  0  0  0  0
 19 41  1  0  0  0  0
 20 42  1  0  0  0  0
M  END
>  <Mol_ID>
7597

>  <Formula>
C16H22O4

>  <MolWeight>
278.34348

>  <Cat>
E2912

>  <Name>
MEHP

>  <Synonyms>
Phthalic acid mono-2-ethylexyl ester

>  <Target>
P450 (e.g. CYP17)

>  <Form>
free base

>  <CAS>
4376-20-9

>  <URL>
https://www.selleckchem.com/products/mehp.html

$$$$
