Melengestrol Acetate
 OpenBabel08302521353D

 61 64  0  0  0  0  0  0  0  0999 V2000
    0.2270   -0.2527   -1.0921 O   0  0  0  0  0  0  0  0  0  0  0  0
   -0.6957   -1.2043   -0.8432 C   0  0  0  0  0  0  0  0  0  0  0  0
   -2.0274   -0.5510   -0.5653 C   0  0  0  0  0  0  0  0  0  0  0  0
   -0.4611   -2.3873   -0.7144 O   0  0  0  0  0  0  0  0  0  0  0  0
    1.8915   -1.0976    0.5922 C   0  0  0  0  0  0  0  0  0  0  0  0
    1.1442   -0.4498    1.7496 C   0  0  0  0  0  0  0  0  0  0  0  0
    2.6819   -1.9999    0.8602 O   0  0  0  0  0  0  0  0  0  0  0  0
    3.8224   -1.5514   -1.5929 C   0  0  0  0  0  0  0  0  0  0  0  0
    2.9917    1.5933    0.0212 C   0  0  0  0  0  0  0  0  0  0  0  0
    5.2718   -1.3534   -6.7459 C   0  0  0  0  0  0  0  0  0  0  0  0
    6.1861    3.2732   -4.5783 C   0  0  0  0  0  0  0  0  0  0  0  0
    7.5785    1.8018   -8.3372 O   0  0  0  0  0  0  0  0  0  0  0  0
    1.6235   -0.5255   -0.8624 C   0  0  1  0  0  0  0  0  0  0  0  0
    2.4659   -0.9951   -2.1543 C   0  0  1  0  0  0  0  0  0  0  0  0
    2.2036    0.9288   -0.8364 C   0  0  0  0  0  0  0  0  0  0  0  0
    2.4431    0.3456   -3.0137 C   0  0  1  0  0  0  0  0  0  0  0  0
    2.1517   -2.0075   -3.3167 C   0  0  0  0  0  0  0  0  0  0  0  0
    1.9314    1.4951   -2.1769 C   0  0  0  0  0  0  0  0  0  0  0  0
    3.7677    0.4590   -3.7406 C   0  0  1  0  0  0  0  0  0  0  0  0
    3.2412   -1.8747   -4.5457 C   0  0  0  0  0  0  0  0  0  0  0  0
    3.6082   -0.3917   -5.0154 C   0  0  2  0  0  0  0  0  0  0  0  0
    4.3625    1.8048   -3.9181 C   0  0  0  0  0  0  0  0  0  0  0  0
    4.7918   -0.0584   -6.0494 C   0  0  1  0  0  0  0  0  0  0  0  0
    5.4842    1.9417   -4.6366 C   0  0  0  0  0  0  0  0  0  0  0  0
    5.9591    0.7916   -5.4375 C   0  0  0  0  0  0  0  0  0  0  0  0
    4.2417    0.9194   -7.1774 C   0  0  0  0  0  0  0  0  0  0  0  0
    7.0740    0.9575   -6.1791 C   0  0  0  0  0  0  0  0  0  0  0  0
    5.2476    1.9572   -7.7342 C   0  0  0  0  0  0  0  0  0  0  0  0
    6.7030    1.5870   -7.5026 C   0  0  0  0  0  0  0  0  0  0  0  0
   -2.8366   -1.1665   -0.9613 H   0  0  0  0  0  0  0  0  0  0  0  0
   -2.1436   -0.4312    0.5167 H   0  0  0  0  0  0  0  0  0  0  0  0
   -2.0883    0.4362   -1.0359 H   0  0  0  0  0  0  0  0  0  0  0  0
    0.2529   -1.0330    1.9820 H   0  0  0  0  0  0  0  0  0  0  0  0
    1.8021   -0.4232    2.6262 H   0  0  0  0  0  0  0  0  0  0  0  0
    0.8595    0.5809    1.5297 H   0  0  0  0  0  0  0  0  0  0  0  0
    4.5797   -1.7991   -2.3383 H   0  0  0  0  0  0  0  0  0  0  0  0
    4.2989   -0.8784   -0.8768 H   0  0  0  0  0  0  0  0  0  0  0  0
    3.6395   -2.5192   -1.1085 H   0  0  0  0  0  0  0  0  0  0  0  0
    3.3763    2.5798   -0.2536 H   0  0  0  0  0  0  0  0  0  0  0  0
    3.3592    1.1780    0.9450 H   0  0  0  0  0  0  0  0  0  0  0  0
    4.4860   -1.7628   -7.3912 H   0  0  0  0  0  0  0  0  0  0  0  0
    6.1423   -1.1989   -7.3922 H   0  0  0  0  0  0  0  0  0  0  0  0
    5.5513   -2.1237   -6.0219 H   0  0  0  0  0  0  0  0  0  0  0  0
    5.5546    4.0412   -5.0402 H   0  0  0  0  0  0  0  0  0  0  0  0
    6.3600    3.5647   -3.5352 H   0  0  0  0  0  0  0  0  0  0  0  0
    7.1551    3.2878   -5.0803 H   0  0  0  0  0  0  0  0  0  0  0  0
    1.6442    0.2659   -3.7710 H   0  0  0  0  0  0  0  0  0  0  0  0
    2.1657   -3.0453   -2.9580 H   0  0  0  0  0  0  0  0  0  0  0  0
    1.1492   -1.8408   -3.7299 H   0  0  0  0  0  0  0  0  0  0  0  0
    0.8499    1.6207   -2.3278 H   0  0  0  0  0  0  0  0  0  0  0  0
    2.3493    2.4767   -2.3797 H   0  0  0  0  0  0  0  0  0  0  0  0
    4.5486   -0.0105   -3.1381 H   0  0  0  0  0  0  0  0  0  0  0  0
    4.1597   -2.3900   -4.2428 H   0  0  0  0  0  0  0  0  0  0  0  0
    2.8542   -2.4422   -5.4013 H   0  0  0  0  0  0  0  0  0  0  0  0
    2.6917   -0.0791   -5.5372 H   0  0  0  0  0  0  0  0  0  0  0  0
    4.0556    2.6372   -3.2995 H   0  0  0  0  0  0  0  0  0  0  0  0
    3.3885    1.4968   -6.7950 H   0  0  0  0  0  0  0  0  0  0  0  0
    3.8391    0.3386   -8.0154 H   0  0  0  0  0  0  0  0  0  0  0  0
    7.6979    0.1076   -6.4566 H   0  0  0  0  0  0  0  0  0  0  0  0
    5.0831    2.9349   -7.2606 H   0  0  0  0  0  0  0  0  0  0  0  0
    5.0768    2.1074   -8.8047 H   0  0  0  0  0  0  0  0  0  0  0  0
  1  2  1  0  0  0  0
  2  3  1  0  0  0  0
  2  4  2  0  0  0  0
  3 30  1  0  0  0  0
  3 31  1  0  0  0  0
  3 32  1  0  0  0  0
  5  6  1  0  0  0  0
  5  7  2  0  0  0  0
  6 33  1  0  0  0  0
  6 34  1  0  0  0  0
  6 35  1  0  0  0  0
  8 36  1  0  0  0  0
  8 37  1  0  0  0  0
  8 38  1  0  0  0  0
  9 15  2  0  0  0  0
  9 39  1  0  0  0  0
  9 40  1  0  0  0  0
 10 41  1  0  0  0  0
 10 42  1  0  0  0  0
 10 43  1  0  0  0  0
 11 24  1  0  0  0  0
 11 44  1  0  0  0  0
 11 45  1  0  0  0  0
 11 46  1  0  0  0  0
 12 29  2  0  0  0  0
 13 14  1  0  0  0  0
 13 15  1  0  0  0  0
 13  5  1  1  0  0  0
 13  1  1  0  0  0  0
 14  8  1  1  0  0  0
 14 16  1  0  0  0  0
 14 17  1  0  0  0  0
 15 18  1  0  0  0  0
 16 18  1  0  0  0  0
 16 19  1  0  0  0  0
 16 47  1  6  0  0  0
 17 20  1  0  0  0  0
 17 48  1  0  0  0  0
 17 49  1  0  0  0  0
 18 50  1  0  0  0  0
 18 51  1  0  0  0  0
 19 21  1  0  0  0  0
 19 22  1  0  0  0  0
 19 52  1  1  0  0  0
 20 53  1  0  0  0  0
 20 54  1  0  0  0  0
 21 20  1  0  0  0  0
 21 23  1  0  0  0  0
 21 55  1  6  0  0  0
 22 24  2  0  0  0  0
 22 56  1  0  0  0  0
 23 10  1  6  0  0  0
 23 25  1  0  0  0  0
 23 26  1  0  0  0  0
 24 25  1  0  0  0  0
 25 27  2  3  0  0  0
 26 28  1  0  0  0  0
 26 57  1  0  0  0  0
 26 58  1  0  0  0  0
 27 29  1  0  0  0  0
 27 59  1  0  0  0  0
 28 29  1  0  0  0  0
 28 60  1  0  0  0  0
 28 61  1  0  0  0  0
M  END
>  <Mol_ID>
6902

>  <Formula>
C25H32O4

>  <MolWeight>
396.51918

>  <Cat>
E0742

>  <Name>
Melengestrol Acetate

>  <Target>
CYP450

>  <Form>
Acetate

>  <CAS>
2919-66-6

>  <URL>
http://www.selleckchem.com/products/melengestrol-acetate.html

$$$$
