MELOXICAM (meloxicam).cdx
 OpenBabel08302521033D

 36 38  0  0  0  0  0  0  0  0999 V2000
    0.7178   -2.0003    0.2185 C   0  0  0  0  0  0  0  0  0  0  0  0
    1.6883   -0.9359    0.4586 N   0  0  0  0  0  0  0  0  0  0  0  0
    1.3274    0.4985   -0.3845 S   0  0  0  0  0  0  0  0  0  0  0  0
   -0.3800    0.7766    0.0113 C   0  0  0  0  0  0  0  0  0  0  0  0
   -1.1607   -0.3374    0.3093 C   0  0  0  0  0  0  0  0  0  0  0  0
   -0.5931   -1.6982    0.3632 C   0  0  0  0  0  0  0  0  0  0  0  0
   -0.9219    2.0658   -0.0296 C   0  0  0  0  0  0  0  0  0  0  0  0
   -2.2943    2.2350    0.1558 C   0  0  0  0  0  0  0  0  0  0  0  0
   -3.1087    1.1277    0.3631 C   0  0  0  0  0  0  0  0  0  0  0  0
   -2.5445   -0.1426    0.4478 C   0  0  0  0  0  0  0  0  0  0  0  0
   -1.5633   -2.6426    0.6459 O   0  0  0  0  0  0  0  0  0  0  0  0
    1.9575   -0.6974    1.9014 C   0  0  0  0  0  0  0  0  0  0  0  0
    2.0794    1.5802    0.1690 O   0  0  0  0  0  0  0  0  0  0  0  0
    1.3636    0.2045   -1.8141 O   0  0  0  0  0  0  0  0  0  0  0  0
    1.2038   -3.4288    0.1217 C   0  0  0  0  0  0  0  0  0  0  0  0
    0.3754   -4.3312   -0.0015 O   0  0  0  0  0  0  0  0  0  0  0  0
    2.5716   -3.5612    0.1300 N   0  0  0  0  0  0  0  0  0  0  0  0
    3.1779   -4.7848    0.2292 C   0  0  0  0  0  0  0  0  0  0  0  0
    2.6386   -5.9722    0.3431 N   0  0  0  0  0  0  0  0  0  0  0  0
    3.6211   -6.9114    0.5926 C   0  0  0  0  0  0  0  0  0  0  0  0
    4.9092   -6.4205    0.6629 C   0  0  0  0  0  0  0  0  0  0  0  0
    4.8888   -4.7371    0.3039 S   0  0  0  0  0  0  0  0  0  0  0  0
    6.1693   -7.1226    1.0231 C   0  0  0  0  0  0  0  0  0  0  0  0
   -0.2931    2.9302   -0.2331 H   0  0  0  0  0  0  0  0  0  0  0  0
   -2.7380    3.2266    0.1106 H   0  0  0  0  0  0  0  0  0  0  0  0
   -4.1883    1.2423    0.4570 H   0  0  0  0  0  0  0  0  0  0  0  0
   -3.2103   -0.9919    0.5949 H   0  0  0  0  0  0  0  0  0  0  0  0
   -1.4630   -3.4031    0.0400 H   0  0  0  0  0  0  0  0  0  0  0  0
    2.8239   -0.0468    2.0298 H   0  0  0  0  0  0  0  0  0  0  0  0
    1.0878   -0.2575    2.4003 H   0  0  0  0  0  0  0  0  0  0  0  0
    2.1895   -1.6462    2.3955 H   0  0  0  0  0  0  0  0  0  0  0  0
    3.1560   -2.7365    0.1183 H   0  0  0  0  0  0  0  0  0  0  0  0
    3.3329   -7.9443    0.7524 H   0  0  0  0  0  0  0  0  0  0  0  0
    6.8632   -7.1654    0.1783 H   0  0  0  0  0  0  0  0  0  0  0  0
    6.6649   -6.6121    1.8565 H   0  0  0  0  0  0  0  0  0  0  0  0
    5.9671   -8.1501    1.3472 H   0  0  0  0  0  0  0  0  0  0  0  0
  1  2  1  0  0  0  0
  1 15  1  0  0  0  0
  2  3  1  0  0  0  0
  2 12  1  0  0  0  0
  3  4  1  0  0  0  0
  3 13  2  0  0  0  0
  3 14  2  0  0  0  0
  4  5  2  0  0  0  0
  4  7  1  0  0  0  0
  5  6  1  0  0  0  0
  6  1  2  0  0  0  0
  6 11  1  0  0  0  0
  7  8  2  0  0  0  0
  7 24  1  0  0  0  0
  8  9  1  0  0  0  0
  8 25  1  0  0  0  0
  9 10  2  0  0  0  0
  9 26  1  0  0  0  0
 10  5  1  0  0  0  0
 10 27  1  0  0  0  0
 11 28  1  0  0  0  0
 12 29  1  0  0  0  0
 12 30  1  0  0  0  0
 12 31  1  0  0  0  0
 15 16  2  0  0  0  0
 15 17  1  0  0  0  0
 17 18  1  0  0  0  0
 17 32  1  0  0  0  0
 18 19  2  0  0  0  0
 19 20  1  0  0  0  0
 20 21  2  0  0  0  0
 20 33  1  0  0  0  0
 21 22  1  0  0  0  0
 21 23  1  0  0  0  0
 22 18  1  0  0  0  0
 23 34  1  0  0  0  0
 23 35  1  0  0  0  0
 23 36  1  0  0  0  0
M  END
>  <Mol_ID>
418

>  <Formula>
C14H13N3O4S2

>  <MolWeight>
351.40072

>  <Cat>
S1734

>  <Name>
Meloxicam

>  <Synonyms>
N/A

>  <Target>
COX

>  <Form>
free base

>  <CAS>
71125-38-7

>  <URL>
http://selleckchem.com/products/Meloxicam(Mobic).html

$$$$
