Memantine HCl.cdx
 OpenBabel08302521453D

 34 36  0  0  0  0  0  0  0  0999 V2000
   -1.5250    0.2785    0.1078 C   0  0  3  0  0  0  0  0  0  0  0  0
   -0.7657    1.0267    1.2268 C   0  0  0  0  0  0  0  0  0  0  0  0
    0.7431    0.7503    1.1293 C   0  0  3  0  0  0  0  0  0  0  0  0
    0.9946   -0.7596    1.2718 C   0  0  0  0  0  0  0  0  0  0  0  0
    0.2602   -1.5258    0.1514 C   0  0  3  0  0  0  0  0  0  0  0  0
   -1.2528   -1.2378    0.2501 C   0  0  0  0  0  0  0  0  0  0  0  0
   -0.9853    0.7533   -1.2614 C   0  0  0  0  0  0  0  0  0  0  0  0
    0.7786   -1.0379   -1.2179 C   0  0  0  0  0  0  0  0  0  0  0  0
    0.5324    0.4810   -1.3794 C   0  0  3  0  0  0  0  0  0  0  0  0
    1.2603    1.2261   -0.2377 C   0  0  0  0  0  0  0  0  0  0  0  0
   -3.0275    0.5581    0.2094 C   0  0  0  0  0  0  0  0  0  0  0  0
    0.4954   -2.9634    0.2812 N   0  0  0  0  0  0  0  0  0  0  0  0
    1.0510    0.9596   -2.7389 C   0  0  0  0  0  0  0  0  0  0  0  0
   -0.9479    2.1066    1.1527 H   0  0  0  0  0  0  0  0  0  0  0  0
   -1.1349    0.7125    2.2117 H   0  0  0  0  0  0  0  0  0  0  0  0
    1.2676    1.2871    1.9279 H   0  0  0  0  0  0  0  0  0  0  0  0
    2.0738   -0.9576    1.2298 H   0  0  0  0  0  0  0  0  0  0  0  0
    0.6507   -1.0976    2.2583 H   0  0  0  0  0  0  0  0  0  0  0  0
   -1.6447   -1.5965    1.2119 H   0  0  0  0  0  0  0  0  0  0  0  0
   -1.7944   -1.7882   -0.5317 H   0  0  0  0  0  0  0  0  0  0  0  0
   -1.5206    0.2406   -2.0719 H   0  0  0  0  0  0  0  0  0  0  0  0
   -1.1827    1.8263   -1.3885 H   0  0  0  0  0  0  0  0  0  0  0  0
    0.2773   -1.5844   -2.0288 H   0  0  0  0  0  0  0  0  0  0  0  0
    1.8519   -1.2524   -1.3151 H   0  0  0  0  0  0  0  0  0  0  0  0
    2.3427    1.0548   -0.3020 H   0  0  0  0  0  0  0  0  0  0  0  0
    1.1073    2.3089   -0.3328 H   0  0  0  0  0  0  0  0  0  0  0  0
   -3.5810    0.0345   -0.5779 H   0  0  0  0  0  0  0  0  0  0  0  0
   -3.4268    0.2277    1.1746 H   0  0  0  0  0  0  0  0  0  0  0  0
   -3.2379    1.6287    0.1098 H   0  0  0  0  0  0  0  0  0  0  0  0
    1.4959   -3.1553    0.2456 H   0  0  0  0  0  0  0  0  0  0  0  0
    0.1783   -3.2852    1.1950 H   0  0  0  0  0  0  0  0  0  0  0  0
    2.1260    0.7743   -2.8395 H   0  0  0  0  0  0  0  0  0  0  0  0
    0.5444    0.4405   -3.5600 H   0  0  0  0  0  0  0  0  0  0  0  0
    0.8836    2.0344   -2.8696 H   0  0  0  0  0  0  0  0  0  0  0  0
  1  2  1  0  0  0  0
  1  7  1  0  0  0  0
  1 11  1  0  0  0  0
  2  3  1  0  0  0  0
  2 14  1  0  0  0  0
  2 15  1  0  0  0  0
  3  4  1  0  0  0  0
  3 10  1  0  0  0  0
  3 16  1  0  0  0  0
  4  5  1  0  0  0  0
  4 17  1  0  0  0  0
  4 18  1  0  0  0  0
  5  6  1  0  0  0  0
  5  8  1  0  0  0  0
  5 12  1  0  0  0  0
  6  1  1  0  0  0  0
  6 19  1  0  0  0  0
  6 20  1  0  0  0  0
  7  9  1  0  0  0  0
  7 21  1  0  0  0  0
  7 22  1  0  0  0  0
  8  9  1  0  0  0  0
  8 23  1  0  0  0  0
  8 24  1  0  0  0  0
  9 13  1  0  0  0  0
 10  9  1  0  0  0  0
 10 25  1  0  0  0  0
 10 26  1  0  0  0  0
 11 27  1  0  0  0  0
 11 28  1  0  0  0  0
 11 29  1  0  0  0  0
 12 30  1  0  0  0  0
 12 31  1  0  0  0  0
 13 32  1  0  0  0  0
 13 33  1  0  0  0  0
 13 34  1  0  0  0  0
M  END
>  <Mol_ID>
962

>  <Formula>
C12H22ClN

>  <MolWeight>
215.76278

>  <Cat>
S2043

>  <Name>
Memantine HCl

>  <Synonyms>
N/A

>  <Target>
NMDAR

>  <Form>
Hydrochloride

>  <CAS>
41100-52-1

>  <URL>
http://selleckchem.com/products/memantine-hydrochloride-namenda.html

$$$$
