Menotropin
 OpenBabel08302521453D

 28 27  0  0  0  0  0  0  0  0999 V2000
    0.9976   -0.0614    0.2374 C   0  0  0  0  0  0  0  0  0  0  0  0
    0.4712    1.3631    0.4724 C   0  0  0  0  0  0  0  0  0  0  0  0
    0.9103    2.3166   -0.6816 C   0  0  0  0  0  0  0  0  0  0  0  0
    0.4458    1.9455   -2.0977 C   0  0  0  0  0  0  0  0  0  0  0  0
    0.8775    2.9397   -3.1907 C   0  0  0  0  0  0  0  0  0  0  0  0
    2.3901    3.0965   -3.3640 C   0  0  0  0  0  0  0  0  0  0  0  0
    2.7354    4.0513   -4.4870 C   0  0  0  0  0  0  0  0  0  0  0  0
    1.9199    4.6375   -5.1833 O   0  0  0  0  0  0  0  0  0  0  0  0
   -1.0564    1.3021    0.6569 C   0  0  0  0  0  0  0  0  0  0  0  0
    1.0798    1.9041    1.7834 C   0  0  0  0  0  0  0  0  0  0  0  0
    0.5711   -0.5064   -0.6667 H   0  0  0  0  0  0  0  0  0  0  0  0
    0.7416   -0.7219    1.0731 H   0  0  0  0  0  0  0  0  0  0  0  0
    2.0897   -0.0656    0.1323 H   0  0  0  0  0  0  0  0  0  0  0  0
    0.5736    3.3367   -0.4545 H   0  0  0  0  0  0  0  0  0  0  0  0
    2.0086    2.3499   -0.6816 H   0  0  0  0  0  0  0  0  0  0  0  0
    0.8256    0.9555   -2.3692 H   0  0  0  0  0  0  0  0  0  0  0  0
   -0.6487    1.8876   -2.1167 H   0  0  0  0  0  0  0  0  0  0  0  0
    0.4535    2.5963   -4.1435 H   0  0  0  0  0  0  0  0  0  0  0  0
    0.4283    3.9228   -2.9961 H   0  0  0  0  0  0  0  0  0  0  0  0
    2.8506    3.4925   -2.4558 H   0  0  0  0  0  0  0  0  0  0  0  0
    2.8531    2.1320   -3.5973 H   0  0  0  0  0  0  0  0  0  0  0  0
    3.8185    4.2020   -4.6513 H   0  0  0  0  0  0  0  0  0  0  0  0
   -1.3125    0.7844    1.5916 H   0  0  0  0  0  0  0  0  0  0  0  0
   -1.4935    2.3043    0.7129 H   0  0  0  0  0  0  0  0  0  0  0  0
   -1.5476    0.7559   -0.1523 H   0  0  0  0  0  0  0  0  0  0  0  0
    0.8214    1.2699    2.6380 H   0  0  0  0  0  0  0  0  0  0  0  0
    2.1748    1.9478    1.7229 H   0  0  0  0  0  0  0  0  0  0  0  0
    0.7164    2.9155    1.9984 H   0  0  0  0  0  0  0  0  0  0  0  0
  1  2  1  0  0  0  0
  1 11  1  0  0  0  0
  1 12  1  0  0  0  0
  1 13  1  0  0  0  0
  2  3  1  0  0  0  0
  2  9  1  0  0  0  0
  2 10  1  0  0  0  0
  3  4  1  0  0  0  0
  3 14  1  0  0  0  0
  3 15  1  0  0  0  0
  4  5  1  0  0  0  0
  4 16  1  0  0  0  0
  4 17  1  0  0  0  0
  5  6  1  0  0  0  0
  5 18  1  0  0  0  0
  5 19  1  0  0  0  0
  6  7  1  0  0  0  0
  6 20  1  0  0  0  0
  6 21  1  0  0  0  0
  7  8  2  0  0  0  0
  7 22  1  0  0  0  0
  9 23  1  0  0  0  0
  9 24  1  0  0  0  0
  9 25  1  0  0  0  0
 10 26  1  0  0  0  0
 10 27  1  0  0  0  0
 10 28  1  0  0  0  0
M  END
>  <Mol_ID>
9418

>  <Formula>
C9H18O

>  <MolWeight>
142.23862

>  <Cat>
E0532

>  <Name>
Menotropin

>  <Synonyms>
Human Menopausal Gonadotrophin

>  <Target>
Estrogen/progestogen Receptor

>  <Form>
free base

>  <CAS>
61489-71-2

>  <URL>
http://www.selleckchem.com/products/menotropin.html

$$$$
