Menthone
 OpenBabel08302521293D

 29 29  0  0  0  0  0  0  0  0999 V2000
    1.0833   -0.0959    0.1854 O   0  0  0  0  0  0  0  0  0  0  0  0
    3.1316    1.2091   -0.0577 C   0  0  3  0  0  0  0  0  0  0  0  0
    4.1136    1.1285    1.1282 C   0  0  0  0  0  0  0  0  0  0  0  0
    4.0409   -1.4222    1.0822 C   0  0  3  0  0  0  0  0  0  0  0  0
    4.9335   -0.1719    1.1275 C   0  0  0  0  0  0  0  0  0  0  0  0
    2.2731    2.5008   -0.0596 C   0  0  0  0  0  0  0  0  0  0  0  0
    3.0896   -1.3521   -0.1103 C   0  0  0  0  0  0  0  0  0  0  0  0
    2.2991   -0.0730    0.0072 C   0  0  0  0  0  0  0  0  0  0  0  0
    4.8781   -2.6962    1.0273 C   0  0  0  0  0  0  0  0  0  0  0  0
    3.1403    3.7658   -0.1086 C   0  0  0  0  0  0  0  0  0  0  0  0
    1.3108    2.5519   -1.2578 C   0  0  0  0  0  0  0  0  0  0  0  0
    3.7005    1.1726   -0.9972 H   0  0  0  0  0  0  0  0  0  0  0  0
    4.8181    1.9666    1.1084 H   0  0  0  0  0  0  0  0  0  0  0  0
    3.5585    1.1966    2.0734 H   0  0  0  0  0  0  0  0  0  0  0  0
    3.4438   -1.4469    2.0040 H   0  0  0  0  0  0  0  0  0  0  0  0
    5.6118   -0.1655    0.2648 H   0  0  0  0  0  0  0  0  0  0  0  0
    5.5626   -0.1992    2.0256 H   0  0  0  0  0  0  0  0  0  0  0  0
    1.6714    2.5330    0.8585 H   0  0  0  0  0  0  0  0  0  0  0  0
    3.6275   -1.3466   -1.0662 H   0  0  0  0  0  0  0  0  0  0  0  0
    2.4010   -2.2035   -0.1202 H   0  0  0  0  0  0  0  0  0  0  0  0
    5.5315   -2.7692    1.9028 H   0  0  0  0  0  0  0  0  0  0  0  0
    4.2335   -3.5817    1.0158 H   0  0  0  0  0  0  0  0  0  0  0  0
    5.5058   -2.7232    0.1303 H   0  0  0  0  0  0  0  0  0  0  0  0
    3.7854    3.7666   -0.9945 H   0  0  0  0  0  0  0  0  0  0  0  0
    2.5142    4.6645   -0.1513 H   0  0  0  0  0  0  0  0  0  0  0  0
    3.7737    3.8630    0.7773 H   0  0  0  0  0  0  0  0  0  0  0  0
    0.5850    1.7377   -1.2476 H   0  0  0  0  0  0  0  0  0  0  0  0
    0.7340    3.4841   -1.2492 H   0  0  0  0  0  0  0  0  0  0  0  0
    1.8583    2.5025   -2.2048 H   0  0  0  0  0  0  0  0  0  0  0  0
  1  8  2  0  0  0  0
  2  3  1  0  0  0  0
  2  6  1  0  0  0  0
  2  8  1  0  0  0  0
  2 12  1  0  0  0  0
  3  5  1  0  0  0  0
  3 13  1  0  0  0  0
  3 14  1  0  0  0  0
  4  5  1  0  0  0  0
  4  7  1  0  0  0  0
  4  9  1  0  0  0  0
  4 15  1  0  0  0  0
  5 16  1  0  0  0  0
  5 17  1  0  0  0  0
  6 10  1  0  0  0  0
  6 11  1  0  0  0  0
  6 18  1  0  0  0  0
  7  8  1  0  0  0  0
  7 19  1  0  0  0  0
  7 20  1  0  0  0  0
  9 21  1  0  0  0  0
  9 22  1  0  0  0  0
  9 23  1  0  0  0  0
 10 24  1  0  0  0  0
 10 25  1  0  0  0  0
 10 26  1  0  0  0  0
 11 27  1  0  0  0  0
 11 28  1  0  0  0  0
 11 29  1  0  0  0  0
M  END
>  <Mol_ID>
5437

>  <Formula>
C10H18O

>  <MolWeight>
154.24932

>  <Cat>
S3009

>  <Name>
Menthone

>  <Synonyms>
N/A

>  <Target>
DNA/RNA Synthesis

>  <Form>
Free Base

>  <CAS>
10458-14-7

>  <URL>
https://www.selleckchem.com/products/menthone.html

$$$$
