Menthofuran
 OpenBabel08302521363D

 25 26  0  0  0  0  0  0  0  0999 V2000
    0.9617   -0.2105   -0.0478 C   0  0  0  0  0  0  0  0  0  0  0  0
    1.9737    4.9567    2.0336 C   0  0  0  0  0  0  0  0  0  0  0  0
    0.5579    3.4344   -0.3534 C   0  0  0  0  0  0  0  0  0  0  0  0
    1.3885    2.3603   -0.1271 C   0  0  0  0  0  0  0  0  0  0  0  0
   -0.6963    3.0377   -0.6595 O   0  0  0  0  0  0  0  0  0  0  0  0
    0.8891    4.8754   -0.2706 C   0  0  0  0  0  0  0  0  0  0  0  0
    0.5752    1.2032   -0.2602 C   0  0  0  0  0  0  0  0  0  0  0  0
    2.8173    2.5324    0.2542 C   0  0  0  0  0  0  0  0  0  0  0  0
   -0.6801    1.6784   -0.6021 C   0  0  0  0  0  0  0  0  0  0  0  0
    2.2145    5.0418    0.5206 C   0  0  3  0  0  0  0  0  0  0  0  0
    3.2687    3.9978    0.0600 C   0  0  0  0  0  0  0  0  0  0  0  0
    0.5514   -0.8503   -0.8351 H   0  0  0  0  0  0  0  0  0  0  0  0
    0.5814   -0.5618    0.9170 H   0  0  0  0  0  0  0  0  0  0  0  0
    2.0495   -0.3310   -0.0471 H   0  0  0  0  0  0  0  0  0  0  0  0
    2.9186    5.0346    2.5809 H   0  0  0  0  0  0  0  0  0  0  0  0
    1.3258    5.7750    2.3641 H   0  0  0  0  0  0  0  0  0  0  0  0
    1.4933    4.0181    2.3289 H   0  0  0  0  0  0  0  0  0  0  0  0
    0.0784    5.4429    0.1985 H   0  0  0  0  0  0  0  0  0  0  0  0
    1.0232    5.2646   -1.2870 H   0  0  0  0  0  0  0  0  0  0  0  0
    3.4560    1.8732   -0.3442 H   0  0  0  0  0  0  0  0  0  0  0  0
    2.9446    2.2459    1.3046 H   0  0  0  0  0  0  0  0  0  0  0  0
   -1.6252    1.1969   -0.8091 H   0  0  0  0  0  0  0  0  0  0  0  0
    2.6101    6.0439    0.3112 H   0  0  0  0  0  0  0  0  0  0  0  0
    3.4699    4.1654   -1.0072 H   0  0  0  0  0  0  0  0  0  0  0  0
    4.2186    4.1588    0.5831 H   0  0  0  0  0  0  0  0  0  0  0  0
  1  7  1  0  0  0  0
  1 12  1  0  0  0  0
  1 13  1  0  0  0  0
  1 14  1  0  0  0  0
  2 10  1  0  0  0  0
  2 15  1  0  0  0  0
  2 16  1  0  0  0  0
  2 17  1  0  0  0  0
  3  4  2  0  0  0  0
  3  5  1  0  0  0  0
  3  6  1  0  0  0  0
  4  7  1  0  0  0  0
  4  8  1  0  0  0  0
  5  9  1  0  0  0  0
  6 10  1  0  0  0  0
  6 18  1  0  0  0  0
  6 19  1  0  0  0  0
  7  9  2  0  0  0  0
  8 11  1  0  0  0  0
  8 20  1  0  0  0  0
  8 21  1  0  0  0  0
  9 22  1  0  0  0  0
 10 11  1  0  0  0  0
 10 23  1  0  0  0  0
 11 24  1  0  0  0  0
 11 25  1  0  0  0  0
M  END
>  <Mol_ID>
7330

>  <Formula>
C10H14O

>  <MolWeight>
150.21756

>  <Cat>
E4375

>  <Name>
Menthofuran

>  <Synonyms>
Menthofuran

>  <Target>
Others

>  <Form>
free base

>  <CAS>
494-90-6

>  <URL>
https://www.selleckchem.com/products/menthofuran.html

$$$$
