mepenzolate bromide.cdx
 OpenBabel08302519573D

 52 53  0  0  0  0  0  0  0  0999 V2000
    1.4711   -0.1519    0.3056 C   0  0  0  0  0  0  0  0  0  0  0  0
    0.5722   -1.2098    0.1451 C   0  0  0  0  0  0  0  0  0  0  0  0
   -0.8147   -1.0009    0.2264 C   0  0  0  0  0  0  0  0  0  0  0  0
   -1.2673    0.3128    0.4590 C   0  0  0  0  0  0  0  0  0  0  0  0
   -0.3675    1.3692    0.6239 C   0  0  0  0  0  0  0  0  0  0  0  0
    1.0015    1.1356    0.5487 C   0  0  0  0  0  0  0  0  0  0  0  0
   -1.8085   -2.1497    0.0290 C   0  0  0  0  0  0  0  0  0  0  0  0
   -2.8153   -2.1510    1.2434 C   0  0  0  0  0  0  0  0  0  0  0  0
   -2.4862   -2.1459   -1.3601 C   0  0  0  0  0  0  0  0  0  0  0  0
   -1.1117   -3.4231    0.1685 O   0  0  0  0  0  0  0  0  0  0  0  0
   -2.3486   -2.9171    2.3040 O   0  0  0  0  0  0  0  0  0  0  0  0
   -3.8579   -1.5057    1.3398 O   0  0  0  0  0  0  0  0  0  0  0  0
   -3.1549   -2.8984    3.4962 C   0  0  0  0  0  0  0  0  0  0  0  0
   -1.8691   -2.8035   -2.4466 C   0  0  0  0  0  0  0  0  0  0  0  0
   -2.4998   -2.9296   -3.6883 C   0  0  0  0  0  0  0  0  0  0  0  0
   -3.7500   -2.3612   -3.8908 C   0  0  0  0  0  0  0  0  0  0  0  0
   -4.3330   -1.6124   -2.8745 C   0  0  0  0  0  0  0  0  0  0  0  0
   -3.7007   -1.4923   -1.6289 C   0  0  0  0  0  0  0  0  0  0  0  0
   -2.7085   -1.7449    4.3923 C   0  0  0  0  0  0  0  0  0  0  0  0
   -1.3942   -2.0194    5.1118 C   0  0  0  0  0  0  0  0  0  0  0  0
   -1.4445   -3.3348    5.9007 N   0  3  0  0  0  0  0  0  0  0  0  0
   -1.7533   -4.4794    4.9333 C   0  0  0  0  0  0  0  0  0  0  0  0
   -3.0625   -4.2556    4.1925 C   0  0  0  0  0  0  0  0  0  0  0  0
   -0.0578   -3.5835    6.5112 C   0  0  0  0  0  0  0  0  0  0  0  0
   -2.4349   -3.2695    7.0623 C   0  0  0  0  0  0  0  0  0  0  0  0
    0.6918    0.3792   -3.9074 Br  0  5  0  0  0  0  0  0  0  0  0  0
    2.5357   -0.3230    0.1694 H   0  0  0  0  0  0  0  0  0  0  0  0
    0.9691   -2.1911   -0.1042 H   0  0  0  0  0  0  0  0  0  0  0  0
   -2.3305    0.5425    0.4648 H   0  0  0  0  0  0  0  0  0  0  0  0
   -0.7361    2.3839    0.7490 H   0  0  0  0  0  0  0  0  0  0  0  0
    1.7018    1.9645    0.6086 H   0  0  0  0  0  0  0  0  0  0  0  0
   -1.6241   -4.0657   -0.3514 H   0  0  0  0  0  0  0  0  0  0  0  0
   -4.2077   -2.7601    3.2209 H   0  0  0  0  0  0  0  0  0  0  0  0
   -0.8585   -3.2027   -2.3499 H   0  0  0  0  0  0  0  0  0  0  0  0
   -1.9954   -3.4440   -4.5031 H   0  0  0  0  0  0  0  0  0  0  0  0
   -4.2408   -2.4555   -4.8563 H   0  0  0  0  0  0  0  0  0  0  0  0
   -5.2732   -1.0986   -3.0579 H   0  0  0  0  0  0  0  0  0  0  0  0
   -4.1774   -0.8540   -0.8904 H   0  0  0  0  0  0  0  0  0  0  0  0
   -3.4937   -1.5279    5.1243 H   0  0  0  0  0  0  0  0  0  0  0  0
   -2.5806   -0.8342    3.7956 H   0  0  0  0  0  0  0  0  0  0  0  0
   -1.1659   -1.2196    5.8255 H   0  0  0  0  0  0  0  0  0  0  0  0
   -0.5648   -2.1011    4.3991 H   0  0  0  0  0  0  0  0  0  0  0  0
   -0.9134   -4.5502    4.2330 H   0  0  0  0  0  0  0  0  0  0  0  0
   -1.7939   -5.4032    5.5236 H   0  0  0  0  0  0  0  0  0  0  0  0
   -3.8981   -4.3560    4.8949 H   0  0  0  0  0  0  0  0  0  0  0  0
   -3.1784   -5.0584    3.4539 H   0  0  0  0  0  0  0  0  0  0  0  0
   -0.0885   -4.5330    7.0564 H   0  0  0  0  0  0  0  0  0  0  0  0
    0.6796   -3.6286    5.7060 H   0  0  0  0  0  0  0  0  0  0  0  0
    0.1703   -2.7612    7.1964 H   0  0  0  0  0  0  0  0  0  0  0  0
   -3.4419   -3.0877    6.6840 H   0  0  0  0  0  0  0  0  0  0  0  0
   -2.4052   -4.2249    7.5954 H   0  0  0  0  0  0  0  0  0  0  0  0
   -2.1334   -2.4545    7.7277 H   0  0  0  0  0  0  0  0  0  0  0  0
  1  2  2  0  0  0  0
  1 27  1  0  0  0  0
  2  3  1  0  0  0  0
  2 28  1  0  0  0  0
  3  4  2  0  0  0  0
  3  7  1  0  0  0  0
  4  5  1  0  0  0  0
  4 29  1  0  0  0  0
  5  6  2  0  0  0  0
  5 30  1  0  0  0  0
  6  1  1  0  0  0  0
  6 31  1  0  0  0  0
  7  8  1  0  0  0  0
  7  9  1  0  0  0  0
  7 10  1  0  0  0  0
  8 11  1  0  0  0  0
  8 12  2  0  0  0  0
  9 14  2  0  0  0  0
 10 32  1  0  0  0  0
 11 13  1  0  0  0  0
 13 19  1  0  0  0  0
 13 33  1  0  0  0  0
 14 15  1  0  0  0  0
 14 34  1  0  0  0  0
 15 16  2  0  0  0  0
 15 35  1  0  0  0  0
 16 17  1  0  0  0  0
 16 36  1  0  0  0  0
 17 18  2  0  0  0  0
 17 37  1  0  0  0  0
 18  9  1  0  0  0  0
 18 38  1  0  0  0  0
 19 20  1  0  0  0  0
 19 39  1  0  0  0  0
 19 40  1  0  0  0  0
 20 21  1  0  0  0  0
 20 41  1  0  0  0  0
 20 42  1  0  0  0  0
 21 22  1  0  0  0  0
 21 24  1  0  0  0  0
 21 25  1  0  0  0  0
 22 23  1  0  0  0  0
 22 43  1  0  0  0  0
 22 44  1  0  0  0  0
 23 13  1  0  0  0  0
 23 45  1  0  0  0  0
 23 46  1  0  0  0  0
 24 47  1  0  0  0  0
 24 48  1  0  0  0  0
 24 49  1  0  0  0  0
 25 50  1  0  0  0  0
 25 51  1  0  0  0  0
 25 52  1  0  0  0  0
M  CHG  2  21   1  26  -1
M  END
>  <Mol_ID>
2294

>  <Formula>
C21H26BrNO3

>  <MolWeight>
420.34004

>  <Cat>
S4375

>  <Name>
Mepenzolate Bromide

>  <Synonyms>
N/A

>  <Target>
Others

>  <Form>
bromide

>  <CAS>
76-90-4

>  <URL>
http://www.selleckchem.com/products/mepenzolate-bromide.html

$$$$
