mepiroxol.cdx
 OpenBabel08302519573D

 16 16  0  0  0  0  0  0  0  0999 V2000
    1.2192    1.2181    0.0136 C   0  0  0  0  0  0  0  0  0  0  0  0
   -0.1788    1.2005    0.0073 C   0  0  0  0  0  0  0  0  0  0  0  0
   -0.8938    0.0139    0.0065 N   0  3  0  0  0  0  0  0  0  0  0  0
   -0.1954   -1.1791    0.0084 C   0  0  0  0  0  0  0  0  0  0  0  0
    1.1974   -1.2047    0.0116 C   0  0  0  0  0  0  0  0  0  0  0  0
    1.9015   -0.0038    0.0146 C   0  0  0  0  0  0  0  0  0  0  0  0
   -2.1616    0.0258    0.0057 O   0  5  0  0  0  0  0  0  0  0  0  0
    1.9697    2.5182    0.0046 C   0  0  0  0  0  0  0  0  0  0  0  0
    2.7821    2.6191    1.1641 O   0  0  0  0  0  0  0  0  0  0  0  0
   -0.8149    2.0736    0.0016 H   0  0  0  0  0  0  0  0  0  0  0  0
   -0.8325   -2.0500    0.0066 H   0  0  0  0  0  0  0  0  0  0  0  0
    1.7254   -2.1538    0.0119 H   0  0  0  0  0  0  0  0  0  0  0  0
    2.9912   -0.0185    0.0194 H   0  0  0  0  0  0  0  0  0  0  0  0
    2.6083    2.5798   -0.8825 H   0  0  0  0  0  0  0  0  0  0  0  0
    1.2893    3.3768   -0.0120 H   0  0  0  0  0  0  0  0  0  0  0  0
    2.2082    2.4625    1.9342 H   0  0  0  0  0  0  0  0  0  0  0  0
  1  2  2  0  0  0  0
  1  8  1  0  0  0  0
  2  3  1  0  0  0  0
  2 10  1  0  0  0  0
  3  4  2  0  0  0  0
  3  7  1  0  0  0  0
  4  5  1  0  0  0  0
  4 11  1  0  0  0  0
  5  6  2  0  0  0  0
  5 12  1  0  0  0  0
  6  1  1  0  0  0  0
  6 13  1  0  0  0  0
  8  9  1  0  0  0  0
  8 14  1  0  0  0  0
  8 15  1  0  0  0  0
  9 16  1  0  0  0  0
M  CHG  2   3   1   7  -1
M  END
>  <Mol_ID>
2295

>  <Formula>
C6H7NO2

>  <MolWeight>
125.12528

>  <Cat>
S4333

>  <Name>
Mepiroxol

>  <Synonyms>
N/A

>  <Target>
Dehydrogenase

>  <Form>
Free Base

>  <CAS>
6968-72-5

>  <URL>
http://www.selleckchem.com/products/mepiroxol.html

$$$$
