Mequinol.cdx
 OpenBabel08302522033D

 17 17  0  0  0  0  0  0  0  0999 V2000
    0.2142    1.1926    0.0078 C   0  0  0  0  0  0  0  0  0  0  0  0
   -1.1813    1.1938   -0.0029 C   0  0  0  0  0  0  0  0  0  0  0  0
   -1.8922   -0.0073   -0.0355 C   0  0  0  0  0  0  0  0  0  0  0  0
   -1.1956   -1.2181   -0.0272 C   0  0  0  0  0  0  0  0  0  0  0  0
    0.2032   -1.2235   -0.0076 C   0  0  0  0  0  0  0  0  0  0  0  0
    0.8959   -0.0161    0.0040 C   0  0  0  0  0  0  0  0  0  0  0  0
    2.2583    0.0223    0.0168 O   0  0  0  0  0  0  0  0  0  0  0  0
   -3.2536    0.1209   -0.0154 O   0  0  0  0  0  0  0  0  0  0  0  0
   -3.9817   -0.9150   -0.6625 C   0  0  0  0  0  0  0  0  0  0  0  0
    0.7622    2.1300    0.0245 H   0  0  0  0  0  0  0  0  0  0  0  0
   -1.7189    2.1395    0.0081 H   0  0  0  0  0  0  0  0  0  0  0  0
   -1.7145   -2.1703   -0.0085 H   0  0  0  0  0  0  0  0  0  0  0  0
    0.7294   -2.1725    0.0099 H   0  0  0  0  0  0  0  0  0  0  0  0
    2.5954   -0.8881   -0.0029 H   0  0  0  0  0  0  0  0  0  0  0  0
   -3.6930   -1.0004   -1.7150 H   0  0  0  0  0  0  0  0  0  0  0  0
   -3.8734   -1.8746   -0.1459 H   0  0  0  0  0  0  0  0  0  0  0  0
   -5.0427   -0.6475   -0.6259 H   0  0  0  0  0  0  0  0  0  0  0  0
  1  2  2  0  0  0  0
  1 10  1  0  0  0  0
  2  3  1  0  0  0  0
  2 11  1  0  0  0  0
  3  4  2  0  0  0  0
  3  8  1  0  0  0  0
  4  5  1  0  0  0  0
  4 12  1  0  0  0  0
  5  6  2  0  0  0  0
  5 13  1  0  0  0  0
  6  1  1  0  0  0  0
  6  7  1  0  0  0  0
  7 14  1  0  0  0  0
  8  9  1  0  0  0  0
  9 15  1  0  0  0  0
  9 16  1  0  0  0  0
  9 17  1  0  0  0  0
M  END
>  <Mol_ID>
1238

>  <Formula>
C7H8O2

>  <MolWeight>
124.13722

>  <Cat>
S4077

>  <Name>
Mequinol

>  <Synonyms>
N/A

>  <Target>
Others

>  <Form>
free base

>  <CAS>
150-76-5

>  <URL>
http://selleckchem.com/products/mequinol.html

$$$$
