Meranzin hydrate
 OpenBabel08302521593D

 38 39  0  0  1  0  0  0  0  0999 V2000
    0.7002    0.0003   -0.0596 C   0  0  0  0  0  0  0  0  0  0  0  0
    0.3643   -1.2247   -0.9501 C   0  0  1  0  0  0  0  0  0  0  0  0
   -1.1471   -1.5896   -1.1063 C   0  0  0  0  0  0  0  0  0  0  0  0
    0.8758   -0.8779   -2.2587 O   0  0  0  0  0  0  0  0  0  0  0  0
   -1.3522   -2.6682   -2.1869 C   0  0  0  0  0  0  0  0  0  0  0  0
   -1.7942   -2.0820    0.1907 C   0  0  0  0  0  0  0  0  0  0  0  0
   -1.8422   -0.4124   -1.5567 O   0  0  0  0  0  0  0  0  0  0  0  0
    1.8630   -2.1834    1.5949 O   0  0  0  0  0  0  0  0  0  0  0  0
    3.1825   -1.6883    1.3362 C   0  0  0  0  0  0  0  0  0  0  0  0
   -0.7337    4.3536    1.7908 O   0  0  0  0  0  0  0  0  0  0  0  0
   -0.0830    0.8660    2.1826 C   0  0  0  0  0  0  0  0  0  0  0  0
    0.5618   -0.1380    1.4359 C   0  0  0  0  0  0  0  0  0  0  0  0
   -0.4334    0.7023    3.5230 C   0  0  0  0  0  0  0  0  0  0  0  0
   -0.3231    2.1108    1.5466 O   0  0  0  0  0  0  0  0  0  0  0  0
    1.0544   -1.2344    2.1602 C   0  0  0  0  0  0  0  0  0  0  0  0
   -0.1111   -0.4946    4.1574 C   0  0  0  0  0  0  0  0  0  0  0  0
   -1.1086    1.7847    4.2220 C   0  0  0  0  0  0  0  0  0  0  0  0
   -0.7363    3.2226    2.2614 C   0  0  0  0  0  0  0  0  0  0  0  0
    0.6701   -1.4381    3.4863 C   0  0  0  0  0  0  0  0  0  0  0  0
   -1.2214    2.9770    3.6287 C   0  0  0  0  0  0  0  0  0  0  0  0
    0.0865    0.8352   -0.4194 H   0  0  0  0  0  0  0  0  0  0  0  0
    1.7251    0.3285   -0.2747 H   0  0  0  0  0  0  0  0  0  0  0  0
    0.9191   -2.1134   -0.6381 H   0  0  0  0  0  0  0  0  0  0  0  0
    0.2677   -0.1860   -2.5884 H   0  0  0  0  0  0  0  0  0  0  0  0
   -1.0504   -3.6586   -1.8300 H   0  0  0  0  0  0  0  0  0  0  0  0
   -2.4046   -2.7183   -2.4940 H   0  0  0  0  0  0  0  0  0  0  0  0
   -0.7882   -2.4512   -3.0999 H   0  0  0  0  0  0  0  0  0  0  0  0
   -1.8572   -1.2941    0.9442 H   0  0  0  0  0  0  0  0  0  0  0  0
   -2.8300   -2.3970    0.0113 H   0  0  0  0  0  0  0  0  0  0  0  0
   -1.2533   -2.9386    0.6079 H   0  0  0  0  0  0  0  0  0  0  0  0
   -2.7904   -0.6301   -1.6051 H   0  0  0  0  0  0  0  0  0  0  0  0
    3.1982   -0.6972    0.8726 H   0  0  0  0  0  0  0  0  0  0  0  0
    3.7737   -1.6601    2.2577 H   0  0  0  0  0  0  0  0  0  0  0  0
    3.6665   -2.3807    0.6398 H   0  0  0  0  0  0  0  0  0  0  0  0
   -0.4192   -0.6823    5.1844 H   0  0  0  0  0  0  0  0  0  0  0  0
   -1.4830    1.6201    5.2279 H   0  0  0  0  0  0  0  0  0  0  0  0
    0.9853   -2.3427    4.0075 H   0  0  0  0  0  0  0  0  0  0  0  0
   -1.6682    3.8252    4.1300 H   0  0  0  0  0  0  0  0  0  0  0  0
  1  2  1  0  0  0  0
  1 12  1  0  0  0  0
  1 21  1  0  0  0  0
  1 22  1  0  0  0  0
  2  3  1  0  0  0  0
  2  4  1  0  0  0  0
  2 23  1  1  0  0  0
  3  5  1  0  0  0  0
  3  6  1  0  0  0  0
  3  7  1  0  0  0  0
  4 24  1  0  0  0  0
  5 25  1  0  0  0  0
  5 26  1  0  0  0  0
  5 27  1  0  0  0  0
  6 28  1  0  0  0  0
  6 29  1  0  0  0  0
  6 30  1  0  0  0  0
  7 31  1  0  0  0  0
  8  9  1  0  0  0  0
  8 15  1  0  0  0  0
  9 32  1  0  0  0  0
  9 33  1  0  0  0  0
  9 34  1  0  0  0  0
 10 18  2  0  0  0  0
 11 12  2  0  0  0  0
 11 13  1  0  0  0  0
 11 14  1  0  0  0  0
 12 15  1  0  0  0  0
 13 16  2  0  0  0  0
 13 17  1  0  0  0  0
 14 18  1  0  0  0  0
 15 19  2  0  0  0  0
 16 19  1  0  0  0  0
 16 35  1  0  0  0  0
 17 20  2  0  0  0  0
 17 36  1  0  0  0  0
 18 20  1  0  0  0  0
 19 37  1  0  0  0  0
 20 38  1  0  0  0  0
M  END
>  <Mol_ID>
10133

>  <Formula>
C15H18O5

>  <MolWeight>
278.30042

>  <Cat>
S6372

>  <Name>
Meranzin hydrate

>  <Synonyms>
N/A

>  <Target>
P450 (e.g. CYP17)

>  <Form>
free base

>  <CAS>
5875-49-0

>  <URL>
https://www.selleckchem.com/products/meranzin-hydrate.html

$$$$
