Mercaptopurine.cdx
 OpenBabel08302519513D

 14 15  0  0  0  0  0  0  0  0999 V2000
    2.1426    0.6673   -0.0050 N   0  0  0  0  0  0  0  0  0  0  0  0
    2.0115   -0.6248   -0.0036 C   0  0  0  0  0  0  0  0  0  0  0  0
    0.8621   -1.3714   -0.0019 N   0  0  0  0  0  0  0  0  0  0  0  0
   -0.2654   -0.6620   -0.0010 C   0  0  0  0  0  0  0  0  0  0  0  0
   -0.2256    0.7039   -0.0023 C   0  0  0  0  0  0  0  0  0  0  0  0
    0.9993    1.4470   -0.0049 C   0  0  0  0  0  0  0  0  0  0  0  0
    0.9473    3.1174   -0.0077 S   0  0  0  0  0  0  0  0  0  0  0  0
   -1.5249   -1.1565    0.0010 N   0  0  0  0  0  0  0  0  0  0  0  0
   -2.2863   -0.0798    0.0010 C   0  0  0  0  0  0  0  0  0  0  0  0
   -1.5436    1.0748   -0.0008 N   0  0  0  0  0  0  0  0  0  0  0  0
    2.9179   -1.2536   -0.0037 H   0  0  0  0  0  0  0  0  0  0  0  0
    0.8686   -2.3817   -0.0008 H   0  0  0  0  0  0  0  0  0  0  0  0
   -3.3685   -0.0683    0.0022 H   0  0  0  0  0  0  0  0  0  0  0  0
   -1.8973    2.0230   -0.0009 H   0  0  0  0  0  0  0  0  0  0  0  0
  1  2  2  0  0  0  0
  2  3  1  0  0  0  0
  2 11  1  0  0  0  0
  3  4  1  0  0  0  0
  3 12  1  0  0  0  0
  4  5  2  0  0  0  0
  4  8  1  0  0  0  0
  5  6  1  0  0  0  0
  6  1  1  0  0  0  0
  6  7  2  0  0  0  0
  8  9  2  0  0  0  0
  9 10  1  0  0  0  0
  9 13  1  0  0  0  0
 10  5  1  0  0  0  0
 10 14  1  0  0  0  0
M  END
>  <Mol_ID>
200

>  <Formula>
C5H4N4S

>  <MolWeight>
152.17706

>  <Cat>
S1305

>  <Name>
Mercaptopurine (6-MP)

>  <Synonyms>
6-MP

>  <Target>
DNA/RNA Synthesis

>  <Form>
free base

>  <CAS>
50-44-2

>  <URL>
http://selleckchem.com/products/Mercaptopurine.html

$$$$
