Merimepodib
 OpenBabel08302521233D

 57 60  0  0  0  0  0  0  0  0999 V2000
   -0.0511    0.3379   -3.4995 C   0  0  0  0  0  0  0  0  0  0  0  0
   -1.1654    0.2106   -2.7286 N   0  0  0  0  0  0  0  0  0  0  0  0
    1.0662    0.6220   -3.0905 O   0  0  0  0  0  0  0  0  0  0  0  0
   -0.3687    0.0997   -4.7919 O   0  0  0  0  0  0  0  0  0  0  0  0
   -1.1563    0.3800   -1.3021 C   0  0  0  0  0  0  0  0  0  0  0  0
   -1.5591    1.7669   -0.8662 C   0  0  0  0  0  0  0  0  0  0  0  0
   -2.9092    2.1019   -0.6726 C   0  0  0  0  0  0  0  0  0  0  0  0
   -3.2894    3.3734   -0.2148 C   0  0  0  0  0  0  0  0  0  0  0  0
   -2.2917    4.2809    0.1475 C   0  0  0  0  0  0  0  0  0  0  0  0
   -0.9477    3.9783   -0.0911 C   0  0  0  0  0  0  0  0  0  0  0  0
   -0.5861    2.7432   -0.6288 C   0  0  0  0  0  0  0  0  0  0  0  0
   -4.6413    3.8077   -0.1436 N   0  0  0  0  0  0  0  0  0  0  0  0
   -5.6471    3.2999   -0.9533 C   0  0  0  0  0  0  0  0  0  0  0  0
   -5.4654    2.3794   -1.7438 O   0  0  0  0  0  0  0  0  0  0  0  0
   -6.8493    3.9799   -0.8110 N   0  0  0  0  0  0  0  0  0  0  0  0
   -7.9859    3.8225   -1.6512 C   0  0  0  0  0  0  0  0  0  0  0  0
   -8.0879    2.8058   -2.6092 C   0  0  0  0  0  0  0  0  0  0  0  0
   -9.1053    2.7898   -3.5718 C   0  0  0  0  0  0  0  0  0  0  0  0
  -10.0993    3.7843   -3.5488 C   0  0  0  0  0  0  0  0  0  0  0  0
  -10.0681    4.7289   -2.5055 C   0  0  0  0  0  0  0  0  0  0  0  0
   -9.0214    4.7516   -1.5689 C   0  0  0  0  0  0  0  0  0  0  0  0
  -11.6394    5.1390   -4.8253 O   0  0  0  0  0  0  0  0  0  0  0  0
  -12.4333    4.9729   -5.9179 C   0  0  0  0  0  0  0  0  0  0  0  0
  -12.4790    3.7537   -6.4003 N   0  0  0  0  0  0  0  0  0  0  0  0
  -11.6278    3.0599   -5.5751 C   0  0  0  0  0  0  0  0  0  0  0  0
  -11.0983    3.8927   -4.6100 C   0  0  0  0  0  0  0  0  0  0  0  0
   -9.1640    1.8546   -4.5768 O   0  0  0  0  0  0  0  0  0  0  0  0
   -8.0551    0.9721   -4.7255 C   0  0  0  0  0  0  0  0  0  0  0  0
    1.6309    1.8253   -7.2486 O   0  0  0  0  0  0  0  0  0  0  0  0
    1.1968    1.6688   -5.8883 C   0  0  0  0  0  0  0  0  0  0  0  0
    0.7077    0.2367   -5.7266 C   0  0  2  0  0  0  0  0  0  0  0  0
    0.2195   -0.0734   -7.1253 C   0  0  0  0  0  0  0  0  0  0  0  0
    1.1969    0.6830   -7.9953 C   0  0  0  0  0  0  0  0  0  0  0  0
   -2.0310    0.0120   -3.2102 H   0  0  0  0  0  0  0  0  0  0  0  0
   -1.8470   -0.3578   -0.8778 H   0  0  0  0  0  0  0  0  0  0  0  0
   -0.1618    0.1409   -0.9054 H   0  0  0  0  0  0  0  0  0  0  0  0
   -3.6612    1.3433   -0.8777 H   0  0  0  0  0  0  0  0  0  0  0  0
   -2.5397    5.2517    0.5651 H   0  0  0  0  0  0  0  0  0  0  0  0
   -0.1772    4.7130    0.1298 H   0  0  0  0  0  0  0  0  0  0  0  0
    0.4607    2.5335   -0.8426 H   0  0  0  0  0  0  0  0  0  0  0  0
   -4.7904    4.7301    0.2344 H   0  0  0  0  0  0  0  0  0  0  0  0
   -6.8761    4.7462   -0.1555 H   0  0  0  0  0  0  0  0  0  0  0  0
   -7.3522    2.0177   -2.6240 H   0  0  0  0  0  0  0  0  0  0  0  0
  -10.8478    5.4859   -2.4365 H   0  0  0  0  0  0  0  0  0  0  0  0
   -9.0181    5.5333   -0.8135 H   0  0  0  0  0  0  0  0  0  0  0  0
  -12.9407    5.8534   -6.2847 H   0  0  0  0  0  0  0  0  0  0  0  0
  -11.4236    2.0096   -5.7342 H   0  0  0  0  0  0  0  0  0  0  0  0
   -7.1051    1.5156   -4.7815 H   0  0  0  0  0  0  0  0  0  0  0  0
   -8.0431    0.2334   -3.9169 H   0  0  0  0  0  0  0  0  0  0  0  0
   -8.1784    0.4351   -5.6695 H   0  0  0  0  0  0  0  0  0  0  0  0
    0.3999    2.3945   -5.6950 H   0  0  0  0  0  0  0  0  0  0  0  0
    2.0327    1.8994   -5.2210 H   0  0  0  0  0  0  0  0  0  0  0  0
    1.5328   -0.4437   -5.4692 H   0  0  0  0  0  0  0  0  0  0  0  0
    0.1928   -1.1432   -7.3491 H   0  0  0  0  0  0  0  0  0  0  0  0
   -0.7982    0.3109   -7.2668 H   0  0  0  0  0  0  0  0  0  0  0  0
    2.0789    0.0769   -8.2273 H   0  0  0  0  0  0  0  0  0  0  0  0
    0.7459    1.0132   -8.9364 H   0  0  0  0  0  0  0  0  0  0  0  0
  1  2  1  0  0  0  0
  1  3  2  0  0  0  0
  1  4  1  0  0  0  0
  2  5  1  0  0  0  0
  2 34  1  0  0  0  0
  5  6  1  0  0  0  0
  5 35  1  0  0  0  0
  5 36  1  0  0  0  0
  6  7  2  0  0  0  0
  6 11  1  0  0  0  0
  7  8  1  0  0  0  0
  7 37  1  0  0  0  0
  8  9  2  0  0  0  0
  8 12  1  0  0  0  0
  9 10  1  0  0  0  0
  9 38  1  0  0  0  0
 10 11  2  0  0  0  0
 10 39  1  0  0  0  0
 11 40  1  0  0  0  0
 12 13  1  0  0  0  0
 12 41  1  0  0  0  0
 13 14  2  0  0  0  0
 13 15  1  0  0  0  0
 15 16  1  0  0  0  0
 15 42  1  0  0  0  0
 16 17  2  0  0  0  0
 16 21  1  0  0  0  0
 17 18  1  0  0  0  0
 17 43  1  0  0  0  0
 18 19  2  0  0  0  0
 18 27  1  0  0  0  0
 19 20  1  0  0  0  0
 19 26  1  0  0  0  0
 20 21  2  0  0  0  0
 20 44  1  0  0  0  0
 21 45  1  0  0  0  0
 22 23  1  0  0  0  0
 22 26  1  0  0  0  0
 23 24  2  0  0  0  0
 23 46  1  0  0  0  0
 24 25  1  0  0  0  0
 25 26  2  0  0  0  0
 25 47  1  0  0  0  0
 27 28  1  0  0  0  0
 28 48  1  0  0  0  0
 28 49  1  0  0  0  0
 28 50  1  0  0  0  0
 29 30  1  0  0  0  0
 29 33  1  0  0  0  0
 30 31  1  0  0  0  0
 30 51  1  0  0  0  0
 30 52  1  0  0  0  0
 31 32  1  0  0  0  0
 31  4  1  0  0  0  0
 31 53  1  1  0  0  0
 32 33  1  0  0  0  0
 32 54  1  0  0  0  0
 32 55  1  0  0  0  0
 33 56  1  0  0  0  0
 33 57  1  0  0  0  0
M  END
>  <Mol_ID>
4850

>  <Formula>
C23H24N4O6

>  <MolWeight>
452.45986

>  <Cat>
S6689

>  <Name>
Merimepodib

>  <Synonyms>
Merimempodib; MMPD; VI-21,497; VX-497

>  <Target>
Dehydrogenase,HCV

>  <Form>
Free Base

>  <CAS>
198821-22-6

>  <URL>
http://www.selleck.cn/products/merimepodib.html

$$$$
