Meropenem.cdx
 OpenBabel08302519563D

 51 53  0  0  0  0  0  0  0  0999 V2000
   -0.0637    0.7689   -0.0653 N   0  0  0  0  0  0  0  0  0  0  0  0
    0.7168   -0.4712   -0.3154 C   0  0  3  0  0  0  0  0  0  0  0  0
    1.9353    0.4603   -0.6274 C   0  0  3  0  0  0  0  0  0  0  0  0
    0.8547    1.5961   -0.6511 C   0  0  0  0  0  0  0  0  0  0  0  0
   -1.3489    0.5807   -0.5437 C   0  0  0  0  0  0  0  0  0  0  0  0
   -1.4781   -0.6185   -1.1467 C   0  0  0  0  0  0  0  0  0  0  0  0
   -0.1264   -1.2779   -1.3118 C   0  0  3  0  0  0  0  0  0  0  0  0
    0.6917    2.7222   -1.0516 O   0  0  0  0  0  0  0  0  0  0  0  0
    2.9733    0.5697    0.4851 C   0  0  3  0  0  0  0  0  0  0  0  0
    3.5209   -0.7991    0.8852 C   0  0  0  0  0  0  0  0  0  0  0  0
    4.0534    1.3817    0.0368 O   0  0  0  0  0  0  0  0  0  0  0  0
   -2.4023    1.5939   -0.2701 C   0  0  0  0  0  0  0  0  0  0  0  0
   -1.9274    2.8585   -0.1417 O   0  0  0  0  0  0  0  0  0  0  0  0
   -3.5869    1.3270   -0.1135 O   0  0  0  0  0  0  0  0  0  0  0  0
   -2.8780   -1.3943   -1.7724 S   0  0  0  0  0  0  0  0  0  0  0  0
    0.4145   -1.2025   -2.7386 C   0  0  0  0  0  0  0  0  0  0  0  0
   -3.5733   -2.2362   -0.2904 C   0  0  3  0  0  0  0  0  0  0  0  0
   -2.8553   -3.4911    0.2093 C   0  0  0  0  0  0  0  0  0  0  0  0
   -3.4069   -4.6632   -0.6188 C   0  0  3  0  0  0  0  0  0  0  0  0
   -4.7047   -4.1847   -1.1428 N   0  0  0  0  0  0  0  0  0  0  0  0
   -4.9381   -2.8209   -0.6417 C   0  0  0  0  0  0  0  0  0  0  0  0
   -2.4176   -5.1308   -1.7283 C   0  0  0  0  0  0  0  0  0  0  0  0
   -1.2662   -4.6736   -1.7562 O   0  0  0  0  0  0  0  0  0  0  0  0
   -2.7660   -6.1793   -2.5827 N   0  0  0  0  0  0  0  0  0  0  0  0
   -1.7320   -6.7101   -3.4584 C   0  0  0  0  0  0  0  0  0  0  0  0
   -4.1008   -6.7039   -2.8191 C   0  0  0  0  0  0  0  0  0  0  0  0
    0.7987   -1.0260    0.6272 H   0  0  0  0  0  0  0  0  0  0  0  0
    2.3969    0.2727   -1.6058 H   0  0  0  0  0  0  0  0  0  0  0  0
   -0.1595   -2.3235   -0.9920 H   0  0  0  0  0  0  0  0  0  0  0  0
    2.5457    1.0508    1.3722 H   0  0  0  0  0  0  0  0  0  0  0  0
    3.8893   -1.3494    0.0122 H   0  0  0  0  0  0  0  0  0  0  0  0
    4.3599   -0.6912    1.5801 H   0  0  0  0  0  0  0  0  0  0  0  0
    2.7615   -1.4155    1.3744 H   0  0  0  0  0  0  0  0  0  0  0  0
    4.5817    0.8783   -0.6070 H   0  0  0  0  0  0  0  0  0  0  0  0
   -0.9874    2.9823   -0.4106 H   0  0  0  0  0  0  0  0  0  0  0  0
    1.3666   -1.7398   -2.8080 H   0  0  0  0  0  0  0  0  0  0  0  0
   -0.2759   -1.6590   -3.4554 H   0  0  0  0  0  0  0  0  0  0  0  0
    0.5931   -0.1730   -3.0671 H   0  0  0  0  0  0  0  0  0  0  0  0
   -3.6639   -1.4978    0.5133 H   0  0  0  0  0  0  0  0  0  0  0  0
   -3.1665   -3.6564    1.2526 H   0  0  0  0  0  0  0  0  0  0  0  0
   -1.7672   -3.4039    0.2310 H   0  0  0  0  0  0  0  0  0  0  0  0
   -3.5583   -5.5317    0.0368 H   0  0  0  0  0  0  0  0  0  0  0  0
   -5.4528   -4.7879   -0.8014 H   0  0  0  0  0  0  0  0  0  0  0  0
   -5.5482   -2.8859    0.2683 H   0  0  0  0  0  0  0  0  0  0  0  0
   -5.5052   -2.2333   -1.3703 H   0  0  0  0  0  0  0  0  0  0  0  0
   -1.9861   -7.7304   -3.7645 H   0  0  0  0  0  0  0  0  0  0  0  0
   -1.6623   -6.0699   -4.3426 H   0  0  0  0  0  0  0  0  0  0  0  0
   -0.7627   -6.7331   -2.9520 H   0  0  0  0  0  0  0  0  0  0  0  0
   -4.1745   -7.6875   -2.3467 H   0  0  0  0  0  0  0  0  0  0  0  0
   -4.8982   -6.0733   -2.4468 H   0  0  0  0  0  0  0  0  0  0  0  0
   -4.2502   -6.8158   -3.8988 H   0  0  0  0  0  0  0  0  0  0  0  0
  1  2  1  0  0  0  0
  1  5  1  0  0  0  0
  2  3  1  0  0  0  0
  2 27  1  0  0  0  0
  3  4  1  0  0  0  0
  3  9  1  0  0  0  0
  3 28  1  0  0  0  0
  4  1  1  0  0  0  0
  4  8  2  0  0  0  0
  5  6  2  0  0  0  0
  5 12  1  0  0  0  0
  6  7  1  0  0  0  0
  6 15  1  0  0  0  0
  7  2  1  0  0  0  0
  7 16  1  0  0  0  0
  7 29  1  0  0  0  0
  9 10  1  0  0  0  0
  9 11  1  0  0  0  0
  9 30  1  0  0  0  0
 10 31  1  0  0  0  0
 10 32  1  0  0  0  0
 10 33  1  0  0  0  0
 11 34  1  0  0  0  0
 12 13  1  0  0  0  0
 12 14  2  0  0  0  0
 13 35  1  0  0  0  0
 15 17  1  0  0  0  0
 16 36  1  0  0  0  0
 16 37  1  0  0  0  0
 16 38  1  0  0  0  0
 17 18  1  0  0  0  0
 17 39  1  0  0  0  0
 18 19  1  0  0  0  0
 18 40  1  0  0  0  0
 18 41  1  0  0  0  0
 19 20  1  0  0  0  0
 19 22  1  0  0  0  0
 19 42  1  0  0  0  0
 20 21  1  0  0  0  0
 20 43  1  0  0  0  0
 21 17  1  0  0  0  0
 21 44  1  0  0  0  0
 21 45  1  0  0  0  0
 22 23  2  0  0  0  0
 22 24  1  0  0  0  0
 24 25  1  0  0  0  0
 24 26  1  0  0  0  0
 25 46  1  0  0  0  0
 25 47  1  0  0  0  0
 25 48  1  0  0  0  0
 26 49  1  0  0  0  0
 26 50  1  0  0  0  0
 26 51  1  0  0  0  0
M  END
>  <Mol_ID>
229

>  <Formula>
C17H25N3O5S

>  <MolWeight>
383.4625

>  <Cat>
S1381

>  <Name>
Meropenem

>  <Synonyms>
SM 7338

>  <Target>
Antibiotics

>  <Form>
free base

>  <CAS>
96036-03-2

>  <URL>
http://selleckchem.com/products/Meropenem.html

$$$$
