MES
 OpenBabel08302521383D

 25 25  0  0  0  0  0  0  0  0999 V2000
    1.1588   -0.2368   -0.3181 C   0  0  0  0  0  0  0  0  0  0  0  0
    1.5644   -0.2741   -1.7886 C   0  0  0  0  0  0  0  0  0  0  0  0
    2.8632    0.9007   -2.1247 S   0  0  0  0  0  0  0  0  0  0  0  0
    2.3547    2.2496   -2.0547 O   0  0  0  0  0  0  0  0  0  0  0  0
    4.0741    0.4961   -1.4509 O   0  0  0  0  0  0  0  0  0  0  0  0
    3.0532    0.5715   -3.6921 O   0  0  0  0  0  0  0  0  0  0  0  0
    0.0301   -1.1398   -0.0174 N   0  0  0  0  0  0  0  0  0  0  0  0
   -0.4386   -0.9917    1.3822 C   0  0  0  0  0  0  0  0  0  0  0  0
    0.3001   -2.5742   -0.2644 C   0  0  0  0  0  0  0  0  0  0  0  0
    0.4346   -1.7138    2.4246 C   0  0  0  0  0  0  0  0  0  0  0  0
    1.1478   -3.2696    0.8129 C   0  0  0  0  0  0  0  0  0  0  0  0
    0.5719   -3.1045    2.1125 O   0  0  0  0  0  0  0  0  0  0  0  0
    0.8427    0.7904   -0.0880 H   0  0  0  0  0  0  0  0  0  0  0  0
    2.0235   -0.4440    0.3230 H   0  0  0  0  0  0  0  0  0  0  0  0
    1.9733   -1.2483   -2.0689 H   0  0  0  0  0  0  0  0  0  0  0  0
    0.7208   -0.0285   -2.4411 H   0  0  0  0  0  0  0  0  0  0  0  0
    3.3355    1.3931   -4.1513 H   0  0  0  0  0  0  0  0  0  0  0  0
   -1.4480   -1.4212    1.4283 H   0  0  0  0  0  0  0  0  0  0  0  0
   -0.5459    0.0662    1.6482 H   0  0  0  0  0  0  0  0  0  0  0  0
   -0.6757   -3.0751   -0.3039 H   0  0  0  0  0  0  0  0  0  0  0  0
    0.7461   -2.7408   -1.2490 H   0  0  0  0  0  0  0  0  0  0  0  0
    1.4302   -1.2635    2.5031 H   0  0  0  0  0  0  0  0  0  0  0  0
   -0.0368   -1.6462    3.4107 H   0  0  0  0  0  0  0  0  0  0  0  0
    1.1868   -4.3445    0.6068 H   0  0  0  0  0  0  0  0  0  0  0  0
    2.1782   -2.8969    0.8232 H   0  0  0  0  0  0  0  0  0  0  0  0
  1  2  1  0  0  0  0
  1  7  1  0  0  0  0
  1 13  1  0  0  0  0
  1 14  1  0  0  0  0
  2  3  1  0  0  0  0
  2 15  1  0  0  0  0
  2 16  1  0  0  0  0
  3  4  2  0  0  0  0
  3  5  2  0  0  0  0
  3  6  1  0  0  0  0
  6 17  1  0  0  0  0
  7  8  1  0  0  0  0
  7  9  1  0  0  0  0
  8 10  1  0  0  0  0
  8 18  1  0  0  0  0
  8 19  1  0  0  0  0
  9 11  1  0  0  0  0
  9 20  1  0  0  0  0
  9 21  1  0  0  0  0
 10 12  1  0  0  0  0
 10 22  1  0  0  0  0
 10 23  1  0  0  0  0
 11 12  1  0  0  0  0
 11 24  1  0  0  0  0
 11 25  1  0  0  0  0
M  END
>  <Mol_ID>
7613

>  <Formula>
C6H13NO4S

>  <MolWeight>
195.23672

>  <Cat>
E2942

>  <Name>
MES

>  <Synonyms>
2-Morpholinoethanesulphonic acid

>  <Target>
Others

>  <Form>
free base

>  <CAS>
4432-31-9

>  <URL>
https://www.selleckchem.com/products/mes.html

$$$$
