Mesaconine
 OpenBabel08302521533D

 73 78  0  0  1  0  0  0  0  0999 V2000
    1.2254    0.7953    0.4322 O   0  0  0  0  0  0  0  0  0  0  0  0
    0.3004   -0.2738    0.6440 C   0  0  0  0  0  0  0  0  0  0  0  0
    4.1364    4.5735    2.1990 C   0  0  0  0  0  0  0  0  0  0  0  0
    4.8670    5.1058    1.0938 O   0  0  0  0  0  0  0  0  0  0  0  0
    4.3578    6.3256    0.5869 C   0  0  0  0  0  0  0  0  0  0  0  0
    2.4949    4.5443    4.9560 O   0  0  0  0  0  0  0  0  0  0  0  0
    3.1456    4.4273    6.1800 C   0  0  0  0  0  0  0  0  0  0  0  0
   -0.6125    3.1932    1.0569 C   0  0  0  0  0  0  0  0  0  0  0  0
    2.2393    3.1046   -0.5335 O   0  0  0  0  0  0  0  0  0  0  0  0
   -1.4757    1.6406    4.7132 O   0  0  0  0  0  0  0  0  0  0  0  0
   -1.1082   -1.8445    3.6322 O   0  0  0  0  0  0  0  0  0  0  0  0
    0.9161   -3.0367    5.7371 O   0  0  0  0  0  0  0  0  0  0  0  0
   -0.8371    1.4129    7.3785 O   0  0  0  0  0  0  0  0  0  0  0  0
   -1.6474   -1.3556    5.9770 O   0  0  0  0  0  0  0  0  0  0  0  0
   -2.7990   -0.5119    5.9881 C   0  0  0  0  0  0  0  0  0  0  0  0
    2.0339    1.4089    2.7718 C   0  0  3  0  0  0  0  0  0  0  0  0
    2.8018    2.6978    3.1702 C   0  0  3  0  0  0  0  0  0  0  0  0
    0.6674    2.2048    2.9287 C   0  0  3  0  0  0  0  0  0  0  0  0
    1.9265    0.0447    3.6398 C   0  0  3  0  0  0  0  0  0  0  0  0
    2.3433    0.8236    1.3289 C   0  0  3  0  0  0  0  0  0  0  0  0
    2.9206    3.6479    1.8567 C   0  0  3  0  0  0  0  0  0  0  0  0
    1.8797    3.4741    4.2736 C   0  0  3  0  0  0  0  0  0  0  0  0
    0.7611    2.5188    4.6742 C   0  0  3  0  0  0  0  0  0  0  0  0
    0.4058    3.4013    2.0721 N   0  0  0  0  0  0  0  0  0  0  0  0
    0.4468    0.0646    3.9873 C   0  0  3  0  0  0  0  0  0  0  0  0
    2.3411   -0.9115    5.0365 C   0  0  0  0  0  0  0  0  0  0  0  0
    3.5224    1.4927    0.6594 C   0  0  0  0  0  0  0  0  0  0  0  0
    1.5217    4.3218    1.7014 C   0  0  0  0  0  0  0  0  0  0  0  0
    3.2413    2.9487    0.4844 C   0  0  3  0  0  0  0  0  0  0  0  0
   -0.1285    1.2466    4.9459 C   0  0  3  0  0  0  0  0  0  0  0  0
    0.1723   -1.4267    4.0234 C   0  0  3  0  0  0  0  0  0  0  0  0
    0.7820   -1.6629    5.4282 C   0  0  3  0  0  0  0  0  0  0  0  0
   -0.0599    0.6463    6.4700 C   0  0  3  0  0  0  0  0  0  0  0  0
   -0.3233   -0.9109    6.4326 C   0  0  3  0  0  0  0  0  0  0  0  0
    0.8265   -1.2253    0.8131 H   0  0  0  0  0  0  0  0  0  0  0  0
   -0.3827   -0.0594    1.4732 H   0  0  0  0  0  0  0  0  0  0  0  0
   -0.3037   -0.3813   -0.2607 H   0  0  0  0  0  0  0  0  0  0  0  0
    3.9037    5.3524    2.9303 H   0  0  0  0  0  0  0  0  0  0  0  0
    4.8960    3.9308    2.6698 H   0  0  0  0  0  0  0  0  0  0  0  0
    3.3220    6.2197    0.3336 H   0  0  0  0  0  0  0  0  0  0  0  0
    4.4958    7.1179    1.2878 H   0  0  0  0  0  0  0  0  0  0  0  0
    4.8956    6.5702   -0.3422 H   0  0  0  0  0  0  0  0  0  0  0  0
    2.4968    4.0088    6.9486 H   0  0  0  0  0  0  0  0  0  0  0  0
    4.0761    3.8758    6.0613 H   0  0  0  0  0  0  0  0  0  0  0  0
    3.4022    5.4519    6.4845 H   0  0  0  0  0  0  0  0  0  0  0  0
   -1.0953    4.1390    0.7990 H   0  0  0  0  0  0  0  0  0  0  0  0
   -0.2189    2.7488    0.1454 H   0  0  0  0  0  0  0  0  0  0  0  0
   -1.4157    2.5349    1.4120 H   0  0  0  0  0  0  0  0  0  0  0  0
    1.6562    2.3162   -0.4971 H   0  0  0  0  0  0  0  0  0  0  0  0
   -1.6968    2.2163    5.4745 H   0  0  0  0  0  0  0  0  0  0  0  0
   -1.6812   -1.8318    4.4157 H   0  0  0  0  0  0  0  0  0  0  0  0
    0.0400   -3.4386    5.6455 H   0  0  0  0  0  0  0  0  0  0  0  0
   -0.3481    1.4405    8.2238 H   0  0  0  0  0  0  0  0  0  0  0  0
   -3.5799   -1.0197    6.5563 H   0  0  0  0  0  0  0  0  0  0  0  0
   -2.6645    0.4780    6.4065 H   0  0  0  0  0  0  0  0  0  0  0  0
   -3.1849   -0.4069    4.9620 H   0  0  0  0  0  0  0  0  0  0  0  0
    3.7697    2.4560    3.6154 H   0  0  0  0  0  0  0  0  0  0  0  0
   -0.1969    1.5813    2.7188 H   0  0  0  0  0  0  0  0  0  0  0  0
    2.1434   -0.7511    2.9335 H   0  0  0  0  0  0  0  0  0  0  0  0
    2.7179   -0.2008    1.3610 H   0  0  0  0  0  0  0  0  0  0  0  0
    1.1613    4.1934    3.8801 H   0  0  0  0  0  0  0  0  0  0  0  0
    1.5840    2.0285    5.2569 H   0  0  0  0  0  0  0  0  0  0  0  0
    0.9690    0.2055    4.8798 H   0  0  0  0  0  0  0  0  0  0  0  0
    2.7157   -0.3055    5.8712 H   0  0  0  0  0  0  0  0  0  0  0  0
    3.0662   -1.6885    4.7454 H   0  0  0  0  0  0  0  0  0  0  0  0
    3.6758    1.0353   -0.3264 H   0  0  0  0  0  0  0  0  0  0  0  0
    4.4343    1.3493    1.2490 H   0  0  0  0  0  0  0  0  0  0  0  0
    1.3502    4.7564    0.7111 H   0  0  0  0  0  0  0  0  0  0  0  0
    1.4718    5.2211    2.3317 H   0  0  0  0  0  0  0  0  0  0  0  0
    4.1204    3.3737    0.0025 H   0  0  0  0  0  0  0  0  0  0  0  0
    0.7870   -2.0111    3.3299 H   0  0  0  0  0  0  0  0  0  0  0  0
    0.9613    0.7407    6.8320 H   0  0  0  0  0  0  0  0  0  0  0  0
   -0.2498   -1.3292    7.4388 H   0  0  0  0  0  0  0  0  0  0  0  0
  1  2  1  0  0  0  0
  2 35  1  0  0  0  0
  2 36  1  0  0  0  0
  2 37  1  0  0  0  0
  3  4  1  0  0  0  0
  3 38  1  0  0  0  0
  3 39  1  0  0  0  0
  4  5  1  0  0  0  0
  5 40  1  0  0  0  0
  5 41  1  0  0  0  0
  5 42  1  0  0  0  0
  6  7  1  0  0  0  0
  7 43  1  0  0  0  0
  7 44  1  0  0  0  0
  7 45  1  0  0  0  0
  8 24  1  0  0  0  0
  8 46  1  0  0  0  0
  8 47  1  0  0  0  0
  8 48  1  0  0  0  0
  9 49  1  0  0  0  0
 10 50  1  0  0  0  0
 11 51  1  0  0  0  0
 12 52  1  0  0  0  0
 13 53  1  0  0  0  0
 14 15  1  0  0  0  0
 15 54  1  0  0  0  0
 15 55  1  0  0  0  0
 15 56  1  0  0  0  0
 16 17  1  0  0  0  0
 16 18  1  0  0  0  0
 16 19  1  0  0  0  0
 16 20  1  0  0  0  0
 17 21  1  0  0  0  0
 17 22  1  0  0  0  0
 17 57  1  0  0  0  0
 18 23  1  0  0  0  0
 18 24  1  0  0  0  0
 18 58  1  0  0  0  0
 19 26  1  0  0  0  0
 19 59  1  0  0  0  0
 20  1  1  0  0  0  0
 20 27  1  0  0  0  0
 20 60  1  0  0  0  0
 21  3  1  0  0  0  0
 21 28  1  0  0  0  0
 21 29  1  0  0  0  0
 22  6  1  0  0  0  0
 22 61  1  0  0  0  0
 23 22  1  0  0  0  0
 23 30  1  0  0  0  0
 23 62  1  0  0  0  0
 24 28  1  0  0  0  0
 25 19  1  0  0  0  0
 25 30  1  0  0  0  0
 25 31  1  0  0  0  0
 25 63  1  0  0  0  0
 26 64  1  0  0  0  0
 26 65  1  0  0  0  0
 27 29  1  0  0  0  0
 27 66  1  0  0  0  0
 27 67  1  0  0  0  0
 28 68  1  0  0  0  0
 28 69  1  0  0  0  0
 29  9  1  0  0  0  0
 29 70  1  0  0  0  0
 30 10  1  0  0  0  0
 30 33  1  0  0  0  0
 31 11  1  0  0  0  0
 31 32  1  0  0  0  0
 31 71  1  0  0  0  0
 32 12  1  0  0  0  0
 32 26  1  0  0  0  0
 32 34  1  0  0  0  0
 33 13  1  0  0  0  0
 33 34  1  0  0  0  0
 33 72  1  0  0  0  0
 34 14  1  0  0  0  0
 34 73  1  0  0  0  0
M  END
>  <Mol_ID>
10004

>  <Formula>
C24H39NO9

>  <MolWeight>
485.56776

>  <Cat>
E5444

>  <Name>
Mesaconine

>  <Synonyms>
NA

>  <Target>
Apoptosis

>  <Form>
free base

>  <CAS>
6792-09-2

>  <URL>
https://www.selleckchem.com/products/mesaconine.html

$$$$
