MESTINON (pyridostigmine bromide).cdx
 OpenBabel08302520353D

 27 26  0  0  0  0  0  0  0  0999 V2000
   -0.3219   -1.3575    0.2609 C   0  0  0  0  0  0  0  0  0  0  0  0
    1.0425   -1.1635    0.4765 C   0  0  0  0  0  0  0  0  0  0  0  0
    1.5429    0.1103    0.7208 C   0  0  0  0  0  0  0  0  0  0  0  0
    0.6835    1.1924    0.7009 C   0  0  0  0  0  0  0  0  0  0  0  0
   -0.6635    0.9768    0.4526 C   0  0  0  0  0  0  0  0  0  0  0  0
   -1.1494   -0.2792    0.2761 N   0  3  0  0  0  0  0  0  0  0  0  0
   -2.5890   -0.4332   -0.0061 C   0  0  0  0  0  0  0  0  0  0  0  0
    2.0652   -2.1386    0.3585 O   0  0  0  0  0  0  0  0  0  0  0  0
    2.1043   -3.5345    0.4460 C   0  0  0  0  0  0  0  0  0  0  0  0
    3.3998   -4.0096    0.2545 N   0  0  0  0  0  0  0  0  0  0  0  0
    1.1190   -4.2079    0.7180 O   0  0  0  0  0  0  0  0  0  0  0  0
    4.4810   -3.1707   -0.2492 C   0  0  0  0  0  0  0  0  0  0  0  0
    3.6948   -5.4251    0.3746 C   0  0  0  0  0  0  0  0  0  0  0  0
   -0.3687    0.0742   -3.1810 Br  0  5  0  0  0  0  0  0  0  0  0  0
   -0.7558   -2.3161    0.0098 H   0  0  0  0  0  0  0  0  0  0  0  0
    2.6101    0.2579    0.8598 H   0  0  0  0  0  0  0  0  0  0  0  0
    1.0687    2.2017    0.8124 H   0  0  0  0  0  0  0  0  0  0  0  0
   -1.3532    1.8093    0.3557 H   0  0  0  0  0  0  0  0  0  0  0  0
   -2.7273   -1.0364   -0.9038 H   0  0  0  0  0  0  0  0  0  0  0  0
   -3.0356   -0.9165    0.8674 H   0  0  0  0  0  0  0  0  0  0  0  0
   -3.0560    0.5470   -0.1441 H   0  0  0  0  0  0  0  0  0  0  0  0
    5.3090   -3.2091    0.4652 H   0  0  0  0  0  0  0  0  0  0  0  0
    4.8150   -3.5632   -1.2127 H   0  0  0  0  0  0  0  0  0  0  0  0
    4.1881   -2.1273   -0.3839 H   0  0  0  0  0  0  0  0  0  0  0  0
    3.0910   -5.8806    1.1631 H   0  0  0  0  0  0  0  0  0  0  0  0
    3.4838   -5.9149   -0.5798 H   0  0  0  0  0  0  0  0  0  0  0  0
    4.7559   -5.5591    0.6184 H   0  0  0  0  0  0  0  0  0  0  0  0
  1  2  2  0  0  0  0
  1 15  1  0  0  0  0
  2  3  1  0  0  0  0
  2  8  1  0  0  0  0
  3  4  2  0  0  0  0
  3 16  1  0  0  0  0
  4  5  1  0  0  0  0
  4 17  1  0  0  0  0
  5  6  2  0  0  0  0
  5 18  1  0  0  0  0
  6  1  1  0  0  0  0
  6  7  1  0  0  0  0
  7 19  1  0  0  0  0
  7 20  1  0  0  0  0
  7 21  1  0  0  0  0
  8  9  1  0  0  0  0
  9 10  1  0  0  0  0
  9 11  2  0  0  0  0
 10 12  1  0  0  0  0
 10 13  1  0  0  0  0
 12 22  1  0  0  0  0
 12 23  1  0  0  0  0
 12 24  1  0  0  0  0
 13 25  1  0  0  0  0
 13 26  1  0  0  0  0
 13 27  1  0  0  0  0
M  CHG  2   6   1  14  -1
M  END
>  <Mol_ID>
346

>  <Formula>
C9H13BrN2O2

>  <MolWeight>
261.11572

>  <Cat>
S1608

>  <Name>
Pyridostigmine Bromide

>  <Synonyms>
N/A

>  <Target>
AChR

>  <Form>
Bromide

>  <CAS>
101-26-8

>  <URL>
http://selleckchem.com/products/Pyridostigmine-Bromide(Mestinon).html

$$$$
