Metformin hydrochloride.cdx
 OpenBabel08302521233D

 20 19  0  0  0  0  0  0  0  0999 V2000
    0.6654    0.2512   -0.1574 N   0  0  0  0  0  0  0  0  0  0  0  0
    0.2865    0.9327    0.9480 C   0  0  0  0  0  0  0  0  0  0  0  0
   -1.0566    1.0321    1.1384 N   0  0  0  0  0  0  0  0  0  0  0  0
   -1.7862    1.7091    2.0817 C   0  0  0  0  0  0  0  0  0  0  0  0
   -3.1657    1.6377    1.9841 N   0  0  0  0  0  0  0  0  0  0  0  0
   -4.0803    2.3328    2.8882 C   0  0  0  0  0  0  0  0  0  0  0  0
   -3.8694    0.8514    0.9721 C   0  0  0  0  0  0  0  0  0  0  0  0
    1.2035    1.4330    1.7026 N   0  0  0  0  0  0  0  0  0  0  0  0
   -1.1395    2.3683    2.9962 N   0  0  0  0  0  0  0  0  0  0  0  0
    0.1842   -0.6191   -0.3347 H   0  0  0  0  0  0  0  0  0  0  0  0
    1.6726    0.1066   -0.1184 H   0  0  0  0  0  0  0  0  0  0  0  0
   -1.5814    0.6168    0.3935 H   0  0  0  0  0  0  0  0  0  0  0  0
   -4.7212    3.0147    2.3170 H   0  0  0  0  0  0  0  0  0  0  0  0
   -4.7215    1.6073    3.4012 H   0  0  0  0  0  0  0  0  0  0  0  0
   -3.5972    2.9304    3.6624 H   0  0  0  0  0  0  0  0  0  0  0  0
   -3.6234    1.2092   -0.0329 H   0  0  0  0  0  0  0  0  0  0  0  0
   -3.6064   -0.2079    1.0573 H   0  0  0  0  0  0  0  0  0  0  0  0
   -4.9585    0.9237    1.0801 H   0  0  0  0  0  0  0  0  0  0  0  0
    0.6774    1.9277    2.4545 H   0  0  0  0  0  0  0  0  0  0  0  0
   -1.7685    2.8385    3.6353 H   0  0  0  0  0  0  0  0  0  0  0  0
  1  2  1  0  0  0  0
  1 10  1  0  0  0  0
  1 11  1  0  0  0  0
  2  3  1  0  0  0  0
  2  8  2  0  0  0  0
  3  4  1  0  0  0  0
  3 12  1  0  0  0  0
  4  5  1  0  0  0  0
  4  9  2  0  0  0  0
  5  6  1  0  0  0  0
  5  7  1  0  0  0  0
  6 13  1  0  0  0  0
  6 14  1  0  0  0  0
  6 15  1  0  0  0  0
  7 16  1  0  0  0  0
  7 17  1  0  0  0  0
  7 18  1  0  0  0  0
  8 19  1  0  0  0  0
  9 20  1  0  0  0  0
M  END
>  <Mol_ID>
464

>  <Formula>
C4H12ClN5

>  <MolWeight>
165.62458

>  <Cat>
S1950

>  <Name>
Metformin HCl

>  <Synonyms>
1,1-Dimethylbiguanide HCl

>  <Target>
Autophagy,Carbohydrate Metabolism,JNK,Mitophagy,p38 MAPK

>  <Form>
Hydrochloride

>  <CAS>
1115-70-4

>  <URL>
http://selleckchem.com/products/Metformin-hydrochloride(Glucophage).html

$$$$
