Metformin
 OpenBabel08302521313D

 20 19  0  0  0  0  0  0  0  0999 V2000
    1.2170   -0.0924   -0.1572 N   0  0  0  0  0  0  0  0  0  0  0  0
    3.3585    0.6853   -0.7350 N   0  0  0  0  0  0  0  0  0  0  0  0
    3.0895   -0.8323    1.0014 N   0  0  0  0  0  0  0  0  0  0  0  0
    5.1025    1.2348    0.6580 N   0  0  0  0  0  0  0  0  0  0  0  0
    5.2909    1.5972   -1.6190 N   0  0  0  0  0  0  0  0  0  0  0  0
    0.4874    0.8359   -1.0054 C   0  0  0  0  0  0  0  0  0  0  0  0
    0.3753   -0.8702    0.7551 C   0  0  0  0  0  0  0  0  0  0  0  0
    2.5751   -0.1030    0.0558 C   0  0  0  0  0  0  0  0  0  0  0  0
    4.6137    1.1846   -0.6032 C   0  0  0  0  0  0  0  0  0  0  0  0
    3.0599    0.7247   -1.6987 H   0  0  0  0  0  0  0  0  0  0  0  0
    4.1103   -0.7231    0.9367 H   0  0  0  0  0  0  0  0  0  0  0  0
    5.8516    1.8960    0.8171 H   0  0  0  0  0  0  0  0  0  0  0  0
    4.3744    1.3228    1.3656 H   0  0  0  0  0  0  0  0  0  0  0  0
    6.2201    1.8846   -1.3040 H   0  0  0  0  0  0  0  0  0  0  0  0
   -0.1984    0.2797   -1.6546 H   0  0  0  0  0  0  0  0  0  0  0  0
   -0.1052    1.5256   -0.3945 H   0  0  0  0  0  0  0  0  0  0  0  0
    1.1277    1.4383   -1.6541 H   0  0  0  0  0  0  0  0  0  0  0  0
    0.5878   -1.9391    0.6494 H   0  0  0  0  0  0  0  0  0  0  0  0
    0.5550   -0.5716    1.7945 H   0  0  0  0  0  0  0  0  0  0  0  0
   -0.6909   -0.7227    0.5528 H   0  0  0  0  0  0  0  0  0  0  0  0
  1  6  1  0  0  0  0
  1  7  1  0  0  0  0
  1  8  1  0  0  0  0
  2  8  1  0  0  0  0
  2  9  1  0  0  0  0
  2 10  1  0  0  0  0
  3  8  2  0  0  0  0
  3 11  1  0  0  0  0
  4  9  1  0  0  0  0
  4 12  1  0  0  0  0
  4 13  1  0  0  0  0
  5  9  2  0  0  0  0
  5 14  1  0  0  0  0
  6 15  1  0  0  0  0
  6 16  1  0  0  0  0
  6 17  1  0  0  0  0
  7 18  1  0  0  0  0
  7 19  1  0  0  0  0
  7 20  1  0  0  0  0
M  END
>  <Mol_ID>
5757

>  <Formula>
C4H11N5

>  <MolWeight>
129.16364

>  <Cat>
S5958

>  <Name>
Metformin

>  <Synonyms>
1,1-Dimethylbiguanide

>  <Target>
AMPK,Apoptosis related,JNK,Mitophagy,p38 MAPK

>  <Form>
Free Base

>  <CAS>
657-24-9

>  <URL>
http://www.selleckchem.com/products/metformin.html

$$$$
