Methyl methanesulfonate
 OpenBabel08302521323D

 12 11  0  0  0  0  0  0  0  0999 V2000
    1.0598   -0.0001    0.0876 C   0  0  0  0  0  0  0  0  0  0  0  0
    0.3437    1.6255    0.0682 S   0  0  0  0  0  0  0  0  0  0  0  0
    0.9762    2.3991   -0.9794 O   0  0  0  0  0  0  0  0  0  0  0  0
   -1.0944    1.5007    0.1669 O   0  0  0  0  0  0  0  0  0  0  0  0
    0.9197    2.1313    1.5052 O   0  0  0  0  0  0  0  0  0  0  0  0
    0.5718    3.4443    1.9051 C   0  0  0  0  0  0  0  0  0  0  0  0
    0.7669   -0.5067   -0.8345 H   0  0  0  0  0  0  0  0  0  0  0  0
    0.6761   -0.5472    0.9511 H   0  0  0  0  0  0  0  0  0  0  0  0
    2.1459    0.0906    0.1341 H   0  0  0  0  0  0  0  0  0  0  0  0
    0.9504    4.1759    1.1855 H   0  0  0  0  0  0  0  0  0  0  0  0
   -0.5138    3.5404    1.9989 H   0  0  0  0  0  0  0  0  0  0  0  0
    1.0256    3.6456    2.8791 H   0  0  0  0  0  0  0  0  0  0  0  0
  1  2  1  0  0  0  0
  1  7  1  0  0  0  0
  1  8  1  0  0  0  0
  1  9  1  0  0  0  0
  2  3  2  0  0  0  0
  2  4  2  0  0  0  0
  2  5  1  0  0  0  0
  5  6  1  0  0  0  0
  6 10  1  0  0  0  0
  6 11  1  0  0  0  0
  6 12  1  0  0  0  0
M  END
>  <Mol_ID>
6309

>  <Formula>
C2H6O3S

>  <MolWeight>
110.13224

>  <Cat>
E0609

>  <Name>
Methyl methanesulfonate

>  <Synonyms>
MMS

>  <Target>
DNA alkylator

>  <Form>
free base

>  <CAS>
66-27-3

>  <URL>
http://www.selleckchem.com/products/methyl-methanesulfonate.html

$$$$
