Methyl 5-hydroxypyridine-2-carboxylate
 OpenBabel08302521363D

 18 18  0  0  0  0  0  0  0  0999 V2000
    1.0726    0.0223    0.1123 C   0  0  0  0  0  0  0  0  0  0  0  0
    0.5497   -1.2314    0.1213 O   0  0  0  0  0  0  0  0  0  0  0  0
    0.4208    1.0569    0.1392 O   0  0  0  0  0  0  0  0  0  0  0  0
   -0.8806   -1.2604    0.1596 C   0  0  0  0  0  0  0  0  0  0  0  0
    6.6685    0.0143   -0.1599 O   0  0  0  0  0  0  0  0  0  0  0  0
    2.5710    0.0127    0.0539 C   0  0  0  0  0  0  0  0  0  0  0  0
    3.2308    1.2422    0.0243 C   0  0  0  0  0  0  0  0  0  0  0  0
    3.2277   -1.1782    0.0238 N   0  0  0  0  0  0  0  0  0  0  0  0
    4.6248    1.2644   -0.0454 C   0  0  0  0  0  0  0  0  0  0  0  0
    4.5820   -1.1214   -0.0416 C   0  0  0  0  0  0  0  0  0  0  0  0
    5.3091    0.0601   -0.0823 C   0  0  0  0  0  0  0  0  0  0  0  0
   -1.2537   -0.7775    1.0691 H   0  0  0  0  0  0  0  0  0  0  0  0
   -1.3007   -0.7779   -0.7293 H   0  0  0  0  0  0  0  0  0  0  0  0
   -1.2049   -2.3052    0.1681 H   0  0  0  0  0  0  0  0  0  0  0  0
    7.0160    0.9205   -0.2169 H   0  0  0  0  0  0  0  0  0  0  0  0
    2.6706    2.1707    0.0520 H   0  0  0  0  0  0  0  0  0  0  0  0
    5.1437    2.2171   -0.0703 H   0  0  0  0  0  0  0  0  0  0  0  0
    5.0897   -2.0826   -0.0642 H   0  0  0  0  0  0  0  0  0  0  0  0
  1  2  1  0  0  0  0
  1  3  2  0  0  0  0
  1  6  1  0  0  0  0
  2  4  1  0  0  0  0
  4 12  1  0  0  0  0
  4 13  1  0  0  0  0
  4 14  1  0  0  0  0
  5 11  1  0  0  0  0
  5 15  1  0  0  0  0
  6  7  2  0  0  0  0
  6  8  1  0  0  0  0
  7  9  1  0  0  0  0
  7 16  1  0  0  0  0
  8 10  2  0  0  0  0
  9 11  2  0  0  0  0
  9 17  1  0  0  0  0
 10 11  1  0  0  0  0
 10 18  1  0  0  0  0
M  END
>  <Mol_ID>
7154

>  <Formula>
C7H7NO3

>  <MolWeight>
153.13538

>  <Cat>
E4143

>  <Name>
Methyl 5-hydroxypyridine-2-carboxylate

>  <Synonyms>
Methyl 5-hydroxypicolinate

>  <Target>
NOS

>  <Form>
Free base

>  <CAS>
30766-12-2

>  <URL>
https://www.selleckchem.com/products/methyl-5-hydroxypyridine-2-carboxylate.html

$$$$
