Methyl isoeugenol
 OpenBabel08302521293D

 27 27  0  0  0  0  0  0  0  0999 V2000
    1.1173   -0.2226   -0.0021 O   0  0  0  0  0  0  0  0  0  0  0  0
   -1.1971    1.4383   -0.7249 O   0  0  0  0  0  0  0  0  0  0  0  0
    0.1498   -1.5528   -3.3273 C   0  0  0  0  0  0  0  0  0  0  0  0
    0.4557   -0.3820   -1.1912 C   0  0  0  0  0  0  0  0  0  0  0  0
   -0.6510    0.4329   -1.4781 C   0  0  0  0  0  0  0  0  0  0  0  0
    0.8243   -1.3808   -2.1100 C   0  0  0  0  0  0  0  0  0  0  0  0
   -0.9438   -0.7338   -3.6042 C   0  0  0  0  0  0  0  0  0  0  0  0
   -1.3369    0.2458   -2.6873 C   0  0  0  0  0  0  0  0  0  0  0  0
    0.6011   -2.6226   -4.2295 C   0  0  0  0  0  0  0  0  0  0  0  0
    0.5140   -2.5870   -5.5688 C   0  0  0  0  0  0  0  0  0  0  0  0
    2.5028   -0.5528   -0.0030 C   0  0  0  0  0  0  0  0  0  0  0  0
    1.0361   -3.6730   -6.4538 C   0  0  0  0  0  0  0  0  0  0  0  0
   -0.5860    1.7819    0.5087 C   0  0  0  0  0  0  0  0  0  0  0  0
    1.6471   -2.0522   -1.8848 H   0  0  0  0  0  0  0  0  0  0  0  0
   -1.5161   -0.8515   -4.5206 H   0  0  0  0  0  0  0  0  0  0  0  0
   -2.1951    0.8733   -2.9157 H   0  0  0  0  0  0  0  0  0  0  0  0
    1.0694   -3.4779   -3.7472 H   0  0  0  0  0  0  0  0  0  0  0  0
    0.0719   -1.7337   -6.0763 H   0  0  0  0  0  0  0  0  0  0  0  0
    2.9443   -0.1413    0.9097 H   0  0  0  0  0  0  0  0  0  0  0  0
    2.6468   -1.6374    0.0236 H   0  0  0  0  0  0  0  0  0  0  0  0
    3.0229   -0.1057   -0.8575 H   0  0  0  0  0  0  0  0  0  0  0  0
    0.2185   -4.1119   -7.0329 H   0  0  0  0  0  0  0  0  0  0  0  0
    1.7703   -3.2587   -7.1515 H   0  0  0  0  0  0  0  0  0  0  0  0
    1.5231   -4.4724   -5.8862 H   0  0  0  0  0  0  0  0  0  0  0  0
   -0.6253    0.9510    1.2194 H   0  0  0  0  0  0  0  0  0  0  0  0
    0.4340    2.1492    0.3577 H   0  0  0  0  0  0  0  0  0  0  0  0
   -1.1640    2.6029    0.9448 H   0  0  0  0  0  0  0  0  0  0  0  0
  1  4  1  0  0  0  0
  1 11  1  0  0  0  0
  2  5  1  0  0  0  0
  2 13  1  0  0  0  0
  3  6  2  0  0  0  0
  3  7  1  0  0  0  0
  3  9  1  0  0  0  0
  4  5  2  0  0  0  0
  4  6  1  0  0  0  0
  5  8  1  0  0  0  0
  6 14  1  0  0  0  0
  7  8  2  0  0  0  0
  7 15  1  0  0  0  0
  8 16  1  0  0  0  0
  9 10  2  0  0  0  0
  9 17  1  0  0  0  0
 10 12  1  0  0  0  0
 10 18  1  0  0  0  0
 11 19  1  0  0  0  0
 11 20  1  0  0  0  0
 11 21  1  0  0  0  0
 12 22  1  0  0  0  0
 12 23  1  0  0  0  0
 12 24  1  0  0  0  0
 13 25  1  0  0  0  0
 13 26  1  0  0  0  0
 13 27  1  0  0  0  0
M  END
>  <Mol_ID>
5436

>  <Formula>
C11H14O2

>  <MolWeight>
178.22766

>  <Cat>
S3006

>  <Name>
Methyl isoeugenol

>  <Synonyms>
Methylisoeugenol

>  <Target>
Others

>  <Form>
Free Base

>  <CAS>
93-16-3

>  <URL>
https://www.selleckchem.com/products/methyl-isoeugenol.html

$$$$
