methylnaltrexone bromide
 OpenBabel08302521373D

 53 57  0  0  0  0  0  0  0  0999 V2000
   -0.4501    1.7202    1.9477 O   0  0  0  0  0  0  0  0  0  0  0  0
   -1.1747   -2.8671    2.5815 O   0  0  0  0  0  0  0  0  0  0  0  0
    3.3004   -3.7213   -1.2123 O   0  0  0  0  0  0  0  0  0  0  0  0
    1.5895    3.3019   -1.3697 C   0  0  0  0  0  0  0  0  0  0  0  0
    1.4175    0.9418   -1.9860 C   0  0  0  0  0  0  0  0  0  0  0  0
    0.4617   -0.2866    0.6259 C   0  0  2  0  0  0  0  0  0  0  0  0
    1.8981   -0.6720    0.2419 C   0  0  0  0  0  0  0  0  0  0  0  0
    0.6559    0.7880    1.7095 C   0  0  1  0  0  0  0  0  0  0  0  0
   -0.0158   -1.7476    0.8229 C   0  0  1  0  0  0  0  0  0  0  0  0
   -0.7041    0.4059   -0.2270 C   0  0  0  0  0  0  0  0  0  0  0  0
    2.0079   -1.9882   -0.1428 C   0  0  0  0  0  0  0  0  0  0  0  0
    3.0969    0.0947    0.2125 C   0  0  0  0  0  0  0  0  0  0  0  0
    1.6373    1.8232    0.8771 C   0  0  1  0  0  0  0  0  0  0  0  0
    0.6650    0.1337    3.1269 C   0  0  0  0  0  0  0  0  0  0  0  0
    0.8874   -2.6951    0.1742 O   0  0  0  0  0  0  0  0  0  0  0  0
   -0.3006   -2.0635    2.2676 C   0  0  0  0  0  0  0  0  0  0  0  0
   -0.4371    1.8569   -0.6929 C   0  0  0  0  0  0  0  0  0  0  0  0
    3.1699   -2.4619   -0.7564 C   0  0  0  0  0  0  0  0  0  0  0  0
    3.0936    1.4518    0.8038 C   0  0  0  0  0  0  0  0  0  0  0  0
    4.2711   -0.3654   -0.3995 C   0  0  0  0  0  0  0  0  0  0  0  0
    1.0559    1.9719   -0.8289 N   0  3  3  0  0  0  0  0  0  0  0  0
    0.5990   -1.3965    3.2856 C   0  0  0  0  0  0  0  0  0  0  0  0
    4.2715   -1.6355   -0.9306 C   0  0  0  0  0  0  0  0  0  0  0  0
    1.0246    3.8229   -2.6670 C   0  0  0  0  0  0  0  0  0  0  0  0
    1.7874    4.8968   -3.4040 C   0  0  0  0  0  0  0  0  0  0  0  0
    0.4728    5.2191   -2.7493 C   0  0  0  0  0  0  0  0  0  0  0  0
  -68.2693    0.0487   -0.0357 Br  0  5  0  0  0  0  0  0  0  0  0  0
   -0.1845    2.3138    2.6863 H   0  0  0  0  0  0  0  0  0  0  0  0
    2.4895   -4.2052   -0.9391 H   0  0  0  0  0  0  0  0  0  0  0  0
    1.4936    4.0421   -0.5717 H   0  0  0  0  0  0  0  0  0  0  0  0
    2.6610    3.1267   -1.5297 H   0  0  0  0  0  0  0  0  0  0  0  0
    0.8735    1.2367   -2.8869 H   0  0  0  0  0  0  0  0  0  0  0  0
    1.0228   -0.0556   -1.8052 H   0  0  0  0  0  0  0  0  0  0  0  0
    2.4863    0.9476   -2.1831 H   0  0  0  0  0  0  0  0  0  0  0  0
   -0.9651   -1.9158    0.2875 H   0  0  0  0  0  0  0  0  0  0  0  0
   -1.6119    0.4361    0.4026 H   0  0  0  0  0  0  0  0  0  0  0  0
   -1.0018   -0.2076   -1.0820 H   0  0  0  0  0  0  0  0  0  0  0  0
    1.5191    2.8464    1.2481 H   0  0  0  0  0  0  0  0  0  0  0  0
    1.3740    0.5851    3.8208 H   0  0  0  0  0  0  0  0  0  0  0  0
   -0.3205    0.3912    3.5782 H   0  0  0  0  0  0  0  0  0  0  0  0
   -0.9199    2.0459   -1.6554 H   0  0  0  0  0  0  0  0  0  0  0  0
   -0.7706    2.6527   -0.0166 H   0  0  0  0  0  0  0  0  0  0  0  0
    3.6595    2.1578    0.1918 H   0  0  0  0  0  0  0  0  0  0  0  0
    3.5526    1.4310    1.7978 H   0  0  0  0  0  0  0  0  0  0  0  0
    5.1453    0.2682   -0.5043 H   0  0  0  0  0  0  0  0  0  0  0  0
    1.5802   -1.8654    3.2543 H   0  0  0  0  0  0  0  0  0  0  0  0
    0.1439   -1.6316    4.2604 H   0  0  0  0  0  0  0  0  0  0  0  0
    5.1636   -2.0069   -1.4645 H   0  0  0  0  0  0  0  0  0  0  0  0
    0.5704    3.0852   -3.3122 H   0  0  0  0  0  0  0  0  0  0  0  0
    2.6944    5.2973   -2.9637 H   0  0  0  0  0  0  0  0  0  0  0  0
    1.8173    4.8534   -4.4892 H   0  0  0  0  0  0  0  0  0  0  0  0
   -0.3852    5.3791   -3.3966 H   0  0  0  0  0  0  0  0  0  0  0  0
    0.4804    5.8340   -1.8621 H   0  0  0  0  0  0  0  0  0  0  0  0
  1 28  1  0  0  0  0
  2 16  2  0  0  0  0
  3 18  1  0  0  0  0
  3 29  1  0  0  0  0
  4 21  1  0  0  0  0
  4 24  1  0  0  0  0
  4 30  1  0  0  0  0
  4 31  1  0  0  0  0
  5 21  1  0  0  0  0
  5 32  1  0  0  0  0
  5 33  1  0  0  0  0
  5 34  1  0  0  0  0
  6  7  1  6  0  0  0
  6  8  1  0  0  0  0
  6  9  1  0  0  0  0
  6 10  1  0  0  0  0
  7 11  2  0  0  0  0
  7 12  1  0  0  0  0
  8  1  1  6  0  0  0
  8 13  1  0  0  0  0
  8 14  1  0  0  0  0
  9 15  1  0  0  0  0
  9 16  1  0  0  0  0
  9 35  1  6  0  0  0
 10 17  1  0  0  0  0
 10 36  1  0  0  0  0
 10 37  1  0  0  0  0
 11 15  1  0  0  0  0
 11 18  1  0  0  0  0
 12 19  1  0  0  0  0
 12 20  2  0  0  0  0
 13 19  1  0  0  0  0
 13 21  1  0  0  0  0
 13 38  1  1  0  0  0
 14 22  1  0  0  0  0
 14 39  1  0  0  0  0
 14 40  1  0  0  0  0
 16 22  1  0  0  0  0
 17 21  1  0  0  0  0
 17 41  1  0  0  0  0
 17 42  1  0  0  0  0
 18 23  2  0  0  0  0
 19 43  1  0  0  0  0
 19 44  1  0  0  0  0
 20 23  1  0  0  0  0
 20 45  1  0  0  0  0
 22 46  1  0  0  0  0
 22 47  1  0  0  0  0
 23 48  1  0  0  0  0
 24 25  1  0  0  0  0
 24 26  1  0  0  0  0
 24 49  1  0  0  0  0
 25 26  1  0  0  0  0
 25 50  1  0  0  0  0
 25 51  1  0  0  0  0
 26 52  1  0  0  0  0
 26 53  1  0  0  0  0
M  CHG  2  21   1  27  -1
M  END
>  <Mol_ID>
7580

>  <Formula>
C21H26BrNO4

>  <MolWeight>
436.33944

>  <Cat>
E2880

>  <Name>
methylnaltrexone bromide

>  <Target>
Opioid Receptor

>  <Form>
bromide

>  <CAS>
73232-52-7

>  <URL>
https://www.selleckchem.com/products/methylnaltrexone-bromide.html

$$$$
