Methylsyringol
 OpenBabel08302521363D

 24 24  0  0  0  0  0  0  0  0999 V2000
    1.0293    0.0932    0.1532 O   0  0  0  0  0  0  0  0  0  0  0  0
    0.2976   -1.1275    0.1812 C   0  0  0  0  0  0  0  0  0  0  0  0
    2.3216    2.3591    0.1062 O   0  0  0  0  0  0  0  0  0  0  0  0
    5.3003    2.3575   -0.0095 O   0  0  0  0  0  0  0  0  0  0  0  0
    4.6975    3.6433   -0.0083 C   0  0  0  0  0  0  0  0  0  0  0  0
    5.3120   -2.4580    0.0967 C   0  0  0  0  0  0  0  0  0  0  0  0
    2.4007   -0.0123    0.1195 C   0  0  0  0  0  0  0  0  0  0  0  0
    3.0855    1.2180    0.0852 C   0  0  0  0  0  0  0  0  0  0  0  0
    3.1211   -1.2068    0.1184 C   0  0  0  0  0  0  0  0  0  0  0  0
    4.4809    1.2627    0.0367 C   0  0  0  0  0  0  0  0  0  0  0  0
    4.5194   -1.1827    0.0795 C   0  0  0  0  0  0  0  0  0  0  0  0
    5.1836    0.0509    0.0355 C   0  0  0  0  0  0  0  0  0  0  0  0
    0.5039   -1.7354   -0.7061 H   0  0  0  0  0  0  0  0  0  0  0  0
    0.5021   -1.6850    1.1012 H   0  0  0  0  0  0  0  0  0  0  0  0
   -0.7679   -0.8787    0.1713 H   0  0  0  0  0  0  0  0  0  0  0  0
    1.3981    2.0439    0.1557 H   0  0  0  0  0  0  0  0  0  0  0  0
    4.0617    3.7883   -0.8874 H   0  0  0  0  0  0  0  0  0  0  0  0
    4.1583    3.8271    0.9264 H   0  0  0  0  0  0  0  0  0  0  0  0
    5.5014    4.3840   -0.0684 H   0  0  0  0  0  0  0  0  0  0  0  0
    5.9352   -2.5301   -0.8004 H   0  0  0  0  0  0  0  0  0  0  0  0
    5.9511   -2.4925    0.9850 H   0  0  0  0  0  0  0  0  0  0  0  0
    4.6586   -3.3369    0.1214 H   0  0  0  0  0  0  0  0  0  0  0  0
    2.6207   -2.1689    0.1495 H   0  0  0  0  0  0  0  0  0  0  0  0
    6.2717    0.0767    0.0017 H   0  0  0  0  0  0  0  0  0  0  0  0
  1  2  1  0  0  0  0
  1  7  1  0  0  0  0
  2 13  1  0  0  0  0
  2 14  1  0  0  0  0
  2 15  1  0  0  0  0
  3  8  1  0  0  0  0
  3 16  1  0  0  0  0
  4  5  1  0  0  0  0
  4 10  1  0  0  0  0
  5 17  1  0  0  0  0
  5 18  1  0  0  0  0
  5 19  1  0  0  0  0
  6 11  1  0  0  0  0
  6 20  1  0  0  0  0
  6 21  1  0  0  0  0
  6 22  1  0  0  0  0
  7  8  2  0  0  0  0
  7  9  1  0  0  0  0
  8 10  1  0  0  0  0
  9 11  2  0  0  0  0
  9 23  1  0  0  0  0
 10 12  2  0  0  0  0
 11 12  1  0  0  0  0
 12 24  1  0  0  0  0
M  END
>  <Mol_ID>
7318

>  <Formula>
C9H12O3

>  <MolWeight>
168.18978

>  <Cat>
E4355

>  <Name>
Methylsyringol

>  <Synonyms>
Methylsyringol

>  <Target>
Others

>  <Form>
free base

>  <CAS>
6638-05-7

>  <URL>
https://www.selleckchem.com/products/methylsyringol.html

$$$$
