Methyl acetoacetate
 OpenBabel08302521293D

 16 15  0  0  0  0  0  0  0  0999 V2000
    0.8987    0.5480    0.3985 O   0  0  0  0  0  0  0  0  0  0  0  0
   -2.3793   -1.1803   -0.3108 O   0  0  0  0  0  0  0  0  0  0  0  0
    0.9812    1.1708   -1.8069 O   0  0  0  0  0  0  0  0  0  0  0  0
   -1.1432    0.8106   -0.7521 C   0  0  0  0  0  0  0  0  0  0  0  0
   -1.6990   -0.5396   -1.1109 C   0  0  0  0  0  0  0  0  0  0  0  0
    0.3494    0.8760   -0.8015 C   0  0  0  0  0  0  0  0  0  0  0  0
   -1.4668   -1.0435   -2.5115 C   0  0  0  0  0  0  0  0  0  0  0  0
    2.3276    0.5988    0.4237 C   0  0  0  0  0  0  0  0  0  0  0  0
   -1.4882    1.0998    0.2452 H   0  0  0  0  0  0  0  0  0  0  0  0
   -1.5518    1.5513   -1.4464 H   0  0  0  0  0  0  0  0  0  0  0  0
   -1.9398   -0.3654   -3.2261 H   0  0  0  0  0  0  0  0  0  0  0  0
   -0.3966   -1.1210   -2.7137 H   0  0  0  0  0  0  0  0  0  0  0  0
   -1.9123   -2.0364   -2.6215 H   0  0  0  0  0  0  0  0  0  0  0  0
    2.6617    0.3357    1.4312 H   0  0  0  0  0  0  0  0  0  0  0  0
    2.7483   -0.1253   -0.2812 H   0  0  0  0  0  0  0  0  0  0  0  0
    2.6798    1.6100    0.1962 H   0  0  0  0  0  0  0  0  0  0  0  0
  1  6  1  0  0  0  0
  1  8  1  0  0  0  0
  2  5  2  0  0  0  0
  3  6  2  0  0  0  0
  4  5  1  0  0  0  0
  4  6  1  0  0  0  0
  4  9  1  0  0  0  0
  4 10  1  0  0  0  0
  5  7  1  0  0  0  0
  7 11  1  0  0  0  0
  7 12  1  0  0  0  0
  7 13  1  0  0  0  0
  8 14  1  0  0  0  0
  8 15  1  0  0  0  0
  8 16  1  0  0  0  0
M  END
>  <Mol_ID>
5445

>  <Formula>
C5H8O3

>  <MolWeight>
116.11522

>  <Cat>
S3091

>  <Name>
Methyl acetoacetate

>  <Synonyms>
MAA, Acetoacetate methyl ester, Methyl 3-oxobutanoate, Methyl 3-oxobutyrate, Methyl acetoacetate, Methyl acetylacetate

>  <Target>
Others

>  <Form>
Free Base

>  <CAS>
105-45-3

>  <URL>
https://www.selleckchem.com/products/methyl-acetoacetate.html

$$$$
