Methyl laurate
 OpenBabel08302521363D

 41 40  0  0  0  0  0  0  0  0999 V2000
    1.0530   -0.0408    0.0251 C   0  0  0  0  0  0  0  0  0  0  0  0
    0.5993   -1.4649    0.3599 C   0  0  0  0  0  0  0  0  0  0  0  0
    0.8089    0.9220    1.1942 C   0  0  0  0  0  0  0  0  0  0  0  0
    0.8438   -2.4379   -0.7968 C   0  0  0  0  0  0  0  0  0  0  0  0
    1.2524    2.3659    0.9179 C   0  0  0  0  0  0  0  0  0  0  0  0
    0.3835   -3.8369   -0.4502 C   0  0  0  0  0  0  0  0  0  0  0  0
    0.5192    3.0277   -0.2554 C   0  0  0  0  0  0  0  0  0  0  0  0
    0.5657   -4.6657   -1.5164 O   0  0  0  0  0  0  0  0  0  0  0  0
   -0.0782   -4.1755    0.6321 O   0  0  0  0  0  0  0  0  0  0  0  0
    0.9805    4.4724   -0.4836 C   0  0  0  0  0  0  0  0  0  0  0  0
    0.1567   -6.0253   -1.3268 C   0  0  0  0  0  0  0  0  0  0  0  0
    0.2576    5.1123   -1.6764 C   0  0  0  0  0  0  0  0  0  0  0  0
    0.7255    6.5518   -1.9161 C   0  0  0  0  0  0  0  0  0  0  0  0
    0.0123    7.1927   -3.1095 C   0  0  0  0  0  0  0  0  0  0  0  0
    0.4803    8.6228   -3.3411 C   0  0  0  0  0  0  0  0  0  0  0  0
    0.5047    0.2971   -0.8603 H   0  0  0  0  0  0  0  0  0  0  0  0
    2.1193   -0.0422   -0.2296 H   0  0  0  0  0  0  0  0  0  0  0  0
    1.1242   -1.8199    1.2557 H   0  0  0  0  0  0  0  0  0  0  0  0
   -0.4706   -1.4569    0.6045 H   0  0  0  0  0  0  0  0  0  0  0  0
   -0.2538    0.9151    1.4653 H   0  0  0  0  0  0  0  0  0  0  0  0
    1.3573    0.5591    2.0735 H   0  0  0  0  0  0  0  0  0  0  0  0
    0.2921   -2.1044   -1.6834 H   0  0  0  0  0  0  0  0  0  0  0  0
    1.9138   -2.4766   -1.0351 H   0  0  0  0  0  0  0  0  0  0  0  0
    1.0784    2.9576    1.8257 H   0  0  0  0  0  0  0  0  0  0  0  0
    2.3347    2.3843    0.7356 H   0  0  0  0  0  0  0  0  0  0  0  0
    0.6967    2.4595   -1.1744 H   0  0  0  0  0  0  0  0  0  0  0  0
   -0.5604    3.0117   -0.0645 H   0  0  0  0  0  0  0  0  0  0  0  0
    0.7967    5.0659    0.4199 H   0  0  0  0  0  0  0  0  0  0  0  0
    2.0621    4.4847   -0.6651 H   0  0  0  0  0  0  0  0  0  0  0  0
    1.0392   -6.6384   -1.1229 H   0  0  0  0  0  0  0  0  0  0  0  0
   -0.5755   -6.1511   -0.5229 H   0  0  0  0  0  0  0  0  0  0  0  0
   -0.3016   -6.3732   -2.2567 H   0  0  0  0  0  0  0  0  0  0  0  0
    0.4397    4.5147   -2.5781 H   0  0  0  0  0  0  0  0  0  0  0  0
   -0.8241    5.1037   -1.4962 H   0  0  0  0  0  0  0  0  0  0  0  0
    0.5405    7.1510   -1.0164 H   0  0  0  0  0  0  0  0  0  0  0  0
    1.8077    6.5597   -2.0930 H   0  0  0  0  0  0  0  0  0  0  0  0
    0.1992    6.6051   -4.0160 H   0  0  0  0  0  0  0  0  0  0  0  0
   -1.0710    7.1942   -2.9416 H   0  0  0  0  0  0  0  0  0  0  0  0
    1.5563    8.6577   -3.5397 H   0  0  0  0  0  0  0  0  0  0  0  0
   -0.0366    9.0577   -4.2027 H   0  0  0  0  0  0  0  0  0  0  0  0
    0.2713    9.2511   -2.4693 H   0  0  0  0  0  0  0  0  0  0  0  0
  1  2  1  0  0  0  0
  1  3  1  0  0  0  0
  1 16  1  0  0  0  0
  1 17  1  0  0  0  0
  2  4  1  0  0  0  0
  2 18  1  0  0  0  0
  2 19  1  0  0  0  0
  3  5  1  0  0  0  0
  3 20  1  0  0  0  0
  3 21  1  0  0  0  0
  4  6  1  0  0  0  0
  4 22  1  0  0  0  0
  4 23  1  0  0  0  0
  5  7  1  0  0  0  0
  5 24  1  0  0  0  0
  5 25  1  0  0  0  0
  6  8  1  0  0  0  0
  6  9  2  0  0  0  0
  7 10  1  0  0  0  0
  7 26  1  0  0  0  0
  7 27  1  0  0  0  0
  8 11  1  0  0  0  0
 10 12  1  0  0  0  0
 10 28  1  0  0  0  0
 10 29  1  0  0  0  0
 11 30  1  0  0  0  0
 11 31  1  0  0  0  0
 11 32  1  0  0  0  0
 12 13  1  0  0  0  0
 12 33  1  0  0  0  0
 12 34  1  0  0  0  0
 13 14  1  0  0  0  0
 13 35  1  0  0  0  0
 13 36  1  0  0  0  0
 14 15  1  0  0  0  0
 14 37  1  0  0  0  0
 14 38  1  0  0  0  0
 15 39  1  0  0  0  0
 15 40  1  0  0  0  0
 15 41  1  0  0  0  0
M  END
>  <Mol_ID>
7146

>  <Formula>
C13H26O2

>  <MolWeight>
214.34434

>  <Cat>
E4131

>  <Name>
Methyl laurate

>  <Synonyms>
Methyl Laurate

>  <Target>
Others

>  <Form>
free base

>  <CAS>
111-82-0

>  <URL>
https://www.selleckchem.com/products/methyl-laurate.html

$$$$
