Methyl 2,6-dihydroxybenzoate
 OpenBabel08302521373D

 20 20  0  0  0  0  0  0  0  0999 V2000
    1.0092    0.2142   -0.0481 C   0  0  0  0  0  0  0  0  0  0  0  0
    0.4354   -0.7460   -0.8224 O   0  0  0  0  0  0  0  0  0  0  0  0
    0.4003    1.0651    0.5803 O   0  0  0  0  0  0  0  0  0  0  0  0
   -0.9894   -0.7937   -0.7438 C   0  0  0  0  0  0  0  0  0  0  0  0
    2.3906   -2.3259    0.0438 O   0  0  0  0  0  0  0  0  0  0  0  0
    2.7438    2.4813   -0.1590 O   0  0  0  0  0  0  0  0  0  0  0  0
    2.4935    0.0829   -0.0837 C   0  0  0  0  0  0  0  0  0  0  0  0
    3.1233   -1.1726   -0.0439 C   0  0  0  0  0  0  0  0  0  0  0  0
    3.3010    1.2330   -0.1013 C   0  0  0  0  0  0  0  0  0  0  0  0
    4.5185   -1.2755   -0.0481 C   0  0  0  0  0  0  0  0  0  0  0  0
    4.6969    1.1304   -0.0868 C   0  0  0  0  0  0  0  0  0  0  0  0
    5.3029   -0.1237   -0.0664 C   0  0  0  0  0  0  0  0  0  0  0  0
   -1.3217   -0.9175    0.2926 H   0  0  0  0  0  0  0  0  0  0  0  0
   -1.4248    0.1065   -1.1863 H   0  0  0  0  0  0  0  0  0  0  0  0
   -1.3306   -1.6624   -1.3145 H   0  0  0  0  0  0  0  0  0  0  0  0
    2.9769   -3.0939   -0.0390 H   0  0  0  0  0  0  0  0  0  0  0  0
    3.4221    3.1560    0.0066 H   0  0  0  0  0  0  0  0  0  0  0  0
    5.0079   -2.2449   -0.0206 H   0  0  0  0  0  0  0  0  0  0  0  0
    5.3260    2.0160   -0.0994 H   0  0  0  0  0  0  0  0  0  0  0  0
    6.3873   -0.2064   -0.0595 H   0  0  0  0  0  0  0  0  0  0  0  0
  1  2  1  0  0  0  0
  1  3  2  0  0  0  0
  1  7  1  0  0  0  0
  2  4  1  0  0  0  0
  4 13  1  0  0  0  0
  4 14  1  0  0  0  0
  4 15  1  0  0  0  0
  5  8  1  0  0  0  0
  5 16  1  0  0  0  0
  6  9  1  0  0  0  0
  6 17  1  0  0  0  0
  7  8  2  0  0  0  0
  7  9  1  0  0  0  0
  8 10  1  0  0  0  0
  9 11  2  0  0  0  0
 10 12  2  0  0  0  0
 10 18  1  0  0  0  0
 11 12  1  0  0  0  0
 11 19  1  0  0  0  0
 12 20  1  0  0  0  0
M  END
>  <Mol_ID>
7364

>  <Formula>
C8H8O4

>  <MolWeight>
168.14672

>  <Cat>
E4413

>  <Name>
Methyl 2,6-dihydroxybenzoate

>  <Target>
Others

>  <Form>
Free base

>  <CAS>
2150-45-0

>  <URL>
https://www.selleckchem.com/products/methyl-2-6-dihydroxybenzoate.html

$$$$
