Methionine
 OpenBabel08302521453D

 20 19  0  0  0  0  0  0  0  0999 V2000
    1.1673   -0.1798   -0.0023 S   0  0  0  0  0  0  0  0  0  0  0  0
    2.9509    0.6108    5.3072 O   0  0  0  0  0  0  0  0  0  0  0  0
    2.8553   -1.5394    4.5765 O   0  0  0  0  0  0  0  0  0  0  0  0
    3.0376    1.6943    2.9990 N   0  0  0  0  0  0  0  0  0  0  0  0
    1.0005    0.2579    2.7424 C   0  0  0  0  0  0  0  0  0  0  0  0
    2.5154    0.2929    2.9768 C   0  0  2  0  0  0  0  0  0  0  0  0
    0.5144    0.7894    1.3931 C   0  0  0  0  0  0  0  0  0  0  0  0
    2.8019   -0.3435    4.3494 C   0  0  0  0  0  0  0  0  0  0  0  0
    0.4137    0.7423   -1.3650 C   0  0  0  0  0  0  0  0  0  0  0  0
    2.8715    1.4801    4.8429 H   0  0  0  0  0  0  0  0  0  0  0  0
    4.0630    1.6334    3.0263 H   0  0  0  0  0  0  0  0  0  0  0  0
    2.8547    2.1081    2.0820 H   0  0  0  0  0  0  0  0  0  0  0  0
    0.5024    0.8415    3.5316 H   0  0  0  0  0  0  0  0  0  0  0  0
    0.6351   -0.7703    2.8767 H   0  0  0  0  0  0  0  0  0  0  0  0
    3.0733   -0.2743    2.2267 H   0  0  0  0  0  0  0  0  0  0  0  0
    0.7912    1.8404    1.2666 H   0  0  0  0  0  0  0  0  0  0  0  0
   -0.5795    0.7284    1.3664 H   0  0  0  0  0  0  0  0  0  0  0  0
    0.4104    0.1163   -2.2613 H   0  0  0  0  0  0  0  0  0  0  0  0
   -0.6179    1.0167   -1.1308 H   0  0  0  0  0  0  0  0  0  0  0  0
    0.9957    1.6441   -1.5725 H   0  0  0  0  0  0  0  0  0  0  0  0
  1  7  1  0  0  0  0
  1  9  1  0  0  0  0
  2  8  1  0  0  0  0
  2 10  1  0  0  0  0
  3  8  2  0  0  0  0
  4 11  1  0  0  0  0
  4 12  1  0  0  0  0
  5  6  1  0  0  0  0
  5  7  1  0  0  0  0
  5 13  1  0  0  0  0
  5 14  1  0  0  0  0
  6  4  1  0  0  0  0
  6  8  1  0  0  0  0
  6 15  1  6  0  0  0
  7 16  1  0  0  0  0
  7 17  1  0  0  0  0
  9 18  1  0  0  0  0
  9 19  1  0  0  0  0
  9 20  1  0  0  0  0
M  END
>  <Mol_ID>
9367

>  <Formula>
C5H11NO2S

>  <MolWeight>
149.21134

>  <Cat>
S4494

>  <Name>
Methionine

>  <Synonyms>
MRX-1024, D-Methionine

>  <Target>
GABA Receptor

>  <Form>
Free Base

>  <CAS>
348-67-4

>  <URL>
http://www.selleckchem.com/products/methionine.html

$$$$
