Methionine sulfoxide
 OpenBabel08302521453D

 21 20  0  0  0  0  0  0  0  0999 V2000
    0.9728   -0.0262   -0.1577 C   0  0  3  0  0  0  0  0  0  0  0  0
    0.3273    0.8750    0.9066 C   0  0  0  0  0  0  0  0  0  0  0  0
    0.2303   -1.3742   -0.2006 C   0  0  0  0  0  0  0  0  0  0  0  0
    2.4173   -0.2856    0.1312 N   0  0  0  0  0  0  0  0  0  0  0  0
    0.9193    2.2757    1.0474 C   0  0  0  0  0  0  0  0  0  0  0  0
    1.0678   -2.4078    0.0679 O   0  0  0  0  0  0  0  0  0  0  0  0
   -0.9650   -1.5119   -0.4113 O   0  0  0  0  0  0  0  0  0  0  0  0
    0.6808    3.2748   -0.4549 S   0  0  3  0  0  0  0  0  0  0  0  0
    1.4286    4.7889    0.1999 C   0  0  0  0  0  0  0  0  0  0  0  0
    1.6227    2.7377   -1.4923 O   0  0  0  0  0  0  0  0  0  0  0  0
    0.8895    0.3845   -1.1693 H   0  0  0  0  0  0  0  0  0  0  0  0
   -0.7495    0.9568    0.7052 H   0  0  0  0  0  0  0  0  0  0  0  0
    0.4054    0.3761    1.8826 H   0  0  0  0  0  0  0  0  0  0  0  0
    2.9395    0.4864   -0.3061 H   0  0  0  0  0  0  0  0  0  0  0  0
    2.5932   -0.1779    1.1337 H   0  0  0  0  0  0  0  0  0  0  0  0
    0.4159    2.7936    1.8705 H   0  0  0  0  0  0  0  0  0  0  0  0
    1.9887    2.2356    1.2760 H   0  0  0  0  0  0  0  0  0  0  0  0
    1.9684   -2.0018    0.1296 H   0  0  0  0  0  0  0  0  0  0  0  0
    2.4619    4.5890    0.4962 H   0  0  0  0  0  0  0  0  0  0  0  0
    1.4180    5.5450   -0.5878 H   0  0  0  0  0  0  0  0  0  0  0  0
    0.8526    5.1457    1.0554 H   0  0  0  0  0  0  0  0  0  0  0  0
  1  2  1  0  0  0  0
  1  3  1  0  0  0  0
  1  4  1  0  0  0  0
  1 11  1  0  0  0  0
  2  5  1  0  0  0  0
  2 12  1  0  0  0  0
  2 13  1  0  0  0  0
  3  6  1  0  0  0  0
  3  7  2  0  0  0  0
  4 14  1  0  0  0  0
  4 15  1  0  0  0  0
  5  8  1  0  0  0  0
  5 16  1  0  0  0  0
  5 17  1  0  0  0  0
  6 18  1  0  0  0  0
  8  9  1  0  0  0  0
  8 10  2  0  0  0  0
  9 19  1  0  0  0  0
  9 20  1  0  0  0  0
  9 21  1  0  0  0  0
M  END
>  <Mol_ID>
9501

>  <Formula>
C5H11NO3S

>  <MolWeight>
165.21074

>  <Cat>
E4166

>  <Name>
Methionine sulfoxide

>  <Synonyms>
Methionine sulfoxide

>  <Target>
Endogenous Metabolite

>  <Form>
free base

>  <CAS>
62697-73-8

>  <URL>
https://www.selleckchem.com/products/methionine-sulfoxide.html

$$$$
