Methylophiopogonanone B
 OpenBabel08302521473D

 44 46  0  0  1  0  0  0  0  0999 V2000
    1.1304   -0.0303    0.7862 O   0  0  0  0  0  0  0  0  0  0  0  0
    1.1946    2.6109   -0.1486 O   0  0  0  0  0  0  0  0  0  0  0  0
    6.6916    2.2165    1.2843 C   0  0  0  0  0  0  0  0  0  0  0  0
    2.3475   -2.3733   -0.2844 C   0  0  0  0  0  0  0  0  0  0  0  0
    2.6551    5.0828    0.1632 C   0  0  0  0  0  0  0  0  0  0  0  0
    5.3537    4.7460    0.8383 O   0  0  0  0  0  0  0  0  0  0  0  0
   -1.3187   -1.0611   -4.4306 O   0  0  0  0  0  0  0  0  0  0  0  0
   -0.8465   -0.5606   -5.6751 C   0  0  0  0  0  0  0  0  0  0  0  0
    3.0620    1.3136    0.5419 C   0  0  0  0  0  0  0  0  0  0  0  0
    4.4158    1.1853    0.8881 C   0  0  0  0  0  0  0  0  0  0  0  0
    2.2982    0.0619    0.4235 C   0  0  0  0  0  0  0  0  0  0  0  0
    2.4914    2.5632    0.2820 C   0  0  0  0  0  0  0  0  0  0  0  0
    5.2235    2.3309    0.9701 C   0  0  0  0  0  0  0  0  0  0  0  0
    5.0184   -0.0348    1.1205 O   0  0  0  0  0  0  0  0  0  0  0  0
    3.1519   -1.0987   -0.0144 C   0  0  1  0  0  0  0  0  0  0  0  0
    3.2623    3.7260    0.4056 C   0  0  0  0  0  0  0  0  0  0  0  0
    4.6226    3.5890    0.7466 C   0  0  0  0  0  0  0  0  0  0  0  0
    4.1488   -1.1873    1.1286 C   0  0  0  0  0  0  0  0  0  0  0  0
    1.3993   -2.1677   -1.4515 C   0  0  0  0  0  0  0  0  0  0  0  0
    1.8866   -1.8094   -2.7160 C   0  0  0  0  0  0  0  0  0  0  0  0
    0.0147   -2.2133   -1.2554 C   0  0  0  0  0  0  0  0  0  0  0  0
    1.0119   -1.4298   -3.7382 C   0  0  0  0  0  0  0  0  0  0  0  0
   -0.8581   -1.8520   -2.2855 C   0  0  0  0  0  0  0  0  0  0  0  0
   -0.3656   -1.4380   -3.5240 C   0  0  0  0  0  0  0  0  0  0  0  0
    0.8656    3.5203   -0.1789 H   0  0  0  0  0  0  0  0  0  0  0  0
    7.2814    2.7130    0.5062 H   0  0  0  0  0  0  0  0  0  0  0  0
    6.9042    2.6789    2.2534 H   0  0  0  0  0  0  0  0  0  0  0  0
    7.0418    1.1813    1.3284 H   0  0  0  0  0  0  0  0  0  0  0  0
    3.0228   -3.2021   -0.5308 H   0  0  0  0  0  0  0  0  0  0  0  0
    1.7916   -2.6783    0.6107 H   0  0  0  0  0  0  0  0  0  0  0  0
    2.3004    5.1580   -0.8702 H   0  0  0  0  0  0  0  0  0  0  0  0
    1.8132    5.2398    0.8469 H   0  0  0  0  0  0  0  0  0  0  0  0
    3.3554    5.9050    0.3289 H   0  0  0  0  0  0  0  0  0  0  0  0
    6.2452    4.5577    1.1675 H   0  0  0  0  0  0  0  0  0  0  0  0
   -0.2560    0.3519   -5.5359 H   0  0  0  0  0  0  0  0  0  0  0  0
   -0.2745   -1.3230   -6.2138 H   0  0  0  0  0  0  0  0  0  0  0  0
   -1.7158   -0.3043   -6.2874 H   0  0  0  0  0  0  0  0  0  0  0  0
    3.6835   -0.8058   -0.9301 H   0  0  0  0  0  0  0  0  0  0  0  0
    3.6637   -1.2479    2.1122 H   0  0  0  0  0  0  0  0  0  0  0  0
    4.7880   -2.0695    1.0228 H   0  0  0  0  0  0  0  0  0  0  0  0
    2.9564   -1.7719   -2.9059 H   0  0  0  0  0  0  0  0  0  0  0  0
   -0.3970   -2.4683   -0.2809 H   0  0  0  0  0  0  0  0  0  0  0  0
    1.4430   -1.1094   -4.6799 H   0  0  0  0  0  0  0  0  0  0  0  0
   -1.9300   -1.8561   -2.1046 H   0  0  0  0  0  0  0  0  0  0  0  0
  1 11  2  0  0  0  0
  2 12  1  0  0  0  0
  2 25  1  0  0  0  0
  3 13  1  0  0  0  0
  3 26  1  0  0  0  0
  3 27  1  0  0  0  0
  3 28  1  0  0  0  0
  4 19  1  0  0  0  0
  4 29  1  0  0  0  0
  4 30  1  0  0  0  0
  5 16  1  0  0  0  0
  5 31  1  0  0  0  0
  5 32  1  0  0  0  0
  5 33  1  0  0  0  0
  6 17  1  0  0  0  0
  6 34  1  0  0  0  0
  7  8  1  0  0  0  0
  7 24  1  0  0  0  0
  8 35  1  0  0  0  0
  8 36  1  0  0  0  0
  8 37  1  0  0  0  0
  9 10  2  0  0  0  0
  9 11  1  0  0  0  0
  9 12  1  0  0  0  0
 10 13  1  0  0  0  0
 10 14  1  0  0  0  0
 11 15  1  0  0  0  0
 12 16  2  0  0  0  0
 13 17  2  0  0  0  0
 14 18  1  0  0  0  0
 15 18  1  0  0  0  0
 15 38  1  6  0  0  0
 15  4  1  0  0  0  0
 16 17  1  0  0  0  0
 18 39  1  0  0  0  0
 18 40  1  0  0  0  0
 19 20  2  0  0  0  0
 19 21  1  0  0  0  0
 20 22  1  0  0  0  0
 20 41  1  0  0  0  0
 21 23  2  0  0  0  0
 21 42  1  0  0  0  0
 22 24  2  0  0  0  0
 22 43  1  0  0  0  0
 23 24  1  0  0  0  0
 23 44  1  0  0  0  0
M  END
>  <Mol_ID>
9757

>  <Formula>
C19H20O5

>  <MolWeight>
328.3591

>  <Cat>
E2239

>  <Name>
Methylophiopogonanone B

>  <Synonyms>
NA

>  <Target>
Rho signaling

>  <Form>
Free Base

>  <CAS>
74805-91-7

>  <URL>
https://www.selleckchem.com/products/methylophiopogonanone-b.html

$$$$
