METHIMAZOLE (methimazole).cdx
 OpenBabel08302520353D

 13 13  0  0  0  0  0  0  0  0999 V2000
    0.6142    1.4038   -0.0014 N   0  0  0  0  0  0  0  0  0  0  0  0
    1.9083    0.9507   -0.0004 C   0  0  0  0  0  0  0  0  0  0  0  0
    1.8954   -0.3887   -0.0005 C   0  0  0  0  0  0  0  0  0  0  0  0
    0.5846   -0.8244    0.0001 N   0  0  0  0  0  0  0  0  0  0  0  0
   -0.2619    0.3055   -0.0040 C   0  0  0  0  0  0  0  0  0  0  0  0
    0.1782   -2.2092   -0.0291 C   0  0  0  0  0  0  0  0  0  0  0  0
   -1.9105    0.4054   -0.0154 S   0  0  0  0  0  0  0  0  0  0  0  0
    0.3149    2.3686   -0.0078 H   0  0  0  0  0  0  0  0  0  0  0  0
    2.7516    1.6243   -0.0030 H   0  0  0  0  0  0  0  0  0  0  0  0
    2.7313   -1.0714   -0.0032 H   0  0  0  0  0  0  0  0  0  0  0  0
   -0.4852   -2.4071    0.8178 H   0  0  0  0  0  0  0  0  0  0  0  0
   -0.3689   -2.3980   -0.9572 H   0  0  0  0  0  0  0  0  0  0  0  0
    1.0487   -2.8692    0.0255 H   0  0  0  0  0  0  0  0  0  0  0  0
  1  2  1  0  0  0  0
  1  8  1  0  0  0  0
  2  3  2  0  0  0  0
  2  9  1  0  0  0  0
  3  4  1  0  0  0  0
  3 10  1  0  0  0  0
  4  5  1  0  0  0  0
  4  6  1  0  0  0  0
  5  1  1  0  0  0  0
  5  7  2  0  0  0  0
  6 11  1  0  0  0  0
  6 12  1  0  0  0  0
  6 13  1  0  0  0  0
M  END
>  <Mol_ID>
347

>  <Formula>
C4H6N2S

>  <MolWeight>
114.16884

>  <Cat>
S1609

>  <Name>
Methimazole

>  <Synonyms>
Tapazole, Thiamazole

>  <Target>
Others

>  <Form>
free base

>  <CAS>
60-56-0

>  <URL>
http://selleckchem.com/products/Methimazole(Tapazole).html

$$$$
