Methylthiouracil.cdx
 OpenBabel08302521233D

 15 15  0  0  0  0  0  0  0  0999 V2000
   -0.6779    1.2056    0.0012 C   0  0  0  0  0  0  0  0  0  0  0  0
   -1.3517    0.0194    0.0027 N   0  0  0  0  0  0  0  0  0  0  0  0
   -0.7576   -1.2129    0.0022 C   0  0  0  0  0  0  0  0  0  0  0  0
    0.7188   -1.2173   -0.0012 C   0  0  0  0  0  0  0  0  0  0  0  0
    1.3831   -0.0546   -0.0041 C   0  0  0  0  0  0  0  0  0  0  0  0
    0.6873    1.1319   -0.0019 N   0  0  0  0  0  0  0  0  0  0  0  0
   -1.3928   -2.2603    0.0040 O   0  0  0  0  0  0  0  0  0  0  0  0
   -1.4720    2.6653    0.0030 S   0  0  0  0  0  0  0  0  0  0  0  0
    2.8780    0.0278   -0.0083 C   0  0  0  0  0  0  0  0  0  0  0  0
   -2.3609    0.0348    0.0048 H   0  0  0  0  0  0  0  0  0  0  0  0
    1.2029   -2.1851   -0.0020 H   0  0  0  0  0  0  0  0  0  0  0  0
    1.1926    2.0131   -0.0031 H   0  0  0  0  0  0  0  0  0  0  0  0
    3.2296    0.5593   -0.8984 H   0  0  0  0  0  0  0  0  0  0  0  0
    3.2355    0.5593    0.8795 H   0  0  0  0  0  0  0  0  0  0  0  0
    3.3387   -0.9661   -0.0099 H   0  0  0  0  0  0  0  0  0  0  0  0
  1  2  1  0  0  0  0
  1  6  1  0  0  0  0
  1  8  2  0  0  0  0
  2  3  1  0  0  0  0
  2 10  1  0  0  0  0
  3  4  1  0  0  0  0
  3  7  2  0  0  0  0
  4  5  2  0  0  0  0
  4 11  1  0  0  0  0
  5  6  1  0  0  0  0
  5  9  1  0  0  0  0
  6 12  1  0  0  0  0
  9 13  1  0  0  0  0
  9 14  1  0  0  0  0
  9 15  1  0  0  0  0
M  END
>  <Mol_ID>
459

>  <Formula>
C5H6N2OS

>  <MolWeight>
142.17894

>  <Cat>
S3138

>  <Name>
Methylthiouracil

>  <Synonyms>
NSC-193526, NSC-9378,MTU

>  <Target>
ERK,Interleukins,NF-¦ÊB,TNF-alpha

>  <Form>
free base

>  <CAS>
56-04-2

>  <URL>
http://selleckchem.com/products/methylthiouracil.html

$$$$
