Methylamine hydrochloride
 OpenBabel08302520383D

  7  6  0  0  0  0  0  0  0  0999 V2000
    1.0266   -0.0568   -0.0499 C   0  0  0  0  0  0  0  0  0  0  0  0
    0.5493    0.7371    1.0682 N   0  0  0  0  0  0  0  0  0  0  0  0
    0.6721    0.3679   -0.9931 H   0  0  0  0  0  0  0  0  0  0  0  0
    0.6673   -1.0868    0.0281 H   0  0  0  0  0  0  0  0  0  0  0  0
    2.1200   -0.0670   -0.0663 H   0  0  0  0  0  0  0  0  0  0  0  0
   -0.4693    0.7138    1.0899 H   0  0  0  0  0  0  0  0  0  0  0  0
    0.8611    0.3142    1.9415 H   0  0  0  0  0  0  0  0  0  0  0  0
  1  2  1  0  0  0  0
  1  3  1  0  0  0  0
  1  4  1  0  0  0  0
  1  5  1  0  0  0  0
  2  6  1  0  0  0  0
  2  7  1  0  0  0  0
M  END
>  <Mol_ID>
3504

>  <Formula>
CH6ClN

>  <MolWeight>
67.51804

>  <Cat>
S6232

>  <Name>
Methylamine hydrochloride

>  <Synonyms>
N/A

>  <Target>
Others

>  <Form>
hydrochloride

>  <CAS>
593-51-1

>  <URL>
http://www.selleck.cn/products/methylamine-hydrochloride.html

$$$$
