Methyl undecanoate
 OpenBabel08302521363D

 38 37  0  0  0  0  0  0  0  0999 V2000
    0.9801   -0.0407   -0.0598 C   0  0  0  0  0  0  0  0  0  0  0  0
    0.5297    0.3467   -1.4719 C   0  0  0  0  0  0  0  0  0  0  0  0
    0.6756   -1.5133    0.2432 C   0  0  0  0  0  0  0  0  0  0  0  0
    0.8505    1.8082   -1.8067 C   0  0  0  0  0  0  0  0  0  0  0  0
    1.0752   -1.9505    1.6589 C   0  0  0  0  0  0  0  0  0  0  0  0
    0.4019    2.1653   -3.2098 C   0  0  0  0  0  0  0  0  0  0  0  0
    0.4043   -1.1825    2.8049 C   0  0  0  0  0  0  0  0  0  0  0  0
    0.6578    3.4810   -3.4598 O   0  0  0  0  0  0  0  0  0  0  0  0
   -0.1095    1.3881   -4.0002 O   0  0  0  0  0  0  0  0  0  0  0  0
   -1.1229   -1.3005    2.8035 C   0  0  0  0  0  0  0  0  0  0  0  0
    0.2696    3.9538   -4.7576 C   0  0  0  0  0  0  0  0  0  0  0  0
   -1.7521   -0.5192    3.9607 C   0  0  0  0  0  0  0  0  0  0  0  0
   -3.2785   -0.6279    3.9459 C   0  0  0  0  0  0  0  0  0  0  0  0
   -3.9081    0.1552    5.0880 C   0  0  0  0  0  0  0  0  0  0  0  0
    0.4674    0.6065    0.6593 H   0  0  0  0  0  0  0  0  0  0  0  0
    2.0566    0.1367    0.0490 H   0  0  0  0  0  0  0  0  0  0  0  0
    1.0094   -0.3123   -2.2057 H   0  0  0  0  0  0  0  0  0  0  0  0
   -0.5520    0.1841   -1.5632 H   0  0  0  0  0  0  0  0  0  0  0  0
   -0.3884   -1.7178    0.0792 H   0  0  0  0  0  0  0  0  0  0  0  0
    1.2185   -2.1443   -0.4726 H   0  0  0  0  0  0  0  0  0  0  0  0
    0.3382    2.4699   -1.0994 H   0  0  0  0  0  0  0  0  0  0  0  0
    1.9306    1.9774   -1.7378 H   0  0  0  0  0  0  0  0  0  0  0  0
    0.8485   -3.0189    1.7696 H   0  0  0  0  0  0  0  0  0  0  0  0
    2.1632   -1.8566    1.7660 H   0  0  0  0  0  0  0  0  0  0  0  0
    0.7927   -1.5747    3.7536 H   0  0  0  0  0  0  0  0  0  0  0  0
    0.6995   -0.1280    2.7695 H   0  0  0  0  0  0  0  0  0  0  0  0
   -1.5283   -0.9181    1.8607 H   0  0  0  0  0  0  0  0  0  0  0  0
   -1.4061   -2.3576    2.8752 H   0  0  0  0  0  0  0  0  0  0  0  0
    1.1576    4.0237   -5.3925 H   0  0  0  0  0  0  0  0  0  0  0  0
   -0.4821    3.3244   -5.2439 H   0  0  0  0  0  0  0  0  0  0  0  0
   -0.1546    4.9549   -4.6410 H   0  0  0  0  0  0  0  0  0  0  0  0
   -1.3655   -0.8969    4.9148 H   0  0  0  0  0  0  0  0  0  0  0  0
   -1.4619    0.5361    3.8880 H   0  0  0  0  0  0  0  0  0  0  0  0
   -3.6699   -0.2484    2.9946 H   0  0  0  0  0  0  0  0  0  0  0  0
   -3.5790   -1.6793    4.0231 H   0  0  0  0  0  0  0  0  0  0  0  0
   -3.6487    1.2170    5.0266 H   0  0  0  0  0  0  0  0  0  0  0  0
   -4.9989    0.0708    5.0505 H   0  0  0  0  0  0  0  0  0  0  0  0
   -3.5721   -0.2255    6.0577 H   0  0  0  0  0  0  0  0  0  0  0  0
  1  2  1  0  0  0  0
  1  3  1  0  0  0  0
  1 15  1  0  0  0  0
  1 16  1  0  0  0  0
  2  4  1  0  0  0  0
  2 17  1  0  0  0  0
  2 18  1  0  0  0  0
  3  5  1  0  0  0  0
  3 19  1  0  0  0  0
  3 20  1  0  0  0  0
  4  6  1  0  0  0  0
  4 21  1  0  0  0  0
  4 22  1  0  0  0  0
  5  7  1  0  0  0  0
  5 23  1  0  0  0  0
  5 24  1  0  0  0  0
  6  8  1  0  0  0  0
  6  9  2  0  0  0  0
  7 10  1  0  0  0  0
  7 25  1  0  0  0  0
  7 26  1  0  0  0  0
  8 11  1  0  0  0  0
 10 12  1  0  0  0  0
 10 27  1  0  0  0  0
 10 28  1  0  0  0  0
 11 29  1  0  0  0  0
 11 30  1  0  0  0  0
 11 31  1  0  0  0  0
 12 13  1  0  0  0  0
 12 32  1  0  0  0  0
 12 33  1  0  0  0  0
 13 14  1  0  0  0  0
 13 34  1  0  0  0  0
 13 35  1  0  0  0  0
 14 36  1  0  0  0  0
 14 37  1  0  0  0  0
 14 38  1  0  0  0  0
M  END
>  <Mol_ID>
7145

>  <Formula>
C12H24O2

>  <MolWeight>
200.31776

>  <Cat>
E4130

>  <Name>
Methyl undecanoate

>  <Synonyms>
METHYL UNDECANOATE

>  <Target>
Others

>  <Form>
free base

>  <CAS>
1731-86-8

>  <URL>
https://www.selleckchem.com/products/methyl-undecanoate.html

$$$$
