Methoxamine HCl
 OpenBabel08302520303D

 32 32  0  0  0  0  0  0  0  0999 V2000
    1.4766   -0.2811    0.0422 C   0  0  0  0  0  0  0  0  0  0  0  0
    0.5590   -1.3335    0.1319 C   0  0  0  0  0  0  0  0  0  0  0  0
   -0.8209   -1.0997    0.0488 C   0  0  0  0  0  0  0  0  0  0  0  0
   -1.2890    0.2126   -0.1420 C   0  0  0  0  0  0  0  0  0  0  0  0
   -0.3447    1.2571   -0.2177 C   0  0  0  0  0  0  0  0  0  0  0  0
    1.0270    1.0208   -0.1276 C   0  0  0  0  0  0  0  0  0  0  0  0
    1.8054    2.1398   -0.2270 O   0  0  0  0  0  0  0  0  0  0  0  0
   -1.7771   -2.0779    0.1457 O   0  0  0  0  0  0  0  0  0  0  0  0
    3.2117    1.9627   -0.1408 C   0  0  0  0  0  0  0  0  0  0  0  0
   -1.3211   -3.4222    0.2547 C   0  0  0  0  0  0  0  0  0  0  0  0
   -2.7744    0.5236   -0.2567 C   0  0  3  0  0  0  0  0  0  0  0  0
   -3.4841    0.7529    1.1160 C   0  0  3  0  0  0  0  0  0  0  0  0
   -2.9608    1.6872   -1.0800 O   0  0  0  0  0  0  0  0  0  0  0  0
   -2.9458    1.9387    1.8195 N   0  0  0  0  0  0  0  0  0  0  0  0
   -4.9842    1.0012    0.9184 C   0  0  0  0  0  0  0  0  0  0  0  0
    2.5338   -0.5154    0.1079 H   0  0  0  0  0  0  0  0  0  0  0  0
    0.9620   -2.3328    0.2623 H   0  0  0  0  0  0  0  0  0  0  0  0
   -0.6810    2.2823   -0.3609 H   0  0  0  0  0  0  0  0  0  0  0  0
    3.4984    1.5952    0.8501 H   0  0  0  0  0  0  0  0  0  0  0  0
    3.5788    1.3048   -0.9318 H   0  0  0  0  0  0  0  0  0  0  0  0
    3.6792    2.9437   -0.2803 H   0  0  0  0  0  0  0  0  0  0  0  0
   -0.7064   -3.7074   -0.6062 H   0  0  0  0  0  0  0  0  0  0  0  0
   -0.7810   -3.5766    1.1950 H   0  0  0  0  0  0  0  0  0  0  0  0
   -2.1984   -4.0758    0.2648 H   0  0  0  0  0  0  0  0  0  0  0  0
   -3.2701   -0.2938   -0.7924 H   0  0  0  0  0  0  0  0  0  0  0  0
   -3.3496   -0.1278    1.7556 H   0  0  0  0  0  0  0  0  0  0  0  0
   -3.0061    2.4271   -0.4429 H   0  0  0  0  0  0  0  0  0  0  0  0
   -3.4472    2.0608    2.7002 H   0  0  0  0  0  0  0  0  0  0  0  0
   -1.9776    1.7400    2.0842 H   0  0  0  0  0  0  0  0  0  0  0  0
   -5.4523    0.1602    0.3979 H   0  0  0  0  0  0  0  0  0  0  0  0
   -5.4934    1.1236    1.8813 H   0  0  0  0  0  0  0  0  0  0  0  0
   -5.1758    1.9070    0.3302 H   0  0  0  0  0  0  0  0  0  0  0  0
  1  2  2  0  0  0  0
  1 16  1  0  0  0  0
  2  3  1  0  0  0  0
  2 17  1  0  0  0  0
  3  4  2  0  0  0  0
  3  8  1  0  0  0  0
  4  5  1  0  0  0  0
  4 11  1  0  0  0  0
  5  6  2  0  0  0  0
  5 18  1  0  0  0  0
  6  1  1  0  0  0  0
  6  7  1  0  0  0  0
  7  9  1  0  0  0  0
  8 10  1  0  0  0  0
  9 19  1  0  0  0  0
  9 20  1  0  0  0  0
  9 21  1  0  0  0  0
 10 22  1  0  0  0  0
 10 23  1  0  0  0  0
 10 24  1  0  0  0  0
 11 12  1  0  0  0  0
 11 13  1  0  0  0  0
 11 25  1  0  0  0  0
 12 14  1  0  0  0  0
 12 15  1  0  0  0  0
 12 26  1  0  0  0  0
 13 27  1  0  0  0  0
 14 28  1  0  0  0  0
 14 29  1  0  0  0  0
 15 30  1  0  0  0  0
 15 31  1  0  0  0  0
 15 32  1  0  0  0  0
M  END
>  <Mol_ID>
3322

>  <Formula>
C11H18ClNO3

>  <MolWeight>
247.71852

>  <Cat>
S4338

>  <Name>
Methoxamine HCl

>  <Synonyms>
Vasoxine HCl

>  <Target>
Others

>  <Form>
Hydrochloride

>  <CAS>
61-16-5

>  <URL>
http://www.selleckchem.com/products/methoxamine-hcl.html

$$$$
