Methylprednisolone Acetate
 OpenBabel08302521303D

 62 65  0  0  0  0  0  0  0  0999 V2000
    1.0828    1.1492    1.2884 O   0  0  0  0  0  0  0  0  0  0  0  0
    0.1508    6.4417    3.0648 O   0  0  0  0  0  0  0  0  0  0  0  0
    2.7892    3.7285   -0.2074 O   0  0  0  0  0  0  0  0  0  0  0  0
    4.5235    1.7848   -1.0326 O   0  0  0  0  0  0  0  0  0  0  0  0
   -2.1328   11.3361   -0.3690 O   0  0  0  0  0  0  0  0  0  0  0  0
    4.9724    1.8740    1.2099 O   0  0  0  0  0  0  0  0  0  0  0  0
    0.0607    3.3649    0.9198 C   0  0  1  0  0  0  0  0  0  0  0  0
   -0.3268    4.1245   -0.3727 C   0  0  2  0  0  0  0  0  0  0  0  0
   -1.5242    5.0565   -0.1787 C   0  0  1  0  0  0  0  0  0  0  0  0
   -1.2361    6.1093    0.9421 C   0  0  3  0  0  0  0  0  0  0  0  0
    0.9547    2.2182    0.3587 C   0  0  3  0  0  0  0  0  0  0  0  0
    0.6643    4.4442    1.8261 C   0  0  0  0  0  0  0  0  0  0  0  0
   -0.4049    5.5044    2.1621 C   0  0  3  0  0  0  0  0  0  0  0  0
   -0.3509    3.0812   -1.4965 C   0  0  0  0  0  0  0  0  0  0  0  0
   -1.1499    7.6341    0.4546 C   0  0  3  0  0  0  0  0  0  0  0  0
    0.0913    1.7750   -0.8433 C   0  0  0  0  0  0  0  0  0  0  0  0
   -1.9640    5.6796   -1.4915 C   0  0  0  0  0  0  0  0  0  0  0  0
   -2.9555    6.8409   -1.3294 C   0  0  3  0  0  0  0  0  0  0  0  0
   -1.1183    2.7022    1.7234 C   0  0  0  0  0  0  0  0  0  0  0  0
   -2.5191    7.8607   -0.2819 C   0  0  0  0  0  0  0  0  0  0  0  0
    2.3666    2.5699   -0.1730 C   0  0  0  0  0  0  0  0  0  0  0  0
   -0.8768    8.4810    1.7462 C   0  0  0  0  0  0  0  0  0  0  0  0
   -0.2004    8.3302   -0.5250 C   0  0  0  0  0  0  0  0  0  0  0  0
   -3.0583    7.4489   -2.7513 C   0  0  0  0  0  0  0  0  0  0  0  0
   -2.9900    9.1185   -0.3534 C   0  0  0  0  0  0  0  0  0  0  0  0
    3.1935    1.3958   -0.6999 C   0  0  0  0  0  0  0  0  0  0  0  0
   -0.5583    9.5854   -0.9190 C   0  0  0  0  0  0  0  0  0  0  0  0
   -1.9067   10.1392   -0.4937 C   0  0  0  0  0  0  0  0  0  0  0  0
    5.2910    2.0667    0.0466 C   0  0  0  0  0  0  0  0  0  0  0  0
    6.6026    2.6454   -0.3835 C   0  0  0  0  0  0  0  0  0  0  0  0
    1.5167    1.5016    2.0890 H   0  0  0  0  0  0  0  0  0  0  0  0
    0.7917    5.9957    3.6431 H   0  0  0  0  0  0  0  0  0  0  0  0
    0.5059    4.7961   -0.6413 H   0  0  0  0  0  0  0  0  0  0  0  0
   -2.3829    4.4550    0.1434 H   0  0  0  0  0  0  0  0  0  0  0  0
   -2.2245    6.1573    1.4428 H   0  0  0  0  0  0  0  0  0  0  0  0
    1.0581    4.0003    2.7500 H   0  0  0  0  0  0  0  0  0  0  0  0
    1.5155    4.9630    1.3734 H   0  0  0  0  0  0  0  0  0  0  0  0
   -1.1571    4.9940    2.7789 H   0  0  0  0  0  0  0  0  0  0  0  0
    0.3920    3.3678   -2.2546 H   0  0  0  0  0  0  0  0  0  0  0  0
   -1.3104    2.9799   -2.0054 H   0  0  0  0  0  0  0  0  0  0  0  0
   -0.7903    1.2084   -0.5277 H   0  0  0  0  0  0  0  0  0  0  0  0
    0.6036    1.1194   -1.5562 H   0  0  0  0  0  0  0  0  0  0  0  0
   -2.4440    4.9091   -2.1105 H   0  0  0  0  0  0  0  0  0  0  0  0
   -1.0757    5.9980   -2.0541 H   0  0  0  0  0  0  0  0  0  0  0  0
   -3.9326    6.4441   -1.0325 H   0  0  0  0  0  0  0  0  0  0  0  0
   -0.8253    2.5645    2.7731 H   0  0  0  0  0  0  0  0  0  0  0  0
   -2.0396    3.2862    1.7349 H   0  0  0  0  0  0  0  0  0  0  0  0
   -1.3992    1.7093    1.3649 H   0  0  0  0  0  0  0  0  0  0  0  0
   -1.5446    8.2098    2.5660 H   0  0  0  0  0  0  0  0  0  0  0  0
   -0.9445    9.5673    1.6437 H   0  0  0  0  0  0  0  0  0  0  0  0
    0.1732    8.3427    2.0431 H   0  0  0  0  0  0  0  0  0  0  0  0
    0.7603    7.9094   -0.7919 H   0  0  0  0  0  0  0  0  0  0  0  0
   -3.6952    8.3341   -2.8036 H   0  0  0  0  0  0  0  0  0  0  0  0
   -3.4614    6.7121   -3.4551 H   0  0  0  0  0  0  0  0  0  0  0  0
   -2.0659    7.7374   -3.1267 H   0  0  0  0  0  0  0  0  0  0  0  0
   -3.9316    9.3978   -0.8168 H   0  0  0  0  0  0  0  0  0  0  0  0
    2.7339    1.0344   -1.6230 H   0  0  0  0  0  0  0  0  0  0  0  0
    3.2083    0.5698    0.0166 H   0  0  0  0  0  0  0  0  0  0  0  0
    0.0534   10.2585   -1.5014 H   0  0  0  0  0  0  0  0  0  0  0  0
    7.3370    1.8446   -0.5151 H   0  0  0  0  0  0  0  0  0  0  0  0
    6.4779    3.1955   -1.3239 H   0  0  0  0  0  0  0  0  0  0  0  0
    6.9505    3.3532    0.3663 H   0  0  0  0  0  0  0  0  0  0  0  0
  1 31  1  0  0  0  0
  2 32  1  0  0  0  0
  3 21  2  0  0  0  0
  4 26  1  0  0  0  0
  4 29  1  0  0  0  0
  5 28  2  0  0  0  0
  6 29  2  0  0  0  0
  7  8  1  0  0  0  0
  7 11  1  0  0  0  0
  7 12  1  0  0  0  0
  7 19  1  1  0  0  0
  8  9  1  0  0  0  0
  8 14  1  0  0  0  0
  8 33  1  6  0  0  0
  9 10  1  0  0  0  0
  9 17  1  0  0  0  0
  9 34  1  1  0  0  0
 10 13  1  0  0  0  0
 10 15  1  0  0  0  0
 10 35  1  0  0  0  0
 11  1  1  0  0  0  0
 11 16  1  0  0  0  0
 11 21  1  0  0  0  0
 12 13  1  0  0  0  0
 12 36  1  0  0  0  0
 12 37  1  0  0  0  0
 13  2  1  0  0  0  0
 13 38  1  0  0  0  0
 14 16  1  0  0  0  0
 14 39  1  0  0  0  0
 14 40  1  0  0  0  0
 15 20  1  0  0  0  0
 15 22  1  0  0  0  0
 15 23  1  0  0  0  0
 16 41  1  0  0  0  0
 16 42  1  0  0  0  0
 17 18  1  0  0  0  0
 17 43  1  0  0  0  0
 17 44  1  0  0  0  0
 18 20  1  0  0  0  0
 18 24  1  0  0  0  0
 18 45  1  0  0  0  0
 19 46  1  0  0  0  0
 19 47  1  0  0  0  0
 19 48  1  0  0  0  0
 20 25  2  0  0  0  0
 21 26  1  0  0  0  0
 22 49  1  0  0  0  0
 22 50  1  0  0  0  0
 22 51  1  0  0  0  0
 23 27  2  0  0  0  0
 23 52  1  0  0  0  0
 24 53  1  0  0  0  0
 24 54  1  0  0  0  0
 24 55  1  0  0  0  0
 25 28  1  0  0  0  0
 25 56  1  0  0  0  0
 26 57  1  0  0  0  0
 26 58  1  0  0  0  0
 27 28  1  0  0  0  0
 27 59  1  0  0  0  0
 29 30  1  0  0  0  0
 30 60  1  0  0  0  0
 30 61  1  0  0  0  0
 30 62  1  0  0  0  0
M  END
>  <Mol_ID>
5636

>  <Formula>
C24H32O6

>  <MolWeight>
416.50728

>  <Cat>
S5973

>  <Name>
Methylprednisolone Acetate

>  <Synonyms>
NSC-19987 acetate, Medrol acetate

>  <Target>
ACE,Apoptosis related,Autophagy,Glucocorticoid Receptor,Immunology & Inflammation related,Interleukins

>  <Form>
Free Base

>  <CAS>
53-36-1

>  <URL>
http://www.selleckchem.com/products/methylprednisolone-acetate.html

$$$$
