Methyl octanoate
 OpenBabel08302521363D

 29 28  0  0  0  0  0  0  0  0999 V2000
    1.1076    0.0789   -0.0303 C   0  0  0  0  0  0  0  0  0  0  0  0
    0.6311    0.2725   -1.4672 C   0  0  0  0  0  0  0  0  0  0  0  0
    0.6703   -1.2754    0.5387 C   0  0  0  0  0  0  0  0  0  0  0  0
    1.1319    1.5703   -2.0598 C   0  0  0  0  0  0  0  0  0  0  0  0
    1.1365   -1.4453    1.9887 C   0  0  0  0  0  0  0  0  0  0  0  0
    0.6204    2.6371   -1.3853 O   0  0  0  0  0  0  0  0  0  0  0  0
    1.8689    1.6379   -3.0340 O   0  0  0  0  0  0  0  0  0  0  0  0
    0.6953   -2.7872    2.5816 C   0  0  0  0  0  0  0  0  0  0  0  0
    1.0181    3.9061   -1.9087 C   0  0  0  0  0  0  0  0  0  0  0  0
    1.1837   -2.9465    4.0237 C   0  0  0  0  0  0  0  0  0  0  0  0
    0.7435   -4.2707    4.6287 C   0  0  0  0  0  0  0  0  0  0  0  0
    0.7128    0.8840    0.6018 H   0  0  0  0  0  0  0  0  0  0  0  0
    2.2007    0.1601    0.0072 H   0  0  0  0  0  0  0  0  0  0  0  0
    0.9984   -0.5441   -2.0995 H   0  0  0  0  0  0  0  0  0  0  0  0
   -0.4624    0.2635   -1.5333 H   0  0  0  0  0  0  0  0  0  0  0  0
   -0.4221   -1.3589    0.4914 H   0  0  0  0  0  0  0  0  0  0  0  0
    1.0840   -2.0831   -0.0767 H   0  0  0  0  0  0  0  0  0  0  0  0
    2.2298   -1.3694    2.0309 H   0  0  0  0  0  0  0  0  0  0  0  0
    0.7327   -0.6286    2.5995 H   0  0  0  0  0  0  0  0  0  0  0  0
   -0.3989   -2.8590    2.5553 H   0  0  0  0  0  0  0  0  0  0  0  0
    1.0885   -3.6079    1.9695 H   0  0  0  0  0  0  0  0  0  0  0  0
    2.1059    4.0170   -1.8714 H   0  0  0  0  0  0  0  0  0  0  0  0
    0.6498    4.0297   -2.9329 H   0  0  0  0  0  0  0  0  0  0  0  0
    0.5701    4.6844   -1.2849 H   0  0  0  0  0  0  0  0  0  0  0  0
    2.2780   -2.8861    4.0536 H   0  0  0  0  0  0  0  0  0  0  0  0
    0.7978   -2.1263    4.6406 H   0  0  0  0  0  0  0  0  0  0  0  0
    1.1310   -5.1159    4.0506 H   0  0  0  0  0  0  0  0  0  0  0  0
    1.1180   -4.3611    5.6535 H   0  0  0  0  0  0  0  0  0  0  0  0
   -0.3482   -4.3455    4.6588 H   0  0  0  0  0  0  0  0  0  0  0  0
  1  2  1  0  0  0  0
  1  3  1  0  0  0  0
  1 12  1  0  0  0  0
  1 13  1  0  0  0  0
  2  4  1  0  0  0  0
  2 14  1  0  0  0  0
  2 15  1  0  0  0  0
  3  5  1  0  0  0  0
  3 16  1  0  0  0  0
  3 17  1  0  0  0  0
  4  6  1  0  0  0  0
  4  7  2  0  0  0  0
  5  8  1  0  0  0  0
  5 18  1  0  0  0  0
  5 19  1  0  0  0  0
  6  9  1  0  0  0  0
  8 10  1  0  0  0  0
  8 20  1  0  0  0  0
  8 21  1  0  0  0  0
  9 22  1  0  0  0  0
  9 23  1  0  0  0  0
  9 24  1  0  0  0  0
 10 11  1  0  0  0  0
 10 25  1  0  0  0  0
 10 26  1  0  0  0  0
 11 27  1  0  0  0  0
 11 28  1  0  0  0  0
 11 29  1  0  0  0  0
M  END
>  <Mol_ID>
7245

>  <Formula>
C9H18O2

>  <MolWeight>
158.23802

>  <Cat>
E4254

>  <Name>
Methyl octanoate

>  <Synonyms>
Methyl octanoate

>  <Target>
Others

>  <Form>
free base

>  <CAS>
111-11-5

>  <URL>
https://www.selleckchem.com/products/methyl-octanoate.html

$$$$
