Methyl myristate
 OpenBabel08302521363D

 47 46  0  0  0  0  0  0  0  0999 V2000
    3.3777    2.6802    0.1578 C   0  0  0  0  0  0  0  0  0  0  0  0
    4.9044    2.5981    0.0322 C   0  0  0  0  0  0  0  0  0  0  0  0
    2.6729    2.1874   -1.1166 C   0  0  0  0  0  0  0  0  0  0  0  0
    5.6286    3.0537    1.3055 C   0  0  0  0  0  0  0  0  0  0  0  0
    1.1437    2.2865   -1.0064 C   0  0  0  0  0  0  0  0  0  0  0  0
    7.1344    2.9576    1.1561 C   0  0  0  0  0  0  0  0  0  0  0  0
    0.4380    1.8146   -2.2870 C   0  0  0  0  0  0  0  0  0  0  0  0
    7.7452    3.4132    2.2866 O   0  0  0  0  0  0  0  0  0  0  0  0
    7.7140    2.5246    0.1680 O   0  0  0  0  0  0  0  0  0  0  0  0
   -1.0920    1.9047   -2.1704 C   0  0  0  0  0  0  0  0  0  0  0  0
    9.1777    3.3896    2.2785 C   0  0  0  0  0  0  0  0  0  0  0  0
   -1.7937    1.4310   -3.4519 C   0  0  0  0  0  0  0  0  0  0  0  0
   -3.3237    1.5173   -3.3431 C   0  0  0  0  0  0  0  0  0  0  0  0
   -4.0102    1.0376   -4.6309 C   0  0  0  0  0  0  0  0  0  0  0  0
   -5.5381    1.1185   -4.5330 C   0  0  0  0  0  0  0  0  0  0  0  0
   -6.2143    0.6452   -5.8235 C   0  0  0  0  0  0  0  0  0  0  0  0
   -7.7314    0.7227   -5.7277 C   0  0  0  0  0  0  0  0  0  0  0  0
    3.0856    3.7177    0.3595 H   0  0  0  0  0  0  0  0  0  0  0  0
    3.0481    2.0780    1.0129 H   0  0  0  0  0  0  0  0  0  0  0  0
    5.1976    1.5670   -0.2017 H   0  0  0  0  0  0  0  0  0  0  0  0
    5.2346    3.2171   -0.8117 H   0  0  0  0  0  0  0  0  0  0  0  0
    3.0161    2.7783   -1.9744 H   0  0  0  0  0  0  0  0  0  0  0  0
    2.9568    1.1456   -1.3091 H   0  0  0  0  0  0  0  0  0  0  0  0
    5.3707    4.0956    1.5257 H   0  0  0  0  0  0  0  0  0  0  0  0
    5.3283    2.4243    2.1506 H   0  0  0  0  0  0  0  0  0  0  0  0
    0.8014    1.6815   -0.1581 H   0  0  0  0  0  0  0  0  0  0  0  0
    0.8608    3.3253   -0.7981 H   0  0  0  0  0  0  0  0  0  0  0  0
    0.7745    2.4247   -3.1342 H   0  0  0  0  0  0  0  0  0  0  0  0
    0.7258    0.7783   -2.5015 H   0  0  0  0  0  0  0  0  0  0  0  0
   -1.4294    1.2947   -1.3239 H   0  0  0  0  0  0  0  0  0  0  0  0
   -1.3814    2.9410   -1.9582 H   0  0  0  0  0  0  0  0  0  0  0  0
    9.5245    2.5348    2.8673 H   0  0  0  0  0  0  0  0  0  0  0  0
    9.6081    3.3443    1.2734 H   0  0  0  0  0  0  0  0  0  0  0  0
    9.5343    4.3065    2.7568 H   0  0  0  0  0  0  0  0  0  0  0  0
   -1.4555    2.0405   -4.2986 H   0  0  0  0  0  0  0  0  0  0  0  0
   -1.5029    0.3948   -3.6636 H   0  0  0  0  0  0  0  0  0  0  0  0
   -3.6655    0.9065   -2.4989 H   0  0  0  0  0  0  0  0  0  0  0  0
   -3.6191    2.5518   -3.1360 H   0  0  0  0  0  0  0  0  0  0  0  0
   -3.6673    1.6476   -5.4755 H   0  0  0  0  0  0  0  0  0  0  0  0
   -3.7138    0.0024   -4.8389 H   0  0  0  0  0  0  0  0  0  0  0  0
   -5.8851    0.5042   -3.6943 H   0  0  0  0  0  0  0  0  0  0  0  0
   -5.8392    2.1523   -4.3225 H   0  0  0  0  0  0  0  0  0  0  0  0
   -5.8783    1.2602   -6.6664 H   0  0  0  0  0  0  0  0  0  0  0  0
   -5.9229   -0.3895   -6.0405 H   0  0  0  0  0  0  0  0  0  0  0  0
   -8.0610    1.7469   -5.5259 H   0  0  0  0  0  0  0  0  0  0  0  0
   -8.1886    0.3986   -6.6684 H   0  0  0  0  0  0  0  0  0  0  0  0
   -8.1082    0.0769   -4.9282 H   0  0  0  0  0  0  0  0  0  0  0  0
  1  2  1  0  0  0  0
  1  3  1  0  0  0  0
  1 18  1  0  0  0  0
  1 19  1  0  0  0  0
  2  4  1  0  0  0  0
  2 20  1  0  0  0  0
  2 21  1  0  0  0  0
  3  5  1  0  0  0  0
  3 22  1  0  0  0  0
  3 23  1  0  0  0  0
  4  6  1  0  0  0  0
  4 24  1  0  0  0  0
  4 25  1  0  0  0  0
  5  7  1  0  0  0  0
  5 26  1  0  0  0  0
  5 27  1  0  0  0  0
  6  8  1  0  0  0  0
  6  9  2  0  0  0  0
  7 10  1  0  0  0  0
  7 28  1  0  0  0  0
  7 29  1  0  0  0  0
  8 11  1  0  0  0  0
 10 12  1  0  0  0  0
 10 30  1  0  0  0  0
 10 31  1  0  0  0  0
 11 32  1  0  0  0  0
 11 33  1  0  0  0  0
 11 34  1  0  0  0  0
 12 13  1  0  0  0  0
 12 35  1  0  0  0  0
 12 36  1  0  0  0  0
 13 14  1  0  0  0  0
 13 37  1  0  0  0  0
 13 38  1  0  0  0  0
 14 15  1  0  0  0  0
 14 39  1  0  0  0  0
 14 40  1  0  0  0  0
 15 16  1  0  0  0  0
 15 41  1  0  0  0  0
 15 42  1  0  0  0  0
 16 17  1  0  0  0  0
 16 43  1  0  0  0  0
 16 44  1  0  0  0  0
 17 45  1  0  0  0  0
 17 46  1  0  0  0  0
 17 47  1  0  0  0  0
M  END
>  <Mol_ID>
7148

>  <Formula>
C15H30O2

>  <MolWeight>
242.3975

>  <Cat>
E4133

>  <Name>
Methyl myristate

>  <Synonyms>
Methyl myristate

>  <Target>
Others

>  <Form>
free base

>  <CAS>
124-10-7

>  <URL>
https://www.selleckchem.com/products/methyl-myristate.html

$$$$
