Methylprednisolone hemisuccinate
 OpenBabel08302520403D

 68 71  0  0  0  0  0  0  0  0999 V2000
    0.7899   -0.0504   -0.5225 C   0  0  0  0  0  0  0  0  0  0  0  0
    2.0902    0.0204   -1.1787 C   0  0  0  0  0  0  0  0  0  0  0  0
    2.7799   -1.1017   -1.2762 C   0  0  0  0  0  0  0  0  0  0  0  0
    0.1282   -1.3880   -0.6288 C   0  0  0  0  0  0  0  0  0  0  0  0
    0.8825   -2.5338   -0.7033 C   0  0  0  0  0  0  0  0  0  0  0  0
    0.3508   -3.9607   -0.8452 C   0  0  2  0  0  0  0  0  0  0  0  0
    1.3387   -5.0046   -1.5040 C   0  0  0  0  0  0  0  0  0  0  0  0
    2.7964   -5.0657   -0.8592 C   0  0  1  0  0  0  0  0  0  0  0  0
    3.8154   -6.0756   -1.6610 C   0  0  2  0  0  0  0  0  0  0  0  0
    4.6303   -7.6478   -1.6023 C   0  0  0  0  0  0  0  0  0  0  0  0
    6.1324   -7.3759   -2.3537 C   0  0  0  0  0  0  0  0  0  0  0  0
    5.7412   -6.1085   -3.0101 C   0  0  2  0  0  0  0  0  0  0  0  0
    5.9615   -5.2324   -4.2669 C   0  0  0  0  0  0  0  0  0  0  0  0
    6.9412   -5.6674   -5.3355 C   0  0  0  0  0  0  0  0  0  0  0  0
    5.1726   -5.4090   -1.6931 C   0  0  2  0  0  0  0  0  0  0  0  0
    5.6275   -5.7882   -0.1361 C   0  0  0  0  0  0  0  0  0  0  0  0
    5.5782   -3.9515   -1.6973 C   0  0  0  0  0  0  0  0  0  0  0  0
    4.7480   -3.1522   -0.7468 C   0  0  1  0  0  0  0  0  0  0  0  0
    3.2697   -3.5220   -1.0489 C   0  0  3  0  0  0  0  0  0  0  0  0
    2.3714   -2.3735   -0.5115 C   0  0  3  0  0  0  0  0  0  0  0  0
    2.5940   -2.1566    1.0154 C   0  0  0  0  0  0  0  0  0  0  0  0
    0.2647    0.9088    0.0204 O   0  0  0  0  0  0  0  0  0  0  0  0
    5.2072   -4.2831   -4.5411 O   0  0  0  0  0  0  0  0  0  0  0  0
   -0.9957   -3.9167   -1.5928 C   0  0  0  0  0  0  0  0  0  0  0  0
    4.6666   -6.7202   -3.9503 O   0  0  0  0  0  0  0  0  0  0  0  0
    5.2226   -3.2148    0.5874 O   0  0  0  0  0  0  0  0  0  0  0  0
    9.6996   -3.2433   -2.2522 C   0  0  0  0  0  0  0  0  0  0  0  0
   10.4762   -3.0407   -3.5401 C   0  0  0  0  0  0  0  0  0  0  0  0
   10.1743   -4.1979   -4.4832 C   0  0  0  0  0  0  0  0  0  0  0  0
    8.7012   -4.2390   -4.7983 C   0  0  0  0  0  0  0  0  0  0  0  0
    9.1984   -4.2906   -1.8761 O   0  0  0  0  0  0  0  0  0  0  0  0
    9.6149   -2.0927   -1.5480 O   0  0  0  0  0  0  0  0  0  0  0  0
    7.9874   -3.2504   -4.8726 O   0  0  0  0  0  0  0  0  0  0  0  0
    8.3048   -5.5326   -4.9786 O   0  0  0  0  0  0  0  0  0  0  0  0
    2.4336    0.9696   -1.6168 H   0  0  0  0  0  0  0  0  0  0  0  0
    3.6307   -1.1115   -1.9634 H   0  0  0  0  0  0  0  0  0  0  0  0
   -0.9472   -1.3669   -0.5895 H   0  0  0  0  0  0  0  0  0  0  0  0
    0.1565   -4.3347    0.1716 H   0  0  0  0  0  0  0  0  0  0  0  0
    1.4338   -4.7408   -2.5697 H   0  0  0  0  0  0  0  0  0  0  0  0
    0.8806   -6.0013   -1.4859 H   0  0  0  0  0  0  0  0  0  0  0  0
    2.7124   -5.3592    0.1913 H   0  0  0  0  0  0  0  0  0  0  0  0
    3.2602   -6.1758   -2.5988 H   0  0  0  0  0  0  0  0  0  0  0  0
    4.1075   -8.4132   -2.1812 H   0  0  0  0  0  0  0  0  0  0  0  0
    4.8391   -8.1263   -0.6398 H   0  0  0  0  0  0  0  0  0  0  0  0
    6.4761   -8.1712   -3.0192 H   0  0  0  0  0  0  0  0  0  0  0  0
    6.9602   -7.1673   -1.6562 H   0  0  0  0  0  0  0  0  0  0  0  0
    6.7347   -6.7117   -5.5884 H   0  0  0  0  0  0  0  0  0  0  0  0
    6.7385   -5.0959   -6.2558 H   0  0  0  0  0  0  0  0  0  0  0  0
    4.9690   -5.2720    0.5644 H   0  0  0  0  0  0  0  0  0  0  0  0
    5.4184   -6.7691    0.2866 H   0  0  0  0  0  0  0  0  0  0  0  0
    6.6651   -5.5595    0.0914 H   0  0  0  0  0  0  0  0  0  0  0  0
    6.6375   -3.8747   -1.4251 H   0  0  0  0  0  0  0  0  0  0  0  0
    5.4811   -3.4421   -2.6524 H   0  0  0  0  0  0  0  0  0  0  0  0
    4.9750   -2.1211   -1.0046 H   0  0  0  0  0  0  0  0  0  0  0  0
    3.1966   -3.4222   -2.1476 H   0  0  0  0  0  0  0  0  0  0  0  0
    2.5432   -3.1059    1.5614 H   0  0  0  0  0  0  0  0  0  0  0  0
    3.5520   -1.6661    1.2243 H   0  0  0  0  0  0  0  0  0  0  0  0
    1.8480   -1.5010    1.4767 H   0  0  0  0  0  0  0  0  0  0  0  0
   -1.3839   -4.9136   -1.8113 H   0  0  0  0  0  0  0  0  0  0  0  0
   -1.7580   -3.4035   -0.9913 H   0  0  0  0  0  0  0  0  0  0  0  0
   -0.9091   -3.3664   -2.5392 H   0  0  0  0  0  0  0  0  0  0  0  0
    4.7604   -7.6896   -4.0016 H   0  0  0  0  0  0  0  0  0  0  0  0
    4.5169   -3.5399    1.1666 H   0  0  0  0  0  0  0  0  0  0  0  0
   11.5536   -3.0097   -3.3005 H   0  0  0  0  0  0  0  0  0  0  0  0
   10.1879   -2.0858   -3.9976 H   0  0  0  0  0  0  0  0  0  0  0  0
   10.4606   -5.1441   -4.0089 H   0  0  0  0  0  0  0  0  0  0  0  0
   10.7175   -4.0931   -5.4243 H   0  0  0  0  0  0  0  0  0  0  0  0
    9.0850   -2.3348   -0.7605 H   0  0  0  0  0  0  0  0  0  0  0  0
  1  2  1  0  0  0  0
  1  4  1  0  0  0  0
  1 22  2  0  0  0  0
  2  3  2  0  0  0  0
  2 35  1  0  0  0  0
  3 20  1  0  0  0  0
  3 36  1  0  0  0  0
  4  5  2  0  0  0  0
  4 37  1  0  0  0  0
  5  6  1  0  0  0  0
  5 20  1  0  0  0  0
  6  7  1  0  0  0  0
  6 24  1  0  0  0  0
  6 38  1  1  0  0  0
  7 39  1  0  0  0  0
  7 40  1  0  0  0  0
  8  7  1  0  0  0  0
  8  9  1  0  0  0  0
  8 19  1  0  0  0  0
  8 41  1  1  0  0  0
  9 10  1  0  0  0  0
  9 15  1  0  0  0  0
  9 42  1  6  0  0  0
 10 11  1  0  0  0  0
 10 43  1  0  0  0  0
 10 44  1  0  0  0  0
 11 12  1  0  0  0  0
 11 45  1  0  0  0  0
 11 46  1  0  0  0  0
 12 15  1  0  0  0  0
 12 25  1  6  0  0  0
 12 13  1  0  0  0  0
 13 14  1  0  0  0  0
 13 23  2  0  0  0  0
 14 34  1  0  0  0  0
 14 47  1  0  0  0  0
 14 48  1  0  0  0  0
 15 16  1  1  0  0  0
 15 17  1  0  0  0  0
 16 49  1  0  0  0  0
 16 50  1  0  0  0  0
 16 51  1  0  0  0  0
 17 18  1  0  0  0  0
 17 52  1  0  0  0  0
 17 53  1  0  0  0  0
 18 26  1  0  0  0  0
 18 54  1  6  0  0  0
 19 18  1  0  0  0  0
 19 20  1  0  0  0  0
 19 55  1  0  0  0  0
 20 21  1  0  0  0  0
 21 56  1  0  0  0  0
 21 57  1  0  0  0  0
 21 58  1  0  0  0  0
 24 59  1  0  0  0  0
 24 60  1  0  0  0  0
 24 61  1  0  0  0  0
 25 62  1  0  0  0  0
 26 63  1  0  0  0  0
 27 28  1  0  0  0  0
 27 31  2  0  0  0  0
 27 32  1  0  0  0  0
 28 29  1  0  0  0  0
 28 64  1  0  0  0  0
 28 65  1  0  0  0  0
 29 30  1  0  0  0  0
 29 66  1  0  0  0  0
 29 67  1  0  0  0  0
 30 33  2  0  0  0  0
 30 34  1  0  0  0  0
 32 68  1  0  0  0  0
M  END
>  <Mol_ID>
3850

>  <Formula>
C26H34O8

>  <MolWeight>
474.54336

>  <Cat>
S6588

>  <Name>
Methylprednisolone hemisuccinate

>  <Synonyms>
N/A

>  <Target>
Others

>  <Form>
free base

>  <CAS>
2921-57-5

>  <URL>
https://www.selleckchem.com/products/methylprednisolone-hemisuccinate-s6588.html

$$$$
