Methyl cyclohexanecarboxylate
 OpenBabel08302520393D

 24 24  0  0  0  0  0  0  0  0999 V2000
   -1.3761    0.3423   -0.3795 C   0  0  0  0  0  0  0  0  0  0  0  0
   -1.5507    0.3408   -1.8988 C   0  0  0  0  0  0  0  0  0  0  0  0
   -0.9723   -1.0506    0.1299 C   0  0  0  0  0  0  0  0  0  0  0  0
   -0.3865    1.3974    0.1387 C   0  0  0  0  0  0  0  0  0  0  0  0
   -1.3361    1.5763   -2.4285 O   0  0  0  0  0  0  0  0  0  0  0  0
   -1.9022   -0.6349   -2.5499 O   0  0  0  0  0  0  0  0  0  0  0  0
    0.4789   -1.4010   -0.2021 C   0  0  0  0  0  0  0  0  0  0  0  0
    1.0638    1.0587   -0.2010 C   0  0  0  0  0  0  0  0  0  0  0  0
   -1.4894    1.6474   -3.8467 C   0  0  0  0  0  0  0  0  0  0  0  0
    1.4493   -0.3323    0.2909 C   0  0  0  0  0  0  0  0  0  0  0  0
   -2.3696    0.5817    0.0222 H   0  0  0  0  0  0  0  0  0  0  0  0
   -1.1009   -1.0793    1.2197 H   0  0  0  0  0  0  0  0  0  0  0  0
   -1.6336   -1.8229   -0.2800 H   0  0  0  0  0  0  0  0  0  0  0  0
   -0.6292    2.3936   -0.2484 H   0  0  0  0  0  0  0  0  0  0  0  0
   -0.4856    1.4652    1.2303 H   0  0  0  0  0  0  0  0  0  0  0  0
    0.7354   -2.3641    0.2534 H   0  0  0  0  0  0  0  0  0  0  0  0
    0.5916   -1.5243   -1.2862 H   0  0  0  0  0  0  0  0  0  0  0  0
    1.7278    1.8032    0.2529 H   0  0  0  0  0  0  0  0  0  0  0  0
    1.2162    1.1190   -1.2851 H   0  0  0  0  0  0  0  0  0  0  0  0
   -0.7849    0.9734   -4.3444 H   0  0  0  0  0  0  0  0  0  0  0  0
   -2.5202    1.4145   -4.1324 H   0  0  0  0  0  0  0  0  0  0  0  0
   -1.2660    2.6711   -4.1585 H   0  0  0  0  0  0  0  0  0  0  0  0
    1.4681   -0.3367    1.3877 H   0  0  0  0  0  0  0  0  0  0  0  0
    2.4643   -0.5731   -0.0450 H   0  0  0  0  0  0  0  0  0  0  0  0
  1  2  1  0  0  0  0
  1  3  1  0  0  0  0
  1  4  1  0  0  0  0
  1 11  1  0  0  0  0
  2  5  1  0  0  0  0
  2  6  2  0  0  0  0
  3  7  1  0  0  0  0
  3 12  1  0  0  0  0
  3 13  1  0  0  0  0
  4  8  1  0  0  0  0
  4 14  1  0  0  0  0
  4 15  1  0  0  0  0
  5  9  1  0  0  0  0
  7 10  1  0  0  0  0
  7 16  1  0  0  0  0
  7 17  1  0  0  0  0
  8 10  1  0  0  0  0
  8 18  1  0  0  0  0
  8 19  1  0  0  0  0
  9 20  1  0  0  0  0
  9 21  1  0  0  0  0
  9 22  1  0  0  0  0
 10 23  1  0  0  0  0
 10 24  1  0  0  0  0
M  END
>  <Mol_ID>
3647

>  <Formula>
C8H14O2

>  <MolWeight>
142.19556

>  <Cat>
S6299

>  <Name>
Methyl cyclohexanecarboxylate

>  <Synonyms>
Hexahydrobenzoic acid methyl ester, Methyl hexahydrobenzoate

>  <Target>
Others

>  <Form>
free base

>  <CAS>
4630-82-4

>  <URL>
http://www.selleck.cn/products/methyl-cyclohexanecarboxylate.html

$$$$
