Methyl ¦Â-D-Galactopyranoside
 OpenBabel08302521303D

 27 27  0  0  0  0  0  0  0  0999 V2000
   -1.7389    0.2115   -0.7833 C   0  0  2  0  0  0  0  0  0  0  0  0
   -0.8747   -1.0092   -0.4614 C   0  0  1  0  0  0  0  0  0  0  0  0
    0.6039   -0.6183   -0.5881 C   0  0  1  0  0  0  0  0  0  0  0  0
    0.9354    0.5786    0.3204 C   0  0  2  0  0  0  0  0  0  0  0  0
   -0.1016    1.7128    0.0986 C   0  0  1  0  0  0  0  0  0  0  0  0
   -1.4521    1.2381    0.1926 O   0  0  0  0  0  0  0  0  0  0  0  0
    0.0820    2.8305    0.9711 O   0  0  0  0  0  0  0  0  0  0  0  0
   -3.2365   -0.1007   -0.6898 C   0  0  0  0  0  0  0  0  0  0  0  0
   -1.1120   -1.4617    0.8844 O   0  0  0  0  0  0  0  0  0  0  0  0
    1.4251   -1.7414   -0.2503 O   0  0  0  0  0  0  0  0  0  0  0  0
    2.2749    1.0420    0.1029 O   0  0  0  0  0  0  0  0  0  0  0  0
   -0.0276    2.5284    2.3536 C   0  0  0  0  0  0  0  0  0  0  0  0
   -3.9848    1.0723   -1.0106 O   0  0  0  0  0  0  0  0  0  0  0  0
   -1.5224    0.6105   -1.7809 H   0  0  0  0  0  0  0  0  0  0  0  0
   -1.1015   -1.8496   -1.1247 H   0  0  0  0  0  0  0  0  0  0  0  0
    0.8389   -0.3670   -1.6292 H   0  0  0  0  0  0  0  0  0  0  0  0
    0.9108    0.2330    1.3587 H   0  0  0  0  0  0  0  0  0  0  0  0
    0.0417    2.1240   -0.9086 H   0  0  0  0  0  0  0  0  0  0  0  0
   -3.5184   -0.8874   -1.3961 H   0  0  0  0  0  0  0  0  0  0  0  0
   -3.5297   -0.4068    0.3190 H   0  0  0  0  0  0  0  0  0  0  0  0
   -1.3761   -0.6870    1.4202 H   0  0  0  0  0  0  0  0  0  0  0  0
    1.0869   -2.0845    0.6007 H   0  0  0  0  0  0  0  0  0  0  0  0
    2.4253    1.1353   -0.8527 H   0  0  0  0  0  0  0  0  0  0  0  0
   -0.9845    2.0472    2.5790 H   0  0  0  0  0  0  0  0  0  0  0  0
    0.8009    1.8997    2.6881 H   0  0  0  0  0  0  0  0  0  0  0  0
    0.0268    3.4660    2.9128 H   0  0  0  0  0  0  0  0  0  0  0  0
   -3.6562    1.7727   -0.4131 H   0  0  0  0  0  0  0  0  0  0  0  0
  1  2  1  0  0  0  0
  1  8  1  0  0  0  0
  1 14  1  6  0  0  0
  2  3  1  0  0  0  0
  2  9  1  0  0  0  0
  2 15  1  6  0  0  0
  3  4  1  0  0  0  0
  3 10  1  0  0  0  0
  3 16  1  6  0  0  0
  4  5  1  0  0  0  0
  4 11  1  0  0  0  0
  4 17  1  1  0  0  0
  5  6  1  0  0  0  0
  5  7  1  0  0  0  0
  5 18  1  6  0  0  0
  6  1  1  0  0  0  0
  7 12  1  0  0  0  0
  8 13  1  0  0  0  0
  8 19  1  0  0  0  0
  8 20  1  0  0  0  0
  9 21  1  0  0  0  0
 10 22  1  0  0  0  0
 11 23  1  0  0  0  0
 12 24  1  0  0  0  0
 12 25  1  0  0  0  0
 12 26  1  0  0  0  0
 13 27  1  0  0  0  0
M  END
>  <Mol_ID>
5503

>  <Formula>
C7H14O6

>  <MolWeight>
194.18246

>  <Cat>
S3343

>  <Name>
Methyl ¦Â-D-Galactopyranoside

>  <Synonyms>
Methyl beta-D-galactoside, Methylgalactoside

>  <Target>
Others

>  <Form>
Free Base

>  <CAS>
1824-94-8

>  <URL>
https://www.selleckchem.com/products/methyl-b-d-galactopyranoside.html

$$$$
