methyclothiazide.cdx
 OpenBabel08302522033D

 31 32  0  0  0  0  0  0  0  0999 V2000
    2.5522   -0.6914    0.0321 C   0  0  0  0  0  0  0  0  0  0  0  0
    2.4771    0.7006    0.0991 C   0  0  0  0  0  0  0  0  0  0  0  0
    1.2193    1.3240    0.1378 C   0  0  0  0  0  0  0  0  0  0  0  0
    0.0315    0.5779    0.0623 C   0  0  0  0  0  0  0  0  0  0  0  0
    0.1525   -0.8102    0.0283 C   0  0  0  0  0  0  0  0  0  0  0  0
    1.3897   -1.4569    0.0016 C   0  0  0  0  0  0  0  0  0  0  0  0
   -1.1983    1.2333    0.1203 N   0  0  0  0  0  0  0  0  0  0  0  0
   -2.3862    0.5724   -0.3990 C   0  0  3  0  0  0  0  0  0  0  0  0
   -2.5346   -0.7277    0.2394 N   0  0  0  0  0  0  0  0  0  0  0  0
   -1.2857   -1.8125   -0.0405 S   0  0  0  0  0  0  0  0  0  0  0  0
   -1.2438   -2.7392    1.0660 O   0  0  0  0  0  0  0  0  0  0  0  0
   -1.4091   -2.2938   -1.4032 O   0  0  0  0  0  0  0  0  0  0  0  0
   -3.8796   -1.3156    0.1655 C   0  0  0  0  0  0  0  0  0  0  0  0
   -2.3849    0.5511   -1.9281 C   0  0  0  0  0  0  0  0  0  0  0  0
    4.1055   -1.5259   -0.0866 S   0  0  0  0  0  0  0  0  0  0  0  0
    3.8931   -2.8358   -0.6558 O   0  0  0  0  0  0  0  0  0  0  0  0
    5.0944   -0.6095   -0.6019 O   0  0  0  0  0  0  0  0  0  0  0  0
    4.4811   -1.7834    1.5274 N   0  0  0  0  0  0  0  0  0  0  0  0
    3.3824    1.3041    0.1213 H   0  0  0  0  0  0  0  0  0  0  0  0
    1.1804    2.4101    0.2059 H   0  0  0  0  0  0  0  0  0  0  0  0
    1.4344   -2.5433   -0.0558 H   0  0  0  0  0  0  0  0  0  0  0  0
   -1.1594    2.2248   -0.0938 H   0  0  0  0  0  0  0  0  0  0  0  0
   -3.2384    1.1904   -0.0893 H   0  0  0  0  0  0  0  0  0  0  0  0
   -4.1392   -1.5916   -0.8608 H   0  0  0  0  0  0  0  0  0  0  0  0
   -3.9428   -2.2074    0.7972 H   0  0  0  0  0  0  0  0  0  0  0  0
   -4.6258   -0.6063    0.5366 H   0  0  0  0  0  0  0  0  0  0  0  0
   -3.2385   -0.0050   -2.3265 H   0  0  0  0  0  0  0  0  0  0  0  0
   -2.4398    1.5732   -2.3199 H   0  0  0  0  0  0  0  0  0  0  0  0
   -1.4739    0.1106   -2.3464 H   0  0  0  0  0  0  0  0  0  0  0  0
    4.2185   -2.7283    1.8098 H   0  0  0  0  0  0  0  0  0  0  0  0
    5.4697   -1.5768    1.6803 H   0  0  0  0  0  0  0  0  0  0  0  0
  1  2  2  0  0  0  0
  1 15  1  0  0  0  0
  2  3  1  0  0  0  0
  2 19  1  0  0  0  0
  3  4  2  0  0  0  0
  3 20  1  0  0  0  0
  4  5  1  0  0  0  0
  4  7  1  0  0  0  0
  5  6  2  0  0  0  0
  6  1  1  0  0  0  0
  6 21  1  0  0  0  0
  7  8  1  0  0  0  0
  7 22  1  0  0  0  0
  8  9  1  0  0  0  0
  8 14  1  0  0  0  0
  8 23  1  0  0  0  0
  9 10  1  0  0  0  0
  9 13  1  0  0  0  0
 10  5  1  0  0  0  0
 10 11  2  0  0  0  0
 10 12  2  0  0  0  0
 13 24  1  0  0  0  0
 13 25  1  0  0  0  0
 13 26  1  0  0  0  0
 14 27  1  0  0  0  0
 14 28  1  0  0  0  0
 14 29  1  0  0  0  0
 15 16  2  0  0  0  0
 15 17  2  0  0  0  0
 15 18  1  0  0  0  0
 18 30  1  0  0  0  0
 18 31  1  0  0  0  0
M  END
>  <Mol_ID>
1213

>  <Formula>
C9H11Cl2N3O4S2

>  <MolWeight>
360.23734

>  <Cat>
S4057

>  <Name>
Methyclothiazide

>  <Synonyms>
N/A

>  <Target>
Others

>  <Form>
free base

>  <CAS>
135-07-9

>  <URL>
http://selleckchem.com/products/methyclothiazide.html

$$$$
