Methylophiopogonanone A
 OpenBabel08302521463D

 43 46  0  0  1  0  0  0  0  0999 V2000
    1.0806   -0.1346    0.3439 O   0  0  0  0  0  0  0  0  0  0  0  0
    1.1676    2.5366   -0.3289 O   0  0  0  0  0  0  0  0  0  0  0  0
    6.6626    2.1269    1.1107 C   0  0  0  0  0  0  0  0  0  0  0  0
    2.3301   -2.4425   -0.5506 C   0  0  0  0  0  0  0  0  0  0  0  0
    2.6292    5.0017    0.0061 C   0  0  0  0  0  0  0  0  0  0  0  0
    5.3233    4.6618    0.6891 O   0  0  0  0  0  0  0  0  0  0  0  0
    3.0382    1.2234    0.3221 C   0  0  0  0  0  0  0  0  0  0  0  0
    4.3916    1.0987    0.6723 C   0  0  0  0  0  0  0  0  0  0  0  0
    2.2797   -0.0271    0.1247 C   0  0  0  0  0  0  0  0  0  0  0  0
    2.4654    2.4794    0.0935 C   0  0  0  0  0  0  0  0  0  0  0  0
    5.1959    2.2454    0.7881 C   0  0  0  0  0  0  0  0  0  0  0  0
    5.0022   -0.1186    0.8775 O   0  0  0  0  0  0  0  0  0  0  0  0
    3.1559   -1.1829   -0.2921 C   0  0  1  0  0  0  0  0  0  0  0  0
    3.2354    3.6429    0.2409 C   0  0  0  0  0  0  0  0  0  0  0  0
    4.5953    3.5050    0.5795 C   0  0  0  0  0  0  0  0  0  0  0  0
    4.1424   -1.2721    0.8618 C   0  0  0  0  0  0  0  0  0  0  0  0
    3.1487   -3.6266   -1.0127 C   0  0  0  0  0  0  0  0  0  0  0  0
    3.9523   -3.5516   -2.1615 C   0  0  0  0  0  0  0  0  0  0  0  0
    3.0784   -4.8396   -0.2910 C   0  0  0  0  0  0  0  0  0  0  0  0
    4.6723   -4.6702   -2.5283 C   0  0  0  0  0  0  0  0  0  0  0  0
    3.8080   -5.9618   -0.6959 C   0  0  0  0  0  0  0  0  0  0  0  0
    4.6017   -5.8415   -1.8136 C   0  0  0  0  0  0  0  0  0  0  0  0
    5.5132   -4.7629   -3.5933 O   0  0  0  0  0  0  0  0  0  0  0  0
    5.3898   -6.8183   -2.3398 O   0  0  0  0  0  0  0  0  0  0  0  0
    6.0516   -6.0858   -3.3920 C   0  0  0  0  0  0  0  0  0  0  0  0
    0.8345    3.4437   -0.3049 H   0  0  0  0  0  0  0  0  0  0  0  0
    7.2577    2.6130    0.3301 H   0  0  0  0  0  0  0  0  0  0  0  0
    6.8729    2.5968    2.0761 H   0  0  0  0  0  0  0  0  0  0  0  0
    7.0084    1.0906    1.1678 H   0  0  0  0  0  0  0  0  0  0  0  0
    1.7574   -2.7055    0.3466 H   0  0  0  0  0  0  0  0  0  0  0  0
    1.5836   -2.2349   -1.3298 H   0  0  0  0  0  0  0  0  0  0  0  0
    2.2696    5.0817   -1.0251 H   0  0  0  0  0  0  0  0  0  0  0  0
    1.7929    5.1572    0.6952 H   0  0  0  0  0  0  0  0  0  0  0  0
    3.3331    5.8224    0.1694 H   0  0  0  0  0  0  0  0  0  0  0  0
    6.2348    4.4661    0.9620 H   0  0  0  0  0  0  0  0  0  0  0  0
    3.6687   -0.8815   -1.2166 H   0  0  0  0  0  0  0  0  0  0  0  0
    3.6443   -1.3484    1.8370 H   0  0  0  0  0  0  0  0  0  0  0  0
    4.7937   -2.1450    0.7595 H   0  0  0  0  0  0  0  0  0  0  0  0
    4.0210   -2.6473   -2.7583 H   0  0  0  0  0  0  0  0  0  0  0  0
    2.4465   -4.9148    0.5911 H   0  0  0  0  0  0  0  0  0  0  0  0
    3.7547   -6.8941   -0.1460 H   0  0  0  0  0  0  0  0  0  0  0  0
    7.1132   -5.9911   -3.1308 H   0  0  0  0  0  0  0  0  0  0  0  0
    5.9698   -6.6518   -4.3263 H   0  0  0  0  0  0  0  0  0  0  0  0
  1  9  2  0  0  0  0
  2 10  1  0  0  0  0
  2 26  1  0  0  0  0
  3 11  1  0  0  0  0
  3 27  1  0  0  0  0
  3 28  1  0  0  0  0
  3 29  1  0  0  0  0
  4 17  1  0  0  0  0
  4 30  1  0  0  0  0
  4 31  1  0  0  0  0
  5 14  1  0  0  0  0
  5 32  1  0  0  0  0
  5 33  1  0  0  0  0
  5 34  1  0  0  0  0
  6 15  1  0  0  0  0
  6 35  1  0  0  0  0
  7  8  2  0  0  0  0
  7  9  1  0  0  0  0
  7 10  1  0  0  0  0
  8 11  1  0  0  0  0
  8 12  1  0  0  0  0
  9 13  1  0  0  0  0
 10 14  2  0  0  0  0
 11 15  2  0  0  0  0
 12 16  1  0  0  0  0
 13 16  1  0  0  0  0
 13 36  1  6  0  0  0
 13  4  1  0  0  0  0
 14 15  1  0  0  0  0
 16 37  1  0  0  0  0
 16 38  1  0  0  0  0
 17 18  2  0  0  0  0
 17 19  1  0  0  0  0
 18 20  1  0  0  0  0
 18 39  1  0  0  0  0
 19 21  2  0  0  0  0
 19 40  1  0  0  0  0
 20 22  2  0  0  0  0
 20 23  1  0  0  0  0
 21 22  1  0  0  0  0
 21 41  1  0  0  0  0
 22 24  1  0  0  0  0
 23 25  1  0  0  0  0
 24 25  1  0  0  0  0
 25 42  1  0  0  0  0
 25 43  1  0  0  0  0
M  END
>  <Mol_ID>
9719

>  <Formula>
C19H18O6

>  <MolWeight>
342.34262

>  <Cat>
E0914

>  <Name>
Methylophiopogonanone A

>  <Synonyms>
NA

>  <Target>
UGT1A1

>  <Form>
Free Base

>  <CAS>
74805-92-8

>  <URL>
https://www.selleckchem.com/products/methylophiopogonanone-a.html

$$$$
