Methylnissolin
 OpenBabel08302521453D

 38 41  0  0  1  0  0  0  0  0999 V2000
    1.0317    0.0060    0.0340 O   0  0  0  0  0  0  0  0  0  0  0  0
    0.3120    1.2069   -0.1979 C   0  0  0  0  0  0  0  0  0  0  0  0
    3.2596    8.5867    0.6230 O   0  0  0  0  0  0  0  0  0  0  0  0
    2.5558   -2.4253    0.4962 O   0  0  0  0  0  0  0  0  0  0  0  0
    1.1429   -2.5721    0.5275 C   0  0  0  0  0  0  0  0  0  0  0  0
    3.8409    3.1765   -0.9135 C   0  0  2  0  0  0  0  0  0  0  0  0
    5.1025    2.5105   -0.3566 C   0  0  2  0  0  0  0  0  0  0  0  0
    3.6678    4.6078   -0.4923 C   0  0  0  0  0  0  0  0  0  0  0  0
    2.6969    2.4223   -0.4520 O   0  0  0  0  0  0  0  0  0  0  0  0
    4.5715    1.1320   -0.1696 C   0  0  0  0  0  0  0  0  0  0  0  0
    5.5093    3.1714    0.9532 C   0  0  0  0  0  0  0  0  0  0  0  0
    4.6227    5.2297    0.3175 C   0  0  0  0  0  0  0  0  0  0  0  0
    2.5475    5.3411   -0.9153 C   0  0  0  0  0  0  0  0  0  0  0  0
    3.1792    1.1585   -0.2041 C   0  0  0  0  0  0  0  0  0  0  0  0
    5.2547   -0.0426    0.0642 C   0  0  0  0  0  0  0  0  0  0  0  0
    5.7347    4.5755    0.7806 O   0  0  0  0  0  0  0  0  0  0  0  0
    4.4862    6.5711    0.6676 C   0  0  0  0  0  0  0  0  0  0  0  0
    2.3932    6.6771   -0.5440 C   0  0  0  0  0  0  0  0  0  0  0  0
    2.3965    0.0282    0.0235 C   0  0  0  0  0  0  0  0  0  0  0  0
    4.5004   -1.1991    0.2703 C   0  0  0  0  0  0  0  0  0  0  0  0
    3.3691    7.2817    0.2414 C   0  0  0  0  0  0  0  0  0  0  0  0
    3.0847   -1.1795    0.2578 C   0  0  0  0  0  0  0  0  0  0  0  0
    0.5219    1.9548    0.5732 H   0  0  0  0  0  0  0  0  0  0  0  0
    0.4961    1.5891   -1.2068 H   0  0  0  0  0  0  0  0  0  0  0  0
   -0.7541    0.9682   -0.1326 H   0  0  0  0  0  0  0  0  0  0  0  0
    2.4301    8.9464    0.2688 H   0  0  0  0  0  0  0  0  0  0  0  0
    0.7033   -2.0009    1.3514 H   0  0  0  0  0  0  0  0  0  0  0  0
    0.6944   -2.3194   -0.4386 H   0  0  0  0  0  0  0  0  0  0  0  0
    0.9203   -3.6274    0.7147 H   0  0  0  0  0  0  0  0  0  0  0  0
    3.8442    3.1251   -2.0121 H   0  0  0  0  0  0  0  0  0  0  0  0
    5.9125    2.5682   -1.0918 H   0  0  0  0  0  0  0  0  0  0  0  0
    6.4463    2.7323    1.3158 H   0  0  0  0  0  0  0  0  0  0  0  0
    4.7703    3.0209    1.7533 H   0  0  0  0  0  0  0  0  0  0  0  0
    1.7862    4.8652   -1.5327 H   0  0  0  0  0  0  0  0  0  0  0  0
    6.3400   -0.0799    0.0943 H   0  0  0  0  0  0  0  0  0  0  0  0
    5.2362    7.0552    1.2858 H   0  0  0  0  0  0  0  0  0  0  0  0
    1.5155    7.2230   -0.8755 H   0  0  0  0  0  0  0  0  0  0  0  0
    5.0118   -2.1424    0.4537 H   0  0  0  0  0  0  0  0  0  0  0  0
  1  2  1  0  0  0  0
  1 19  1  0  0  0  0
  2 23  1  0  0  0  0
  2 24  1  0  0  0  0
  2 25  1  0  0  0  0
  3 21  1  0  0  0  0
  3 26  1  0  0  0  0
  4  5  1  0  0  0  0
  4 22  1  0  0  0  0
  5 27  1  0  0  0  0
  5 28  1  0  0  0  0
  5 29  1  0  0  0  0
  6  7  1  0  0  0  0
  6  8  1  0  0  0  0
  6  9  1  0  0  0  0
  6 30  1  6  0  0  0
  7 10  1  0  0  0  0
  7 11  1  0  0  0  0
  7 31  1  6  0  0  0
  8 12  2  0  0  0  0
  8 13  1  0  0  0  0
  9 14  1  0  0  0  0
 10 14  2  0  0  0  0
 10 15  1  0  0  0  0
 11 16  1  0  0  0  0
 11 32  1  0  0  0  0
 11 33  1  0  0  0  0
 12 16  1  0  0  0  0
 12 17  1  0  0  0  0
 13 18  2  0  0  0  0
 13 34  1  0  0  0  0
 14 19  1  0  0  0  0
 15 20  2  0  0  0  0
 15 35  1  0  0  0  0
 17 21  2  0  0  0  0
 17 36  1  0  0  0  0
 18 21  1  0  0  0  0
 18 37  1  0  0  0  0
 19 22  2  0  0  0  0
 20 22  1  0  0  0  0
 20 38  1  0  0  0  0
M  END
>  <Mol_ID>
9595

>  <Formula>
C17H16O5

>  <MolWeight>
300.30594

>  <Cat>
E2057

>  <Name>
Methylnissolin

>  <Synonyms>
Astrapterocarpan

>  <Target>
ERK, PDGFR

>  <Form>
free base

>  <CAS>
73340-41-7

>  <URL>
https://www.selleckchem.com/products/methylnissolin.html

$$$$
