Methylarbutin
 OpenBabel08302521363D

 38 39  0  0  1  0  0  0  0  0999 V2000
    3.0122    1.3181    0.5003 O   0  0  0  0  0  0  0  0  0  0  0  0
    2.1935    0.9468   -2.2506 O   0  0  0  0  0  0  0  0  0  0  0  0
    2.8411   -3.3275    1.4148 C   0  0  0  0  0  0  0  0  0  0  0  0
    2.3225   -3.0263    2.7125 O   0  0  0  0  0  0  0  0  0  0  0  0
    2.8867   -1.6936   -3.2677 O   0  0  0  0  0  0  0  0  0  0  0  0
    2.3647   -3.8560   -1.4219 O   0  0  0  0  0  0  0  0  0  0  0  0
    0.9531    4.3237    4.6618 O   0  0  0  0  0  0  0  0  0  0  0  0
    0.0948    3.7586    5.6459 C   0  0  0  0  0  0  0  0  0  0  0  0
    2.4029    0.0987    0.0548 C   0  0  2  0  0  0  0  0  0  0  0  0
    2.8760   -0.9973    0.8456 O   0  0  0  0  0  0  0  0  0  0  0  0
    2.7901   -0.0760   -1.4332 C   0  0  1  0  0  0  0  0  0  0  0  0
    2.3640   -2.2667    0.4174 C   0  0  1  0  0  0  0  0  0  0  0  0
    2.3796   -1.4637   -1.9477 C   0  0  2  0  0  0  0  0  0  0  0  0
    2.8466   -2.5800   -1.0006 C   0  0  2  0  0  0  0  0  0  0  0  0
    2.4480    1.9529    1.5689 C   0  0  0  0  0  0  0  0  0  0  0  0
    1.5814    1.3751    2.4934 C   0  0  0  0  0  0  0  0  0  0  0  0
    2.8148    3.2915    1.7235 C   0  0  0  0  0  0  0  0  0  0  0  0
    1.0580    2.1350    3.5456 C   0  0  0  0  0  0  0  0  0  0  0  0
    2.2919    4.0506    2.7728 C   0  0  0  0  0  0  0  0  0  0  0  0
    1.4076    3.4797    3.6881 C   0  0  0  0  0  0  0  0  0  0  0  0
    1.2526    0.7402   -2.3867 H   0  0  0  0  0  0  0  0  0  0  0  0
    2.4958   -4.3287    1.1395 H   0  0  0  0  0  0  0  0  0  0  0  0
    3.9356   -3.3397    1.4919 H   0  0  0  0  0  0  0  0  0  0  0  0
    2.6568   -2.1360    2.9252 H   0  0  0  0  0  0  0  0  0  0  0  0
    3.8554   -1.5833   -3.2501 H   0  0  0  0  0  0  0  0  0  0  0  0
    1.5249   -3.7401   -1.9004 H   0  0  0  0  0  0  0  0  0  0  0  0
   -0.8183    3.3561    5.1940 H   0  0  0  0  0  0  0  0  0  0  0  0
    0.6191    2.9920    6.2266 H   0  0  0  0  0  0  0  0  0  0  0  0
   -0.2015    4.5559    6.3336 H   0  0  0  0  0  0  0  0  0  0  0  0
    1.3090    0.1769    0.1236 H   0  0  0  0  0  0  0  0  0  0  0  0
    3.8731    0.0516   -1.5463 H   0  0  0  0  0  0  0  0  0  0  0  0
    1.2672   -2.2333    0.4602 H   0  0  0  0  0  0  0  0  0  0  0  0
    1.2891   -1.5073   -2.0572 H   0  0  0  0  0  0  0  0  0  0  0  0
    3.9418   -2.6287   -1.0259 H   0  0  0  0  0  0  0  0  0  0  0  0
    1.2985    0.3291    2.4340 H   0  0  0  0  0  0  0  0  0  0  0  0
    3.5058    3.7493    1.0202 H   0  0  0  0  0  0  0  0  0  0  0  0
    0.3832    1.6442    4.2373 H   0  0  0  0  0  0  0  0  0  0  0  0
    2.5779    5.0948    2.8768 H   0  0  0  0  0  0  0  0  0  0  0  0
  1 15  1  0  0  0  0
  2 21  1  0  0  0  0
  3  4  1  0  0  0  0
  3 22  1  0  0  0  0
  3 23  1  0  0  0  0
  4 24  1  0  0  0  0
  5 25  1  0  0  0  0
  6 26  1  0  0  0  0
  7  8  1  0  0  0  0
  7 20  1  0  0  0  0
  8 27  1  0  0  0  0
  8 28  1  0  0  0  0
  8 29  1  0  0  0  0
  9 10  1  0  0  0  0
  9 11  1  0  0  0  0
  9 30  1  1  0  0  0
  9  1  1  0  0  0  0
 10 12  1  0  0  0  0
 11  2  1  0  0  0  0
 11 13  1  0  0  0  0
 11 31  1  6  0  0  0
 12  3  1  0  0  0  0
 12 14  1  0  0  0  0
 12 32  1  1  0  0  0
 13  5  1  0  0  0  0
 13 14  1  0  0  0  0
 13 33  1  6  0  0  0
 14  6  1  0  0  0  0
 14 34  1  1  0  0  0
 15 16  2  0  0  0  0
 15 17  1  0  0  0  0
 16 18  1  0  0  0  0
 16 35  1  0  0  0  0
 17 19  2  0  0  0  0
 17 36  1  0  0  0  0
 18 20  2  0  0  0  0
 18 37  1  0  0  0  0
 19 20  1  0  0  0  0
 19 38  1  0  0  0  0
M  END
>  <Mol_ID>
7314

>  <Formula>
C13H18O7

>  <MolWeight>
286.27782

>  <Cat>
E4349

>  <Name>
Methylarbutin

>  <Synonyms>
Methylarbutin

>  <Target>
Others

>  <Form>
free base

>  <CAS>
6032-32-2

>  <URL>
https://www.selleckchem.com/products/methylarbutin.html

$$$$
