Methoxyacetic acid
 OpenBabel08302521363D

 12 11  0  0  0  0  0  0  0  0999 V2000
    0.9825    0.0094   -0.0785 C   0  0  0  0  0  0  0  0  0  0  0  0
    0.4494    0.5294   -1.4036 C   0  0  0  0  0  0  0  0  0  0  0  0
    0.2880   -1.2059    0.2499 O   0  0  0  0  0  0  0  0  0  0  0  0
   -0.6967   -0.0951   -1.7750 O   0  0  0  0  0  0  0  0  0  0  0  0
    0.9667    1.4249   -2.0548 O   0  0  0  0  0  0  0  0  0  0  0  0
    0.8357   -1.8030    1.4220 C   0  0  0  0  0  0  0  0  0  0  0  0
    0.7888    0.7577    0.6948 H   0  0  0  0  0  0  0  0  0  0  0  0
    2.0520   -0.1913   -0.1877 H   0  0  0  0  0  0  0  0  0  0  0  0
   -0.8812   -0.7973   -1.1085 H   0  0  0  0  0  0  0  0  0  0  0  0
    1.8997   -2.0196    1.2844 H   0  0  0  0  0  0  0  0  0  0  0  0
    0.6925   -1.1437    2.2833 H   0  0  0  0  0  0  0  0  0  0  0  0
    0.3092   -2.7428    1.6079 H   0  0  0  0  0  0  0  0  0  0  0  0
  1  2  1  0  0  0  0
  1  3  1  0  0  0  0
  1  7  1  0  0  0  0
  1  8  1  0  0  0  0
  2  4  1  0  0  0  0
  2  5  2  0  0  0  0
  3  6  1  0  0  0  0
  4  9  1  0  0  0  0
  6 10  1  0  0  0  0
  6 11  1  0  0  0  0
  6 12  1  0  0  0  0
M  END
>  <Mol_ID>
7253

>  <Formula>
C3H6O3

>  <MolWeight>
90.07794

>  <Cat>
E4267

>  <Name>
Methoxyacetic acid

>  <Target>
Others

>  <Form>
Free base

>  <CAS>
625-45-6

>  <URL>
https://www.selleckchem.com/products/methoxyacetic-acid.html

$$$$
