Methyl propyl disulfide
 OpenBabel08302521363D

 16 15  0  0  0  0  0  0  0  0999 V2000
    1.0445   -0.0404   -0.0583 C   0  0  0  0  0  0  0  0  0  0  0  0
    0.5910   -1.0135   -1.5269 S   0  0  0  0  0  0  0  0  0  0  0  0
    0.5546   -0.7315    1.2106 C   0  0  0  0  0  0  0  0  0  0  0  0
    1.2587    0.2006   -3.0490 S   0  0  0  0  0  0  0  0  0  0  0  0
    1.0457    0.0122    2.4438 C   0  0  0  0  0  0  0  0  0  0  0  0
    3.0489   -0.0556   -2.9693 C   0  0  0  0  0  0  0  0  0  0  0  0
    0.6062    0.9603   -0.1329 H   0  0  0  0  0  0  0  0  0  0  0  0
    2.1346    0.0540   -0.0272 H   0  0  0  0  0  0  0  0  0  0  0  0
   -0.5420   -0.7666    1.2241 H   0  0  0  0  0  0  0  0  0  0  0  0
    0.9193   -1.7629    1.2539 H   0  0  0  0  0  0  0  0  0  0  0  0
    0.6923    1.0481    2.4460 H   0  0  0  0  0  0  0  0  0  0  0  0
    0.6789   -0.4772    3.3517 H   0  0  0  0  0  0  0  0  0  0  0  0
    2.1401    0.0223    2.4824 H   0  0  0  0  0  0  0  0  0  0  0  0
    3.4503    0.3729   -2.0473 H   0  0  0  0  0  0  0  0  0  0  0  0
    3.2948   -1.1193   -3.0211 H   0  0  0  0  0  0  0  0  0  0  0  0
    3.5215    0.4523   -3.8138 H   0  0  0  0  0  0  0  0  0  0  0  0
  1  2  1  0  0  0  0
  1  3  1  0  0  0  0
  1  7  1  0  0  0  0
  1  8  1  0  0  0  0
  2  4  1  0  0  0  0
  3  5  1  0  0  0  0
  3  9  1  0  0  0  0
  3 10  1  0  0  0  0
  4  6  1  0  0  0  0
  5 11  1  0  0  0  0
  5 12  1  0  0  0  0
  5 13  1  0  0  0  0
  6 14  1  0  0  0  0
  6 15  1  0  0  0  0
  6 16  1  0  0  0  0
M  END
>  <Mol_ID>
7095

>  <Formula>
C4H10S2

>  <MolWeight>
122.2522

>  <Cat>
E4117

>  <Name>
Methyl propyl disulfide

>  <Synonyms>
Methyl propyl disulfide

>  <Target>
Others

>  <Form>
free base

>  <CAS>
2179-60-4

>  <URL>
https://www.selleckchem.com/products/methyl-propyl-disulfide.html

$$$$
