Methylene Blue.cdx
 OpenBabel08302519503D

 38 40  0  0  0  0  0  0  0  0999 V2000
   -1.3599   -0.7992   -0.0101 C   0  0  0  0  0  0  0  0  0  0  0  0
   -1.2242    0.5852   -0.0085 C   0  0  0  0  0  0  0  0  0  0  0  0
   -0.0119   -1.9335   -0.0161 S   0  0  0  0  0  0  0  0  0  0  0  0
   -2.6261   -1.3985   -0.0055 C   0  0  0  0  0  0  0  0  0  0  0  0
    0.0137    1.2614   -0.0112 N   0  0  0  0  0  0  0  0  0  0  0  0
   -2.4023    1.3346   -0.0022 C   0  0  0  0  0  0  0  0  0  0  0  0
    1.3271   -0.8709   -0.0080 C   0  0  0  0  0  0  0  0  0  0  0  0
   -3.8244   -0.6784    0.0016 C   0  0  0  0  0  0  0  0  0  0  0  0
    1.1301    0.6025   -0.0104 C   0  0  0  0  0  0  0  0  0  0  0  0
   -3.6722    0.7141    0.0028 C   0  0  0  0  0  0  0  0  0  0  0  0
    2.5389   -1.4342   -0.0029 C   0  0  0  0  0  0  0  0  0  0  0  0
   -5.0382   -1.3432    0.0073 N   0  0  0  0  0  0  0  0  0  0  0  0
    2.3978    1.3858   -0.0082 C   0  0  0  0  0  0  0  0  0  0  0  0
    3.8012   -0.6651   -0.0003 C   0  0  0  0  0  0  0  0  0  0  0  0
   -6.3392   -0.6895    0.0057 C   0  0  0  0  0  0  0  0  0  0  0  0
   -5.0826   -2.8083    0.0346 C   0  0  0  0  0  0  0  0  0  0  0  0
    3.6149    0.8214   -0.0024 C   0  0  0  0  0  0  0  0  0  0  0  0
    4.9670   -1.2440   -0.0003 N   0  3  0  0  0  0  0  0  0  0  0  0
    5.2050   -2.7327    0.0002 C   0  0  0  0  0  0  0  0  0  0  0  0
    6.2489   -0.4637   -0.0004 C   0  0  0  0  0  0  0  0  0  0  0  0
   -2.6534   -2.4846   -0.0064 H   0  0  0  0  0  0  0  0  0  0  0  0
   -2.3472    2.4214   -0.0001 H   0  0  0  0  0  0  0  0  0  0  0  0
   -4.5342    1.3739    0.0092 H   0  0  0  0  0  0  0  0  0  0  0  0
    2.5679   -2.5161   -0.0002 H   0  0  0  0  0  0  0  0  0  0  0  0
    2.2764    2.4662   -0.0086 H   0  0  0  0  0  0  0  0  0  0  0  0
   -6.9121   -1.0205   -0.8679 H   0  0  0  0  0  0  0  0  0  0  0  0
   -6.8957   -0.9801    0.9038 H   0  0  0  0  0  0  0  0  0  0  0  0
   -6.3092    0.3997   -0.0219 H   0  0  0  0  0  0  0  0  0  0  0  0
   -4.5986   -3.2311   -0.8540 H   0  0  0  0  0  0  0  0  0  0  0  0
   -4.5932   -3.1976    0.9357 H   0  0  0  0  0  0  0  0  0  0  0  0
   -6.1112   -3.1839    0.0442 H   0  0  0  0  0  0  0  0  0  0  0  0
    4.4781    1.4768   -0.0007 H   0  0  0  0  0  0  0  0  0  0  0  0
    5.7719   -2.9818   -0.9001 H   0  0  0  0  0  0  0  0  0  0  0  0
    5.7731   -2.9820    0.8999 H   0  0  0  0  0  0  0  0  0  0  0  0
    4.2848   -3.3136    0.0010 H   0  0  0  0  0  0  0  0  0  0  0  0
    6.2818    0.1440   -0.9074 H   0  0  0  0  0  0  0  0  0  0  0  0
    6.2824    0.1448    0.9061 H   0  0  0  0  0  0  0  0  0  0  0  0
    7.0951   -1.1584   -0.0005 H   0  0  0  0  0  0  0  0  0  0  0  0
  1  2  2  0  0  0  0
  1  3  1  0  0  0  0
  1  4  1  0  0  0  0
  2  5  1  0  0  0  0
  2  6  1  0  0  0  0
  3  7  1  0  0  0  0
  4  8  2  0  0  0  0
  4 21  1  0  0  0  0
  5  9  2  0  0  0  0
  6 10  2  0  0  0  0
  6 22  1  0  0  0  0
  7 11  2  0  0  0  0
  7  9  1  0  0  0  0
  8 12  1  0  0  0  0
  8 10  1  0  0  0  0
  9 13  1  0  0  0  0
 10 23  1  0  0  0  0
 11 14  1  0  0  0  0
 11 24  1  0  0  0  0
 12 15  1  0  0  0  0
 12 16  1  0  0  0  0
 13 17  2  0  0  0  0
 13 25  1  0  0  0  0
 14 18  2  0  0  0  0
 14 17  1  0  0  0  0
 15 26  1  0  0  0  0
 15 27  1  0  0  0  0
 15 28  1  0  0  0  0
 16 29  1  0  0  0  0
 16 30  1  0  0  0  0
 16 31  1  0  0  0  0
 17 32  1  0  0  0  0
 18 19  1  0  0  0  0
 18 20  1  0  0  0  0
 19 33  1  0  0  0  0
 19 34  1  0  0  0  0
 19 35  1  0  0  0  0
 20 36  1  0  0  0  0
 20 37  1  0  0  0  0
 20 38  1  0  0  0  0
M  CHG  1  18   1
M  END
>  <Mol_ID>
1504

>  <Formula>
C16H18ClN3S

>  <MolWeight>
319.85222

>  <Cat>
S4535

>  <Name>
Methylene Blue

>  <Synonyms>
Basic Blue 9, Tetramethylthionine chloride, methylthioninium chloride, CI-52015

>  <Target>
Dyes,Guanylate Cyclase,Microtubule Associated

>  <Form>
free base

>  <CAS>
61-73-4

>  <URL>
http://selleckchem.com/products/methylene-blue.html

$$$$
