Methylnissolin-3-O-glucoside
 OpenBabel08302521593D

 59 63  0  0  1  0  0  0  0  0999 V2000
   -4.9309   16.4322    1.4209 O   0  0  0  0  0  0  0  0  0  0  0  0
   -3.7473   16.2255    2.1835 C   0  0  0  0  0  0  0  0  0  0  0  0
    2.1056   10.9387    0.4184 O   0  0  0  0  0  0  0  0  0  0  0  0
   -7.3258   16.8275   -0.1850 O   0  0  0  0  0  0  0  0  0  0  0  0
   -7.3850   17.3472    1.1346 C   0  0  0  0  0  0  0  0  0  0  0  0
    4.8881   11.0478   -0.3428 O   0  0  0  0  0  0  0  0  0  0  0  0
    1.5221    6.6409   -1.5593 C   0  0  0  0  0  0  0  0  0  0  0  0
    0.1855    7.0264   -1.8847 O   0  0  0  0  0  0  0  0  0  0  0  0
    6.0810    8.4224   -0.7763 O   0  0  0  0  0  0  0  0  0  0  0  0
    4.3641    6.5723   -2.2048 O   0  0  0  0  0  0  0  0  0  0  0  0
   -1.9051   14.6524   -1.1294 C   0  0  2  0  0  0  0  0  0  0  0  0
   -2.8364   14.1556   -2.2407 C   0  0  2  0  0  0  0  0  0  0  0  0
   -0.8816   13.6372   -0.7011 C   0  0  0  0  0  0  0  0  0  0  0  0
   -2.7246   15.0153    0.0051 O   0  0  0  0  0  0  0  0  0  0  0  0
   -4.0767   14.8667   -1.8415 C   0  0  0  0  0  0  0  0  0  0  0  0
   -2.9621   12.6415   -2.1709 C   0  0  0  0  0  0  0  0  0  0  0  0
   -0.8011   12.4010   -1.3491 C   0  0  0  0  0  0  0  0  0  0  0  0
    0.0190   13.9144    0.3361 C   0  0  0  0  0  0  0  0  0  0  0  0
   -3.9548   15.3235   -0.5300 C   0  0  0  0  0  0  0  0  0  0  0  0
   -5.2380   15.0660   -2.5616 C   0  0  0  0  0  0  0  0  0  0  0  0
   -1.6781   12.0253   -2.3332 O   0  0  0  0  0  0  0  0  0  0  0  0
    0.2044   11.4868   -1.0277 C   0  0  0  0  0  0  0  0  0  0  0  0
    0.9933   12.9785    0.6925 C   0  0  0  0  0  0  0  0  0  0  0  0
   -4.9864   15.9801    0.1354 C   0  0  0  0  0  0  0  0  0  0  0  0
   -6.2820   15.7404   -1.9307 C   0  0  0  0  0  0  0  0  0  0  0  0
    1.1083   11.7745   -0.0053 C   0  0  0  0  0  0  0  0  0  0  0  0
   -6.1754   16.1972   -0.5960 C   0  0  0  0  0  0  0  0  0  0  0  0
    2.6436   10.0411   -0.5637 C   0  0  2  0  0  0  0  0  0  0  0  0
    1.9336    8.7957   -0.5468 O   0  0  0  0  0  0  0  0  0  0  0  0
    4.1409    9.8230   -0.2329 C   0  0  1  0  0  0  0  0  0  0  0  0
    2.4245    7.8799   -1.5386 C   0  0  1  0  0  0  0  0  0  0  0  0
    4.7446    8.7624   -1.1702 C   0  0  2  0  0  0  0  0  0  0  0  0
    3.8750    7.4962   -1.2306 C   0  0  2  0  0  0  0  0  0  0  0  0
   -3.5440   15.1591    2.3200 H   0  0  0  0  0  0  0  0  0  0  0  0
   -2.8996   16.7575    1.7449 H   0  0  0  0  0  0  0  0  0  0  0  0
   -3.9236   16.6529    3.1758 H   0  0  0  0  0  0  0  0  0  0  0  0
   -7.3125   16.5473    1.8786 H   0  0  0  0  0  0  0  0  0  0  0  0
   -6.6332   18.1278    1.2896 H   0  0  0  0  0  0  0  0  0  0  0  0
   -8.3643   17.8179    1.2635 H   0  0  0  0  0  0  0  0  0  0  0  0
    4.7849   11.4040   -1.2400 H   0  0  0  0  0  0  0  0  0  0  0  0
    1.8513    5.9198   -2.3136 H   0  0  0  0  0  0  0  0  0  0  0  0
    1.4986    6.1445   -0.5835 H   0  0  0  0  0  0  0  0  0  0  0  0
   -0.0822    7.6617   -1.1941 H   0  0  0  0  0  0  0  0  0  0  0  0
    6.0704    8.1531    0.1577 H   0  0  0  0  0  0  0  0  0  0  0  0
    4.6765    7.0638   -2.9847 H   0  0  0  0  0  0  0  0  0  0  0  0
   -1.3846   15.5639   -1.4591 H   0  0  0  0  0  0  0  0  0  0  0  0
   -2.4538   14.4692   -3.2188 H   0  0  0  0  0  0  0  0  0  0  0  0
   -3.6068   12.2777   -2.9789 H   0  0  0  0  0  0  0  0  0  0  0  0
   -3.4184   12.2935   -1.2326 H   0  0  0  0  0  0  0  0  0  0  0  0
   -0.0399   14.8578    0.8754 H   0  0  0  0  0  0  0  0  0  0  0  0
   -5.3458   14.7150   -3.5828 H   0  0  0  0  0  0  0  0  0  0  0  0
    0.2339   10.5455   -1.5661 H   0  0  0  0  0  0  0  0  0  0  0  0
    1.6762   13.1977    1.5112 H   0  0  0  0  0  0  0  0  0  0  0  0
   -7.2094   15.9176   -2.4761 H   0  0  0  0  0  0  0  0  0  0  0  0
    2.5804   10.4969   -1.5609 H   0  0  0  0  0  0  0  0  0  0  0  0
    4.2526    9.4982    0.8082 H   0  0  0  0  0  0  0  0  0  0  0  0
    2.3462    8.3639   -2.5217 H   0  0  0  0  0  0  0  0  0  0  0  0
    4.8509    9.1835   -2.1777 H   0  0  0  0  0  0  0  0  0  0  0  0
    3.9296    6.9876   -0.2603 H   0  0  0  0  0  0  0  0  0  0  0  0
  1  2  1  0  0  0  0
  1 24  1  0  0  0  0
  2 34  1  0  0  0  0
  2 35  1  0  0  0  0
  2 36  1  0  0  0  0
  3 26  1  0  0  0  0
  4  5  1  0  0  0  0
  4 27  1  0  0  0  0
  5 37  1  0  0  0  0
  5 38  1  0  0  0  0
  5 39  1  0  0  0  0
  6 40  1  0  0  0  0
  7  8  1  0  0  0  0
  7 41  1  0  0  0  0
  7 42  1  0  0  0  0
  8 43  1  0  0  0  0
  9 44  1  0  0  0  0
 10 45  1  0  0  0  0
 11 12  1  0  0  0  0
 11 13  1  0  0  0  0
 11 14  1  0  0  0  0
 11 46  1  6  0  0  0
 12 15  1  0  0  0  0
 12 16  1  0  0  0  0
 12 47  1  6  0  0  0
 13 17  2  0  0  0  0
 13 18  1  0  0  0  0
 14 19  1  0  0  0  0
 15 19  2  0  0  0  0
 15 20  1  0  0  0  0
 16 21  1  0  0  0  0
 16 48  1  0  0  0  0
 16 49  1  0  0  0  0
 17 21  1  0  0  0  0
 17 22  1  0  0  0  0
 18 23  2  0  0  0  0
 18 50  1  0  0  0  0
 19 24  1  0  0  0  0
 20 25  2  0  0  0  0
 20 51  1  0  0  0  0
 22 26  2  0  0  0  0
 22 52  1  0  0  0  0
 23 26  1  0  0  0  0
 23 53  1  0  0  0  0
 24 27  2  0  0  0  0
 25 27  1  0  0  0  0
 25 54  1  0  0  0  0
 28 29  1  0  0  0  0
 28 30  1  0  0  0  0
 28 55  1  6  0  0  0
 28  3  1  0  0  0  0
 29 31  1  0  0  0  0
 30  6  1  0  0  0  0
 30 32  1  0  0  0  0
 30 56  1  1  0  0  0
 31  7  1  0  0  0  0
 31 33  1  0  0  0  0
 31 57  1  6  0  0  0
 32  9  1  0  0  0  0
 32 33  1  0  0  0  0
 32 58  1  6  0  0  0
 33 10  1  0  0  0  0
 33 59  1  1  0  0  0
M  END
>  <Mol_ID>
10117

>  <Formula>
C23H26O10

>  <MolWeight>
462.44654

>  <Cat>
S0962

>  <Name>
Methylnissolin-3-O-glucoside

>  <Synonyms>
N/A

>  <Target>
Immunology & Inflammation related

>  <Form>
free base

>  <CAS>
94367-42-7

>  <URL>
https://www.selleckchem.com/products/astrapterocarpan-glucoside.html

$$$$
