Methyl 3-phenylpropanoate
 OpenBabel08302521363D

 24 24  0  0  0  0  0  0  0  0999 V2000
    1.0406   -0.0226   -0.0665 C   0  0  0  0  0  0  0  0  0  0  0  0
    0.4585    1.3597    0.2166 C   0  0  0  0  0  0  0  0  0  0  0  0
    1.0655    1.9389    1.4750 C   0  0  0  0  0  0  0  0  0  0  0  0
    0.5079    3.1535    1.7467 O   0  0  0  0  0  0  0  0  0  0  0  0
    1.9355    1.4065    2.1518 O   0  0  0  0  0  0  0  0  0  0  0  0
    1.0180    3.7879    2.9236 C   0  0  0  0  0  0  0  0  0  0  0  0
    0.5426   -0.6488   -1.3460 C   0  0  0  0  0  0  0  0  0  0  0  0
    1.2360   -0.4513   -2.5488 C   0  0  0  0  0  0  0  0  0  0  0  0
   -0.5879   -1.4773   -1.3463 C   0  0  0  0  0  0  0  0  0  0  0  0
    0.8268   -1.0965   -3.7182 C   0  0  0  0  0  0  0  0  0  0  0  0
   -0.9959   -2.1217   -2.5169 C   0  0  0  0  0  0  0  0  0  0  0  0
   -0.2834   -1.9376   -3.7009 C   0  0  0  0  0  0  0  0  0  0  0  0
    0.8185   -0.6976    0.7706 H   0  0  0  0  0  0  0  0  0  0  0  0
    2.1364    0.0329   -0.1067 H   0  0  0  0  0  0  0  0  0  0  0  0
    0.6703    2.0437   -0.6132 H   0  0  0  0  0  0  0  0  0  0  0  0
   -0.6275    1.2933    0.3522 H   0  0  0  0  0  0  0  0  0  0  0  0
    1.0552    3.0944    3.7710 H   0  0  0  0  0  0  0  0  0  0  0  0
    2.0103    4.2018    2.7223 H   0  0  0  0  0  0  0  0  0  0  0  0
    0.3449    4.6085    3.1868 H   0  0  0  0  0  0  0  0  0  0  0  0
    2.1165    0.1864   -2.5780 H   0  0  0  0  0  0  0  0  0  0  0  0
   -1.1458   -1.6472   -0.4283 H   0  0  0  0  0  0  0  0  0  0  0  0
    1.3849   -0.9547   -4.6408 H   0  0  0  0  0  0  0  0  0  0  0  0
   -1.8600   -2.7800   -2.5016 H   0  0  0  0  0  0  0  0  0  0  0  0
   -0.5902   -2.4538   -4.6067 H   0  0  0  0  0  0  0  0  0  0  0  0
  1  2  1  0  0  0  0
  1  7  1  0  0  0  0
  1 13  1  0  0  0  0
  1 14  1  0  0  0  0
  2  3  1  0  0  0  0
  2 15  1  0  0  0  0
  2 16  1  0  0  0  0
  3  4  1  0  0  0  0
  3  5  2  0  0  0  0
  4  6  1  0  0  0  0
  6 17  1  0  0  0  0
  6 18  1  0  0  0  0
  6 19  1  0  0  0  0
  7  8  2  0  0  0  0
  7  9  1  0  0  0  0
  8 10  1  0  0  0  0
  8 20  1  0  0  0  0
  9 11  2  0  0  0  0
  9 21  1  0  0  0  0
 10 12  2  0  0  0  0
 10 22  1  0  0  0  0
 11 12  1  0  0  0  0
 11 23  1  0  0  0  0
 12 24  1  0  0  0  0
M  END
>  <Mol_ID>
7162

>  <Formula>
C10H12O2

>  <MolWeight>
164.20108

>  <Cat>
E4153

>  <Name>
Methyl 3-phenylpropanoate

>  <Synonyms>
Methyl 3-phenylpropanoate

>  <Target>
Endogenous Metabolite

>  <Form>
free base

>  <CAS>
103-25-3

>  <URL>
https://www.selleckchem.com/products/methyl-3-phenylpropanoate.html

$$$$
