Methyloxalacetic acid diethyl ester
 OpenBabel08302520383D

 28 27  0  0  0  0  0  0  0  0999 V2000
    0.9792    0.0488    0.0017 C   0  0  3  0  0  0  0  0  0  0  0  0
    0.7705    1.5437    0.0960 C   0  0  0  0  0  0  0  0  0  0  0  0
    0.5324   -0.5468   -1.3137 C   0  0  0  0  0  0  0  0  0  0  0  0
    0.2987   -0.6501    1.1789 C   0  0  0  0  0  0  0  0  0  0  0  0
    1.7158    2.3895   -0.7649 C   0  0  0  0  0  0  0  0  0  0  0  0
   -0.0791    2.0788    0.7999 O   0  0  0  0  0  0  0  0  0  0  0  0
    0.2446    0.4075   -2.2417 O   0  0  0  0  0  0  0  0  0  0  0  0
    0.4765   -1.7530   -1.5211 O   0  0  0  0  0  0  0  0  0  0  0  0
    1.3642    3.6888   -0.7265 O   0  0  0  0  0  0  0  0  0  0  0  0
    2.6419    1.8924   -1.3805 O   0  0  0  0  0  0  0  0  0  0  0  0
   -0.1238   -0.0584   -3.5512 C   0  0  0  0  0  0  0  0  0  0  0  0
    2.1185    4.5622   -1.5751 C   0  0  0  0  0  0  0  0  0  0  0  0
    1.1089   -0.2756   -4.4110 C   0  0  0  0  0  0  0  0  0  0  0  0
    3.4409    4.9426   -0.9349 C   0  0  0  0  0  0  0  0  0  0  0  0
    2.0583   -0.1325    0.0901 H   0  0  0  0  0  0  0  0  0  0  0  0
    0.5280   -1.7206    1.1915 H   0  0  0  0  0  0  0  0  0  0  0  0
    0.6382   -0.2256    2.1313 H   0  0  0  0  0  0  0  0  0  0  0  0
   -0.7906   -0.5423    1.1358 H   0  0  0  0  0  0  0  0  0  0  0  0
   -0.7329   -0.9662   -3.4878 H   0  0  0  0  0  0  0  0  0  0  0  0
   -0.7498    0.7181   -4.0037 H   0  0  0  0  0  0  0  0  0  0  0  0
    2.2665    4.1076   -2.5615 H   0  0  0  0  0  0  0  0  0  0  0  0
    1.5123    5.4620   -1.7232 H   0  0  0  0  0  0  0  0  0  0  0  0
    1.8625   -0.8758   -3.8924 H   0  0  0  0  0  0  0  0  0  0  0  0
    0.8420   -0.7739   -5.3480 H   0  0  0  0  0  0  0  0  0  0  0  0
    1.5775    0.6836   -4.6561 H   0  0  0  0  0  0  0  0  0  0  0  0
    4.0714    4.0632   -0.7717 H   0  0  0  0  0  0  0  0  0  0  0  0
    3.9865    5.6456   -1.5708 H   0  0  0  0  0  0  0  0  0  0  0  0
    3.2777    5.4038    0.0443 H   0  0  0  0  0  0  0  0  0  0  0  0
  1  2  1  0  0  0  0
  1  3  1  0  0  0  0
  1  4  1  0  0  0  0
  1 15  1  0  0  0  0
  2  5  1  0  0  0  0
  2  6  2  0  0  0  0
  3  7  1  0  0  0  0
  3  8  2  0  0  0  0
  4 16  1  0  0  0  0
  4 17  1  0  0  0  0
  4 18  1  0  0  0  0
  5  9  1  0  0  0  0
  5 10  2  0  0  0  0
  7 11  1  0  0  0  0
  9 12  1  0  0  0  0
 11 13  1  0  0  0  0
 11 19  1  0  0  0  0
 11 20  1  0  0  0  0
 12 14  1  0  0  0  0
 12 21  1  0  0  0  0
 12 22  1  0  0  0  0
 13 23  1  0  0  0  0
 13 24  1  0  0  0  0
 13 25  1  0  0  0  0
 14 26  1  0  0  0  0
 14 27  1  0  0  0  0
 14 28  1  0  0  0  0
M  END
>  <Mol_ID>
3509

>  <Formula>
C9H14O5

>  <MolWeight>
202.20446

>  <Cat>
S6012

>  <Name>
Methyloxalacetic acid diethyl ester

>  <Synonyms>
Diethyl 2-methyl-3-oxosuccinate, Diethyl methyloxobutanedioate, Diethyl oxalpropionate

>  <Target>
Others

>  <Form>
free base

>  <CAS>
759-65-9

>  <URL>
http://www.selleck.cn/products/methyloxalacetic-acid-diethyl-ester.html

$$$$
