(¡À)-Methyl Jasmonate
 OpenBabel08302521293D

 36 36  0  0  0  0  0  0  0  0999 V2000
    1.9053    0.1574   -0.0106 O   0  0  0  0  0  0  0  0  0  0  0  0
   -3.9367   -0.2753   -2.9856 O   0  0  0  0  0  0  0  0  0  0  0  0
   -4.4103   -0.6035   -0.7619 O   0  0  0  0  0  0  0  0  0  0  0  0
   -1.5744   -0.7442   -0.2170 C   0  0  3  0  0  0  0  0  0  0  0  0
   -0.1088   -1.2152    0.0186 C   0  0  3  0  0  0  0  0  0  0  0  0
   -1.5844    0.7556    0.1241 C   0  0  0  0  0  0  0  0  0  0  0  0
   -0.1897    1.2955   -0.1334 C   0  0  0  0  0  0  0  0  0  0  0  0
    0.6784    0.0796   -0.0441 C   0  0  0  0  0  0  0  0  0  0  0  0
   -2.1723   -1.0237   -1.6100 C   0  0  0  0  0  0  0  0  0  0  0  0
    0.3855   -2.2806   -0.9663 C   0  0  0  0  0  0  0  0  0  0  0  0
    1.7801   -2.7893   -0.7278 C   0  0  0  0  0  0  0  0  0  0  0  0
   -3.6301   -0.6114   -1.7033 C   0  0  0  0  0  0  0  0  0  0  0  0
    3.4688   -4.5977   -0.3087 C   0  0  0  0  0  0  0  0  0  0  0  0
   -5.2756    0.1822   -3.2054 C   0  0  0  0  0  0  0  0  0  0  0  0
    3.6214   -5.2288    1.0652 C   0  0  0  0  0  0  0  0  0  0  0  0
    2.0741   -4.0781   -0.4977 C   0  0  0  0  0  0  0  0  0  0  0  0
   -2.2119   -1.2644    0.5119 H   0  0  0  0  0  0  0  0  0  0  0  0
   -0.0226   -1.5799    1.0502 H   0  0  0  0  0  0  0  0  0  0  0  0
   -2.3182    1.3282   -0.4514 H   0  0  0  0  0  0  0  0  0  0  0  0
   -1.8414    0.8876    1.1818 H   0  0  0  0  0  0  0  0  0  0  0  0
    0.0963    2.0283    0.6257 H   0  0  0  0  0  0  0  0  0  0  0  0
   -0.0946    1.7245   -1.1338 H   0  0  0  0  0  0  0  0  0  0  0  0
   -1.5967   -0.4959   -2.3780 H   0  0  0  0  0  0  0  0  0  0  0  0
   -2.1510   -2.0966   -1.8321 H   0  0  0  0  0  0  0  0  0  0  0  0
   -0.3107   -3.1278   -0.9336 H   0  0  0  0  0  0  0  0  0  0  0  0
    0.3648   -1.8848   -1.9901 H   0  0  0  0  0  0  0  0  0  0  0  0
    2.5913   -2.0639   -0.7948 H   0  0  0  0  0  0  0  0  0  0  0  0
    3.6757   -5.3473   -1.0808 H   0  0  0  0  0  0  0  0  0  0  0  0
    4.2112   -3.7998   -0.4288 H   0  0  0  0  0  0  0  0  0  0  0  0
   -5.8862   -0.6496   -3.5675 H   0  0  0  0  0  0  0  0  0  0  0  0
   -5.7302    0.6222   -2.3122 H   0  0  0  0  0  0  0  0  0  0  0  0
   -5.2425    0.9538   -3.9800 H   0  0  0  0  0  0  0  0  0  0  0  0
    2.9363   -6.0733    1.1875 H   0  0  0  0  0  0  0  0  0  0  0  0
    4.6458   -5.5999    1.2015 H   0  0  0  0  0  0  0  0  0  0  0  0
    3.4135   -4.5032    1.8578 H   0  0  0  0  0  0  0  0  0  0  0  0
    1.2752   -4.8157   -0.4535 H   0  0  0  0  0  0  0  0  0  0  0  0
  1  8  2  0  0  0  0
  2 12  1  0  0  0  0
  2 14  1  0  0  0  0
  3 12  2  0  0  0  0
  4  5  1  0  0  0  0
  4  6  1  0  0  0  0
  4  9  1  0  0  0  0
  4 17  1  0  0  0  0
  5  8  1  0  0  0  0
  5 10  1  0  0  0  0
  5 18  1  0  0  0  0
  6  7  1  0  0  0  0
  6 19  1  0  0  0  0
  6 20  1  0  0  0  0
  7  8  1  0  0  0  0
  7 21  1  0  0  0  0
  7 22  1  0  0  0  0
  9 12  1  0  0  0  0
  9 23  1  0  0  0  0
  9 24  1  0  0  0  0
 10 11  1  0  0  0  0
 10 25  1  0  0  0  0
 10 26  1  0  0  0  0
 11 16  2  0  0  0  0
 11 27  1  0  0  0  0
 13 15  1  0  0  0  0
 13 28  1  0  0  0  0
 13 29  1  0  0  0  0
 14 30  1  0  0  0  0
 14 31  1  0  0  0  0
 14 32  1  0  0  0  0
 15 33  1  0  0  0  0
 15 34  1  0  0  0  0
 15 35  1  0  0  0  0
 16 13  1  0  0  0  0
 16 36  1  0  0  0  0
M  END
>  <Mol_ID>
5442

>  <Formula>
C13H20O3

>  <MolWeight>
224.2961

>  <Cat>
S3088

>  <Name>
(¡À)-Methyl Jasmonate

>  <Synonyms>
MeJA, Methyl jasmonate, Methyl 2-(3-oxo-2-(pent-2-en-1-yl)cyclopentyl)acetate

>  <Target>
Caspase

>  <Form>
Free Base

>  <CAS>
39924-52-2

>  <URL>
https://www.selleckchem.com/products/methyl-jasmonate.html

$$$$
