Methyl 4-aminobutyrate HCl
 OpenBabel08302520393D

 19 18  0  0  0  0  0  0  0  0999 V2000
    1.1125    0.0142    0.2013 C   0  0  0  0  0  0  0  0  0  0  0  0
    0.3464   -0.9418   -0.6789 C   0  0  0  0  0  0  0  0  0  0  0  0
    2.1038   -0.6397    0.8641 O   0  0  0  0  0  0  0  0  0  0  0  0
    0.8642    1.2077    0.2823 O   0  0  0  0  0  0  0  0  0  0  0  0
   -0.4468   -1.9787    0.1129 C   0  0  0  0  0  0  0  0  0  0  0  0
    2.9549    0.1707    1.6824 C   0  0  0  0  0  0  0  0  0  0  0  0
   -1.4331   -1.3953    1.1264 C   0  0  0  0  0  0  0  0  0  0  0  0
   -2.4683   -0.5899    0.4927 N   0  0  0  0  0  0  0  0  0  0  0  0
   -0.3146   -0.3552   -1.3260 H   0  0  0  0  0  0  0  0  0  0  0  0
    1.0608   -1.4383   -1.3464 H   0  0  0  0  0  0  0  0  0  0  0  0
   -0.9877   -2.6194   -0.5954 H   0  0  0  0  0  0  0  0  0  0  0  0
    0.2500   -2.6337    0.6509 H   0  0  0  0  0  0  0  0  0  0  0  0
    2.9385    1.2303    1.4089 H   0  0  0  0  0  0  0  0  0  0  0  0
    2.6669    0.0504    2.7278 H   0  0  0  0  0  0  0  0  0  0  0  0
    3.9800   -0.1939    1.5582 H   0  0  0  0  0  0  0  0  0  0  0  0
   -1.9168   -2.2213    1.6622 H   0  0  0  0  0  0  0  0  0  0  0  0
   -0.9059   -0.7957    1.8760 H   0  0  0  0  0  0  0  0  0  0  0  0
   -3.0302   -0.1403    1.2179 H   0  0  0  0  0  0  0  0  0  0  0  0
   -2.0527    0.1779   -0.0353 H   0  0  0  0  0  0  0  0  0  0  0  0
  1  2  1  0  0  0  0
  1  3  1  0  0  0  0
  1  4  2  0  0  0  0
  2  5  1  0  0  0  0
  2  9  1  0  0  0  0
  2 10  1  0  0  0  0
  3  6  1  0  0  0  0
  5  7  1  0  0  0  0
  5 11  1  0  0  0  0
  5 12  1  0  0  0  0
  6 13  1  0  0  0  0
  6 14  1  0  0  0  0
  6 15  1  0  0  0  0
  7  8  1  0  0  0  0
  7 16  1  0  0  0  0
  7 17  1  0  0  0  0
  8 18  1  0  0  0  0
  8 19  1  0  0  0  0
M  END
>  <Mol_ID>
3543

>  <Formula>
C5H12ClNO2

>  <MolWeight>
153.60728

>  <Cat>
S6066

>  <Name>
Methyl 4-aminobutyrate HCl

>  <Synonyms>
GABA methyl ester

>  <Target>
Others

>  <Form>
hydrochloride

>  <CAS>
13031-60-2

>  <URL>
http://www.selleck.cn/products/methyl-4-aminobutyrate-hcl.html

$$$$
