Methyl tridecanoate
 OpenBabel08302521363D

 44 43  0  0  0  0  0  0  0  0999 V2000
    1.5493   -0.2486    2.4151 C   0  0  0  0  0  0  0  0  0  0  0  0
    1.0941   -1.7111    2.3370 C   0  0  0  0  0  0  0  0  0  0  0  0
    0.8074    0.6323    1.3946 C   0  0  0  0  0  0  0  0  0  0  0  0
    1.7895   -2.6113    3.3673 C   0  0  0  0  0  0  0  0  0  0  0  0
    1.2759    2.0945    1.4425 C   0  0  0  0  0  0  0  0  0  0  0  0
    1.3109   -4.0474    3.2586 C   0  0  0  0  0  0  0  0  0  0  0  0
    0.5510    2.9742    0.4111 C   0  0  0  0  0  0  0  0  0  0  0  0
    1.9787   -4.8298    4.1548 O   0  0  0  0  0  0  0  0  0  0  0  0
    0.4533   -4.4420    2.4850 O   0  0  0  0  0  0  0  0  0  0  0  0
    1.0181    4.4377    0.4738 C   0  0  0  0  0  0  0  0  0  0  0  0
    1.6279   -6.2201    4.1535 C   0  0  0  0  0  0  0  0  0  0  0  0
    0.2963    5.3233   -0.5529 C   0  0  0  0  0  0  0  0  0  0  0  0
    0.7664    6.7843   -0.4853 C   0  0  0  0  0  0  0  0  0  0  0  0
    0.0440    7.6637   -1.5145 C   0  0  0  0  0  0  0  0  0  0  0  0
    0.5015    9.1240   -1.4423 C   0  0  0  0  0  0  0  0  0  0  0  0
   -0.2169    9.9914   -2.4677 C   0  0  0  0  0  0  0  0  0  0  0  0
    2.6286   -0.1936    2.2304 H   0  0  0  0  0  0  0  0  0  0  0  0
    1.3724    0.1368    3.4259 H   0  0  0  0  0  0  0  0  0  0  0  0
    0.0087   -1.7645    2.4872 H   0  0  0  0  0  0  0  0  0  0  0  0
    1.2902   -2.0998    1.3298 H   0  0  0  0  0  0  0  0  0  0  0  0
    0.9640    0.2314    0.3860 H   0  0  0  0  0  0  0  0  0  0  0  0
   -0.2702    0.5887    1.5945 H   0  0  0  0  0  0  0  0  0  0  0  0
    2.8723   -2.5955    3.2034 H   0  0  0  0  0  0  0  0  0  0  0  0
    1.5743   -2.2533    4.3795 H   0  0  0  0  0  0  0  0  0  0  0  0
    1.1045    2.4967    2.4478 H   0  0  0  0  0  0  0  0  0  0  0  0
    2.3563    2.1363    1.2583 H   0  0  0  0  0  0  0  0  0  0  0  0
    0.7296    2.5783   -0.5950 H   0  0  0  0  0  0  0  0  0  0  0  0
   -0.5305    2.9298    0.5884 H   0  0  0  0  0  0  0  0  0  0  0  0
    0.8410    4.8330    1.4813 H   0  0  0  0  0  0  0  0  0  0  0  0
    2.0991    4.4823    0.2948 H   0  0  0  0  0  0  0  0  0  0  0  0
    0.9562   -6.4226    4.9929 H   0  0  0  0  0  0  0  0  0  0  0  0
    1.1632   -6.5488    3.2195 H   0  0  0  0  0  0  0  0  0  0  0  0
    2.5453   -6.7984    4.2954 H   0  0  0  0  0  0  0  0  0  0  0  0
    0.4727    4.9314   -1.5619 H   0  0  0  0  0  0  0  0  0  0  0  0
   -0.7850    5.2818   -0.3746 H   0  0  0  0  0  0  0  0  0  0  0  0
    0.5868    7.1802    0.5215 H   0  0  0  0  0  0  0  0  0  0  0  0
    1.8475    6.8302   -0.6627 H   0  0  0  0  0  0  0  0  0  0  0  0
    0.2292    7.2749   -2.5233 H   0  0  0  0  0  0  0  0  0  0  0  0
   -1.0379    7.6147   -1.3430 H   0  0  0  0  0  0  0  0  0  0  0  0
    0.3100    9.5252   -0.4402 H   0  0  0  0  0  0  0  0  0  0  0  0
    1.5818    9.1875   -1.6161 H   0  0  0  0  0  0  0  0  0  0  0  0
   -1.3011    9.9621   -2.3188 H   0  0  0  0  0  0  0  0  0  0  0  0
    0.1077   11.0333   -2.3791 H   0  0  0  0  0  0  0  0  0  0  0  0
   -0.0007    9.6560   -3.4870 H   0  0  0  0  0  0  0  0  0  0  0  0
  1  2  1  0  0  0  0
  1  3  1  0  0  0  0
  1 17  1  0  0  0  0
  1 18  1  0  0  0  0
  2  4  1  0  0  0  0
  2 19  1  0  0  0  0
  2 20  1  0  0  0  0
  3  5  1  0  0  0  0
  3 21  1  0  0  0  0
  3 22  1  0  0  0  0
  4  6  1  0  0  0  0
  4 23  1  0  0  0  0
  4 24  1  0  0  0  0
  5  7  1  0  0  0  0
  5 25  1  0  0  0  0
  5 26  1  0  0  0  0
  6  8  1  0  0  0  0
  6  9  2  0  0  0  0
  7 10  1  0  0  0  0
  7 27  1  0  0  0  0
  7 28  1  0  0  0  0
  8 11  1  0  0  0  0
 10 12  1  0  0  0  0
 10 29  1  0  0  0  0
 10 30  1  0  0  0  0
 11 31  1  0  0  0  0
 11 32  1  0  0  0  0
 11 33  1  0  0  0  0
 12 13  1  0  0  0  0
 12 34  1  0  0  0  0
 12 35  1  0  0  0  0
 13 14  1  0  0  0  0
 13 36  1  0  0  0  0
 13 37  1  0  0  0  0
 14 15  1  0  0  0  0
 14 38  1  0  0  0  0
 14 39  1  0  0  0  0
 15 16  1  0  0  0  0
 15 40  1  0  0  0  0
 15 41  1  0  0  0  0
 16 42  1  0  0  0  0
 16 43  1  0  0  0  0
 16 44  1  0  0  0  0
M  END
>  <Mol_ID>
7147

>  <Formula>
C14H28O2

>  <MolWeight>
228.37092

>  <Cat>
E4132

>  <Name>
Methyl tridecanoate

>  <Synonyms>
Methyl tridecanoate

>  <Target>
AChR; Beta Amyloid

>  <Form>
free base

>  <CAS>
1731-88-0

>  <URL>
https://www.selleckchem.com/products/methyl-tridecanoate.html

$$$$
