Methyl acetylsalicylate
 OpenBabel08302521363D

 24 24  0  0  0  0  0  0  0  0999 V2000
    0.9889    0.1315   -0.3799 O   0  0  0  0  0  0  0  0  0  0  0  0
    0.0773   -0.4729    0.4927 C   0  0  0  0  0  0  0  0  0  0  0  0
   -1.3150   -0.1176    0.0659 C   0  0  0  0  0  0  0  0  0  0  0  0
    0.3409   -1.2042    1.4355 O   0  0  0  0  0  0  0  0  0  0  0  0
    2.7742    2.3824   -1.0911 C   0  0  0  0  0  0  0  0  0  0  0  0
    1.5829    2.2298   -1.7211 O   0  0  0  0  0  0  0  0  0  0  0  0
    3.4490    3.4003   -1.0848 O   0  0  0  0  0  0  0  0  0  0  0  0
    1.1640    3.3522   -2.4975 C   0  0  0  0  0  0  0  0  0  0  0  0
    2.3876   -0.0043   -0.2182 C   0  0  0  0  0  0  0  0  0  0  0  0
    3.2255    1.0867   -0.5056 C   0  0  0  0  0  0  0  0  0  0  0  0
    2.9358   -1.2307    0.1702 C   0  0  0  0  0  0  0  0  0  0  0  0
    4.6087    0.9530   -0.2830 C   0  0  0  0  0  0  0  0  0  0  0  0
    4.3118   -1.3571    0.3531 C   0  0  0  0  0  0  0  0  0  0  0  0
    5.1474   -0.2617    0.1488 C   0  0  0  0  0  0  0  0  0  0  0  0
   -1.6256   -0.7580   -0.7633 H   0  0  0  0  0  0  0  0  0  0  0  0
   -1.9935   -0.2593    0.9109 H   0  0  0  0  0  0  0  0  0  0  0  0
   -1.3643    0.9358   -0.2270 H   0  0  0  0  0  0  0  0  0  0  0  0
    0.9188    4.1982   -1.8494 H   0  0  0  0  0  0  0  0  0  0  0  0
    1.9330    3.6260   -3.2257 H   0  0  0  0  0  0  0  0  0  0  0  0
    0.2641    3.0584   -3.0447 H   0  0  0  0  0  0  0  0  0  0  0  0
    2.3058   -2.1020    0.3355 H   0  0  0  0  0  0  0  0  0  0  0  0
    5.2793    1.7917   -0.4665 H   0  0  0  0  0  0  0  0  0  0  0  0
    4.7309   -2.3131    0.6606 H   0  0  0  0  0  0  0  0  0  0  0  0
    6.2182   -0.3573    0.3068 H   0  0  0  0  0  0  0  0  0  0  0  0
  1  2  1  0  0  0  0
  1  9  1  0  0  0  0
  2  3  1  0  0  0  0
  2  4  2  0  0  0  0
  3 15  1  0  0  0  0
  3 16  1  0  0  0  0
  3 17  1  0  0  0  0
  5  6  1  0  0  0  0
  5  7  2  0  0  0  0
  5 10  1  0  0  0  0
  6  8  1  0  0  0  0
  8 18  1  0  0  0  0
  8 19  1  0  0  0  0
  8 20  1  0  0  0  0
  9 10  2  0  0  0  0
  9 11  1  0  0  0  0
 10 12  1  0  0  0  0
 11 13  2  0  0  0  0
 11 21  1  0  0  0  0
 12 14  2  0  0  0  0
 12 22  1  0  0  0  0
 13 14  1  0  0  0  0
 13 23  1  0  0  0  0
 14 24  1  0  0  0  0
M  END
>  <Mol_ID>
7271

>  <Formula>
C10H10O4

>  <MolWeight>
194.184

>  <Cat>
E4290

>  <Name>
Methyl acetylsalicylate

>  <Synonyms>
Methyl acetylsalicylate

>  <Target>
Others

>  <Form>
free base

>  <CAS>
580-02-9

>  <URL>
https://www.selleckchem.com/products/methyl-acetylsalicylate.html

$$$$
