Methyl Eugenol
 OpenBabel08302520343D

 27 27  0  0  0  0  0  0  0  0999 V2000
    1.4182   -0.2507   -0.0637 C   0  0  0  0  0  0  0  0  0  0  0  0
    0.5445   -1.3492   -0.0880 C   0  0  0  0  0  0  0  0  0  0  0  0
    0.8939    1.0359    0.1447 C   0  0  0  0  0  0  0  0  0  0  0  0
    2.7601   -0.4544   -0.2556 O   0  0  0  0  0  0  0  0  0  0  0  0
   -0.8361   -1.1210    0.0216 C   0  0  0  0  0  0  0  0  0  0  0  0
    0.8324   -2.6715   -0.2966 O   0  0  0  0  0  0  0  0  0  0  0  0
   -0.4821    1.2637    0.2387 C   0  0  0  0  0  0  0  0  0  0  0  0
    3.4868    0.6293   -0.8327 C   0  0  0  0  0  0  0  0  0  0  0  0
   -1.3497    0.1689    0.1664 C   0  0  0  0  0  0  0  0  0  0  0  0
    2.1289   -3.1576    0.0111 C   0  0  0  0  0  0  0  0  0  0  0  0
   -1.0268    2.6687    0.3586 C   0  0  0  0  0  0  0  0  0  0  0  0
   -1.2635    3.3034   -0.9866 C   0  0  0  0  0  0  0  0  0  0  0  0
   -2.4480    3.7753   -1.4028 C   0  0  0  0  0  0  0  0  0  0  0  0
    1.5529    1.8989    0.2144 H   0  0  0  0  0  0  0  0  0  0  0  0
   -1.5207   -1.9659   -0.0206 H   0  0  0  0  0  0  0  0  0  0  0  0
    2.8903    1.2222   -1.5365 H   0  0  0  0  0  0  0  0  0  0  0  0
    3.8919    1.2665   -0.0401 H   0  0  0  0  0  0  0  0  0  0  0  0
    4.3256    0.2127   -1.3982 H   0  0  0  0  0  0  0  0  0  0  0  0
   -2.4278    0.3102    0.2204 H   0  0  0  0  0  0  0  0  0  0  0  0
    2.9049   -2.7098   -0.6119 H   0  0  0  0  0  0  0  0  0  0  0  0
    2.3494   -3.0562    1.0783 H   0  0  0  0  0  0  0  0  0  0  0  0
    2.1322   -4.2276   -0.2264 H   0  0  0  0  0  0  0  0  0  0  0  0
   -1.9467    2.6569    0.9567 H   0  0  0  0  0  0  0  0  0  0  0  0
   -0.3150    3.2873    0.9175 H   0  0  0  0  0  0  0  0  0  0  0  0
   -0.4064    3.3821   -1.6491 H   0  0  0  0  0  0  0  0  0  0  0  0
   -2.5496    4.2273   -2.3847 H   0  0  0  0  0  0  0  0  0  0  0  0
   -3.3353    3.7220   -0.7803 H   0  0  0  0  0  0  0  0  0  0  0  0
  1  2  2  0  0  0  0
  1  3  1  0  0  0  0
  1  4  1  0  0  0  0
  2  5  1  0  0  0  0
  2  6  1  0  0  0  0
  3  7  2  0  0  0  0
  3 14  1  0  0  0  0
  4  8  1  0  0  0  0
  5  9  2  0  0  0  0
  5 15  1  0  0  0  0
  6 10  1  0  0  0  0
  7 11  1  0  0  0  0
  7  9  1  0  0  0  0
  8 16  1  0  0  0  0
  8 17  1  0  0  0  0
  8 18  1  0  0  0  0
  9 19  1  0  0  0  0
 10 20  1  0  0  0  0
 10 21  1  0  0  0  0
 10 22  1  0  0  0  0
 11 12  1  0  0  0  0
 11 23  1  0  0  0  0
 11 24  1  0  0  0  0
 12 13  2  0  0  0  0
 12 25  1  0  0  0  0
 13 26  1  0  0  0  0
 13 27  1  0  0  0  0
M  END
>  <Mol_ID>
3396

>  <Formula>
C11H14O2

>  <MolWeight>
178.22766

>  <Cat>
S5755

>  <Name>
Methyl Eugenol

>  <Synonyms>
4-allylveratrole, eugenyl methyl ether, O-methyleugenol

>  <Target>
Others

>  <Form>
Free Base

>  <CAS>
93-15-2

>  <URL>
http://www.selleckchem.com/products/methyl-eugenol.html

$$$$
