Methyl 2,4-dihydroxybenzoate
 OpenBabel08302521373D

 20 20  0  0  0  0  0  0  0  0999 V2000
    1.1209   -0.0031    0.1032 C   0  0  0  0  0  0  0  0  0  0  0  0
    0.6036   -1.2551    0.1122 O   0  0  0  0  0  0  0  0  0  0  0  0
    0.4723    1.0368    0.1098 O   0  0  0  0  0  0  0  0  0  0  0  0
   -0.8273   -1.2740    0.1218 C   0  0  0  0  0  0  0  0  0  0  0  0
    2.6419    2.4492    0.0666 O   0  0  0  0  0  0  0  0  0  0  0  0
    6.7625    0.2004    0.0160 O   0  0  0  0  0  0  0  0  0  0  0  0
    2.6067    0.0041    0.0850 C   0  0  0  0  0  0  0  0  0  0  0  0
    3.2817    1.2363    0.0659 C   0  0  0  0  0  0  0  0  0  0  0  0
    3.3591   -1.1817    0.0837 C   0  0  0  0  0  0  0  0  0  0  0  0
    4.6741    1.2862    0.0437 C   0  0  0  0  0  0  0  0  0  0  0  0
    4.7595   -1.1307    0.0612 C   0  0  0  0  0  0  0  0  0  0  0  0
    5.4028    0.1040    0.0405 C   0  0  0  0  0  0  0  0  0  0  0  0
   -1.2120   -0.7775    1.0190 H   0  0  0  0  0  0  0  0  0  0  0  0
   -1.2218   -0.7952   -0.7807 H   0  0  0  0  0  0  0  0  0  0  0  0
   -1.1597   -2.3154    0.1339 H   0  0  0  0  0  0  0  0  0  0  0  0
    1.6718    2.2948    0.0830 H   0  0  0  0  0  0  0  0  0  0  0  0
    7.1469   -0.6911    0.0107 H   0  0  0  0  0  0  0  0  0  0  0  0
    2.8708   -2.1533    0.0989 H   0  0  0  0  0  0  0  0  0  0  0  0
    5.1849    2.2447    0.0274 H   0  0  0  0  0  0  0  0  0  0  0  0
    5.3271   -2.0568    0.0592 H   0  0  0  0  0  0  0  0  0  0  0  0
  1  2  1  0  0  0  0
  1  3  2  0  0  0  0
  1  7  1  0  0  0  0
  2  4  1  0  0  0  0
  4 13  1  0  0  0  0
  4 14  1  0  0  0  0
  4 15  1  0  0  0  0
  5  8  1  0  0  0  0
  5 16  1  0  0  0  0
  6 12  1  0  0  0  0
  6 17  1  0  0  0  0
  7  8  2  0  0  0  0
  7  9  1  0  0  0  0
  8 10  1  0  0  0  0
  9 11  2  0  0  0  0
  9 18  1  0  0  0  0
 10 12  2  0  0  0  0
 10 19  1  0  0  0  0
 11 12  1  0  0  0  0
 11 20  1  0  0  0  0
M  END
>  <Mol_ID>
7348

>  <Formula>
C8H8O4

>  <MolWeight>
168.14672

>  <Cat>
E4395

>  <Name>
Methyl 2,4-dihydroxybenzoate

>  <Synonyms>
Methyl 2,4-dihydroxybenzoate

>  <Target>
Carbonic Anhydrase

>  <Form>
free base

>  <CAS>
2150-47-2

>  <URL>
https://www.selleckchem.com/products/methyl-2-4-dihydroxybenzoate.html

$$$$
