Methyl benzoin
 OpenBabel08302521373D

 31 32  0  0  0  0  0  0  0  0999 V2000
    0.9769   -0.0063   -0.0286 C   0  0  3  0  0  0  0  0  0  0  0  0
    0.3415   -0.7660    1.1617 C   0  0  0  0  0  0  0  0  0  0  0  0
    0.5812    1.3682   -0.1072 O   0  0  0  0  0  0  0  0  0  0  0  0
   -0.7119   -0.3968    1.6849 O   0  0  0  0  0  0  0  0  0  0  0  0
    1.0328    2.1411    0.9971 C   0  0  0  0  0  0  0  0  0  0  0  0
    0.5729   -0.6410   -1.3513 C   0  0  0  0  0  0  0  0  0  0  0  0
   -0.7822   -0.7110   -1.7195 C   0  0  0  0  0  0  0  0  0  0  0  0
    1.5346   -1.1451   -2.2416 C   0  0  0  0  0  0  0  0  0  0  0  0
   -1.1652   -1.2700   -2.9396 C   0  0  0  0  0  0  0  0  0  0  0  0
    1.1489   -1.7057   -3.4627 C   0  0  0  0  0  0  0  0  0  0  0  0
   -0.1998   -1.7672   -3.8109 C   0  0  0  0  0  0  0  0  0  0  0  0
    1.0264   -1.9719    1.7278 C   0  0  0  0  0  0  0  0  0  0  0  0
    2.2506   -2.4616    1.2568 C   0  0  0  0  0  0  0  0  0  0  0  0
    0.4015   -2.6283    2.8002 C   0  0  0  0  0  0  0  0  0  0  0  0
    2.8276   -3.5937    1.8413 C   0  0  0  0  0  0  0  0  0  0  0  0
    0.9786   -3.7582    3.3800 C   0  0  0  0  0  0  0  0  0  0  0  0
    2.1905   -4.2430    2.8972 C   0  0  0  0  0  0  0  0  0  0  0  0
    2.0678   -0.0111    0.0711 H   0  0  0  0  0  0  0  0  0  0  0  0
    0.5910    1.7938    1.9352 H   0  0  0  0  0  0  0  0  0  0  0  0
    2.1242    2.1128    1.0666 H   0  0  0  0  0  0  0  0  0  0  0  0
    0.7202    3.1765    0.8403 H   0  0  0  0  0  0  0  0  0  0  0  0
   -1.5464   -0.3085   -1.0555 H   0  0  0  0  0  0  0  0  0  0  0  0
    2.5938   -1.0952   -2.0021 H   0  0  0  0  0  0  0  0  0  0  0  0
   -2.2171   -1.3056   -3.2108 H   0  0  0  0  0  0  0  0  0  0  0  0
    1.8993   -2.0899   -4.1479 H   0  0  0  0  0  0  0  0  0  0  0  0
   -0.4988   -2.1908   -4.7659 H   0  0  0  0  0  0  0  0  0  0  0  0
    2.7866   -1.9951    0.4382 H   0  0  0  0  0  0  0  0  0  0  0  0
   -0.5458   -2.2605    3.1931 H   0  0  0  0  0  0  0  0  0  0  0  0
    3.7764   -3.9738    1.4693 H   0  0  0  0  0  0  0  0  0  0  0  0
    0.4785   -4.2584    4.2056 H   0  0  0  0  0  0  0  0  0  0  0  0
    2.6370   -5.1286    3.3426 H   0  0  0  0  0  0  0  0  0  0  0  0
  1  2  1  0  0  0  0
  1  3  1  0  0  0  0
  1  6  1  0  0  0  0
  1 18  1  0  0  0  0
  2  4  2  0  0  0  0
  2 12  1  0  0  0  0
  3  5  1  0  0  0  0
  5 19  1  0  0  0  0
  5 20  1  0  0  0  0
  5 21  1  0  0  0  0
  6  7  2  0  0  0  0
  6  8  1  0  0  0  0
  7  9  1  0  0  0  0
  7 22  1  0  0  0  0
  8 10  2  0  0  0  0
  8 23  1  0  0  0  0
  9 11  2  0  0  0  0
  9 24  1  0  0  0  0
 10 11  1  0  0  0  0
 10 25  1  0  0  0  0
 11 26  1  0  0  0  0
 12 13  2  0  0  0  0
 12 14  1  0  0  0  0
 13 15  1  0  0  0  0
 13 27  1  0  0  0  0
 14 16  2  0  0  0  0
 14 28  1  0  0  0  0
 15 17  2  0  0  0  0
 15 29  1  0  0  0  0
 16 17  1  0  0  0  0
 16 30  1  0  0  0  0
 17 31  1  0  0  0  0
M  END
>  <Mol_ID>
7344

>  <Formula>
C15H14O2

>  <MolWeight>
226.27046

>  <Cat>
E4391

>  <Name>
Methyl benzoin

>  <Synonyms>
Methyl benzoin

>  <Target>
Others

>  <Form>
free base

>  <CAS>
3524-62-7

>  <URL>
https://www.selleckchem.com/products/methyl-benzoin.html

$$$$
