Methylsticin
 OpenBabel08302521463D

 34 36  0  0  1  0  0  0  0  0999 V2000
    0.9333    0.0234    0.0919 C   0  0  0  0  0  0  0  0  0  0  0  0
    0.3271   -1.0828    0.5531 C   0  0  0  0  0  0  0  0  0  0  0  0
    1.5130   -4.0679    4.3233 O   0  0  0  0  0  0  0  0  0  0  0  0
    0.6955   -3.4104    5.2878 C   0  0  0  0  0  0  0  0  0  0  0  0
    1.1421   -5.5908   -0.0884 O   0  0  0  0  0  0  0  0  0  0  0  0
   -1.7117    2.6037   -0.5572 C   0  0  0  0  0  0  0  0  0  0  0  0
   -1.1160    3.3436   -1.5486 C   0  0  0  0  0  0  0  0  0  0  0  0
   -1.0811    1.5215    0.0183 C   0  0  0  0  0  0  0  0  0  0  0  0
   -2.9517    3.0576   -0.2392 O   0  0  0  0  0  0  0  0  0  0  0  0
    0.1485    3.0567   -2.0091 C   0  0  0  0  0  0  0  0  0  0  0  0
   -1.9145    4.3537   -1.9900 O   0  0  0  0  0  0  0  0  0  0  0  0
    0.1986    1.1754   -0.4443 C   0  0  0  0  0  0  0  0  0  0  0  0
   -3.0496    4.2013   -1.1135 C   0  0  0  0  0  0  0  0  0  0  0  0
    0.8147    1.9660   -1.4396 C   0  0  0  0  0  0  0  0  0  0  0  0
    1.0556   -2.2775    1.0974 C   0  0  1  0  0  0  0  0  0  0  0  0
    0.6537   -2.5169    2.5538 C   0  0  0  0  0  0  0  0  0  0  0  0
    0.7065   -3.4004    0.2737 O   0  0  0  0  0  0  0  0  0  0  0  0
    1.2033   -3.8402    2.9950 C   0  0  0  0  0  0  0  0  0  0  0  0
    1.1109   -4.6337    0.6699 C   0  0  0  0  0  0  0  0  0  0  0  0
    1.4614   -4.7926    2.0926 C   0  0  0  0  0  0  0  0  0  0  0  0
    2.0184    0.0865    0.0635 H   0  0  0  0  0  0  0  0  0  0  0  0
   -0.7563   -1.1632    0.5424 H   0  0  0  0  0  0  0  0  0  0  0  0
    0.8827   -2.3329    5.2878 H   0  0  0  0  0  0  0  0  0  0  0  0
   -0.3673   -3.6209    5.1261 H   0  0  0  0  0  0  0  0  0  0  0  0
    0.9712   -3.7926    6.2763 H   0  0  0  0  0  0  0  0  0  0  0  0
   -1.5801    0.9643    0.8029 H   0  0  0  0  0  0  0  0  0  0  0  0
    0.6097    3.6508   -2.7877 H   0  0  0  0  0  0  0  0  0  0  0  0
   -3.9564    4.1044   -1.7208 H   0  0  0  0  0  0  0  0  0  0  0  0
   -3.1324    5.1037   -0.4965 H   0  0  0  0  0  0  0  0  0  0  0  0
    1.8155    1.7212   -1.7909 H   0  0  0  0  0  0  0  0  0  0  0  0
    2.1401   -2.1252    1.0130 H   0  0  0  0  0  0  0  0  0  0  0  0
    1.0391   -1.6897    3.1597 H   0  0  0  0  0  0  0  0  0  0  0  0
   -0.4376   -2.5451    2.6644 H   0  0  0  0  0  0  0  0  0  0  0  0
    1.8694   -5.7547    2.3745 H   0  0  0  0  0  0  0  0  0  0  0  0
  1  2  2  0  0  0  0
  1 12  1  0  0  0  0
  1 21  1  0  0  0  0
  2 22  1  0  0  0  0
  3  4  1  0  0  0  0
  3 18  1  0  0  0  0
  4 23  1  0  0  0  0
  4 24  1  0  0  0  0
  4 25  1  0  0  0  0
  5 19  2  0  0  0  0
  6  7  1  0  0  0  0
  6  8  2  0  0  0  0
  6  9  1  0  0  0  0
  7 10  2  0  0  0  0
  7 11  1  0  0  0  0
  8 12  1  0  0  0  0
  8 26  1  0  0  0  0
  9 13  1  0  0  0  0
 10 14  1  0  0  0  0
 10 27  1  0  0  0  0
 11 13  1  0  0  0  0
 12 14  2  0  0  0  0
 13 28  1  0  0  0  0
 13 29  1  0  0  0  0
 14 30  1  0  0  0  0
 15  2  1  0  0  0  0
 15 16  1  0  0  0  0
 15 17  1  0  0  0  0
 15 31  1  6  0  0  0
 16 18  1  0  0  0  0
 16 32  1  0  0  0  0
 16 33  1  0  0  0  0
 17 19  1  0  0  0  0
 18 20  2  0  0  0  0
 19 20  1  0  0  0  0
 20 34  1  0  0  0  0
M  END
>  <Mol_ID>
9747

>  <Formula>
C15H14O5

>  <MolWeight>
274.26866

>  <Cat>
E2220

>  <Name>
Methylsticin

>  <Synonyms>
Methysticin

>  <Target>
Others

>  <Form>
free base

>  <CAS>
495-85-2

>  <URL>
https://www.selleckchem.com/products/methylsticin.html

$$$$
