Methyl p-tert-butylphenylacetate
 OpenBabel08302520383D

 33 33  0  0  0  0  0  0  0  0999 V2000
    1.3375   -0.2791    0.0948 C   0  0  0  0  0  0  0  0  0  0  0  0
    2.8530   -0.5275    0.1885 C   0  0  0  0  0  0  0  0  0  0  0  0
    0.4029   -1.3257    0.0383 C   0  0  0  0  0  0  0  0  0  0  0  0
    0.8297    1.0340    0.0698 C   0  0  0  0  0  0  0  0  0  0  0  0
    3.2306   -2.0260    0.2488 C   0  0  0  0  0  0  0  0  0  0  0  0
    3.5611    0.0739   -1.0442 C   0  0  0  0  0  0  0  0  0  0  0  0
    3.4191    0.1326    1.4647 C   0  0  0  0  0  0  0  0  0  0  0  0
   -0.9718   -1.0762   -0.0335 C   0  0  0  0  0  0  0  0  0  0  0  0
   -0.5479    1.2879    0.0004 C   0  0  0  0  0  0  0  0  0  0  0  0
   -1.4603    0.2329   -0.0550 C   0  0  0  0  0  0  0  0  0  0  0  0
   -2.9447    0.4920   -0.1086 C   0  0  0  0  0  0  0  0  0  0  0  0
   -3.5881    0.6263    1.2509 C   0  0  0  0  0  0  0  0  0  0  0  0
   -3.5095   -0.5419    1.9498 O   0  0  0  0  0  0  0  0  0  0  0  0
   -4.1475    1.6424    1.6457 O   0  0  0  0  0  0  0  0  0  0  0  0
   -4.1083   -0.4898    3.2450 C   0  0  0  0  0  0  0  0  0  0  0  0
    0.7155   -2.3660    0.0518 H   0  0  0  0  0  0  0  0  0  0  0  0
    1.5029    1.8874    0.1076 H   0  0  0  0  0  0  0  0  0  0  0  0
    2.9090   -2.5594   -0.6535 H   0  0  0  0  0  0  0  0  0  0  0  0
    4.3155   -2.1597    0.3321 H   0  0  0  0  0  0  0  0  0  0  0  0
    2.7774   -2.5202    1.1165 H   0  0  0  0  0  0  0  0  0  0  0  0
    3.3993    1.1538   -1.1294 H   0  0  0  0  0  0  0  0  0  0  0  0
    4.6449   -0.0855   -0.9920 H   0  0  0  0  0  0  0  0  0  0  0  0
    3.2016   -0.3876   -1.9713 H   0  0  0  0  0  0  0  0  0  0  0  0
    3.2771    1.2186    1.4691 H   0  0  0  0  0  0  0  0  0  0  0  0
    2.9365   -0.2677    2.3640 H   0  0  0  0  0  0  0  0  0  0  0  0
    4.4967   -0.0487    1.5569 H   0  0  0  0  0  0  0  0  0  0  0  0
   -1.6582   -1.9196   -0.0633 H   0  0  0  0  0  0  0  0  0  0  0  0
   -0.8938    2.3191   -0.0088 H   0  0  0  0  0  0  0  0  0  0  0  0
   -3.1365    1.4129   -0.6729 H   0  0  0  0  0  0  0  0  0  0  0  0
   -3.4600   -0.3041   -0.6598 H   0  0  0  0  0  0  0  0  0  0  0  0
   -3.6587    0.3039    3.8499 H   0  0  0  0  0  0  0  0  0  0  0  0
   -5.1895   -0.3460    3.1567 H   0  0  0  0  0  0  0  0  0  0  0  0
   -3.9255   -1.4469    3.7416 H   0  0  0  0  0  0  0  0  0  0  0  0
  1  2  1  0  0  0  0
  1  3  2  0  0  0  0
  1  4  1  0  0  0  0
  2  5  1  0  0  0  0
  2  6  1  0  0  0  0
  2  7  1  0  0  0  0
  3  8  1  0  0  0  0
  3 16  1  0  0  0  0
  4  9  2  0  0  0  0
  4 17  1  0  0  0  0
  5 18  1  0  0  0  0
  5 19  1  0  0  0  0
  5 20  1  0  0  0  0
  6 21  1  0  0  0  0
  6 22  1  0  0  0  0
  6 23  1  0  0  0  0
  7 24  1  0  0  0  0
  7 25  1  0  0  0  0
  7 26  1  0  0  0  0
  8 10  2  0  0  0  0
  8 27  1  0  0  0  0
  9 10  1  0  0  0  0
  9 28  1  0  0  0  0
 10 11  1  0  0  0  0
 11 12  1  0  0  0  0
 11 29  1  0  0  0  0
 11 30  1  0  0  0  0
 12 13  1  0  0  0  0
 12 14  2  0  0  0  0
 13 15  1  0  0  0  0
 15 31  1  0  0  0  0
 15 32  1  0  0  0  0
 15 33  1  0  0  0  0
M  END
>  <Mol_ID>
3523

>  <Formula>
C13H18O2

>  <MolWeight>
206.28082

>  <Cat>
S6037

>  <Name>
Methyl p-tert-butylphenylacetate

>  <Synonyms>
N/A

>  <Target>
Others

>  <Form>
free base

>  <CAS>
3549-23-3

>  <URL>
http://www.selleck.cn/products/methyl-p-tert-butylphenylacetate.html

$$$$
