Methyl cinnamate
 OpenBabel08302520383D

 22 22  0  0  0  0  0  0  0  0999 V2000
    1.3951   -0.1620    0.0475 C   0  0  0  0  0  0  0  0  0  0  0  0
    2.8408   -0.4157    0.1671 C   0  0  0  0  0  0  0  0  0  0  0  0
    0.6036   -1.1136   -0.6144 C   0  0  0  0  0  0  0  0  0  0  0  0
    0.7624    0.9404    0.6377 C   0  0  0  0  0  0  0  0  0  0  0  0
    3.7959    0.5256    0.2406 C   0  0  0  0  0  0  0  0  0  0  0  0
   -0.7827   -0.9618   -0.6949 C   0  0  0  0  0  0  0  0  0  0  0  0
   -0.6257    1.0895    0.5584 C   0  0  0  0  0  0  0  0  0  0  0  0
    5.2431    0.2218    0.3717 C   0  0  0  0  0  0  0  0  0  0  0  0
   -1.3977    0.1386   -0.1057 C   0  0  0  0  0  0  0  0  0  0  0  0
    5.4659   -1.1145    0.4153 O   0  0  0  0  0  0  0  0  0  0  0  0
    6.0920    1.0971    0.4352 O   0  0  0  0  0  0  0  0  0  0  0  0
    6.8376   -1.4929    0.5521 C   0  0  0  0  0  0  0  0  0  0  0  0
    3.1123   -1.4698    0.1878 H   0  0  0  0  0  0  0  0  0  0  0  0
    1.0619   -1.9855   -1.0756 H   0  0  0  0  0  0  0  0  0  0  0  0
    1.3344    1.6854    1.1844 H   0  0  0  0  0  0  0  0  0  0  0  0
    3.5717    1.5823    0.2020 H   0  0  0  0  0  0  0  0  0  0  0  0
   -1.3803   -1.7083   -1.2114 H   0  0  0  0  0  0  0  0  0  0  0  0
   -1.1068    1.9452    1.0266 H   0  0  0  0  0  0  0  0  0  0  0  0
   -2.4777    0.2518   -0.1584 H   0  0  0  0  0  0  0  0  0  0  0  0
    7.4265   -1.1291   -0.2944 H   0  0  0  0  0  0  0  0  0  0  0  0
    7.2455   -1.1284    1.4990 H   0  0  0  0  0  0  0  0  0  0  0  0
    6.8818   -2.5872    0.5570 H   0  0  0  0  0  0  0  0  0  0  0  0
  1  2  1  0  0  0  0
  1  3  2  0  0  0  0
  1  4  1  0  0  0  0
  2  5  2  0  0  0  0
  2 13  1  0  0  0  0
  3  6  1  0  0  0  0
  3 14  1  0  0  0  0
  4  7  2  0  0  0  0
  4 15  1  0  0  0  0
  5  8  1  0  0  0  0
  5 16  1  0  0  0  0
  6  9  2  0  0  0  0
  6 17  1  0  0  0  0
  7  9  1  0  0  0  0
  7 18  1  0  0  0  0
  8 10  1  0  0  0  0
  8 11  2  0  0  0  0
  9 19  1  0  0  0  0
 10 12  1  0  0  0  0
 12 20  1  0  0  0  0
 12 21  1  0  0  0  0
 12 22  1  0  0  0  0
M  END
>  <Mol_ID>
3498

>  <Formula>
C10H10O2

>  <MolWeight>
162.1852

>  <Cat>
S6221

>  <Name>
Methyl cinnamate

>  <Synonyms>
N/A

>  <Target>
AMPK,CaMK,Tyrosinase

>  <Form>
free base

>  <CAS>
103-26-4

>  <URL>
http://www.selleck.cn/products/methyl-cinnamate.html

$$$$
