METHOCARBAMOL (methocarbamol).cdx
 OpenBabel08302521043D

 32 32  0  0  0  0  0  0  0  0999 V2000
    1.3789   -0.4609   -0.4359 C   0  0  0  0  0  0  0  0  0  0  0  0
    0.6131   -1.4988    0.0977 C   0  0  0  0  0  0  0  0  0  0  0  0
   -0.6556   -1.2366    0.6017 C   0  0  0  0  0  0  0  0  0  0  0  0
   -1.1680    0.0623    0.5665 C   0  0  0  0  0  0  0  0  0  0  0  0
   -0.4182    1.1113    0.0180 C   0  0  0  0  0  0  0  0  0  0  0  0
    0.8755    0.8467   -0.4793 C   0  0  0  0  0  0  0  0  0  0  0  0
    1.5622    1.9208   -0.9921 O   0  0  0  0  0  0  0  0  0  0  0  0
    2.8832    1.6861   -1.4624 C   0  0  0  0  0  0  0  0  0  0  0  0
   -0.8577    2.4141   -0.0710 O   0  0  0  0  0  0  0  0  0  0  0  0
   -2.2223    2.6670    0.2873 C   0  0  0  0  0  0  0  0  0  0  0  0
   -2.5788    4.1179   -0.0711 C   0  0  3  0  0  0  0  0  0  0  0  0
   -2.4195    4.3022   -1.4873 O   0  0  0  0  0  0  0  0  0  0  0  0
   -4.0358    4.4110    0.3137 C   0  0  0  0  0  0  0  0  0  0  0  0
   -4.4218    5.7591   -0.0093 O   0  0  0  0  0  0  0  0  0  0  0  0
   -4.0778    6.6976    0.8956 C   0  0  0  0  0  0  0  0  0  0  0  0
   -4.5383    7.9041    0.5010 N   0  0  0  0  0  0  0  0  0  0  0  0
   -3.4591    6.5105    1.9321 O   0  0  0  0  0  0  0  0  0  0  0  0
    2.3653   -0.7086   -0.8135 H   0  0  0  0  0  0  0  0  0  0  0  0
    1.0098   -2.5109    0.1207 H   0  0  0  0  0  0  0  0  0  0  0  0
   -1.2496   -2.0438    1.0232 H   0  0  0  0  0  0  0  0  0  0  0  0
   -2.1589    0.2195    0.9786 H   0  0  0  0  0  0  0  0  0  0  0  0
    3.5362    1.3381   -0.6530 H   0  0  0  0  0  0  0  0  0  0  0  0
    2.8858    0.9822   -2.3011 H   0  0  0  0  0  0  0  0  0  0  0  0
    3.2846    2.6356   -1.8266 H   0  0  0  0  0  0  0  0  0  0  0  0
   -2.8772    1.9950   -0.2813 H   0  0  0  0  0  0  0  0  0  0  0  0
   -2.3524    2.5112    1.3644 H   0  0  0  0  0  0  0  0  0  0  0  0
   -1.8916    4.8201    0.4121 H   0  0  0  0  0  0  0  0  0  0  0  0
   -1.4964    4.0489   -1.6828 H   0  0  0  0  0  0  0  0  0  0  0  0
   -4.7100    3.7647   -0.2590 H   0  0  0  0  0  0  0  0  0  0  0  0
   -4.2195    4.2084    1.3763 H   0  0  0  0  0  0  0  0  0  0  0  0
   -4.3535    8.7158    1.0689 H   0  0  0  0  0  0  0  0  0  0  0  0
   -5.0237    7.9863   -0.3785 H   0  0  0  0  0  0  0  0  0  0  0  0
  1  2  2  0  0  0  0
  1 18  1  0  0  0  0
  2  3  1  0  0  0  0
  2 19  1  0  0  0  0
  3  4  2  0  0  0  0
  3 20  1  0  0  0  0
  4  5  1  0  0  0  0
  4 21  1  0  0  0  0
  5  6  2  0  0  0  0
  5  9  1  0  0  0  0
  6  1  1  0  0  0  0
  6  7  1  0  0  0  0
  7  8  1  0  0  0  0
  8 22  1  0  0  0  0
  8 23  1  0  0  0  0
  8 24  1  0  0  0  0
  9 10  1  0  0  0  0
 10 11  1  0  0  0  0
 10 25  1  0  0  0  0
 10 26  1  0  0  0  0
 11 12  1  0  0  0  0
 11 13  1  0  0  0  0
 11 27  1  0  0  0  0
 12 28  1  0  0  0  0
 13 14  1  0  0  0  0
 13 29  1  0  0  0  0
 13 30  1  0  0  0  0
 14 15  1  0  0  0  0
 15 16  1  0  0  0  0
 15 17  2  0  0  0  0
 16 31  1  0  0  0  0
 16 32  1  0  0  0  0
M  END
>  <Mol_ID>
420

>  <Formula>
C11H15NO5

>  <MolWeight>
241.2405

>  <Cat>
S1736

>  <Name>
Methocarbamol

>  <Synonyms>
AHR 85

>  <Target>
Carbonic Anhydrase

>  <Form>
free base

>  <CAS>
532-03-6

>  <URL>
http://selleckchem.com/products/Methocarbamol(Robaxin).html

$$$$
