Methylprednisolone sodium succinate
 OpenBabel08302521322D

 67 70  0  0  0  0  0  0  0  0999 V2000
    6.0719    3.5515    0.0000 C   0  0  1  0  0  0  0  0  0  0  0  0
    7.2955    4.2431    0.0000 C   0  0  1  0  0  0  0  0  0  0  0  0
    4.8680    4.2166    0.0000 C   0  0  3  0  0  0  0  0  0  0  0  0
    6.0719    2.1085    0.0000 C   0  0  0  0  0  0  0  0  0  0  0  0
    7.2955    5.6464    0.0000 C   0  0  3  0  0  0  0  0  0  0  0  0
    8.6657    3.8574    0.0000 C   0  0  0  0  0  0  0  0  0  0  0  0
    3.6709    3.5316    0.0000 C   0  0  3  0  0  0  0  0  0  0  0  0
    4.8680    5.6464    0.0000 C   0  0  3  0  0  0  0  0  0  0  0  0
    4.9081    1.4167    0.0000 C   0  0  3  0  0  0  0  0  0  0  0  0
    8.6323    6.0853    0.0000 C   0  0  3  0  0  0  0  0  0  0  0  0
    6.0587    6.3779    0.0000 C   0  0  0  0  0  0  0  0  0  0  0  0
    9.4303    4.9615    0.0000 C   0  0  0  0  0  0  0  0  0  0  0  0
    3.6909    2.1085    0.0000 C   0  0  0  0  0  0  0  0  0  0  0  0
    2.4339    4.1834    0.0000 C   0  0  0  0  0  0  0  0  0  0  0  0
    3.6577    4.9082    0.0000 C   0  0  0  0  0  0  0  0  0  0  0  0
    3.6577    6.3779    0.0000 O   0  0  0  0  0  0  0  0  0  0  0  0
    4.9678    0.0000    0.0000 C   0  0  0  0  0  0  0  0  0  0  0  0
    8.3598    7.4886    0.0000 C   0  0  0  0  0  0  0  0  0  0  0  0
    9.8162    6.9234    0.0000 O   0  0  0  0  0  0  0  0  0  0  0  0
    2.4672    1.3834    0.0000 C   0  0  0  0  0  0  0  0  0  0  0  0
    1.2370    3.4917    0.0000 C   0  0  0  0  0  0  0  0  0  0  0  0
    9.4303    8.3998    0.0000 C   0  0  0  0  0  0  0  0  0  0  0  0
    7.0561    7.9208    0.0000 O   0  0  0  0  0  0  0  0  0  0  0  0
    1.2568    2.1085    0.0000 C   0  0  0  0  0  0  0  0  0  0  0  0
   10.7606    7.9608    0.0000 O   0  0  0  0  0  0  0  0  0  0  0  0
    0.0000    1.4033    0.0000 O   0  0  0  0  0  0  0  0  0  0  0  0
   11.8047    8.8919    0.0000 C   0  0  0  0  0  0  0  0  0  0  0  0
   13.0883    8.4529    0.0000 C   0  0  0  0  0  0  0  0  0  0  0  0
   11.5252   10.2421    0.0000 O   0  0  0  0  0  0  0  0  0  0  0  0
   14.1324    9.3641    0.0000 C   0  0  0  0  0  0  0  0  0  0  0  0
   15.4359    8.9251    0.0000 C   0  0  0  0  0  0  0  0  0  0  0  0
   15.7162    7.5681    0.0000 O   0  0  0  0  0  0  0  0  0  0  0  0
   16.4444    9.8460    0.0000 O   0  5  0  0  0  0  0  0  0  0  0  0
    7.2840    7.0573    0.0000 C   0  0  0  0  0  0  0  0  0  0  0  0
    6.9961    3.0123    0.0000 H   0  0  0  0  0  0  0  0  0  0  0  0
    7.4236    3.1808    0.0000 H   0  0  0  0  0  0  0  0  0  0  0  0
    4.8760    3.1466    0.0000 H   0  0  0  0  0  0  0  0  0  0  0  0
    7.0019    1.5794    0.0000 H   0  0  0  0  0  0  0  0  0  0  0  0
    6.0821    1.0385    0.0000 H   0  0  0  0  0  0  0  0  0  0  0  0
    9.0279    2.8506    0.0000 H   0  0  0  0  0  0  0  0  0  0  0  0
    9.7266    3.7185    0.0000 H   0  0  0  0  0  0  0  0  0  0  0  0
    3.9360    5.1207    0.0000 H   0  0  0  0  0  0  0  0  0  0  0  0
    5.8491    0.9073    0.0000 H   0  0  0  0  0  0  0  0  0  0  0  0
    6.0497    7.4479    0.0000 H   0  0  0  0  0  0  0  0  0  0  0  0
    5.1227    6.8963    0.0000 H   0  0  0  0  0  0  0  0  0  0  0  0
   10.5003    4.9678    0.0000 H   0  0  0  0  0  0  0  0  0  0  0  0
    9.9184    5.9137    0.0000 H   0  0  0  0  0  0  0  0  0  0  0  0
    2.4137    5.2152    0.0000 H   0  0  0  0  0  0  0  0  0  0  0  0
    4.5792    5.4521    0.0000 H   0  0  0  0  0  0  0  0  0  0  0  0
    2.7260    5.4343    0.0000 H   0  0  0  0  0  0  0  0  0  0  0  0
    3.6474    5.9782    0.0000 H   0  0  0  0  0  0  0  0  0  0  0  0
    3.6771    7.3477    0.0000 H   0  0  0  0  0  0  0  0  0  0  0  0
    4.0645   -0.5735    0.0000 H   0  0  0  0  0  0  0  0  0  0  0  0
    5.9162   -0.4955    0.0000 H   0  0  0  0  0  0  0  0  0  0  0  0
    5.0129   -1.0691    0.0000 H   0  0  0  0  0  0  0  0  0  0  0  0
   10.6974    6.5180    0.0000 H   0  0  0  0  0  0  0  0  0  0  0  0
    2.4647    0.3514    0.0000 H   0  0  0  0  0  0  0  0  0  0  0  0
    0.3395    4.0011    0.0000 H   0  0  0  0  0  0  0  0  0  0  0  0
    9.2248    9.4499    0.0000 H   0  0  0  0  0  0  0  0  0  0  0  0
   10.2329    9.1075    0.0000 H   0  0  0  0  0  0  0  0  0  0  0  0
   13.2946    7.4030    0.0000 H   0  0  0  0  0  0  0  0  0  0  0  0
   14.1007    8.1065    0.0000 H   0  0  0  0  0  0  0  0  0  0  0  0
   13.9237   10.4135    0.0000 H   0  0  0  0  0  0  0  0  0  0  0  0
   14.9360   10.0706    0.0000 H   0  0  0  0  0  0  0  0  0  0  0  0
    8.2063    7.5998    0.0000 H   0  0  0  0  0  0  0  0  0  0  0  0
    6.3530    7.5847    0.0000 H   0  0  0  0  0  0  0  0  0  0  0  0
    7.2753    8.1273    0.0000 H   0  0  0  0  0  0  0  0  0  0  0  0
  1  2  1  0  0  0  0
  1  3  1  0  0  0  0
  1  4  1  0  0  0  0
  1 35  1  1  0  0  0
  2  5  1  0  0  0  0
  2  6  1  0  0  0  0
  2 36  1  6  0  0  0
  3  7  1  0  0  0  0
  3  8  1  0  0  0  0
  3 37  1  0  0  0  0
  4  9  1  0  0  0  0
  4 38  1  0  0  0  0
  4 39  1  0  0  0  0
  5 10  1  0  0  0  0
  5 11  1  0  0  0  0
  5 34  1  0  0  0  0
  6 12  1  0  0  0  0
  6 40  1  0  0  0  0
  6 41  1  0  0  0  0
  7 13  1  0  0  0  0
  7 14  1  0  0  0  0
  7 15  1  0  0  0  0
  8 16  1  0  0  0  0
  8 11  1  0  0  0  0
  8 42  1  0  0  0  0
  9 17  1  0  0  0  0
  9 13  1  0  0  0  0
  9 43  1  0  0  0  0
 10 18  1  0  0  0  0
 10 19  1  0  0  0  0
 10 12  1  0  0  0  0
 11 44  1  0  0  0  0
 11 45  1  0  0  0  0
 12 46  1  0  0  0  0
 12 47  1  0  0  0  0
 13 20  2  0  0  0  0
 14 21  2  0  0  0  0
 14 48  1  0  0  0  0
 15 49  1  0  0  0  0
 15 50  1  0  0  0  0
 15 51  1  0  0  0  0
 16 52  1  0  0  0  0
 17 53  1  0  0  0  0
 17 54  1  0  0  0  0
 17 55  1  0  0  0  0
 18 22  1  0  0  0  0
 18 23  2  0  0  0  0
 19 56  1  0  0  0  0
 20 24  1  0  0  0  0
 20 57  1  0  0  0  0
 21 24  1  0  0  0  0
 21 58  1  0  0  0  0
 22 25  1  0  0  0  0
 22 59  1  0  0  0  0
 22 60  1  0  0  0  0
 24 26  2  0  0  0  0
 25 27  1  0  0  0  0
 27 28  1  0  0  0  0
 27 29  2  0  0  0  0
 28 30  1  0  0  0  0
 28 61  1  0  0  0  0
 28 62  1  0  0  0  0
 30 31  1  0  0  0  0
 30 63  1  0  0  0  0
 30 64  1  0  0  0  0
 31 32  2  0  0  0  0
 31 33  1  0  0  0  0
 34 65  1  0  0  0  0
 34 66  1  0  0  0  0
 34 67  1  0  0  0  0
M  CHG  1  33  -1
M  END
>  <Mol_ID>
4734

>  <Formula>
C26H33NaO8

>  <MolWeight>
496.52519

>  <Cat>
S6593

>  <Name>
Methylprednisolone sodium succinate

>  <Synonyms>
U-9088, 6¦Á-Methylprednisolone 21-hemisuccinate Sodium

>  <Target>
Immunology & Inflammation related

>  <Form>
Sodium succinate

>  <CAS>
2375-03-3

>  <URL>
http://www.selleck.cn/products/methylprednisolone-sodium-succinate.html

$$$$
