meticrane.cdx
 OpenBabel08302519573D

 30 31  0  0  0  0  0  0  0  0999 V2000
    2.5508   -0.7248   -0.0264 C   0  0  0  0  0  0  0  0  0  0  0  0
    2.5444    0.6787    0.0278 C   0  0  0  0  0  0  0  0  0  0  0  0
    1.2945    1.3389    0.0382 C   0  0  0  0  0  0  0  0  0  0  0  0
    0.0718    0.6438   -0.0182 C   0  0  0  0  0  0  0  0  0  0  0  0
    0.1251   -0.7507   -0.0759 C   0  0  0  0  0  0  0  0  0  0  0  0
    1.3434   -1.4333   -0.0767 C   0  0  0  0  0  0  0  0  0  0  0  0
   -1.2090    1.4400    0.0556 C   0  0  0  0  0  0  0  0  0  0  0  0
   -2.4780    0.7014   -0.3671 C   0  0  0  0  0  0  0  0  0  0  0  0
   -2.6223   -0.6089    0.3818 C   0  0  0  0  0  0  0  0  0  0  0  0
   -1.3437   -1.7359   -0.1151 S   0  0  0  0  0  0  0  0  0  0  0  0
   -1.2180   -2.7388    0.9193 O   0  0  0  0  0  0  0  0  0  0  0  0
   -1.5624   -2.0939   -1.5048 O   0  0  0  0  0  0  0  0  0  0  0  0
    3.7730    1.5447    0.0789 C   0  0  0  0  0  0  0  0  0  0  0  0
    4.0410   -1.6955   -0.0708 S   0  0  0  0  0  0  0  0  0  0  0  0
    4.7960   -1.1651   -1.4737 N   0  0  0  0  0  0  0  0  0  0  0  0
    4.8778   -1.3251    1.0415 O   0  0  0  0  0  0  0  0  0  0  0  0
    3.7030   -3.0717   -0.3564 O   0  0  0  0  0  0  0  0  0  0  0  0
    1.2798    2.4298    0.0952 H   0  0  0  0  0  0  0  0  0  0  0  0
    1.3414   -2.5239   -0.1164 H   0  0  0  0  0  0  0  0  0  0  0  0
   -1.1144    2.3320   -0.5767 H   0  0  0  0  0  0  0  0  0  0  0  0
   -1.3279    1.7874    1.0901 H   0  0  0  0  0  0  0  0  0  0  0  0
   -2.4577    0.5188   -1.4485 H   0  0  0  0  0  0  0  0  0  0  0  0
   -3.3468    1.3357   -0.1644 H   0  0  0  0  0  0  0  0  0  0  0  0
   -2.5427   -0.4655    1.4642 H   0  0  0  0  0  0  0  0  0  0  0  0
   -3.5811   -1.0900    0.1638 H   0  0  0  0  0  0  0  0  0  0  0  0
    3.7799    2.2261   -0.7791 H   0  0  0  0  0  0  0  0  0  0  0  0
    3.7700    2.1372    1.0001 H   0  0  0  0  0  0  0  0  0  0  0  0
    4.7114    0.9921    0.0554 H   0  0  0  0  0  0  0  0  0  0  0  0
    5.8056   -1.2299   -1.3574 H   0  0  0  0  0  0  0  0  0  0  0  0
    4.4459   -1.6752   -2.2792 H   0  0  0  0  0  0  0  0  0  0  0  0
  1  2  2  0  0  0  0
  1 14  1  0  0  0  0
  2  3  1  0  0  0  0
  2 13  1  0  0  0  0
  3  4  2  0  0  0  0
  3 18  1  0  0  0  0
  4  5  1  0  0  0  0
  4  7  1  0  0  0  0
  5  6  2  0  0  0  0
  6  1  1  0  0  0  0
  6 19  1  0  0  0  0
  7  8  1  0  0  0  0
  7 20  1  0  0  0  0
  7 21  1  0  0  0  0
  8  9  1  0  0  0  0
  8 22  1  0  0  0  0
  8 23  1  0  0  0  0
  9 10  1  0  0  0  0
  9 24  1  0  0  0  0
  9 25  1  0  0  0  0
 10  5  1  0  0  0  0
 10 11  2  0  0  0  0
 10 12  2  0  0  0  0
 13 26  1  0  0  0  0
 13 27  1  0  0  0  0
 13 28  1  0  0  0  0
 14 15  1  0  0  0  0
 14 16  2  0  0  0  0
 14 17  2  0  0  0  0
 15 29  1  0  0  0  0
 15 30  1  0  0  0  0
M  END
>  <Mol_ID>
2299

>  <Formula>
C10H13NO4S2

>  <MolWeight>
275.34452

>  <Cat>
S4339

>  <Name>
Meticrane

>  <Synonyms>
N/A

>  <Target>
Chloride Channel,Sodium Channel

>  <Form>
Free Base

>  <CAS>
1084-65-7

>  <URL>
http://www.selleckchem.com/products/meticrane.html

$$$$
