Metipranolol
 OpenBabel08302521323D

 49 49  0  0  0  0  0  0  0  0999 V2000
    0.4561    1.3036    0.6508 C   0  0  0  0  0  0  0  0  0  0  0  0
   -0.8619    0.9736    0.2554 C   0  0  0  0  0  0  0  0  0  0  0  0
   -1.2373   -0.3865    0.1751 C   0  0  0  0  0  0  0  0  0  0  0  0
   -0.2882   -1.3846    0.4663 C   0  0  0  0  0  0  0  0  0  0  0  0
    0.9668   -1.0253    0.9691 C   0  0  0  0  0  0  0  0  0  0  0  0
    1.3496    0.3266    1.0987 C   0  0  0  0  0  0  0  0  0  0  0  0
    2.6929    0.6256    1.6886 C   0  0  0  0  0  0  0  0  0  0  0  0
   -2.6532   -0.7698   -0.1811 C   0  0  0  0  0  0  0  0  0  0  0  0
   -1.8040    2.0915   -0.1230 C   0  0  0  0  0  0  0  0  0  0  0  0
   -0.6213   -2.6604    0.0970 O   0  0  0  0  0  0  0  0  0  0  0  0
   -0.1706   -3.7684    0.8699 C   0  0  0  0  0  0  0  0  0  0  0  0
    0.5853   -4.7940    0.0045 C   0  0  3  0  0  0  0  0  0  0  0  0
    1.9086   -4.2385   -0.5710 C   0  0  0  0  0  0  0  0  0  0  0  0
    2.6151   -5.2790   -1.3294 N   0  0  0  0  0  0  0  0  0  0  0  0
    3.9254   -4.8857   -1.8524 C   0  0  0  0  0  0  0  0  0  0  0  0
    4.9391   -4.5431   -0.7587 C   0  0  0  0  0  0  0  0  0  0  0  0
    4.4568   -6.0432   -2.7050 C   0  0  0  0  0  0  0  0  0  0  0  0
    0.8456   -5.9639    0.8039 O   0  0  0  0  0  0  0  0  0  0  0  0
    1.8970    3.5233    0.4403 C   0  0  0  0  0  0  0  0  0  0  0  0
    1.5274    4.8464   -0.1779 C   0  0  0  0  0  0  0  0  0  0  0  0
    3.0337    3.2359    0.7794 O   0  0  0  0  0  0  0  0  0  0  0  0
    0.7697    2.6998    0.4569 O   0  0  0  0  0  0  0  0  0  0  0  0
    1.6874   -1.7914    1.2358 H   0  0  0  0  0  0  0  0  0  0  0  0
    3.4032    0.9070    0.9079 H   0  0  0  0  0  0  0  0  0  0  0  0
    2.6060    1.4111    2.4471 H   0  0  0  0  0  0  0  0  0  0  0  0
    3.1076   -0.2480    2.2028 H   0  0  0  0  0  0  0  0  0  0  0  0
   -3.3345   -0.3941    0.5913 H   0  0  0  0  0  0  0  0  0  0  0  0
   -2.9349   -0.3563   -1.1534 H   0  0  0  0  0  0  0  0  0  0  0  0
   -2.8072   -1.8518   -0.2302 H   0  0  0  0  0  0  0  0  0  0  0  0
   -1.7952    2.8700    0.6489 H   0  0  0  0  0  0  0  0  0  0  0  0
   -1.4984    2.5309   -1.0780 H   0  0  0  0  0  0  0  0  0  0  0  0
   -2.8425    1.7672   -0.2177 H   0  0  0  0  0  0  0  0  0  0  0  0
    0.3995   -3.4940    1.7639 H   0  0  0  0  0  0  0  0  0  0  0  0
   -1.0742   -4.2625    1.2509 H   0  0  0  0  0  0  0  0  0  0  0  0
   -0.0570   -5.1057   -0.8286 H   0  0  0  0  0  0  0  0  0  0  0  0
    1.7086   -3.3786   -1.2177 H   0  0  0  0  0  0  0  0  0  0  0  0
    2.5306   -3.9104    0.2690 H   0  0  0  0  0  0  0  0  0  0  0  0
    2.6698   -6.1465   -0.7964 H   0  0  0  0  0  0  0  0  0  0  0  0
    3.8078   -4.0154   -2.5096 H   0  0  0  0  0  0  0  0  0  0  0  0
    4.9979   -5.3317   -0.0011 H   0  0  0  0  0  0  0  0  0  0  0  0
    5.9406   -4.4123   -1.1841 H   0  0  0  0  0  0  0  0  0  0  0  0
    4.6817   -3.6040   -0.2586 H   0  0  0  0  0  0  0  0  0  0  0  0
    3.8304   -6.1949   -3.5910 H   0  0  0  0  0  0  0  0  0  0  0  0
    5.4762   -5.8416   -3.0523 H   0  0  0  0  0  0  0  0  0  0  0  0
    4.4800   -6.9842   -2.1423 H   0  0  0  0  0  0  0  0  0  0  0  0
    1.7449   -5.8867    1.1633 H   0  0  0  0  0  0  0  0  0  0  0  0
    2.1960    5.6259    0.1970 H   0  0  0  0  0  0  0  0  0  0  0  0
    1.6283    4.7741   -1.2660 H   0  0  0  0  0  0  0  0  0  0  0  0
    0.5051    5.1213    0.0849 H   0  0  0  0  0  0  0  0  0  0  0  0
  1  2  2  0  0  0  0
  1  6  1  0  0  0  0
  1 22  1  0  0  0  0
  2  3  1  0  0  0  0
  2  9  1  0  0  0  0
  3  4  2  0  0  0  0
  3  8  1  0  0  0  0
  4  5  1  0  0  0  0
  4 10  1  0  0  0  0
  5  6  2  0  0  0  0
  5 23  1  0  0  0  0
  6  7  1  0  0  0  0
  7 24  1  0  0  0  0
  7 25  1  0  0  0  0
  7 26  1  0  0  0  0
  8 27  1  0  0  0  0
  8 28  1  0  0  0  0
  8 29  1  0  0  0  0
  9 30  1  0  0  0  0
  9 31  1  0  0  0  0
  9 32  1  0  0  0  0
 10 11  1  0  0  0  0
 11 12  1  0  0  0  0
 11 33  1  0  0  0  0
 11 34  1  0  0  0  0
 12 13  1  0  0  0  0
 12 18  1  0  0  0  0
 12 35  1  0  0  0  0
 13 14  1  0  0  0  0
 13 36  1  0  0  0  0
 13 37  1  0  0  0  0
 14 15  1  0  0  0  0
 14 38  1  0  0  0  0
 15 16  1  0  0  0  0
 15 17  1  0  0  0  0
 15 39  1  0  0  0  0
 16 40  1  0  0  0  0
 16 41  1  0  0  0  0
 16 42  1  0  0  0  0
 17 43  1  0  0  0  0
 17 44  1  0  0  0  0
 17 45  1  0  0  0  0
 18 46  1  0  0  0  0
 19 20  1  0  0  0  0
 19 21  2  0  0  0  0
 19 22  1  0  0  0  0
 20 47  1  0  0  0  0
 20 48  1  0  0  0  0
 20 49  1  0  0  0  0
M  END
>  <Mol_ID>
6301

>  <Formula>
C17H27NO4

>  <MolWeight>
309.40058

>  <Cat>
E0529

>  <Name>
Metipranolol

>  <Synonyms>
Betamann

>  <Target>
Adrenergic Receptor

>  <Form>
free base

>  <CAS>
22664-55-7

>  <URL>
http://www.selleckchem.com/products/metipranolol.html

$$$$
