METI-DERM (prednisolone).cdx
 OpenBabel08302522162D

 54 57  0  0  0  0  0  0  0  0999 V2000
    1.2082    2.1000    0.0000 C   0  0  0  0  0  0  0  0  0  0  0  0
    1.2082    0.7000    0.0000 C   0  0  0  0  0  0  0  0  0  0  0  0
    2.4207    0.0000    0.0000 C   0  0  0  0  0  0  0  0  0  0  0  0
    3.6331    0.7000    0.0000 C   0  0  0  0  0  0  0  0  0  0  0  0
    3.6331    2.1000    0.0000 C   0  0  2  0  0  0  0  0  0  0  0  0
    2.4207    2.8000    0.0000 C   0  0  0  0  0  0  0  0  0  0  0  0
    4.8455    0.0000    0.0000 C   0  0  0  0  0  0  0  0  0  0  0  0
    6.0580    0.7000    0.0000 C   0  0  0  0  0  0  0  0  0  0  0  0
    6.0580    2.1000    0.0000 C   0  0  2  0  0  0  0  0  0  0  0  0
    4.8455    2.8000    0.0000 C   0  0  3  0  0  0  0  0  0  0  0  0
    7.2704    2.8000    0.0000 C   0  0  3  0  0  0  0  0  0  0  0  0
    7.2704    4.2000    0.0000 C   0  0  3  0  0  0  0  0  0  0  0  0
    6.0580    4.9000    0.0000 C   0  0  0  0  0  0  0  0  0  0  0  0
    4.8455    4.2000    0.0000 C   0  0  3  0  0  0  0  0  0  0  0  0
    8.6019    2.3674    0.0000 C   0  0  0  0  0  0  0  0  0  0  0  0
    9.4248    3.5000    0.0000 C   0  0  0  0  0  0  0  0  0  0  0  0
    8.6019    4.6326    0.0000 C   0  0  3  0  0  0  0  0  0  0  0  0
    0.0000    0.0024    0.0000 O   0  0  0  0  0  0  0  0  0  0  0  0
    3.6331    3.5000    0.0000 C   0  0  0  0  0  0  0  0  0  0  0  0
    3.6373    4.8976    0.0000 O   0  0  0  0  0  0  0  0  0  0  0  0
    8.6019    6.0326    0.0000 C   0  0  0  0  0  0  0  0  0  0  0  0
    7.3937    6.7302    0.0000 O   0  0  0  0  0  0  0  0  0  0  0  0
    9.8101    6.7302    0.0000 C   0  0  0  0  0  0  0  0  0  0  0  0
   11.0183    6.0326    0.0000 O   0  0  0  0  0  0  0  0  0  0  0  0
    9.9287    5.0637    0.0000 O   0  0  0  0  0  0  0  0  0  0  0  0
    7.2704    5.6000    0.0000 C   0  0  0  0  0  0  0  0  0  0  0  0
    0.3145    2.6160    0.0000 H   0  0  0  0  0  0  0  0  0  0  0  0
    2.4207   -1.0320    0.0000 H   0  0  0  0  0  0  0  0  0  0  0  0
    2.4207    3.8320    0.0000 H   0  0  0  0  0  0  0  0  0  0  0  0
    4.8455   -1.0700    0.0000 H   0  0  0  0  0  0  0  0  0  0  0  0
    5.7721   -0.5350    0.0000 H   0  0  0  0  0  0  0  0  0  0  0  0
    6.9846    0.1650    0.0000 H   0  0  0  0  0  0  0  0  0  0  0  0
    6.9847    1.2350    0.0000 H   0  0  0  0  0  0  0  0  0  0  0  0
    5.1314    1.5650    0.0000 H   0  0  0  0  0  0  0  0  0  0  0  0
    4.8455    1.7300    0.0000 H   0  0  0  0  0  0  0  0  0  0  0  0
    6.3437    3.3350    0.0000 H   0  0  0  0  0  0  0  0  0  0  0  0
    6.0580    5.9700    0.0000 H   0  0  0  0  0  0  0  0  0  0  0  0
    5.1314    5.4350    0.0000 H   0  0  0  0  0  0  0  0  0  0  0  0
    5.7721    3.6650    0.0000 H   0  0  0  0  0  0  0  0  0  0  0  0
    8.9326    1.3498    0.0000 H   0  0  0  0  0  0  0  0  0  0  0  0
    9.6587    2.2000    0.0000 H   0  0  0  0  0  0  0  0  0  0  0  0
   10.4948    3.5000    0.0000 H   0  0  0  0  0  0  0  0  0  0  0  0
    9.9106    4.4534    0.0000 H   0  0  0  0  0  0  0  0  0  0  0  0
    4.5597    4.0350    0.0000 H   0  0  0  0  0  0  0  0  0  0  0  0
    2.7065    4.0350    0.0000 H   0  0  0  0  0  0  0  0  0  0  0  0
    3.6331    4.5700    0.0000 H   0  0  0  0  0  0  0  0  0  0  0  0
    3.6373    5.8676    0.0000 H   0  0  0  0  0  0  0  0  0  0  0  0
    9.8101    7.8002    0.0000 H   0  0  0  0  0  0  0  0  0  0  0  0
   10.7368    7.2652    0.0000 H   0  0  0  0  0  0  0  0  0  0  0  0
   11.0183    5.0626    0.0000 H   0  0  0  0  0  0  0  0  0  0  0  0
   10.6495    4.4146    0.0000 H   0  0  0  0  0  0  0  0  0  0  0  0
    8.1970    6.1350    0.0000 H   0  0  0  0  0  0  0  0  0  0  0  0
    6.3438    6.1350    0.0000 H   0  0  0  0  0  0  0  0  0  0  0  0
    7.2704    6.6700    0.0000 H   0  0  0  0  0  0  0  0  0  0  0  0
  1  2  1  0  0  0  0
  1 27  1  0  0  0  0
  2  3  1  0  0  0  0
  2 18  2  0  0  0  0
  3  4  2  0  0  0  0
  3 28  1  0  0  0  0
  4  5  1  0  0  0  0
  4  7  1  0  0  0  0
  5  6  1  0  0  0  0
  5 19  1  1  0  0  0
  6  1  2  0  0  0  0
  6 29  1  0  0  0  0
  7  8  1  0  0  0  0
  7 30  1  0  0  0  0
  7 31  1  0  0  0  0
  8 32  1  0  0  0  0
  8 33  1  0  0  0  0
  9  8  1  0  0  0  0
  9 10  1  0  0  0  0
  9 11  1  0  0  0  0
  9 34  1  1  0  0  0
 10  5  1  0  0  0  0
 10 14  1  0  0  0  0
 10 35  1  0  0  0  0
 11 12  1  0  0  0  0
 11 15  1  0  0  0  0
 11 36  1  0  0  0  0
 12 13  1  0  0  0  0
 12 26  1  0  0  0  0
 13 14  1  0  0  0  0
 13 37  1  0  0  0  0
 13 38  1  0  0  0  0
 14 20  1  0  0  0  0
 14 39  1  0  0  0  0
 15 16  1  0  0  0  0
 15 40  1  0  0  0  0
 15 41  1  0  0  0  0
 16 17  1  0  0  0  0
 16 42  1  0  0  0  0
 16 43  1  0  0  0  0
 17 12  1  0  0  0  0
 17 21  1  0  0  0  0
 17 25  1  0  0  0  0
 19 44  1  0  0  0  0
 19 45  1  0  0  0  0
 19 46  1  0  0  0  0
 20 47  1  0  0  0  0
 21 22  2  0  0  0  0
 21 23  1  0  0  0  0
 23 24  1  0  0  0  0
 23 48  1  0  0  0  0
 23 49  1  0  0  0  0
 24 50  1  0  0  0  0
 25 51  1  0  0  0  0
 26 52  1  0  0  0  0
 26 53  1  0  0  0  0
 26 54  1  0  0  0  0
M  END
>  <Mol_ID>
1388

>  <Formula>
C21H28O5

>  <MolWeight>
360.44402

>  <Cat>
S1737

>  <Name>
Prednisolone (NSC-9900)

>  <Synonyms>
NSC-9900

>  <Target>
Glucocorticoid Receptor,Immunology & Inflammation related

>  <Form>
Free Base

>  <CAS>
50-24-8

>  <URL>
http://selleckchem.com/products/Prednisolone(Hydroretrocortine).html

$$$$
