Metoclopramide
 OpenBabel08302520143D

 42 42  0  0  0  0  0  0  0  0999 V2000
   -1.8871    0.2511    0.6031 C   0  0  0  0  0  0  0  0  0  0  0  0
   -1.0903   -0.3771    1.5852 C   0  0  0  0  0  0  0  0  0  0  0  0
   -0.9148   -1.8457    3.4718 C   0  0  0  0  0  0  0  0  0  0  0  0
   -1.2693    1.0909   -0.3413 C   0  0  0  0  0  0  0  0  0  0  0  0
   -3.3718    0.0704    0.5410 C   0  0  0  0  0  0  0  0  0  0  0  0
    0.2941   -0.1284    1.6013 C   0  0  0  0  0  0  0  0  0  0  0  0
   -1.7172   -1.1754    2.5066 O   0  0  0  0  0  0  0  0  0  0  0  0
    0.1051    1.3313   -0.2969 C   0  0  0  0  0  0  0  0  0  0  0  0
    0.9046    0.6918    0.6448 C   0  0  0  0  0  0  0  0  0  0  0  0
   -3.9169   -0.9789    0.8752 O   0  0  0  0  0  0  0  0  0  0  0  0
   -4.0946    1.1570    0.0762 N   0  0  0  0  0  0  0  0  0  0  0  0
    2.2505    1.0511    0.7759 N   0  0  0  0  0  0  0  0  0  0  0  0
   -5.6394    3.5314   -1.0128 N   0  0  0  0  0  0  0  0  0  0  0  0
   -5.5395    1.1482   -0.0258 C   0  0  0  0  0  0  0  0  0  0  0  0
   -6.1147    2.5784    0.0370 C   0  0  0  0  0  0  0  0  0  0  0  0
   -6.0962    3.0588   -2.3451 C   0  0  0  0  0  0  0  0  0  0  0  0
   -6.1907    4.8834   -0.7434 C   0  0  0  0  0  0  0  0  0  0  0  0
   -5.6435    3.9008   -3.5380 C   0  0  0  0  0  0  0  0  0  0  0  0
   -5.7071    5.5426    0.5467 C   0  0  0  0  0  0  0  0  0  0  0  0
   -0.1747   -2.4997    2.9974 H   0  0  0  0  0  0  0  0  0  0  0  0
   -0.4321   -1.1282    4.1440 H   0  0  0  0  0  0  0  0  0  0  0  0
   -1.5699   -2.4776    4.0794 H   0  0  0  0  0  0  0  0  0  0  0  0
   -1.8435    1.5684   -1.1291 H   0  0  0  0  0  0  0  0  0  0  0  0
    0.9276   -0.5589    2.3691 H   0  0  0  0  0  0  0  0  0  0  0  0
    0.5415    2.0220   -1.0103 H   0  0  0  0  0  0  0  0  0  0  0  0
   -3.6404    2.0141   -0.2171 H   0  0  0  0  0  0  0  0  0  0  0  0
    2.6735    1.3918   -0.0832 H   0  0  0  0  0  0  0  0  0  0  0  0
    2.8264    0.3547    1.2368 H   0  0  0  0  0  0  0  0  0  0  0  0
   -5.8129    0.6311   -0.9499 H   0  0  0  0  0  0  0  0  0  0  0  0
   -5.9487    0.5584    0.8033 H   0  0  0  0  0  0  0  0  0  0  0  0
   -7.2107    2.5244    0.0307 H   0  0  0  0  0  0  0  0  0  0  0  0
   -5.8164    2.9597    1.0189 H   0  0  0  0  0  0  0  0  0  0  0  0
   -5.6985    2.0558   -2.5312 H   0  0  0  0  0  0  0  0  0  0  0  0
   -7.1907    2.9792   -2.3638 H   0  0  0  0  0  0  0  0  0  0  0  0
   -5.8882    5.5722   -1.5390 H   0  0  0  0  0  0  0  0  0  0  0  0
   -7.2875    4.8556   -0.7452 H   0  0  0  0  0  0  0  0  0  0  0  0
   -6.0003    4.9327   -3.4934 H   0  0  0  0  0  0  0  0  0  0  0  0
   -4.5528    3.9091   -3.6241 H   0  0  0  0  0  0  0  0  0  0  0  0
   -6.0507    3.4723   -4.4608 H   0  0  0  0  0  0  0  0  0  0  0  0
   -5.9690    4.9757    1.4410 H   0  0  0  0  0  0  0  0  0  0  0  0
   -4.6228    5.6924    0.5284 H   0  0  0  0  0  0  0  0  0  0  0  0
   -6.1792    6.5275    0.6493 H   0  0  0  0  0  0  0  0  0  0  0  0
  2  1  2  0  0  0  0
  3  7  1  0  0  0  0
  3 20  1  0  0  0  0
  3 21  1  0  0  0  0
  3 22  1  0  0  0  0
  4  1  1  0  0  0  0
  4 23  1  0  0  0  0
  5  1  1  0  0  0  0
  6  2  1  0  0  0  0
  6 24  1  0  0  0  0
  7  2  1  0  0  0  0
  8  4  2  0  0  0  0
  8 25  1  0  0  0  0
  9  6  2  0  0  0  0
  9  8  1  0  0  0  0
 10  5  2  0  0  0  0
 11  5  1  0  0  0  0
 11 26  1  0  0  0  0
 12  9  1  0  0  0  0
 12 27  1  0  0  0  0
 12 28  1  0  0  0  0
 13 15  1  0  0  0  0
 14 11  1  0  0  0  0
 14 29  1  0  0  0  0
 14 30  1  0  0  0  0
 15 14  1  0  0  0  0
 15 31  1  0  0  0  0
 15 32  1  0  0  0  0
 16 13  1  0  0  0  0
 16 33  1  0  0  0  0
 16 34  1  0  0  0  0
 17 13  1  0  0  0  0
 17 35  1  0  0  0  0
 17 36  1  0  0  0  0
 18 16  1  0  0  0  0
 18 37  1  0  0  0  0
 18 38  1  0  0  0  0
 18 39  1  0  0  0  0
 19 17  1  0  0  0  0
 19 40  1  0  0  0  0
 19 41  1  0  0  0  0
 19 42  1  0  0  0  0
M  END
>  <Mol_ID>
3162

>  <Formula>
C14H22ClN3O2

>  <MolWeight>
299.79638

>  <Cat>
S5862

>  <Name>
Metoclopramide

>  <Synonyms>
N/A

>  <Target>
Dopamine Receptor

>  <Form>
Free Base

>  <CAS>
364-62-5

>  <URL>
http://www.selleckchem.com/products/metoclopramide.html

$$$$
