MetoclopraMide HCl.cdx
 OpenBabel08302522063D

 42 42  0  0  0  0  0  0  0  0999 V2000
    0.1701    1.2050   -0.2112 C   0  0  0  0  0  0  0  0  0  0  0  0
    0.9301    0.1776    0.3231 C   0  0  0  0  0  0  0  0  0  0  0  0
    0.2619   -0.9542    0.8013 C   0  0  0  0  0  0  0  0  0  0  0  0
   -1.1572   -1.0482    0.8135 C   0  0  0  0  0  0  0  0  0  0  0  0
   -1.9264   -0.0335    0.2247 C   0  0  0  0  0  0  0  0  0  0  0  0
   -1.2264    1.1031   -0.2602 C   0  0  0  0  0  0  0  0  0  0  0  0
    2.3250    0.2138    0.1977 N   0  0  0  0  0  0  0  0  0  0  0  0
   -3.4106    0.0262   -0.0692 C   0  0  0  0  0  0  0  0  0  0  0  0
   -4.2615   -0.9640    0.3846 N   0  0  0  0  0  0  0  0  0  0  0  0
   -5.6636   -0.9596   -0.0342 C   0  0  0  0  0  0  0  0  0  0  0  0
   -6.3883   -2.3123    0.1587 C   0  0  0  0  0  0  0  0  0  0  0  0
   -6.4031   -2.8391    1.5411 N   0  0  0  0  0  0  0  0  0  0  0  0
   -7.0555   -1.9299    2.5038 C   0  0  0  0  0  0  0  0  0  0  0  0
   -1.6223   -2.0331    1.6488 O   0  0  0  0  0  0  0  0  0  0  0  0
   -2.3698   -3.1025    1.0816 C   0  0  0  0  0  0  0  0  0  0  0  0
   -3.8434    0.9385   -0.7620 O   0  0  0  0  0  0  0  0  0  0  0  0
   -8.5368   -1.6250    2.2756 C   0  0  0  0  0  0  0  0  0  0  0  0
   -6.9957   -4.1897    1.6311 C   0  0  0  0  0  0  0  0  0  0  0  0
   -6.2218   -5.2708    0.8839 C   0  0  0  0  0  0  0  0  0  0  0  0
    0.6428    2.0978   -0.6122 H   0  0  0  0  0  0  0  0  0  0  0  0
    0.8458   -1.7771    1.2066 H   0  0  0  0  0  0  0  0  0  0  0  0
   -1.7722    1.9372   -0.6917 H   0  0  0  0  0  0  0  0  0  0  0  0
    2.8261   -0.4123    0.8290 H   0  0  0  0  0  0  0  0  0  0  0  0
    2.7207    1.1449    0.1766 H   0  0  0  0  0  0  0  0  0  0  0  0
   -4.0598   -1.3676    1.2887 H   0  0  0  0  0  0  0  0  0  0  0  0
   -6.1675   -0.1534    0.5101 H   0  0  0  0  0  0  0  0  0  0  0  0
   -5.7039   -0.6969   -1.0947 H   0  0  0  0  0  0  0  0  0  0  0  0
   -7.4113   -2.2230   -0.2302 H   0  0  0  0  0  0  0  0  0  0  0  0
   -5.8795   -3.0340   -0.4933 H   0  0  0  0  0  0  0  0  0  0  0  0
   -6.9464   -2.3540    3.5099 H   0  0  0  0  0  0  0  0  0  0  0  0
   -6.5021   -0.9869    2.5483 H   0  0  0  0  0  0  0  0  0  0  0  0
   -3.3100   -3.1657    1.6392 H   0  0  0  0  0  0  0  0  0  0  0  0
   -2.5653   -2.9948    0.0127 H   0  0  0  0  0  0  0  0  0  0  0  0
   -1.8501   -4.0471    1.2652 H   0  0  0  0  0  0  0  0  0  0  0  0
   -9.1564   -2.5222    2.3681 H   0  0  0  0  0  0  0  0  0  0  0  0
   -8.8852   -0.9122    3.0310 H   0  0  0  0  0  0  0  0  0  0  0  0
   -8.7202   -1.1753    1.2954 H   0  0  0  0  0  0  0  0  0  0  0  0
   -7.0073   -4.4889    2.6866 H   0  0  0  0  0  0  0  0  0  0  0  0
   -8.0361   -4.1984    1.2848 H   0  0  0  0  0  0  0  0  0  0  0  0
   -5.1391   -5.1366    0.9791 H   0  0  0  0  0  0  0  0  0  0  0  0
   -6.4704   -6.2563    1.2952 H   0  0  0  0  0  0  0  0  0  0  0  0
   -6.4824   -5.2837   -0.1794 H   0  0  0  0  0  0  0  0  0  0  0  0
  1  2  2  0  0  0  0
  1 20  1  0  0  0  0
  2  3  1  0  0  0  0
  2  7  1  0  0  0  0
  3  4  2  0  0  0  0
  3 21  1  0  0  0  0
  4  5  1  0  0  0  0
  4 14  1  0  0  0  0
  5  6  2  0  0  0  0
  5  8  1  0  0  0  0
  6  1  1  0  0  0  0
  6 22  1  0  0  0  0
  7 23  1  0  0  0  0
  7 24  1  0  0  0  0
  8  9  1  0  0  0  0
  8 16  2  0  0  0  0
  9 10  1  0  0  0  0
  9 25  1  0  0  0  0
 10 11  1  0  0  0  0
 10 26  1  0  0  0  0
 10 27  1  0  0  0  0
 11 12  1  0  0  0  0
 11 28  1  0  0  0  0
 11 29  1  0  0  0  0
 12 13  1  0  0  0  0
 12 18  1  0  0  0  0
 13 17  1  0  0  0  0
 13 30  1  0  0  0  0
 13 31  1  0  0  0  0
 14 15  1  0  0  0  0
 15 32  1  0  0  0  0
 15 33  1  0  0  0  0
 15 34  1  0  0  0  0
 17 35  1  0  0  0  0
 17 36  1  0  0  0  0
 17 37  1  0  0  0  0
 18 19  1  0  0  0  0
 18 38  1  0  0  0  0
 18 39  1  0  0  0  0
 19 40  1  0  0  0  0
 19 41  1  0  0  0  0
 19 42  1  0  0  0  0
M  END
>  <Mol_ID>
1429

>  <Formula>
C14H23Cl2N3O2

>  <MolWeight>
336.25732

>  <Cat>
S4289

>  <Name>
Metoclopramide HCl

>  <Synonyms>
Metoclopramide hydrochloride

>  <Target>
Dopamine Receptor

>  <Form>
Hydrochloride

>  <CAS>
7232-21-5

>  <URL>
http://selleckchem.com/products/metoclopramide-hcl.html

$$$$
