METOLAZONE (metolazone).cdx
 OpenBabel08302520383D

 40 42  0  0  0  0  0  0  0  0999 V2000
    2.3951   -0.6708    0.0195 C   0  0  0  0  0  0  0  0  0  0  0  0
    2.4145    0.7236    0.0778 C   0  0  0  0  0  0  0  0  0  0  0  0
    1.2264    1.4538    0.0741 C   0  0  0  0  0  0  0  0  0  0  0  0
    0.0118    0.7702   -0.0068 C   0  0  0  0  0  0  0  0  0  0  0  0
   -0.0402   -0.6322   -0.0152 C   0  0  0  0  0  0  0  0  0  0  0  0
    1.1647   -1.3427   -0.0315 C   0  0  0  0  0  0  0  0  0  0  0  0
   -1.2382    1.5275   -0.2395 C   0  0  0  0  0  0  0  0  0  0  0  0
   -2.4141    0.7838   -0.2640 N   0  0  0  0  0  0  0  0  0  0  0  0
   -2.4309   -0.5513    0.3115 C   0  0  3  0  0  0  0  0  0  0  0  0
   -1.2644   -1.3023   -0.1612 N   0  0  0  0  0  0  0  0  0  0  0  0
    3.9363    1.6124    0.0982 S   0  0  0  0  0  0  0  0  0  0  0  0
    3.9578    2.4595    1.2644 O   0  0  0  0  0  0  0  0  0  0  0  0
    5.0173    0.7140   -0.2338 O   0  0  0  0  0  0  0  0  0  0  0  0
    3.7717    2.6293   -1.2309 N   0  0  0  0  0  0  0  0  0  0  0  0
   -1.1733    2.7322   -0.4708 O   0  0  0  0  0  0  0  0  0  0  0  0
   -2.4559   -0.5205    1.8481 C   0  0  0  0  0  0  0  0  0  0  0  0
   -3.3431    1.0644   -1.3068 C   0  0  0  0  0  0  0  0  0  0  0  0
   -2.8935    0.9816   -2.6367 C   0  0  0  0  0  0  0  0  0  0  0  0
   -3.7567    1.2362   -3.7014 C   0  0  0  0  0  0  0  0  0  0  0  0
   -5.0795    1.5784   -3.4490 C   0  0  0  0  0  0  0  0  0  0  0  0
   -5.5349    1.6683   -2.1328 C   0  0  0  0  0  0  0  0  0  0  0  0
   -4.6744    1.4239   -1.0451 C   0  0  0  0  0  0  0  0  0  0  0  0
   -5.2254    1.6301    0.3351 C   0  0  0  0  0  0  0  0  0  0  0  0
    3.3224   -1.2395   -0.0053 H   0  0  0  0  0  0  0  0  0  0  0  0
    1.2400    2.5393    0.0857 H   0  0  0  0  0  0  0  0  0  0  0  0
    1.1617   -2.4285   -0.1019 H   0  0  0  0  0  0  0  0  0  0  0  0
   -3.3314   -1.0813   -0.0225 H   0  0  0  0  0  0  0  0  0  0  0  0
   -1.2397   -2.2582    0.1804 H   0  0  0  0  0  0  0  0  0  0  0  0
    3.6397    3.5976   -0.9327 H   0  0  0  0  0  0  0  0  0  0  0  0
    4.5470    2.4930   -1.8780 H   0  0  0  0  0  0  0  0  0  0  0  0
   -3.3485   -0.0066    2.2152 H   0  0  0  0  0  0  0  0  0  0  0  0
   -2.4595   -1.5363    2.2576 H   0  0  0  0  0  0  0  0  0  0  0  0
   -1.5900    0.0001    2.2707 H   0  0  0  0  0  0  0  0  0  0  0  0
   -1.8632    0.7056   -2.8504 H   0  0  0  0  0  0  0  0  0  0  0  0
   -3.3924    1.1729   -4.7234 H   0  0  0  0  0  0  0  0  0  0  0  0
   -5.7539    1.7908   -4.2742 H   0  0  0  0  0  0  0  0  0  0  0  0
   -6.5678    1.9619   -1.9542 H   0  0  0  0  0  0  0  0  0  0  0  0
   -5.6998    2.6161    0.4014 H   0  0  0  0  0  0  0  0  0  0  0  0
   -5.9701    0.8611    0.5620 H   0  0  0  0  0  0  0  0  0  0  0  0
   -4.4526    1.6058    1.1050 H   0  0  0  0  0  0  0  0  0  0  0  0
  1  2  2  0  0  0  0
  1 24  1  0  0  0  0
  2  3  1  0  0  0  0
  2 11  1  0  0  0  0
  3  4  2  0  0  0  0
  3 25  1  0  0  0  0
  4  5  1  0  0  0  0
  4  7  1  0  0  0  0
  5  6  2  0  0  0  0
  6  1  1  0  0  0  0
  6 26  1  0  0  0  0
  7  8  1  0  0  0  0
  7 15  2  0  0  0  0
  8  9  1  0  0  0  0
  8 17  1  0  0  0  0
  9 10  1  0  0  0  0
  9 16  1  0  0  0  0
  9 27  1  0  0  0  0
 10  5  1  0  0  0  0
 10 28  1  0  0  0  0
 11 12  2  0  0  0  0
 11 13  2  0  0  0  0
 11 14  1  0  0  0  0
 14 29  1  0  0  0  0
 14 30  1  0  0  0  0
 16 31  1  0  0  0  0
 16 32  1  0  0  0  0
 16 33  1  0  0  0  0
 17 18  2  0  0  0  0
 18 19  1  0  0  0  0
 18 34  1  0  0  0  0
 19 20  2  0  0  0  0
 19 35  1  0  0  0  0
 20 21  1  0  0  0  0
 20 36  1  0  0  0  0
 21 22  2  0  0  0  0
 21 37  1  0  0  0  0
 22 17  1  0  0  0  0
 22 23  1  0  0  0  0
 23 38  1  0  0  0  0
 23 39  1  0  0  0  0
 23 40  1  0  0  0  0
M  END
>  <Mol_ID>
348

>  <Formula>
C16H16ClN3O3S

>  <MolWeight>
365.83454

>  <Cat>
S1610

>  <Name>
Metolazone

>  <Synonyms>
SR 720-22

>  <Target>
Others

>  <Form>
free base

>  <CAS>
17560-51-9

>  <URL>
http://selleckchem.com/products/Metolazone(Zaroxolyn).html

$$$$
