Metronidazole Benzoate
 OpenBabel08302520143D

 33 34  0  0  0  0  0  0  0  0999 V2000
    2.0827   -2.7996    0.8902 N   0  0  0  0  0  0  0  0  0  0  0  0
    0.9571   -3.5944    0.8278 C   0  0  0  0  0  0  0  0  0  0  0  0
    3.0307   -3.5509    1.5807 C   0  0  0  0  0  0  0  0  0  0  0  0
    2.2510   -1.4040    0.4963 C   0  0  0  0  0  0  0  0  0  0  0  0
    1.2707   -4.7740    1.4553 C   0  0  0  0  0  0  0  0  0  0  0  0
   -0.3005   -3.2600    0.2522 N   0  3  0  0  0  0  0  0  0  0  0  0
    2.5598   -4.7427    1.8969 N   0  0  0  0  0  0  0  0  0  0  0  0
    4.3842   -3.0868    1.9869 C   0  0  0  0  0  0  0  0  0  0  0  0
    2.8723   -1.1840   -0.8908 C   0  0  0  0  0  0  0  0  0  0  0  0
   -0.3974   -2.1805   -0.3349 O   0  0  0  0  0  0  0  0  0  0  0  0
   -1.2027   -4.0910    0.3782 O   0  5  0  0  0  0  0  0  0  0  0  0
    2.8265    0.2059   -1.3171 O   0  0  0  0  0  0  0  0  0  0  0  0
    3.6973    1.0610   -0.7152 C   0  0  0  0  0  0  0  0  0  0  0  0
    3.6579    2.4364   -1.3113 C   0  0  0  0  0  0  0  0  0  0  0  0
    4.4330    0.7555    0.2124 O   0  0  0  0  0  0  0  0  0  0  0  0
    4.3438    3.4707   -0.6495 C   0  0  0  0  0  0  0  0  0  0  0  0
    3.0034    2.7268   -2.5155 C   0  0  0  0  0  0  0  0  0  0  0  0
    4.3797    4.7640   -1.1853 C   0  0  0  0  0  0  0  0  0  0  0  0
    3.0460    4.0224   -3.0522 C   0  0  0  0  0  0  0  0  0  0  0  0
    3.7353    5.0375   -2.3895 C   0  0  0  0  0  0  0  0  0  0  0  0
    1.2898   -0.8916    0.5734 H   0  0  0  0  0  0  0  0  0  0  0  0
    2.8633   -0.9268    1.2676 H   0  0  0  0  0  0  0  0  0  0  0  0
    0.6379   -5.6367    1.6264 H   0  0  0  0  0  0  0  0  0  0  0  0
    4.3978   -2.9151    3.0684 H   0  0  0  0  0  0  0  0  0  0  0  0
    5.1225   -3.8642    1.7642 H   0  0  0  0  0  0  0  0  0  0  0  0
    4.6999   -2.1719    1.4840 H   0  0  0  0  0  0  0  0  0  0  0  0
    3.9080   -1.5447   -0.9346 H   0  0  0  0  0  0  0  0  0  0  0  0
    2.3168   -1.7506   -1.6471 H   0  0  0  0  0  0  0  0  0  0  0  0
    4.8606    3.2742    0.2879 H   0  0  0  0  0  0  0  0  0  0  0  0
    2.4684    1.9534   -3.0586 H   0  0  0  0  0  0  0  0  0  0  0  0
    4.9161    5.5561   -0.6656 H   0  0  0  0  0  0  0  0  0  0  0  0
    2.5457    4.2376   -3.9931 H   0  0  0  0  0  0  0  0  0  0  0  0
    3.7700    6.0401   -2.8118 H   0  0  0  0  0  0  0  0  0  0  0  0
  1  2  1  0  0  0  0
  1  3  1  0  0  0  0
  1  4  1  0  0  0  0
  2  5  2  0  0  0  0
  2  6  1  0  0  0  0
  3  7  2  0  0  0  0
  3  8  1  0  0  0  0
  4  9  1  0  0  0  0
  4 21  1  0  0  0  0
  4 22  1  0  0  0  0
  5  7  1  0  0  0  0
  5 23  1  0  0  0  0
  6 10  2  0  0  0  0
  6 11  1  0  0  0  0
  8 24  1  0  0  0  0
  8 25  1  0  0  0  0
  8 26  1  0  0  0  0
  9 12  1  0  0  0  0
  9 27  1  0  0  0  0
  9 28  1  0  0  0  0
 12 13  1  0  0  0  0
 13 14  1  0  0  0  0
 13 15  2  0  0  0  0
 14 16  2  0  0  0  0
 14 17  1  0  0  0  0
 16 18  1  0  0  0  0
 16 29  1  0  0  0  0
 17 19  2  0  0  0  0
 17 30  1  0  0  0  0
 18 20  2  0  0  0  0
 18 31  1  0  0  0  0
 19 20  1  0  0  0  0
 19 32  1  0  0  0  0
 20 33  1  0  0  0  0
M  CHG  2   6   1  11  -1
M  END
>  <Mol_ID>
3163

>  <Formula>
C13H13N3O4

>  <MolWeight>
275.26002

>  <Cat>
S5863

>  <Name>
Metronidazole Benzoate

>  <Synonyms>
Benzoyl metronidazole

>  <Target>
Bacterial

>  <Form>
Benzoate

>  <CAS>
13182-89-3

>  <URL>
http://www.selleckchem.com/products/metronidazole-benzoate.html

$$$$
