mevastatin.cdx
 OpenBabel08302522053D

 62 64  0  0  0  0  0  0  0  0999 V2000
   -3.4520    1.6857   -7.0416 C   0  0  0  0  0  0  0  0  0  0  0  0
   -2.7612    1.2892   -5.9453 O   0  0  0  0  0  0  0  0  0  0  0  0
   -4.4671    2.7696   -6.8870 C   0  0  0  0  0  0  0  0  0  0  0  0
   -2.9084    1.7961   -4.5826 C   0  0  1  0  0  0  0  0  0  0  0  0
   -4.1475    3.6676   -5.7154 C   0  0  1  0  0  0  0  0  0  0  0  0
   -3.3092    1.0916   -8.1014 O   0  0  0  0  0  0  0  0  0  0  0  0
   -4.0377    2.8189   -4.4494 C   0  0  0  0  0  0  0  0  0  0  0  0
   -2.8406    0.5151   -3.7027 C   0  0  0  0  0  0  0  0  0  0  0  0
   -2.9591    4.3936   -6.0086 O   0  0  0  0  0  0  0  0  0  0  0  0
   -5.4173    0.3093   -0.6067 C   0  0  1  0  0  0  0  0  0  0  0  0
   -4.6436    0.5481    0.7578 C   0  0  1  0  0  0  0  0  0  0  0  0
   -2.6515   -0.9208    1.1099 C   0  0  0  0  0  0  0  0  0  0  0  0
   -6.8116    1.0072   -0.6579 C   0  0  0  0  0  0  0  0  0  0  0  0
   -3.1777    0.3279    0.7688 O   0  0  0  0  0  0  0  0  0  0  0  0
   -4.7986    0.6509   -2.0054 C   0  0  1  0  0  0  0  0  0  0  0  0
   -7.6172    0.8641   -1.8700 C   0  0  0  0  0  0  0  0  0  0  0  0
   -7.1099    0.3514   -2.9946 C   0  0  0  0  0  0  0  0  0  0  0  0
   -3.3029    0.4316   -2.2325 C   0  0  0  0  0  0  0  0  0  0  0  0
   -5.6738   -0.0696   -3.1057 C   0  0  2  0  0  0  0  0  0  0  0  0
   -3.3307   -1.9230    1.2394 O   0  0  0  0  0  0  0  0  0  0  0  0
   -7.2703    1.8234    0.3027 C   0  0  0  0  0  0  0  0  0  0  0  0
   -1.0930   -0.9041    1.2634 C   0  0  2  0  0  0  0  0  0  0  0  0
   -4.9730    1.9504    1.3303 C   0  0  0  0  0  0  0  0  0  0  0  0
   -6.4830    2.1765    1.5149 C   0  0  0  0  0  0  0  0  0  0  0  0
   -5.5922   -1.6025   -3.1075 C   0  0  0  0  0  0  0  0  0  0  0  0
   -0.2797   -2.2481    1.1449 C   0  0  0  0  0  0  0  0  0  0  0  0
   -0.6509   -0.0928    2.4777 C   0  0  0  0  0  0  0  0  0  0  0  0
    0.0436   -3.1434    2.3562 C   0  0  0  0  0  0  0  0  0  0  0  0
   -5.4540    2.3080   -6.7597 H   0  0  0  0  0  0  0  0  0  0  0  0
   -4.4600    3.3551   -7.8169 H   0  0  0  0  0  0  0  0  0  0  0  0
   -1.9807    2.3471   -4.3895 H   0  0  0  0  0  0  0  0  0  0  0  0
   -4.9523    4.4059   -5.6015 H   0  0  0  0  0  0  0  0  0  0  0  0
   -3.8470    3.4664   -3.5854 H   0  0  0  0  0  0  0  0  0  0  0  0
   -5.0117    2.3518   -4.2946 H   0  0  0  0  0  0  0  0  0  0  0  0
   -3.3036   -0.3114   -4.2573 H   0  0  0  0  0  0  0  0  0  0  0  0
   -1.7796    0.2256   -3.6974 H   0  0  0  0  0  0  0  0  0  0  0  0
   -2.4718    4.5747   -5.1891 H   0  0  0  0  0  0  0  0  0  0  0  0
   -5.6094   -0.7727   -0.5929 H   0  0  0  0  0  0  0  0  0  0  0  0
   -5.0631   -0.1570    1.4899 H   0  0  0  0  0  0  0  0  0  0  0  0
   -4.9286    1.7354   -2.1339 H   0  0  0  0  0  0  0  0  0  0  0  0
   -8.6348    1.2422   -1.8757 H   0  0  0  0  0  0  0  0  0  0  0  0
   -7.7313    0.2771   -3.8838 H   0  0  0  0  0  0  0  0  0  0  0  0
   -3.0420   -0.5714   -1.8693 H   0  0  0  0  0  0  0  0  0  0  0  0
   -2.7226    1.1377   -1.6300 H   0  0  0  0  0  0  0  0  0  0  0  0
   -5.3522    0.2711   -4.0935 H   0  0  0  0  0  0  0  0  0  0  0  0
   -8.2408    2.3094    0.1950 H   0  0  0  0  0  0  0  0  0  0  0  0
   -0.7594   -0.3561    0.3694 H   0  0  0  0  0  0  0  0  0  0  0  0
   -4.5687    2.7261    0.6672 H   0  0  0  0  0  0  0  0  0  0  0  0
   -4.4820    2.0972    2.2996 H   0  0  0  0  0  0  0  0  0  0  0  0
   -6.8749    1.5918    2.3555 H   0  0  0  0  0  0  0  0  0  0  0  0
   -6.6696    3.2320    1.7521 H   0  0  0  0  0  0  0  0  0  0  0  0
   -6.4779   -2.0727   -2.6630 H   0  0  0  0  0  0  0  0  0  0  0  0
   -5.5257   -1.9660   -4.1401 H   0  0  0  0  0  0  0  0  0  0  0  0
   -4.7140   -1.9787   -2.5775 H   0  0  0  0  0  0  0  0  0  0  0  0
   -0.6963   -2.8831    0.3555 H   0  0  0  0  0  0  0  0  0  0  0  0
    0.7152   -1.9462    0.7793 H   0  0  0  0  0  0  0  0  0  0  0  0
   -1.3839   -0.1329    3.2884 H   0  0  0  0  0  0  0  0  0  0  0  0
    0.3170   -0.4221    2.8734 H   0  0  0  0  0  0  0  0  0  0  0  0
   -0.5202    0.9561    2.1919 H   0  0  0  0  0  0  0  0  0  0  0  0
    0.0743   -2.6261    3.3174 H   0  0  0  0  0  0  0  0  0  0  0  0
   -0.6452   -3.9911    2.4321 H   0  0  0  0  0  0  0  0  0  0  0  0
    1.0424   -3.5927    2.2179 H   0  0  0  0  0  0  0  0  0  0  0  0
  1  2  1  0  0  0  0
  1  3  1  0  0  0  0
  2  4  1  0  0  0  0
  3  5  1  0  0  0  0
  3 29  1  0  0  0  0
  3 30  1  0  0  0  0
  4 31  1  1  0  0  0
  4  8  1  0  0  0  0
  5  7  1  0  0  0  0
  5  9  1  0  0  0  0
  5 32  1  1  0  0  0
  6  1  2  0  0  0  0
  7  4  1  0  0  0  0
  7 33  1  0  0  0  0
  7 34  1  0  0  0  0
  8 35  1  0  0  0  0
  8 36  1  0  0  0  0
  9 37  1  0  0  0  0
 10 13  1  0  0  0  0
 10 38  1  6  0  0  0
 11 10  1  0  0  0  0
 11 14  1  0  0  0  0
 11 39  1  1  0  0  0
 12 14  1  0  0  0  0
 15 10  1  0  0  0  0
 15 18  1  0  0  0  0
 15 40  1  6  0  0  0
 16 13  1  0  0  0  0
 16 17  2  0  0  0  0
 16 41  1  0  0  0  0
 17 19  1  0  0  0  0
 17 42  1  0  0  0  0
 18  8  1  0  0  0  0
 18 43  1  0  0  0  0
 18 44  1  0  0  0  0
 19 15  1  0  0  0  0
 19 45  1  6  0  0  0
 19 25  1  0  0  0  0
 20 12  2  0  0  0  0
 21 13  2  0  0  0  0
 21 46  1  0  0  0  0
 22 47  1  6  0  0  0
 22 27  1  0  0  0  0
 22 12  1  0  0  0  0
 23 11  1  0  0  0  0
 23 24  1  0  0  0  0
 23 48  1  0  0  0  0
 23 49  1  0  0  0  0
 24 21  1  0  0  0  0
 24 50  1  0  0  0  0
 24 51  1  0  0  0  0
 25 52  1  0  0  0  0
 25 53  1  0  0  0  0
 25 54  1  0  0  0  0
 26 22  1  0  0  0  0
 26 55  1  0  0  0  0
 26 56  1  0  0  0  0
 27 57  1  0  0  0  0
 27 58  1  0  0  0  0
 27 59  1  0  0  0  0
 28 26  1  0  0  0  0
 28 60  1  0  0  0  0
 28 61  1  0  0  0  0
 28 62  1  0  0  0  0
M  END
>  <Mol_ID>
1354

>  <Formula>
C23H34O5

>  <MolWeight>
390.51306

>  <Cat>
S4223

>  <Name>
Mevastatin

>  <Synonyms>
ML-236B,Compactin

>  <Target>
HMG-CoA Reductase

>  <Form>
free base

>  <CAS>
73573-88-3

>  <URL>
http://selleckchem.com/products/mevastatin.html

$$$$
