Mexiletine Hydrochloride.cdx
 OpenBabel08302522053D

 30 30  0  0  0  0  0  0  0  0999 V2000
    0.0707    1.0324   -0.3682 C   0  0  0  0  0  0  0  0  0  0  0  0
    1.2181    0.2449   -0.5953 C   0  0  0  0  0  0  0  0  0  0  0  0
   -1.1552    0.3875   -0.0556 C   0  0  0  0  0  0  0  0  0  0  0  0
   -0.0558    2.3982   -0.3821 O   0  0  0  0  0  0  0  0  0  0  0  0
    1.1132   -1.1599   -0.4666 C   0  0  0  0  0  0  0  0  0  0  0  0
    2.5731    0.7534   -1.0010 C   0  0  0  0  0  0  0  0  0  0  0  0
   -1.2180   -1.0081    0.0709 C   0  0  0  0  0  0  0  0  0  0  0  0
   -2.4188    1.1862    0.1384 C   0  0  0  0  0  0  0  0  0  0  0  0
    0.9705    3.2355   -0.8983 C   0  0  0  0  0  0  0  0  0  0  0  0
   -0.0844   -1.7793   -0.1267 C   0  0  0  0  0  0  0  0  0  0  0  0
    0.4653    4.6914   -1.0441 C   0  0  3  0  0  0  0  0  0  0  0  0
   -0.7903    4.7771   -1.9104 C   0  0  0  0  0  0  0  0  0  0  0  0
    0.2068    5.3141    0.2618 N   0  0  0  0  0  0  0  0  0  0  0  0
    1.9851   -1.7910   -0.6293 H   0  0  0  0  0  0  0  0  0  0  0  0
    2.5366    1.1715   -2.0104 H   0  0  0  0  0  0  0  0  0  0  0  0
    2.9614    1.4794   -0.2847 H   0  0  0  0  0  0  0  0  0  0  0  0
    3.3143   -0.0554   -1.0346 H   0  0  0  0  0  0  0  0  0  0  0  0
   -2.1554   -1.4986    0.3213 H   0  0  0  0  0  0  0  0  0  0  0  0
   -2.3511    1.7941    1.0455 H   0  0  0  0  0  0  0  0  0  0  0  0
   -2.5927    1.8346   -0.7272 H   0  0  0  0  0  0  0  0  0  0  0  0
   -3.2948    0.5349    0.2301 H   0  0  0  0  0  0  0  0  0  0  0  0
    1.8289    3.2369   -0.2188 H   0  0  0  0  0  0  0  0  0  0  0  0
    1.2657    2.8932   -1.8939 H   0  0  0  0  0  0  0  0  0  0  0  0
   -0.1324   -2.8593   -0.0272 H   0  0  0  0  0  0  0  0  0  0  0  0
    1.2608    5.2690   -1.5256 H   0  0  0  0  0  0  0  0  0  0  0  0
   -1.6634    4.3447   -1.4105 H   0  0  0  0  0  0  0  0  0  0  0  0
   -1.0229    5.8220   -2.1469 H   0  0  0  0  0  0  0  0  0  0  0  0
   -0.6433    4.2480   -2.8569 H   0  0  0  0  0  0  0  0  0  0  0  0
   -0.2474    6.2170    0.1325 H   0  0  0  0  0  0  0  0  0  0  0  0
   -0.4641    4.7330    0.7726 H   0  0  0  0  0  0  0  0  0  0  0  0
  1  2  2  0  0  0  0
  1  3  1  0  0  0  0
  1  4  1  0  0  0  0
  2  5  1  0  0  0  0
  2  6  1  0  0  0  0
  3  7  2  0  0  0  0
  3  8  1  0  0  0  0
  4  9  1  0  0  0  0
  5 10  2  0  0  0  0
  5 14  1  0  0  0  0
  6 15  1  0  0  0  0
  6 16  1  0  0  0  0
  6 17  1  0  0  0  0
  7 10  1  0  0  0  0
  7 18  1  0  0  0  0
  8 19  1  0  0  0  0
  8 20  1  0  0  0  0
  8 21  1  0  0  0  0
  9 11  1  0  0  0  0
  9 22  1  0  0  0  0
  9 23  1  0  0  0  0
 10 24  1  0  0  0  0
 11 12  1  0  0  0  0
 11 13  1  0  0  0  0
 11 25  1  0  0  0  0
 12 26  1  0  0  0  0
 12 27  1  0  0  0  0
 12 28  1  0  0  0  0
 13 29  1  0  0  0  0
 13 30  1  0  0  0  0
M  END
>  <Mol_ID>
1355

>  <Formula>
C11H18ClNO

>  <MolWeight>
215.71972

>  <Cat>
S4225

>  <Name>
Mexiletine HCl

>  <Synonyms>
KO1173,Mexitil

>  <Target>
Sodium Channel

>  <Form>
Hydrochloride

>  <CAS>
5370-01-4

>  <URL>
http://selleckchem.com/products/mexiletine-hcl.html

$$$$
