MF-438
 OpenBabel08302521353D

 47 50  0  0  0  0  0  0  0  0999 V2000
    0.7162    0.0926    1.3119 S   0  0  0  0  0  0  0  0  0  0  0  0
    8.8308    5.2960    1.6999 O   0  0  0  0  0  0  0  0  0  0  0  0
    6.9489    2.0517   -0.2029 N   0  0  0  0  0  0  0  0  0  0  0  0
    4.9304    1.4867    0.9484 N   0  0  0  0  0  0  0  0  0  0  0  0
    3.6063    1.0422    0.9560 N   0  0  0  0  0  0  0  0  0  0  0  0
    0.8959   -0.0733   -1.2255 N   0  0  0  0  0  0  0  0  0  0  0  0
   -0.3870   -0.4705   -0.9198 N   0  0  0  0  0  0  0  0  0  0  0  0
    8.6329    4.1195    0.8958 C   0  0  0  0  0  0  0  0  0  0  0  0
    8.0448    3.0232    1.7882 C   0  0  0  0  0  0  0  0  0  0  0  0
    7.6753    4.4108   -0.2642 C   0  0  0  0  0  0  0  0  0  0  0  0
    7.7541    1.7636    0.9815 C   0  0  0  0  0  0  0  0  0  0  0  0
    7.3912    3.1421   -1.0713 C   0  0  0  0  0  0  0  0  0  0  0  0
    5.6140    1.6648   -0.2024 C   0  0  0  0  0  0  0  0  0  0  0  0
    9.8929    6.1213    1.4419 C   0  0  0  0  0  0  0  0  0  0  0  0
    4.9712    1.3637   -1.3991 C   0  0  0  0  0  0  0  0  0  0  0  0
    9.7898    7.4716    1.8245 C   0  0  0  0  0  0  0  0  0  0  0  0
   11.0948    5.6728    0.8754 C   0  0  0  0  0  0  0  0  0  0  0  0
    3.6561    0.8916   -1.4033 C   0  0  0  0  0  0  0  0  0  0  0  0
    2.9838    0.7454   -0.2014 C   0  0  0  0  0  0  0  0  0  0  0  0
   10.8413    8.3562    1.5003 C   0  0  0  0  0  0  0  0  0  0  0  0
    8.6331    8.0505    2.6022 C   0  0  0  0  0  0  0  0  0  0  0  0
   12.1330    6.5569    0.5869 C   0  0  0  0  0  0  0  0  0  0  0  0
   12.0015    7.9075    0.8747 C   0  0  0  0  0  0  0  0  0  0  0  0
    1.5995    0.2636   -0.1594 C   0  0  0  0  0  0  0  0  0  0  0  0
   -0.6249   -0.4247    0.3712 C   0  0  0  0  0  0  0  0  0  0  0  0
   -1.9253   -0.7655    1.0028 C   0  0  0  0  0  0  0  0  0  0  0  0
    7.6604    7.1809    2.9847 F   0  0  0  0  0  0  0  0  0  0  0  0
    9.0598    8.6455    3.7555 F   0  0  0  0  0  0  0  0  0  0  0  0
    7.9955    9.0398    1.9099 F   0  0  0  0  0  0  0  0  0  0  0  0
    9.5653    3.7268    0.4840 H   0  0  0  0  0  0  0  0  0  0  0  0
    8.7561    2.7888    2.5901 H   0  0  0  0  0  0  0  0  0  0  0  0
    7.1352    3.3838    2.2817 H   0  0  0  0  0  0  0  0  0  0  0  0
    6.7395    4.8352    0.1209 H   0  0  0  0  0  0  0  0  0  0  0  0
    8.1080    5.1750   -0.9207 H   0  0  0  0  0  0  0  0  0  0  0  0
    8.7042    1.3343    0.6359 H   0  0  0  0  0  0  0  0  0  0  0  0
    7.3044    0.9965    1.6224 H   0  0  0  0  0  0  0  0  0  0  0  0
    6.6671    3.3785   -1.8599 H   0  0  0  0  0  0  0  0  0  0  0  0
    8.3081    2.8223   -1.5822 H   0  0  0  0  0  0  0  0  0  0  0  0
    5.5043    1.4350   -2.3412 H   0  0  0  0  0  0  0  0  0  0  0  0
   11.2789    4.6240    0.6729 H   0  0  0  0  0  0  0  0  0  0  0  0
    3.1775    0.6292   -2.3422 H   0  0  0  0  0  0  0  0  0  0  0  0
   10.7595    9.4134    1.7588 H   0  0  0  0  0  0  0  0  0  0  0  0
   13.0565    6.1831    0.1490 H   0  0  0  0  0  0  0  0  0  0  0  0
   12.8052    8.6011    0.6420 H   0  0  0  0  0  0  0  0  0  0  0  0
   -1.8024   -1.5260    1.7802 H   0  0  0  0  0  0  0  0  0  0  0  0
   -2.3831    0.1235    1.4479 H   0  0  0  0  0  0  0  0  0  0  0  0
   -2.6209   -1.1608    0.2553 H   0  0  0  0  0  0  0  0  0  0  0  0
  1 24  1  0  0  0  0
  1 25  1  0  0  0  0
  2  8  1  0  0  0  0
  2 14  1  0  0  0  0
  3 11  1  0  0  0  0
  3 12  1  0  0  0  0
  3 13  1  0  0  0  0
  4  5  2  0  0  0  0
  4 13  1  0  0  0  0
  5 19  1  0  0  0  0
  6  7  1  0  0  0  0
  6 24  2  0  0  0  0
  7 25  2  0  0  0  0
  8  9  1  0  0  0  0
  8 10  1  0  0  0  0
  8 30  1  0  0  0  0
  9 11  1  0  0  0  0
  9 31  1  0  0  0  0
  9 32  1  0  0  0  0
 10 12  1  0  0  0  0
 10 33  1  0  0  0  0
 10 34  1  0  0  0  0
 11 35  1  0  0  0  0
 11 36  1  0  0  0  0
 12 37  1  0  0  0  0
 12 38  1  0  0  0  0
 13 15  2  0  0  0  0
 14 16  2  0  0  0  0
 14 17  1  0  0  0  0
 15 18  1  0  0  0  0
 15 39  1  0  0  0  0
 16 20  1  0  0  0  0
 16 21  1  0  0  0  0
 17 22  2  0  0  0  0
 17 40  1  0  0  0  0
 18 19  2  0  0  0  0
 18 41  1  0  0  0  0
 19 24  1  0  0  0  0
 20 23  2  0  0  0  0
 20 42  1  0  0  0  0
 21 27  1  0  0  0  0
 21 28  1  0  0  0  0
 21 29  1  0  0  0  0
 22 23  1  0  0  0  0
 22 43  1  0  0  0  0
 23 44  1  0  0  0  0
 25 26  1  0  0  0  0
 26 45  1  0  0  0  0
 26 46  1  0  0  0  0
 26 47  1  0  0  0  0
M  END
>  <Mol_ID>
6709

>  <Formula>
C19H18F3N5OS

>  <MolWeight>
421.4393296

>  <Cat>
S6842

>  <Name>
MF-438

>  <Synonyms>
N/A

>  <Target>
SCD

>  <Form>
Free base

>  <CAS>
921605-87-0

>  <URL>
http://www.selleckchem.com/products/mf-438.html

$$$$
