MG132.cdx
 OpenBabel08302521403D

 75 75  0  0  0  0  0  0  0  0999 V2000
   -6.8264   -7.9910   -2.1815 C   0  0  0  0  0  0  0  0  0  0  0  0
   -6.1272   -6.9701   -1.5342 C   0  0  0  0  0  0  0  0  0  0  0  0
   -6.5829   -5.6418   -1.5869 C   0  0  0  0  0  0  0  0  0  0  0  0
   -7.7458   -5.3174   -2.2923 C   0  0  0  0  0  0  0  0  0  0  0  0
   -8.4272   -6.3542   -2.9533 C   0  0  0  0  0  0  0  0  0  0  0  0
   -7.9756   -7.6834   -2.9009 C   0  0  0  0  0  0  0  0  0  0  0  0
   -8.3528   -3.9099   -2.2879 C   0  0  0  0  0  0  0  0  0  0  0  0
   -7.5051   -2.8124   -1.8533 O   0  0  0  0  0  0  0  0  0  0  0  0
   -7.0195   -2.0420   -2.8603 C   0  0  0  0  0  0  0  0  0  0  0  0
   -6.2765   -0.9454   -2.4944 N   0  0  0  0  0  0  0  0  0  0  0  0
   -7.1321   -2.2993   -4.0536 O   0  0  0  0  0  0  0  0  0  0  0  0
   -6.4756    0.0523   -1.4149 C   0  0  2  0  0  0  0  0  0  0  0  0
   -6.4070   -0.5084    0.0326 C   0  0  0  0  0  0  0  0  0  0  0  0
   -7.6637    1.0149   -1.6857 C   0  0  0  0  0  0  0  0  0  0  0  0
   -7.5835    2.4410   -1.0464 C   0  0  0  0  0  0  0  0  0  0  0  0
   -6.3047    3.2279   -1.3610 C   0  0  0  0  0  0  0  0  0  0  0  0
   -8.7750    3.2994   -1.5110 C   0  0  0  0  0  0  0  0  0  0  0  0
   -5.1800   -1.0209    0.3828 N   0  0  0  0  0  0  0  0  0  0  0  0
   -7.3375   -0.4272    0.8246 O   0  0  0  0  0  0  0  0  0  0  0  0
   -4.8316   -1.5440    1.7189 C   0  0  2  0  0  0  0  0  0  0  0  0
   -5.4234   -2.9534    1.9355 C   0  0  0  0  0  0  0  0  0  0  0  0
   -6.7854   -3.0215    2.0983 N   0  0  0  0  0  0  0  0  0  0  0  0
   -4.7041   -3.9515    1.9589 O   0  0  0  0  0  0  0  0  0  0  0  0
   -5.1048   -0.5729    2.8900 C   0  0  0  0  0  0  0  0  0  0  0  0
   -4.5454   -1.0342    4.2613 C   0  0  0  0  0  0  0  0  0  0  0  0
   -7.4900   -4.2948    2.2542 C   0  0  1  0  0  0  0  0  0  0  0  0
   -7.6499   -4.6522    3.7418 C   0  0  0  0  0  0  0  0  0  0  0  0
   -8.3840   -5.9763    4.0578 C   0  0  0  0  0  0  0  0  0  0  0  0
   -7.7151   -7.1980    3.4267 C   0  0  0  0  0  0  0  0  0  0  0  0
   -8.4739   -6.1693    5.5763 C   0  0  0  0  0  0  0  0  0  0  0  0
   -8.8409   -4.1854    1.5562 C   0  0  0  0  0  0  0  0  0  0  0  0
   -9.3093   -3.1464    1.0977 O   0  0  0  0  0  0  0  0  0  0  0  0
   -3.0261   -1.2162    4.2579 C   0  0  0  0  0  0  0  0  0  0  0  0
   -4.9267   -0.0327    5.3587 C   0  0  0  0  0  0  0  0  0  0  0  0
   -6.4745   -9.0189   -2.1240 H   0  0  0  0  0  0  0  0  0  0  0  0
   -5.2247   -7.2105   -0.9764 H   0  0  0  0  0  0  0  0  0  0  0  0
   -6.0183   -4.8720   -1.0603 H   0  0  0  0  0  0  0  0  0  0  0  0
   -9.3359   -6.1494   -3.5173 H   0  0  0  0  0  0  0  0  0  0  0  0
   -8.5226   -8.4753   -3.4117 H   0  0  0  0  0  0  0  0  0  0  0  0
   -8.7914   -3.7134   -3.2736 H   0  0  0  0  0  0  0  0  0  0  0  0
   -9.1925   -3.9429   -1.5846 H   0  0  0  0  0  0  0  0  0  0  0  0
   -5.9666   -0.5199   -3.3591 H   0  0  0  0  0  0  0  0  0  0  0  0
   -5.5648    0.6537   -1.5165 H   0  0  0  0  0  0  0  0  0  0  0  0
   -7.7684    1.1472   -2.7707 H   0  0  0  0  0  0  0  0  0  0  0  0
   -8.5934    0.5420   -1.3451 H   0  0  0  0  0  0  0  0  0  0  0  0
   -7.6510    2.3415    0.0440 H   0  0  0  0  0  0  0  0  0  0  0  0
   -6.1776    3.3749   -2.4386 H   0  0  0  0  0  0  0  0  0  0  0  0
   -6.3462    4.2240   -0.8996 H   0  0  0  0  0  0  0  0  0  0  0  0
   -5.4123    2.7399   -0.9629 H   0  0  0  0  0  0  0  0  0  0  0  0
   -9.7269    2.8637   -1.1946 H   0  0  0  0  0  0  0  0  0  0  0  0
   -8.7206    4.3128   -1.0930 H   0  0  0  0  0  0  0  0  0  0  0  0
   -8.7895    3.4004   -2.6027 H   0  0  0  0  0  0  0  0  0  0  0  0
   -4.5104   -1.1815   -0.3585 H   0  0  0  0  0  0  0  0  0  0  0  0
   -3.7454   -1.6815    1.6533 H   0  0  0  0  0  0  0  0  0  0  0  0
   -7.3426   -2.1975    1.8486 H   0  0  0  0  0  0  0  0  0  0  0  0
   -4.6790    0.4094    2.6449 H   0  0  0  0  0  0  0  0  0  0  0  0
   -6.1832   -0.4146    3.0069 H   0  0  0  0  0  0  0  0  0  0  0  0
   -5.0031   -1.9955    4.5255 H   0  0  0  0  0  0  0  0  0  0  0  0
   -6.9179   -5.0694    1.7331 H   0  0  0  0  0  0  0  0  0  0  0  0
   -6.6535   -4.6836    4.2037 H   0  0  0  0  0  0  0  0  0  0  0  0
   -8.1867   -3.8356    4.2441 H   0  0  0  0  0  0  0  0  0  0  0  0
   -9.4120   -5.9174    3.6806 H   0  0  0  0  0  0  0  0  0  0  0  0
   -6.6501   -7.2435    3.6765 H   0  0  0  0  0  0  0  0  0  0  0  0
   -8.1823   -8.1242    3.7818 H   0  0  0  0  0  0  0  0  0  0  0  0
   -7.8135   -7.1849    2.3371 H   0  0  0  0  0  0  0  0  0  0  0  0
   -8.9999   -5.3310    6.0451 H   0  0  0  0  0  0  0  0  0  0  0  0
   -9.0249   -7.0840    5.8224 H   0  0  0  0  0  0  0  0  0  0  0  0
   -7.4790   -6.2433    6.0285 H   0  0  0  0  0  0  0  0  0  0  0  0
   -9.4032   -5.1298    1.4692 H   0  0  0  0  0  0  0  0  0  0  0  0
   -2.5171   -0.3040    3.9290 H   0  0  0  0  0  0  0  0  0  0  0  0
   -2.6615   -1.4598    5.2626 H   0  0  0  0  0  0  0  0  0  0  0  0
   -2.7225   -2.0365    3.6017 H   0  0  0  0  0  0  0  0  0  0  0  0
   -6.0128    0.0896    5.4200 H   0  0  0  0  0  0  0  0  0  0  0  0
   -4.5782   -0.3795    6.3386 H   0  0  0  0  0  0  0  0  0  0  0  0
   -4.4813    0.9511    5.1749 H   0  0  0  0  0  0  0  0  0  0  0  0
  1  2  2  0  0  0  0
  1 35  1  0  0  0  0
  2  3  1  0  0  0  0
  2 36  1  0  0  0  0
  3  4  2  0  0  0  0
  3 37  1  0  0  0  0
  4  5  1  0  0  0  0
  4  7  1  0  0  0  0
  5  6  2  0  0  0  0
  5 38  1  0  0  0  0
  6  1  1  0  0  0  0
  6 39  1  0  0  0  0
  7  8  1  0  0  0  0
  7 40  1  0  0  0  0
  7 41  1  0  0  0  0
  8  9  1  0  0  0  0
  9 10  1  0  0  0  0
  9 11  2  0  0  0  0
 10 42  1  0  0  0  0
 12 14  1  0  0  0  0
 12 43  1  6  0  0  0
 12 13  1  0  0  0  0
 12 10  1  0  0  0  0
 13 18  1  0  0  0  0
 13 19  2  0  0  0  0
 14 15  1  0  0  0  0
 14 44  1  0  0  0  0
 14 45  1  0  0  0  0
 15 16  1  0  0  0  0
 15 17  1  0  0  0  0
 15 46  1  0  0  0  0
 16 47  1  0  0  0  0
 16 48  1  0  0  0  0
 16 49  1  0  0  0  0
 17 50  1  0  0  0  0
 17 51  1  0  0  0  0
 17 52  1  0  0  0  0
 18 53  1  0  0  0  0
 20 24  1  0  0  0  0
 20 54  1  6  0  0  0
 20 21  1  0  0  0  0
 20 18  1  0  0  0  0
 21 22  1  0  0  0  0
 21 23  2  0  0  0  0
 22 26  1  0  0  0  0
 22 55  1  0  0  0  0
 24 25  1  0  0  0  0
 24 56  1  0  0  0  0
 24 57  1  0  0  0  0
 25 33  1  0  0  0  0
 25 34  1  0  0  0  0
 25 58  1  0  0  0  0
 26 27  1  0  0  0  0
 26 31  1  0  0  0  0
 26 59  1  6  0  0  0
 27 28  1  0  0  0  0
 27 60  1  0  0  0  0
 27 61  1  0  0  0  0
 28 29  1  0  0  0  0
 28 30  1  0  0  0  0
 28 62  1  0  0  0  0
 29 63  1  0  0  0  0
 29 64  1  0  0  0  0
 29 65  1  0  0  0  0
 30 66  1  0  0  0  0
 30 67  1  0  0  0  0
 30 68  1  0  0  0  0
 31 32  2  0  0  0  0
 31 69  1  0  0  0  0
 33 70  1  0  0  0  0
 33 71  1  0  0  0  0
 33 72  1  0  0  0  0
 34 73  1  0  0  0  0
 34 74  1  0  0  0  0
 34 75  1  0  0  0  0
M  END
>  <Mol_ID>
810

>  <Formula>
C26H41N3O5

>  <MolWeight>
475.62084

>  <Cat>
S2619

>  <Name>
MG132

>  <Synonyms>
(S,R,S)-(-)-MG-132, Z-Leu-D-Leu-Leu-al

>  <Target>
Proteasome

>  <Form>
free base

>  <CAS>
1211877-36-9

>  <URL>
http://selleckchem.com/products/MG132.html

$$$$
