MHY1485.cdx
 OpenBabel08302519593D

 49 52  0  0  0  0  0  0  0  0999 V2000
   -0.5425   -1.1646    0.1815 N   0  0  0  0  0  0  0  0  0  0  0  0
   -1.2479   -0.0444    0.2130 C   0  0  0  0  0  0  0  0  0  0  0  0
   -0.7169    1.1616    0.1740 N   0  0  0  0  0  0  0  0  0  0  0  0
    0.6074    1.2093    0.0883 C   0  0  0  0  0  0  0  0  0  0  0  0
    1.3753    0.1238    0.0333 N   0  0  0  0  0  0  0  0  0  0  0  0
    0.7683   -1.0509    0.0837 C   0  0  0  0  0  0  0  0  0  0  0  0
   -2.6403   -0.1266    0.2404 N   0  0  0  0  0  0  0  0  0  0  0  0
   -3.4345   -1.1840    0.6967 C   0  0  0  0  0  0  0  0  0  0  0  0
   -2.9672   -2.0759    1.6755 C   0  0  0  0  0  0  0  0  0  0  0  0
   -3.7200   -3.1825    2.0697 C   0  0  0  0  0  0  0  0  0  0  0  0
   -4.9546   -3.4148    1.4626 C   0  0  0  0  0  0  0  0  0  0  0  0
   -5.4424   -2.5388    0.4833 C   0  0  0  0  0  0  0  0  0  0  0  0
   -4.6819   -1.4251    0.1095 C   0  0  0  0  0  0  0  0  0  0  0  0
   -5.7279   -4.5998    1.8466 N   0  3  0  0  0  0  0  0  0  0  0  0
   -5.2482   -5.3537    2.7047 O   0  0  0  0  0  0  0  0  0  0  0  0
   -6.8248   -4.7772    1.2959 O   0  5  0  0  0  0  0  0  0  0  0  0
    3.5080   -3.2676   -0.9119 C   0  0  0  0  0  0  0  0  0  0  0  0
    2.9579   -2.1870    0.0329 C   0  0  0  0  0  0  0  0  0  0  0  0
    1.5022   -2.2040   -0.0522 N   0  0  0  0  0  0  0  0  0  0  0  0
    0.8862   -3.5084    0.1997 C   0  0  0  0  0  0  0  0  0  0  0  0
    1.5235   -4.5422   -0.7439 C   0  0  0  0  0  0  0  0  0  0  0  0
    2.9566   -4.5641   -0.6150 O   0  0  0  0  0  0  0  0  0  0  0  0
    0.8231    4.8267   -0.3736 C   0  0  0  0  0  0  0  0  0  0  0  0
    0.5627    3.6241    0.5468 C   0  0  0  0  0  0  0  0  0  0  0  0
    1.1889    2.4414   -0.0387 N   0  0  0  0  0  0  0  0  0  0  0  0
    2.6074    2.5813   -0.3526 C   0  0  0  0  0  0  0  0  0  0  0  0
    2.7671    3.8113   -1.2632 C   0  0  0  0  0  0  0  0  0  0  0  0
    2.2267    4.9956   -0.6457 O   0  0  0  0  0  0  0  0  0  0  0  0
   -3.0745    0.7778    0.1345 H   0  0  0  0  0  0  0  0  0  0  0  0
   -2.0039   -1.9101    2.1524 H   0  0  0  0  0  0  0  0  0  0  0  0
   -3.3201   -3.8438    2.8337 H   0  0  0  0  0  0  0  0  0  0  0  0
   -6.3973   -2.7175   -0.0083 H   0  0  0  0  0  0  0  0  0  0  0  0
   -5.0502   -0.7704   -0.6763 H   0  0  0  0  0  0  0  0  0  0  0  0
    3.2846   -3.0193   -1.9578 H   0  0  0  0  0  0  0  0  0  0  0  0
    4.5954   -3.3379   -0.8092 H   0  0  0  0  0  0  0  0  0  0  0  0
    3.2561   -2.4115    1.0645 H   0  0  0  0  0  0  0  0  0  0  0  0
    3.3957   -1.2222   -0.2456 H   0  0  0  0  0  0  0  0  0  0  0  0
    1.0755   -3.7945    1.2423 H   0  0  0  0  0  0  0  0  0  0  0  0
   -0.1961   -3.5215    0.0379 H   0  0  0  0  0  0  0  0  0  0  0  0
    1.1516   -5.5442   -0.5070 H   0  0  0  0  0  0  0  0  0  0  0  0
    1.2631   -4.3270   -1.7871 H   0  0  0  0  0  0  0  0  0  0  0  0
    0.2893    4.7086   -1.3243 H   0  0  0  0  0  0  0  0  0  0  0  0
    0.4633    5.7447    0.1010 H   0  0  0  0  0  0  0  0  0  0  0  0
    1.0126    3.8106    1.5304 H   0  0  0  0  0  0  0  0  0  0  0  0
   -0.5182    3.5195    0.6928 H   0  0  0  0  0  0  0  0  0  0  0  0
    3.1735    2.7251    0.5763 H   0  0  0  0  0  0  0  0  0  0  0  0
    3.0171    1.7107   -0.8750 H   0  0  0  0  0  0  0  0  0  0  0  0
    3.8256    3.9933   -1.4682 H   0  0  0  0  0  0  0  0  0  0  0  0
    2.2606    3.6503   -2.2215 H   0  0  0  0  0  0  0  0  0  0  0  0
  1  2  2  0  0  0  0
  1  6  1  0  0  0  0
  2  3  1  0  0  0  0
  2  7  1  0  0  0  0
  3  4  2  0  0  0  0
  4  5  1  0  0  0  0
  4 25  1  0  0  0  0
  5  6  2  0  0  0  0
  6 19  1  0  0  0  0
  7  8  1  0  0  0  0
  7 29  1  0  0  0  0
  8  9  2  0  0  0  0
  8 13  1  0  0  0  0
  9 10  1  0  0  0  0
  9 30  1  0  0  0  0
 10 11  2  0  0  0  0
 10 31  1  0  0  0  0
 11 12  1  0  0  0  0
 11 14  1  0  0  0  0
 12 13  2  0  0  0  0
 12 32  1  0  0  0  0
 13 33  1  0  0  0  0
 14 15  2  0  0  0  0
 14 16  1  0  0  0  0
 17 18  1  0  0  0  0
 17 22  1  0  0  0  0
 17 34  1  0  0  0  0
 17 35  1  0  0  0  0
 18 19  1  0  0  0  0
 18 36  1  0  0  0  0
 18 37  1  0  0  0  0
 19 20  1  0  0  0  0
 20 21  1  0  0  0  0
 20 38  1  0  0  0  0
 20 39  1  0  0  0  0
 21 22  1  0  0  0  0
 21 40  1  0  0  0  0
 21 41  1  0  0  0  0
 23 24  1  0  0  0  0
 23 28  1  0  0  0  0
 23 42  1  0  0  0  0
 23 43  1  0  0  0  0
 24 25  1  0  0  0  0
 24 44  1  0  0  0  0
 24 45  1  0  0  0  0
 25 26  1  0  0  0  0
 26 27  1  0  0  0  0
 26 46  1  0  0  0  0
 26 47  1  0  0  0  0
 27 28  1  0  0  0  0
 27 48  1  0  0  0  0
 27 49  1  0  0  0  0
M  CHG  2  14   1  16  -1
M  END
>  <Mol_ID>
2587

>  <Formula>
C17H21N7O4

>  <MolWeight>
387.39314

>  <Cat>
S7811

>  <Name>
MHY1485

>  <Synonyms>
N/A

>  <Target>
Autophagy,mTOR

>  <Form>
free base

>  <CAS>
326914-06-1

>  <URL>
http://selleckchem.com/products/mhy1485.html

$$$$
