MI-2 (Menin-MLL inhibitor).cdx
 OpenBabel08302519583D

 50 53  0  0  0  0  0  0  0  0999 V2000
    0.6671   -1.3209    0.1304 C   0  0  0  0  0  0  0  0  0  0  0  0
   -0.8149   -1.2385   -0.2717 C   0  0  0  0  0  0  0  0  0  0  0  0
   -1.4166    0.0021    0.2413 N   0  0  0  0  0  0  0  0  0  0  0  0
   -0.7499    1.2091   -0.2551 C   0  0  0  0  0  0  0  0  0  0  0  0
    0.7454    1.1782    0.1289 C   0  0  0  0  0  0  0  0  0  0  0  0
    1.3771   -0.0945   -0.2484 N   0  0  0  0  0  0  0  0  0  0  0  0
    2.5649   -0.1679   -0.9361 C   0  0  0  0  0  0  0  0  0  0  0  0
    3.6062    0.7795   -0.8110 C   0  0  0  0  0  0  0  0  0  0  0  0
    4.6828    0.6474   -1.6710 C   0  0  0  0  0  0  0  0  0  0  0  0
    4.8691   -0.3313   -2.5715 N   0  0  0  0  0  0  0  0  0  0  0  0
    3.8696   -1.2185   -2.5574 C   0  0  0  0  0  0  0  0  0  0  0  0
    2.7557   -1.1925   -1.8054 N   0  0  0  0  0  0  0  0  0  0  0  0
    3.8163    1.8812    0.0812 C   0  0  0  0  0  0  0  0  0  0  0  0
    4.9207    2.6405   -0.2389 C   0  0  0  0  0  0  0  0  0  0  0  0
    5.8125    1.9209   -1.5054 S   0  0  0  0  0  0  0  0  0  0  0  0
    5.3395    3.9230    0.4093 C   0  0  0  0  0  0  0  0  0  0  0  0
    4.7294    5.1600   -0.2605 C   0  0  0  0  0  0  0  0  0  0  0  0
    3.2045    5.1986   -0.2476 C   0  0  0  0  0  0  0  0  0  0  0  0
   -2.5648    0.0752    0.9803 C   0  0  0  0  0  0  0  0  0  0  0  0
   -2.9902   -1.2805    2.0098 S   0  0  0  0  0  0  0  0  0  0  0  0
   -4.1757   -0.2571    2.9191 C   0  0  0  0  0  0  0  0  0  0  0  0
   -4.5320    0.7955    1.8697 C   0  0  0  0  0  0  0  0  0  0  0  0
   -3.3443    1.1045    1.0455 N   0  0  0  0  0  0  0  0  0  0  0  0
   -5.3656   -1.1190    3.3270 C   0  0  0  0  0  0  0  0  0  0  0  0
   -3.5063    0.3747    4.1424 C   0  0  0  0  0  0  0  0  0  0  0  0
    0.7413   -1.4331    1.2194 H   0  0  0  0  0  0  0  0  0  0  0  0
    1.1062   -2.2237   -0.3090 H   0  0  0  0  0  0  0  0  0  0  0  0
   -1.3304   -2.1389    0.0725 H   0  0  0  0  0  0  0  0  0  0  0  0
   -0.8988   -1.2369   -1.3659 H   0  0  0  0  0  0  0  0  0  0  0  0
   -0.8533    1.2595   -1.3455 H   0  0  0  0  0  0  0  0  0  0  0  0
   -1.1907    2.1250    0.1564 H   0  0  0  0  0  0  0  0  0  0  0  0
    0.8491    1.3097    1.2133 H   0  0  0  0  0  0  0  0  0  0  0  0
    1.2132    2.0367   -0.3643 H   0  0  0  0  0  0  0  0  0  0  0  0
    3.9618   -2.0549   -3.2408 H   0  0  0  0  0  0  0  0  0  0  0  0
    3.1538    2.1423    0.8952 H   0  0  0  0  0  0  0  0  0  0  0  0
    5.0385    3.9026    1.4656 H   0  0  0  0  0  0  0  0  0  0  0  0
    6.4319    4.0103    0.4051 H   0  0  0  0  0  0  0  0  0  0  0  0
    5.0977    6.0474    0.2682 H   0  0  0  0  0  0  0  0  0  0  0  0
    5.0778    5.2392   -1.2968 H   0  0  0  0  0  0  0  0  0  0  0  0
    2.8066    5.0139    0.7553 H   0  0  0  0  0  0  0  0  0  0  0  0
    2.8515    6.1820   -0.5753 H   0  0  0  0  0  0  0  0  0  0  0  0
    2.7795    4.4574   -0.9320 H   0  0  0  0  0  0  0  0  0  0  0  0
   -5.3339    0.4548    1.2012 H   0  0  0  0  0  0  0  0  0  0  0  0
   -4.8921    1.7167    2.3441 H   0  0  0  0  0  0  0  0  0  0  0  0
   -5.0614   -1.9166    4.0157 H   0  0  0  0  0  0  0  0  0  0  0  0
   -6.1273   -0.5179    3.8340 H   0  0  0  0  0  0  0  0  0  0  0  0
   -5.8441   -1.5913    2.4607 H   0  0  0  0  0  0  0  0  0  0  0  0
   -2.6642    1.0213    3.8685 H   0  0  0  0  0  0  0  0  0  0  0  0
   -4.2233    0.9986    4.6896 H   0  0  0  0  0  0  0  0  0  0  0  0
   -3.1364   -0.3852    4.8399 H   0  0  0  0  0  0  0  0  0  0  0  0
  1  2  1  0  0  0  0
  1 26  1  0  0  0  0
  1 27  1  0  0  0  0
  2  3  1  0  0  0  0
  2 28  1  0  0  0  0
  2 29  1  0  0  0  0
  3  4  1  0  0  0  0
  3 19  1  0  0  0  0
  4  5  1  0  0  0  0
  4 30  1  0  0  0  0
  4 31  1  0  0  0  0
  5  6  1  0  0  0  0
  5 32  1  0  0  0  0
  5 33  1  0  0  0  0
  6  1  1  0  0  0  0
  6  7  1  0  0  0  0
  7  8  2  0  0  0  0
  8  9  1  0  0  0  0
  8 13  1  0  0  0  0
  9 10  2  0  0  0  0
 10 11  1  0  0  0  0
 11 12  2  0  0  0  0
 11 34  1  0  0  0  0
 12  7  1  0  0  0  0
 13 14  2  0  0  0  0
 13 35  1  0  0  0  0
 14 15  1  0  0  0  0
 14 16  1  0  0  0  0
 15  9  1  0  0  0  0
 16 17  1  0  0  0  0
 16 36  1  0  0  0  0
 16 37  1  0  0  0  0
 17 18  1  0  0  0  0
 17 38  1  0  0  0  0
 17 39  1  0  0  0  0
 18 40  1  0  0  0  0
 18 41  1  0  0  0  0
 18 42  1  0  0  0  0
 19 20  1  0  0  0  0
 20 21  1  0  0  0  0
 21 22  1  0  0  0  0
 21 24  1  0  0  0  0
 22 23  1  0  0  0  0
 22 43  1  0  0  0  0
 22 44  1  0  0  0  0
 23 19  2  0  0  0  0
 24 45  1  0  0  0  0
 24 46  1  0  0  0  0
 24 47  1  0  0  0  0
 25 21  1  0  0  0  0
 25 48  1  0  0  0  0
 25 49  1  0  0  0  0
 25 50  1  0  0  0  0
M  END
>  <Mol_ID>
2500

>  <Formula>
C18H25N5S2

>  <MolWeight>
375.5546

>  <Cat>
S7618

>  <Name>
MI-2 (Menin-MLL Inhibitor)

>  <Synonyms>
N/A

>  <Target>
Histone Methyltransferase,MLL

>  <Form>
free base

>  <CAS>
1271738-62-5

>  <URL>
http://selleckchem.com/products/mi-2-menin-mll-inhibitor.html

$$$$
