MI-3.cdx
 OpenBabel08302519583D

 50 53  0  0  0  0  0  0  0  0999 V2000
    0.7823   -0.3529   -1.3311 C   0  0  0  0  0  0  0  0  0  0  0  0
    1.2745    0.8928   -1.2463 N   0  0  0  0  0  0  0  0  0  0  0  0
    1.5451    1.4174   -0.0260 C   0  0  0  0  0  0  0  0  0  0  0  0
    1.2957    0.6124    1.1072 C   0  0  0  0  0  0  0  0  0  0  0  0
    0.7993   -0.6589    0.8673 C   0  0  0  0  0  0  0  0  0  0  0  0
    0.5178   -1.1947   -0.3310 N   0  0  0  0  0  0  0  0  0  0  0  0
    1.5055    0.8102    2.5139 C   0  0  0  0  0  0  0  0  0  0  0  0
    1.1330   -0.2753    3.2815 C   0  0  0  0  0  0  0  0  0  0  0  0
    0.5765   -1.5602    2.2961 S   0  0  0  0  0  0  0  0  0  0  0  0
    2.1937    2.6505    0.0726 N   0  0  0  0  0  0  0  0  0  0  0  0
    2.8661    3.0606   -1.1761 C   0  0  0  0  0  0  0  0  0  0  0  0
    3.8231    4.2186   -0.8600 C   0  0  0  0  0  0  0  0  0  0  0  0
    3.0732    5.3365   -0.2695 N   0  0  0  0  0  0  0  0  0  0  0  0
    2.3353    4.9705    0.9505 C   0  0  0  0  0  0  0  0  0  0  0  0
    1.4050    3.7555    0.6675 C   0  0  0  0  0  0  0  0  0  0  0  0
    3.1618    6.6303   -0.7013 C   0  0  0  0  0  0  0  0  0  0  0  0
    3.4476    6.9183   -2.4114 S   0  0  0  0  0  0  0  0  0  0  0  0
    2.8950    8.6328   -2.2419 C   0  0  0  0  0  0  0  0  0  0  0  0
    3.2283    8.9018   -0.7737 C   0  0  0  0  0  0  0  0  0  0  0  0
    2.9773    7.6828    0.0281 N   0  0  0  0  0  0  0  0  0  0  0  0
    1.1578   -0.4189    4.7840 C   0  0  0  0  0  0  0  0  0  0  0  0
    2.5695   -0.2115    5.3361 C   0  0  0  0  0  0  0  0  0  0  0  0
    0.1749    0.5637    5.4246 C   0  0  0  0  0  0  0  0  0  0  0  0
    3.6785    9.5130   -3.2089 C   0  0  0  0  0  0  0  0  0  0  0  0
    1.3895    8.7318   -2.5022 C   0  0  0  0  0  0  0  0  0  0  0  0
    0.5884   -0.7207   -2.3339 H   0  0  0  0  0  0  0  0  0  0  0  0
    1.9067    1.7235    2.9360 H   0  0  0  0  0  0  0  0  0  0  0  0
    3.4576    2.2366   -1.5919 H   0  0  0  0  0  0  0  0  0  0  0  0
    2.1271    3.3761   -1.9301 H   0  0  0  0  0  0  0  0  0  0  0  0
    4.5766    3.8839   -0.1339 H   0  0  0  0  0  0  0  0  0  0  0  0
    4.3734    4.4910   -1.7644 H   0  0  0  0  0  0  0  0  0  0  0  0
    3.0525    4.7095    1.7390 H   0  0  0  0  0  0  0  0  0  0  0  0
    1.7264    5.8026    1.3213 H   0  0  0  0  0  0  0  0  0  0  0  0
    0.6124    4.0607   -0.0293 H   0  0  0  0  0  0  0  0  0  0  0  0
    0.9235    3.4577    1.6050 H   0  0  0  0  0  0  0  0  0  0  0  0
    4.2785    9.1944   -0.6389 H   0  0  0  0  0  0  0  0  0  0  0  0
    2.6206    9.7241   -0.3792 H   0  0  0  0  0  0  0  0  0  0  0  0
    0.8422   -1.4327    5.0638 H   0  0  0  0  0  0  0  0  0  0  0  0
    2.9556    0.7879    5.1059 H   0  0  0  0  0  0  0  0  0  0  0  0
    2.5804   -0.3305    6.4248 H   0  0  0  0  0  0  0  0  0  0  0  0
    3.2664   -0.9430    4.9119 H   0  0  0  0  0  0  0  0  0  0  0  0
   -0.8435    0.3904    5.0581 H   0  0  0  0  0  0  0  0  0  0  0  0
    0.1645    0.4501    6.5133 H   0  0  0  0  0  0  0  0  0  0  0  0
    0.4356    1.6037    5.1966 H   0  0  0  0  0  0  0  0  0  0  0  0
    3.4710    9.2425   -4.2514 H   0  0  0  0  0  0  0  0  0  0  0  0
    3.4077   10.5672   -3.0823 H   0  0  0  0  0  0  0  0  0  0  0  0
    4.7609    9.4323   -3.0531 H   0  0  0  0  0  0  0  0  0  0  0  0
    0.8046    8.1249   -1.8009 H   0  0  0  0  0  0  0  0  0  0  0  0
    1.0505    9.7682   -2.3876 H   0  0  0  0  0  0  0  0  0  0  0  0
    1.1328    8.4143   -3.5190 H   0  0  0  0  0  0  0  0  0  0  0  0
  1  2  2  0  0  0  0
  1 26  1  0  0  0  0
  2  3  1  0  0  0  0
  3  4  2  0  0  0  0
  3 10  1  0  0  0  0
  4  5  1  0  0  0  0
  4  7  1  0  0  0  0
  5  6  2  0  0  0  0
  6  1  1  0  0  0  0
  7  8  2  0  0  0  0
  7 27  1  0  0  0  0
  8  9  1  0  0  0  0
  8 21  1  0  0  0  0
  9  5  1  0  0  0  0
 10 11  1  0  0  0  0
 11 12  1  0  0  0  0
 11 28  1  0  0  0  0
 11 29  1  0  0  0  0
 12 13  1  0  0  0  0
 12 30  1  0  0  0  0
 12 31  1  0  0  0  0
 13 14  1  0  0  0  0
 13 16  1  0  0  0  0
 14 15  1  0  0  0  0
 14 32  1  0  0  0  0
 14 33  1  0  0  0  0
 15 10  1  0  0  0  0
 15 34  1  0  0  0  0
 15 35  1  0  0  0  0
 16 17  1  0  0  0  0
 17 18  1  0  0  0  0
 18 19  1  0  0  0  0
 18 24  1  0  0  0  0
 18 25  1  0  0  0  0
 19 20  1  0  0  0  0
 19 36  1  0  0  0  0
 19 37  1  0  0  0  0
 20 16  2  0  0  0  0
 21 22  1  0  0  0  0
 21 23  1  0  0  0  0
 21 38  1  0  0  0  0
 22 39  1  0  0  0  0
 22 40  1  0  0  0  0
 22 41  1  0  0  0  0
 23 42  1  0  0  0  0
 23 43  1  0  0  0  0
 23 44  1  0  0  0  0
 24 45  1  0  0  0  0
 24 46  1  0  0  0  0
 24 47  1  0  0  0  0
 25 48  1  0  0  0  0
 25 49  1  0  0  0  0
 25 50  1  0  0  0  0
M  END
>  <Mol_ID>
2485

>  <Formula>
C18H25N5S2

>  <MolWeight>
375.5546

>  <Cat>
S7619

>  <Name>
MI-3 (Menin-MLL Inhibitor)

>  <Synonyms>
N/A

>  <Target>
Histone Methyltransferase,MLL

>  <Form>
free base

>  <CAS>
1271738-59-0

>  <URL>
http://selleckchem.com/products/mi-3-menin-mll-inhibitor.html

$$$$
