Mianserin hydrochloride.cdx
 OpenBabel08302519573D

 40 43  0  0  0  0  0  0  0  0999 V2000
   -1.9628    0.7865    0.1034 C   0  0  0  0  0  0  0  0  0  0  0  0
   -1.1415    1.8502    0.4943 N   0  0  0  0  0  0  0  0  0  0  0  0
    0.3535    1.8241    0.7273 C   0  0  3  0  0  0  0  0  0  0  0  0
    1.3503    0.8664    0.0931 C   0  0  0  0  0  0  0  0  0  0  0  0
    1.0496   -0.3737   -0.4593 C   0  0  0  0  0  0  0  0  0  0  0  0
   -0.2533   -0.6390   -1.1276 C   0  0  0  0  0  0  0  0  0  0  0  0
   -1.5283   -0.4575   -0.3711 C   0  0  0  0  0  0  0  0  0  0  0  0
   -2.4181   -1.5655   -0.3711 C   0  0  0  0  0  0  0  0  0  0  0  0
   -3.7635   -1.4246   -0.0606 C   0  0  0  0  0  0  0  0  0  0  0  0
   -4.2587   -0.1539    0.1320 C   0  0  0  0  0  0  0  0  0  0  0  0
   -3.3724    0.9245    0.1707 C   0  0  0  0  0  0  0  0  0  0  0  0
   -1.7470    2.6727    1.6130 C   0  0  0  0  0  0  0  0  0  0  0  0
   -1.5732    2.0015    3.0139 C   0  0  0  0  0  0  0  0  0  0  0  0
   -0.3253    1.2376    3.2017 N   0  0  0  0  0  0  0  0  0  0  0  0
    0.6832    1.8153    2.2957 C   0  0  0  0  0  0  0  0  0  0  0  0
    2.0701   -1.3488   -0.5487 C   0  0  0  0  0  0  0  0  0  0  0  0
    2.7208    1.1793    0.3042 C   0  0  0  0  0  0  0  0  0  0  0  0
    3.7158    0.2186    0.2033 C   0  0  0  0  0  0  0  0  0  0  0  0
    3.3808   -1.0702   -0.1707 C   0  0  0  0  0  0  0  0  0  0  0  0
   -0.5189   -0.1934    2.9388 C   0  0  0  0  0  0  0  0  0  0  0  0
    0.6700    2.8160    0.3604 H   0  0  0  0  0  0  0  0  0  0  0  0
   -0.3030   -0.0208   -2.0363 H   0  0  0  0  0  0  0  0  0  0  0  0
   -0.2274   -1.6725   -1.5298 H   0  0  0  0  0  0  0  0  0  0  0  0
   -2.0607   -2.5502   -0.6652 H   0  0  0  0  0  0  0  0  0  0  0  0
   -4.4260   -2.2833   -0.0540 H   0  0  0  0  0  0  0  0  0  0  0  0
   -5.3233    0.0143    0.2641 H   0  0  0  0  0  0  0  0  0  0  0  0
   -3.8316    1.9044    0.2626 H   0  0  0  0  0  0  0  0  0  0  0  0
   -2.7952    2.9493    1.4810 H   0  0  0  0  0  0  0  0  0  0  0  0
   -1.2332    3.6439    1.6217 H   0  0  0  0  0  0  0  0  0  0  0  0
   -2.4484    1.3945    3.2734 H   0  0  0  0  0  0  0  0  0  0  0  0
   -1.5595    2.8111    3.7560 H   0  0  0  0  0  0  0  0  0  0  0  0
    1.6444    1.3442    2.5307 H   0  0  0  0  0  0  0  0  0  0  0  0
    0.8355    2.8626    2.6011 H   0  0  0  0  0  0  0  0  0  0  0  0
    1.8386   -2.3450   -0.9184 H   0  0  0  0  0  0  0  0  0  0  0  0
    2.9992    2.1683    0.6700 H   0  0  0  0  0  0  0  0  0  0  0  0
    4.7426    0.4653    0.4684 H   0  0  0  0  0  0  0  0  0  0  0  0
    4.1364   -1.8485   -0.2006 H   0  0  0  0  0  0  0  0  0  0  0  0
   -1.4304   -0.4211    2.3811 H   0  0  0  0  0  0  0  0  0  0  0  0
    0.3234   -0.6520    2.4073 H   0  0  0  0  0  0  0  0  0  0  0  0
   -0.6053   -0.7262    3.8900 H   0  0  0  0  0  0  0  0  0  0  0  0
  1  2  1  0  0  0  0
  2  3  1  0  0  0  0
  2 12  1  0  0  0  0
  3  4  1  0  0  0  0
  3 21  1  0  0  0  0
  4  5  2  0  0  0  0
  4 17  1  0  0  0  0
  5  6  1  0  0  0  0
  5 16  1  0  0  0  0
  6  7  1  0  0  0  0
  6 22  1  0  0  0  0
  6 23  1  0  0  0  0
  7  1  2  0  0  0  0
  7  8  1  0  0  0  0
  8  9  2  0  0  0  0
  8 24  1  0  0  0  0
  9 10  1  0  0  0  0
  9 25  1  0  0  0  0
 10 11  2  0  0  0  0
 10 26  1  0  0  0  0
 11  1  1  0  0  0  0
 11 27  1  0  0  0  0
 12 13  1  0  0  0  0
 12 28  1  0  0  0  0
 12 29  1  0  0  0  0
 13 14  1  0  0  0  0
 13 30  1  0  0  0  0
 13 31  1  0  0  0  0
 14 15  1  0  0  0  0
 14 20  1  0  0  0  0
 15  3  1  0  0  0  0
 15 32  1  0  0  0  0
 15 33  1  0  0  0  0
 16 19  2  0  0  0  0
 16 34  1  0  0  0  0
 17 18  2  0  0  0  0
 17 35  1  0  0  0  0
 18 36  1  0  0  0  0
 19 18  1  0  0  0  0
 19 37  1  0  0  0  0
 20 38  1  0  0  0  0
 20 39  1  0  0  0  0
 20 40  1  0  0  0  0
M  END
>  <Mol_ID>
230

>  <Formula>
C18H21ClN2

>  <MolWeight>
300.82574

>  <Cat>
S1382

>  <Name>
Mianserin HCl

>  <Synonyms>
Bolvidon, Norval, Tolvon,ORG GB-94 HCl,Mianserin hydrochloride

>  <Target>
Histamine Receptor

>  <Form>
Hydrochloride

>  <CAS>
21535-47-7

>  <URL>
http://selleckchem.com/products/mianserin-hydrochloride.html

$$$$
