MICROSUL (sulfamethizole).cdx
 OpenBabel08302522013D

 27 28  0  0  0  0  0  0  0  0999 V2000
    0.2497   -0.8305    0.8172 C   0  0  0  0  0  0  0  0  0  0  0  0
    0.9217    0.1240    0.0450 C   0  0  0  0  0  0  0  0  0  0  0  0
    0.1702    1.0631   -0.6728 C   0  0  0  0  0  0  0  0  0  0  0  0
   -1.2232    0.9849   -0.7130 C   0  0  0  0  0  0  0  0  0  0  0  0
   -1.8715   -0.0271   -0.0028 C   0  0  0  0  0  0  0  0  0  0  0  0
   -1.1401   -0.9212    0.7852 C   0  0  0  0  0  0  0  0  0  0  0  0
    2.3034    0.2810    0.1720 N   0  0  0  0  0  0  0  0  0  0  0  0
   -3.6312   -0.1315   -0.0211 S   0  0  0  0  0  0  0  0  0  0  0  0
   -3.9401   -1.0632   -1.3843 N   0  0  0  0  0  0  0  0  0  0  0  0
   -4.0776   -2.4338   -1.0868 C   0  0  0  0  0  0  0  0  0  0  0  0
   -5.5950   -3.2119   -1.0458 S   0  0  0  0  0  0  0  0  0  0  0  0
   -4.7358   -4.6929   -0.8946 C   0  0  0  0  0  0  0  0  0  0  0  0
   -3.4255   -4.5558   -0.8696 N   0  0  0  0  0  0  0  0  0  0  0  0
   -3.0421   -3.2286   -0.9690 N   0  0  0  0  0  0  0  0  0  0  0  0
   -4.0838   -0.8161    1.1728 O   0  0  0  0  0  0  0  0  0  0  0  0
   -4.1542    1.1853   -0.3398 O   0  0  0  0  0  0  0  0  0  0  0  0
   -5.4686   -5.9825   -0.8475 C   0  0  0  0  0  0  0  0  0  0  0  0
    0.8086   -1.5189    1.4442 H   0  0  0  0  0  0  0  0  0  0  0  0
    0.6714    1.8630   -1.2123 H   0  0  0  0  0  0  0  0  0  0  0  0
   -1.7869    1.7121   -1.2885 H   0  0  0  0  0  0  0  0  0  0  0  0
   -1.6455   -1.6861    1.3718 H   0  0  0  0  0  0  0  0  0  0  0  0
    2.7379    0.7439   -0.6173 H   0  0  0  0  0  0  0  0  0  0  0  0
    2.7876   -0.5757    0.4221 H   0  0  0  0  0  0  0  0  0  0  0  0
   -4.7502   -0.6540   -1.8459 H   0  0  0  0  0  0  0  0  0  0  0  0
   -6.1249   -6.0292    0.0273 H   0  0  0  0  0  0  0  0  0  0  0  0
   -6.0790   -6.1076   -1.7484 H   0  0  0  0  0  0  0  0  0  0  0  0
   -4.7710   -6.8235   -0.7958 H   0  0  0  0  0  0  0  0  0  0  0  0
  1  2  2  0  0  0  0
  1 18  1  0  0  0  0
  2  3  1  0  0  0  0
  2  7  1  0  0  0  0
  3  4  2  0  0  0  0
  3 19  1  0  0  0  0
  4  5  1  0  0  0  0
  4 20  1  0  0  0  0
  5  6  2  0  0  0  0
  5  8  1  0  0  0  0
  6  1  1  0  0  0  0
  6 21  1  0  0  0  0
  7 22  1  0  0  0  0
  7 23  1  0  0  0  0
  8  9  1  0  0  0  0
  8 15  2  0  0  0  0
  8 16  2  0  0  0  0
  9 10  1  0  0  0  0
  9 24  1  0  0  0  0
 10 11  1  0  0  0  0
 11 12  1  0  0  0  0
 12 13  2  0  0  0  0
 12 17  1  0  0  0  0
 13 14  1  0  0  0  0
 14 10  2  0  0  0  0
 17 25  1  0  0  0  0
 17 26  1  0  0  0  0
 17 27  1  0  0  0  0
M  END
>  <Mol_ID>
1118

>  <Formula>
C9H10N4O2S2

>  <MolWeight>
270.3313

>  <Cat>
S1957

>  <Name>
Sulfamethizole

>  <Synonyms>
N/A

>  <Target>
Bacterial

>  <Form>
free base

>  <CAS>
144-82-1

>  <URL>
http://selleckchem.com/products/Sulfamethizole(Proklar).html

$$$$
