MID-1
 OpenBabel08302521333D

 31 32  0  0  0  0  0  0  0  0999 V2000
    1.1361    0.0502    0.1881 C   0  0  0  0  0  0  0  0  0  0  0  0
    0.3153    0.9071   -0.7159 C   0  0  0  0  0  0  0  0  0  0  0  0
    0.5668    0.9957   -2.0903 C   0  0  0  0  0  0  0  0  0  0  0  0
   -0.1710    1.8850   -2.8849 C   0  0  0  0  0  0  0  0  0  0  0  0
   -1.1577    2.6945   -2.3140 C   0  0  0  0  0  0  0  0  0  0  0  0
   -1.4241    2.5810   -0.9475 C   0  0  0  0  0  0  0  0  0  0  0  0
   -0.6896    1.6993   -0.1495 C   0  0  0  0  0  0  0  0  0  0  0  0
    1.3540    0.4587    1.3218 O   0  0  0  0  0  0  0  0  0  0  0  0
    1.5275   -1.1591   -0.3435 N   0  0  0  0  0  0  0  0  0  0  0  0
    2.4991   -3.5609   -0.3802 S   0  0  0  0  0  0  0  0  0  0  0  0
    2.3283   -2.0234    0.3522 C   0  0  0  0  0  0  0  0  0  0  0  0
    2.9826   -1.8387    1.4711 N   0  0  0  0  0  0  0  0  0  0  0  0
    3.6667   -2.9938    1.8034 C   0  0  0  0  0  0  0  0  0  0  0  0
    3.4970   -4.0298    0.9166 C   0  0  0  0  0  0  0  0  0  0  0  0
    4.0581   -5.3389    1.0026 N   0  3  0  0  0  0  0  0  0  0  0  0
    4.8481   -5.5390    1.9343 O   0  0  0  0  0  0  0  0  0  0  0  0
    3.7190   -6.1745    0.1553 O   0  5  0  0  0  0  0  0  0  0  0  0
   -1.9064    3.6338   -2.9706 O   0  0  0  0  0  0  0  0  0  0  0  0
   -1.5876    3.8712   -4.3416 C   0  0  0  0  0  0  0  0  0  0  0  0
   -2.4128    5.0447   -4.8407 C   0  0  0  0  0  0  0  0  0  0  0  0
    1.3640    0.4225   -2.5553 H   0  0  0  0  0  0  0  0  0  0  0  0
    0.0637    1.9403   -3.9427 H   0  0  0  0  0  0  0  0  0  0  0  0
   -2.1931    3.2017   -0.4925 H   0  0  0  0  0  0  0  0  0  0  0  0
   -0.8904    1.6465    0.9189 H   0  0  0  0  0  0  0  0  0  0  0  0
    1.1537   -1.4860   -1.2216 H   0  0  0  0  0  0  0  0  0  0  0  0
    4.2674   -3.0151    2.7072 H   0  0  0  0  0  0  0  0  0  0  0  0
   -0.5259    4.1197   -4.4544 H   0  0  0  0  0  0  0  0  0  0  0  0
   -1.8320    2.9831   -4.9349 H   0  0  0  0  0  0  0  0  0  0  0  0
   -2.1567    5.9575   -4.2925 H   0  0  0  0  0  0  0  0  0  0  0  0
   -2.2331    5.2163   -5.9063 H   0  0  0  0  0  0  0  0  0  0  0  0
   -3.4816    4.8663   -4.6856 H   0  0  0  0  0  0  0  0  0  0  0  0
  1  2  1  0  0  0  0
  1  8  2  0  0  0  0
  1  9  1  0  0  0  0
  2  3  2  0  0  0  0
  2  7  1  0  0  0  0
  3  4  1  0  0  0  0
  3 21  1  0  0  0  0
  4  5  2  0  0  0  0
  4 22  1  0  0  0  0
  5  6  1  0  0  0  0
  5 18  1  0  0  0  0
  6  7  2  0  0  0  0
  6 23  1  0  0  0  0
  7 24  1  0  0  0  0
  9 11  1  0  0  0  0
  9 25  1  0  0  0  0
 10 11  1  0  0  0  0
 10 14  1  0  0  0  0
 11 12  2  0  0  0  0
 12 13  1  0  0  0  0
 13 14  2  0  0  0  0
 13 26  1  0  0  0  0
 14 15  1  0  0  0  0
 15 16  2  0  0  0  0
 15 17  1  0  0  0  0
 18 19  1  0  0  0  0
 19 20  1  0  0  0  0
 19 27  1  0  0  0  0
 19 28  1  0  0  0  0
 20 29  1  0  0  0  0
 20 30  1  0  0  0  0
 20 31  1  0  0  0  0
M  CHG  2  15   1  17  -1
M  END
>  <Mol_ID>
6349

>  <Formula>
C12H11N3O4S

>  <MolWeight>
293.29844

>  <Cat>
E0794

>  <Name>
MID-1

>  <Target>
IGF-1R

>  <Form>
free base

>  <CAS>
312608-54-1

>  <URL>
http://www.selleckchem.com/products/mid-1.html

$$$$
