Midodrine
 OpenBabel08302520343D

 36 36  0  0  0  0  0  0  0  0999 V2000
    3.5513   -0.9690   -1.3814 C   0  0  0  0  0  0  0  0  0  0  0  0
    3.0840   -1.6582   -2.6650 C   0  0  0  0  0  0  0  0  0  0  0  0
    3.0446    0.0684   -0.9718 O   0  0  0  0  0  0  0  0  0  0  0  0
    4.5579   -1.6461   -0.7206 N   0  0  0  0  0  0  0  0  0  0  0  0
    5.2100   -1.1086    0.4788 C   0  0  0  0  0  0  0  0  0  0  0  0
    4.2358   -0.8453    1.6590 C   0  0  3  0  0  0  0  0  0  0  0  0
    3.6220   -2.1078    1.9943 O   0  0  0  0  0  0  0  0  0  0  0  0
    4.9129   -0.2657    2.8912 C   0  0  0  0  0  0  0  0  0  0  0  0
    4.9628    1.1024    3.2181 C   0  0  0  0  0  0  0  0  0  0  0  0
    5.5518    1.4973    4.4347 C   0  0  0  0  0  0  0  0  0  0  0  0
    6.0760    0.5783    5.3427 C   0  0  0  0  0  0  0  0  0  0  0  0
    6.0198   -0.7741    5.0489 C   0  0  0  0  0  0  0  0  0  0  0  0
    5.4727   -1.1776    3.8238 C   0  0  0  0  0  0  0  0  0  0  0  0
    6.4339   -1.7853    5.8723 O   0  0  0  0  0  0  0  0  0  0  0  0
    6.8133   -1.4163    7.1954 C   0  0  0  0  0  0  0  0  0  0  0  0
    4.4221    2.1855    2.5874 O   0  0  0  0  0  0  0  0  0  0  0  0
    4.2806    2.2468    1.1833 C   0  0  0  0  0  0  0  0  0  0  0  0
    4.2080   -1.7866   -3.6067 N   0  0  0  0  0  0  0  0  0  0  0  0
    2.6883   -2.6531   -2.4118 H   0  0  0  0  0  0  0  0  0  0  0  0
    2.2769   -1.0705   -3.1149 H   0  0  0  0  0  0  0  0  0  0  0  0
    5.1158   -2.2330   -1.3373 H   0  0  0  0  0  0  0  0  0  0  0  0
    5.9481   -1.8653    0.7696 H   0  0  0  0  0  0  0  0  0  0  0  0
    5.7620   -0.2147    0.1814 H   0  0  0  0  0  0  0  0  0  0  0  0
    3.4023   -0.2015    1.3786 H   0  0  0  0  0  0  0  0  0  0  0  0
    3.2840   -2.4596    1.1520 H   0  0  0  0  0  0  0  0  0  0  0  0
    5.5739    2.5556    4.6913 H   0  0  0  0  0  0  0  0  0  0  0  0
    6.4927    0.9565    6.2691 H   0  0  0  0  0  0  0  0  0  0  0  0
    5.4247   -2.2489    3.6218 H   0  0  0  0  0  0  0  0  0  0  0  0
    7.7683   -0.8811    7.1845 H   0  0  0  0  0  0  0  0  0  0  0  0
    6.0378   -0.8252    7.6948 H   0  0  0  0  0  0  0  0  0  0  0  0
    6.9469   -2.3334    7.7776 H   0  0  0  0  0  0  0  0  0  0  0  0
    4.9759    1.6087    0.6449 H   0  0  0  0  0  0  0  0  0  0  0  0
    3.2427    2.0411    0.9107 H   0  0  0  0  0  0  0  0  0  0  0  0
    4.5027    3.2748    0.8773 H   0  0  0  0  0  0  0  0  0  0  0  0
    3.8476   -2.1932   -4.4713 H   0  0  0  0  0  0  0  0  0  0  0  0
    4.5075   -0.8443   -3.8646 H   0  0  0  0  0  0  0  0  0  0  0  0
  1  2  1  0  0  0  0
  1  3  2  0  0  0  0
  1  4  1  0  0  0  0
  2 18  1  0  0  0  0
  2 19  1  0  0  0  0
  2 20  1  0  0  0  0
  4  5  1  0  0  0  0
  4 21  1  0  0  0  0
  5  6  1  0  0  0  0
  5 22  1  0  0  0  0
  5 23  1  0  0  0  0
  6  7  1  0  0  0  0
  6  8  1  0  0  0  0
  6 24  1  0  0  0  0
  7 25  1  0  0  0  0
  8  9  2  0  0  0  0
  8 13  1  0  0  0  0
  9 10  1  0  0  0  0
  9 16  1  0  0  0  0
 10 11  2  0  0  0  0
 10 26  1  0  0  0  0
 11 12  1  0  0  0  0
 11 27  1  0  0  0  0
 12 13  2  0  0  0  0
 12 14  1  0  0  0  0
 13 28  1  0  0  0  0
 14 15  1  0  0  0  0
 15 29  1  0  0  0  0
 15 30  1  0  0  0  0
 15 31  1  0  0  0  0
 16 17  1  0  0  0  0
 17 32  1  0  0  0  0
 17 33  1  0  0  0  0
 17 34  1  0  0  0  0
 18 35  1  0  0  0  0
 18 36  1  0  0  0  0
M  END
>  <Mol_ID>
3381

>  <Formula>
C12H18N2O4

>  <MolWeight>
254.28232

>  <Cat>
S5735

>  <Name>
Midodrine

>  <Synonyms>
N/A

>  <Target>
Adrenergic Receptor

>  <Form>
Free Base

>  <CAS>
42794-76-3

>  <URL>
http://www.selleckchem.com/products/midodrine.html

$$$$
