Miglustat
 OpenBabel08302521313D

 36 36  0  0  0  0  0  0  0  0999 V2000
    1.2337    0.0807    0.4748 C   0  0  1  0  0  0  0  0  0  0  0  0
   -0.0167    0.7255   -0.1304 C   0  0  1  0  0  0  0  0  0  0  0  0
   -1.2682   -0.0161    0.3225 C   0  0  2  0  0  0  0  0  0  0  0  0
   -1.1536   -1.4803   -0.1088 C   0  0  0  0  0  0  0  0  0  0  0  0
    0.0189   -2.1928    0.4411 N   0  0  0  0  0  0  0  0  0  0  0  0
    1.2999   -1.4450    0.1827 C   0  0  2  0  0  0  0  0  0  0  0  0
    0.1000   -3.5503   -0.1609 C   0  0  0  0  0  0  0  0  0  0  0  0
   -1.1197   -4.4715    0.0454 C   0  0  0  0  0  0  0  0  0  0  0  0
   -1.4783   -4.7689    1.5012 C   0  0  0  0  0  0  0  0  0  0  0  0
   -0.3846   -5.5209    2.2462 C   0  0  0  0  0  0  0  0  0  0  0  0
    2.4908   -2.0267    0.9957 C   0  0  0  0  0  0  0  0  0  0  0  0
   -0.0842    2.1165    0.2163 O   0  0  0  0  0  0  0  0  0  0  0  0
    2.4133    0.7034   -0.0680 O   0  0  0  0  0  0  0  0  0  0  0  0
   -2.4523    0.5516   -0.2492 O   0  0  0  0  0  0  0  0  0  0  0  0
    2.1985   -2.0739    2.3911 O   0  0  0  0  0  0  0  0  0  0  0  0
    1.2478    0.2712    1.5542 H   0  0  0  0  0  0  0  0  0  0  0  0
    0.0501    0.7173   -1.2313 H   0  0  0  0  0  0  0  0  0  0  0  0
   -1.3830    0.0584    1.4097 H   0  0  0  0  0  0  0  0  0  0  0  0
   -2.0805   -1.9744    0.2063 H   0  0  0  0  0  0  0  0  0  0  0  0
   -1.1491   -1.5217   -1.2083 H   0  0  0  0  0  0  0  0  0  0  0  0
    1.5611   -1.5457   -0.8809 H   0  0  0  0  0  0  0  0  0  0  0  0
    0.2662   -3.4613   -1.2425 H   0  0  0  0  0  0  0  0  0  0  0  0
    0.9631   -4.0850    0.2382 H   0  0  0  0  0  0  0  0  0  0  0  0
   -1.9986   -4.0473   -0.4560 H   0  0  0  0  0  0  0  0  0  0  0  0
   -0.9204   -5.4166   -0.4699 H   0  0  0  0  0  0  0  0  0  0  0  0
   -1.7206   -3.8454    2.0385 H   0  0  0  0  0  0  0  0  0  0  0  0
   -2.3870   -5.3842    1.5106 H   0  0  0  0  0  0  0  0  0  0  0  0
    0.5031   -4.8985    2.3863 H   0  0  0  0  0  0  0  0  0  0  0  0
   -0.7411   -5.8212    3.2356 H   0  0  0  0  0  0  0  0  0  0  0  0
   -0.0913   -6.4255    1.7036 H   0  0  0  0  0  0  0  0  0  0  0  0
    2.7469   -3.0391    0.6726 H   0  0  0  0  0  0  0  0  0  0  0  0
    3.3939   -1.4223    0.8619 H   0  0  0  0  0  0  0  0  0  0  0  0
   -0.1965    2.1812    1.1833 H   0  0  0  0  0  0  0  0  0  0  0  0
    2.1516    1.2722   -0.8138 H   0  0  0  0  0  0  0  0  0  0  0  0
   -2.2121    1.0008   -1.0785 H   0  0  0  0  0  0  0  0  0  0  0  0
    1.3619   -2.5681    2.4708 H   0  0  0  0  0  0  0  0  0  0  0  0
  1  2  1  0  0  0  0
  1 13  1  0  0  0  0
  1 16  1  1  0  0  0
  2  3  1  0  0  0  0
  2 12  1  0  0  0  0
  2 17  1  6  0  0  0
  3  4  1  0  0  0  0
  3 14  1  0  0  0  0
  3 18  1  1  0  0  0
  4  5  1  0  0  0  0
  4 19  1  0  0  0  0
  4 20  1  0  0  0  0
  5  6  1  0  0  0  0
  5  7  1  0  0  0  0
  6  1  1  0  0  0  0
  6 11  1  0  0  0  0
  6 21  1  6  0  0  0
  7  8  1  0  0  0  0
  7 22  1  0  0  0  0
  7 23  1  0  0  0  0
  8  9  1  0  0  0  0
  8 24  1  0  0  0  0
  8 25  1  0  0  0  0
  9 10  1  0  0  0  0
  9 26  1  0  0  0  0
  9 27  1  0  0  0  0
 10 28  1  0  0  0  0
 10 29  1  0  0  0  0
 10 30  1  0  0  0  0
 11 15  1  0  0  0  0
 11 31  1  0  0  0  0
 11 32  1  0  0  0  0
 12 33  1  0  0  0  0
 13 34  1  0  0  0  0
 14 35  1  0  0  0  0
 15 36  1  0  0  0  0
M  END
>  <Mol_ID>
5976

>  <Formula>
C10H21NO4

>  <MolWeight>
219.27804

>  <Cat>
E1029

>  <Name>
Miglustat

>  <Synonyms>
Zavesca, N©\butyldeoxynojirimycin, OGT 918

>  <Target>
Transferase

>  <Form>
Free Base

>  <CAS>
72599-27-0

>  <URL>
http://www.selleckchem.com/products/miglustat.html

$$$$
