Mildronate.cdx
 OpenBabel08302521383D

 25 24  0  0  0  0  0  0  0  0999 V2000
    0.8169   -2.2482    0.0773 O   0  0  0  0  0  0  0  0  0  0  0  0
    0.2750   -1.0450    0.3016 C   0  0  0  0  0  0  0  0  0  0  0  0
    0.9582   -0.0384    0.4407 O   0  0  0  0  0  0  0  0  0  0  0  0
   -1.2264   -1.0689    0.3313 C   0  0  0  0  0  0  0  0  0  0  0  0
   -1.7671    0.0421    1.2381 C   0  0  0  0  0  0  0  0  0  0  0  0
   -1.3951    1.3843    0.7372 N   0  0  0  0  0  0  0  0  0  0  0  0
   -1.8520    2.5293    1.5494 N   0  3  0  0  0  0  0  0  0  0  0  0
   -1.2977    2.4553    2.9645 C   0  0  0  0  0  0  0  0  0  0  0  0
   -1.2933    3.7770    0.8487 C   0  0  0  0  0  0  0  0  0  0  0  0
   -3.3734    2.5931    1.5259 C   0  0  0  0  0  0  0  0  0  0  0  0
    1.7901   -2.1225    0.0496 H   0  0  0  0  0  0  0  0  0  0  0  0
   -1.6045   -0.9709   -0.6912 H   0  0  0  0  0  0  0  0  0  0  0  0
   -1.5544   -2.0349    0.7334 H   0  0  0  0  0  0  0  0  0  0  0  0
   -2.8554   -0.0622    1.2785 H   0  0  0  0  0  0  0  0  0  0  0  0
   -1.3682   -0.1168    2.2459 H   0  0  0  0  0  0  0  0  0  0  0  0
   -0.3665    1.3861    0.5965 H   0  0  0  0  0  0  0  0  0  0  0  0
   -0.2094    2.3539    2.9121 H   0  0  0  0  0  0  0  0  0  0  0  0
   -1.5689    3.3821    3.4801 H   0  0  0  0  0  0  0  0  0  0  0  0
   -1.7507    1.6090    3.4872 H   0  0  0  0  0  0  0  0  0  0  0  0
   -1.6728    3.8023   -0.1776 H   0  0  0  0  0  0  0  0  0  0  0  0
   -1.6326    4.6570    1.4035 H   0  0  0  0  0  0  0  0  0  0  0  0
   -0.2000    3.7222    0.8589 H   0  0  0  0  0  0  0  0  0  0  0  0
   -3.7105    2.5864    0.4849 H   0  0  0  0  0  0  0  0  0  0  0  0
   -3.7788    1.7403    2.0780 H   0  0  0  0  0  0  0  0  0  0  0  0
   -3.6792    3.5205    2.0189 H   0  0  0  0  0  0  0  0  0  0  0  0
  1  2  1  0  0  0  0
  1 11  1  0  0  0  0
  2  3  2  0  0  0  0
  2  4  1  0  0  0  0
  4  5  1  0  0  0  0
  4 12  1  0  0  0  0
  4 13  1  0  0  0  0
  5  6  1  0  0  0  0
  5 14  1  0  0  0  0
  5 15  1  0  0  0  0
  6  7  1  0  0  0  0
  6 16  1  0  0  0  0
  7  8  1  0  0  0  0
  7  9  1  0  0  0  0
  7 10  1  0  0  0  0
  8 17  1  0  0  0  0
  8 18  1  0  0  0  0
  8 19  1  0  0  0  0
  9 20  1  0  0  0  0
  9 21  1  0  0  0  0
  9 22  1  0  0  0  0
 10 23  1  0  0  0  0
 10 24  1  0  0  0  0
 10 25  1  0  0  0  0
M  CHG  1   7   1
M  END
>  <Mol_ID>
7743

>  <Formula>
C6H15N2O2+

>  <MolWeight>
147.1955

>  <Cat>
S4130

>  <Name>
Mildronate

>  <Synonyms>
Meldonium, MET-88, Quaterin

>  <Target>
Hydroxylase

>  <Form>
free base

>  <CAS>
76144-81-5

>  <URL>
http://selleckchem.com/products/mildronate.html

$$$$
