Milnacipran hydrochloride.cdx
 OpenBabel08302520013D

 40 41  0  0  0  0  0  0  0  0999 V2000
    0.0627    0.7499   -0.0968 C   0  0  2  0  0  0  0  0  0  0  0  0
    0.8765   -0.5318    0.2119 C   0  0  1  0  0  0  0  0  0  0  0  0
   -0.6207   -0.5747   -0.2035 C   0  0  0  0  0  0  0  0  0  0  0  0
    1.8073   -1.1274   -0.8434 C   0  0  0  0  0  0  0  0  0  0  0  0
    2.9930   -0.4840   -1.2075 N   0  0  0  0  0  0  0  0  0  0  0  0
    1.4636   -2.1869   -1.3705 O   0  0  0  0  0  0  0  0  0  0  0  0
    3.7827   -1.0797   -2.2953 C   0  0  0  0  0  0  0  0  0  0  0  0
    4.9747   -1.8903   -1.8098 C   0  0  0  0  0  0  0  0  0  0  0  0
    0.1577    1.5736   -1.3406 C   0  0  0  0  0  0  0  0  0  0  0  0
   -0.8114    2.6577   -1.1982 N   0  0  0  0  0  0  0  0  0  0  0  0
    1.0265   -1.0405    1.6860 C   0  0  0  0  0  0  0  0  0  0  0  0
    0.5421   -0.3103    2.7952 C   0  0  0  0  0  0  0  0  0  0  0  0
    0.4579   -0.8637    4.0791 C   0  0  0  0  0  0  0  0  0  0  0  0
    0.8935   -2.1616    4.3033 C   0  0  0  0  0  0  0  0  0  0  0  0
    1.4469   -2.8863    3.2537 C   0  0  0  0  0  0  0  0  0  0  0  0
    1.5139   -2.3316    1.9673 C   0  0  0  0  0  0  0  0  0  0  0  0
    3.5736    0.6677   -0.5190 C   0  0  0  0  0  0  0  0  0  0  0  0
    4.2273    0.3225    0.8075 C   0  0  0  0  0  0  0  0  0  0  0  0
   -0.1732    1.3821    0.7502 H   0  0  0  0  0  0  0  0  0  0  0  0
   -1.3596   -0.8391    0.5453 H   0  0  0  0  0  0  0  0  0  0  0  0
   -0.8520   -0.9857   -1.1810 H   0  0  0  0  0  0  0  0  0  0  0  0
    3.1442   -1.7227   -2.9132 H   0  0  0  0  0  0  0  0  0  0  0  0
    4.1218   -0.2689   -2.9528 H   0  0  0  0  0  0  0  0  0  0  0  0
    4.6531   -2.7043   -1.1520 H   0  0  0  0  0  0  0  0  0  0  0  0
    5.5088   -2.3235   -2.6589 H   0  0  0  0  0  0  0  0  0  0  0  0
    5.6822   -1.2651   -1.2592 H   0  0  0  0  0  0  0  0  0  0  0  0
    1.1462    2.0167   -1.4513 H   0  0  0  0  0  0  0  0  0  0  0  0
   -0.0633    0.9946   -2.2407 H   0  0  0  0  0  0  0  0  0  0  0  0
   -0.8017    3.2327   -2.0378 H   0  0  0  0  0  0  0  0  0  0  0  0
   -1.7496    2.2645   -1.1304 H   0  0  0  0  0  0  0  0  0  0  0  0
    0.1569    0.6970    2.6687 H   0  0  0  0  0  0  0  0  0  0  0  0
    0.0192   -0.2871    4.8895 H   0  0  0  0  0  0  0  0  0  0  0  0
    0.7914   -2.6103    5.2880 H   0  0  0  0  0  0  0  0  0  0  0  0
    1.7984   -3.9005    3.4222 H   0  0  0  0  0  0  0  0  0  0  0  0
    1.9144   -2.9495    1.1671 H   0  0  0  0  0  0  0  0  0  0  0  0
    4.3157    1.1247   -1.1859 H   0  0  0  0  0  0  0  0  0  0  0  0
    2.8058    1.4197   -0.3428 H   0  0  0  0  0  0  0  0  0  0  0  0
    4.7726   -0.6229    0.7699 H   0  0  0  0  0  0  0  0  0  0  0  0
    4.9235    1.1156    1.0976 H   0  0  0  0  0  0  0  0  0  0  0  0
    3.4780    0.2465    1.5971 H   0  0  0  0  0  0  0  0  0  0  0  0
  1  2  1  0  0  0  0
  1 19  1  1  0  0  0
  1  9  1  0  0  0  0
  2  3  1  0  0  0  0
  2  4  1  6  0  0  0
  2 11  1  0  0  0  0
  3  1  1  0  0  0  0
  3 20  1  0  0  0  0
  3 21  1  0  0  0  0
  4  5  1  0  0  0  0
  4  6  2  0  0  0  0
  5  7  1  0  0  0  0
  5 17  1  0  0  0  0
  7  8  1  0  0  0  0
  7 22  1  0  0  0  0
  7 23  1  0  0  0  0
  8 24  1  0  0  0  0
  8 25  1  0  0  0  0
  8 26  1  0  0  0  0
  9 10  1  0  0  0  0
  9 27  1  0  0  0  0
  9 28  1  0  0  0  0
 10 29  1  0  0  0  0
 10 30  1  0  0  0  0
 11 12  2  0  0  0  0
 12 13  1  0  0  0  0
 12 31  1  0  0  0  0
 13 14  2  0  0  0  0
 13 32  1  0  0  0  0
 14 15  1  0  0  0  0
 14 33  1  0  0  0  0
 15 16  2  0  0  0  0
 15 34  1  0  0  0  0
 16 11  1  0  0  0  0
 16 35  1  0  0  0  0
 17 18  1  0  0  0  0
 17 36  1  0  0  0  0
 17 37  1  0  0  0  0
 18 38  1  0  0  0  0
 18 39  1  0  0  0  0
 18 40  1  0  0  0  0
M  END
>  <Mol_ID>
309

>  <Formula>
C15H23ClN2O

>  <MolWeight>
282.80892

>  <Cat>
S3140

>  <Name>
Milnacipran HCl

>  <Synonyms>
N/A

>  <Target>
Serotonin Transporter

>  <Form>
HCl

>  <CAS>
101152-94-7

>  <URL>
http://selleckchem.com/products/milnacipran-hydrochloride.html

$$$$
