MINA53 inhibitor (Compound 10)
 OpenBabel08302521333D

 34 35  0  0  0  0  0  0  0  0999 V2000
    2.4996   -2.0626   -0.3014 C   0  0  0  0  0  0  0  0  0  0  0  0
    2.2284   -2.8612    0.8227 C   0  0  0  0  0  0  0  0  0  0  0  0
    2.0628   -4.2455    0.7080 C   0  0  0  0  0  0  0  0  0  0  0  0
    2.1561   -4.8568   -0.5380 C   0  0  0  0  0  0  0  0  0  0  0  0
    2.4084   -4.0820   -1.6652 C   0  0  0  0  0  0  0  0  0  0  0  0
    2.5723   -2.6937   -1.5517 C   0  0  0  0  0  0  0  0  0  0  0  0
    2.6025   -0.5535   -0.1250 C   0  0  0  0  0  0  0  0  0  0  0  0
    3.6023    0.1847   -1.0355 C   0  0  0  0  0  0  0  0  0  0  0  0
    3.6550    1.7175   -0.8460 C   0  0  0  0  0  0  0  0  0  0  0  0
    4.2238    2.2240    0.8041 S   0  0  0  0  0  0  0  0  0  0  0  0
    4.1765    3.9632    0.7263 C   0  0  0  0  0  0  0  0  0  0  0  0
    4.4096    4.5154    1.9466 N   0  0  0  0  0  0  0  0  0  0  0  0
    4.2707    5.8549    2.1849 C   0  0  0  0  0  0  0  0  0  0  0  0
    4.1159    6.6926    0.9792 C   0  0  0  0  0  0  0  0  0  0  0  0
    3.9593    6.0316   -0.1796 C   0  0  0  0  0  0  0  0  0  0  0  0
    3.9460    4.6566   -0.3377 N   0  0  0  0  0  0  0  0  0  0  0  0
    4.1073    8.1631    0.9715 C   0  0  0  0  0  0  0  0  0  0  0  0
    3.6967    8.8683    0.0640 O   0  0  0  0  0  0  0  0  0  0  0  0
    4.6557    8.7131    2.0658 O   0  0  0  0  0  0  0  0  0  0  0  0
    4.2226    6.2819    3.3322 O   0  0  0  0  0  0  0  0  0  0  0  0
    2.1341   -2.4080    1.8073 H   0  0  0  0  0  0  0  0  0  0  0  0
    1.8522   -4.8439    1.5910 H   0  0  0  0  0  0  0  0  0  0  0  0
    2.0228   -5.9317   -0.6307 H   0  0  0  0  0  0  0  0  0  0  0  0
    2.4682   -4.5569   -2.6426 H   0  0  0  0  0  0  0  0  0  0  0  0
    2.7448   -2.1232   -2.4595 H   0  0  0  0  0  0  0  0  0  0  0  0
    1.5986   -0.1358   -0.2704 H   0  0  0  0  0  0  0  0  0  0  0  0
    2.8801   -0.3622    0.9182 H   0  0  0  0  0  0  0  0  0  0  0  0
    4.6052   -0.2414   -0.9041 H   0  0  0  0  0  0  0  0  0  0  0  0
    3.3306    0.0064   -2.0832 H   0  0  0  0  0  0  0  0  0  0  0  0
    4.3516    2.1292   -1.5847 H   0  0  0  0  0  0  0  0  0  0  0  0
    2.6668    2.1473   -1.0404 H   0  0  0  0  0  0  0  0  0  0  0  0
    4.5120    3.9098    2.7451 H   0  0  0  0  0  0  0  0  0  0  0  0
    3.8334    6.5921   -1.1078 H   0  0  0  0  0  0  0  0  0  0  0  0
    4.5683    9.6815    1.9474 H   0  0  0  0  0  0  0  0  0  0  0  0
  1  2  2  0  0  0  0
  1  7  1  0  0  0  0
  2  3  1  0  0  0  0
  2 21  1  0  0  0  0
  3  4  2  0  0  0  0
  3 22  1  0  0  0  0
  4  5  1  0  0  0  0
  4 23  1  0  0  0  0
  5  6  2  0  0  0  0
  5 24  1  0  0  0  0
  6  1  1  0  0  0  0
  6 25  1  0  0  0  0
  7  8  1  0  0  0  0
  7 26  1  0  0  0  0
  7 27  1  0  0  0  0
  8  9  1  0  0  0  0
  8 28  1  0  0  0  0
  8 29  1  0  0  0  0
  9 10  1  0  0  0  0
  9 30  1  0  0  0  0
  9 31  1  0  0  0  0
 10 11  1  0  0  0  0
 11 12  1  0  0  0  0
 12 13  1  0  0  0  0
 12 32  1  0  0  0  0
 13 14  1  0  0  0  0
 13 20  2  0  0  0  0
 14 15  2  0  0  0  0
 14 17  1  0  0  0  0
 15 16  1  0  0  0  0
 15 33  1  0  0  0  0
 16 11  2  0  0  0  0
 17 18  2  0  0  0  0
 17 19  1  0  0  0  0
 19 34  1  0  0  0  0
M  END
>  <Mol_ID>
6391

>  <Formula>
C14H14N2O3S

>  <MolWeight>
290.33756

>  <Cat>
E1064

>  <Name>
MINA53 inhibitor (Compound 10)

>  <Synonyms>
N/A

>  <Target>
Others

>  <Form>
free base

>  <URL>
http://www.selleckchem.com/products/mina53-inhibitor-compound-10.html

$$$$
