Minocycline hydrochloride.cdx
 OpenBabel08302521492D

 60 63  0  0  0  0  0  0  0  0999 V2000
    7.2501    3.4849    0.0000 C   0  0  2  0  0  0  0  0  0  0  0  0
    7.2501    2.1074    0.0000 C   0  0  2  0  0  0  0  0  0  0  0  0
    8.4778    4.1760    0.0000 C   0  0  1  0  0  0  0  0  0  0  0  0
    6.0757    4.1857    0.0000 C   0  0  0  0  0  0  0  0  0  0  0  0
    6.0370    1.4210    0.0000 C   0  0  0  0  0  0  0  0  0  0  0  0
    8.4778    1.3969    0.0000 C   0  0  0  0  0  0  0  0  0  0  0  0
    7.2452    0.6959    0.0000 O   0  0  0  0  0  0  0  0  0  0  0  0
    9.6958    3.4800    0.0000 C   0  0  0  0  0  0  0  0  0  0  0  0
    8.4924    5.5778    0.0000 N   0  0  0  0  0  0  0  0  0  0  0  0
    4.8528    3.4946    0.0000 C   0  0  1  0  0  0  0  0  0  0  0  0
    4.8528    2.1170    0.0000 C   0  0  0  0  0  0  0  0  0  0  0  0
    6.0321    0.0144    0.0000 O   0  0  0  0  0  0  0  0  0  0  0  0
    9.6814    2.0639    0.0000 C   0  0  0  0  0  0  0  0  0  0  0  0
    8.4586    0.0000    0.0000 O   0  0  0  0  0  0  0  0  0  0  0  0
   10.9188    4.1567    0.0000 O   0  0  0  0  0  0  0  0  0  0  0  0
    9.7152    6.2787    0.0000 C   0  0  0  0  0  0  0  0  0  0  0  0
    7.2742    6.2834    0.0000 C   0  0  0  0  0  0  0  0  0  0  0  0
    3.6541    4.2051    0.0000 C   0  0  0  0  0  0  0  0  0  0  0  0
    3.6347    1.4259    0.0000 C   0  0  0  0  0  0  0  0  0  0  0  0
   10.8995    1.3872    0.0000 C   0  0  0  0  0  0  0  0  0  0  0  0
    2.4264    3.5187    0.0000 C   0  0  0  0  0  0  0  0  0  0  0  0
    2.4264    2.1315    0.0000 C   0  0  0  0  0  0  0  0  0  0  0  0
    3.6251    0.0192    0.0000 O   0  0  0  0  0  0  0  0  0  0  0  0
   12.0788    2.1411    0.0000 N   0  0  0  0  0  0  0  0  0  0  0  0
   10.9817    0.0048    0.0000 O   0  0  0  0  0  0  0  0  0  0  0  0
    1.2228    4.2147    0.0000 C   0  0  0  0  0  0  0  0  0  0  0  0
    1.1987    1.4403    0.0000 C   0  0  0  0  0  0  0  0  0  0  0  0
    0.0048    3.5234    0.0000 C   0  0  0  0  0  0  0  0  0  0  0  0
    1.2228    5.6310    0.0000 N   0  0  0  0  0  0  0  0  0  0  0  0
    0.0000    2.1508    0.0000 C   0  0  0  0  0  0  0  0  0  0  0  0
    1.1938    0.0338    0.0000 O   0  0  0  0  0  0  0  0  0  0  0  0
    2.4457    6.3124    0.0000 C   0  0  0  0  0  0  0  0  0  0  0  0
    0.0097    6.3318    0.0000 C   0  0  0  0  0  0  0  0  0  0  0  0
    6.3196    2.9566    0.0000 H   0  0  0  0  0  0  0  0  0  0  0  0
    7.5569    4.7208    0.0000 H   0  0  0  0  0  0  0  0  0  0  0  0
    6.0883    5.2556    0.0000 H   0  0  0  0  0  0  0  0  0  0  0  0
    5.1547    4.7304    0.0000 H   0  0  0  0  0  0  0  0  0  0  0  0
    6.4035    0.2138    0.0000 H   0  0  0  0  0  0  0  0  0  0  0  0
    4.8639    4.5645    0.0000 H   0  0  0  0  0  0  0  0  0  0  0  0
    5.2190   -0.4513    0.0000 H   0  0  0  0  0  0  0  0  0  0  0  0
   11.7216    3.6735    0.0000 H   0  0  0  0  0  0  0  0  0  0  0  0
   10.6402    5.7408    0.0000 H   0  0  0  0  0  0  0  0  0  0  0  0
    9.7185    7.3487    0.0000 H   0  0  0  0  0  0  0  0  0  0  0  0
   10.6435    6.8108    0.0000 H   0  0  0  0  0  0  0  0  0  0  0  0
    7.2757    7.3534    0.0000 H   0  0  0  0  0  0  0  0  0  0  0  0
    6.3468    5.7497    0.0000 H   0  0  0  0  0  0  0  0  0  0  0  0
    6.3483    6.8197    0.0000 H   0  0  0  0  0  0  0  0  0  0  0  0
    3.6676    5.2750    0.0000 H   0  0  0  0  0  0  0  0  0  0  0  0
    2.7346    4.7523    0.0000 H   0  0  0  0  0  0  0  0  0  0  0  0
   12.9528    1.6879    0.0000 H   0  0  0  0  0  0  0  0  0  0  0  0
   12.0343    3.1246    0.0000 H   0  0  0  0  0  0  0  0  0  0  0  0
   -0.8861    4.0442    0.0000 H   0  0  0  0  0  0  0  0  0  0  0  0
   -0.8976    1.6415    0.0000 H   0  0  0  0  0  0  0  0  0  0  0  0
    0.3807   -0.4319    0.0000 H   0  0  0  0  0  0  0  0  0  0  0  0
    3.3641    5.7633    0.0000 H   0  0  0  0  0  0  0  0  0  0  0  0
    2.4620    7.3823    0.0000 H   0  0  0  0  0  0  0  0  0  0  0  0
    3.3804    6.8332    0.0000 H   0  0  0  0  0  0  0  0  0  0  0  0
    0.0100    7.4018    0.0000 H   0  0  0  0  0  0  0  0  0  0  0  0
   -0.9171    5.7970    0.0000 H   0  0  0  0  0  0  0  0  0  0  0  0
   -0.9168    6.8670    0.0000 H   0  0  0  0  0  0  0  0  0  0  0  0
  1  2  1  0  0  0  0
  1  3  1  0  0  0  0
  1  4  1  0  0  0  0
  1 34  1  6  0  0  0
  2  5  1  0  0  0  0
  2  6  1  0  0  0  0
  2  7  1  6  0  0  0
  3  8  1  0  0  0  0
  3  9  1  0  0  0  0
  3 35  1  1  0  0  0
  4 36  1  0  0  0  0
  4 37  1  0  0  0  0
  5 11  2  0  0  0  0
  5 12  1  0  0  0  0
  6 13  1  0  0  0  0
  6 14  2  0  0  0  0
  7 38  1  0  0  0  0
  8 15  1  0  0  0  0
  8 13  2  0  0  0  0
  9 16  1  0  0  0  0
  9 17  1  0  0  0  0
 10  4  1  0  0  0  0
 10 18  1  0  0  0  0
 10 11  1  0  0  0  0
 10 39  1  6  0  0  0
 11 19  1  0  0  0  0
 12 40  1  0  0  0  0
 13 20  1  0  0  0  0
 15 41  1  0  0  0  0
 16 42  1  0  0  0  0
 16 43  1  0  0  0  0
 16 44  1  0  0  0  0
 17 45  1  0  0  0  0
 17 46  1  0  0  0  0
 17 47  1  0  0  0  0
 18 21  1  0  0  0  0
 18 48  1  0  0  0  0
 18 49  1  0  0  0  0
 19 22  1  0  0  0  0
 19 23  2  0  0  0  0
 20 24  1  0  0  0  0
 20 25  2  0  0  0  0
 21 26  2  0  0  0  0
 21 22  1  0  0  0  0
 22 27  2  0  0  0  0
 24 50  1  0  0  0  0
 24 51  1  0  0  0  0
 26 28  1  0  0  0  0
 26 29  1  0  0  0  0
 27 30  1  0  0  0  0
 27 31  1  0  0  0  0
 28 30  2  0  0  0  0
 28 52  1  0  0  0  0
 29 32  1  0  0  0  0
 29 33  1  0  0  0  0
 30 53  1  0  0  0  0
 31 54  1  0  0  0  0
 32 55  1  0  0  0  0
 32 56  1  0  0  0  0
 32 57  1  0  0  0  0
 33 58  1  0  0  0  0
 33 59  1  0  0  0  0
 33 60  1  0  0  0  0
M  END
>  <Mol_ID>
8153

>  <Formula>
C23H28ClN3O7

>  <MolWeight>
493.93732

>  <Cat>
S4226

>  <Name>
Minocycline (CL 59806) HCl

>  <Synonyms>
Minocin

>  <Target>
Antibiotics

>  <Form>
Hydrochloride

>  <CAS>
13614-98-7

>  <URL>
http://selleckchem.com/products/minocycline-hcl.html

$$$$
