Minoxidil
 OpenBabel08302521393D

 30 31  0  0  0  0  0  0  0  0999 V2000
    0.4389    0.3678    0.4052 N   0  0  0  0  0  0  0  0  0  0  0  0
   -2.0288   -3.8035    0.1314 N   0  0  0  0  0  0  0  0  0  0  0  0
   -1.2852   -1.3353   -0.8843 O   0  5  0  0  0  0  0  0  0  0  0  0
    0.1284   -2.4968    2.7352 C   0  0  0  0  0  0  0  0  0  0  0  0
    0.5297   -1.2834    2.2008 C   0  0  0  0  0  0  0  0  0  0  0  0
   -0.6904   -3.3216    2.0431 N   0  0  0  0  0  0  0  0  0  0  0  0
    0.0644   -0.8873    0.9543 C   0  0  0  0  0  0  0  0  0  0  0  0
   -1.1595   -2.9478    0.8226 C   0  0  0  0  0  0  0  0  0  0  0  0
   -0.8135   -1.7166    0.2579 N   0  3  0  0  0  0  0  0  0  0  0  0
    0.5798   -2.8803    3.9812 N   0  0  0  0  0  0  0  0  0  0  0  0
    0.7435   -4.2956    4.3052 C   0  0  0  0  0  0  0  0  0  0  0  0
    0.6660   -1.9209    5.0798 C   0  0  0  0  0  0  0  0  0  0  0  0
   -0.1744   -4.7101    5.4527 C   0  0  0  0  0  0  0  0  0  0  0  0
   -0.2879   -2.3171    6.2048 C   0  0  0  0  0  0  0  0  0  0  0  0
   -0.0599   -3.7593    6.6425 C   0  0  0  0  0  0  0  0  0  0  0  0
   -0.0118    0.4165   -0.5189 H   0  0  0  0  0  0  0  0  0  0  0  0
    1.4467    0.4639    0.3303 H   0  0  0  0  0  0  0  0  0  0  0  0
   -2.5098   -3.2706   -0.5920 H   0  0  0  0  0  0  0  0  0  0  0  0
   -2.5938   -4.3496    0.7679 H   0  0  0  0  0  0  0  0  0  0  0  0
    1.2183   -0.6393    2.7344 H   0  0  0  0  0  0  0  0  0  0  0  0
    1.7867   -4.4519    4.6093 H   0  0  0  0  0  0  0  0  0  0  0  0
    0.5813   -4.9537    3.4440 H   0  0  0  0  0  0  0  0  0  0  0  0
    0.4112   -0.8995    4.7751 H   0  0  0  0  0  0  0  0  0  0  0  0
    1.6977   -1.8947    5.4495 H   0  0  0  0  0  0  0  0  0  0  0  0
    0.0771   -5.7277    5.7738 H   0  0  0  0  0  0  0  0  0  0  0  0
   -1.2133   -4.7294    5.1026 H   0  0  0  0  0  0  0  0  0  0  0  0
   -1.3249   -2.2017    5.8645 H   0  0  0  0  0  0  0  0  0  0  0  0
   -0.1516   -1.6421    7.0569 H   0  0  0  0  0  0  0  0  0  0  0  0
   -0.7914   -4.0344    7.4103 H   0  0  0  0  0  0  0  0  0  0  0  0
    0.9344   -3.8514    7.0966 H   0  0  0  0  0  0  0  0  0  0  0  0
  1  7  1  0  0  0  0
  1 16  1  0  0  0  0
  1 17  1  0  0  0  0
  2  8  1  0  0  0  0
  2 18  1  0  0  0  0
  2 19  1  0  0  0  0
  3  9  1  0  0  0  0
  4  5  2  0  0  0  0
  4  6  1  0  0  0  0
  4 10  1  0  0  0  0
  5  7  1  0  0  0  0
  5 20  1  0  0  0  0
  6  8  2  0  0  0  0
  7  9  2  0  0  0  0
  8  9  1  0  0  0  0
 10 11  1  0  0  0  0
 10 12  1  0  0  0  0
 11 13  1  0  0  0  0
 11 21  1  0  0  0  0
 11 22  1  0  0  0  0
 12 14  1  0  0  0  0
 12 23  1  0  0  0  0
 12 24  1  0  0  0  0
 13 15  1  0  0  0  0
 13 25  1  0  0  0  0
 13 26  1  0  0  0  0
 14 15  1  0  0  0  0
 14 27  1  0  0  0  0
 14 28  1  0  0  0  0
 15 29  1  0  0  0  0
 15 30  1  0  0  0  0
M  CHG  2   3  -1   9   1
M  END
>  <Mol_ID>
7987

>  <Formula>
C9H15N5O

>  <MolWeight>
209.2483

>  <Cat>
S1383

>  <Name>
Minoxidil

>  <Synonyms>
U-10858

>  <Target>
Potassium Channel

>  <Form>
Free base

>  <CAS>
38304-91-5

>  <URL>
https://www.selleckchem.com/products/Minoxidil

$$$$
