Mirin.cdx
 OpenBabel08302520413D

 23 24  0  0  0  0  0  0  0  0999 V2000
   -0.9428   -0.5447   -1.5549 C   0  0  0  0  0  0  0  0  0  0  0  0
   -0.5168    1.1211   -1.3359 S   0  0  0  0  0  0  0  0  0  0  0  0
    0.9678    0.7041   -0.5596 C   0  0  0  0  0  0  0  0  0  0  0  0
    1.0776   -0.7789   -0.4528 C   0  0  0  0  0  0  0  0  0  0  0  0
   -0.0186   -1.3693   -1.0202 N   0  0  0  0  0  0  0  0  0  0  0  0
    2.0037   -1.3881    0.0575 O   0  0  0  0  0  0  0  0  0  0  0  0
   -2.0024   -0.9422   -2.1538 N   0  0  0  0  0  0  0  0  0  0  0  0
    1.9278    1.5269   -0.1165 C   0  0  0  0  0  0  0  0  0  0  0  0
    1.8845    2.9903   -0.1893 C   0  0  0  0  0  0  0  0  0  0  0  0
    1.3287    3.7401    0.8559 C   0  0  0  0  0  0  0  0  0  0  0  0
    1.2619    5.1340    0.7699 C   0  0  0  0  0  0  0  0  0  0  0  0
    1.7615    5.7731   -0.3598 C   0  0  0  0  0  0  0  0  0  0  0  0
    2.3294    5.0437   -1.3978 C   0  0  0  0  0  0  0  0  0  0  0  0
    2.3911    3.6507   -1.3141 C   0  0  0  0  0  0  0  0  0  0  0  0
    1.7095    7.1292   -0.4892 O   0  0  0  0  0  0  0  0  0  0  0  0
   -0.0879   -2.3727   -1.0337 H   0  0  0  0  0  0  0  0  0  0  0  0
   -2.0459   -1.9612   -2.1755 H   0  0  0  0  0  0  0  0  0  0  0  0
    2.8349    1.1169    0.3224 H   0  0  0  0  0  0  0  0  0  0  0  0
    0.9378    3.2479    1.7440 H   0  0  0  0  0  0  0  0  0  0  0  0
    0.8141    5.6960    1.5838 H   0  0  0  0  0  0  0  0  0  0  0  0
    2.7154    5.5561   -2.2741 H   0  0  0  0  0  0  0  0  0  0  0  0
    2.8299    3.0893   -2.1349 H   0  0  0  0  0  0  0  0  0  0  0  0
    1.2809    7.4983    0.3003 H   0  0  0  0  0  0  0  0  0  0  0  0
  1  2  1  0  0  0  0
  1  7  2  0  0  0  0
  2  3  1  0  0  0  0
  3  4  1  0  0  0  0
  3  8  2  0  0  0  0
  4  5  1  0  0  0  0
  4  6  2  0  0  0  0
  5  1  1  0  0  0  0
  5 16  1  0  0  0  0
  7 17  1  0  0  0  0
  8  9  1  0  0  0  0
  8 18  1  0  0  0  0
  9 10  2  0  0  0  0
 10 11  1  0  0  0  0
 10 19  1  0  0  0  0
 11 12  2  0  0  0  0
 11 20  1  0  0  0  0
 12 13  1  0  0  0  0
 12 15  1  0  0  0  0
 13 14  2  0  0  0  0
 13 21  1  0  0  0  0
 14  9  1  0  0  0  0
 14 22  1  0  0  0  0
 15 23  1  0  0  0  0
M  END
>  <Mol_ID>
3915

>  <Formula>
C10H8N2O2S

>  <MolWeight>
220.24772

>  <Cat>
S8096

>  <Name>
Mirin

>  <Synonyms>
N/A

>  <Target>
ATM/ATR

>  <Form>
free base

>  <CAS>
1198097-97-0

>  <URL>
http://selleckchem.com/products/mirin.html

$$$$
