Mirogabalin (DS-5565)
 OpenBabel08302521453D

 34 35  0  0  0  0  0  0  0  0999 V2000
   -0.1902   -1.3128   -1.5862 C   0  0  0  0  0  0  0  0  0  0  0  0
    0.0853   -1.3369   -0.1008 C   0  0  0  0  0  0  0  0  0  0  0  0
    0.5999   -1.6433   -2.4565 O   0  0  0  0  0  0  0  0  0  0  0  0
   -1.4035   -0.7869   -1.8812 O   0  0  0  0  0  0  0  0  0  0  0  0
    2.6227   -1.2102    1.5891 C   0  0  1  0  0  0  0  0  0  0  0  0
    1.8729   -0.0246    2.2534 C   0  0  0  0  0  0  0  0  0  0  0  0
    0.7816   -0.6803    3.0745 C   0  0  0  0  0  0  0  0  0  0  0  0
    0.7196   -2.0023    2.8857 C   0  0  0  0  0  0  0  0  0  0  0  0
    1.6860   -2.4074    1.8636 C   0  0  1  0  0  0  0  0  0  0  0  0
    1.1970   -2.3283    0.3488 C   0  0  2  0  0  0  0  0  0  0  0  0
    2.6006   -1.6924    0.0912 C   0  0  0  0  0  0  0  0  0  0  0  0
   -0.1708    0.0669    3.9473 C   0  0  0  0  0  0  0  0  0  0  0  0
    0.4996    0.9353    4.9964 C   0  0  0  0  0  0  0  0  0  0  0  0
    0.8910   -3.7557   -0.1440 C   0  0  0  0  0  0  0  0  0  0  0  0
   -0.2768   -4.2934    0.5627 N   0  0  0  0  0  0  0  0  0  0  0  0
    0.3511   -0.3024    0.1295 H   0  0  0  0  0  0  0  0  0  0  0  0
   -0.8442   -1.5632    0.4305 H   0  0  0  0  0  0  0  0  0  0  0  0
   -1.9201   -0.5445   -1.0897 H   0  0  0  0  0  0  0  0  0  0  0  0
    3.6226   -1.3009    2.0349 H   0  0  0  0  0  0  0  0  0  0  0  0
    1.4636    0.6734    1.5205 H   0  0  0  0  0  0  0  0  0  0  0  0
    2.5559    0.5307    2.9023 H   0  0  0  0  0  0  0  0  0  0  0  0
    0.0288   -2.6839    3.3633 H   0  0  0  0  0  0  0  0  0  0  0  0
    2.2351   -3.3220    2.1240 H   0  0  0  0  0  0  0  0  0  0  0  0
    3.3785   -2.4417   -0.1191 H   0  0  0  0  0  0  0  0  0  0  0  0
    2.6820   -0.9111   -0.6681 H   0  0  0  0  0  0  0  0  0  0  0  0
   -0.8262    0.6800    3.3208 H   0  0  0  0  0  0  0  0  0  0  0  0
   -0.8273   -0.6464    4.4691 H   0  0  0  0  0  0  0  0  0  0  0  0
    1.0539    1.7561    4.5322 H   0  0  0  0  0  0  0  0  0  0  0  0
   -0.2594    1.3718    5.6546 H   0  0  0  0  0  0  0  0  0  0  0  0
    1.1918    0.3548    5.6141 H   0  0  0  0  0  0  0  0  0  0  0  0
    0.6803   -3.7752   -1.2147 H   0  0  0  0  0  0  0  0  0  0  0  0
    1.7457   -4.4185    0.0201 H   0  0  0  0  0  0  0  0  0  0  0  0
   -0.5064   -5.2092    0.1794 H   0  0  0  0  0  0  0  0  0  0  0  0
   -0.0346   -4.4673    1.5382 H   0  0  0  0  0  0  0  0  0  0  0  0
  1  2  1  0  0  0  0
  1  3  2  0  0  0  0
  1  4  1  0  0  0  0
  2 16  1  0  0  0  0
  2 17  1  0  0  0  0
  4 18  1  0  0  0  0
  5  6  1  0  0  0  0
  5 11  1  0  0  0  0
  5  9  1  0  0  0  0
  5 19  1  1  0  0  0
  6  7  1  0  0  0  0
  6 20  1  0  0  0  0
  6 21  1  0  0  0  0
  7  8  2  0  0  0  0
  7 12  1  0  0  0  0
  8 22  1  0  0  0  0
  9  8  1  0  0  0  0
  9 10  1  0  0  0  0
  9 23  1  1  0  0  0
 10 11  1  0  0  0  0
 10 14  1  6  0  0  0
 10  2  1  0  0  0  0
 11 24  1  0  0  0  0
 11 25  1  0  0  0  0
 12 13  1  0  0  0  0
 12 26  1  0  0  0  0
 12 27  1  0  0  0  0
 13 28  1  0  0  0  0
 13 29  1  0  0  0  0
 13 30  1  0  0  0  0
 14 15  1  0  0  0  0
 14 31  1  0  0  0  0
 14 32  1  0  0  0  0
 15 33  1  0  0  0  0
 15 34  1  0  0  0  0
M  END
>  <Mol_ID>
9346

>  <Formula>
C12H19NO2

>  <MolWeight>
209.28476

>  <Cat>
S6632

>  <Name>
Mirogabalin (DS-5565)

>  <Synonyms>
N/A

>  <Target>
Others

>  <Form>
Free Base

>  <CAS>
1138245-13-2

>  <URL>
http://www.selleck.cn/products/mirogabalin-ds-5565.html

$$$$
