MIRTAZAPINE (mirtazapine).cdx
 OpenBabel08302521443D

 39 42  0  0  0  0  0  0  0  0999 V2000
   -0.1509   -0.8795   -1.2306 C   0  0  0  0  0  0  0  0  0  0  0  0
    0.9052   -0.0792   -0.5371 C   0  0  0  0  0  0  0  0  0  0  0  0
    0.7731    1.2800   -0.2266 C   0  0  0  0  0  0  0  0  0  0  0  0
   -0.3594    2.0481   -0.4376 N   0  0  0  0  0  0  0  0  0  0  0  0
   -1.6042    1.6635   -1.1918 C   0  0  3  0  0  0  0  0  0  0  0  0
   -2.2619    0.3653   -0.6924 C   0  0  0  0  0  0  0  0  0  0  0  0
   -1.5037   -0.8098   -0.5856 C   0  0  0  0  0  0  0  0  0  0  0  0
   -3.6218    0.2724   -0.3396 C   0  0  0  0  0  0  0  0  0  0  0  0
   -4.1420   -0.8411    0.3193 C   0  0  0  0  0  0  0  0  0  0  0  0
   -3.3246   -1.9275    0.5795 C   0  0  0  0  0  0  0  0  0  0  0  0
   -2.0220   -1.9298    0.0918 C   0  0  0  0  0  0  0  0  0  0  0  0
    2.1126   -0.7514   -0.2350 C   0  0  0  0  0  0  0  0  0  0  0  0
    3.1600   -0.0888    0.3747 C   0  0  0  0  0  0  0  0  0  0  0  0
    2.9670    1.2421    0.6610 C   0  0  0  0  0  0  0  0  0  0  0  0
    1.8244    1.9025    0.3729 N   0  0  0  0  0  0  0  0  0  0  0  0
   -0.1422    3.5158   -0.3455 C   0  0  0  0  0  0  0  0  0  0  0  0
   -1.3098    4.2272    0.3778 C   0  0  0  0  0  0  0  0  0  0  0  0
   -2.6578    3.6760    0.1232 N   0  0  0  0  0  0  0  0  0  0  0  0
   -2.6001    2.9045   -1.1518 C   0  0  0  0  0  0  0  0  0  0  0  0
   -3.0493    2.8583    1.2813 C   0  0  0  0  0  0  0  0  0  0  0  0
   -0.2170   -0.5625   -2.2799 H   0  0  0  0  0  0  0  0  0  0  0  0
    0.1478   -1.9355   -1.2885 H   0  0  0  0  0  0  0  0  0  0  0  0
   -1.3384    1.5158   -2.2509 H   0  0  0  0  0  0  0  0  0  0  0  0
   -4.3210    1.0817   -0.5163 H   0  0  0  0  0  0  0  0  0  0  0  0
   -5.1773   -0.8349    0.6501 H   0  0  0  0  0  0  0  0  0  0  0  0
   -3.7101   -2.7770    1.1339 H   0  0  0  0  0  0  0  0  0  0  0  0
   -1.4056   -2.8119    0.2464 H   0  0  0  0  0  0  0  0  0  0  0  0
    2.2321   -1.8046   -0.4797 H   0  0  0  0  0  0  0  0  0  0  0  0
    4.0887   -0.5890    0.6196 H   0  0  0  0  0  0  0  0  0  0  0  0
    3.7375    1.8305    1.1408 H   0  0  0  0  0  0  0  0  0  0  0  0
   -0.0460    3.9119   -1.3656 H   0  0  0  0  0  0  0  0  0  0  0  0
    0.7692    3.8249    0.1760 H   0  0  0  0  0  0  0  0  0  0  0  0
   -1.0969    4.2645    1.4541 H   0  0  0  0  0  0  0  0  0  0  0  0
   -1.3206    5.2762    0.0528 H   0  0  0  0  0  0  0  0  0  0  0  0
   -2.2684    3.6137   -1.9283 H   0  0  0  0  0  0  0  0  0  0  0  0
   -3.6063    2.6488   -1.4943 H   0  0  0  0  0  0  0  0  0  0  0  0
   -4.0591    2.4577    1.1610 H   0  0  0  0  0  0  0  0  0  0  0  0
   -2.3520    2.0408    1.4951 H   0  0  0  0  0  0  0  0  0  0  0  0
   -3.0917    3.4755    2.1854 H   0  0  0  0  0  0  0  0  0  0  0  0
  1  2  1  0  0  0  0
  1 21  1  0  0  0  0
  1 22  1  0  0  0  0
  2  3  2  0  0  0  0
  2 12  1  0  0  0  0
  3  4  1  0  0  0  0
  4  5  1  0  0  0  0
  4 16  1  0  0  0  0
  5  6  1  0  0  0  0
  5 23  1  0  0  0  0
  6  7  2  0  0  0  0
  6  8  1  0  0  0  0
  7  1  1  0  0  0  0
  8  9  2  0  0  0  0
  8 24  1  0  0  0  0
  9 10  1  0  0  0  0
  9 25  1  0  0  0  0
 10 11  2  0  0  0  0
 10 26  1  0  0  0  0
 11  7  1  0  0  0  0
 11 27  1  0  0  0  0
 12 13  2  0  0  0  0
 12 28  1  0  0  0  0
 13 14  1  0  0  0  0
 13 29  1  0  0  0  0
 14 15  2  0  0  0  0
 14 30  1  0  0  0  0
 15  3  1  0  0  0  0
 16 17  1  0  0  0  0
 16 31  1  0  0  0  0
 16 32  1  0  0  0  0
 17 18  1  0  0  0  0
 17 33  1  0  0  0  0
 17 34  1  0  0  0  0
 18 19  1  0  0  0  0
 18 20  1  0  0  0  0
 19  5  1  0  0  0  0
 19 35  1  0  0  0  0
 19 36  1  0  0  0  0
 20 37  1  0  0  0  0
 20 38  1  0  0  0  0
 20 39  1  0  0  0  0
M  END
>  <Mol_ID>
913

>  <Formula>
C17H19N3

>  <MolWeight>
265.35286

>  <Cat>
S2016

>  <Name>
Mirtazapine

>  <Synonyms>
Org3770,6-Azamianserin

>  <Target>
5-HT Receptor

>  <Form>
free base

>  <CAS>
85650-52-8

>  <URL>
http://selleckchem.com/products/mirtazapine-remeron-avanza.html

$$$$
