Misoprostol.cdx
 OpenBabel08302519573D

 65 65  0  0  0  0  0  0  0  0999 V2000
   -0.5695   -1.0666   -0.1791 C   0  0  0  0  0  0  0  0  0  0  0  0
    0.9299   -1.1164   -0.1284 C   0  0  0  0  0  0  0  0  0  0  0  0
    1.3249    0.3375    0.0957 C   0  0  3  0  0  0  0  0  0  0  0  0
    0.0579    1.1827   -0.1921 C   0  0  1  0  0  0  0  0  0  0  0  0
   -1.1245    0.2871    0.2296 C   0  0  1  0  0  0  0  0  0  0  0  0
   -1.2428   -2.0483   -0.4717 O   0  0  0  0  0  0  0  0  0  0  0  0
    1.8252    0.4902    1.4241 O   0  0  0  0  0  0  0  0  0  0  0  0
    0.0870    2.5169    0.5103 C   0  0  0  0  0  0  0  0  0  0  0  0
   -2.4565    0.6621   -0.4389 C   0  0  0  0  0  0  0  0  0  0  0  0
   -3.6345   -0.1949    0.0559 C   0  0  0  0  0  0  0  0  0  0  0  0
   -4.9645    0.1923   -0.5997 C   0  0  0  0  0  0  0  0  0  0  0  0
   -6.1039   -0.7297   -0.1395 C   0  0  0  0  0  0  0  0  0  0  0  0
   -7.4330   -0.3530   -0.7986 C   0  0  0  0  0  0  0  0  0  0  0  0
   -8.5783   -1.2574   -0.3522 C   0  0  0  0  0  0  0  0  0  0  0  0
   -9.8814   -0.8245   -0.9913 C   0  0  0  0  0  0  0  0  0  0  0  0
  -10.4175   -1.8378   -1.7214 O   0  0  0  0  0  0  0  0  0  0  0  0
  -11.6467   -1.5033   -2.3743 C   0  0  0  0  0  0  0  0  0  0  0  0
  -10.3702    0.2903   -0.8650 O   0  0  0  0  0  0  0  0  0  0  0  0
    0.0789    3.7066   -0.1079 C   0  0  0  0  0  0  0  0  0  0  0  0
    0.2207    5.0228    0.6167 C   0  0  0  0  0  0  0  0  0  0  0  0
   -1.0115    5.9511    0.5098 C   0  0  3  0  0  0  0  0  0  0  0  0
   -2.3122    5.3280    1.0706 C   0  0  0  0  0  0  0  0  0  0  0  0
   -2.2781    4.9353    2.5527 C   0  0  0  0  0  0  0  0  0  0  0  0
   -3.6080    4.3147    2.9927 C   0  0  0  0  0  0  0  0  0  0  0  0
   -3.5849    3.9125    4.4600 C   0  0  0  0  0  0  0  0  0  0  0  0
   -0.6839    7.2931    1.1781 C   0  0  0  0  0  0  0  0  0  0  0  0
   -1.2293    6.2309   -0.8845 O   0  0  0  0  0  0  0  0  0  0  0  0
    1.2387   -1.7628    0.7036 H   0  0  0  0  0  0  0  0  0  0  0  0
    1.3098   -1.5007   -1.0775 H   0  0  0  0  0  0  0  0  0  0  0  0
    2.1402    0.6199   -0.5801 H   0  0  0  0  0  0  0  0  0  0  0  0
    0.0048    1.3347   -1.2818 H   0  0  0  0  0  0  0  0  0  0  0  0
   -1.2353    0.2811    1.3240 H   0  0  0  0  0  0  0  0  0  0  0  0
    1.0977    0.3979    2.0603 H   0  0  0  0  0  0  0  0  0  0  0  0
    0.1680    2.4986    1.5958 H   0  0  0  0  0  0  0  0  0  0  0  0
   -2.6801    1.7149   -0.2280 H   0  0  0  0  0  0  0  0  0  0  0  0
   -2.3708    0.5654   -1.5286 H   0  0  0  0  0  0  0  0  0  0  0  0
   -3.4491   -1.2510   -0.1592 H   0  0  0  0  0  0  0  0  0  0  0  0
   -3.7216   -0.1003    1.1448 H   0  0  0  0  0  0  0  0  0  0  0  0
   -5.2083    1.2321   -0.3525 H   0  0  0  0  0  0  0  0  0  0  0  0
   -4.8677    0.1306   -1.6905 H   0  0  0  0  0  0  0  0  0  0  0  0
   -5.8565   -1.7704   -0.3854 H   0  0  0  0  0  0  0  0  0  0  0  0
   -6.2041   -0.6726    0.9513 H   0  0  0  0  0  0  0  0  0  0  0  0
   -7.6735    0.6916   -0.5595 H   0  0  0  0  0  0  0  0  0  0  0  0
   -7.3324   -0.4081   -1.8898 H   0  0  0  0  0  0  0  0  0  0  0  0
   -8.3643   -2.2998   -0.6226 H   0  0  0  0  0  0  0  0  0  0  0  0
   -8.7169   -1.2277    0.7340 H   0  0  0  0  0  0  0  0  0  0  0  0
  -12.4445   -1.3843   -1.6353 H   0  0  0  0  0  0  0  0  0  0  0  0
  -11.5369   -0.5955   -2.9768 H   0  0  0  0  0  0  0  0  0  0  0  0
  -11.9126   -2.3270   -3.0430 H   0  0  0  0  0  0  0  0  0  0  0  0
    0.0134    3.7693   -1.1929 H   0  0  0  0  0  0  0  0  0  0  0  0
    0.4713    4.8530    1.6715 H   0  0  0  0  0  0  0  0  0  0  0  0
    1.0911    5.5282    0.1767 H   0  0  0  0  0  0  0  0  0  0  0  0
   -3.1385    6.0339    0.9087 H   0  0  0  0  0  0  0  0  0  0  0  0
   -2.5792    4.4497    0.4682 H   0  0  0  0  0  0  0  0  0  0  0  0
   -1.4770    4.2110    2.7332 H   0  0  0  0  0  0  0  0  0  0  0  0
   -2.0679    5.8148    3.1711 H   0  0  0  0  0  0  0  0  0  0  0  0
   -4.4265    5.0255    2.8293 H   0  0  0  0  0  0  0  0  0  0  0  0
   -3.8214    3.4284    2.3837 H   0  0  0  0  0  0  0  0  0  0  0  0
   -3.5077    4.7929    5.1059 H   0  0  0  0  0  0  0  0  0  0  0  0
   -4.5056    3.3811    4.7222 H   0  0  0  0  0  0  0  0  0  0  0  0
   -2.7396    3.2516    4.6766 H   0  0  0  0  0  0  0  0  0  0  0  0
    0.1013    7.8183    0.6201 H   0  0  0  0  0  0  0  0  0  0  0  0
   -1.5557    7.9569    1.1760 H   0  0  0  0  0  0  0  0  0  0  0  0
   -0.3437    7.1690    2.2106 H   0  0  0  0  0  0  0  0  0  0  0  0
   -1.9672    6.8609   -0.9506 H   0  0  0  0  0  0  0  0  0  0  0  0
  1  2  1  0  0  0  0
  1  6  2  0  0  0  0
  2  3  1  0  0  0  0
  2 28  1  0  0  0  0
  2 29  1  0  0  0  0
  3  4  1  0  0  0  0
  3  7  1  0  0  0  0
  3 30  1  0  0  0  0
  4  5  1  0  0  0  0
  4  8  1  0  0  0  0
  4 31  1  6  0  0  0
  5  1  1  0  0  0  0
  5  9  1  0  0  0  0
  5 32  1  1  0  0  0
  7 33  1  0  0  0  0
  8 19  2  0  0  0  0
  8 34  1  0  0  0  0
  9 10  1  0  0  0  0
  9 35  1  0  0  0  0
  9 36  1  0  0  0  0
 10 11  1  0  0  0  0
 10 37  1  0  0  0  0
 10 38  1  0  0  0  0
 11 12  1  0  0  0  0
 11 39  1  0  0  0  0
 11 40  1  0  0  0  0
 12 13  1  0  0  0  0
 12 41  1  0  0  0  0
 12 42  1  0  0  0  0
 13 14  1  0  0  0  0
 13 43  1  0  0  0  0
 13 44  1  0  0  0  0
 14 15  1  0  0  0  0
 14 45  1  0  0  0  0
 14 46  1  0  0  0  0
 15 16  1  0  0  0  0
 15 18  2  0  0  0  0
 16 17  1  0  0  0  0
 17 47  1  0  0  0  0
 17 48  1  0  0  0  0
 17 49  1  0  0  0  0
 19 20  1  0  0  0  0
 19 50  1  0  0  0  0
 20 21  1  0  0  0  0
 20 51  1  0  0  0  0
 20 52  1  0  0  0  0
 21 22  1  0  0  0  0
 21 26  1  0  0  0  0
 21 27  1  0  0  0  0
 22 23  1  0  0  0  0
 22 53  1  0  0  0  0
 22 54  1  0  0  0  0
 23 24  1  0  0  0  0
 23 55  1  0  0  0  0
 23 56  1  0  0  0  0
 24 25  1  0  0  0  0
 24 57  1  0  0  0  0
 24 58  1  0  0  0  0
 25 59  1  0  0  0  0
 25 60  1  0  0  0  0
 25 61  1  0  0  0  0
 26 62  1  0  0  0  0
 26 63  1  0  0  0  0
 26 64  1  0  0  0  0
 27 65  1  0  0  0  0
M  END
>  <Mol_ID>
2300

>  <Formula>
C22H38O5

>  <MolWeight>
382.53412

>  <Cat>
S4415

>  <Name>
Misoprostol

>  <Synonyms>
SC-29333

>  <Target>
PGES,Prostaglandin Receptor

>  <Form>
Prostaglandin E1

>  <CAS>
59122-46-2

>  <URL>
http://selleckchem.com/products/misoprostol.html

$$$$
