Mitapivat
 OpenBabel08302520403D

 58 62  0  0  0  0  0  0  0  0999 V2000
    0.8149    1.3268   -0.7826 N   0  0  0  0  0  0  0  0  0  0  0  0
    0.5279    0.6599   -1.9239 C   0  0  0  0  0  0  0  0  0  0  0  0
    0.8366   -0.6665   -2.1335 C   0  0  0  0  0  0  0  0  0  0  0  0
    1.4456   -1.3600   -1.0975 C   0  0  0  0  0  0  0  0  0  0  0  0
    1.7276   -0.7133    0.1129 C   0  0  0  0  0  0  0  0  0  0  0  0
    2.3253   -1.4216    1.1696 C   0  0  0  0  0  0  0  0  0  0  0  0
    2.6046   -0.7902    2.3748 C   0  0  0  0  0  0  0  0  0  0  0  0
    2.3475    0.5695    2.5031 C   0  0  0  0  0  0  0  0  0  0  0  0
    1.7938    1.2849    1.4267 C   0  0  0  0  0  0  0  0  0  0  0  0
    1.4122    0.6613    0.2374 C   0  0  0  0  0  0  0  0  0  0  0  0
    1.6826    3.0570    1.5576 S   0  0  0  0  0  0  0  0  0  0  0  0
    0.2839    3.4219    1.4885 O   0  0  0  0  0  0  0  0  0  0  0  0
    2.4815    3.4442    2.7102 O   0  0  0  0  0  0  0  0  0  0  0  0
    2.4540    3.6971    0.1700 N   0  0  0  0  0  0  0  0  0  0  0  0
    3.7364    3.1850   -0.1761 C   0  0  0  0  0  0  0  0  0  0  0  0
    3.8552    2.1699   -1.1273 C   0  0  0  0  0  0  0  0  0  0  0  0
    5.0058    1.3859   -1.1842 C   0  0  0  0  0  0  0  0  0  0  0  0
    6.1078    1.6942   -0.3786 C   0  0  0  0  0  0  0  0  0  0  0  0
    6.0696    2.9217    0.2928 C   0  0  0  0  0  0  0  0  0  0  0  0
    4.8656    3.5919    0.5071 C   0  0  0  0  0  0  0  0  0  0  0  0
    7.2029    0.6562   -0.2191 C   0  0  0  0  0  0  0  0  0  0  0  0
    7.3733   -0.1382   -1.1472 O   0  0  0  0  0  0  0  0  0  0  0  0
    7.9268    0.5404    0.9956 N   0  0  0  0  0  0  0  0  0  0  0  0
    9.0319   -0.4301    1.0470 C   0  0  0  0  0  0  0  0  0  0  0  0
    9.6390   -0.6268    2.4557 C   0  0  0  0  0  0  0  0  0  0  0  0
    9.9089    0.6116    3.2239 N   0  0  0  0  0  0  0  0  0  0  0  0
    8.6374    1.3372    3.3310 C   0  0  0  0  0  0  0  0  0  0  0  0
    7.9651    1.6072    1.9879 C   0  0  0  0  0  0  0  0  0  0  0  0
   10.9497    1.4623    2.6508 C   0  0  0  0  0  0  0  0  0  0  0  0
   12.3056    0.9471    3.0358 C   0  0  0  0  0  0  0  0  0  0  0  0
   13.5273    1.7286    2.6092 C   0  0  0  0  0  0  0  0  0  0  0  0
   13.2576    0.3755    2.0159 C   0  0  0  0  0  0  0  0  0  0  0  0
    0.0453    1.2520   -2.6966 H   0  0  0  0  0  0  0  0  0  0  0  0
    0.6056   -1.1514   -3.0751 H   0  0  0  0  0  0  0  0  0  0  0  0
    1.6975   -2.4090   -1.2393 H   0  0  0  0  0  0  0  0  0  0  0  0
    2.5725   -2.4759    1.0602 H   0  0  0  0  0  0  0  0  0  0  0  0
    3.0377   -1.3485    3.2016 H   0  0  0  0  0  0  0  0  0  0  0  0
    2.5856    1.0711    3.4414 H   0  0  0  0  0  0  0  0  0  0  0  0
    1.7630    3.7334   -0.5800 H   0  0  0  0  0  0  0  0  0  0  0  0
    3.0202    1.9247   -1.7728 H   0  0  0  0  0  0  0  0  0  0  0  0
    5.0180    0.5039   -1.8246 H   0  0  0  0  0  0  0  0  0  0  0  0
    6.9499    3.3655    0.7350 H   0  0  0  0  0  0  0  0  0  0  0  0
    4.8265    4.4154    1.2162 H   0  0  0  0  0  0  0  0  0  0  0  0
    8.6678   -1.3970    0.6761 H   0  0  0  0  0  0  0  0  0  0  0  0
    9.8047   -0.0892    0.3487 H   0  0  0  0  0  0  0  0  0  0  0  0
    8.9334   -1.2233    3.0498 H   0  0  0  0  0  0  0  0  0  0  0  0
   10.5486   -1.2369    2.3982 H   0  0  0  0  0  0  0  0  0  0  0  0
    7.9506    0.7673    3.9660 H   0  0  0  0  0  0  0  0  0  0  0  0
    8.7784    2.2964    3.8442 H   0  0  0  0  0  0  0  0  0  0  0  0
    8.5001    2.4330    1.5078 H   0  0  0  0  0  0  0  0  0  0  0  0
    6.9379    1.8788    2.2324 H   0  0  0  0  0  0  0  0  0  0  0  0
   10.8561    1.5882    1.5670 H   0  0  0  0  0  0  0  0  0  0  0  0
   10.8802    2.4680    3.0864 H   0  0  0  0  0  0  0  0  0  0  0  0
   12.3255    0.5543    4.0469 H   0  0  0  0  0  0  0  0  0  0  0  0
   13.3957    2.5980    1.9745 H   0  0  0  0  0  0  0  0  0  0  0  0
   14.3384    1.8240    3.3228 H   0  0  0  0  0  0  0  0  0  0  0  0
   13.8929   -0.4465    2.3267 H   0  0  0  0  0  0  0  0  0  0  0  0
   12.9526    0.3338    0.9774 H   0  0  0  0  0  0  0  0  0  0  0  0
  1  2  2  0  0  0  0
  1 10  1  0  0  0  0
  2  3  1  0  0  0  0
  2 33  1  0  0  0  0
  3  4  2  0  0  0  0
  3 34  1  0  0  0  0
  4  5  1  0  0  0  0
  4 35  1  0  0  0  0
  5  6  1  0  0  0  0
  5 10  2  0  0  0  0
  6  7  2  0  0  0  0
  6 36  1  0  0  0  0
  7  8  1  0  0  0  0
  7 37  1  0  0  0  0
  8  9  2  0  0  0  0
  8 38  1  0  0  0  0
  9 10  1  0  0  0  0
  9 11  1  0  0  0  0
 11 12  2  0  0  0  0
 11 13  2  0  0  0  0
 11 14  1  0  0  0  0
 14 15  1  0  0  0  0
 14 39  1  0  0  0  0
 15 16  2  0  0  0  0
 15 20  1  0  0  0  0
 16 17  1  0  0  0  0
 16 40  1  0  0  0  0
 17 18  2  0  0  0  0
 17 41  1  0  0  0  0
 18 19  1  0  0  0  0
 18 21  1  0  0  0  0
 19 20  2  0  0  0  0
 19 42  1  0  0  0  0
 20 43  1  0  0  0  0
 21 22  2  0  0  0  0
 21 23  1  0  0  0  0
 23 24  1  0  0  0  0
 23 28  1  0  0  0  0
 24 25  1  0  0  0  0
 24 44  1  0  0  0  0
 24 45  1  0  0  0  0
 25 26  1  0  0  0  0
 25 46  1  0  0  0  0
 25 47  1  0  0  0  0
 26 27  1  0  0  0  0
 26 29  1  0  0  0  0
 27 28  1  0  0  0  0
 27 48  1  0  0  0  0
 27 49  1  0  0  0  0
 28 50  1  0  0  0  0
 28 51  1  0  0  0  0
 29 30  1  0  0  0  0
 29 52  1  0  0  0  0
 29 53  1  0  0  0  0
 30 31  1  0  0  0  0
 30 32  1  0  0  0  0
 30 54  1  0  0  0  0
 31 32  1  0  0  0  0
 31 55  1  0  0  0  0
 31 56  1  0  0  0  0
 32 57  1  0  0  0  0
 32 58  1  0  0  0  0
M  END
>  <Mol_ID>
3809

>  <Formula>
C24H26N4O3S

>  <MolWeight>
450.55324

>  <Cat>
S6508

>  <Name>
Mitapivat

>  <Synonyms>
AG-348

>  <Target>
PKM

>  <Form>
free base

>  <CAS>
1260075-17-9

>  <URL>
http://www.selleck.cn/products/mitapivat.html

$$$$
