MiTMAB
 OpenBabel08302521333D

 57 55  0  0  0  0  0  0  0  0999 V2000
    3.6393   -2.7716    0.1313 C   0  0  0  0  0  0  0  0  0  0  0  0
    3.0390   -2.2389   -1.1713 C   0  0  0  0  0  0  0  0  0  0  0  0
    1.5126   -2.1909   -1.0900 C   0  0  0  0  0  0  0  0  0  0  0  0
    0.9151   -1.6392   -2.3800 C   0  0  0  0  0  0  0  0  0  0  0  0
   -0.6088   -1.5945   -2.3413 C   0  0  0  0  0  0  0  0  0  0  0  0
    5.1633   -2.7721    0.1019 C   0  0  0  0  0  0  0  0  0  0  0  0
    5.7300   -3.3231    1.4000 C   0  0  0  0  0  0  0  0  0  0  0  0
   -1.2046   -1.1021   -3.6669 C   0  0  0  0  0  0  0  0  0  0  0  0
   -0.8900   -2.0092   -4.8629 C   0  0  0  0  0  0  0  0  0  0  0  0
   -1.3600   -3.4535   -4.6859 C   0  0  0  0  0  0  0  0  0  0  0  0
   -2.8841   -3.5603   -4.5594 C   0  0  0  0  0  0  0  0  0  0  0  0
   -3.3694   -4.9748   -4.2678 C   0  0  0  0  0  0  0  0  0  0  0  0
   -2.8327   -5.5785   -2.9615 C   0  0  0  0  0  0  0  0  0  0  0  0
   -3.2200   -4.7571   -1.7252 C   0  0  0  0  0  0  0  0  0  0  0  0
   -2.6421   -5.3043   -0.4064 N   0  3  0  0  0  0  0  0  0  0  0  0
   -1.1182   -5.3111   -0.4254 C   0  0  0  0  0  0  0  0  0  0  0  0
   -3.0936   -4.3505    0.7116 C   0  0  0  0  0  0  0  0  0  0  0  0
   -3.1502   -6.6998   -0.0924 C   0  0  0  0  0  0  0  0  0  0  0  0
   -2.2386    1.4078    1.0781 Br  0  5  0  0  0  0  0  0  0  0  0  0
    3.2698   -3.7934    0.3093 H   0  0  0  0  0  0  0  0  0  0  0  0
    3.2888   -2.1560    0.9678 H   0  0  0  0  0  0  0  0  0  0  0  0
    3.4308   -1.2358   -1.3810 H   0  0  0  0  0  0  0  0  0  0  0  0
    3.3434   -2.8837   -2.0069 H   0  0  0  0  0  0  0  0  0  0  0  0
    1.1383   -3.2026   -0.9149 H   0  0  0  0  0  0  0  0  0  0  0  0
    1.1974   -1.5728   -0.2387 H   0  0  0  0  0  0  0  0  0  0  0  0
    1.3006   -0.6303   -2.5651 H   0  0  0  0  0  0  0  0  0  0  0  0
    1.2585   -2.2717   -3.2045 H   0  0  0  0  0  0  0  0  0  0  0  0
   -1.0025   -2.5823   -2.0944 H   0  0  0  0  0  0  0  0  0  0  0  0
   -0.9457   -0.9345   -1.5316 H   0  0  0  0  0  0  0  0  0  0  0  0
    5.5277   -3.3759   -0.7373 H   0  0  0  0  0  0  0  0  0  0  0  0
    5.5305   -1.7506   -0.0472 H   0  0  0  0  0  0  0  0  0  0  0  0
    5.4767   -4.3813    1.5195 H   0  0  0  0  0  0  0  0  0  0  0  0
    6.8242   -3.2352    1.4093 H   0  0  0  0  0  0  0  0  0  0  0  0
    5.3412   -2.7778    2.2654 H   0  0  0  0  0  0  0  0  0  0  0  0
   -2.2891   -0.9929   -3.5517 H   0  0  0  0  0  0  0  0  0  0  0  0
   -0.8273   -0.0958   -3.8761 H   0  0  0  0  0  0  0  0  0  0  0  0
   -1.3534   -1.5883   -5.7616 H   0  0  0  0  0  0  0  0  0  0  0  0
    0.1880   -2.0099   -5.0576 H   0  0  0  0  0  0  0  0  0  0  0  0
   -1.0322   -4.0475   -5.5505 H   0  0  0  0  0  0  0  0  0  0  0  0
   -0.8564   -3.8921   -3.8163 H   0  0  0  0  0  0  0  0  0  0  0  0
   -3.2546   -2.8887   -3.7755 H   0  0  0  0  0  0  0  0  0  0  0  0
   -3.3353   -3.1997   -5.4925 H   0  0  0  0  0  0  0  0  0  0  0  0
   -4.4651   -4.9650   -4.2361 H   0  0  0  0  0  0  0  0  0  0  0  0
   -3.0860   -5.6230   -5.1049 H   0  0  0  0  0  0  0  0  0  0  0  0
   -3.2309   -6.5968   -2.8699 H   0  0  0  0  0  0  0  0  0  0  0  0
   -1.7494   -5.6819   -3.0430 H   0  0  0  0  0  0  0  0  0  0  0  0
   -2.8628   -3.7278   -1.8030 H   0  0  0  0  0  0  0  0  0  0  0  0
   -4.3094   -4.7306   -1.6111 H   0  0  0  0  0  0  0  0  0  0  0  0
   -0.7807   -4.2982   -0.6431 H   0  0  0  0  0  0  0  0  0  0  0  0
   -0.7582   -5.6288    0.5592 H   0  0  0  0  0  0  0  0  0  0  0  0
   -0.7693   -6.0091   -1.1799 H   0  0  0  0  0  0  0  0  0  0  0  0
   -4.1867   -4.3627    0.7468 H   0  0  0  0  0  0  0  0  0  0  0  0
   -2.6769   -4.7081    1.6596 H   0  0  0  0  0  0  0  0  0  0  0  0
   -2.7207   -3.3472    0.4852 H   0  0  0  0  0  0  0  0  0  0  0  0
   -4.2298   -6.7263   -0.2638 H   0  0  0  0  0  0  0  0  0  0  0  0
   -2.6376   -7.4186   -0.7379 H   0  0  0  0  0  0  0  0  0  0  0  0
   -2.9251   -6.9230    0.9552 H   0  0  0  0  0  0  0  0  0  0  0  0
  1  2  1  0  0  0  0
  1  6  1  0  0  0  0
  1 20  1  0  0  0  0
  1 21  1  0  0  0  0
  2  3  1  0  0  0  0
  2 22  1  0  0  0  0
  2 23  1  0  0  0  0
  3  4  1  0  0  0  0
  3 24  1  0  0  0  0
  3 25  1  0  0  0  0
  4  5  1  0  0  0  0
  4 26  1  0  0  0  0
  4 27  1  0  0  0  0
  5  8  1  0  0  0  0
  5 28  1  0  0  0  0
  5 29  1  0  0  0  0
  6  7  1  0  0  0  0
  6 30  1  0  0  0  0
  6 31  1  0  0  0  0
  7 32  1  0  0  0  0
  7 33  1  0  0  0  0
  7 34  1  0  0  0  0
  8  9  1  0  0  0  0
  8 35  1  0  0  0  0
  8 36  1  0  0  0  0
  9 10  1  0  0  0  0
  9 37  1  0  0  0  0
  9 38  1  0  0  0  0
 10 11  1  0  0  0  0
 10 39  1  0  0  0  0
 10 40  1  0  0  0  0
 11 12  1  0  0  0  0
 11 41  1  0  0  0  0
 11 42  1  0  0  0  0
 12 13  1  0  0  0  0
 12 43  1  0  0  0  0
 12 44  1  0  0  0  0
 13 14  1  0  0  0  0
 13 45  1  0  0  0  0
 13 46  1  0  0  0  0
 14 15  1  0  0  0  0
 14 47  1  0  0  0  0
 14 48  1  0  0  0  0
 15 16  1  0  0  0  0
 15 17  1  0  0  0  0
 15 18  1  0  0  0  0
 16 49  1  0  0  0  0
 16 50  1  0  0  0  0
 16 51  1  0  0  0  0
 17 52  1  0  0  0  0
 17 53  1  0  0  0  0
 17 54  1  0  0  0  0
 18 55  1  0  0  0  0
 18 56  1  0  0  0  0
 18 57  1  0  0  0  0
M  CHG  2  15   1  19  -1
M  END
>  <Mol_ID>
6395

>  <Formula>
C17H38BrN

>  <MolWeight>
336.39432

>  <Cat>
E1081

>  <Name>
MiTMAB

>  <Synonyms>
N/A

>  <Target>
Dynamin

>  <Form>
free base

>  <CAS>
2253617-91-1

>  <URL>
http://www.selleckchem.com/products/mitmab.html

$$$$
