Mitochonic acid 5
 OpenBabel08302521283D

 37 39  0  0  0  0  0  0  0  0999 V2000
    4.0908   -2.1179    2.4959 F   0  0  0  0  0  0  0  0  0  0  0  0
    0.4249   -3.3683    5.1410 F   0  0  0  0  0  0  0  0  0  0  0  0
    5.6528    1.3523   -1.9936 O   0  0  0  0  0  0  0  0  0  0  0  0
    1.6721   -1.9375   -0.8500 O   0  0  0  0  0  0  0  0  0  0  0  0
    6.2713   -0.1629   -0.4724 O   0  0  0  0  0  0  0  0  0  0  0  0
    1.4400    1.8937   -2.8747 N   0  0  0  0  0  0  0  0  0  0  0  0
    3.9661   -0.2552   -1.2359 C   0  0  3  0  0  0  0  0  0  0  0  0
    2.9128    0.7831   -1.6069 C   0  0  0  0  0  0  0  0  0  0  0  0
    3.7154   -1.0400    0.0620 C   0  0  0  0  0  0  0  0  0  0  0  0
    2.1115    1.6259   -0.7606 C   0  0  0  0  0  0  0  0  0  0  0  0
    1.1480    2.2321   -1.5771 C   0  0  0  0  0  0  0  0  0  0  0  0
    2.5244    1.0624   -2.9093 C   0  0  0  0  0  0  0  0  0  0  0  0
    2.4005   -1.7941    0.1366 C   0  0  0  0  0  0  0  0  0  0  0  0
    5.3863    0.3168   -1.1679 C   0  0  0  0  0  0  0  0  0  0  0  0
    2.0680    1.9120    0.6188 C   0  0  0  0  0  0  0  0  0  0  0  0
    0.1067    3.0219   -1.0761 C   0  0  0  0  0  0  0  0  0  0  0  0
    1.9615   -2.3637    1.4412 C   0  0  0  0  0  0  0  0  0  0  0  0
    1.0560    2.7345    1.1311 C   0  0  0  0  0  0  0  0  0  0  0  0
    0.0750    3.2605    0.2970 C   0  0  0  0  0  0  0  0  0  0  0  0
    2.7875   -2.4174    2.5705 C   0  0  0  0  0  0  0  0  0  0  0  0
    0.6304   -2.7972    1.5647 C   0  0  0  0  0  0  0  0  0  0  0  0
    2.2801   -2.7731    3.8189 C   0  0  0  0  0  0  0  0  0  0  0  0
    0.1177   -3.1610    2.8129 C   0  0  0  0  0  0  0  0  0  0  0  0
    0.9393   -3.1085    3.9330 C   0  0  0  0  0  0  0  0  0  0  0  0
    4.8803    1.6731   -2.4950 H   0  0  0  0  0  0  0  0  0  0  0  0
    0.9160    2.2109   -3.6788 H   0  0  0  0  0  0  0  0  0  0  0  0
    3.9855   -0.9856   -2.0572 H   0  0  0  0  0  0  0  0  0  0  0  0
    3.8013   -0.3727    0.9238 H   0  0  0  0  0  0  0  0  0  0  0  0
    4.4982   -1.8072    0.1600 H   0  0  0  0  0  0  0  0  0  0  0  0
    2.8896    0.6939   -3.8601 H   0  0  0  0  0  0  0  0  0  0  0  0
    2.8148    1.5176    1.2989 H   0  0  0  0  0  0  0  0  0  0  0  0
   -0.6552    3.4376   -1.7299 H   0  0  0  0  0  0  0  0  0  0  0  0
    1.0336    2.9584    2.1963 H   0  0  0  0  0  0  0  0  0  0  0  0
   -0.7198    3.8731    0.7173 H   0  0  0  0  0  0  0  0  0  0  0  0
   -0.0241   -2.8160    0.6940 H   0  0  0  0  0  0  0  0  0  0  0  0
    2.9195   -2.7617    4.6946 H   0  0  0  0  0  0  0  0  0  0  0  0
   -0.9236   -3.4514    2.9205 H   0  0  0  0  0  0  0  0  0  0  0  0
  1 20  1  0  0  0  0
  2 24  1  0  0  0  0
  3 14  1  0  0  0  0
  3 25  1  0  0  0  0
  4 13  2  0  0  0  0
  5 14  2  0  0  0  0
  6 11  1  0  0  0  0
  6 12  1  0  0  0  0
  6 26  1  0  0  0  0
  7  8  1  0  0  0  0
  7  9  1  0  0  0  0
  7 14  1  0  0  0  0
  7 27  1  0  0  0  0
  8 10  1  0  0  0  0
  8 12  2  0  0  0  0
  9 13  1  0  0  0  0
  9 28  1  0  0  0  0
  9 29  1  0  0  0  0
 10 11  2  0  0  0  0
 10 15  1  0  0  0  0
 11 16  1  0  0  0  0
 12 30  1  0  0  0  0
 13 17  1  0  0  0  0
 15 18  2  0  0  0  0
 15 31  1  0  0  0  0
 16 19  2  0  0  0  0
 16 32  1  0  0  0  0
 17 20  2  0  0  0  0
 17 21  1  0  0  0  0
 18 19  1  0  0  0  0
 18 33  1  0  0  0  0
 19 34  1  0  0  0  0
 20 22  1  0  0  0  0
 21 23  2  0  0  0  0
 21 35  1  0  0  0  0
 22 24  2  0  0  0  0
 22 36  1  0  0  0  0
 23 24  1  0  0  0  0
 23 37  1  0  0  0  0
M  END
>  <Mol_ID>
5405

>  <Formula>
C18H13F2NO3

>  <MolWeight>
329.2975264

>  <Cat>
S0881

>  <Name>
Mitochonic acid 5

>  <Synonyms>
MA-5

>  <Target>
ERK,Mitophagy,YAP

>  <Form>
Free Base

>  <CAS>
1354707-41-7

>  <URL>
https://www.selleckchem.com/products/mitochonic-acid-5.html

$$$$
