MK-2048.cdx
 OpenBabel08302521303D

 53 56  0  0  0  0  0  0  0  0999 V2000
    2.9780    1.0984    0.2410 N   0  0  0  0  0  0  0  0  0  0  0  0
    3.3549   -0.2267   -0.0420 N   0  0  0  0  0  0  0  0  0  0  0  0
    2.4592   -1.2748   -0.2992 C   0  0  0  0  0  0  0  0  0  0  0  0
    1.0704   -0.8836   -0.2457 C   0  0  0  0  0  0  0  0  0  0  0  0
    0.6873    0.4272   -0.0175 C   0  0  0  0  0  0  0  0  0  0  0  0
    1.7074    1.4104    0.2729 C   0  0  0  0  0  0  0  0  0  0  0  0
   -0.0865   -1.6750   -0.2839 C   0  0  0  0  0  0  0  0  0  0  0  0
   -1.1739   -0.8598   -0.0718 C   0  0  0  0  0  0  0  0  0  0  0  0
   -0.6916    0.4488   -0.1220 N   0  0  0  0  0  0  0  0  0  0  0  0
   -2.5388   -1.2092    0.2744 C   0  0  0  0  0  0  0  0  0  0  0  0
   -3.3836   -0.1086    0.3706 N   0  0  0  0  0  0  0  0  0  0  0  0
   -3.0627    1.1139   -0.3415 C   0  0  0  0  0  0  0  0  0  0  0  0
   -1.6118    1.5885   -0.1323 C   0  0  2  0  0  0  0  0  0  0  0  0
    2.7816   -2.4364   -0.5342 O   0  0  0  0  0  0  0  0  0  0  0  0
    1.3655    2.8427    0.6832 C   0  0  0  0  0  0  0  0  0  0  0  0
    0.4537    3.0683    1.4635 O   0  0  0  0  0  0  0  0  0  0  0  0
    2.1701    3.8022    0.1052 N   0  0  0  0  0  0  0  0  0  0  0  0
    2.0027    5.2101    0.3662 C   0  0  0  0  0  0  0  0  0  0  0  0
    4.7819   -0.5192   -0.0315 C   0  0  0  0  0  0  0  0  0  0  0  0
    5.4099   -0.2314   -1.3736 C   0  0  0  0  0  0  0  0  0  0  0  0
    5.9175    1.0446   -1.6575 C   0  0  0  0  0  0  0  0  0  0  0  0
    6.4318    1.3328   -2.9213 C   0  0  0  0  0  0  0  0  0  0  0  0
    6.4363    0.3467   -3.9022 C   0  0  0  0  0  0  0  0  0  0  0  0
    5.9470   -0.9282   -3.6358 C   0  0  0  0  0  0  0  0  0  0  0  0
    5.4324   -1.2179   -2.3755 C   0  0  0  0  0  0  0  0  0  0  0  0
    6.9126    0.6333   -5.1196 F   0  0  0  0  0  0  0  0  0  0  0  0
   -0.1424   -3.0118   -0.3792 O   0  0  0  0  0  0  0  0  0  0  0  0
   -2.9073   -2.3369    0.5882 O   0  0  0  0  0  0  0  0  0  0  0  0
   -4.4867   -0.1316    1.3191 C   0  0  0  0  0  0  0  0  0  0  0  0
   -4.0213    0.3701    2.6798 C   0  0  0  0  0  0  0  0  0  0  0  0
   -1.3002    2.6006   -1.2400 C   0  0  0  0  0  0  0  0  0  0  0  0
   -3.2362    0.8854   -1.4020 H   0  0  0  0  0  0  0  0  0  0  0  0
   -3.7683    1.9062   -0.0660 H   0  0  0  0  0  0  0  0  0  0  0  0
   -1.5450    2.0374    0.8620 H   0  0  0  0  0  0  0  0  0  0  0  0
    2.9349    3.4883   -0.4834 H   0  0  0  0  0  0  0  0  0  0  0  0
    2.9902    5.6620    0.4868 H   0  0  0  0  0  0  0  0  0  0  0  0
    1.5013    5.6606   -0.4942 H   0  0  0  0  0  0  0  0  0  0  0  0
    1.4062    5.3810    1.2659 H   0  0  0  0  0  0  0  0  0  0  0  0
    5.2569    0.0815    0.7531 H   0  0  0  0  0  0  0  0  0  0  0  0
    4.9496   -1.5679    0.2409 H   0  0  0  0  0  0  0  0  0  0  0  0
    5.9011    1.8200   -0.8956 H   0  0  0  0  0  0  0  0  0  0  0  0
    6.8185    2.3202   -3.1530 H   0  0  0  0  0  0  0  0  0  0  0  0
    5.9603   -1.6814   -4.4182 H   0  0  0  0  0  0  0  0  0  0  0  0
    5.0355   -2.2136   -2.1775 H   0  0  0  0  0  0  0  0  0  0  0  0
    0.7605   -3.3817   -0.4400 H   0  0  0  0  0  0  0  0  0  0  0  0
   -5.3069    0.4819    0.9329 H   0  0  0  0  0  0  0  0  0  0  0  0
   -4.8587   -1.1560    1.4273 H   0  0  0  0  0  0  0  0  0  0  0  0
   -3.6834    1.4102    2.6195 H   0  0  0  0  0  0  0  0  0  0  0  0
   -4.8314    0.3130    3.4121 H   0  0  0  0  0  0  0  0  0  0  0  0
   -3.1801   -0.2261    3.0511 H   0  0  0  0  0  0  0  0  0  0  0  0
   -1.9208    3.4954   -1.1216 H   0  0  0  0  0  0  0  0  0  0  0  0
   -0.2586    2.9201   -1.2552 H   0  0  0  0  0  0  0  0  0  0  0  0
   -1.5051    2.1788   -2.2310 H   0  0  0  0  0  0  0  0  0  0  0  0
  1  2  1  0  0  0  0
  2  3  1  0  0  0  0
  2 19  1  0  0  0  0
  3  4  1  0  0  0  0
  3 14  2  0  0  0  0
  4  5  2  0  0  0  0
  4  7  1  0  0  0  0
  5  6  1  0  0  0  0
  6  1  2  0  0  0  0
  6 15  1  0  0  0  0
  7  8  2  0  0  0  0
  7 27  1  0  0  0  0
  8  9  1  0  0  0  0
  8 10  1  0  0  0  0
  9  5  1  0  0  0  0
 10 11  1  0  0  0  0
 10 28  2  0  0  0  0
 11 12  1  0  0  0  0
 11 29  1  0  0  0  0
 12 13  1  0  0  0  0
 12 32  1  0  0  0  0
 12 33  1  0  0  0  0
 13  9  1  0  0  0  0
 13 31  1  0  0  0  0
 13 34  1  1  0  0  0
 15 16  2  0  0  0  0
 15 17  1  0  0  0  0
 17 18  1  0  0  0  0
 17 35  1  0  0  0  0
 18 36  1  0  0  0  0
 18 37  1  0  0  0  0
 18 38  1  0  0  0  0
 19 20  1  0  0  0  0
 19 39  1  0  0  0  0
 19 40  1  0  0  0  0
 20 21  2  0  0  0  0
 21 22  1  0  0  0  0
 21 41  1  0  0  0  0
 22 23  2  0  0  0  0
 22 42  1  0  0  0  0
 23 24  1  0  0  0  0
 23 26  1  0  0  0  0
 24 25  2  0  0  0  0
 24 43  1  0  0  0  0
 25 20  1  0  0  0  0
 25 44  1  0  0  0  0
 27 45  1  0  0  0  0
 29 30  1  0  0  0  0
 29 46  1  0  0  0  0
 29 47  1  0  0  0  0
 30 48  1  0  0  0  0
 30 49  1  0  0  0  0
 30 50  1  0  0  0  0
 31 51  1  0  0  0  0
 31 52  1  0  0  0  0
 31 53  1  0  0  0  0
M  END
>  <Mol_ID>
550

>  <Formula>
C21H21ClFN5O4

>  <MolWeight>
461.8739432

>  <Cat>
S2765

>  <Name>
MK-2048

>  <Synonyms>
N/A

>  <Target>
Integrase

>  <Form>
free base

>  <CAS>
869901-69-9

>  <URL>
http://selleckchem.com/products/mk-2048.html

$$$$
