MK-2461.cdx
 OpenBabel08302521303D

 60 64  0  0  0  0  0  0  0  0999 V2000
   10.7075    4.7792   12.5830 C   0  0  0  0  0  0  0  0  0  0  0  0
   10.3908    5.7656   11.6633 C   0  0  0  0  0  0  0  0  0  0  0  0
    9.6492    5.5600   10.4069 C   0  0  0  0  0  0  0  0  0  0  0  0
    9.7908    4.3683    9.5364 C   0  0  0  0  0  0  0  0  0  0  0  0
   10.0163    3.0665    9.9967 C   0  0  0  0  0  0  0  0  0  0  0  0
   10.0659    2.6461   11.3996 C   0  0  0  0  0  0  0  0  0  0  0  0
   10.3455    3.3726   12.4860 C   0  0  0  0  0  0  0  0  0  0  0  0
   11.3456    5.0577   13.7537 N   0  0  0  0  0  0  0  0  0  0  0  0
   11.7038    6.3415   13.9986 C   0  0  0  0  0  0  0  0  0  0  0  0
   11.4535    7.3930   13.1323 C   0  0  0  0  0  0  0  0  0  0  0  0
   10.7700    7.0878   11.9553 C   0  0  0  0  0  0  0  0  0  0  0  0
    9.5887    4.6001    8.1566 C   0  0  0  0  0  0  0  0  0  0  0  0
    9.5813    3.5459    7.2467 C   0  0  0  0  0  0  0  0  0  0  0  0
    9.8464    2.2593    7.6870 C   0  0  0  0  0  0  0  0  0  0  0  0
   10.0682    2.0238    9.0472 C   0  0  0  0  0  0  0  0  0  0  0  0
    8.9300    6.4810   10.0155 O   0  0  0  0  0  0  0  0  0  0  0  0
   11.9209    8.7332   13.4113 C   0  0  0  0  0  0  0  0  0  0  0  0
   11.2955    9.8954   13.0101 C   0  0  0  0  0  0  0  0  0  0  0  0
   12.0960   10.9213   13.4203 N   0  0  0  0  0  0  0  0  0  0  0  0
   13.1897   10.5127   14.0887 N   0  0  0  0  0  0  0  0  0  0  0  0
   13.0847    9.1816   14.0762 C   0  0  0  0  0  0  0  0  0  0  0  0
   11.8962   12.3287   13.1767 C   0  0  0  0  0  0  0  0  0  0  0  0
    9.1601    3.7460    5.8971 N   0  0  0  0  0  0  0  0  0  0  0  0
   10.2291    4.3826    4.7682 S   0  0  0  0  0  0  0  0  0  0  0  0
   10.8246    2.9676    4.0594 N   0  0  0  0  0  0  0  0  0  0  0  0
    9.3783    5.0374    3.7966 O   0  0  0  0  0  0  0  0  0  0  0  0
   11.2978    5.0854    5.4271 O   0  0  0  0  0  0  0  0  0  0  0  0
   10.8984    2.9678    2.5569 C   0  0  0  0  0  0  0  0  0  0  0  0
   12.0152    2.3770    4.7041 C   0  0  0  0  0  0  0  0  0  0  0  0
   11.9000    3.9906    1.9919 C   0  0  1  0  0  0  0  0  0  0  0  0
   13.2312    3.5790    2.3734 O   0  0  0  0  0  0  0  0  0  0  0  0
   14.2019    4.5022    1.8712 C   0  0  0  0  0  0  0  0  0  0  0  0
   14.1291    4.5210    0.3498 C   0  0  0  0  0  0  0  0  0  0  0  0
   12.8229    4.9381   -0.0764 O   0  0  0  0  0  0  0  0  0  0  0  0
   11.8160    4.0594    0.4571 C   0  0  0  0  0  0  0  0  0  0  0  0
    9.8476    1.5921   11.5740 H   0  0  0  0  0  0  0  0  0  0  0  0
   10.3485    2.8595   13.4475 H   0  0  0  0  0  0  0  0  0  0  0  0
   12.2077    6.4921   14.9499 H   0  0  0  0  0  0  0  0  0  0  0  0
   10.5420    7.8742   11.2388 H   0  0  0  0  0  0  0  0  0  0  0  0
    9.3882    5.6122    7.8050 H   0  0  0  0  0  0  0  0  0  0  0  0
    9.8298    1.4252    6.9906 H   0  0  0  0  0  0  0  0  0  0  0  0
   10.2347    0.9958    9.3657 H   0  0  0  0  0  0  0  0  0  0  0  0
   10.3764   10.0775   12.4686 H   0  0  0  0  0  0  0  0  0  0  0  0
   13.8715    8.5948   14.5332 H   0  0  0  0  0  0  0  0  0  0  0  0
   11.9367   12.8561   14.1328 H   0  0  0  0  0  0  0  0  0  0  0  0
   12.6904   12.6754   12.5109 H   0  0  0  0  0  0  0  0  0  0  0  0
   10.9214   12.4815   12.7069 H   0  0  0  0  0  0  0  0  0  0  0  0
    8.3186    4.3227    5.8433 H   0  0  0  0  0  0  0  0  0  0  0  0
   11.1799    1.9561    2.2346 H   0  0  0  0  0  0  0  0  0  0  0  0
    9.8919    3.1403    2.1571 H   0  0  0  0  0  0  0  0  0  0  0  0
   12.8744    3.0510    4.6572 H   0  0  0  0  0  0  0  0  0  0  0  0
   11.8239    2.1509    5.7521 H   0  0  0  0  0  0  0  0  0  0  0  0
   12.2851    1.4340    4.2161 H   0  0  0  0  0  0  0  0  0  0  0  0
   11.7211    4.9885    2.4088 H   0  0  0  0  0  0  0  0  0  0  0  0
   14.0050    5.4934    2.2965 H   0  0  0  0  0  0  0  0  0  0  0  0
   15.1868    4.1693    2.2099 H   0  0  0  0  0  0  0  0  0  0  0  0
   14.3251    3.5229   -0.0588 H   0  0  0  0  0  0  0  0  0  0  0  0
   14.8657    5.2161   -0.0618 H   0  0  0  0  0  0  0  0  0  0  0  0
   11.9565    3.0703    0.0053 H   0  0  0  0  0  0  0  0  0  0  0  0
   10.8414    4.4434    0.1388 H   0  0  0  0  0  0  0  0  0  0  0  0
  1  2  2  0  0  0  0
  1  8  1  0  0  0  0
  2  3  1  0  0  0  0
  3  4  1  0  0  0  0
  3 16  2  0  0  0  0
  4  5  2  0  0  0  0
  4 12  1  0  0  0  0
  5  6  1  0  0  0  0
  6  7  2  0  0  0  0
  6 36  1  0  0  0  0
  7  1  1  0  0  0  0
  7 37  1  0  0  0  0
  8  9  2  0  0  0  0
  9 10  1  0  0  0  0
  9 38  1  0  0  0  0
 10 11  2  0  0  0  0
 10 17  1  0  0  0  0
 11  2  1  0  0  0  0
 11 39  1  0  0  0  0
 12 13  2  0  0  0  0
 12 40  1  0  0  0  0
 13 14  1  0  0  0  0
 13 23  1  0  0  0  0
 14 15  2  0  0  0  0
 14 41  1  0  0  0  0
 15  5  1  0  0  0  0
 15 42  1  0  0  0  0
 17 18  2  0  0  0  0
 18 19  1  0  0  0  0
 18 43  1  0  0  0  0
 19 20  1  0  0  0  0
 19 22  1  0  0  0  0
 20 21  2  0  0  0  0
 21 17  1  0  0  0  0
 21 44  1  0  0  0  0
 22 45  1  0  0  0  0
 22 46  1  0  0  0  0
 22 47  1  0  0  0  0
 23 24  1  0  0  0  0
 23 48  1  0  0  0  0
 24 25  1  0  0  0  0
 24 26  2  0  0  0  0
 24 27  2  0  0  0  0
 25 28  1  0  0  0  0
 25 29  1  0  0  0  0
 28 49  1  0  0  0  0
 28 50  1  0  0  0  0
 29 51  1  0  0  0  0
 29 52  1  0  0  0  0
 29 53  1  0  0  0  0
 30 31  1  0  0  0  0
 30 54  1  1  0  0  0
 30 28  1  0  0  0  0
 31 32  1  0  0  0  0
 32 33  1  0  0  0  0
 32 55  1  0  0  0  0
 32 56  1  0  0  0  0
 33 34  1  0  0  0  0
 33 57  1  0  0  0  0
 33 58  1  0  0  0  0
 34 35  1  0  0  0  0
 35 30  1  0  0  0  0
 35 59  1  0  0  0  0
 35 60  1  0  0  0  0
M  END
>  <Mol_ID>
552

>  <Formula>
C24H25N5O5S

>  <MolWeight>
495.5508

>  <Cat>
S2774

>  <Name>
MK-2461

>  <Synonyms>
N/A

>  <Target>
c-Met,FGFR,PDGFR,RON

>  <Form>
free base

>  <CAS>
917879-39-1

>  <URL>
http://selleckchem.com/products/mk-2461.html

$$$$
