MK-4827(Niraparib) tosylate.cdx
 OpenBabel08302520003D

 63 66  0  0  0  0  0  0  0  0999 V2000
    2.1653   -0.5499    1.5507 C   0  0  0  0  0  0  0  0  0  0  0  0
    2.1207    0.8643    1.3643 C   0  0  0  0  0  0  0  0  0  0  0  0
    0.9232    1.6021    1.3418 C   0  0  0  0  0  0  0  0  0  0  0  0
   -0.1929    0.7746    1.4561 C   0  0  0  0  0  0  0  0  0  0  0  0
   -0.2192   -0.6761    1.5937 C   0  0  0  0  0  0  0  0  0  0  0  0
    1.0094   -1.3718    1.7044 C   0  0  0  0  0  0  0  0  0  0  0  0
   -1.4531    1.1811    1.1112 C   0  0  0  0  0  0  0  0  0  0  0  0
   -2.2196    0.0389    1.0356 N   0  0  0  0  0  0  0  0  0  0  0  0
   -1.5188   -1.0667    1.4498 N   0  0  0  0  0  0  0  0  0  0  0  0
    1.1876   -2.8326    1.7121 C   0  0  0  0  0  0  0  0  0  0  0  0
    2.2319   -3.3404    1.3247 O   0  0  0  0  0  0  0  0  0  0  0  0
    0.1646   -3.6064    2.1651 N   0  0  0  0  0  0  0  0  0  0  0  0
   -3.5585   -0.0382    0.5049 C   0  0  0  0  0  0  0  0  0  0  0  0
   -4.1916    1.0978   -0.0323 C   0  0  0  0  0  0  0  0  0  0  0  0
   -5.5067    1.0382   -0.5286 C   0  0  0  0  0  0  0  0  0  0  0  0
   -6.2371   -0.1565   -0.5179 C   0  0  0  0  0  0  0  0  0  0  0  0
   -5.5768   -1.2977   -0.0328 C   0  0  0  0  0  0  0  0  0  0  0  0
   -4.2619   -1.2442    0.4818 C   0  0  0  0  0  0  0  0  0  0  0  0
   -7.6932   -0.1484   -1.0002 C   0  0  1  0  0  0  0  0  0  0  0  0
   -8.0022   -1.0615   -2.2049 C   0  0  0  0  0  0  0  0  0  0  0  0
   -8.0383   -2.4862   -1.8636 N   0  0  0  0  0  0  0  0  0  0  0  0
   -9.0250   -2.7749   -0.8230 C   0  0  0  0  0  0  0  0  0  0  0  0
   -8.8622   -1.9156    0.4328 C   0  0  0  0  0  0  0  0  0  0  0  0
   -8.7183   -0.4279    0.1160 C   0  0  0  0  0  0  0  0  0  0  0  0
    0.7985    0.1364   -1.5886 C   0  0  0  0  0  0  0  0  0  0  0  0
    0.2108   -0.9702   -2.3813 C   0  0  0  0  0  0  0  0  0  0  0  0
    0.0419   -2.2496   -1.8325 C   0  0  0  0  0  0  0  0  0  0  0  0
   -0.1285   -3.3327   -2.6785 C   0  0  0  0  0  0  0  0  0  0  0  0
   -0.1658   -3.0896   -4.0494 C   0  0  0  0  0  0  0  0  0  0  0  0
   -0.2229   -1.7947   -4.5709 C   0  0  0  0  0  0  0  0  0  0  0  0
   -0.0510   -0.7240   -3.7221 C   0  0  0  0  0  0  0  0  0  0  0  0
    0.0477   -4.4077   -5.2008 S   0  0  0  0  0  0  0  0  0  0  0  0
   -1.3259   -4.3579   -6.0513 O   0  0  0  0  0  0  0  0  0  0  0  0
    1.1416   -4.0426   -6.0681 O   0  0  0  0  0  0  0  0  0  0  0  0
    0.0130   -5.6560   -4.4710 O   0  0  0  0  0  0  0  0  0  0  0  0
    3.1378   -1.0374    1.4657 H   0  0  0  0  0  0  0  0  0  0  0  0
    3.0553    1.3758    1.1247 H   0  0  0  0  0  0  0  0  0  0  0  0
    0.8965    2.6496    1.0733 H   0  0  0  0  0  0  0  0  0  0  0  0
   -1.8073    2.1408    0.7684 H   0  0  0  0  0  0  0  0  0  0  0  0
   -0.7391   -3.2197    2.4045 H   0  0  0  0  0  0  0  0  0  0  0  0
    0.2799   -4.6104    2.1105 H   0  0  0  0  0  0  0  0  0  0  0  0
   -3.6980    2.0623   -0.0950 H   0  0  0  0  0  0  0  0  0  0  0  0
   -5.9531    1.9482   -0.9267 H   0  0  0  0  0  0  0  0  0  0  0  0
   -6.0763   -2.2627   -0.0427 H   0  0  0  0  0  0  0  0  0  0  0  0
   -3.8151   -2.1598    0.8621 H   0  0  0  0  0  0  0  0  0  0  0  0
   -7.9019    0.8762   -1.3444 H   0  0  0  0  0  0  0  0  0  0  0  0
   -8.9806   -0.7800   -2.6229 H   0  0  0  0  0  0  0  0  0  0  0  0
   -7.2708   -0.8948   -3.0032 H   0  0  0  0  0  0  0  0  0  0  0  0
   -8.2663   -3.0232   -2.7007 H   0  0  0  0  0  0  0  0  0  0  0  0
   -8.9221   -3.8288   -0.5401 H   0  0  0  0  0  0  0  0  0  0  0  0
  -10.0366   -2.6535   -1.2275 H   0  0  0  0  0  0  0  0  0  0  0  0
   -7.9970   -2.2553    1.0104 H   0  0  0  0  0  0  0  0  0  0  0  0
   -9.7311   -2.0644    1.0848 H   0  0  0  0  0  0  0  0  0  0  0  0
   -8.4760    0.1334    1.0256 H   0  0  0  0  0  0  0  0  0  0  0  0
   -9.7003   -0.0638   -0.2195 H   0  0  0  0  0  0  0  0  0  0  0  0
    0.0443    0.4839   -0.9061 H   0  0  0  0  0  0  0  0  0  0  0  0
    1.0992    0.9901   -2.1989 H   0  0  0  0  0  0  0  0  0  0  0  0
    1.7025   -0.2289   -1.0939 H   0  0  0  0  0  0  0  0  0  0  0  0
    0.1434   -2.4288   -0.7678 H   0  0  0  0  0  0  0  0  0  0  0  0
   -0.1326   -4.3401   -2.2685 H   0  0  0  0  0  0  0  0  0  0  0  0
   -0.2926   -1.6198   -5.6394 H   0  0  0  0  0  0  0  0  0  0  0  0
   -0.0033    0.2888   -4.1118 H   0  0  0  0  0  0  0  0  0  0  0  0
   -1.9987   -4.8627   -5.5537 H   0  0  0  0  0  0  0  0  0  0  0  0
  1  2  1  0  0  0  0
  1 36  1  0  0  0  0
  2  3  2  0  0  0  0
  2 37  1  0  0  0  0
  3  4  1  0  0  0  0
  3 38  1  0  0  0  0
  4  5  1  0  0  0  0
  4  7  2  0  0  0  0
  5  6  1  0  0  0  0
  6  1  2  0  0  0  0
  6 10  1  0  0  0  0
  7  8  1  0  0  0  0
  7 39  1  0  0  0  0
  8  9  1  0  0  0  0
  8 13  1  0  0  0  0
  9  5  2  0  0  0  0
 10 11  2  0  0  0  0
 10 12  1  0  0  0  0
 12 40  1  0  0  0  0
 12 41  1  0  0  0  0
 13 14  2  0  0  0  0
 14 15  1  0  0  0  0
 14 42  1  0  0  0  0
 15 16  2  0  0  0  0
 15 43  1  0  0  0  0
 16 17  1  0  0  0  0
 17 18  2  0  0  0  0
 17 44  1  0  0  0  0
 18 13  1  0  0  0  0
 18 45  1  0  0  0  0
 19 16  1  0  0  0  0
 19 20  1  0  0  0  0
 19 46  1  6  0  0  0
 20 21  1  0  0  0  0
 20 47  1  0  0  0  0
 20 48  1  0  0  0  0
 21 22  1  0  0  0  0
 21 49  1  0  0  0  0
 22 23  1  0  0  0  0
 22 50  1  0  0  0  0
 22 51  1  0  0  0  0
 23 24  1  0  0  0  0
 23 52  1  0  0  0  0
 23 53  1  0  0  0  0
 24 19  1  0  0  0  0
 24 54  1  0  0  0  0
 24 55  1  0  0  0  0
 25 26  1  0  0  0  0
 25 56  1  0  0  0  0
 25 57  1  0  0  0  0
 25 58  1  0  0  0  0
 26 27  2  0  0  0  0
 27 28  1  0  0  0  0
 27 59  1  0  0  0  0
 28 29  2  0  0  0  0
 28 60  1  0  0  0  0
 29 30  1  0  0  0  0
 29 32  1  0  0  0  0
 30 31  2  0  0  0  0
 30 61  1  0  0  0  0
 31 26  1  0  0  0  0
 31 62  1  0  0  0  0
 32 33  1  0  0  0  0
 32 34  2  0  0  0  0
 32 35  2  0  0  0  0
 33 63  1  0  0  0  0
M  END
>  <Mol_ID>
2690

>  <Formula>
C26H28N4O4S

>  <MolWeight>
492.58992

>  <Cat>
S7625

>  <Name>
Niraparib (MK-4827) tosylate

>  <Synonyms>
Niraparib tosylate, MK 4827 tosylate, ZEJULA

>  <Target>
Apoptosis related,PARP

>  <Form>
4-?methylbenzen

>  <CAS>
1038915-73-9

>  <URL>
http://selleckchem.com/products/mk-4827-niraparib-tosylate.html

$$$$
