MK-8617.cdx
 OpenBabel08302520433D

 54 57  0  0  0  0  0  0  0  0999 V2000
   -0.6642    1.2404   -0.1594 N   0  0  0  0  0  0  0  0  0  0  0  0
   -1.3020    0.0516   -0.1343 C   0  0  0  0  0  0  0  0  0  0  0  0
   -0.6599   -1.1394   -0.0958 N   0  0  0  0  0  0  0  0  0  0  0  0
    0.6965   -1.1066   -0.0776 C   0  0  0  0  0  0  0  0  0  0  0  0
    1.4389    0.0541   -0.1000 C   0  0  0  0  0  0  0  0  0  0  0  0
    0.6765    1.1966   -0.1392 C   0  0  0  0  0  0  0  0  0  0  0  0
   -2.7789    0.0560   -0.1006 C   0  0  0  0  0  0  0  0  0  0  0  0
   -3.3964    1.2641   -0.1127 N   0  0  0  0  0  0  0  0  0  0  0  0
   -4.7633    1.3607   -0.0324 N   0  0  0  0  0  0  0  0  0  0  0  0
   -5.5012    0.2384    0.0562 C   0  0  0  0  0  0  0  0  0  0  0  0
   -4.9264   -1.0184    0.0580 C   0  0  0  0  0  0  0  0  0  0  0  0
   -3.5434   -1.1087   -0.0290 C   0  0  0  0  0  0  0  0  0  0  0  0
    2.9182   -0.0093   -0.0573 C   0  0  0  0  0  0  0  0  0  0  0  0
    1.2166    2.4448   -0.1429 O   0  0  0  0  0  0  0  0  0  0  0  0
    3.5840    1.1842   -0.1212 N   0  0  0  0  0  0  0  0  0  0  0  0
    3.4767   -1.0953    0.0349 O   0  0  0  0  0  0  0  0  0  0  0  0
    5.0269    1.3427   -0.0025 C   0  0  0  0  0  0  0  0  0  0  0  0
    5.4824    2.0689   -1.2735 C   0  0  0  0  0  0  0  0  0  0  0  0
    5.3991    2.0492    1.3078 C   0  0  0  0  0  0  0  0  0  0  0  0
    4.4251    2.4783    2.2260 C   0  0  0  0  0  0  0  0  0  0  0  0
    4.7716    3.2579    3.3294 C   0  0  0  0  0  0  0  0  0  0  0  0
    6.1015    3.5833    3.5783 C   0  0  0  0  0  0  0  0  0  0  0  0
    7.0935    3.0931    2.7307 C   0  0  0  0  0  0  0  0  0  0  0  0
    6.7445    2.3300    1.6058 C   0  0  0  0  0  0  0  0  0  0  0  0
    5.5373    3.4691   -1.3606 C   0  0  0  0  0  0  0  0  0  0  0  0
    5.7849    4.0998   -2.5836 C   0  0  0  0  0  0  0  0  0  0  0  0
    5.9913    3.3541   -3.7446 C   0  0  0  0  0  0  0  0  0  0  0  0
    5.9691    1.9631   -3.6707 C   0  0  0  0  0  0  0  0  0  0  0  0
    5.7114    1.3274   -2.4467 C   0  0  0  0  0  0  0  0  0  0  0  0
    6.2899    4.4372    4.6276 O   0  0  0  0  0  0  0  0  0  0  0  0
    7.5355    4.3422    5.3030 C   0  0  0  0  0  0  0  0  0  0  0  0
    6.1096    4.0940   -4.8877 O   0  0  0  0  0  0  0  0  0  0  0  0
    6.8711    3.5259   -5.9446 C   0  0  0  0  0  0  0  0  0  0  0  0
    1.1771   -2.0813   -0.0399 H   0  0  0  0  0  0  0  0  0  0  0  0
   -6.5707    0.3849    0.1331 H   0  0  0  0  0  0  0  0  0  0  0  0
   -5.5436   -1.9057    0.1330 H   0  0  0  0  0  0  0  0  0  0  0  0
   -3.0633   -2.0855   -0.0264 H   0  0  0  0  0  0  0  0  0  0  0  0
    0.4031    2.9866   -0.1746 H   0  0  0  0  0  0  0  0  0  0  0  0
    3.0479    2.0421   -0.2135 H   0  0  0  0  0  0  0  0  0  0  0  0
    5.4956    0.3504    0.0304 H   0  0  0  0  0  0  0  0  0  0  0  0
    3.3738    2.2409    2.0887 H   0  0  0  0  0  0  0  0  0  0  0  0
    3.9931    3.6246    3.9938 H   0  0  0  0  0  0  0  0  0  0  0  0
    8.1413    3.3263    2.8860 H   0  0  0  0  0  0  0  0  0  0  0  0
    7.5334    1.9935    0.9340 H   0  0  0  0  0  0  0  0  0  0  0  0
    5.3597    4.0920   -0.4865 H   0  0  0  0  0  0  0  0  0  0  0  0
    5.7953    5.1856   -2.6360 H   0  0  0  0  0  0  0  0  0  0  0  0
    6.0900    1.3423   -4.5517 H   0  0  0  0  0  0  0  0  0  0  0  0
    5.6404    0.2405   -2.4221 H   0  0  0  0  0  0  0  0  0  0  0  0
    7.6491    3.3522    5.7547 H   0  0  0  0  0  0  0  0  0  0  0  0
    8.3801    4.5820    4.6520 H   0  0  0  0  0  0  0  0  0  0  0  0
    7.5266    5.0830    6.1090 H   0  0  0  0  0  0  0  0  0  0  0  0
    7.9262    3.4693   -5.6609 H   0  0  0  0  0  0  0  0  0  0  0  0
    6.4954    2.5509   -6.2647 H   0  0  0  0  0  0  0  0  0  0  0  0
    6.7889    4.1980   -6.8057 H   0  0  0  0  0  0  0  0  0  0  0  0
  1  2  2  0  0  0  0
  2  3  1  0  0  0  0
  2  7  1  0  0  0  0
  3  4  2  0  0  0  0
  4  5  1  0  0  0  0
  4 34  1  0  0  0  0
  5  6  2  0  0  0  0
  5 13  1  0  0  0  0
  6  1  1  0  0  0  0
  6 14  1  0  0  0  0
  7  8  2  0  0  0  0
  8  9  1  0  0  0  0
  9 10  2  0  0  0  0
 10 11  1  0  0  0  0
 10 35  1  0  0  0  0
 11 12  2  0  0  0  0
 11 36  1  0  0  0  0
 12  7  1  0  0  0  0
 12 37  1  0  0  0  0
 13 15  1  0  0  0  0
 13 16  2  0  0  0  0
 14 38  1  0  0  0  0
 15 17  1  0  0  0  0
 15 39  1  0  0  0  0
 17 18  1  0  0  0  0
 17 19  1  0  0  0  0
 17 40  1  0  0  0  0
 18 25  2  0  0  0  0
 19 20  2  0  0  0  0
 20 21  1  0  0  0  0
 20 41  1  0  0  0  0
 21 22  2  0  0  0  0
 21 42  1  0  0  0  0
 22 23  1  0  0  0  0
 22 30  1  0  0  0  0
 23 24  2  0  0  0  0
 23 43  1  0  0  0  0
 24 19  1  0  0  0  0
 24 44  1  0  0  0  0
 25 26  1  0  0  0  0
 25 45  1  0  0  0  0
 26 27  2  0  0  0  0
 26 46  1  0  0  0  0
 27 28  1  0  0  0  0
 27 32  1  0  0  0  0
 28 29  2  0  0  0  0
 28 47  1  0  0  0  0
 29 18  1  0  0  0  0
 29 48  1  0  0  0  0
 30 31  1  0  0  0  0
 31 49  1  0  0  0  0
 31 50  1  0  0  0  0
 31 51  1  0  0  0  0
 32 33  1  0  0  0  0
 33 52  1  0  0  0  0
 33 53  1  0  0  0  0
 33 54  1  0  0  0  0
M  END
>  <Mol_ID>
4116

>  <Formula>
C24H21N5O4

>  <MolWeight>
443.45464

>  <Cat>
S8443

>  <Name>
MK-8617

>  <Synonyms>
N/A

>  <Target>
HIF

>  <Form>
free base

>  <CAS>
1187990-87-9

>  <URL>
http://selleckchem.com/products/mk-8617.html

$$$$
