MK-8722
 OpenBabel08302521313D

 52 57  0  0  0  0  0  0  0  0999 V2000
   -0.5983   -0.4405   -2.6434 O   0  0  0  0  0  0  0  0  0  0  0  0
   -0.2500   -1.1128    0.5407 O   0  0  0  0  0  0  0  0  0  0  0  0
   -2.1521    0.8698    0.3239 O   0  0  0  0  0  0  0  0  0  0  0  0
    0.2827   -2.9578   -2.4943 O   0  0  0  0  0  0  0  0  0  0  0  0
   -2.4162    1.3565    2.6095 N   0  0  0  0  0  0  0  0  0  0  0  0
   -0.8990    2.5138    1.4695 N   0  0  0  0  0  0  0  0  0  0  0  0
    0.0045    3.7395    3.3617 N   0  0  0  0  0  0  0  0  0  0  0  0
    0.0649   -0.0265   -0.3604 C   0  0  1  0  0  0  0  0  0  0  0  0
    0.4734   -0.6385   -1.6966 C   0  0  1  0  0  0  0  0  0  0  0  0
   -1.1552    0.8293   -0.6985 C   0  0  1  0  0  0  0  0  0  0  0  0
    0.6227   -2.1238   -1.3949 C   0  0  1  0  0  0  0  0  0  0  0  0
   -1.6996    0.1697   -1.9584 C   0  0  0  0  0  0  0  0  0  0  0  0
   -0.3250   -2.3155   -0.2283 C   0  0  0  0  0  0  0  0  0  0  0  0
   -1.8187    1.5773    1.3994 C   0  0  0  0  0  0  0  0  0  0  0  0
   -1.7648    2.1126    3.5423 C   0  0  0  0  0  0  0  0  0  0  0  0
   -0.8505    2.8491    2.8012 C   0  0  0  0  0  0  0  0  0  0  0  0
   -1.8523    2.2197    4.9236 C   0  0  0  0  0  0  0  0  0  0  0  0
   -0.0517    3.8365    4.7077 C   0  0  0  0  0  0  0  0  0  0  0  0
   -0.9503    3.1100    5.5007 C   0  0  0  0  0  0  0  0  0  0  0  0
    0.9438    4.7490    5.3196 C   0  0  0  0  0  0  0  0  0  0  0  0
    1.3409    5.9221    4.6655 C   0  0  0  0  0  0  0  0  0  0  0  0
    1.5551    4.4701    6.5553 C   0  0  0  0  0  0  0  0  0  0  0  0
    2.9614    6.4656    6.4223 C   0  0  0  0  0  0  0  0  0  0  0  0
    2.3271    6.7559    5.2022 C   0  0  0  0  0  0  0  0  0  0  0  0
    2.5414    5.3098    7.0956 C   0  0  0  0  0  0  0  0  0  0  0  0
    4.0477    7.3300    6.9355 C   0  0  0  0  0  0  0  0  0  0  0  0
    4.0456    8.7164    6.6945 C   0  0  0  0  0  0  0  0  0  0  0  0
    5.1465    6.8009    7.6368 C   0  0  0  0  0  0  0  0  0  0  0  0
    5.1053    9.5313    7.0957 C   0  0  0  0  0  0  0  0  0  0  0  0
    6.2062    7.6160    8.0482 C   0  0  0  0  0  0  0  0  0  0  0  0
    6.1897    8.9788    7.7686 C   0  0  0  0  0  0  0  0  0  0  0  0
   -0.4234   -2.4858   -2.9808 H   0  0  0  0  0  0  0  0  0  0  0  0
   -3.1451    0.6777    2.7786 H   0  0  0  0  0  0  0  0  0  0  0  0
    0.8632    0.5646    0.0991 H   0  0  0  0  0  0  0  0  0  0  0  0
    1.3824   -0.2030   -2.1226 H   0  0  0  0  0  0  0  0  0  0  0  0
   -0.8406    1.8427   -0.9779 H   0  0  0  0  0  0  0  0  0  0  0  0
    1.6487   -2.3441   -1.0801 H   0  0  0  0  0  0  0  0  0  0  0  0
   -2.4504   -0.6019   -1.7577 H   0  0  0  0  0  0  0  0  0  0  0  0
   -2.1593    0.9045   -2.6275 H   0  0  0  0  0  0  0  0  0  0  0  0
   -0.0558   -3.1776    0.3892 H   0  0  0  0  0  0  0  0  0  0  0  0
   -1.3613   -2.4526   -0.5541 H   0  0  0  0  0  0  0  0  0  0  0  0
   -2.5465    1.6363    5.5173 H   0  0  0  0  0  0  0  0  0  0  0  0
   -0.9530    3.2313    6.5811 H   0  0  0  0  0  0  0  0  0  0  0  0
    0.8947    6.1916    3.7088 H   0  0  0  0  0  0  0  0  0  0  0  0
    1.2960    3.5721    7.1120 H   0  0  0  0  0  0  0  0  0  0  0  0
    2.6168    7.6317    4.6247 H   0  0  0  0  0  0  0  0  0  0  0  0
    2.9821    5.0346    8.0517 H   0  0  0  0  0  0  0  0  0  0  0  0
    3.2109    9.1839    6.1760 H   0  0  0  0  0  0  0  0  0  0  0  0
    5.2078    5.7361    7.8499 H   0  0  0  0  0  0  0  0  0  0  0  0
    5.0818   10.5945    6.8723 H   0  0  0  0  0  0  0  0  0  0  0  0
    7.0502    7.1795    8.5758 H   0  0  0  0  0  0  0  0  0  0  0  0
    7.0205    9.6092    8.0700 H   0  0  0  0  0  0  0  0  0  0  0  0
  1 12  1  0  0  0  0
  2 13  1  0  0  0  0
  3 14  1  0  0  0  0
  4 32  1  0  0  0  0
  5 14  1  0  0  0  0
  5 15  1  0  0  0  0
  5 33  1  0  0  0  0
  6 14  2  0  0  0  0
  6 16  1  0  0  0  0
  7 16  1  0  0  0  0
  7 18  2  0  0  0  0
  8  2  1  0  0  0  0
  8  9  1  0  0  0  0
  8 10  1  0  0  0  0
  8 34  1  1  0  0  0
  9  1  1  0  0  0  0
  9 11  1  0  0  0  0
  9 35  1  6  0  0  0
 10  3  1  0  0  0  0
 10 12  1  0  0  0  0
 10 36  1  6  0  0  0
 11  4  1  0  0  0  0
 11 13  1  0  0  0  0
 11 37  1  1  0  0  0
 12 38  1  0  0  0  0
 12 39  1  0  0  0  0
 13 40  1  0  0  0  0
 13 41  1  0  0  0  0
 15 16  2  0  0  0  0
 15 17  1  0  0  0  0
 17 19  2  0  0  0  0
 17 42  1  0  0  0  0
 18 19  1  0  0  0  0
 18 20  1  0  0  0  0
 19 43  1  0  0  0  0
 20 21  2  0  0  0  0
 20 22  1  0  0  0  0
 21 24  1  0  0  0  0
 21 44  1  0  0  0  0
 22 25  2  0  0  0  0
 22 45  1  0  0  0  0
 23 24  2  0  0  0  0
 23 25  1  0  0  0  0
 23 26  1  0  0  0  0
 24 46  1  0  0  0  0
 25 47  1  0  0  0  0
 26 27  2  0  0  0  0
 26 28  1  0  0  0  0
 27 29  1  0  0  0  0
 27 48  1  0  0  0  0
 28 30  2  0  0  0  0
 28 49  1  0  0  0  0
 29 31  2  0  0  0  0
 29 50  1  0  0  0  0
 30 31  1  0  0  0  0
 30 51  1  0  0  0  0
 31 52  1  0  0  0  0
M  END
>  <Mol_ID>
5978

>  <Formula>
C24H20ClN3O4

>  <MolWeight>
449.8863

>  <Cat>
E1031

>  <Name>
MK-8722

>  <Synonyms>
N/A

>  <Target>
AMPK

>  <Form>
Free Base

>  <CAS>
1394371-71-1

>  <URL>
http://www.selleckchem.com/products/mk-8722.html

$$$$
