MK-8719
 OpenBabel08302521353D

 31 32  0  0  0  0  0  0  0  0999 V2000
    1.8432   -1.1361   -0.1242 C   0  0  2  0  0  0  0  0  0  0  0  0
    2.0979    0.3251   -0.5024 C   0  0  2  0  0  0  0  0  0  0  0  0
    1.2658    1.3129    0.3316 C   0  0  1  0  0  0  0  0  0  0  0  0
   -0.1663    0.8464    0.6603 C   0  0  2  0  0  0  0  0  0  0  0  0
   -0.4020   -0.6733    0.6168 C   0  0  2  0  0  0  0  0  0  0  0  0
    0.4447   -1.4383   -0.2282 O   0  0  0  0  0  0  0  0  0  0  0  0
    2.4488   -1.5397    1.2202 C   0  0  0  0  0  0  0  0  0  0  0  0
    1.9706    1.6778    1.5254 O   0  0  0  0  0  0  0  0  0  0  0  0
    3.7929   -1.3643    1.2029 F   0  0  0  0  0  0  0  0  0  0  0  0
    1.9743   -0.7459    2.2181 F   0  0  0  0  0  0  0  0  0  0  0  0
    1.7810    0.4624   -1.8991 O   0  0  0  0  0  0  0  0  0  0  0  0
   -1.1141    1.5584   -0.2353 N   0  0  0  0  0  0  0  0  0  0  0  0
   -2.1124    0.8063   -0.5375 C   0  0  0  0  0  0  0  0  0  0  0  0
   -2.1158   -0.8259    0.0571 S   0  0  0  0  0  0  0  0  0  0  0  0
   -3.2029    1.1762   -1.2623 N   0  0  0  0  0  0  0  0  0  0  0  0
   -3.6472    2.5584   -1.2572 C   0  0  0  0  0  0  0  0  0  0  0  0
   -4.8652    2.7279   -2.1481 C   0  0  0  0  0  0  0  0  0  0  0  0
    2.3255   -1.7618   -0.8850 H   0  0  0  0  0  0  0  0  0  0  0  0
    3.1659    0.5519   -0.3998 H   0  0  0  0  0  0  0  0  0  0  0  0
    1.1974    2.2533   -0.2303 H   0  0  0  0  0  0  0  0  0  0  0  0
   -0.4148    1.1910    1.6751 H   0  0  0  0  0  0  0  0  0  0  0  0
   -0.3411   -1.0955    1.6252 H   0  0  0  0  0  0  0  0  0  0  0  0
    2.2247   -2.5776    1.4805 H   0  0  0  0  0  0  0  0  0  0  0  0
    1.9857    0.9185    2.1368 H   0  0  0  0  0  0  0  0  0  0  0  0
    1.7858    1.4101   -2.1202 H   0  0  0  0  0  0  0  0  0  0  0  0
   -3.9413    0.4820   -1.2614 H   0  0  0  0  0  0  0  0  0  0  0  0
   -3.9057    2.8557   -0.2346 H   0  0  0  0  0  0  0  0  0  0  0  0
   -2.8466    3.2177   -1.6086 H   0  0  0  0  0  0  0  0  0  0  0  0
   -5.7040    2.1249   -1.7847 H   0  0  0  0  0  0  0  0  0  0  0  0
   -5.1819    3.7755   -2.1623 H   0  0  0  0  0  0  0  0  0  0  0  0
   -4.6489    2.4199   -3.1753 H   0  0  0  0  0  0  0  0  0  0  0  0
  1  2  1  0  0  0  0
  1 18  1  6  0  0  0
  1  7  1  0  0  0  0
  2  3  1  0  0  0  0
  2 19  1  1  0  0  0
  2 11  1  0  0  0  0
  3  4  1  0  0  0  0
  3  8  1  0  0  0  0
  3 20  1  6  0  0  0
  4  5  1  0  0  0  0
  4 12  1  0  0  0  0
  4 21  1  1  0  0  0
  5  6  1  0  0  0  0
  5 14  1  0  0  0  0
  5 22  1  1  0  0  0
  6  1  1  0  0  0  0
  7  9  1  0  0  0  0
  7 10  1  0  0  0  0
  7 23  1  0  0  0  0
  8 24  1  0  0  0  0
 11 25  1  0  0  0  0
 12 13  2  0  0  0  0
 13 14  1  0  0  0  0
 13 15  1  0  0  0  0
 15 16  1  0  0  0  0
 15 26  1  0  0  0  0
 16 17  1  0  0  0  0
 16 27  1  0  0  0  0
 16 28  1  0  0  0  0
 17 29  1  0  0  0  0
 17 30  1  0  0  0  0
 17 31  1  0  0  0  0
M  END
>  <Mol_ID>
6745

>  <Formula>
C9H14F2N2O3S

>  <MolWeight>
268.2808664

>  <Cat>
S8890

>  <Name>
MK-8719

>  <Synonyms>
N/A

>  <Target>
OGA

>  <Form>
Free base

>  <CAS>
1382799-40-7

>  <URL>
http://www.selleckchem.com/products/mk-8719.html

$$$$
