MK2 Inhibitor III
 OpenBabel08302521313D

 42 46  0  0  0  0  0  0  0  0999 V2000
    3.5844   -0.0989    2.5160 O   0  0  0  0  0  0  0  0  0  0  0  0
    3.4705    2.5870   -1.2071 N   0  0  0  0  0  0  0  0  0  0  0  0
    3.3830   -1.1720    0.5407 N   0  0  0  0  0  0  0  0  0  0  0  0
    3.5137    7.7436   -0.1578 N   0  0  0  0  0  0  0  0  0  0  0  0
    5.3853    8.3771   -4.4965 N   0  0  0  0  0  0  0  0  0  0  0  0
    3.4448    1.2691   -0.8141 C   0  0  0  0  0  0  0  0  0  0  0  0
    3.3668    0.0799   -1.7001 C   0  0  0  0  0  0  0  0  0  0  0  0
    3.5174    1.2167    0.5565 C   0  0  0  0  0  0  0  0  0  0  0  0
    3.3825   -1.2492   -0.9089 C   0  0  0  0  0  0  0  0  0  0  0  0
    3.5777    3.4152   -0.1000 C   0  0  0  0  0  0  0  0  0  0  0  0
    3.6236    2.5591    1.0025 C   0  0  0  0  0  0  0  0  0  0  0  0
    3.4992   -0.0317    1.2956 C   0  0  0  0  0  0  0  0  0  0  0  0
    3.5712    4.9024   -0.1482 C   0  0  0  0  0  0  0  0  0  0  0  0
    4.1487    5.6865   -1.2003 C   0  0  0  0  0  0  0  0  0  0  0  0
    4.1488    7.1319   -1.1857 C   0  0  0  0  0  0  0  0  0  0  0  0
    2.9931    5.5848    0.9132 C   0  0  0  0  0  0  0  0  0  0  0  0
    4.8717    8.0594   -2.2112 C   0  0  0  0  0  0  0  0  0  0  0  0
    2.9861    6.9701    0.8510 C   0  0  0  0  0  0  0  0  0  0  0  0
    5.1309    9.4810   -2.2724 C   0  0  0  0  0  0  0  0  0  0  0  0
    5.9905   10.3486   -3.4209 C   0  0  0  0  0  0  0  0  0  0  0  0
    5.2000    9.7449   -4.3005 C   0  0  0  0  0  0  0  0  0  0  0  0
    5.3184    7.5709   -3.3976 C   0  0  0  0  0  0  0  0  0  0  0  0
    6.9136   11.1617   -4.6327 C   0  0  0  0  0  0  0  0  0  0  0  0
    4.5855   10.7015   -5.1164 C   0  0  0  0  0  0  0  0  0  0  0  0
    6.3930   11.7194   -5.8325 C   0  0  0  0  0  0  0  0  0  0  0  0
    5.3704   10.9044   -6.2189 C   0  0  0  0  0  0  0  0  0  0  0  0
    3.4127    2.9139   -2.1615 H   0  0  0  0  0  0  0  0  0  0  0  0
    3.4625   -2.0224    1.0830 H   0  0  0  0  0  0  0  0  0  0  0  0
    4.2243    0.0806   -2.3816 H   0  0  0  0  0  0  0  0  0  0  0  0
    2.4518    0.1212   -2.2994 H   0  0  0  0  0  0  0  0  0  0  0  0
    4.2727   -1.8299   -1.1791 H   0  0  0  0  0  0  0  0  0  0  0  0
    2.5121   -1.8569   -1.1854 H   0  0  0  0  0  0  0  0  0  0  0  0
    3.7241    2.8562    2.0398 H   0  0  0  0  0  0  0  0  0  0  0  0
    4.6496    5.1265   -1.9855 H   0  0  0  0  0  0  0  0  0  0  0  0
    2.5444    5.0679    1.7632 H   0  0  0  0  0  0  0  0  0  0  0  0
    2.5461    7.5282    1.6756 H   0  0  0  0  0  0  0  0  0  0  0  0
    4.4237   10.1301   -1.7134 H   0  0  0  0  0  0  0  0  0  0  0  0
    5.5106    6.5151   -3.5373 H   0  0  0  0  0  0  0  0  0  0  0  0
    7.6341   10.4145   -5.0909 H   0  0  0  0  0  0  0  0  0  0  0  0
    4.3901   11.6642   -4.5588 H   0  0  0  0  0  0  0  0  0  0  0  0
    6.2651   12.7951   -5.9750 H   0  0  0  0  0  0  0  0  0  0  0  0
    5.7507    9.9132   -6.5760 H   0  0  0  0  0  0  0  0  0  0  0  0
  1 12  2  0  0  0  0
  2  6  1  0  0  0  0
  2 10  1  0  0  0  0
  2 27  1  0  0  0  0
  3  9  1  0  0  0  0
  3 12  1  0  0  0  0
  3 28  1  0  0  0  0
  4 15  2  0  0  0  0
  4 18  1  0  0  0  0
  5 21  2  0  0  0  0
  5 22  1  0  0  0  0
  6  7  1  0  0  0  0
  6  8  2  0  0  0  0
  7  9  1  0  0  0  0
  7 29  1  0  0  0  0
  7 30  1  0  0  0  0
  8 11  1  0  0  0  0
  8 12  1  0  0  0  0
  9 31  1  0  0  0  0
  9 32  1  0  0  0  0
 10 11  2  0  0  0  0
 10 13  1  0  0  0  0
 11 33  1  0  0  0  0
 13 14  2  0  0  0  0
 13 16  1  0  0  0  0
 14 15  1  0  0  0  0
 14 34  1  0  0  0  0
 15 17  1  0  0  0  0
 16 18  2  0  0  0  0
 16 35  1  0  0  0  0
 17 19  1  0  0  0  0
 17 22  2  0  0  0  0
 18 36  1  0  0  0  0
 19 20  2  0  0  0  0
 19 37  1  0  0  0  0
 20 21  1  0  0  0  0
 20 23  1  0  0  0  0
 21 24  1  0  0  0  0
 22 38  1  0  0  0  0
 23 25  2  0  0  0  0
 23 39  1  0  0  0  0
 24 26  2  0  0  0  0
 24 40  1  0  0  0  0
 25 26  1  0  0  0  0
 25 41  1  0  0  0  0
 26 42  1  0  0  0  0
M  END
>  <Mol_ID>
5908

>  <Formula>
C21H16N4O

>  <MolWeight>
340.37794

>  <Cat>
S6930

>  <Name>
MK2 Inhibitor III

>  <Synonyms>
MK2-IN-3

>  <Target>
MAPKAPK2

>  <Form>
Free Base

>  <CAS>
724711-21-1

>  <URL>
http://www.selleckchem.com/products/mk2-inhibitor-iii.html

$$$$
