MK4827.cdx
 OpenBabel08302519503D

 44 47  0  0  0  0  0  0  0  0999 V2000
    2.0850    0.9750    0.0261 C   0  0  0  0  0  0  0  0  0  0  0  0
    2.1260   -0.1621    0.8911 C   0  0  0  0  0  0  0  0  0  0  0  0
    0.9822   -0.8727    1.3034 C   0  0  0  0  0  0  0  0  0  0  0  0
   -0.1706   -0.3223    0.7581 C   0  0  0  0  0  0  0  0  0  0  0  0
   -0.2796    0.8087   -0.1235 C   0  0  0  0  0  0  0  0  0  0  0  0
    0.8846    1.5060   -0.5126 C   0  0  0  0  0  0  0  0  0  0  0  0
   -1.4348   -0.7764    0.9896 C   0  0  0  0  0  0  0  0  0  0  0  0
   -2.2685    0.0460    0.2636 N   0  0  0  0  0  0  0  0  0  0  0  0
   -1.5796    0.9950   -0.4321 N   0  0  0  0  0  0  0  0  0  0  0  0
    0.8863    2.6960   -1.3785 C   0  0  0  0  0  0  0  0  0  0  0  0
    1.9285    3.2755   -1.6591 O   0  0  0  0  0  0  0  0  0  0  0  0
   -0.3188    3.1335   -1.8457 N   0  0  0  0  0  0  0  0  0  0  0  0
   -3.6856   -0.0319    0.1798 C   0  0  0  0  0  0  0  0  0  0  0  0
   -4.3944   -0.9078    1.0032 C   0  0  0  0  0  0  0  0  0  0  0  0
   -5.7798   -1.0198    0.8807 C   0  0  0  0  0  0  0  0  0  0  0  0
   -6.4972   -0.2766   -0.0665 C   0  0  0  0  0  0  0  0  0  0  0  0
   -5.7758    0.6241   -0.8689 C   0  0  0  0  0  0  0  0  0  0  0  0
   -4.3860    0.7559   -0.7421 C   0  0  0  0  0  0  0  0  0  0  0  0
   -7.9986   -0.4693   -0.2903 C   0  0  1  0  0  0  0  0  0  0  0  0
   -8.6671   -1.5854    0.5518 C   0  0  0  0  0  0  0  0  0  0  0  0
   -8.7746   -1.2403    1.9754 N   0  0  0  0  0  0  0  0  0  0  0  0
   -9.5391   -0.0120    2.1785 C   0  0  0  0  0  0  0  0  0  0  0  0
   -8.9988    1.1685    1.3707 C   0  0  0  0  0  0  0  0  0  0  0  0
   -8.8166    0.8220   -0.1054 C   0  0  0  0  0  0  0  0  0  0  0  0
    3.0289    1.4655   -0.2280 H   0  0  0  0  0  0  0  0  0  0  0  0
    3.1011   -0.4945    1.2531 H   0  0  0  0  0  0  0  0  0  0  0  0
    1.0199   -1.7300    1.9622 H   0  0  0  0  0  0  0  0  0  0  0  0
   -1.7987   -1.6022    1.5808 H   0  0  0  0  0  0  0  0  0  0  0  0
   -1.1820    2.6603   -1.5898 H   0  0  0  0  0  0  0  0  0  0  0  0
   -0.3551    3.9674   -2.4123 H   0  0  0  0  0  0  0  0  0  0  0  0
   -3.9137   -1.5179    1.7604 H   0  0  0  0  0  0  0  0  0  0  0  0
   -6.2795   -1.7146    1.5506 H   0  0  0  0  0  0  0  0  0  0  0  0
   -6.2871    1.2230   -1.6200 H   0  0  0  0  0  0  0  0  0  0  0  0
   -3.8661    1.4558   -1.3930 H   0  0  0  0  0  0  0  0  0  0  0  0
   -8.0938   -0.7772   -1.3417 H   0  0  0  0  0  0  0  0  0  0  0  0
   -9.6710   -1.7900    0.1572 H   0  0  0  0  0  0  0  0  0  0  0  0
   -8.1071   -2.5226    0.4504 H   0  0  0  0  0  0  0  0  0  0  0  0
   -9.2157   -2.0059    2.4828 H   0  0  0  0  0  0  0  0  0  0  0  0
   -9.5095    0.2466    3.2428 H   0  0  0  0  0  0  0  0  0  0  0  0
  -10.5903   -0.1899    1.9229 H   0  0  0  0  0  0  0  0  0  0  0  0
   -8.0419    1.5010    1.7906 H   0  0  0  0  0  0  0  0  0  0  0  0
   -9.6940    2.0120    1.4591 H   0  0  0  0  0  0  0  0  0  0  0  0
   -8.3726    1.6715   -0.6350 H   0  0  0  0  0  0  0  0  0  0  0  0
   -9.8095    0.6697   -0.5510 H   0  0  0  0  0  0  0  0  0  0  0  0
  1  2  1  0  0  0  0
  1 25  1  0  0  0  0
  2  3  2  0  0  0  0
  2 26  1  0  0  0  0
  3  4  1  0  0  0  0
  3 27  1  0  0  0  0
  4  5  1  0  0  0  0
  4  7  2  0  0  0  0
  5  6  1  0  0  0  0
  6  1  2  0  0  0  0
  6 10  1  0  0  0  0
  7  8  1  0  0  0  0
  7 28  1  0  0  0  0
  8  9  1  0  0  0  0
  8 13  1  0  0  0  0
  9  5  2  0  0  0  0
 10 11  2  0  0  0  0
 10 12  1  0  0  0  0
 12 29  1  0  0  0  0
 12 30  1  0  0  0  0
 13 14  2  0  0  0  0
 14 15  1  0  0  0  0
 14 31  1  0  0  0  0
 15 16  2  0  0  0  0
 15 32  1  0  0  0  0
 16 17  1  0  0  0  0
 17 18  2  0  0  0  0
 17 33  1  0  0  0  0
 18 13  1  0  0  0  0
 18 34  1  0  0  0  0
 19 16  1  0  0  0  0
 19 20  1  0  0  0  0
 19 35  1  6  0  0  0
 20 21  1  0  0  0  0
 20 36  1  0  0  0  0
 20 37  1  0  0  0  0
 21 22  1  0  0  0  0
 21 38  1  0  0  0  0
 22 23  1  0  0  0  0
 22 39  1  0  0  0  0
 22 40  1  0  0  0  0
 23 24  1  0  0  0  0
 23 41  1  0  0  0  0
 23 42  1  0  0  0  0
 24 19  1  0  0  0  0
 24 43  1  0  0  0  0
 24 44  1  0  0  0  0
M  END
>  <Mol_ID>
1615

>  <Formula>
C19H20N4O

>  <MolWeight>
320.3883

>  <Cat>
S2741

>  <Name>
Niraparib (MK-4827)

>  <Target>
Apoptosis related,PARP

>  <Form>
Free Base

>  <CAS>
1038915-60-4

>  <URL>
http://selleckchem.com/products/mk-4827.html

$$$$
