MK6-83
 OpenBabel08302521313D

 42 44  0  0  0  0  0  0  0  0999 V2000
    0.9378   -0.0741   -0.8145 S   0  0  0  0  0  0  0  0  0  0  0  0
    3.3982    1.4960   -0.1981 S   0  0  0  0  0  0  0  0  0  0  0  0
    0.3803    1.1494   -0.2806 O   0  0  0  0  0  0  0  0  0  0  0  0
    0.5758   -0.5168   -2.1500 O   0  0  0  0  0  0  0  0  0  0  0  0
    2.6221   -1.7166    2.2196 N   0  0  0  0  0  0  0  0  0  0  0  0
    0.4671   -1.3138    0.2320 N   0  0  0  0  0  0  0  0  0  0  0  0
    1.5218   -1.0454    2.9454 C   0  0  0  0  0  0  0  0  0  0  0  0
    3.7929   -1.9330    3.0951 C   0  0  0  0  0  0  0  0  0  0  0  0
    1.9940    0.3306    3.4181 C   0  0  0  0  0  0  0  0  0  0  0  0
    4.3153   -0.5950    3.6177 C   0  0  0  0  0  0  0  0  0  0  0  0
    3.2258    0.2156    4.3068 C   0  0  0  0  0  0  0  0  0  0  0  0
    2.3106   -2.6722    1.2302 C   0  0  0  0  0  0  0  0  0  0  0  0
    1.2683   -2.5105    0.2706 C   0  0  0  0  0  0  0  0  0  0  0  0
    3.0783   -3.8500    1.0842 C   0  0  0  0  0  0  0  0  0  0  0  0
    1.0230   -3.4684   -0.7288 C   0  0  0  0  0  0  0  0  0  0  0  0
    2.8359   -4.8034    0.0854 C   0  0  0  0  0  0  0  0  0  0  0  0
    1.8034   -4.6163   -0.8176 C   0  0  0  0  0  0  0  0  0  0  0  0
    2.7051    0.0894   -0.8709 C   0  0  0  0  0  0  0  0  0  0  0  0
    3.6739   -0.7345   -1.4131 C   0  0  0  0  0  0  0  0  0  0  0  0
    4.9893    0.9323   -0.4741 C   0  0  0  0  0  0  0  0  0  0  0  0
    4.9917   -0.2593   -1.1678 C   0  0  0  0  0  0  0  0  0  0  0  0
    6.1533    1.7161    0.0220 C   0  0  0  0  0  0  0  0  0  0  0  0
   -0.5145   -1.5125    0.0447 H   0  0  0  0  0  0  0  0  0  0  0  0
    1.2284   -1.6594    3.8067 H   0  0  0  0  0  0  0  0  0  0  0  0
    0.6092   -0.8904    2.3762 H   0  0  0  0  0  0  0  0  0  0  0  0
    4.6340   -2.3967    2.5716 H   0  0  0  0  0  0  0  0  0  0  0  0
    3.5110   -2.5840    3.9340 H   0  0  0  0  0  0  0  0  0  0  0  0
    1.1896    0.8352    3.9640 H   0  0  0  0  0  0  0  0  0  0  0  0
    2.2311    0.9569    2.5513 H   0  0  0  0  0  0  0  0  0  0  0  0
    4.7198   -0.0181    2.7772 H   0  0  0  0  0  0  0  0  0  0  0  0
    5.1429   -0.7692    4.3148 H   0  0  0  0  0  0  0  0  0  0  0  0
    3.6056    1.2133    4.5525 H   0  0  0  0  0  0  0  0  0  0  0  0
    2.9497   -0.2675    5.2516 H   0  0  0  0  0  0  0  0  0  0  0  0
    3.8985   -4.0809    1.7575 H   0  0  0  0  0  0  0  0  0  0  0  0
    0.2325   -3.3167   -1.4590 H   0  0  0  0  0  0  0  0  0  0  0  0
    3.4639   -5.6895    0.0230 H   0  0  0  0  0  0  0  0  0  0  0  0
    1.6126   -5.3545   -1.5926 H   0  0  0  0  0  0  0  0  0  0  0  0
    3.4350   -1.6592   -1.9236 H   0  0  0  0  0  0  0  0  0  0  0  0
    5.8933   -0.7812   -1.4646 H   0  0  0  0  0  0  0  0  0  0  0  0
    6.3477    2.5759   -0.6266 H   0  0  0  0  0  0  0  0  0  0  0  0
    5.9782    2.0773    1.0411 H   0  0  0  0  0  0  0  0  0  0  0  0
    7.0542    1.0941    0.0448 H   0  0  0  0  0  0  0  0  0  0  0  0
  1  3  2  0  0  0  0
  1  4  2  0  0  0  0
  1  6  1  0  0  0  0
  1 18  1  0  0  0  0
  2 18  1  0  0  0  0
  2 20  1  0  0  0  0
  5  7  1  0  0  0  0
  5  8  1  0  0  0  0
  5 12  1  0  0  0  0
  6 13  1  0  0  0  0
  6 23  1  0  0  0  0
  7  9  1  0  0  0  0
  7 24  1  0  0  0  0
  7 25  1  0  0  0  0
  8 10  1  0  0  0  0
  8 26  1  0  0  0  0
  8 27  1  0  0  0  0
  9 11  1  0  0  0  0
  9 28  1  0  0  0  0
  9 29  1  0  0  0  0
 10 11  1  0  0  0  0
 10 30  1  0  0  0  0
 10 31  1  0  0  0  0
 11 32  1  0  0  0  0
 11 33  1  0  0  0  0
 12 13  1  0  0  0  0
 12 14  2  0  0  0  0
 13 15  2  0  0  0  0
 14 16  1  0  0  0  0
 14 34  1  0  0  0  0
 15 17  1  0  0  0  0
 15 35  1  0  0  0  0
 16 17  2  0  0  0  0
 16 36  1  0  0  0  0
 17 37  1  0  0  0  0
 18 19  2  0  0  0  0
 19 21  1  0  0  0  0
 19 38  1  0  0  0  0
 20 21  2  0  0  0  0
 20 22  1  0  0  0  0
 21 39  1  0  0  0  0
 22 40  1  0  0  0  0
 22 41  1  0  0  0  0
 22 42  1  0  0  0  0
M  END
>  <Mol_ID>
5909

>  <Formula>
C16H20N2O2S2

>  <MolWeight>
336.4722

>  <Cat>
S6947

>  <Name>
MK6-83

>  <Synonyms>
N/A

>  <Target>
TRP Channel

>  <Form>
Free Base

>  <CAS>
1062271-24-2

>  <URL>
http://www.selleckchem.com/products/mk6-83.html

$$$$
