MKT-077
 OpenBabel08302521233D

 49 52  0  0  0  0  0  0  0  0999 V2000
    1.7374    1.3004    0.0039 C   0  0  0  0  0  0  0  0  0  0  0  0
    2.2388   -0.0058   -0.0080 C   0  0  0  0  0  0  0  0  0  0  0  0
    1.3616   -1.0815   -0.0183 C   0  0  0  0  0  0  0  0  0  0  0  0
   -0.0029   -0.8216   -0.0136 C   0  0  0  0  0  0  0  0  0  0  0  0
   -0.5399    0.4753    0.0018 C   0  0  0  0  0  0  0  0  0  0  0  0
    0.3536    1.5454    0.0087 C   0  0  0  0  0  0  0  0  0  0  0  0
   -1.2562   -2.0600   -0.0240 S   0  0  0  0  0  0  0  0  0  0  0  0
   -2.5471   -0.7792    0.0307 C   0  0  0  0  0  0  0  0  0  0  0  0
   -1.9647    0.5174    0.0140 N   0  0  0  0  0  0  0  0  0  0  0  0
   -2.5622    1.8382    0.0044 C   0  0  0  0  0  0  0  0  0  0  0  0
   -3.8396   -1.2083    0.0692 C   0  0  0  0  0  0  0  0  0  0  0  0
   -4.2719   -2.6579    0.1084 C   0  0  0  0  0  0  0  0  0  0  0  0
   -5.6549   -2.7591    0.0039 N   0  0  0  0  0  0  0  0  0  0  0  0
   -6.3516   -1.5794   -0.0006 C   0  0  0  0  0  0  0  0  0  0  0  0
   -5.2787   -0.2121    0.0769 S   0  0  0  0  0  0  0  0  0  0  0  0
   -3.5613   -3.6390    0.2493 O   0  0  0  0  0  0  0  0  0  0  0  0
   -6.2394   -4.0968    0.0011 C   0  0  0  0  0  0  0  0  0  0  0  0
   -7.6925   -1.4927   -0.0222 C   0  0  0  0  0  0  0  0  0  0  0  0
   -8.4669   -0.2513   -0.0286 C   0  0  0  0  0  0  0  0  0  0  0  0
   -6.5005   -4.6094    1.4098 C   0  0  0  0  0  0  0  0  0  0  0  0
   -8.7341    0.3710   -1.2545 C   0  0  0  0  0  0  0  0  0  0  0  0
   -9.4568    1.5546   -1.2911 C   0  0  0  0  0  0  0  0  0  0  0  0
   -9.9140    2.1003   -0.1033 C   0  0  0  0  0  0  0  0  0  0  0  0
   -9.6558    1.4450    1.0939 C   0  0  0  0  0  0  0  0  0  0  0  0
   -8.9510    0.2856    1.1266 N   0  3  0  0  0  0  0  0  0  0  0  0
   -8.7156   -0.3489    2.4527 C   0  0  0  0  0  0  0  0  0  0  0  0
   -9.8481   -1.3055    2.7755 C   0  0  0  0  0  0  0  0  0  0  0  0
    2.4370    2.1346    0.0103 H   0  0  0  0  0  0  0  0  0  0  0  0
    3.3114   -0.1848   -0.0100 H   0  0  0  0  0  0  0  0  0  0  0  0
    1.7308   -2.1026   -0.0273 H   0  0  0  0  0  0  0  0  0  0  0  0
    0.0173    2.5758    0.0204 H   0  0  0  0  0  0  0  0  0  0  0  0
   -2.2657    2.4054    0.8955 H   0  0  0  0  0  0  0  0  0  0  0  0
   -2.2476    2.4008   -0.8835 H   0  0  0  0  0  0  0  0  0  0  0  0
   -3.6494    1.8373   -0.0102 H   0  0  0  0  0  0  0  0  0  0  0  0
   -7.1538   -4.1126   -0.5997 H   0  0  0  0  0  0  0  0  0  0  0  0
   -5.5436   -4.7828   -0.4976 H   0  0  0  0  0  0  0  0  0  0  0  0
   -8.3138   -2.3828   -0.0581 H   0  0  0  0  0  0  0  0  0  0  0  0
   -7.2590   -4.0044    1.9162 H   0  0  0  0  0  0  0  0  0  0  0  0
   -6.8528   -5.6448    1.3765 H   0  0  0  0  0  0  0  0  0  0  0  0
   -5.5904   -4.5802    2.0188 H   0  0  0  0  0  0  0  0  0  0  0  0
   -8.3750   -0.0639   -2.1868 H   0  0  0  0  0  0  0  0  0  0  0  0
   -9.6568    2.0486   -2.2411 H   0  0  0  0  0  0  0  0  0  0  0  0
  -10.4726    3.0342   -0.1094 H   0  0  0  0  0  0  0  0  0  0  0  0
  -10.0131    1.8437    2.0400 H   0  0  0  0  0  0  0  0  0  0  0  0
   -7.7475   -0.8551    2.4531 H   0  0  0  0  0  0  0  0  0  0  0  0
   -8.6569    0.4506    3.1995 H   0  0  0  0  0  0  0  0  0  0  0  0
   -9.8956   -2.1274    2.0547 H   0  0  0  0  0  0  0  0  0  0  0  0
   -9.7061   -1.7360    3.7719 H   0  0  0  0  0  0  0  0  0  0  0  0
  -10.8160   -0.7942    2.7613 H   0  0  0  0  0  0  0  0  0  0  0  0
  1  2  2  0  0  0  0
  1 28  1  0  0  0  0
  2  3  1  0  0  0  0
  2 29  1  0  0  0  0
  3  4  2  0  0  0  0
  3 30  1  0  0  0  0
  4  5  1  0  0  0  0
  4  7  1  0  0  0  0
  5  6  2  0  0  0  0
  6  1  1  0  0  0  0
  6 31  1  0  0  0  0
  7  8  1  0  0  0  0
  8  9  1  0  0  0  0
  8 11  2  0  0  0  0
  9  5  1  0  0  0  0
  9 10  1  0  0  0  0
 10 32  1  0  0  0  0
 10 33  1  0  0  0  0
 10 34  1  0  0  0  0
 11 12  1  0  0  0  0
 12 13  1  0  0  0  0
 12 16  2  0  0  0  0
 13 14  1  0  0  0  0
 13 17  1  0  0  0  0
 14 15  1  0  0  0  0
 14 18  2  0  0  0  0
 15 11  1  0  0  0  0
 17 20  1  0  0  0  0
 17 35  1  0  0  0  0
 17 36  1  0  0  0  0
 18 19  1  0  0  0  0
 18 37  1  0  0  0  0
 19 21  2  0  0  0  0
 20 38  1  0  0  0  0
 20 39  1  0  0  0  0
 20 40  1  0  0  0  0
 21 22  1  0  0  0  0
 21 41  1  0  0  0  0
 22 23  2  0  0  0  0
 22 42  1  0  0  0  0
 23 24  1  0  0  0  0
 23 43  1  0  0  0  0
 24 25  2  0  0  0  0
 24 44  1  0  0  0  0
 25 19  1  0  0  0  0
 25 26  1  0  0  0  0
 26 27  1  0  0  0  0
 26 45  1  0  0  0  0
 26 46  1  0  0  0  0
 27 47  1  0  0  0  0
 27 48  1  0  0  0  0
 27 49  1  0  0  0  0
M  CHG  1  25   1
M  END
>  <Mol_ID>
4769

>  <Formula>
C21H22ClN3OS2

>  <MolWeight>
432.00188

>  <Cat>
S6718

>  <Name>
MKT-077

>  <Synonyms>
FJ-776

>  <Target>
Dyes

>  <Form>
Free Base

>  <CAS>
147366-41-4

>  <URL>
http://www.selleck.cn/products/mkt-077.html

$$$$
