ML-180
 OpenBabel08302521283D

 52 55  0  0  0  0  0  0  0  0999 V2000
    1.0768   -0.0953   -0.0652 O   0  0  0  0  0  0  0  0  0  0  0  0
    5.0118    2.3465   -0.1735 O   0  0  0  0  0  0  0  0  0  0  0  0
    2.9725    1.2444   -0.0416 N   0  0  0  0  0  0  0  0  0  0  0  0
    5.0933   -2.3421    0.0645 N   0  0  0  0  0  0  0  0  0  0  0  0
    6.7860   -4.5892    0.5965 N   0  0  0  0  0  0  0  0  0  0  0  0
    3.0726   -1.0900   -0.0335 N   0  0  0  0  0  0  0  0  0  0  0  0
    2.2276    2.5124   -0.1047 C   0  0  0  0  0  0  0  0  0  0  0  0
    1.2449    2.7223    1.0616 C   0  0  0  0  0  0  0  0  0  0  0  0
    1.5469    2.6933   -1.4719 C   0  0  0  0  0  0  0  0  0  0  0  0
    0.5219    4.0654    0.9385 C   0  0  0  0  0  0  0  0  0  0  0  0
    0.8117    4.0268   -1.5663 C   0  0  0  0  0  0  0  0  0  0  0  0
   -0.1716    4.2053   -0.4142 C   0  0  0  0  0  0  0  0  0  0  0  0
    4.5712   -3.4921    0.8404 C   0  0  0  0  0  0  0  0  0  0  0  0
    6.1576   -2.7373   -0.8899 C   0  0  0  0  0  0  0  0  0  0  0  0
    5.7182   -4.2449    1.5524 C   0  0  0  0  0  0  0  0  0  0  0  0
    7.3174   -3.4388   -0.1533 C   0  0  0  0  0  0  0  0  0  0  0  0
    4.4308   -1.1315   -0.0325 C   0  0  0  0  0  0  0  0  0  0  0  0
    2.2995    0.0345   -0.0470 C   0  0  0  0  0  0  0  0  0  0  0  0
    4.3538    1.3092   -0.1104 C   0  0  0  0  0  0  0  0  0  0  0  0
    5.0853    0.0323   -0.0938 C   0  0  0  0  0  0  0  0  0  0  0  0
    7.3127   -5.8543    0.4899 C   0  0  0  0  0  0  0  0  0  0  0  0
    6.5230   -6.9891    0.7404 C   0  0  0  0  0  0  0  0  0  0  0  0
    8.6454   -6.0838    0.1248 C   0  0  0  0  0  0  0  0  0  0  0  0
    7.0499   -8.2846    0.6845 C   0  0  0  0  0  0  0  0  0  0  0  0
    9.1811   -7.3763    0.0511 C   0  0  0  0  0  0  0  0  0  0  0  0
    8.3847   -8.4759    0.3502 C   0  0  0  0  0  0  0  0  0  0  0  0
    2.5647   -1.9622   -0.0597 H   0  0  0  0  0  0  0  0  0  0  0  0
    2.9548    3.3304   -0.0170 H   0  0  0  0  0  0  0  0  0  0  0  0
    0.4936    1.9273    1.1028 H   0  0  0  0  0  0  0  0  0  0  0  0
    1.7871    2.6869    2.0149 H   0  0  0  0  0  0  0  0  0  0  0  0
    2.2991    2.6356   -2.2681 H   0  0  0  0  0  0  0  0  0  0  0  0
    0.8342    1.8826   -1.6581 H   0  0  0  0  0  0  0  0  0  0  0  0
   -0.2154    4.1645    1.7430 H   0  0  0  0  0  0  0  0  0  0  0  0
    1.2429    4.8826    1.0647 H   0  0  0  0  0  0  0  0  0  0  0  0
    0.2774    4.0822   -2.5215 H   0  0  0  0  0  0  0  0  0  0  0  0
    1.5387    4.8483   -1.5591 H   0  0  0  0  0  0  0  0  0  0  0  0
   -0.9688    3.4560   -0.4952 H   0  0  0  0  0  0  0  0  0  0  0  0
   -0.6480    5.1893   -0.4866 H   0  0  0  0  0  0  0  0  0  0  0  0
    3.8559   -3.1556    1.6013 H   0  0  0  0  0  0  0  0  0  0  0  0
    4.0430   -4.1706    0.1602 H   0  0  0  0  0  0  0  0  0  0  0  0
    5.7189   -3.4291   -1.6214 H   0  0  0  0  0  0  0  0  0  0  0  0
    6.5476   -1.8816   -1.4459 H   0  0  0  0  0  0  0  0  0  0  0  0
    6.1488   -3.6022    2.3332 H   0  0  0  0  0  0  0  0  0  0  0  0
    5.3074   -5.1137    2.0775 H   0  0  0  0  0  0  0  0  0  0  0  0
    7.7957   -2.7416    0.5450 H   0  0  0  0  0  0  0  0  0  0  0  0
    8.0595   -3.7245   -0.9039 H   0  0  0  0  0  0  0  0  0  0  0  0
    6.1638    0.1012   -0.0754 H   0  0  0  0  0  0  0  0  0  0  0  0
    5.4637   -6.8912    0.9547 H   0  0  0  0  0  0  0  0  0  0  0  0
    9.3131   -5.2546   -0.0870 H   0  0  0  0  0  0  0  0  0  0  0  0
    6.4106   -9.1347    0.8987 H   0  0  0  0  0  0  0  0  0  0  0  0
   10.2193   -7.5127   -0.2242 H   0  0  0  0  0  0  0  0  0  0  0  0
    8.8002   -9.4720    0.3215 H   0  0  0  0  0  0  0  0  0  0  0  0
  1 18  2  0  0  0  0
  2 19  2  0  0  0  0
  3  7  1  0  0  0  0
  3 18  1  0  0  0  0
  3 19  1  0  0  0  0
  4 13  1  0  0  0  0
  4 14  1  0  0  0  0
  4 17  1  0  0  0  0
  5 15  1  0  0  0  0
  5 16  1  0  0  0  0
  5 21  1  0  0  0  0
  6 17  1  0  0  0  0
  6 18  1  0  0  0  0
  6 27  1  0  0  0  0
  7  8  1  0  0  0  0
  7  9  1  0  0  0  0
  7 28  1  0  0  0  0
  8 10  1  0  0  0  0
  8 29  1  0  0  0  0
  8 30  1  0  0  0  0
  9 11  1  0  0  0  0
  9 31  1  0  0  0  0
  9 32  1  0  0  0  0
 10 12  1  0  0  0  0
 10 33  1  0  0  0  0
 10 34  1  0  0  0  0
 11 12  1  0  0  0  0
 11 35  1  0  0  0  0
 11 36  1  0  0  0  0
 12 37  1  0  0  0  0
 12 38  1  0  0  0  0
 13 15  1  0  0  0  0
 13 39  1  0  0  0  0
 13 40  1  0  0  0  0
 14 16  1  0  0  0  0
 14 41  1  0  0  0  0
 14 42  1  0  0  0  0
 15 43  1  0  0  0  0
 15 44  1  0  0  0  0
 16 45  1  0  0  0  0
 16 46  1  0  0  0  0
 17 20  2  0  0  0  0
 19 20  1  0  0  0  0
 20 47  1  0  0  0  0
 21 22  2  0  0  0  0
 21 23  1  0  0  0  0
 22 24  1  0  0  0  0
 22 48  1  0  0  0  0
 23 25  2  0  0  0  0
 23 49  1  0  0  0  0
 24 26  2  0  0  0  0
 24 50  1  0  0  0  0
 25 26  1  0  0  0  0
 25 51  1  0  0  0  0
 26 52  1  0  0  0  0
M  END
>  <Mol_ID>
5412

>  <Formula>
C20H25ClN4O2

>  <MolWeight>
388.8911

>  <Cat>
S0989

>  <Name>
ML-180

>  <Synonyms>
SR1848

>  <Target>
Others

>  <Form>
Free Base

>  <CAS>
863588-32-3

>  <URL>
https://www.selleckchem.com/products/ml-180.html

$$$$
