ML-9 HCl
 OpenBabel08302521253D

 38 40  0  0  0  0  0  0  0  0999 V2000
    1.8072    0.6758   -1.1278 C   0  0  0  0  0  0  0  0  0  0  0  0
    1.6740   -0.7384   -1.1638 C   0  0  0  0  0  0  0  0  0  0  0  0
    1.0021   -1.4135   -0.1309 C   0  0  0  0  0  0  0  0  0  0  0  0
    0.4554   -0.7234    0.9474 C   0  0  0  0  0  0  0  0  0  0  0  0
    0.5702    0.6580    1.0064 C   0  0  0  0  0  0  0  0  0  0  0  0
    1.2380    1.3541   -0.0158 C   0  0  0  0  0  0  0  0  0  0  0  0
    2.4957    1.2890   -2.2023 C   0  0  0  0  0  0  0  0  0  0  0  0
    3.0364    0.5467   -3.2545 C   0  0  0  0  0  0  0  0  0  0  0  0
    2.8909   -0.8323   -3.2726 C   0  0  0  0  0  0  0  0  0  0  0  0
    2.2118   -1.4677   -2.2357 C   0  0  0  0  0  0  0  0  0  0  0  0
    1.3142    3.1273    0.1356 S   0  0  0  0  0  0  0  0  0  0  0  0
    0.6754    3.6935   -1.0334 O   0  0  0  0  0  0  0  0  0  0  0  0
    0.8700    3.4927    1.4671 O   0  0  0  0  0  0  0  0  0  0  0  0
    2.9996    3.5163    0.0763 N   0  0  0  0  0  0  0  0  0  0  0  0
    3.7992    2.8989    1.1735 C   0  0  0  0  0  0  0  0  0  0  0  0
    5.2065    2.5546    0.6994 C   0  0  0  0  0  0  0  0  0  0  0  0
    6.1384    3.7202    0.3617 C   0  0  0  0  0  0  0  0  0  0  0  0
    5.6452    5.0671    0.6102 N   0  0  0  0  0  0  0  0  0  0  0  0
    4.6017    5.4506   -0.3453 C   0  0  0  0  0  0  0  0  0  0  0  0
    3.1750    5.0088    0.0109 C   0  0  0  0  0  0  0  0  0  0  0  0
    0.8969   -2.4967   -0.1613 H   0  0  0  0  0  0  0  0  0  0  0  0
   -0.0646   -1.2638    1.7350 H   0  0  0  0  0  0  0  0  0  0  0  0
    0.1289    1.1888    1.8488 H   0  0  0  0  0  0  0  0  0  0  0  0
    2.6276    2.3678   -2.2446 H   0  0  0  0  0  0  0  0  0  0  0  0
    3.5610    1.0535   -4.0603 H   0  0  0  0  0  0  0  0  0  0  0  0
    3.3008   -1.4131   -4.0941 H   0  0  0  0  0  0  0  0  0  0  0  0
    2.1046   -2.5503   -2.2733 H   0  0  0  0  0  0  0  0  0  0  0  0
    3.3407    1.9548    1.4856 H   0  0  0  0  0  0  0  0  0  0  0  0
    3.8139    3.5395    2.0614 H   0  0  0  0  0  0  0  0  0  0  0  0
    5.6845    1.9624    1.4908 H   0  0  0  0  0  0  0  0  0  0  0  0
    5.1423    1.8952   -0.1758 H   0  0  0  0  0  0  0  0  0  0  0  0
    7.0584    3.5987    0.9472 H   0  0  0  0  0  0  0  0  0  0  0  0
    6.4687    3.6330   -0.6817 H   0  0  0  0  0  0  0  0  0  0  0  0
    5.3103    5.1656    1.5671 H   0  0  0  0  0  0  0  0  0  0  0  0
    4.8615    5.1199   -1.3582 H   0  0  0  0  0  0  0  0  0  0  0  0
    4.5995    6.5473   -0.3834 H   0  0  0  0  0  0  0  0  0  0  0  0
    2.5221    5.4107   -0.7732 H   0  0  0  0  0  0  0  0  0  0  0  0
    2.8686    5.4597    0.9623 H   0  0  0  0  0  0  0  0  0  0  0  0
  1  2  1  0  0  0  0
  1  7  1  0  0  0  0
  2  3  2  0  0  0  0
  3  4  1  0  0  0  0
  3 21  1  0  0  0  0
  4  5  2  0  0  0  0
  4 22  1  0  0  0  0
  5  6  1  0  0  0  0
  5 23  1  0  0  0  0
  6  1  2  0  0  0  0
  6 11  1  0  0  0  0
  7  8  2  0  0  0  0
  7 24  1  0  0  0  0
  8  9  1  0  0  0  0
  8 25  1  0  0  0  0
  9 10  2  0  0  0  0
  9 26  1  0  0  0  0
 10  2  1  0  0  0  0
 10 27  1  0  0  0  0
 11 12  2  0  0  0  0
 11 13  2  0  0  0  0
 11 14  1  0  0  0  0
 14 15  1  0  0  0  0
 15 16  1  0  0  0  0
 15 28  1  0  0  0  0
 15 29  1  0  0  0  0
 16 17  1  0  0  0  0
 16 30  1  0  0  0  0
 16 31  1  0  0  0  0
 17 18  1  0  0  0  0
 17 32  1  0  0  0  0
 17 33  1  0  0  0  0
 18 19  1  0  0  0  0
 18 34  1  0  0  0  0
 19 20  1  0  0  0  0
 19 35  1  0  0  0  0
 19 36  1  0  0  0  0
 20 14  1  0  0  0  0
 20 37  1  0  0  0  0
 20 38  1  0  0  0  0
M  END
>  <Mol_ID>
5191

>  <Formula>
C15H18Cl2N2O2S

>  <MolWeight>
361.28662

>  <Cat>
S6847

>  <Name>
ML-9 HCl

>  <Synonyms>
ML-9 hydrochloride

>  <Target>
Akt,Autophagy,Calcium Channel,MLCK

>  <Form>
hydrochloride

>  <CAS>
105637-50-1

>  <URL>
http://www.selleckchem.com/products/ml-9-hcl.html

$$$$
