ML-SI3
 OpenBabel08302521313D

 61 64  0  0  0  0  0  0  0  0999 V2000
    1.1070    1.2268    1.0002 S   0  0  0  0  0  0  0  0  0  0  0  0
    2.3533    1.9559    1.0805 O   0  0  0  0  0  0  0  0  0  0  0  0
    1.0383   -0.1654    1.4007 O   0  0  0  0  0  0  0  0  0  0  0  0
   -2.3009    6.9471   -4.5624 O   0  0  0  0  0  0  0  0  0  0  0  0
   -0.7920    3.9523   -0.7366 N   0  0  0  0  0  0  0  0  0  0  0  0
    0.6123    1.2272   -0.6122 N   0  0  0  0  0  0  0  0  0  0  0  0
   -2.8974    4.8820   -2.5680 N   0  0  0  0  0  0  0  0  0  0  0  0
    0.5789    3.7343   -1.2423 C   0  0  3  0  0  0  0  0  0  0  0  0
    1.0762    2.2790   -1.5621 C   0  0  3  0  0  0  0  0  0  0  0  0
    1.0551    4.6446   -2.4018 C   0  0  0  0  0  0  0  0  0  0  0  0
    0.7045    1.7988   -2.9830 C   0  0  0  0  0  0  0  0  0  0  0  0
    0.5343    4.2246   -3.7684 C   0  0  0  0  0  0  0  0  0  0  0  0
    0.9523    2.8052   -4.1057 C   0  0  0  0  0  0  0  0  0  0  0  0
   -1.8964    3.0842   -1.1293 C   0  0  0  0  0  0  0  0  0  0  0  0
   -1.2887    5.3389   -0.6922 C   0  0  0  0  0  0  0  0  0  0  0  0
   -2.6191    3.4357   -2.4348 C   0  0  0  0  0  0  0  0  0  0  0  0
   -1.9445    5.8473   -2.0011 C   0  0  0  0  0  0  0  0  0  0  0  0
   -3.7593    5.2812   -3.5990 C   0  0  0  0  0  0  0  0  0  0  0  0
   -0.1484    2.0969    1.8776 C   0  0  0  0  0  0  0  0  0  0  0  0
   -3.5280    6.3200   -4.5420 C   0  0  0  0  0  0  0  0  0  0  0  0
   -5.0155    4.6393   -3.6496 C   0  0  0  0  0  0  0  0  0  0  0  0
   -1.4731    1.6563    1.8206 C   0  0  0  0  0  0  0  0  0  0  0  0
    0.1988    3.2242    2.6272 C   0  0  0  0  0  0  0  0  0  0  0  0
   -4.5267    6.6473   -5.4781 C   0  0  0  0  0  0  0  0  0  0  0  0
   -6.0022    4.9845   -4.5676 C   0  0  0  0  0  0  0  0  0  0  0  0
   -5.7557    5.9906   -5.4815 C   0  0  0  0  0  0  0  0  0  0  0  0
   -2.4688    2.3988    2.4581 C   0  0  0  0  0  0  0  0  0  0  0  0
   -0.7970    3.9490    3.2757 C   0  0  0  0  0  0  0  0  0  0  0  0
   -2.1318    3.5477    3.1772 C   0  0  0  0  0  0  0  0  0  0  0  0
   -2.2388    8.2166   -5.2117 C   0  0  0  0  0  0  0  0  0  0  0  0
    0.6433    0.2706   -0.9655 H   0  0  0  0  0  0  0  0  0  0  0  0
    1.1937    4.0512   -0.3874 H   0  0  0  0  0  0  0  0  0  0  0  0
    2.1752    2.2887   -1.5263 H   0  0  0  0  0  0  0  0  0  0  0  0
    0.8317    5.6976   -2.2084 H   0  0  0  0  0  0  0  0  0  0  0  0
    2.1520    4.6098   -2.4373 H   0  0  0  0  0  0  0  0  0  0  0  0
    1.2925    0.8986   -3.2109 H   0  0  0  0  0  0  0  0  0  0  0  0
   -0.3401    1.4718   -3.0139 H   0  0  0  0  0  0  0  0  0  0  0  0
    0.9107    4.9118   -4.5345 H   0  0  0  0  0  0  0  0  0  0  0  0
   -0.5467    4.3084   -3.8287 H   0  0  0  0  0  0  0  0  0  0  0  0
    2.0181    2.8097   -4.3602 H   0  0  0  0  0  0  0  0  0  0  0  0
    0.4215    2.4760   -5.0083 H   0  0  0  0  0  0  0  0  0  0  0  0
   -1.6363    2.0250   -1.1214 H   0  0  0  0  0  0  0  0  0  0  0  0
   -2.6548    3.1682   -0.3367 H   0  0  0  0  0  0  0  0  0  0  0  0
   -2.0567    5.3887    0.0937 H   0  0  0  0  0  0  0  0  0  0  0  0
   -0.5079    6.0308   -0.3554 H   0  0  0  0  0  0  0  0  0  0  0  0
   -2.0571    3.0545   -3.2909 H   0  0  0  0  0  0  0  0  0  0  0  0
   -3.5480    2.8558   -2.4123 H   0  0  0  0  0  0  0  0  0  0  0  0
   -1.1649    6.1067   -2.7167 H   0  0  0  0  0  0  0  0  0  0  0  0
   -2.4778    6.7757   -1.7635 H   0  0  0  0  0  0  0  0  0  0  0  0
   -5.2625    3.8787   -2.9151 H   0  0  0  0  0  0  0  0  0  0  0  0
   -1.7374    0.7707    1.2492 H   0  0  0  0  0  0  0  0  0  0  0  0
    1.2331    3.5497    2.6967 H   0  0  0  0  0  0  0  0  0  0  0  0
   -4.3748    7.4085   -6.2361 H   0  0  0  0  0  0  0  0  0  0  0  0
   -6.9619    4.4784   -4.5458 H   0  0  0  0  0  0  0  0  0  0  0  0
   -6.5204    6.2729   -6.1992 H   0  0  0  0  0  0  0  0  0  0  0  0
   -3.5113    2.1013    2.3754 H   0  0  0  0  0  0  0  0  0  0  0  0
   -0.5400    4.8416    3.8424 H   0  0  0  0  0  0  0  0  0  0  0  0
   -2.9101    4.1378    3.6528 H   0  0  0  0  0  0  0  0  0  0  0  0
   -2.3107    8.1132   -6.3004 H   0  0  0  0  0  0  0  0  0  0  0  0
   -3.0101    8.8948   -4.8298 H   0  0  0  0  0  0  0  0  0  0  0  0
   -1.2652    8.6668   -4.9949 H   0  0  0  0  0  0  0  0  0  0  0  0
  1  2  2  0  0  0  0
  1  3  2  0  0  0  0
  1  6  1  0  0  0  0
  1 19  1  0  0  0  0
  4 20  1  0  0  0  0
  4 30  1  0  0  0  0
  5  8  1  0  0  0  0
  5 14  1  0  0  0  0
  5 15  1  0  0  0  0
  6  9  1  0  0  0  0
  6 31  1  0  0  0  0
  7 16  1  0  0  0  0
  7 17  1  0  0  0  0
  7 18  1  0  0  0  0
  8  9  1  0  0  0  0
  8 10  1  0  0  0  0
  8 32  1  0  0  0  0
  9 11  1  0  0  0  0
  9 33  1  0  0  0  0
 10 12  1  0  0  0  0
 10 34  1  0  0  0  0
 10 35  1  0  0  0  0
 11 13  1  0  0  0  0
 11 36  1  0  0  0  0
 11 37  1  0  0  0  0
 12 13  1  0  0  0  0
 12 38  1  0  0  0  0
 12 39  1  0  0  0  0
 13 40  1  0  0  0  0
 13 41  1  0  0  0  0
 14 16  1  0  0  0  0
 14 42  1  0  0  0  0
 14 43  1  0  0  0  0
 15 17  1  0  0  0  0
 15 44  1  0  0  0  0
 15 45  1  0  0  0  0
 16 46  1  0  0  0  0
 16 47  1  0  0  0  0
 17 48  1  0  0  0  0
 17 49  1  0  0  0  0
 18 20  2  0  0  0  0
 18 21  1  0  0  0  0
 19 22  2  0  0  0  0
 19 23  1  0  0  0  0
 20 24  1  0  0  0  0
 21 25  2  0  0  0  0
 21 50  1  0  0  0  0
 22 27  1  0  0  0  0
 22 51  1  0  0  0  0
 23 28  2  0  0  0  0
 23 52  1  0  0  0  0
 24 26  2  0  0  0  0
 24 53  1  0  0  0  0
 25 26  1  0  0  0  0
 25 54  1  0  0  0  0
 26 55  1  0  0  0  0
 27 29  2  0  0  0  0
 27 56  1  0  0  0  0
 28 29  1  0  0  0  0
 28 57  1  0  0  0  0
 29 58  1  0  0  0  0
 30 59  1  0  0  0  0
 30 60  1  0  0  0  0
 30 61  1  0  0  0  0
M  END
>  <Mol_ID>
6051

>  <Formula>
C23H31N3O3S

>  <MolWeight>
429.57554

>  <Cat>
E0026

>  <Name>
ML-SI3

>  <Synonyms>
N/A

>  <Target>
TRP Channel

>  <Form>
Free Base

>  <CAS>
891016-02-7

>  <URL>
http://www.selleckchem.com/products/ml-si3.html

$$$$
