ML-SA1
 OpenBabel08302521313D

 49 52  0  0  0  0  0  0  0  0999 V2000
    5.4436   -0.6370   -1.6947 C   0  0  0  0  0  0  0  0  0  0  0  0
    5.1229   -1.5398   -0.7257 N   0  0  0  0  0  0  0  0  0  0  0  0
    4.8437   -2.7753   -1.2429 C   0  0  0  0  0  0  0  0  0  0  0  0
    4.8133   -2.6073   -2.6914 C   0  0  0  0  0  0  0  0  0  0  0  0
    4.4197   -3.4853   -3.6781 C   0  0  0  0  0  0  0  0  0  0  0  0
    4.3861   -2.9914   -4.9851 C   0  0  0  0  0  0  0  0  0  0  0  0
    4.7821   -1.6640   -5.2699 C   0  0  0  0  0  0  0  0  0  0  0  0
    5.2124   -0.8076   -4.2551 C   0  0  0  0  0  0  0  0  0  0  0  0
    5.1913   -1.3079   -2.9682 C   0  0  0  0  0  0  0  0  0  0  0  0
    5.8823    0.4912   -1.5827 O   0  0  0  0  0  0  0  0  0  0  0  0
    4.6943   -3.8355   -0.6668 O   0  0  0  0  0  0  0  0  0  0  0  0
    5.1795   -1.2594    0.6894 C   0  0  0  0  0  0  0  0  0  0  0  0
    3.8275   -0.8591    1.2949 C   0  0  0  0  0  0  0  0  0  0  0  0
    2.8114   -1.1016    0.6227 O   0  0  0  0  0  0  0  0  0  0  0  0
    3.7744   -0.2358    2.5668 N   0  0  0  0  0  0  0  0  0  0  0  0
    2.4324    0.1580    3.1662 C   0  0  0  0  0  0  0  0  0  0  0  0
    2.5573    1.5822    3.7323 C   0  0  0  0  0  0  0  0  0  0  0  0
    3.5658    1.6777    4.8624 C   0  0  3  0  0  0  0  0  0  0  0  0
    4.8230    0.8861    4.5534 C   0  0  0  0  0  0  0  0  0  0  0  0
    5.9078    1.0278    5.4567 C   0  0  0  0  0  0  0  0  0  0  0  0
    7.0981    0.3396    5.2853 C   0  0  0  0  0  0  0  0  0  0  0  0
    7.2068   -0.5436    4.2374 C   0  0  0  0  0  0  0  0  0  0  0  0
    6.1208   -0.7449    3.3820 C   0  0  0  0  0  0  0  0  0  0  0  0
    4.9143   -0.0240    3.4697 C   0  0  0  0  0  0  0  0  0  0  0  0
    3.8219    3.1597    5.1714 C   0  0  0  0  0  0  0  0  0  0  0  0
    2.0441   -0.8862    4.2425 C   0  0  0  0  0  0  0  0  0  0  0  0
    1.2103    0.2396    2.2055 C   0  0  0  0  0  0  0  0  0  0  0  0
    4.1068   -4.4959   -3.4398 H   0  0  0  0  0  0  0  0  0  0  0  0
    4.0274   -3.6265   -5.7908 H   0  0  0  0  0  0  0  0  0  0  0  0
    4.7248   -1.2982   -6.2938 H   0  0  0  0  0  0  0  0  0  0  0  0
    5.5036    0.2178   -4.4534 H   0  0  0  0  0  0  0  0  0  0  0  0
    5.4666   -2.2066    1.1538 H   0  0  0  0  0  0  0  0  0  0  0  0
    5.9040   -0.4589    0.8361 H   0  0  0  0  0  0  0  0  0  0  0  0
    2.8528    2.2610    2.9152 H   0  0  0  0  0  0  0  0  0  0  0  0
    1.5891    1.9472    4.0966 H   0  0  0  0  0  0  0  0  0  0  0  0
    3.1184    1.2261    5.7587 H   0  0  0  0  0  0  0  0  0  0  0  0
    5.8219    1.6773    6.3256 H   0  0  0  0  0  0  0  0  0  0  0  0
    7.9206    0.4704    5.9850 H   0  0  0  0  0  0  0  0  0  0  0  0
    8.1206   -1.1195    4.0951 H   0  0  0  0  0  0  0  0  0  0  0  0
    6.2843   -1.5620    2.7007 H   0  0  0  0  0  0  0  0  0  0  0  0
    2.8782    3.6978    5.3083 H   0  0  0  0  0  0  0  0  0  0  0  0
    4.3943    3.2915    6.0979 H   0  0  0  0  0  0  0  0  0  0  0  0
    4.3795    3.6469    4.3639 H   0  0  0  0  0  0  0  0  0  0  0  0
    1.1223   -0.5985    4.7609 H   0  0  0  0  0  0  0  0  0  0  0  0
    1.8829   -1.8688    3.7834 H   0  0  0  0  0  0  0  0  0  0  0  0
    2.8178   -1.0232    5.0027 H   0  0  0  0  0  0  0  0  0  0  0  0
    1.3853    0.9353    1.3807 H   0  0  0  0  0  0  0  0  0  0  0  0
    0.9212   -0.7348    1.8035 H   0  0  0  0  0  0  0  0  0  0  0  0
    0.3224    0.5972    2.7481 H   0  0  0  0  0  0  0  0  0  0  0  0
  1  2  1  0  0  0  0
  1  9  1  0  0  0  0
  1 10  2  0  0  0  0
  2  3  1  0  0  0  0
  2 12  1  0  0  0  0
  3  4  1  0  0  0  0
  3 11  2  0  0  0  0
  4  5  2  0  0  0  0
  4  9  1  0  0  0  0
  5  6  1  0  0  0  0
  5 28  1  0  0  0  0
  6  7  2  0  0  0  0
  6 29  1  0  0  0  0
  7  8  1  0  0  0  0
  7 30  1  0  0  0  0
  8  9  2  0  0  0  0
  8 31  1  0  0  0  0
 12 13  1  0  0  0  0
 12 32  1  0  0  0  0
 12 33  1  0  0  0  0
 13 14  2  0  0  0  0
 13 15  1  0  0  0  0
 15 16  1  0  0  0  0
 15 24  1  0  0  0  0
 16 17  1  0  0  0  0
 16 26  1  0  0  0  0
 16 27  1  0  0  0  0
 17 18  1  0  0  0  0
 17 34  1  0  0  0  0
 17 35  1  0  0  0  0
 18 19  1  0  0  0  0
 18 25  1  0  0  0  0
 18 36  1  0  0  0  0
 19 20  2  0  0  0  0
 19 24  1  0  0  0  0
 20 21  1  0  0  0  0
 20 37  1  0  0  0  0
 21 22  2  0  0  0  0
 21 38  1  0  0  0  0
 22 23  1  0  0  0  0
 22 39  1  0  0  0  0
 23 24  2  0  0  0  0
 23 40  1  0  0  0  0
 25 41  1  0  0  0  0
 25 42  1  0  0  0  0
 25 43  1  0  0  0  0
 26 44  1  0  0  0  0
 26 45  1  0  0  0  0
 26 46  1  0  0  0  0
 27 47  1  0  0  0  0
 27 48  1  0  0  0  0
 27 49  1  0  0  0  0
M  END
>  <Mol_ID>
6046

>  <Formula>
C22H22N2O3

>  <MolWeight>
362.42168

>  <Cat>
S9926

>  <Name>
ML-SA1

>  <Synonyms>
Mucolipin synthetic agonist 1

>  <Target>
Antiviral,TRP Channel

>  <Form>
Free Base

>  <CAS>
332382-54-4

>  <URL>
http://www.selleckchem.com/products/ml-sa1.html

$$$$
