ML130.cdx
 OpenBabel08302521593D

 33 35  0  0  0  0  0  0  0  0999 V2000
   -1.8417   -0.6299    1.2859 C   0  0  0  0  0  0  0  0  0  0  0  0
   -1.8453    0.7491    1.0790 C   0  0  0  0  0  0  0  0  0  0  0  0
   -0.7277    1.3904    0.5340 C   0  0  0  0  0  0  0  0  0  0  0  0
    0.3985    0.6236    0.1957 C   0  0  0  0  0  0  0  0  0  0  0  0
    0.3896   -0.7540    0.4238 C   0  0  0  0  0  0  0  0  0  0  0  0
   -0.7254   -1.4115    0.9640 C   0  0  0  0  0  0  0  0  0  0  0  0
    1.5830    1.0306   -0.3714 N   0  0  0  0  0  0  0  0  0  0  0  0
    2.3059   -0.0562   -0.5088 C   0  0  0  0  0  0  0  0  0  0  0  0
    1.6468   -1.1435    0.0186 N   0  0  0  0  0  0  0  0  0  0  0  0
    3.5230   -0.0875   -1.0870 N   0  0  0  0  0  0  0  0  0  0  0  0
    2.2229   -2.7289    0.0049 S   0  0  0  0  0  0  0  0  0  0  0  0
    1.6281   -3.3807    1.1544 O   0  0  0  0  0  0  0  0  0  0  0  0
    1.5523   -3.4438   -1.4691 C   0  0  0  0  0  0  0  0  0  0  0  0
    3.6676   -2.6526   -0.1548 O   0  0  0  0  0  0  0  0  0  0  0  0
    1.8894   -2.9108   -2.7152 C   0  0  0  0  0  0  0  0  0  0  0  0
    1.2482   -3.3873   -3.8591 C   0  0  0  0  0  0  0  0  0  0  0  0
    0.2879   -4.4034   -3.7643 C   0  0  0  0  0  0  0  0  0  0  0  0
    0.0348   -4.9955   -2.5205 C   0  0  0  0  0  0  0  0  0  0  0  0
    0.6661   -4.5202   -1.3713 C   0  0  0  0  0  0  0  0  0  0  0  0
   -0.5003   -4.8006   -4.9784 C   0  0  0  0  0  0  0  0  0  0  0  0
   -2.7205   -1.1083    1.7152 H   0  0  0  0  0  0  0  0  0  0  0  0
   -2.7232    1.3338    1.3438 H   0  0  0  0  0  0  0  0  0  0  0  0
   -0.7246    2.4632    0.3705 H   0  0  0  0  0  0  0  0  0  0  0  0
   -0.7365   -2.4812    1.1510 H   0  0  0  0  0  0  0  0  0  0  0  0
    4.1639   -0.8635   -0.8954 H   0  0  0  0  0  0  0  0  0  0  0  0
    3.9994    0.8080   -1.1724 H   0  0  0  0  0  0  0  0  0  0  0  0
    2.6253   -2.1166   -2.8121 H   0  0  0  0  0  0  0  0  0  0  0  0
    1.4787   -2.9408   -4.8247 H   0  0  0  0  0  0  0  0  0  0  0  0
   -0.6803   -5.8118   -2.4346 H   0  0  0  0  0  0  0  0  0  0  0  0
    0.4393   -4.9761   -0.4105 H   0  0  0  0  0  0  0  0  0  0  0  0
   -1.0970   -3.9471   -5.3192 H   0  0  0  0  0  0  0  0  0  0  0  0
    0.1643   -5.1210   -5.7858 H   0  0  0  0  0  0  0  0  0  0  0  0
   -1.1916   -5.6203   -4.7585 H   0  0  0  0  0  0  0  0  0  0  0  0
  1  2  2  0  0  0  0
  1 21  1  0  0  0  0
  2  3  1  0  0  0  0
  2 22  1  0  0  0  0
  3  4  2  0  0  0  0
  3 23  1  0  0  0  0
  4  5  1  0  0  0  0
  4  7  1  0  0  0  0
  5  6  2  0  0  0  0
  6  1  1  0  0  0  0
  6 24  1  0  0  0  0
  7  8  2  0  0  0  0
  8  9  1  0  0  0  0
  8 10  1  0  0  0  0
  9  5  1  0  0  0  0
  9 11  1  0  0  0  0
 10 25  1  0  0  0  0
 10 26  1  0  0  0  0
 11 12  2  0  0  0  0
 11 13  1  0  0  0  0
 11 14  2  0  0  0  0
 13 15  2  0  0  0  0
 15 16  1  0  0  0  0
 15 27  1  0  0  0  0
 16 17  2  0  0  0  0
 16 28  1  0  0  0  0
 17 18  1  0  0  0  0
 17 20  1  0  0  0  0
 18 19  2  0  0  0  0
 18 29  1  0  0  0  0
 19 13  1  0  0  0  0
 19 30  1  0  0  0  0
 20 31  1  0  0  0  0
 20 32  1  0  0  0  0
 20 33  1  0  0  0  0
M  END
>  <Mol_ID>
1027

>  <Formula>
C14H13N3O2S

>  <MolWeight>
287.33692

>  <Cat>
S2863

>  <Name>
Nodinitib-1

>  <Synonyms>
ML130

>  <Target>
NOD

>  <Form>
free base

>  <CAS>
799264-47-4

>  <URL>
http://selleckchem.com/products/ml130.html

$$$$
