ML141.cdx
 OpenBabel08302519583D

 50 53  0  0  0  0  0  0  0  0999 V2000
    0.1529   -1.1500   -0.2006 N   0  0  0  0  0  0  0  0  0  0  0  0
    1.1605   -0.2238   -0.2368 N   0  0  0  0  0  0  0  0  0  0  0  0
    0.6134    0.9445   -0.0764 C   0  0  0  0  0  0  0  0  0  0  0  0
   -0.8753    0.9333    0.1361 C   0  0  0  0  0  0  0  0  0  0  0  0
   -1.1751   -0.5533   -0.0397 C   0  0  3  0  0  0  0  0  0  0  0  0
   -2.0594   -0.8277   -1.2474 C   0  0  0  0  0  0  0  0  0  0  0  0
   -1.6681   -0.4399   -2.5405 C   0  0  0  0  0  0  0  0  0  0  0  0
   -2.5046   -0.6552   -3.6415 C   0  0  0  0  0  0  0  0  0  0  0  0
   -3.7408   -1.2751   -3.4743 C   0  0  0  0  0  0  0  0  0  0  0  0
   -4.1206   -1.6998   -2.1996 C   0  0  0  0  0  0  0  0  0  0  0  0
   -3.2927   -1.4747   -1.0950 C   0  0  0  0  0  0  0  0  0  0  0  0
   -4.6546   -1.5220   -4.4617 O   0  0  0  0  0  0  0  0  0  0  0  0
   -4.3414   -1.0274   -5.7586 C   0  0  0  0  0  0  0  0  0  0  0  0
    1.3722    2.2186   -0.0801 C   0  0  0  0  0  0  0  0  0  0  0  0
    0.4381   -2.5016    0.0073 C   0  0  0  0  0  0  0  0  0  0  0  0
   -0.5083   -3.3815    0.5583 C   0  0  0  0  0  0  0  0  0  0  0  0
   -0.2203   -4.7273    0.7865 C   0  0  0  0  0  0  0  0  0  0  0  0
    1.0292   -5.2335    0.4421 C   0  0  0  0  0  0  0  0  0  0  0  0
    1.9938   -4.4007   -0.1217 C   0  0  0  0  0  0  0  0  0  0  0  0
    1.6932   -3.0441   -0.3304 C   0  0  0  0  0  0  0  0  0  0  0  0
    1.3668   -6.9400    0.7573 S   0  0  0  0  0  0  0  0  0  0  0  0
    1.5701   -7.5649   -0.7873 N   0  0  0  0  0  0  0  0  0  0  0  0
    2.7637    2.1889   -0.2237 C   0  0  0  0  0  0  0  0  0  0  0  0
    3.4889    3.3818   -0.2813 C   0  0  0  0  0  0  0  0  0  0  0  0
    2.8289    4.6068   -0.1936 C   0  0  0  0  0  0  0  0  0  0  0  0
    1.4456    4.6427   -0.0310 C   0  0  0  0  0  0  0  0  0  0  0  0
    0.7174    3.4522    0.0311 C   0  0  0  0  0  0  0  0  0  0  0  0
    2.6444   -7.0530    1.4179 O   0  0  0  0  0  0  0  0  0  0  0  0
    0.1741   -7.5823    1.2633 O   0  0  0  0  0  0  0  0  0  0  0  0
   -1.3938    1.5809   -0.5760 H   0  0  0  0  0  0  0  0  0  0  0  0
   -1.0946    1.2601    1.1582 H   0  0  0  0  0  0  0  0  0  0  0  0
   -1.6661   -0.8996    0.8782 H   0  0  0  0  0  0  0  0  0  0  0  0
   -0.7003    0.0307   -2.6993 H   0  0  0  0  0  0  0  0  0  0  0  0
   -2.1536   -0.3289   -4.6143 H   0  0  0  0  0  0  0  0  0  0  0  0
   -5.0738   -2.2064   -2.0655 H   0  0  0  0  0  0  0  0  0  0  0  0
   -3.6248   -1.8174   -0.1169 H   0  0  0  0  0  0  0  0  0  0  0  0
   -4.1799    0.0559   -5.7455 H   0  0  0  0  0  0  0  0  0  0  0  0
   -3.4755   -1.5513   -6.1762 H   0  0  0  0  0  0  0  0  0  0  0  0
   -5.1984   -1.2247   -6.4097 H   0  0  0  0  0  0  0  0  0  0  0  0
   -1.4953   -3.0378    0.8464 H   0  0  0  0  0  0  0  0  0  0  0  0
   -0.9800   -5.3633    1.2346 H   0  0  0  0  0  0  0  0  0  0  0  0
    2.9698   -4.7881   -0.4055 H   0  0  0  0  0  0  0  0  0  0  0  0
    2.4460   -2.4000   -0.7815 H   0  0  0  0  0  0  0  0  0  0  0  0
    2.4315   -8.1130   -0.8137 H   0  0  0  0  0  0  0  0  0  0  0  0
    0.7411   -8.0940   -1.0585 H   0  0  0  0  0  0  0  0  0  0  0  0
    3.2902    1.2396   -0.2973 H   0  0  0  0  0  0  0  0  0  0  0  0
    4.5690    3.3538   -0.4021 H   0  0  0  0  0  0  0  0  0  0  0  0
    3.3931    5.5345   -0.2531 H   0  0  0  0  0  0  0  0  0  0  0  0
    0.9317    5.5983    0.0399 H   0  0  0  0  0  0  0  0  0  0  0  0
   -0.3589    3.5174    0.1564 H   0  0  0  0  0  0  0  0  0  0  0  0
  1  2  1  0  0  0  0
  1 15  1  0  0  0  0
  2  3  2  0  0  0  0
  3  4  1  0  0  0  0
  3 14  1  0  0  0  0
  4  5  1  0  0  0  0
  4 30  1  0  0  0  0
  4 31  1  0  0  0  0
  5  1  1  0  0  0  0
  5  6  1  0  0  0  0
  5 32  1  0  0  0  0
  6  7  2  0  0  0  0
  7  8  1  0  0  0  0
  7 33  1  0  0  0  0
  8  9  2  0  0  0  0
  8 34  1  0  0  0  0
  9 10  1  0  0  0  0
  9 12  1  0  0  0  0
 10 11  2  0  0  0  0
 10 35  1  0  0  0  0
 11  6  1  0  0  0  0
 11 36  1  0  0  0  0
 12 13  1  0  0  0  0
 13 37  1  0  0  0  0
 13 38  1  0  0  0  0
 13 39  1  0  0  0  0
 14 23  2  0  0  0  0
 15 16  2  0  0  0  0
 16 17  1  0  0  0  0
 16 40  1  0  0  0  0
 17 18  2  0  0  0  0
 17 41  1  0  0  0  0
 18 19  1  0  0  0  0
 18 21  1  0  0  0  0
 19 20  2  0  0  0  0
 19 42  1  0  0  0  0
 20 15  1  0  0  0  0
 20 43  1  0  0  0  0
 21 22  1  0  0  0  0
 21 28  2  0  0  0  0
 21 29  2  0  0  0  0
 22 44  1  0  0  0  0
 22 45  1  0  0  0  0
 23 24  1  0  0  0  0
 23 46  1  0  0  0  0
 24 25  2  0  0  0  0
 24 47  1  0  0  0  0
 25 26  1  0  0  0  0
 25 48  1  0  0  0  0
 26 27  2  0  0  0  0
 26 49  1  0  0  0  0
 27 14  1  0  0  0  0
 27 50  1  0  0  0  0
M  END
>  <Mol_ID>
2508

>  <Formula>
C22H21N3O3S

>  <MolWeight>
407.48544

>  <Cat>
S7686

>  <Name>
ML141

>  <Synonyms>
CID-2950007

>  <Target>
Apoptosis related,p38 MAPK,Rho

>  <Form>
free base

>  <CAS>
71203-35-5

>  <URL>
http://selleckchem.com/products/ml141.html

$$$$
