ML167.cdx
 OpenBabel08302519583D

 42 45  0  0  0  0  0  0  0  0999 V2000
    2.4513   -0.6545    0.0329 C   0  0  0  0  0  0  0  0  0  0  0  0
    2.5547    0.7363   -0.0270 C   0  0  0  0  0  0  0  0  0  0  0  0
    1.3645    1.4703   -0.0548 C   0  0  0  0  0  0  0  0  0  0  0  0
    0.0869    0.8406   -0.0216 C   0  0  0  0  0  0  0  0  0  0  0  0
    0.0140   -0.5560    0.0477 C   0  0  0  0  0  0  0  0  0  0  0  0
    1.1981   -1.2792    0.0658 C   0  0  0  0  0  0  0  0  0  0  0  0
   -1.1540    1.5153   -0.0322 C   0  0  0  0  0  0  0  0  0  0  0  0
   -2.3254    0.8540    0.0038 N   0  0  0  0  0  0  0  0  0  0  0  0
   -2.2571   -0.4823    0.0547 C   0  0  0  0  0  0  0  0  0  0  0  0
   -1.1425   -1.2222    0.0847 N   0  0  0  0  0  0  0  0  0  0  0  0
    3.8622    1.3893   -0.0762 C   0  0  0  0  0  0  0  0  0  0  0  0
    3.8774    2.7597   -0.0347 O   0  0  0  0  0  0  0  0  0  0  0  0
    5.1833    3.1576   -0.1127 C   0  0  0  0  0  0  0  0  0  0  0  0
    6.0051    2.0557   -0.1967 C   0  0  0  0  0  0  0  0  0  0  0  0
    5.1594    0.9235   -0.1679 C   0  0  0  0  0  0  0  0  0  0  0  0
    5.4462    4.6151   -0.1039 C   0  0  0  0  0  0  0  0  0  0  0  0
    4.9763    5.1409    1.1307 O   0  0  0  0  0  0  0  0  0  0  0  0
   -1.1783    2.9098   -0.1968 N   0  0  0  0  0  0  0  0  0  0  0  0
   -2.3645    3.6007    0.3062 C   0  0  0  0  0  0  0  0  0  0  0  0
   -2.0609    5.0321    0.6406 C   0  0  0  0  0  0  0  0  0  0  0  0
   -0.7683    5.3138    1.0041 O   0  0  0  0  0  0  0  0  0  0  0  0
   -0.7007    6.6507    1.2542 C   0  0  0  0  0  0  0  0  0  0  0  0
   -1.9391    7.2267    1.0721 C   0  0  0  0  0  0  0  0  0  0  0  0
   -2.8151    6.1853    0.6774 C   0  0  0  0  0  0  0  0  0  0  0  0
    0.6209    7.1836    1.6457 C   0  0  0  0  0  0  0  0  0  0  0  0
    3.3400   -1.2803    0.0526 H   0  0  0  0  0  0  0  0  0  0  0  0
    1.4298    2.5541   -0.1040 H   0  0  0  0  0  0  0  0  0  0  0  0
    1.1492   -2.3661    0.1115 H   0  0  0  0  0  0  0  0  0  0  0  0
   -3.1983   -1.0228    0.0739 H   0  0  0  0  0  0  0  0  0  0  0  0
    7.0837    2.0696   -0.2716 H   0  0  0  0  0  0  0  0  0  0  0  0
    5.4625   -0.1124   -0.2202 H   0  0  0  0  0  0  0  0  0  0  0  0
    6.5173    4.8247   -0.1826 H   0  0  0  0  0  0  0  0  0  0  0  0
    4.9294    5.1189   -0.9255 H   0  0  0  0  0  0  0  0  0  0  0  0
    4.0683    4.8041    1.2346 H   0  0  0  0  0  0  0  0  0  0  0  0
   -0.3729    3.3438    0.2433 H   0  0  0  0  0  0  0  0  0  0  0  0
   -3.1627    3.5591   -0.4429 H   0  0  0  0  0  0  0  0  0  0  0  0
   -2.7317    3.1305    1.2266 H   0  0  0  0  0  0  0  0  0  0  0  0
   -2.1765    8.2729    1.2051 H   0  0  0  0  0  0  0  0  0  0  0  0
   -3.8671    6.2665    0.4439 H   0  0  0  0  0  0  0  0  0  0  0  0
    0.9892    6.6825    2.5459 H   0  0  0  0  0  0  0  0  0  0  0  0
    1.3499    7.0332    0.8431 H   0  0  0  0  0  0  0  0  0  0  0  0
    0.5628    8.2565    1.8536 H   0  0  0  0  0  0  0  0  0  0  0  0
  1  2  2  0  0  0  0
  1 26  1  0  0  0  0
  2  3  1  0  0  0  0
  2 11  1  0  0  0  0
  3  4  2  0  0  0  0
  3 27  1  0  0  0  0
  4  5  1  0  0  0  0
  4  7  1  0  0  0  0
  5  6  2  0  0  0  0
  6  1  1  0  0  0  0
  6 28  1  0  0  0  0
  7  8  2  0  0  0  0
  7 18  1  0  0  0  0
  8  9  1  0  0  0  0
  9 10  2  0  0  0  0
  9 29  1  0  0  0  0
 10  5  1  0  0  0  0
 11 12  1  0  0  0  0
 12 13  1  0  0  0  0
 13 14  2  0  0  0  0
 13 16  1  0  0  0  0
 14 15  1  0  0  0  0
 14 30  1  0  0  0  0
 15 11  2  0  0  0  0
 15 31  1  0  0  0  0
 16 17  1  0  0  0  0
 16 32  1  0  0  0  0
 16 33  1  0  0  0  0
 17 34  1  0  0  0  0
 18 19  1  0  0  0  0
 18 35  1  0  0  0  0
 19 20  1  0  0  0  0
 19 36  1  0  0  0  0
 19 37  1  0  0  0  0
 20 21  1  0  0  0  0
 21 22  1  0  0  0  0
 22 23  2  0  0  0  0
 22 25  1  0  0  0  0
 23 24  1  0  0  0  0
 23 38  1  0  0  0  0
 24 20  2  0  0  0  0
 24 39  1  0  0  0  0
 25 40  1  0  0  0  0
 25 41  1  0  0  0  0
 25 42  1  0  0  0  0
M  END
>  <Mol_ID>
2383

>  <Formula>
C19H17N3O3

>  <MolWeight>
335.35658

>  <Cat>
S7509

>  <Name>
ML167

>  <Synonyms>
CID 44968231

>  <Target>
CDK

>  <Form>
free base

>  <CAS>
1285702-20-6

>  <URL>
http://selleckchem.com/products/ml167.html

$$$$
