ML198
 OpenBabel08302521313D

 36 38  0  0  0  0  0  0  0  0999 V2000
    0.1928   -0.7219   -0.0185 C   0  0  0  0  0  0  0  0  0  0  0  0
   -0.9537   -1.4711    0.0795 N   0  0  0  0  0  0  0  0  0  0  0  0
   -2.0779   -0.8077    0.0798 C   0  0  0  0  0  0  0  0  0  0  0  0
   -2.2006    0.6855    0.0690 C   0  0  0  0  0  0  0  0  0  0  0  0
   -1.0550    1.3804   -0.0245 C   0  0  0  0  0  0  0  0  0  0  0  0
    0.1558    0.6817   -0.1125 N   0  0  0  0  0  0  0  0  0  0  0  0
    1.3908    1.2029   -0.3083 N   0  0  0  0  0  0  0  0  0  0  0  0
    2.1975    0.1454   -0.3184 C   0  0  0  0  0  0  0  0  0  0  0  0
    1.5308   -1.0739   -0.0727 C   0  0  0  0  0  0  0  0  0  0  0  0
    2.1818   -2.3684    0.0478 C   0  0  0  0  0  0  0  0  0  0  0  0
    3.3855   -2.4556   -0.1753 O   0  0  0  0  0  0  0  0  0  0  0  0
    1.3609   -3.4227    0.4109 N   0  0  0  0  0  0  0  0  0  0  0  0
   -1.0095    2.8788   -0.0314 C   0  0  0  0  0  0  0  0  0  0  0  0
   -3.3679   -1.5899    0.0734 C   0  0  0  0  0  0  0  0  0  0  0  0
    1.7711   -4.7647    0.5947 C   0  0  0  0  0  0  0  0  0  0  0  0
    3.1057   -5.1477    0.7707 C   0  0  0  0  0  0  0  0  0  0  0  0
    3.4660   -6.5012    0.8278 C   0  0  0  0  0  0  0  0  0  0  0  0
    2.4917   -7.4914    0.7202 C   0  0  0  0  0  0  0  0  0  0  0  0
    1.1503   -7.1190    0.6210 C   0  0  0  0  0  0  0  0  0  0  0  0
    0.7908   -5.7626    0.5745 C   0  0  0  0  0  0  0  0  0  0  0  0
    2.8724   -8.8729    0.6688 C   0  0  0  0  0  0  0  0  0  0  0  0
    3.2061  -10.0219    0.5791 C   0  0  0  0  0  0  0  0  0  0  0  0
   -3.1775    1.1458    0.1333 H   0  0  0  0  0  0  0  0  0  0  0  0
    3.2570    0.2936   -0.4929 H   0  0  0  0  0  0  0  0  0  0  0  0
    0.3631   -3.2250    0.4117 H   0  0  0  0  0  0  0  0  0  0  0  0
   -0.4720    3.2485    0.8493 H   0  0  0  0  0  0  0  0  0  0  0  0
   -0.5066    3.2538   -0.9287 H   0  0  0  0  0  0  0  0  0  0  0  0
   -2.0136    3.3164   -0.0091 H   0  0  0  0  0  0  0  0  0  0  0  0
   -3.3984   -2.2158   -0.8238 H   0  0  0  0  0  0  0  0  0  0  0  0
   -3.4147   -2.2277    0.9595 H   0  0  0  0  0  0  0  0  0  0  0  0
   -4.2388   -0.9286    0.0641 H   0  0  0  0  0  0  0  0  0  0  0  0
    3.8997   -4.4123    0.8661 H   0  0  0  0  0  0  0  0  0  0  0  0
    4.5158   -6.7663    0.9337 H   0  0  0  0  0  0  0  0  0  0  0  0
    0.3770   -7.8798    0.5497 H   0  0  0  0  0  0  0  0  0  0  0  0
   -0.2600   -5.5052    0.4703 H   0  0  0  0  0  0  0  0  0  0  0  0
    3.5114  -11.0373    0.4781 H   0  0  0  0  0  0  0  0  0  0  0  0
  1  2  1  0  0  0  0
  1  6  1  0  0  0  0
  2  3  2  0  0  0  0
  3  4  1  0  0  0  0
  3 14  1  0  0  0  0
  4  5  2  0  0  0  0
  4 23  1  0  0  0  0
  5  6  1  0  0  0  0
  5 13  1  0  0  0  0
  7  8  2  0  0  0  0
  7  6  1  0  0  0  0
  8  9  1  0  0  0  0
  8 24  1  0  0  0  0
  9  1  2  0  0  0  0
  9 10  1  0  0  0  0
 10 11  2  0  0  0  0
 10 12  1  0  0  0  0
 12 15  1  0  0  0  0
 12 25  1  0  0  0  0
 13 26  1  0  0  0  0
 13 27  1  0  0  0  0
 13 28  1  0  0  0  0
 14 29  1  0  0  0  0
 14 30  1  0  0  0  0
 14 31  1  0  0  0  0
 15 16  2  0  0  0  0
 15 20  1  0  0  0  0
 16 17  1  0  0  0  0
 16 32  1  0  0  0  0
 17 18  2  0  0  0  0
 17 33  1  0  0  0  0
 18 19  1  0  0  0  0
 18 21  1  0  0  0  0
 19 20  2  0  0  0  0
 19 34  1  0  0  0  0
 20 35  1  0  0  0  0
 21 22  3  0  0  0  0
 22 36  1  0  0  0  0
M  END
>  <Mol_ID>
6008

>  <Formula>
C17H14N4O

>  <MolWeight>
290.31926

>  <Cat>
S3470

>  <Name>
ML198

>  <Synonyms>
N/A

>  <Target>
glucocerebrosidase

>  <Form>
Free Base

>  <CAS>
1380716-06-2

>  <URL>
http://www.selleckchem.com/products/ml198.html

$$$$
