ML204.cdx
 OpenBabel08302520433D

 35 37  0  0  0  0  0  0  0  0999 V2000
    2.3583    1.0579    0.0061 C   0  0  0  0  0  0  0  0  0  0  0  0
    2.6690   -0.2939    0.0255 C   0  0  0  0  0  0  0  0  0  0  0  0
    1.6417   -1.2416    0.0460 C   0  0  0  0  0  0  0  0  0  0  0  0
    0.3019   -0.8737    0.0485 C   0  0  0  0  0  0  0  0  0  0  0  0
   -0.0223    0.4994    0.0289 C   0  0  0  0  0  0  0  0  0  0  0  0
    1.0209    1.4531    0.0064 C   0  0  0  0  0  0  0  0  0  0  0  0
   -0.6254   -1.8473    0.0566 N   0  0  0  0  0  0  0  0  0  0  0  0
   -1.9352   -1.5292    0.0523 C   0  0  0  0  0  0  0  0  0  0  0  0
   -2.3331   -0.1960    0.0322 C   0  0  0  0  0  0  0  0  0  0  0  0
   -1.3890    0.8364    0.0196 C   0  0  0  0  0  0  0  0  0  0  0  0
   -1.8729    2.2583   -0.0276 C   0  0  0  0  0  0  0  0  0  0  0  0
   -2.8797   -2.5367   -0.0334 N   0  0  0  0  0  0  0  0  0  0  0  0
   -2.4451   -3.8771   -0.4137 C   0  0  0  0  0  0  0  0  0  0  0  0
   -3.5348   -4.4684   -1.3145 C   0  0  0  0  0  0  0  0  0  0  0  0
   -4.9095   -4.4309   -0.6411 C   0  0  0  0  0  0  0  0  0  0  0  0
   -5.2404   -3.0384   -0.0974 C   0  0  0  0  0  0  0  0  0  0  0  0
   -4.1015   -2.4920    0.7643 C   0  0  0  0  0  0  0  0  0  0  0  0
    3.1481    1.8024   -0.0118 H   0  0  0  0  0  0  0  0  0  0  0  0
    3.7058   -0.6190    0.0237 H   0  0  0  0  0  0  0  0  0  0  0  0
    1.8924   -2.2985    0.0554 H   0  0  0  0  0  0  0  0  0  0  0  0
    0.7996    2.5172   -0.0148 H   0  0  0  0  0  0  0  0  0  0  0  0
   -3.3877    0.0487   -0.0364 H   0  0  0  0  0  0  0  0  0  0  0  0
   -1.5418    2.8009    0.8633 H   0  0  0  0  0  0  0  0  0  0  0  0
   -1.5011    2.7599   -0.9263 H   0  0  0  0  0  0  0  0  0  0  0  0
   -2.9669    2.3103   -0.0554 H   0  0  0  0  0  0  0  0  0  0  0  0
   -2.3013   -4.5017    0.4777 H   0  0  0  0  0  0  0  0  0  0  0  0
   -1.5045   -3.8803   -0.9766 H   0  0  0  0  0  0  0  0  0  0  0  0
   -3.2796   -5.4966   -1.5903 H   0  0  0  0  0  0  0  0  0  0  0  0
   -3.5803   -3.8861   -2.2447 H   0  0  0  0  0  0  0  0  0  0  0  0
   -5.6794   -4.7378   -1.3580 H   0  0  0  0  0  0  0  0  0  0  0  0
   -4.9275   -5.1543    0.1825 H   0  0  0  0  0  0  0  0  0  0  0  0
   -5.4126   -2.3558   -0.9395 H   0  0  0  0  0  0  0  0  0  0  0  0
   -6.1677   -3.0748    0.4843 H   0  0  0  0  0  0  0  0  0  0  0  0
   -4.3665   -1.4875    1.1085 H   0  0  0  0  0  0  0  0  0  0  0  0
   -3.9810   -3.1064    1.6661 H   0  0  0  0  0  0  0  0  0  0  0  0
  1  2  2  0  0  0  0
  1 18  1  0  0  0  0
  2  3  1  0  0  0  0
  2 19  1  0  0  0  0
  3  4  2  0  0  0  0
  3 20  1  0  0  0  0
  4  5  1  0  0  0  0
  4  7  1  0  0  0  0
  5  6  2  0  0  0  0
  6  1  1  0  0  0  0
  6 21  1  0  0  0  0
  7  8  2  0  0  0  0
  8  9  1  0  0  0  0
  8 12  1  0  0  0  0
  9 10  2  0  0  0  0
  9 22  1  0  0  0  0
 10  5  1  0  0  0  0
 10 11  1  0  0  0  0
 11 23  1  0  0  0  0
 11 24  1  0  0  0  0
 11 25  1  0  0  0  0
 12 13  1  0  0  0  0
 13 14  1  0  0  0  0
 13 26  1  0  0  0  0
 13 27  1  0  0  0  0
 14 15  1  0  0  0  0
 14 28  1  0  0  0  0
 14 29  1  0  0  0  0
 15 16  1  0  0  0  0
 15 30  1  0  0  0  0
 15 31  1  0  0  0  0
 16 17  1  0  0  0  0
 16 32  1  0  0  0  0
 16 33  1  0  0  0  0
 17 12  1  0  0  0  0
 17 34  1  0  0  0  0
 17 35  1  0  0  0  0
M  END
>  <Mol_ID>
4192

>  <Formula>
C15H18N2

>  <MolWeight>
226.31682

>  <Cat>
S8691

>  <Name>
ML204

>  <Synonyms>
N/A

>  <Target>
TRP Channel

>  <Form>
free base

>  <CAS>
5465-86-1

>  <URL>
http://selleckchem.com/products/ml204.html

$$$$
