ML213
 OpenBabel08302521303D

 42 44  0  0  0  0  0  0  0  0999 V2000
    0.2632    1.1200   -1.6953 C   0  0  0  0  0  0  0  0  0  0  0  0
   -1.0056    0.9789   -0.8405 C   0  0  0  0  0  0  0  0  0  0  0  0
   -0.7968   -0.3763   -0.1487 C   0  0  3  0  0  0  0  0  0  0  0  0
    0.3287   -0.2347    0.8934 C   0  0  0  0  0  0  0  0  0  0  0  0
    1.6055   -0.1398    0.0270 C   0  0  3  0  0  0  0  0  0  0  0  0
    1.0326   -0.1889   -1.4089 C   0  0  3  0  0  0  0  0  0  0  0  0
   -0.1175   -1.1865   -1.2508 C   0  0  0  0  0  0  0  0  0  0  0  0
    2.6183   -1.2670    0.3027 C   0  0  0  0  0  0  0  0  0  0  0  0
    3.7991   -1.1173   -0.4254 N   0  0  0  0  0  0  0  0  0  0  0  0
    4.9871   -1.7066    0.0791 C   0  0  0  0  0  0  0  0  0  0  0  0
    2.4124   -2.1557    1.1180 O   0  0  0  0  0  0  0  0  0  0  0  0
    5.3298   -3.0244   -0.2741 C   0  0  0  0  0  0  0  0  0  0  0  0
    6.5469   -3.5567    0.1849 C   0  0  0  0  0  0  0  0  0  0  0  0
    7.4185   -2.8013    0.9768 C   0  0  0  0  0  0  0  0  0  0  0  0
    7.0603   -1.4974    1.3255 C   0  0  0  0  0  0  0  0  0  0  0  0
    5.8456   -0.9392    0.8953 C   0  0  0  0  0  0  0  0  0  0  0  0
    5.4789    0.4344    1.3867 C   0  0  0  0  0  0  0  0  0  0  0  0
    8.7050   -3.3995    1.4654 C   0  0  0  0  0  0  0  0  0  0  0  0
    4.4483   -3.8738   -1.1478 C   0  0  0  0  0  0  0  0  0  0  0  0
   -0.0100    1.1892   -2.7545 H   0  0  0  0  0  0  0  0  0  0  0  0
    0.8350    2.0158   -1.4335 H   0  0  0  0  0  0  0  0  0  0  0  0
   -1.1247    1.8051   -0.1318 H   0  0  0  0  0  0  0  0  0  0  0  0
   -1.8931    0.9523   -1.4837 H   0  0  0  0  0  0  0  0  0  0  0  0
   -1.7159   -0.8055    0.2562 H   0  0  0  0  0  0  0  0  0  0  0  0
    0.1965    0.6638    1.5074 H   0  0  0  0  0  0  0  0  0  0  0  0
    0.3312   -1.0962    1.5669 H   0  0  0  0  0  0  0  0  0  0  0  0
    2.1172    0.8121    0.2204 H   0  0  0  0  0  0  0  0  0  0  0  0
    1.7576   -0.4413   -2.1861 H   0  0  0  0  0  0  0  0  0  0  0  0
    0.2076   -2.1788   -0.9227 H   0  0  0  0  0  0  0  0  0  0  0  0
   -0.7305   -1.2828   -2.1536 H   0  0  0  0  0  0  0  0  0  0  0  0
    3.9281   -0.1789   -0.7842 H   0  0  0  0  0  0  0  0  0  0  0  0
    6.8230   -4.5762   -0.0796 H   0  0  0  0  0  0  0  0  0  0  0  0
    7.7249   -0.9138    1.9584 H   0  0  0  0  0  0  0  0  0  0  0  0
    5.4611    1.1506    0.5612 H   0  0  0  0  0  0  0  0  0  0  0  0
    4.5015    0.4154    1.8814 H   0  0  0  0  0  0  0  0  0  0  0  0
    6.1979    0.7952    2.1308 H   0  0  0  0  0  0  0  0  0  0  0  0
    8.4983   -4.2584    2.1115 H   0  0  0  0  0  0  0  0  0  0  0  0
    9.3200   -3.7220    0.6194 H   0  0  0  0  0  0  0  0  0  0  0  0
    9.2894   -2.6768    2.0456 H   0  0  0  0  0  0  0  0  0  0  0  0
    3.4764   -4.0391   -0.6742 H   0  0  0  0  0  0  0  0  0  0  0  0
    4.3082   -3.3990   -2.1238 H   0  0  0  0  0  0  0  0  0  0  0  0
    4.8949   -4.8586   -1.3260 H   0  0  0  0  0  0  0  0  0  0  0  0
  1  2  1  0  0  0  0
  1 20  1  0  0  0  0
  1 21  1  0  0  0  0
  2  3  1  0  0  0  0
  2 22  1  0  0  0  0
  2 23  1  0  0  0  0
  3  4  1  0  0  0  0
  3 24  1  0  0  0  0
  4  5  1  0  0  0  0
  4 25  1  0  0  0  0
  4 26  1  0  0  0  0
  5  6  1  0  0  0  0
  5 27  1  0  0  0  0
  6  1  1  0  0  0  0
  6  7  1  0  0  0  0
  6 28  1  0  0  0  0
  7  3  1  0  0  0  0
  7 29  1  0  0  0  0
  7 30  1  0  0  0  0
  8  5  1  0  0  0  0
  8 11  2  0  0  0  0
  9  8  1  0  0  0  0
  9 31  1  0  0  0  0
 10  9  1  0  0  0  0
 10 12  2  0  0  0  0
 12 13  1  0  0  0  0
 12 19  1  0  0  0  0
 13 14  2  0  0  0  0
 13 32  1  0  0  0  0
 14 15  1  0  0  0  0
 14 18  1  0  0  0  0
 15 16  2  0  0  0  0
 15 33  1  0  0  0  0
 16 10  1  0  0  0  0
 16 17  1  0  0  0  0
 17 34  1  0  0  0  0
 17 35  1  0  0  0  0
 17 36  1  0  0  0  0
 18 37  1  0  0  0  0
 18 38  1  0  0  0  0
 18 39  1  0  0  0  0
 19 40  1  0  0  0  0
 19 41  1  0  0  0  0
 19 42  1  0  0  0  0
M  END
>  <Mol_ID>
5522

>  <Formula>
C17H23NO

>  <MolWeight>
257.37062

>  <Cat>
S6553

>  <Name>
ML213

>  <Synonyms>
CID-3111211

>  <Target>
Potassium Channel

>  <Form>
Free Base

>  <CAS>
489402-47-3

>  <URL>
https://www.selleckchem.com/products/ml213.html

$$$$
