ML216
 OpenBabel08302521243D

 35 37  0  0  0  0  0  0  0  0999 V2000
    0.9816   -0.1267   -0.0201 N   0  0  0  0  0  0  0  0  0  0  0  0
    0.3785   -0.6363    1.1223 C   0  0  0  0  0  0  0  0  0  0  0  0
   -0.8258   -0.5729    1.3376 O   0  0  0  0  0  0  0  0  0  0  0  0
    1.2856   -1.2385    1.9699 N   0  0  0  0  0  0  0  0  0  0  0  0
   -0.6476   -2.5426    3.3418 S   0  0  0  0  0  0  0  0  0  0  0  0
    0.9246   -1.9292    3.1076 C   0  0  0  0  0  0  0  0  0  0  0  0
    1.7666   -2.2402    4.0672 N   0  0  0  0  0  0  0  0  0  0  0  0
    1.1442   -2.9291    5.1001 N   0  0  0  0  0  0  0  0  0  0  0  0
   -0.1308   -3.1698    4.8507 C   0  0  0  0  0  0  0  0  0  0  0  0
   -3.0408   -5.1585    6.1824 C   0  0  0  0  0  0  0  0  0  0  0  0
   -2.2006   -4.5388    5.2728 C   0  0  0  0  0  0  0  0  0  0  0  0
   -1.0690   -3.8604    5.7464 C   0  0  0  0  0  0  0  0  0  0  0  0
   -0.8401   -3.8506    7.1251 C   0  0  0  0  0  0  0  0  0  0  0  0
   -1.7404   -4.4978    7.9559 C   0  0  0  0  0  0  0  0  0  0  0  0
   -2.8351   -5.1508    7.5139 N   0  0  0  0  0  0  0  0  0  0  0  0
    0.2830    0.5427   -1.0560 C   0  0  0  0  0  0  0  0  0  0  0  0
   -0.9873    1.1051   -0.8720 C   0  0  0  0  0  0  0  0  0  0  0  0
   -1.6979    1.6821   -1.9344 C   0  0  0  0  0  0  0  0  0  0  0  0
   -1.0999    1.7185   -3.1861 C   0  0  0  0  0  0  0  0  0  0  0  0
    0.1827    1.2112   -3.3834 C   0  0  0  0  0  0  0  0  0  0  0  0
    0.8792    0.6305   -2.3174 C   0  0  0  0  0  0  0  0  0  0  0  0
   -3.0728    2.2433   -1.7357 C   0  0  0  0  0  0  0  0  0  0  0  0
   -3.5260    2.1187   -0.4542 F   0  0  0  0  0  0  0  0  0  0  0  0
   -3.1444    3.5739   -2.0143 F   0  0  0  0  0  0  0  0  0  0  0  0
   -4.0131    1.6381   -2.5120 F   0  0  0  0  0  0  0  0  0  0  0  0
   -1.7541    2.2498   -4.2267 F   0  0  0  0  0  0  0  0  0  0  0  0
    1.9025   -0.4760   -0.2421 H   0  0  0  0  0  0  0  0  0  0  0  0
    2.2522   -0.9615    1.9375 H   0  0  0  0  0  0  0  0  0  0  0  0
   -3.9265   -5.6935    5.8508 H   0  0  0  0  0  0  0  0  0  0  0  0
   -2.4398   -4.6011    4.2162 H   0  0  0  0  0  0  0  0  0  0  0  0
    0.0179   -3.3391    7.5510 H   0  0  0  0  0  0  0  0  0  0  0  0
   -1.6016   -4.5064    9.0333 H   0  0  0  0  0  0  0  0  0  0  0  0
   -1.4622    1.1098    0.1065 H   0  0  0  0  0  0  0  0  0  0  0  0
    0.6264    1.2602   -4.3738 H   0  0  0  0  0  0  0  0  0  0  0  0
    1.8706    0.2250   -2.5010 H   0  0  0  0  0  0  0  0  0  0  0  0
  1  2  1  0  0  0  0
  1 16  1  0  0  0  0
  1 27  1  0  0  0  0
  2  3  2  0  0  0  0
  2  4  1  0  0  0  0
  4  6  1  0  0  0  0
  4 28  1  0  0  0  0
  5  6  1  0  0  0  0
  5  9  1  0  0  0  0
  6  7  2  0  0  0  0
  7  8  1  0  0  0  0
  8  9  2  0  0  0  0
  9 12  1  0  0  0  0
 10 11  2  0  0  0  0
 10 15  1  0  0  0  0
 10 29  1  0  0  0  0
 11 12  1  0  0  0  0
 11 30  1  0  0  0  0
 12 13  2  0  0  0  0
 13 14  1  0  0  0  0
 13 31  1  0  0  0  0
 14 15  2  0  0  0  0
 14 32  1  0  0  0  0
 16 17  2  0  0  0  0
 16 21  1  0  0  0  0
 17 18  1  0  0  0  0
 17 33  1  0  0  0  0
 18 19  2  0  0  0  0
 18 22  1  0  0  0  0
 19 20  1  0  0  0  0
 19 26  1  0  0  0  0
 20 21  2  0  0  0  0
 20 34  1  0  0  0  0
 21 35  1  0  0  0  0
 22 23  1  0  0  0  0
 22 24  1  0  0  0  0
 22 25  1  0  0  0  0
M  END
>  <Mol_ID>
4986

>  <Formula>
C15H9F4N5OS

>  <MolWeight>
383.3234728

>  <Cat>
S0469

>  <Name>
ML216

>  <Synonyms>
CID-49852229

>  <Target>
DNA/RNA Synthesis

>  <Form>
Free Base

>  <CAS>
1430213-30-1

>  <URL>
http://www.selleckchem.com/products/ml216.html

$$$$
