ML221.cdx
 OpenBabel08302520433D

 38 40  0  0  0  0  0  0  0  0999 V2000
   -4.4724    3.7057    0.6793 C   0  0  0  0  0  0  0  0  0  0  0  0
   -5.0523    3.0569    1.7811 C   0  0  0  0  0  0  0  0  0  0  0  0
   -4.2469    2.3885    2.7066 C   0  0  0  0  0  0  0  0  0  0  0  0
   -2.8583    2.3874    2.5324 C   0  0  0  0  0  0  0  0  0  0  0  0
   -2.2542    3.0448    1.4423 C   0  0  0  0  0  0  0  0  0  0  0  0
   -3.0745    3.6968    0.5101 C   0  0  0  0  0  0  0  0  0  0  0  0
   -6.5104    3.0822    1.9748 N   0  3  0  0  0  0  0  0  0  0  0  0
   -7.1926    3.6926    1.1403 O   0  0  0  0  0  0  0  0  0  0  0  0
   -6.9710    2.4972    2.9658 O   0  5  0  0  0  0  0  0  0  0  0  0
   -0.7586    2.9962    1.3608 C   0  0  0  0  0  0  0  0  0  0  0  0
   -0.2562    3.7078    0.3075 O   0  0  0  0  0  0  0  0  0  0  0  0
   -0.1065    2.3860    2.1981 O   0  0  0  0  0  0  0  0  0  0  0  0
    1.1546    3.6553    0.2199 C   0  0  0  0  0  0  0  0  0  0  0  0
    1.7766    3.0919   -1.0070 C   0  0  0  0  0  0  0  0  0  0  0  0
    3.2434    2.8784   -0.9773 C   0  0  0  0  0  0  0  0  0  0  0  0
    3.9596    3.3223    0.0684 C   0  0  0  0  0  0  0  0  0  0  0  0
    3.3716    4.0427    1.1046 O   0  0  0  0  0  0  0  0  0  0  0  0
    1.9963    4.1175    1.1578 C   0  0  0  0  0  0  0  0  0  0  0  0
    1.1202    2.7931   -1.9985 O   0  0  0  0  0  0  0  0  0  0  0  0
    5.4526    3.0967    0.2024 C   0  0  0  0  0  0  0  0  0  0  0  0
    5.8043    2.1262    1.7042 S   0  0  0  0  0  0  0  0  0  0  0  0
    7.5651    1.9414    1.5774 C   0  0  0  0  0  0  0  0  0  0  0  0
    8.2430    1.8669    2.7366 N   0  0  0  0  0  0  0  0  0  0  0  0
    9.5600    1.6165    2.6585 C   0  0  0  0  0  0  0  0  0  0  0  0
   10.2242    1.4362    1.4719 C   0  0  0  0  0  0  0  0  0  0  0  0
    9.4464    1.5382    0.3433 C   0  0  0  0  0  0  0  0  0  0  0  0
    8.1226    1.7945    0.3642 N   0  0  0  0  0  0  0  0  0  0  0  0
   -5.0937    4.2215   -0.0523 H   0  0  0  0  0  0  0  0  0  0  0  0
   -4.6744    1.8699    3.5635 H   0  0  0  0  0  0  0  0  0  0  0  0
   -2.2424    1.8644    3.2645 H   0  0  0  0  0  0  0  0  0  0  0  0
   -2.6490    4.2019   -0.3550 H   0  0  0  0  0  0  0  0  0  0  0  0
    3.6759    2.3436   -1.8131 H   0  0  0  0  0  0  0  0  0  0  0  0
    1.6803    4.5744    2.0852 H   0  0  0  0  0  0  0  0  0  0  0  0
    5.8324    2.5559   -0.6716 H   0  0  0  0  0  0  0  0  0  0  0  0
    5.9709    4.0602    0.2561 H   0  0  0  0  0  0  0  0  0  0  0  0
   10.0818    1.5570    3.6112 H   0  0  0  0  0  0  0  0  0  0  0  0
   11.2821    1.2187    1.4293 H   0  0  0  0  0  0  0  0  0  0  0  0
    9.8776    1.4046   -0.6451 H   0  0  0  0  0  0  0  0  0  0  0  0
  1  2  2  0  0  0  0
  1 28  1  0  0  0  0
  2  3  1  0  0  0  0
  2  7  1  0  0  0  0
  3  4  2  0  0  0  0
  3 29  1  0  0  0  0
  4  5  1  0  0  0  0
  4 30  1  0  0  0  0
  5  6  2  0  0  0  0
  5 10  1  0  0  0  0
  6  1  1  0  0  0  0
  6 31  1  0  0  0  0
  7  8  2  0  0  0  0
  7  9  1  0  0  0  0
 10 11  1  0  0  0  0
 10 12  2  0  0  0  0
 11 13  1  0  0  0  0
 13 14  1  0  0  0  0
 14 15  1  0  0  0  0
 14 19  2  0  0  0  0
 15 16  2  0  0  0  0
 15 32  1  0  0  0  0
 16 17  1  0  0  0  0
 16 20  1  0  0  0  0
 17 18  1  0  0  0  0
 18 13  2  0  0  0  0
 18 33  1  0  0  0  0
 20 34  1  0  0  0  0
 20 35  1  0  0  0  0
 21 22  1  0  0  0  0
 21 20  1  0  0  0  0
 22 23  2  0  0  0  0
 23 24  1  0  0  0  0
 24 25  2  0  0  0  0
 24 36  1  0  0  0  0
 25 26  1  0  0  0  0
 25 37  1  0  0  0  0
 26 27  2  0  0  0  0
 26 38  1  0  0  0  0
 27 22  1  0  0  0  0
M  CHG  2   7   1   9  -1
M  END
>  <Mol_ID>
4211

>  <Formula>
C17H11N3O6S

>  <MolWeight>
385.35074

>  <Cat>
S8695

>  <Name>
ML221

>  <Synonyms>
N/A

>  <Target>
Angiotensin Receptor

>  <Form>
salt

>  <CAS>
877636-42-5

>  <URL>
http://selleckchem.com/products/ml221.html

$$$$
