ML234.cdx
 OpenBabel08302519583D

 49 51  0  0  0  0  0  0  0  0999 V2000
    1.4970    1.8143    2.0332 C   0  0  0  0  0  0  0  0  0  0  0  0
    0.7353    1.4905    3.1371 C   0  0  0  0  0  0  0  0  0  0  0  0
   -0.2888    0.5685    2.9686 C   0  0  0  0  0  0  0  0  0  0  0  0
   -0.5147   -0.0075    1.7101 C   0  0  0  0  0  0  0  0  0  0  0  0
    0.3135    0.3778    0.6371 C   0  0  0  0  0  0  0  0  0  0  0  0
    1.3029    1.2863    0.8061 N   0  0  0  0  0  0  0  0  0  0  0  0
   -1.5306   -0.9661    1.5239 C   0  0  0  0  0  0  0  0  0  0  0  0
   -1.7390   -1.5972    0.2853 C   0  0  0  0  0  0  0  0  0  0  0  0
   -0.9226   -1.1992   -0.7801 C   0  0  0  0  0  0  0  0  0  0  0  0
    0.0734   -0.2306   -0.6007 C   0  0  0  0  0  0  0  0  0  0  0  0
    0.8582    0.1149   -1.6776 O   0  0  0  0  0  0  0  0  0  0  0  0
   -2.7370   -2.6770    0.1267 C   0  0  0  0  0  0  0  0  0  0  0  0
   -3.4876   -2.8310   -1.0545 C   0  0  0  0  0  0  0  0  0  0  0  0
   -4.3887   -3.8918   -1.2126 C   0  0  0  0  0  0  0  0  0  0  0  0
   -4.5827   -4.8025   -0.1730 C   0  0  0  0  0  0  0  0  0  0  0  0
   -3.8409   -4.6754    1.0038 C   0  0  0  0  0  0  0  0  0  0  0  0
   -2.9301   -3.6263    1.1469 C   0  0  0  0  0  0  0  0  0  0  0  0
   -5.5613   -5.9101   -0.3434 C   0  0  0  0  0  0  0  0  0  0  0  0
   -5.7347   -6.4268   -1.4376 O   0  0  0  0  0  0  0  0  0  0  0  0
   -6.2363   -6.2708    0.8091 N   0  0  0  0  0  0  0  0  0  0  0  0
   -7.1508   -7.3883    0.8654 C   0  0  0  0  0  0  0  0  0  0  0  0
   -6.4358   -8.7195    1.0849 C   0  0  0  0  0  0  0  0  0  0  0  0
   -5.6297   -8.8054    2.3915 C   0  0  0  0  0  0  0  0  0  0  0  0
   -6.4005   -8.5778    3.6298 N   0  0  0  0  0  0  0  0  0  0  0  0
   -7.4175   -9.6118    3.8345 C   0  0  0  0  0  0  0  0  0  0  0  0
   -5.4879   -8.5522    4.7798 C   0  0  0  0  0  0  0  0  0  0  0  0
    2.3129    2.5269    2.1023 H   0  0  0  0  0  0  0  0  0  0  0  0
    0.9363    1.9400    4.1019 H   0  0  0  0  0  0  0  0  0  0  0  0
   -0.8997    0.2940    3.8240 H   0  0  0  0  0  0  0  0  0  0  0  0
   -2.1598   -1.2292    2.3714 H   0  0  0  0  0  0  0  0  0  0  0  0
   -1.0405   -1.6676   -1.7537 H   0  0  0  0  0  0  0  0  0  0  0  0
    0.6122   -0.4218   -2.4457 H   0  0  0  0  0  0  0  0  0  0  0  0
   -3.3816   -2.1232   -1.8728 H   0  0  0  0  0  0  0  0  0  0  0  0
   -4.9427   -3.9998   -2.1428 H   0  0  0  0  0  0  0  0  0  0  0  0
   -3.9322   -5.4031    1.8064 H   0  0  0  0  0  0  0  0  0  0  0  0
   -2.3460   -3.5781    2.0641 H   0  0  0  0  0  0  0  0  0  0  0  0
   -6.1069   -5.7395    1.6578 H   0  0  0  0  0  0  0  0  0  0  0  0
   -7.8615   -7.1830    1.6728 H   0  0  0  0  0  0  0  0  0  0  0  0
   -7.7133   -7.4277   -0.0728 H   0  0  0  0  0  0  0  0  0  0  0  0
   -7.1736   -9.5287    1.0459 H   0  0  0  0  0  0  0  0  0  0  0  0
   -5.7457   -8.9000    0.2509 H   0  0  0  0  0  0  0  0  0  0  0  0
   -5.1412   -9.7891    2.4283 H   0  0  0  0  0  0  0  0  0  0  0  0
   -4.8207   -8.0650    2.3374 H   0  0  0  0  0  0  0  0  0  0  0  0
   -6.9857  -10.6182    3.8696 H   0  0  0  0  0  0  0  0  0  0  0  0
   -7.9587   -9.4368    4.7726 H   0  0  0  0  0  0  0  0  0  0  0  0
   -8.1758   -9.5814    3.0460 H   0  0  0  0  0  0  0  0  0  0  0  0
   -4.8113   -9.4150    4.7939 H   0  0  0  0  0  0  0  0  0  0  0  0
   -4.8850   -7.6379    4.7608 H   0  0  0  0  0  0  0  0  0  0  0  0
   -6.0404   -8.5414    5.7268 H   0  0  0  0  0  0  0  0  0  0  0  0
  1  2  2  0  0  0  0
  1 27  1  0  0  0  0
  2  3  1  0  0  0  0
  2 28  1  0  0  0  0
  3  4  2  0  0  0  0
  3 29  1  0  0  0  0
  4  5  1  0  0  0  0
  4  7  1  0  0  0  0
  5  6  2  0  0  0  0
  6  1  1  0  0  0  0
  7  8  2  0  0  0  0
  7 30  1  0  0  0  0
  8  9  1  0  0  0  0
  8 12  1  0  0  0  0
  9 10  2  0  0  0  0
  9 31  1  0  0  0  0
 10  5  1  0  0  0  0
 10 11  1  0  0  0  0
 11 32  1  0  0  0  0
 12 13  2  0  0  0  0
 13 14  1  0  0  0  0
 13 33  1  0  0  0  0
 14 15  2  0  0  0  0
 14 34  1  0  0  0  0
 15 16  1  0  0  0  0
 15 18  1  0  0  0  0
 16 17  2  0  0  0  0
 16 35  1  0  0  0  0
 17 12  1  0  0  0  0
 17 36  1  0  0  0  0
 18 19  2  0  0  0  0
 18 20  1  0  0  0  0
 20 21  1  0  0  0  0
 20 37  1  0  0  0  0
 21 22  1  0  0  0  0
 21 38  1  0  0  0  0
 21 39  1  0  0  0  0
 22 23  1  0  0  0  0
 22 40  1  0  0  0  0
 22 41  1  0  0  0  0
 23 24  1  0  0  0  0
 23 42  1  0  0  0  0
 23 43  1  0  0  0  0
 24 25  1  0  0  0  0
 24 26  1  0  0  0  0
 25 44  1  0  0  0  0
 25 45  1  0  0  0  0
 25 46  1  0  0  0  0
 26 47  1  0  0  0  0
 26 48  1  0  0  0  0
 26 49  1  0  0  0  0
M  END
>  <Mol_ID>
2527

>  <Formula>
C21H23N3O2

>  <MolWeight>
349.42622

>  <Cat>
S7296

>  <Name>
ML324

>  <Synonyms>
N/A

>  <Target>
CMV,Histone Demethylase,JMJD

>  <Form>
free base

>  <CAS>
1222800-79-4

>  <URL>
http://selleckchem.com/products/ml324.html

$$$$
