ML239
 OpenBabel08302521323D

 31 32  0  0  0  0  0  0  0  0999 V2000
   -0.8863    1.5272   -0.6624 O   0  0  0  0  0  0  0  0  0  0  0  0
    0.3293    1.2740    0.0283 C   0  0  0  0  0  0  0  0  0  0  0  0
    0.3602    1.9217    1.4221 C   0  0  0  0  0  0  0  0  0  0  0  0
    0.9223    3.1982    1.4017 N   0  0  0  0  0  0  0  0  0  0  0  0
   -0.0365    1.3300    2.4220 O   0  0  0  0  0  0  0  0  0  0  0  0
    1.1353    4.0213    2.4845 N   0  0  0  0  0  0  0  0  0  0  0  0
    1.3465    3.5023    3.6528 C   0  0  0  0  0  0  0  0  0  0  0  0
   -1.0286    0.9236   -1.8882 C   0  0  0  0  0  0  0  0  0  0  0  0
   -0.0756    0.1204   -2.5216 C   0  0  0  0  0  0  0  0  0  0  0  0
   -2.2469    1.1584   -2.5341 C   0  0  0  0  0  0  0  0  0  0  0  0
   -0.3428   -0.4460   -3.7734 C   0  0  0  0  0  0  0  0  0  0  0  0
   -2.5123    0.5968   -3.7870 C   0  0  0  0  0  0  0  0  0  0  0  0
   -1.5608   -0.2104   -4.4060 C   0  0  0  0  0  0  0  0  0  0  0  0
    1.5820    4.3725    4.7823 C   0  0  0  0  0  0  0  0  0  0  0  0
    1.8828    4.0403    6.0920 C   0  0  0  0  0  0  0  0  0  0  0  0
    1.5566    5.7467    4.7170 N   0  0  0  0  0  0  0  0  0  0  0  0
    2.0512    5.2446    6.8210 C   0  0  0  0  0  0  0  0  0  0  0  0
    1.8445    6.2839    5.9455 C   0  0  0  0  0  0  0  0  0  0  0  0
    0.4806    0.1985    0.1795 H   0  0  0  0  0  0  0  0  0  0  0  0
    1.1714    1.6730   -0.5511 H   0  0  0  0  0  0  0  0  0  0  0  0
    0.9484    3.6865    0.5121 H   0  0  0  0  0  0  0  0  0  0  0  0
    1.4030    2.4198    3.8449 H   0  0  0  0  0  0  0  0  0  0  0  0
    0.8887   -0.0932   -2.0731 H   0  0  0  0  0  0  0  0  0  0  0  0
   -3.0014    1.7808   -2.0587 H   0  0  0  0  0  0  0  0  0  0  0  0
    0.4026   -1.0753   -4.2542 H   0  0  0  0  0  0  0  0  0  0  0  0
   -3.4636    0.7870   -4.2793 H   0  0  0  0  0  0  0  0  0  0  0  0
   -1.7675   -0.6550   -5.3758 H   0  0  0  0  0  0  0  0  0  0  0  0
    1.9790    3.0360    6.4837 H   0  0  0  0  0  0  0  0  0  0  0  0
    1.3587    6.2678    3.8714 H   0  0  0  0  0  0  0  0  0  0  0  0
    2.2991    5.3404    7.8710 H   0  0  0  0  0  0  0  0  0  0  0  0
    1.8752    7.3564    6.0887 H   0  0  0  0  0  0  0  0  0  0  0  0
  1  2  1  0  0  0  0
  1  8  1  0  0  0  0
  2  3  1  0  0  0  0
  2 19  1  0  0  0  0
  2 20  1  0  0  0  0
  3  4  1  0  0  0  0
  3  5  2  0  0  0  0
  4  6  1  0  0  0  0
  4 21  1  0  0  0  0
  6  7  2  0  0  0  0
  7 14  1  0  0  0  0
  7 22  1  0  0  0  0
  8  9  2  0  0  0  0
  8 10  1  0  0  0  0
  9 11  1  0  0  0  0
  9 23  1  0  0  0  0
 10 12  2  0  0  0  0
 10 24  1  0  0  0  0
 11 13  2  0  0  0  0
 11 25  1  0  0  0  0
 12 13  1  0  0  0  0
 12 26  1  0  0  0  0
 13 27  1  0  0  0  0
 14 15  2  0  0  0  0
 14 16  1  0  0  0  0
 15 17  1  0  0  0  0
 15 28  1  0  0  0  0
 16 18  1  0  0  0  0
 16 29  1  0  0  0  0
 17 18  2  0  0  0  0
 17 30  1  0  0  0  0
 18 31  1  0  0  0  0
M  END
>  <Mol_ID>
6147

>  <Formula>
C13H10Cl3N3O2

>  <MolWeight>
346.5964

>  <Cat>
S0150

>  <Name>
ML239

>  <Target>
Others

>  <Form>
free base

>  <CAS>
1378872-36-6

>  <URL>
http://www.selleckchem.com/products/ml239.html

$$$$
