ML241 hydrochloride
 OpenBabel08302521243D

 52 56  0  0  0  0  0  0  0  0999 V2000
    2.4277   -0.7781   -0.0154 N   0  0  0  0  0  0  0  0  0  0  0  0
    2.4177    0.5605    0.1099 C   0  0  0  0  0  0  0  0  0  0  0  0
    1.2695    1.2582    0.1564 N   0  0  0  0  0  0  0  0  0  0  0  0
    0.1033    0.5964    0.0498 C   0  0  0  0  0  0  0  0  0  0  0  0
    0.0382   -0.7839   -0.0319 C   0  0  0  0  0  0  0  0  0  0  0  0
    1.2597   -1.4462   -0.0748 C   0  0  0  0  0  0  0  0  0  0  0  0
   -1.1368    1.4567    0.0737 C   0  0  0  0  0  0  0  0  0  0  0  0
   -2.3961    0.7216   -0.3677 C   0  0  0  0  0  0  0  0  0  0  0  0
   -2.4690   -0.6328    0.3195 C   0  0  0  0  0  0  0  0  0  0  0  0
   -1.2837   -1.5010   -0.0986 C   0  0  0  0  0  0  0  0  0  0  0  0
    3.6159    1.2943    0.1737 N   0  0  0  0  0  0  0  0  0  0  0  0
    1.2816   -2.8338   -0.3093 N   0  0  0  0  0  0  0  0  0  0  0  0
    2.5039   -3.5127    0.1058 C   0  0  0  0  0  0  0  0  0  0  0  0
    2.3470   -4.9947   -0.1728 C   0  0  0  0  0  0  0  0  0  0  0  0
    2.2632   -5.4556   -1.4962 C   0  0  0  0  0  0  0  0  0  0  0  0
    2.1148   -6.8172   -1.7683 C   0  0  0  0  0  0  0  0  0  0  0  0
    2.0449   -7.7344   -0.7214 C   0  0  0  0  0  0  0  0  0  0  0  0
    2.1192   -7.2902    0.5978 C   0  0  0  0  0  0  0  0  0  0  0  0
    2.2669   -5.9274    0.8720 C   0  0  0  0  0  0  0  0  0  0  0  0
    4.9154    1.0009   -0.3003 C   0  0  0  0  0  0  0  0  0  0  0  0
    5.9743    1.9204   -0.1071 C   0  0  0  0  0  0  0  0  0  0  0  0
    5.8353    3.1215    0.5544 O   0  0  0  0  0  0  0  0  0  0  0  0
    4.4691    3.5240    0.6678 C   0  0  0  0  0  0  0  0  0  0  0  0
    3.5898    2.3828    1.1550 C   0  0  0  0  0  0  0  0  0  0  0  0
    5.2150   -0.1596   -1.0286 C   0  0  0  0  0  0  0  0  0  0  0  0
    6.5078   -0.4169   -1.5038 C   0  0  0  0  0  0  0  0  0  0  0  0
    7.5325    0.4970   -1.2792 C   0  0  0  0  0  0  0  0  0  0  0  0
    7.2657    1.6683   -0.5798 C   0  0  0  0  0  0  0  0  0  0  0  0
   -0.9851    2.3337   -0.5667 H   0  0  0  0  0  0  0  0  0  0  0  0
   -1.2666    1.8201    1.1002 H   0  0  0  0  0  0  0  0  0  0  0  0
   -2.3896    0.5820   -1.4556 H   0  0  0  0  0  0  0  0  0  0  0  0
   -3.2792    1.3216   -0.1235 H   0  0  0  0  0  0  0  0  0  0  0  0
   -2.4621   -0.4920    1.4095 H   0  0  0  0  0  0  0  0  0  0  0  0
   -3.4059   -1.1403    0.0688 H   0  0  0  0  0  0  0  0  0  0  0  0
   -1.2733   -2.3701    0.5689 H   0  0  0  0  0  0  0  0  0  0  0  0
   -1.4358   -1.8601   -1.1225 H   0  0  0  0  0  0  0  0  0  0  0  0
    0.4816   -3.2969    0.1025 H   0  0  0  0  0  0  0  0  0  0  0  0
    3.3865   -3.1474   -0.4317 H   0  0  0  0  0  0  0  0  0  0  0  0
    2.6692   -3.3566    1.1798 H   0  0  0  0  0  0  0  0  0  0  0  0
    2.3062   -4.7447   -2.3196 H   0  0  0  0  0  0  0  0  0  0  0  0
    2.0510   -7.1594   -2.7977 H   0  0  0  0  0  0  0  0  0  0  0  0
    1.9338   -8.7947   -0.9341 H   0  0  0  0  0  0  0  0  0  0  0  0
    2.0646   -8.0059    1.4144 H   0  0  0  0  0  0  0  0  0  0  0  0
    2.3203   -5.6019    1.9084 H   0  0  0  0  0  0  0  0  0  0  0  0
    4.1258    3.9200   -0.2962 H   0  0  0  0  0  0  0  0  0  0  0  0
    4.4356    4.3468    1.3902 H   0  0  0  0  0  0  0  0  0  0  0  0
    3.9654    2.0026    2.1153 H   0  0  0  0  0  0  0  0  0  0  0  0
    2.5886    2.7887    1.3400 H   0  0  0  0  0  0  0  0  0  0  0  0
    4.4481   -0.8960   -1.2442 H   0  0  0  0  0  0  0  0  0  0  0  0
    6.7056   -1.3323   -2.0552 H   0  0  0  0  0  0  0  0  0  0  0  0
    8.5333    0.3021   -1.6586 H   0  0  0  0  0  0  0  0  0  0  0  0
    8.0549    2.3967   -0.4169 H   0  0  0  0  0  0  0  0  0  0  0  0
  1  2  2  0  0  0  0
  2  3  1  0  0  0  0
  2 11  1  0  0  0  0
  3  4  2  0  0  0  0
  4  5  1  0  0  0  0
  4  7  1  0  0  0  0
  5  6  2  0  0  0  0
  6  1  1  0  0  0  0
  6 12  1  0  0  0  0
  7  8  1  0  0  0  0
  7 29  1  0  0  0  0
  7 30  1  0  0  0  0
  8  9  1  0  0  0  0
  8 31  1  0  0  0  0
  8 32  1  0  0  0  0
  9 10  1  0  0  0  0
  9 33  1  0  0  0  0
  9 34  1  0  0  0  0
 10  5  1  0  0  0  0
 10 35  1  0  0  0  0
 10 36  1  0  0  0  0
 11 20  1  0  0  0  0
 12 13  1  0  0  0  0
 12 37  1  0  0  0  0
 13 14  1  0  0  0  0
 13 38  1  0  0  0  0
 13 39  1  0  0  0  0
 14 15  2  0  0  0  0
 15 16  1  0  0  0  0
 15 40  1  0  0  0  0
 16 17  2  0  0  0  0
 16 41  1  0  0  0  0
 17 18  1  0  0  0  0
 17 42  1  0  0  0  0
 18 19  2  0  0  0  0
 18 43  1  0  0  0  0
 19 14  1  0  0  0  0
 19 44  1  0  0  0  0
 20 21  2  0  0  0  0
 20 25  1  0  0  0  0
 21 22  1  0  0  0  0
 22 23  1  0  0  0  0
 23 24  1  0  0  0  0
 23 45  1  0  0  0  0
 23 46  1  0  0  0  0
 24 11  1  0  0  0  0
 24 47  1  0  0  0  0
 24 48  1  0  0  0  0
 25 26  2  0  0  0  0
 25 49  1  0  0  0  0
 26 27  1  0  0  0  0
 26 50  1  0  0  0  0
 27 28  2  0  0  0  0
 27 51  1  0  0  0  0
 28 21  1  0  0  0  0
 28 52  1  0  0  0  0
M  END
>  <Mol_ID>
5053

>  <Formula>
C23H25ClN4O

>  <MolWeight>
408.9238

>  <Cat>
S0219

>  <Name>
ML241 hydrochloride

>  <Synonyms>
N/A

>  <Target>
ATPase

>  <Form>
free base

>  <CAS>
2070015-13-1

>  <URL>
http://www.selleckchem.com/products/ml-241-hcl.html

$$$$
