ML240
 OpenBabel08302521313D

 50 54  0  0  0  0  0  0  0  0999 V2000
    1.2831   -0.1175   -1.0827 O   0  0  0  0  0  0  0  0  0  0  0  0
    2.8638    2.8687   -5.0869 N   0  0  0  0  0  0  0  0  0  0  0  0
    0.1530    5.7219   -2.6389 N   0  0  0  0  0  0  0  0  0  0  0  0
    1.5377    4.2852   -3.6960 N   0  0  0  0  0  0  0  0  0  0  0  0
    1.8033    2.0173   -3.0909 N   0  0  0  0  0  0  0  0  0  0  0  0
    4.1126    1.7815   -6.6125 N   0  0  0  0  0  0  0  0  0  0  0  0
    3.0367    0.4535   -5.0203 N   0  0  0  0  0  0  0  0  0  0  0  0
    3.2633    3.8196   -6.0372 C   0  0  0  0  0  0  0  0  0  0  0  0
    0.2368    3.3539   -1.8707 C   0  0  0  0  0  0  0  0  0  0  0  0
    2.0528    3.0689   -3.9086 C   0  0  0  0  0  0  0  0  0  0  0  0
    0.6371    4.4271   -2.7060 C   0  0  0  0  0  0  0  0  0  0  0  0
    0.9418    2.1577   -2.0485 C   0  0  0  0  0  0  0  0  0  0  0  0
    4.0574    3.1048   -6.9353 C   0  0  0  0  0  0  0  0  0  0  0  0
    3.3565    1.6484   -5.5502 C   0  0  0  0  0  0  0  0  0  0  0  0
   -0.4008    6.2726   -1.4294 C   0  0  0  0  0  0  0  0  0  0  0  0
    0.6792    1.1209   -1.1094 C   0  0  0  0  0  0  0  0  0  0  0  0
   -0.7959    3.3952   -0.8784 C   0  0  0  0  0  0  0  0  0  0  0  0
    3.0206    5.1927   -6.2245 C   0  0  0  0  0  0  0  0  0  0  0  0
    4.6606    3.7551   -8.0270 C   0  0  0  0  0  0  0  0  0  0  0  0
   -0.2864    7.7608   -1.3572 C   0  0  0  0  0  0  0  0  0  0  0  0
   -0.2909    1.2275   -0.0969 C   0  0  0  0  0  0  0  0  0  0  0  0
   -1.0447    2.3671    0.0137 C   0  0  0  0  0  0  0  0  0  0  0  0
    3.6049    5.8184   -7.3381 C   0  0  0  0  0  0  0  0  0  0  0  0
    4.4209    5.1160   -8.2224 C   0  0  0  0  0  0  0  0  0  0  0  0
   -1.3861    8.5619   -1.6924 C   0  0  0  0  0  0  0  0  0  0  0  0
    0.8863    8.3469   -0.8713 C   0  0  0  0  0  0  0  0  0  0  0  0
   -1.3165    9.9392   -1.5241 C   0  0  0  0  0  0  0  0  0  0  0  0
    0.9525    9.7257   -0.7061 C   0  0  0  0  0  0  0  0  0  0  0  0
   -0.1487   10.5193   -1.0318 C   0  0  0  0  0  0  0  0  0  0  0  0
    2.6665   -0.1320   -1.3993 C   0  0  0  0  0  0  0  0  0  0  0  0
    0.7247    6.3438   -3.2030 H   0  0  0  0  0  0  0  0  0  0  0  0
    2.2168    0.3984   -4.4195 H   0  0  0  0  0  0  0  0  0  0  0  0
    3.1524   -0.3453   -5.6339 H   0  0  0  0  0  0  0  0  0  0  0  0
   -1.4711    6.0451   -1.4039 H   0  0  0  0  0  0  0  0  0  0  0  0
    0.0729    5.8632   -0.5281 H   0  0  0  0  0  0  0  0  0  0  0  0
   -1.4588    4.2401   -0.7754 H   0  0  0  0  0  0  0  0  0  0  0  0
    2.3880    5.7617   -5.5516 H   0  0  0  0  0  0  0  0  0  0  0  0
    5.2814    3.1904   -8.7146 H   0  0  0  0  0  0  0  0  0  0  0  0
   -0.4547    0.4059    0.5963 H   0  0  0  0  0  0  0  0  0  0  0  0
   -1.8120    2.4707    0.7760 H   0  0  0  0  0  0  0  0  0  0  0  0
    3.4140    6.8740   -7.5204 H   0  0  0  0  0  0  0  0  0  0  0  0
    4.8666    5.6206   -9.0769 H   0  0  0  0  0  0  0  0  0  0  0  0
   -2.3055    8.1083   -2.0549 H   0  0  0  0  0  0  0  0  0  0  0  0
    1.7354    7.7255   -0.5897 H   0  0  0  0  0  0  0  0  0  0  0  0
   -2.1801   10.5544   -1.7619 H   0  0  0  0  0  0  0  0  0  0  0  0
    1.8558   10.1794   -0.3097 H   0  0  0  0  0  0  0  0  0  0  0  0
   -0.0984   11.5955   -0.8929 H   0  0  0  0  0  0  0  0  0  0  0  0
    3.1140   -0.9821   -0.8763 H   0  0  0  0  0  0  0  0  0  0  0  0
    2.7899   -0.3076   -2.4663 H   0  0  0  0  0  0  0  0  0  0  0  0
    3.1904    0.7726   -1.0732 H   0  0  0  0  0  0  0  0  0  0  0  0
  1 16  1  0  0  0  0
  1 30  1  0  0  0  0
  2  8  1  0  0  0  0
  2 10  1  0  0  0  0
  2 14  1  0  0  0  0
  3 11  1  0  0  0  0
  3 15  1  0  0  0  0
  3 31  1  0  0  0  0
  4 10  2  0  0  0  0
  4 11  1  0  0  0  0
  5 10  1  0  0  0  0
  5 12  2  0  0  0  0
  6 13  1  0  0  0  0
  6 14  2  0  0  0  0
  7 14  1  0  0  0  0
  7 32  1  0  0  0  0
  7 33  1  0  0  0  0
  8 13  2  0  0  0  0
  8 18  1  0  0  0  0
  9 11  2  0  0  0  0
  9 12  1  0  0  0  0
  9 17  1  0  0  0  0
 12 16  1  0  0  0  0
 13 19  1  0  0  0  0
 15 20  1  0  0  0  0
 15 34  1  0  0  0  0
 15 35  1  0  0  0  0
 16 21  2  0  0  0  0
 17 22  2  0  0  0  0
 17 36  1  0  0  0  0
 18 23  2  0  0  0  0
 18 37  1  0  0  0  0
 19 24  2  0  0  0  0
 19 38  1  0  0  0  0
 20 25  2  0  0  0  0
 20 26  1  0  0  0  0
 21 22  1  0  0  0  0
 21 39  1  0  0  0  0
 22 40  1  0  0  0  0
 23 24  1  0  0  0  0
 23 41  1  0  0  0  0
 24 42  1  0  0  0  0
 25 27  1  0  0  0  0
 25 43  1  0  0  0  0
 26 28  2  0  0  0  0
 26 44  1  0  0  0  0
 27 29  2  0  0  0  0
 27 45  1  0  0  0  0
 28 29  1  0  0  0  0
 28 46  1  0  0  0  0
 29 47  1  0  0  0  0
 30 48  1  0  0  0  0
 30 49  1  0  0  0  0
 30 50  1  0  0  0  0
M  END
>  <Mol_ID>
5952

>  <Formula>
C23H20N6O

>  <MolWeight>
396.4445

>  <Cat>
S0220

>  <Name>
ML240

>  <Synonyms>
N/A

>  <Target>
p97

>  <Form>
Free Base

>  <CAS>
1346527-98-7

>  <URL>
http://www.selleckchem.com/products/ml240.html

$$$$
