ML277
 OpenBabel08302521313D

 57 60  0  0  0  0  0  0  0  0999 V2000
    1.0699   -0.0705    0.2279 S   0  0  0  0  0  0  0  0  0  0  0  0
    5.2021    4.7103    0.6839 S   0  0  0  0  0  0  0  0  0  0  0  0
    0.1372   -0.8214   -0.5882 O   0  0  0  0  0  0  0  0  0  0  0  0
    1.2450   -0.4041    1.6279 O   0  0  0  0  0  0  0  0  0  0  0  0
    2.8865    3.2612   -0.2320 O   0  0  0  0  0  0  0  0  0  0  0  0
    6.1880   10.9799    5.7529 O   0  0  0  0  0  0  0  0  0  0  0  0
    0.6300    1.5494    0.1415 N   0  0  0  0  0  0  0  0  0  0  0  0
    3.0206    3.7848    2.0194 N   0  0  0  0  0  0  0  0  0  0  0  0
    4.3757    5.4372    2.9912 N   0  0  0  0  0  0  0  0  0  0  0  0
    1.0950    2.4933    1.1903 C   0  0  2  0  0  0  0  0  0  0  0  0
   -0.0564    3.4916    1.4051 C   0  0  0  0  0  0  0  0  0  0  0  0
   -0.4245    4.2236    0.1143 C   0  0  0  0  0  0  0  0  0  0  0  0
    0.3351    2.1419   -1.1794 C   0  0  0  0  0  0  0  0  0  0  0  0
   -0.6981    3.2593   -1.0396 C   0  0  0  0  0  0  0  0  0  0  0  0
    2.4374    3.1988    0.9096 C   0  0  0  0  0  0  0  0  0  0  0  0
    2.6649   -0.2034   -0.5484 C   0  0  0  0  0  0  0  0  0  0  0  0
    3.8195   -0.1566    0.2428 C   0  0  0  0  0  0  0  0  0  0  0  0
    2.7484   -0.5800   -1.8945 C   0  0  0  0  0  0  0  0  0  0  0  0
    4.1127    4.6281    1.9920 C   0  0  0  0  0  0  0  0  0  0  0  0
    5.0543   -0.5085   -0.3137 C   0  0  0  0  0  0  0  0  0  0  0  0
    3.9880   -0.9261   -2.4408 C   0  0  0  0  0  0  0  0  0  0  0  0
    5.1449   -0.9211   -1.6452 C   0  0  0  0  0  0  0  0  0  0  0  0
    6.4604   -1.3601   -2.2169 C   0  0  0  0  0  0  0  0  0  0  0  0
    5.3938    6.3268    2.6355 C   0  0  0  0  0  0  0  0  0  0  0  0
    5.9867    6.0468    1.4198 C   0  0  0  0  0  0  0  0  0  0  0  0
    5.7002    7.4880    3.4760 C   0  0  0  0  0  0  0  0  0  0  0  0
    5.0865    7.5875    4.7324 C   0  0  0  0  0  0  0  0  0  0  0  0
    6.5039    8.5566    3.0520 C   0  0  0  0  0  0  0  0  0  0  0  0
    5.2264    8.7315    5.5261 C   0  0  0  0  0  0  0  0  0  0  0  0
    6.6469    9.7025    3.8508 C   0  0  0  0  0  0  0  0  0  0  0  0
    5.9985    9.8022    5.0836 C   0  0  0  0  0  0  0  0  0  0  0  0
    5.4855   11.1344    6.9822 C   0  0  0  0  0  0  0  0  0  0  0  0
    2.5370    3.7938    2.9070 H   0  0  0  0  0  0  0  0  0  0  0  0
    1.2141    1.9552    2.1381 H   0  0  0  0  0  0  0  0  0  0  0  0
    0.1848    4.2198    2.1870 H   0  0  0  0  0  0  0  0  0  0  0  0
   -0.9427    2.9398    1.7515 H   0  0  0  0  0  0  0  0  0  0  0  0
   -1.3171    4.8383    0.2852 H   0  0  0  0  0  0  0  0  0  0  0  0
    0.3825    4.9117   -0.1604 H   0  0  0  0  0  0  0  0  0  0  0  0
   -0.0847    1.3859   -1.8517 H   0  0  0  0  0  0  0  0  0  0  0  0
    1.2412    2.5118   -1.6634 H   0  0  0  0  0  0  0  0  0  0  0  0
   -1.6868    2.8070   -0.8914 H   0  0  0  0  0  0  0  0  0  0  0  0
   -0.7534    3.8227   -1.9792 H   0  0  0  0  0  0  0  0  0  0  0  0
    3.7581    0.0942    1.2945 H   0  0  0  0  0  0  0  0  0  0  0  0
    1.8521   -0.6571   -2.5066 H   0  0  0  0  0  0  0  0  0  0  0  0
    5.9372   -0.4921    0.3215 H   0  0  0  0  0  0  0  0  0  0  0  0
    4.0437   -1.2412   -3.4814 H   0  0  0  0  0  0  0  0  0  0  0  0
    6.3425   -2.2979   -2.7709 H   0  0  0  0  0  0  0  0  0  0  0  0
    6.8617   -0.5936   -2.8856 H   0  0  0  0  0  0  0  0  0  0  0  0
    7.1940   -1.5466   -1.4244 H   0  0  0  0  0  0  0  0  0  0  0  0
    6.7874    6.5559    0.9044 H   0  0  0  0  0  0  0  0  0  0  0  0
    4.4640    6.7743    5.0995 H   0  0  0  0  0  0  0  0  0  0  0  0
    7.0091    8.5445    2.0901 H   0  0  0  0  0  0  0  0  0  0  0  0
    4.7025    8.7530    6.4750 H   0  0  0  0  0  0  0  0  0  0  0  0
    7.2528   10.5343    3.4966 H   0  0  0  0  0  0  0  0  0  0  0  0
    4.4030   11.1586    6.8150 H   0  0  0  0  0  0  0  0  0  0  0  0
    5.7563   10.3502    7.6971 H   0  0  0  0  0  0  0  0  0  0  0  0
    5.7780   12.0929    7.4212 H   0  0  0  0  0  0  0  0  0  0  0  0
  1  3  2  0  0  0  0
  1  4  2  0  0  0  0
  1  7  1  0  0  0  0
  1 16  1  0  0  0  0
  2 19  1  0  0  0  0
  2 25  1  0  0  0  0
  5 15  2  0  0  0  0
  6 31  1  0  0  0  0
  6 32  1  0  0  0  0
  7 10  1  0  0  0  0
  7 13  1  0  0  0  0
  8 15  1  0  0  0  0
  8 19  1  0  0  0  0
  8 33  1  0  0  0  0
  9 19  2  0  0  0  0
  9 24  1  0  0  0  0
 10 11  1  0  0  0  0
 10 15  1  0  0  0  0
 10 34  1  1  0  0  0
 11 12  1  0  0  0  0
 11 35  1  0  0  0  0
 11 36  1  0  0  0  0
 12 14  1  0  0  0  0
 12 37  1  0  0  0  0
 12 38  1  0  0  0  0
 13 14  1  0  0  0  0
 13 39  1  0  0  0  0
 13 40  1  0  0  0  0
 14 41  1  0  0  0  0
 14 42  1  0  0  0  0
 16 17  2  0  0  0  0
 16 18  1  0  0  0  0
 17 20  1  0  0  0  0
 17 43  1  0  0  0  0
 18 21  2  0  0  0  0
 18 44  1  0  0  0  0
 20 22  2  0  0  0  0
 20 45  1  0  0  0  0
 21 22  1  0  0  0  0
 21 46  1  0  0  0  0
 22 23  1  0  0  0  0
 23 47  1  0  0  0  0
 23 48  1  0  0  0  0
 23 49  1  0  0  0  0
 24 25  2  0  0  0  0
 24 26  1  0  0  0  0
 25 50  1  0  0  0  0
 26 27  2  0  0  0  0
 26 28  1  0  0  0  0
 27 29  1  0  0  0  0
 27 51  1  0  0  0  0
 28 30  2  0  0  0  0
 28 52  1  0  0  0  0
 29 31  2  0  0  0  0
 29 53  1  0  0  0  0
 30 31  1  0  0  0  0
 30 54  1  0  0  0  0
 32 55  1  0  0  0  0
 32 56  1  0  0  0  0
 32 57  1  0  0  0  0
M  END
>  <Mol_ID>
5949

>  <Formula>
C23H25N3O4S2

>  <MolWeight>
471.5923

>  <Cat>
S0050

>  <Name>
ML277

>  <Synonyms>
CID-53347902

>  <Target>
Potassium Channel

>  <Form>
Free Base

>  <CAS>
1401242-74-7

>  <URL>
http://www.selleckchem.com/products/ml277.html

$$$$
