ML327
 OpenBabel08302521243D

 45 47  0  0  0  0  0  0  0  0999 V2000
    2.4019   -4.8495   -0.1229 O   0  0  0  0  0  0  0  0  0  0  0  0
   -0.4407   -1.3606   -0.6917 O   0  0  0  0  0  0  0  0  0  0  0  0
   -6.3948   -4.8321   -1.9279 O   0  0  0  0  0  0  0  0  0  0  0  0
   -4.1339   -4.3709   -5.4604 O   0  0  0  0  0  0  0  0  0  0  0  0
   -1.3798   -3.2892    0.1318 N   0  0  0  0  0  0  0  0  0  0  0  0
   -4.3118   -4.4888   -2.8007 N   0  0  0  0  0  0  0  0  0  0  0  0
    1.0513   -4.5487   -0.0506 N   0  0  0  0  0  0  0  0  0  0  0  0
   -6.0169   -4.4419   -6.7258 N   0  0  0  0  0  0  0  0  0  0  0  0
   -3.5189   -2.9325   -1.0667 C   0  0  0  0  0  0  0  0  0  0  0  0
   -2.7369   -2.7999    0.2384 C   0  0  0  0  0  0  0  0  0  0  0  0
   -3.6179   -4.3829   -1.5362 C   0  0  0  0  0  0  0  0  0  0  0  0
   -0.3305   -2.5329   -0.3451 C   0  0  0  0  0  0  0  0  0  0  0  0
   -5.6645   -4.6839   -2.9061 C   0  0  0  0  0  0  0  0  0  0  0  0
    0.9487   -3.2477   -0.3778 C   0  0  0  0  0  0  0  0  0  0  0  0
   -6.2030   -4.6844   -4.2990 C   0  0  0  0  0  0  0  0  0  0  0  0
    3.1083   -3.7402   -0.4875 C   0  0  0  0  0  0  0  0  0  0  0  0
    2.2189   -2.7144   -0.7077 C   0  0  0  0  0  0  0  0  0  0  0  0
    4.5640   -3.8542   -0.4960 C   0  0  0  0  0  0  0  0  0  0  0  0
   -5.3558   -4.4903   -5.5181 C   0  0  0  0  0  0  0  0  0  0  0  0
   -7.5302   -4.8429   -4.4728 C   0  0  0  0  0  0  0  0  0  0  0  0
    5.2125   -5.0698   -0.2288 C   0  0  0  0  0  0  0  0  0  0  0  0
    5.3563   -2.7158   -0.7144 C   0  0  0  0  0  0  0  0  0  0  0  0
   -8.1347   -4.7987   -5.7860 C   0  0  0  0  0  0  0  0  0  0  0  0
    6.6080   -5.1367   -0.1499 C   0  0  0  0  0  0  0  0  0  0  0  0
    6.7503   -2.7814   -0.6334 C   0  0  0  0  0  0  0  0  0  0  0  0
   -7.3715   -4.5900   -6.8638 C   0  0  0  0  0  0  0  0  0  0  0  0
    7.3749   -3.9904   -0.3420 C   0  0  0  0  0  0  0  0  0  0  0  0
   -1.1668   -4.2524    0.3769 H   0  0  0  0  0  0  0  0  0  0  0  0
   -3.7751   -4.3470   -3.6579 H   0  0  0  0  0  0  0  0  0  0  0  0
   -5.4358   -4.2939   -7.5419 H   0  0  0  0  0  0  0  0  0  0  0  0
   -4.5273   -2.5247   -0.9183 H   0  0  0  0  0  0  0  0  0  0  0  0
   -3.0484   -2.3226   -1.8477 H   0  0  0  0  0  0  0  0  0  0  0  0
   -3.2237   -3.3668    1.0386 H   0  0  0  0  0  0  0  0  0  0  0  0
   -2.7071   -1.7470    0.5417 H   0  0  0  0  0  0  0  0  0  0  0  0
   -2.6218   -4.8074   -1.6963 H   0  0  0  0  0  0  0  0  0  0  0  0
   -4.1322   -4.9919   -0.7838 H   0  0  0  0  0  0  0  0  0  0  0  0
    2.4407   -1.6984   -1.0000 H   0  0  0  0  0  0  0  0  0  0  0  0
   -8.1963   -4.9871   -3.6254 H   0  0  0  0  0  0  0  0  0  0  0  0
    4.6400   -5.9799   -0.0605 H   0  0  0  0  0  0  0  0  0  0  0  0
    4.8994   -1.7529   -0.9301 H   0  0  0  0  0  0  0  0  0  0  0  0
   -9.2092   -4.9201   -5.8677 H   0  0  0  0  0  0  0  0  0  0  0  0
    7.0936   -6.0826    0.0772 H   0  0  0  0  0  0  0  0  0  0  0  0
    7.3447   -1.8839   -0.7846 H   0  0  0  0  0  0  0  0  0  0  0  0
   -7.7762   -4.5294   -7.8693 H   0  0  0  0  0  0  0  0  0  0  0  0
    8.4579   -4.0380   -0.2607 H   0  0  0  0  0  0  0  0  0  0  0  0
  1  7  1  0  0  0  0
  1 16  1  0  0  0  0
  2 12  2  0  0  0  0
  3 13  2  0  0  0  0
  4 19  2  0  0  0  0
  5 10  1  0  0  0  0
  5 12  1  0  0  0  0
  5 28  1  0  0  0  0
  6 11  1  0  0  0  0
  6 13  1  0  0  0  0
  6 29  1  0  0  0  0
  7 14  2  0  0  0  0
  8 19  1  0  0  0  0
  8 26  1  0  0  0  0
  8 30  1  0  0  0  0
  9 10  1  0  0  0  0
  9 11  1  0  0  0  0
  9 31  1  0  0  0  0
  9 32  1  0  0  0  0
 10 33  1  0  0  0  0
 10 34  1  0  0  0  0
 11 35  1  0  0  0  0
 11 36  1  0  0  0  0
 12 14  1  0  0  0  0
 13 15  1  0  0  0  0
 14 17  1  0  0  0  0
 15 19  1  0  0  0  0
 15 20  2  0  0  0  0
 16 17  2  0  0  0  0
 16 18  1  0  0  0  0
 17 37  1  0  0  0  0
 18 21  2  0  0  0  0
 18 22  1  0  0  0  0
 20 23  1  0  0  0  0
 20 38  1  0  0  0  0
 21 24  1  0  0  0  0
 21 39  1  0  0  0  0
 22 25  2  0  0  0  0
 22 40  1  0  0  0  0
 23 26  2  0  0  0  0
 23 41  1  0  0  0  0
 24 27  2  0  0  0  0
 24 42  1  0  0  0  0
 25 27  1  0  0  0  0
 25 43  1  0  0  0  0
 26 44  1  0  0  0  0
 27 45  1  0  0  0  0
M  END
>  <Mol_ID>
4963

>  <Formula>
C19H18N4O4

>  <MolWeight>
366.37062

>  <Cat>
S0103

>  <Name>
ML327

>  <Synonyms>
N/A

>  <Target>
Apoptosis related,Myc

>  <Form>
Free Base

>  <CAS>
1883510-31-3

>  <URL>
http://www.selleckchem.com/products/ml327.html

$$$$
