ML335
 OpenBabel08302521223D

 37 38  0  0  0  0  0  0  0  0999 V2000
    1.0453   -0.8316   -0.8607 S   0  0  0  0  0  0  0  0  0  0  0  0
    3.7045   -6.4569    3.1572 O   0  0  0  0  0  0  0  0  0  0  0  0
    2.4544   -0.5999   -0.6516 O   0  0  0  0  0  0  0  0  0  0  0  0
    0.1310    0.2732   -1.0698 O   0  0  0  0  0  0  0  0  0  0  0  0
    5.2535   -4.7745    3.3759 N   0  0  0  0  0  0  0  0  0  0  0  0
    0.4006   -1.6840    0.4555 N   0  0  0  0  0  0  0  0  0  0  0  0
    6.3439   -5.6319    3.8023 C   0  0  0  0  0  0  0  0  0  0  0  0
    3.0365   -4.3090    2.4644 C   0  0  0  0  0  0  0  0  0  0  0  0
    1.2634   -2.5609    1.1739 C   0  0  0  0  0  0  0  0  0  0  0  0
    6.8684   -5.2139    5.1514 C   0  0  0  0  0  0  0  0  0  0  0  0
    4.0104   -5.2757    3.0493 C   0  0  0  0  0  0  0  0  0  0  0  0
    2.9981   -2.9563    2.8223 C   0  0  0  0  0  0  0  0  0  0  0  0
    2.1383   -4.7889    1.4981 C   0  0  0  0  0  0  0  0  0  0  0  0
    2.1124   -2.0814    2.1739 C   0  0  0  0  0  0  0  0  0  0  0  0
    1.2644   -3.9137    0.8461 C   0  0  0  0  0  0  0  0  0  0  0  0
    6.0469   -5.3341    6.2834 C   0  0  0  0  0  0  0  0  0  0  0  0
    8.1712   -4.7194    5.3114 C   0  0  0  0  0  0  0  0  0  0  0  0
    0.8261   -1.9688   -2.2150 C   0  0  0  0  0  0  0  0  0  0  0  0
    6.5075   -4.9482    7.5404 C   0  0  0  0  0  0  0  0  0  0  0  0
    8.6325   -4.3349    6.5734 C   0  0  0  0  0  0  0  0  0  0  0  0
    7.7985   -4.4438    7.6868 C   0  0  0  0  0  0  0  0  0  0  0  0
    5.4788   -3.8098    3.1825 H   0  0  0  0  0  0  0  0  0  0  0  0
   -0.1288   -1.0272    1.0314 H   0  0  0  0  0  0  0  0  0  0  0  0
    6.0386   -6.6838    3.8336 H   0  0  0  0  0  0  0  0  0  0  0  0
    7.1271   -5.5455    3.0404 H   0  0  0  0  0  0  0  0  0  0  0  0
    3.6387   -2.5698    3.6115 H   0  0  0  0  0  0  0  0  0  0  0  0
    2.1296   -5.8466    1.2422 H   0  0  0  0  0  0  0  0  0  0  0  0
    2.1055   -1.0293    2.4466 H   0  0  0  0  0  0  0  0  0  0  0  0
    0.5811   -4.3007    0.0958 H   0  0  0  0  0  0  0  0  0  0  0  0
    5.0402   -5.7356    6.1801 H   0  0  0  0  0  0  0  0  0  0  0  0
    8.8403   -4.6346    4.4581 H   0  0  0  0  0  0  0  0  0  0  0  0
    0.9520   -1.4084   -3.1454 H   0  0  0  0  0  0  0  0  0  0  0  0
    1.5853   -2.7519   -2.1542 H   0  0  0  0  0  0  0  0  0  0  0  0
   -0.1807   -2.3898   -2.1804 H   0  0  0  0  0  0  0  0  0  0  0  0
    5.8599   -5.0442    8.4081 H   0  0  0  0  0  0  0  0  0  0  0  0
    9.6430   -3.9528    6.6915 H   0  0  0  0  0  0  0  0  0  0  0  0
    8.1561   -4.1420    8.6663 H   0  0  0  0  0  0  0  0  0  0  0  0
  1  3  2  0  0  0  0
  1  4  2  0  0  0  0
  1  6  1  0  0  0  0
  1 18  1  0  0  0  0
  2 11  2  0  0  0  0
  5  7  1  0  0  0  0
  5 11  1  0  0  0  0
  5 22  1  0  0  0  0
  6  9  1  0  0  0  0
  6 23  1  0  0  0  0
  7 10  1  0  0  0  0
  7 24  1  0  0  0  0
  7 25  1  0  0  0  0
  8 11  1  0  0  0  0
  8 12  2  0  0  0  0
  8 13  1  0  0  0  0
  9 14  2  0  0  0  0
  9 15  1  0  0  0  0
 10 16  2  0  0  0  0
 10 17  1  0  0  0  0
 12 14  1  0  0  0  0
 12 26  1  0  0  0  0
 13 15  2  0  0  0  0
 13 27  1  0  0  0  0
 14 28  1  0  0  0  0
 15 29  1  0  0  0  0
 16 19  1  0  0  0  0
 16 30  1  0  0  0  0
 17 20  2  0  0  0  0
 17 31  1  0  0  0  0
 18 32  1  0  0  0  0
 18 33  1  0  0  0  0
 18 34  1  0  0  0  0
 19 21  2  0  0  0  0
 19 35  1  0  0  0  0
 20 21  1  0  0  0  0
 20 36  1  0  0  0  0
 21 37  1  0  0  0  0
M  END
>  <Mol_ID>
4728

>  <Formula>
C15H14Cl2N2O3S

>  <MolWeight>
373.25426

>  <Cat>
S6572

>  <Name>
ML335

>  <Synonyms>
N/A

>  <Target>
Potassium Channel

>  <Form>
Free Base

>  <CAS>
825658-06-8

>  <URL>
http://www.selleck.cn/products/ml335.html

$$$$
