ML348
 OpenBabel08302521223D

 45 47  0  0  0  0  0  0  0  0999 V2000
   -0.7322   -0.5043    7.0970 F   0  0  0  0  0  0  0  0  0  0  0  0
   -2.1601    0.5654    5.8554 F   0  0  0  0  0  0  0  0  0  0  0  0
   -0.3890    1.5820    6.6053 F   0  0  0  0  0  0  0  0  0  0  0  0
    6.9268   -6.0796    8.1452 O   0  0  0  0  0  0  0  0  0  0  0  0
    6.3275   -9.0292    6.3314 O   0  0  0  0  0  0  0  0  0  0  0  0
    1.3857   -3.8500    5.5873 O   0  0  0  0  0  0  0  0  0  0  0  0
    4.3587   -4.6479    4.0796 N   0  0  0  0  0  0  0  0  0  0  0  0
    5.6448   -6.2071    6.2484 N   0  0  0  0  0  0  0  0  0  0  0  0
    2.1084   -2.7895    3.6293 N   0  0  0  0  0  0  0  0  0  0  0  0
    5.1447   -5.8749    3.8193 C   0  0  0  0  0  0  0  0  0  0  0  0
    4.9012   -4.0242    5.3186 C   0  0  0  0  0  0  0  0  0  0  0  0
    5.2247   -6.8601    5.0022 C   0  0  0  0  0  0  0  0  0  0  0  0
    4.9624   -4.9461    6.5534 C   0  0  0  0  0  0  0  0  0  0  0  0
    2.9293   -5.0132    4.1994 C   0  0  0  0  0  0  0  0  0  0  0  0
    6.5596   -6.7392    7.1696 C   0  0  0  0  0  0  0  0  0  0  0  0
    2.0593   -3.8156    4.5539 C   0  0  0  0  0  0  0  0  0  0  0  0
    7.1057   -8.0554    6.9044 C   0  0  0  0  0  0  0  0  0  0  0  0
    1.4023   -1.5708    3.6977 C   0  0  0  0  0  0  0  0  0  0  0  0
    8.3678   -8.5734    7.1346 C   0  0  0  0  0  0  0  0  0  0  0  0
    0.6124   -1.2151    4.7921 C   0  0  0  0  0  0  0  0  0  0  0  0
    1.5076   -0.6764    2.6277 C   0  0  0  0  0  0  0  0  0  0  0  0
    8.3926   -9.8637    6.5545 C   0  0  0  0  0  0  0  0  0  0  0  0
   -0.0662    0.0106    4.8412 C   0  0  0  0  0  0  0  0  0  0  0  0
    7.1266  -10.0934    6.0754 C   0  0  0  0  0  0  0  0  0  0  0  0
    0.7987    0.5311    2.6407 C   0  0  0  0  0  0  0  0  0  0  0  0
    0.0100    0.8716    3.7410 C   0  0  0  0  0  0  0  0  0  0  0  0
   -0.8278    0.4014    6.0843 C   0  0  0  0  0  0  0  0  0  0  0  0
    2.7451   -2.9254    2.8527 H   0  0  0  0  0  0  0  0  0  0  0  0
    4.7548   -6.3968    2.9367 H   0  0  0  0  0  0  0  0  0  0  0  0
    6.1679   -5.5736    3.5577 H   0  0  0  0  0  0  0  0  0  0  0  0
    5.9245   -3.6930    5.0920 H   0  0  0  0  0  0  0  0  0  0  0  0
    4.3541   -3.1074    5.5630 H   0  0  0  0  0  0  0  0  0  0  0  0
    4.2577   -7.3369    5.1992 H   0  0  0  0  0  0  0  0  0  0  0  0
    5.9227   -7.6365    4.6934 H   0  0  0  0  0  0  0  0  0  0  0  0
    3.9527   -5.1970    6.8985 H   0  0  0  0  0  0  0  0  0  0  0  0
    5.4585   -4.4182    7.3743 H   0  0  0  0  0  0  0  0  0  0  0  0
    2.7507   -5.7773    4.9620 H   0  0  0  0  0  0  0  0  0  0  0  0
    2.5635   -5.4137    3.2471 H   0  0  0  0  0  0  0  0  0  0  0  0
    9.1843   -8.0431    7.6096 H   0  0  0  0  0  0  0  0  0  0  0  0
    0.5189   -1.8678    5.6528 H   0  0  0  0  0  0  0  0  0  0  0  0
    2.1310   -0.9044    1.7659 H   0  0  0  0  0  0  0  0  0  0  0  0
    9.2308  -10.5431    6.4841 H   0  0  0  0  0  0  0  0  0  0  0  0
    6.6556  -10.9108    5.5468 H   0  0  0  0  0  0  0  0  0  0  0  0
    0.8687    1.2126    1.7954 H   0  0  0  0  0  0  0  0  0  0  0  0
   -0.5318    1.8161    3.7459 H   0  0  0  0  0  0  0  0  0  0  0  0
  1 27  1  0  0  0  0
  2 27  1  0  0  0  0
  3 27  1  0  0  0  0
  4 15  2  0  0  0  0
  5 17  1  0  0  0  0
  5 24  1  0  0  0  0
  6 16  2  0  0  0  0
  7 10  1  0  0  0  0
  7 11  1  0  0  0  0
  7 14  1  0  0  0  0
  8 12  1  0  0  0  0
  8 13  1  0  0  0  0
  8 15  1  0  0  0  0
  9 16  1  0  0  0  0
  9 18  1  0  0  0  0
  9 28  1  0  0  0  0
 10 12  1  0  0  0  0
 10 29  1  0  0  0  0
 10 30  1  0  0  0  0
 11 13  1  0  0  0  0
 11 31  1  0  0  0  0
 11 32  1  0  0  0  0
 12 33  1  0  0  0  0
 12 34  1  0  0  0  0
 13 35  1  0  0  0  0
 13 36  1  0  0  0  0
 14 16  1  0  0  0  0
 14 37  1  0  0  0  0
 14 38  1  0  0  0  0
 15 17  1  0  0  0  0
 17 19  2  0  0  0  0
 18 20  2  0  0  0  0
 18 21  1  0  0  0  0
 19 22  1  0  0  0  0
 19 39  1  0  0  0  0
 20 23  1  0  0  0  0
 20 40  1  0  0  0  0
 21 25  2  0  0  0  0
 21 41  1  0  0  0  0
 22 24  2  0  0  0  0
 22 42  1  0  0  0  0
 23 26  2  0  0  0  0
 23 27  1  0  0  0  0
 24 43  1  0  0  0  0
 25 26  1  0  0  0  0
 25 44  1  0  0  0  0
 26 45  1  0  0  0  0
M  END
>  <Mol_ID>
4726

>  <Formula>
C18H17ClF3N3O3

>  <MolWeight>
415.7940896

>  <Cat>
S6564

>  <Name>
ML348

>  <Synonyms>
GNF-Pf-1127

>  <Target>
Phospholipase (e.g. PLA)

>  <Form>
Free Base

>  <CAS>
899713-86-1

>  <URL>
http://www.selleck.cn/products/ml348.html

$$$$
