ML359
 OpenBabel08302521353D

 57 59  0  0  0  0  0  0  0  0999 V2000
    1.4054    0.9632    0.3110 N   0  0  0  0  0  0  0  0  0  0  0  0
    0.6320    1.9754   -0.4143 C   0  0  0  0  0  0  0  0  0  0  0  0
   -0.8771    1.9102   -0.1959 C   0  0  0  0  0  0  0  0  0  0  0  0
   -1.4947    0.5169   -0.4266 C   0  0  0  0  0  0  0  0  0  0  0  0
   -0.7264   -0.4397    0.5083 C   0  0  0  0  0  0  0  0  0  0  0  0
    0.7950   -0.3681    0.4083 C   0  0  0  0  0  0  0  0  0  0  0  0
   -2.9585    0.5636    0.0772 C   0  0  0  0  0  0  0  0  0  0  0  0
   -3.4604   -0.2733    0.8173 O   0  0  0  0  0  0  0  0  0  0  0  0
   -3.6342    1.6336   -0.4351 O   0  0  0  0  0  0  0  0  0  0  0  0
   -1.5858    0.0136   -1.9059 C   0  0  0  0  0  0  0  0  0  0  0  0
   -0.3239   -0.3152   -2.7144 C   0  0  0  0  0  0  0  0  0  0  0  0
   -0.6783   -0.9216   -3.9718 O   0  0  0  0  0  0  0  0  0  0  0  0
   -0.3500   -2.2387   -4.1653 C   0  0  0  0  0  0  0  0  0  0  0  0
   -0.2311   -3.1983   -3.1605 C   0  0  0  0  0  0  0  0  0  0  0  0
    0.0738   -4.5322   -3.4809 C   0  0  0  0  0  0  0  0  0  0  0  0
    0.2435   -4.9134   -4.8117 C   0  0  0  0  0  0  0  0  0  0  0  0
    0.1088   -3.9644   -5.8242 C   0  0  0  0  0  0  0  0  0  0  0  0
   -0.1879   -2.6360   -5.4994 C   0  0  0  0  0  0  0  0  0  0  0  0
    2.7611    0.8122   -0.2764 C   0  0  0  0  0  0  0  0  0  0  0  0
    3.6918    1.9914   -0.1022 C   0  0  0  0  0  0  0  0  0  0  0  0
    3.9679    2.5025    1.1739 C   0  0  0  0  0  0  0  0  0  0  0  0
    4.8910    3.5378    1.3427 C   0  0  0  0  0  0  0  0  0  0  0  0
    5.5460    4.0597    0.2318 C   0  0  0  0  0  0  0  0  0  0  0  0
    5.3017    3.5567   -1.0394 C   0  0  0  0  0  0  0  0  0  0  0  0
    4.3783    2.5228   -1.2072 C   0  0  0  0  0  0  0  0  0  0  0  0
    6.4519    5.0719    0.3524 O   0  0  0  0  0  0  0  0  0  0  0  0
   -4.9840    1.8212    0.0291 C   0  0  0  0  0  0  0  0  0  0  0  0
   -5.9582    0.9389   -0.7300 C   0  0  0  0  0  0  0  0  0  0  0  0
    0.8291    1.9463   -1.4887 H   0  0  0  0  0  0  0  0  0  0  0  0
    0.9663    2.9660   -0.0774 H   0  0  0  0  0  0  0  0  0  0  0  0
   -1.3647    2.6709   -0.8174 H   0  0  0  0  0  0  0  0  0  0  0  0
   -1.0791    2.2154    0.8447 H   0  0  0  0  0  0  0  0  0  0  0  0
   -0.9954   -0.2168    1.5516 H   0  0  0  0  0  0  0  0  0  0  0  0
   -1.0505   -1.4746    0.3357 H   0  0  0  0  0  0  0  0  0  0  0  0
    1.2037   -0.8504    1.3065 H   0  0  0  0  0  0  0  0  0  0  0  0
    1.1231   -1.0109   -0.4103 H   0  0  0  0  0  0  0  0  0  0  0  0
   -2.2185   -0.8854   -1.9167 H   0  0  0  0  0  0  0  0  0  0  0  0
   -2.1599    0.7461   -2.4910 H   0  0  0  0  0  0  0  0  0  0  0  0
    0.1993    0.6083   -2.9736 H   0  0  0  0  0  0  0  0  0  0  0  0
    0.3887   -0.9343   -2.1805 H   0  0  0  0  0  0  0  0  0  0  0  0
   -0.3901   -2.9521   -2.1149 H   0  0  0  0  0  0  0  0  0  0  0  0
    0.1662   -5.2706   -2.6912 H   0  0  0  0  0  0  0  0  0  0  0  0
    0.4717   -5.9458   -5.0546 H   0  0  0  0  0  0  0  0  0  0  0  0
    0.2276   -4.2607   -6.8616 H   0  0  0  0  0  0  0  0  0  0  0  0
   -0.2918   -1.9057   -6.2982 H   0  0  0  0  0  0  0  0  0  0  0  0
    3.2715   -0.0431    0.1873 H   0  0  0  0  0  0  0  0  0  0  0  0
    2.6693    0.5656   -1.3439 H   0  0  0  0  0  0  0  0  0  0  0  0
    3.4700    2.0790    2.0438 H   0  0  0  0  0  0  0  0  0  0  0  0
    5.0917    3.9100    2.3416 H   0  0  0  0  0  0  0  0  0  0  0  0
    5.8342    3.9615   -1.8959 H   0  0  0  0  0  0  0  0  0  0  0  0
    4.2126    2.1256   -2.2062 H   0  0  0  0  0  0  0  0  0  0  0  0
    6.4855    5.3435    1.2842 H   0  0  0  0  0  0  0  0  0  0  0  0
   -5.0529    1.6572    1.1113 H   0  0  0  0  0  0  0  0  0  0  0  0
   -5.2368    2.8727   -0.1496 H   0  0  0  0  0  0  0  0  0  0  0  0
   -5.7934   -0.1179   -0.4998 H   0  0  0  0  0  0  0  0  0  0  0  0
   -6.9913    1.1880   -0.4677 H   0  0  0  0  0  0  0  0  0  0  0  0
   -5.8294    1.0571   -1.8103 H   0  0  0  0  0  0  0  0  0  0  0  0
  1  2  1  0  0  0  0
  1  6  1  0  0  0  0
  1 19  1  0  0  0  0
  2  3  1  0  0  0  0
  2 29  1  0  0  0  0
  2 30  1  0  0  0  0
  3  4  1  0  0  0  0
  3 31  1  0  0  0  0
  3 32  1  0  0  0  0
  4  5  1  0  0  0  0
  4  7  1  0  0  0  0
  4 10  1  0  0  0  0
  5  6  1  0  0  0  0
  5 33  1  0  0  0  0
  5 34  1  0  0  0  0
  6 35  1  0  0  0  0
  6 36  1  0  0  0  0
  7  8  2  0  0  0  0
  7  9  1  0  0  0  0
  9 27  1  0  0  0  0
 10 11  1  0  0  0  0
 10 37  1  0  0  0  0
 10 38  1  0  0  0  0
 11 12  1  0  0  0  0
 11 39  1  0  0  0  0
 11 40  1  0  0  0  0
 12 13  1  0  0  0  0
 13 14  2  0  0  0  0
 13 18  1  0  0  0  0
 14 15  1  0  0  0  0
 14 41  1  0  0  0  0
 15 16  2  0  0  0  0
 15 42  1  0  0  0  0
 16 17  1  0  0  0  0
 16 43  1  0  0  0  0
 17 18  2  0  0  0  0
 17 44  1  0  0  0  0
 18 45  1  0  0  0  0
 19 20  1  0  0  0  0
 19 46  1  0  0  0  0
 19 47  1  0  0  0  0
 20 21  2  0  0  0  0
 20 25  1  0  0  0  0
 21 22  1  0  0  0  0
 21 48  1  0  0  0  0
 22 23  2  0  0  0  0
 22 49  1  0  0  0  0
 23 24  1  0  0  0  0
 23 26  1  0  0  0  0
 24 25  2  0  0  0  0
 24 50  1  0  0  0  0
 25 51  1  0  0  0  0
 26 52  1  0  0  0  0
 27 28  1  0  0  0  0
 27 53  1  0  0  0  0
 27 54  1  0  0  0  0
 28 55  1  0  0  0  0
 28 56  1  0  0  0  0
 28 57  1  0  0  0  0
M  END
>  <Mol_ID>
6663

>  <Formula>
C23H28ClNO4

>  <MolWeight>
417.92572

>  <Cat>
S2846

>  <Name>
ML359

>  <Synonyms>
N/A

>  <Target>
PDI

>  <Form>
Free base

>  <CAS>
1069858-99-6

>  <URL>
http://www.selleckchem.com/products/ml359.html

$$$$
