ML365
 OpenBabel08302520403D

 47 49  0  0  0  0  0  0  0  0999 V2000
   -0.0062   -2.8118    4.3921 O   0  0  0  0  0  0  0  0  0  0  0  0
   -1.9151    1.5843    1.1663 O   0  0  0  0  0  0  0  0  0  0  0  0
    0.4929   -1.5468    2.0103 O   0  0  0  0  0  0  0  0  0  0  0  0
   -0.6213    2.2996   -0.6506 N   0  0  0  0  0  0  0  0  0  0  0  0
    2.5068   -0.3687    2.0607 N   0  0  0  0  0  0  0  0  0  0  0  0
    0.6799    1.9610   -0.2272 C   0  0  0  0  0  0  0  0  0  0  0  0
    2.2310    0.6511    1.1172 C   0  0  0  0  0  0  0  0  0  0  0  0
    0.9305    1.0325    0.7850 C   0  0  0  0  0  0  0  0  0  0  0  0
   -3.0414    2.3157   -0.7368 C   0  0  0  0  0  0  0  0  0  0  0  0
    2.1683   -2.3749    3.4406 C   0  0  0  0  0  0  0  0  0  0  0  0
    1.7622    2.5429   -0.9004 C   0  0  0  0  0  0  0  0  0  0  0  0
    3.3037    1.2893    0.4837 C   0  0  0  0  0  0  0  0  0  0  0  0
   -1.7997    2.0009    0.0217 C   0  0  0  0  0  0  0  0  0  0  0  0
   -4.2712    2.5794   -2.8145 C   0  0  0  0  0  0  0  0  0  0  0  0
   -3.1139    2.1854   -2.1315 C   0  0  0  0  0  0  0  0  0  0  0  0
    1.6245   -1.3822    2.4540 C   0  0  0  0  0  0  0  0  0  0  0  0
    3.0716    2.2263   -0.5284 C   0  0  0  0  0  0  0  0  0  0  0  0
   -4.1563    2.7596   -0.0179 C   0  0  0  0  0  0  0  0  0  0  0  0
    1.3491   -3.0289    4.3864 C   0  0  0  0  0  0  0  0  0  0  0  0
   -5.3702    3.0507   -2.0830 C   0  0  0  0  0  0  0  0  0  0  0  0
    3.5279   -2.7241    3.3716 C   0  0  0  0  0  0  0  0  0  0  0  0
   -5.3184    3.1269   -0.6909 C   0  0  0  0  0  0  0  0  0  0  0  0
   -4.3379    2.5286   -4.3118 C   0  0  0  0  0  0  0  0  0  0  0  0
    1.9414   -3.8732    5.3398 C   0  0  0  0  0  0  0  0  0  0  0  0
    4.0881   -3.6197    4.2855 C   0  0  0  0  0  0  0  0  0  0  0  0
    3.3008   -4.1674    5.2899 C   0  0  0  0  0  0  0  0  0  0  0  0
   -0.7903   -3.9508    4.7638 C   0  0  0  0  0  0  0  0  0  0  0  0
   -0.6926    2.8671   -1.4827 H   0  0  0  0  0  0  0  0  0  0  0  0
    3.4589   -0.4069    2.3925 H   0  0  0  0  0  0  0  0  0  0  0  0
    0.1014    0.5886    1.3220 H   0  0  0  0  0  0  0  0  0  0  0  0
    1.6009    3.2585   -1.7033 H   0  0  0  0  0  0  0  0  0  0  0  0
    4.3307    1.0364    0.7314 H   0  0  0  0  0  0  0  0  0  0  0  0
   -2.2770    1.7681   -2.6865 H   0  0  0  0  0  0  0  0  0  0  0  0
    3.9124    2.6894   -1.0407 H   0  0  0  0  0  0  0  0  0  0  0  0
   -4.1115    2.8302    1.0674 H   0  0  0  0  0  0  0  0  0  0  0  0
   -6.2768    3.3622   -2.5971 H   0  0  0  0  0  0  0  0  0  0  0  0
    4.1677   -2.3379    2.5842 H   0  0  0  0  0  0  0  0  0  0  0  0
   -6.1779    3.4840   -0.1291 H   0  0  0  0  0  0  0  0  0  0  0  0
   -5.1435    1.8640   -4.6386 H   0  0  0  0  0  0  0  0  0  0  0  0
   -4.5166    3.5350   -4.7060 H   0  0  0  0  0  0  0  0  0  0  0  0
   -3.3999    2.1655   -4.7438 H   0  0  0  0  0  0  0  0  0  0  0  0
    1.3494   -4.3166    6.1356 H   0  0  0  0  0  0  0  0  0  0  0  0
    5.1399   -3.8837    4.2162 H   0  0  0  0  0  0  0  0  0  0  0  0
    3.7351   -4.8394    6.0253 H   0  0  0  0  0  0  0  0  0  0  0  0
   -1.7948   -3.8380    4.3451 H   0  0  0  0  0  0  0  0  0  0  0  0
   -0.3769   -4.8906    4.3752 H   0  0  0  0  0  0  0  0  0  0  0  0
   -0.8863   -4.0003    5.8538 H   0  0  0  0  0  0  0  0  0  0  0  0
  1 19  1  0  0  0  0
  1 27  1  0  0  0  0
  2 13  2  0  0  0  0
  3 16  2  0  0  0  0
  4  6  1  0  0  0  0
  4 13  1  0  0  0  0
  4 28  1  0  0  0  0
  5  7  1  0  0  0  0
  5 16  1  0  0  0  0
  5 29  1  0  0  0  0
  6  8  2  0  0  0  0
  6 11  1  0  0  0  0
  7  8  1  0  0  0  0
  7 12  2  0  0  0  0
  8 30  1  0  0  0  0
  9 13  1  0  0  0  0
  9 15  1  0  0  0  0
  9 18  2  0  0  0  0
 10 16  1  0  0  0  0
 10 19  2  0  0  0  0
 10 21  1  0  0  0  0
 11 17  2  0  0  0  0
 11 31  1  0  0  0  0
 12 17  1  0  0  0  0
 12 32  1  0  0  0  0
 14 15  2  0  0  0  0
 14 20  1  0  0  0  0
 14 23  1  0  0  0  0
 15 33  1  0  0  0  0
 17 34  1  0  0  0  0
 18 22  1  0  0  0  0
 18 35  1  0  0  0  0
 19 24  1  0  0  0  0
 20 22  2  0  0  0  0
 20 36  1  0  0  0  0
 21 25  2  0  0  0  0
 21 37  1  0  0  0  0
 22 38  1  0  0  0  0
 23 39  1  0  0  0  0
 23 40  1  0  0  0  0
 23 41  1  0  0  0  0
 24 26  2  0  0  0  0
 24 42  1  0  0  0  0
 25 26  1  0  0  0  0
 25 43  1  0  0  0  0
 26 44  1  0  0  0  0
 27 45  1  0  0  0  0
 27 46  1  0  0  0  0
 27 47  1  0  0  0  0
M  END
>  <Mol_ID>
3832

>  <Formula>
C22H20N2O3

>  <MolWeight>
360.4058

>  <Cat>
S6554

>  <Name>
ML365

>  <Synonyms>
N/A

>  <Target>
Potassium Channel

>  <Form>
free base

>  <CAS>
947914-18-3

>  <URL>
http://www.selleck.cn/products/ml365.html

$$$$
