ML367
 OpenBabel08302521303D

 37 40  0  0  0  0  0  0  0  0999 V2000
    2.5148    0.7014    0.0454 C   0  0  0  0  0  0  0  0  0  0  0  0
    2.4701   -0.6835    0.0379 C   0  0  0  0  0  0  0  0  0  0  0  0
    1.2350   -1.3357    0.0404 C   0  0  0  0  0  0  0  0  0  0  0  0
    0.0334   -0.6356    0.0394 C   0  0  0  0  0  0  0  0  0  0  0  0
    0.0635    0.7668    0.0403 C   0  0  0  0  0  0  0  0  0  0  0  0
    1.3225    1.4262    0.0537 C   0  0  0  0  0  0  0  0  0  0  0  0
   -1.2018    1.3832   -0.0094 C   0  0  0  0  0  0  0  0  0  0  0  0
   -2.3433    0.6649   -0.0083 N   0  0  0  0  0  0  0  0  0  0  0  0
   -2.2532   -0.6677    0.0181 C   0  0  0  0  0  0  0  0  0  0  0  0
   -1.0961   -1.3466    0.0302 N   0  0  0  0  0  0  0  0  0  0  0  0
   -3.5095   -1.4398    0.0256 C   0  0  0  0  0  0  0  0  0  0  0  0
   -4.7606   -0.8027   -0.0050 C   0  0  0  0  0  0  0  0  0  0  0  0
   -5.9164   -1.5672    0.0043 C   0  0  0  0  0  0  0  0  0  0  0  0
   -5.9232   -2.9147    0.0417 N   0  0  0  0  0  0  0  0  0  0  0  0
   -4.7206   -3.5220    0.0739 C   0  0  0  0  0  0  0  0  0  0  0  0
   -3.5129   -2.8423    0.0667 C   0  0  0  0  0  0  0  0  0  0  0  0
   -1.3251    2.7994    0.0147 N   0  0  0  0  0  0  0  0  0  0  0  0
   -2.3981    3.5104   -0.5876 C   0  0  0  0  0  0  0  0  0  0  0  0
   -2.7658    4.7549   -0.0629 C   0  0  0  0  0  0  0  0  0  0  0  0
   -3.7577    5.5076   -0.6875 C   0  0  0  0  0  0  0  0  0  0  0  0
   -4.3646    5.0511   -1.8507 C   0  0  0  0  0  0  0  0  0  0  0  0
   -3.9830    3.8412   -2.4111 C   0  0  0  0  0  0  0  0  0  0  0  0
   -2.9925    3.0792   -1.7864 C   0  0  0  0  0  0  0  0  0  0  0  0
   -5.3149    5.7820   -2.4500 F   0  0  0  0  0  0  0  0  0  0  0  0
   -4.1155    6.6862   -0.1603 F   0  0  0  0  0  0  0  0  0  0  0  0
    3.4722    1.2187    0.0435 H   0  0  0  0  0  0  0  0  0  0  0  0
    3.3906   -1.2645    0.0310 H   0  0  0  0  0  0  0  0  0  0  0  0
    1.2110   -2.4239    0.0375 H   0  0  0  0  0  0  0  0  0  0  0  0
    1.3949    2.5078    0.0648 H   0  0  0  0  0  0  0  0  0  0  0  0
   -4.8376    0.2811   -0.0323 H   0  0  0  0  0  0  0  0  0  0  0  0
   -6.8958   -1.0979   -0.0178 H   0  0  0  0  0  0  0  0  0  0  0  0
   -4.7501   -4.6070    0.1081 H   0  0  0  0  0  0  0  0  0  0  0  0
   -2.5842   -3.4043    0.0953 H   0  0  0  0  0  0  0  0  0  0  0  0
   -0.4653    3.2382   -0.2937 H   0  0  0  0  0  0  0  0  0  0  0  0
   -2.3042    5.1352    0.8432 H   0  0  0  0  0  0  0  0  0  0  0  0
   -4.4477    3.4966   -3.3297 H   0  0  0  0  0  0  0  0  0  0  0  0
   -2.6900    2.1402   -2.2448 H   0  0  0  0  0  0  0  0  0  0  0  0
  1  2  2  0  0  0  0
  1  6  1  0  0  0  0
  1 26  1  0  0  0  0
  2  3  1  0  0  0  0
  2 27  1  0  0  0  0
  3  4  2  0  0  0  0
  3 28  1  0  0  0  0
  4  5  1  0  0  0  0
  4 10  1  0  0  0  0
  5  6  2  0  0  0  0
  5  7  1  0  0  0  0
  6 29  1  0  0  0  0
  7  8  2  0  0  0  0
  7 17  1  0  0  0  0
  8  9  1  0  0  0  0
  9 10  2  0  0  0  0
  9 11  1  0  0  0  0
 11 12  2  0  0  0  0
 11 16  1  0  0  0  0
 12 13  1  0  0  0  0
 12 30  1  0  0  0  0
 13 14  2  0  0  0  0
 13 31  1  0  0  0  0
 14 15  1  0  0  0  0
 15 16  2  0  0  0  0
 15 32  1  0  0  0  0
 16 33  1  0  0  0  0
 17 18  1  0  0  0  0
 17 34  1  0  0  0  0
 18 19  2  0  0  0  0
 18 23  1  0  0  0  0
 19 20  1  0  0  0  0
 19 35  1  0  0  0  0
 20 21  2  0  0  0  0
 20 25  1  0  0  0  0
 21 22  1  0  0  0  0
 21 24  1  0  0  0  0
 22 23  2  0  0  0  0
 22 36  1  0  0  0  0
 23 37  1  0  0  0  0
M  END
>  <Mol_ID>
5614

>  <Formula>
C19H12F2N4

>  <MolWeight>
334.3221864

>  <Cat>
S0161

>  <Name>
ML367

>  <Synonyms>
N/A

>  <Target>
ATPase,DNA/RNA Synthesis

>  <Form>
Free Base

>  <CAS>
381168-77-0

>  <URL>
http://www.selleckchem.com/products/ml367.html

$$$$
