ML390.cdx
 OpenBabel08302520433D

 50 52  0  0  0  0  0  0  0  0999 V2000
   -6.4872    5.4342    0.3517 C   0  0  0  0  0  0  0  0  0  0  0  0
   -7.0679    6.5926   -0.1674 C   0  0  0  0  0  0  0  0  0  0  0  0
   -6.2489    7.5117   -0.8326 C   0  0  0  0  0  0  0  0  0  0  0  0
   -4.8914    7.3210   -0.8906 C   0  0  0  0  0  0  0  0  0  0  0  0
   -4.2973    6.1999   -0.3109 C   0  0  0  0  0  0  0  0  0  0  0  0
   -5.1062    5.2387    0.3015 C   0  0  0  0  0  0  0  0  0  0  0  0
   -8.3917    6.9058   -0.1393 O   0  0  0  0  0  0  0  0  0  0  0  0
   -2.8018    6.0501   -0.3798 C   0  0  0  0  0  0  0  0  0  0  0  0
   -2.2003    5.3834    0.6500 N   0  0  0  0  0  0  0  0  0  0  0  0
   -2.2033    6.5611   -1.3093 O   0  0  0  0  0  0  0  0  0  0  0  0
   -0.7513    5.1749    0.7135 C   0  0  0  0  0  0  0  0  0  0  0  0
   -0.1464    5.7574    1.9654 C   0  0  0  0  0  0  0  0  0  0  0  0
    1.3190    5.4531    1.9906 C   0  0  0  0  0  0  0  0  0  0  0  0
    2.0719    5.8950    0.9253 N   0  0  0  0  0  0  0  0  0  0  0  0
    1.8132    4.7361    2.8601 O   0  0  0  0  0  0  0  0  0  0  0  0
    2.8771    7.0811    1.0601 C   0  0  1  0  0  0  0  0  0  0  0  0
    4.1432    7.0287    0.1815 C   0  0  0  0  0  0  0  0  0  0  0  0
    5.0574    8.0354    0.5350 C   0  0  0  0  0  0  0  0  0  0  0  0
    4.8979    8.5596    1.9287 C   0  0  0  0  0  0  0  0  0  0  0  0
    3.5759    9.3572    1.9079 C   0  0  0  0  0  0  0  0  0  0  0  0
    2.4779    8.6149    1.0141 C   0  0  0  0  0  0  0  0  0  0  0  0
    4.2639    6.3924   -1.0594 C   0  0  0  0  0  0  0  0  0  0  0  0
    5.0963    6.9664   -2.0249 C   0  0  0  0  0  0  0  0  0  0  0  0
    5.7275    8.1868   -1.7656 C   0  0  0  0  0  0  0  0  0  0  0  0
    5.7434    8.7007   -0.4720 C   0  0  0  0  0  0  0  0  0  0  0  0
   -9.2007    6.4558    0.9408 C   0  0  0  0  0  0  0  0  0  0  0  0
   -8.5260    5.8132    1.9170 F   0  0  0  0  0  0  0  0  0  0  0  0
   -9.8069    7.5266    1.5023 F   0  0  0  0  0  0  0  0  0  0  0  0
  -10.1584    5.6320    0.4645 F   0  0  0  0  0  0  0  0  0  0  0  0
   -7.0899    4.6514    0.8039 H   0  0  0  0  0  0  0  0  0  0  0  0
   -6.6886    8.3973   -1.2870 H   0  0  0  0  0  0  0  0  0  0  0  0
   -4.2503    8.0533   -1.4161 H   0  0  0  0  0  0  0  0  0  0  0  0
   -4.6896    4.3246    0.7154 H   0  0  0  0  0  0  0  0  0  0  0  0
   -2.7622    5.0300    1.4022 H   0  0  0  0  0  0  0  0  0  0  0  0
   -0.6112    4.0640    0.6766 H   0  0  0  0  0  0  0  0  0  0  0  0
   -0.2864    5.5483   -0.2149 H   0  0  0  0  0  0  0  0  0  0  0  0
   -0.2951    6.8428    2.0022 H   0  0  0  0  0  0  0  0  0  0  0  0
   -0.6097    5.3061    2.8276 H   0  0  0  0  0  0  0  0  0  0  0  0
    2.8022    5.1785    0.9282 H   0  0  0  0  0  0  0  0  0  0  0  0
    3.1233    6.9782    2.1177 H   0  0  0  0  0  0  0  0  0  0  0  0
    5.7767    9.0932    2.2952 H   0  0  0  0  0  0  0  0  0  0  0  0
    4.8194    7.6993    2.6182 H   0  0  0  0  0  0  0  0  0  0  0  0
    3.7898   10.3644    1.5292 H   0  0  0  0  0  0  0  0  0  0  0  0
    3.2041    9.4610    2.9326 H   0  0  0  0  0  0  0  0  0  0  0  0
    2.5684    9.0438   -0.0053 H   0  0  0  0  0  0  0  0  0  0  0  0
    1.4730    8.8805    1.3538 H   0  0  0  0  0  0  0  0  0  0  0  0
    3.6762    5.5180   -1.3204 H   0  0  0  0  0  0  0  0  0  0  0  0
    5.1846    6.5179   -3.0125 H   0  0  0  0  0  0  0  0  0  0  0  0
    6.1884    8.7464   -2.5728 H   0  0  0  0  0  0  0  0  0  0  0  0
    6.2020    9.6617   -0.2646 H   0  0  0  0  0  0  0  0  0  0  0  0
  1  2  2  0  0  0  0
  1 30  1  0  0  0  0
  2  3  1  0  0  0  0
  2  7  1  0  0  0  0
  3  4  2  0  0  0  0
  3 31  1  0  0  0  0
  4  5  1  0  0  0  0
  4 32  1  0  0  0  0
  5  6  2  0  0  0  0
  5  8  1  0  0  0  0
  6  1  1  0  0  0  0
  6 33  1  0  0  0  0
  7 26  1  0  0  0  0
  8  9  1  0  0  0  0
  8 10  2  0  0  0  0
  9 11  1  0  0  0  0
  9 34  1  0  0  0  0
 11 12  1  0  0  0  0
 11 35  1  0  0  0  0
 11 36  1  0  0  0  0
 12 13  1  0  0  0  0
 12 37  1  0  0  0  0
 12 38  1  0  0  0  0
 13 14  1  0  0  0  0
 13 15  2  0  0  0  0
 14 39  1  0  0  0  0
 16 14  1  0  0  0  0
 16 17  1  0  0  0  0
 16 40  1  1  0  0  0
 17 18  2  0  0  0  0
 17 22  1  0  0  0  0
 18 19  1  0  0  0  0
 19 20  1  0  0  0  0
 19 41  1  0  0  0  0
 19 42  1  0  0  0  0
 20 21  1  0  0  0  0
 20 43  1  0  0  0  0
 20 44  1  0  0  0  0
 21 16  1  0  0  0  0
 21 45  1  0  0  0  0
 21 46  1  0  0  0  0
 22 23  2  0  0  0  0
 22 47  1  0  0  0  0
 23 24  1  0  0  0  0
 23 48  1  0  0  0  0
 24 25  2  0  0  0  0
 24 49  1  0  0  0  0
 25 18  1  0  0  0  0
 25 50  1  0  0  0  0
 26 27  1  0  0  0  0
 26 28  1  0  0  0  0
 26 29  1  0  0  0  0
M  END
>  <Mol_ID>
4070

>  <Formula>
C21H21F3N2O3

>  <MolWeight>
406.3982496

>  <Cat>
S8382

>  <Name>
ML390

>  <Synonyms>
N/A

>  <Target>
Dehydrogenase

>  <Form>
free base

>  <CAS>
2029049-79-2

>  <URL>
http://selleckchem.com/products/ml390.html

$$$$
