ML401
 OpenBabel08302521323D

 45 47  0  0  0  0  0  0  0  0999 V2000
    0.8453   -0.1396    0.1845 C   0  0  0  0  0  0  0  0  0  0  0  0
    0.0347    1.0774    0.4484 C   0  0  0  0  0  0  0  0  0  0  0  0
    0.3194   -1.1411   -0.3016 O   0  0  0  0  0  0  0  0  0  0  0  0
   -1.0331    1.3756   -0.3080 C   0  0  0  0  0  0  0  0  0  0  0  0
    5.9220   -0.0154   -0.0474 C   0  0  0  0  0  0  0  0  0  0  0  0
   -4.7442    6.2123    0.6382 Br  0  0  0  0  0  0  0  0  0  0  0  0
    2.1838   -0.0785    0.5610 N   0  0  0  0  0  0  0  0  0  0  0  0
    2.9806   -1.2880    0.3559 C   0  0  0  0  0  0  0  0  0  0  0  0
    2.9587    1.1697    0.5435 C   0  0  0  0  0  0  0  0  0  0  0  0
    4.2509   -1.3146    1.2247 C   0  0  0  0  0  0  0  0  0  0  0  0
    4.2576    1.0935    1.3708 C   0  0  0  0  0  0  0  0  0  0  0  0
    5.0935   -0.0998    1.1632 N   0  0  0  0  0  0  0  0  0  0  0  0
   -1.8963    2.5440   -0.0750 C   0  0  0  0  0  0  0  0  0  0  0  0
   -1.4065    3.7395    0.4717 C   0  0  0  0  0  0  0  0  0  0  0  0
   -3.2475    2.4820   -0.4471 C   0  0  0  0  0  0  0  0  0  0  0  0
   -2.2526    4.8320    0.6837 C   0  0  0  0  0  0  0  0  0  0  0  0
   -4.0975    3.5755   -0.2382 C   0  0  0  0  0  0  0  0  0  0  0  0
   -3.5968    4.7416    0.3340 C   0  0  0  0  0  0  0  0  0  0  0  0
    6.9504   -1.1324   -0.1181 C   0  0  0  0  0  0  0  0  0  0  0  0
    6.9867   -2.0011   -1.2175 C   0  0  0  0  0  0  0  0  0  0  0  0
    7.8412   -1.3505    0.9455 C   0  0  0  0  0  0  0  0  0  0  0  0
    7.8460   -3.1021   -1.2199 C   0  0  0  0  0  0  0  0  0  0  0  0
    8.6984   -2.4517    0.9414 C   0  0  0  0  0  0  0  0  0  0  0  0
    8.6879   -3.3371   -0.1339 C   0  0  0  0  0  0  0  0  0  0  0  0
    0.3056    1.6618    1.3148 H   0  0  0  0  0  0  0  0  0  0  0  0
   -1.3145    0.7210   -1.1348 H   0  0  0  0  0  0  0  0  0  0  0  0
    5.3055   -0.0031   -0.9536 H   0  0  0  0  0  0  0  0  0  0  0  0
    6.4885    0.9252   -0.0439 H   0  0  0  0  0  0  0  0  0  0  0  0
    2.3715   -2.1684    0.5932 H   0  0  0  0  0  0  0  0  0  0  0  0
    3.2347   -1.3425   -0.7094 H   0  0  0  0  0  0  0  0  0  0  0  0
    3.1857    1.3872   -0.5069 H   0  0  0  0  0  0  0  0  0  0  0  0
    2.3595    2.0025    0.9193 H   0  0  0  0  0  0  0  0  0  0  0  0
    3.9441   -1.4362    2.2726 H   0  0  0  0  0  0  0  0  0  0  0  0
    4.8273   -2.2169    0.9942 H   0  0  0  0  0  0  0  0  0  0  0  0
    3.9799    1.1089    2.4340 H   0  0  0  0  0  0  0  0  0  0  0  0
    4.8441    2.0071    1.2126 H   0  0  0  0  0  0  0  0  0  0  0  0
   -0.3573    3.8432    0.7372 H   0  0  0  0  0  0  0  0  0  0  0  0
   -3.6569    1.5775   -0.8919 H   0  0  0  0  0  0  0  0  0  0  0  0
   -1.8523    5.7437    1.1198 H   0  0  0  0  0  0  0  0  0  0  0  0
   -5.1439    3.5021   -0.5220 H   0  0  0  0  0  0  0  0  0  0  0  0
    6.3273   -1.8436   -2.0676 H   0  0  0  0  0  0  0  0  0  0  0  0
    7.8368   -0.6804    1.8033 H   0  0  0  0  0  0  0  0  0  0  0  0
    7.8455   -3.7891   -2.0624 H   0  0  0  0  0  0  0  0  0  0  0  0
    9.3575   -2.6298    1.7871 H   0  0  0  0  0  0  0  0  0  0  0  0
    9.3320   -4.2126   -0.1234 H   0  0  0  0  0  0  0  0  0  0  0  0
  1  2  1  0  0  0  0
  1  3  2  0  0  0  0
  1  7  1  0  0  0  0
  2  4  2  0  0  0  0
  2 25  1  0  0  0  0
  4 13  1  0  0  0  0
  4 26  1  0  0  0  0
  5 12  1  0  0  0  0
  5 19  1  0  0  0  0
  5 27  1  0  0  0  0
  5 28  1  0  0  0  0
  6 18  1  0  0  0  0
  7  8  1  0  0  0  0
  7  9  1  0  0  0  0
  8 10  1  0  0  0  0
  8 29  1  0  0  0  0
  8 30  1  0  0  0  0
  9 11  1  0  0  0  0
  9 31  1  0  0  0  0
  9 32  1  0  0  0  0
 10 12  1  0  0  0  0
 10 33  1  0  0  0  0
 10 34  1  0  0  0  0
 11 12  1  0  0  0  0
 11 35  1  0  0  0  0
 11 36  1  0  0  0  0
 13 14  2  0  0  0  0
 13 15  1  0  0  0  0
 14 16  1  0  0  0  0
 14 37  1  0  0  0  0
 15 17  2  0  0  0  0
 15 38  1  0  0  0  0
 16 18  2  0  0  0  0
 16 39  1  0  0  0  0
 17 18  1  0  0  0  0
 17 40  1  0  0  0  0
 19 20  2  0  0  0  0
 19 21  1  0  0  0  0
 20 22  1  0  0  0  0
 20 41  1  0  0  0  0
 21 23  2  0  0  0  0
 21 42  1  0  0  0  0
 22 24  2  0  0  0  0
 22 43  1  0  0  0  0
 23 24  1  0  0  0  0
 23 44  1  0  0  0  0
 24 45  1  0  0  0  0
M  END
>  <Mol_ID>
6124

>  <Formula>
C20H20BrClN2O

>  <MolWeight>
419.7426

>  <Cat>
E0106

>  <Name>
ML401

>  <Target>
GPR

>  <Form>
free base

>  <CAS>
1597489-14-9

>  <URL>
http://www.selleckchem.com/products/ml401.html

$$$$
