ML406
 OpenBabel08302521323D

 46 49  0  0  0  0  0  0  0  0999 V2000
    0.9601   -0.0217   -0.0892 C   0  0  0  0  0  0  0  0  0  0  0  0
    1.4575    1.3949    0.0192 C   0  0  0  0  0  0  0  0  0  0  0  0
    0.1862   -0.4040   -1.2996 C   0  0  0  0  0  0  0  0  0  0  0  0
    0.2073   -1.7351   -1.7115 C   0  0  0  0  0  0  0  0  0  0  0  0
   -0.4741   -2.1198   -2.8712 C   0  0  0  0  0  0  0  0  0  0  0  0
   -1.2049   -1.2020   -3.6426 C   0  0  0  0  0  0  0  0  0  0  0  0
   -1.2322    0.1243   -3.1900 C   0  0  0  0  0  0  0  0  0  0  0  0
   -0.5443    0.5268   -2.0373 C   0  0  0  0  0  0  0  0  0  0  0  0
   -1.8623   -1.5833   -4.7912 N   0  0  0  0  0  0  0  0  0  0  0  0
   -2.4773   -2.9039   -4.9322 C   0  0  0  0  0  0  0  0  0  0  0  0
   -1.9624   -3.5845   -6.2053 C   0  0  0  0  0  0  0  0  0  0  0  0
   -2.1046   -2.7312   -7.4023 N   0  0  0  0  0  0  0  0  0  0  0  0
   -1.5671   -1.3724   -7.2357 C   0  0  0  0  0  0  0  0  0  0  0  0
   -2.0644   -0.6885   -5.9425 C   0  0  0  0  0  0  0  0  0  0  0  0
   -2.6471   -3.0928   -8.6369 C   0  0  0  0  0  0  0  0  0  0  0  0
   -2.8121   -2.2882   -9.5529 O   0  0  0  0  0  0  0  0  0  0  0  0
   -4.5955   -8.3096   -8.9459 O   0  0  0  0  0  0  0  0  0  0  0  0
   -3.5020   -8.8920   -8.2042 C   0  0  0  0  0  0  0  0  0  0  0  0
   -2.4488   -7.9529   -7.9046 O   0  0  0  0  0  0  0  0  0  0  0  0
   -2.9553   -6.8191   -8.4593 C   0  0  0  0  0  0  0  0  0  0  0  0
   -4.1841   -7.0177   -9.0410 C   0  0  0  0  0  0  0  0  0  0  0  0
   -2.3556   -5.5818   -8.4191 C   0  0  0  0  0  0  0  0  0  0  0  0
   -3.1031   -4.4860   -8.8672 C   0  0  0  0  0  0  0  0  0  0  0  0
   -4.3357   -4.6967   -9.5242 C   0  0  0  0  0  0  0  0  0  0  0  0
   -4.8807   -5.9823   -9.6261 C   0  0  0  0  0  0  0  0  0  0  0  0
    1.2212   -0.8663    0.7638 O   0  0  0  0  0  0  0  0  0  0  0  0
    2.1145    1.6183   -0.8265 H   0  0  0  0  0  0  0  0  0  0  0  0
    0.6254    2.1004    0.0602 H   0  0  0  0  0  0  0  0  0  0  0  0
    2.0366    1.5022    0.9409 H   0  0  0  0  0  0  0  0  0  0  0  0
    0.7704   -2.4775   -1.1485 H   0  0  0  0  0  0  0  0  0  0  0  0
   -0.3868   -3.1592   -3.1789 H   0  0  0  0  0  0  0  0  0  0  0  0
   -1.8222    0.8677   -3.7162 H   0  0  0  0  0  0  0  0  0  0  0  0
   -0.6176    1.5662   -1.7340 H   0  0  0  0  0  0  0  0  0  0  0  0
   -2.3091   -3.5640   -4.0749 H   0  0  0  0  0  0  0  0  0  0  0  0
   -3.5644   -2.7763   -5.0086 H   0  0  0  0  0  0  0  0  0  0  0  0
   -0.8937   -3.8116   -6.1073 H   0  0  0  0  0  0  0  0  0  0  0  0
   -2.5112   -4.5193   -6.2952 H   0  0  0  0  0  0  0  0  0  0  0  0
   -0.4756   -1.4747   -7.1976 H   0  0  0  0  0  0  0  0  0  0  0  0
   -1.8057   -0.7401   -8.0962 H   0  0  0  0  0  0  0  0  0  0  0  0
   -3.1340   -0.4624   -6.0289 H   0  0  0  0  0  0  0  0  0  0  0  0
   -1.5286    0.2608   -5.8371 H   0  0  0  0  0  0  0  0  0  0  0  0
   -3.0731   -9.7090   -8.7932 H   0  0  0  0  0  0  0  0  0  0  0  0
   -3.8910   -9.2994   -7.2627 H   0  0  0  0  0  0  0  0  0  0  0  0
   -1.3737   -5.4666   -7.9817 H   0  0  0  0  0  0  0  0  0  0  0  0
   -4.8779   -3.8487   -9.9400 H   0  0  0  0  0  0  0  0  0  0  0  0
   -5.8315   -6.1533  -10.1186 H   0  0  0  0  0  0  0  0  0  0  0  0
  1  2  1  0  0  0  0
  1  3  1  0  0  0  0
  1 26  2  0  0  0  0
  2 27  1  0  0  0  0
  2 28  1  0  0  0  0
  2 29  1  0  0  0  0
  3  4  2  0  0  0  0
  3  8  1  0  0  0  0
  4  5  1  0  0  0  0
  4 30  1  0  0  0  0
  5  6  2  0  0  0  0
  5 31  1  0  0  0  0
  6  7  1  0  0  0  0
  6  9  1  0  0  0  0
  7  8  2  0  0  0  0
  7 32  1  0  0  0  0
  8 33  1  0  0  0  0
  9 10  1  0  0  0  0
  9 14  1  0  0  0  0
 10 11  1  0  0  0  0
 10 34  1  0  0  0  0
 10 35  1  0  0  0  0
 11 12  1  0  0  0  0
 11 36  1  0  0  0  0
 11 37  1  0  0  0  0
 12 13  1  0  0  0  0
 12 15  1  0  0  0  0
 13 14  1  0  0  0  0
 13 38  1  0  0  0  0
 13 39  1  0  0  0  0
 14 40  1  0  0  0  0
 14 41  1  0  0  0  0
 15 16  2  0  0  0  0
 15 23  1  0  0  0  0
 17 18  1  0  0  0  0
 17 21  1  0  0  0  0
 18 19  1  0  0  0  0
 18 42  1  0  0  0  0
 18 43  1  0  0  0  0
 19 20  1  0  0  0  0
 20 21  2  0  0  0  0
 22 23  2  0  0  0  0
 22 20  1  0  0  0  0
 22 44  1  0  0  0  0
 23 24  1  0  0  0  0
 24 25  2  0  0  0  0
 24 45  1  0  0  0  0
 25 21  1  0  0  0  0
 25 46  1  0  0  0  0
M  END
>  <Mol_ID>
6174

>  <Formula>
C20H20N2O4

>  <MolWeight>
352.3838

>  <Cat>
S0715

>  <Name>
ML406

>  <Synonyms>
N/A

>  <Target>
Bacterial

>  <Form>
free base

>  <CAS>
774589-47-8

>  <URL>
http://www.selleckchem.com/products/ml406.html

$$$$
