ML 161.cdx
 OpenBabel08302522013D

 39 40  0  0  0  0  0  0  0  0999 V2000
    0.9344   -1.1190   -0.5415 C   0  0  0  0  0  0  0  0  0  0  0  0
    2.3210   -1.1863   -0.4897 C   0  0  0  0  0  0  0  0  0  0  0  0
    3.0626   -0.0475   -0.1710 C   0  0  0  0  0  0  0  0  0  0  0  0
    2.4245    1.1732    0.0923 C   0  0  0  0  0  0  0  0  0  0  0  0
    1.0284    1.2553    0.0204 C   0  0  0  0  0  0  0  0  0  0  0  0
    0.2933    0.0923   -0.2850 C   0  0  0  0  0  0  0  0  0  0  0  0
    3.5575    2.6126    0.5989 Br  0  0  0  0  0  0  0  0  0  0  0  0
    0.2129    2.4768    0.2803 C   0  0  0  0  0  0  0  0  0  0  0  0
    0.7406    3.6842   -0.1477 N   0  0  0  0  0  0  0  0  0  0  0  0
   -0.8980    2.3080    0.7665 O   0  0  0  0  0  0  0  0  0  0  0  0
    0.1554    4.9577    0.0269 C   0  0  0  0  0  0  0  0  0  0  0  0
   -0.9069    5.1886    0.9036 C   0  0  0  0  0  0  0  0  0  0  0  0
   -1.4949    6.4502    1.0297 C   0  0  0  0  0  0  0  0  0  0  0  0
   -1.0268    7.4947    0.2290 C   0  0  0  0  0  0  0  0  0  0  0  0
    0.0678    7.2911   -0.6185 C   0  0  0  0  0  0  0  0  0  0  0  0
    0.6692    6.0315   -0.7048 C   0  0  0  0  0  0  0  0  0  0  0  0
   -2.5606    6.7002    1.9258 N   0  0  0  0  0  0  0  0  0  0  0  0
   -2.8923    5.9074    3.0148 C   0  0  0  0  0  0  0  0  0  0  0  0
   -4.1340    6.3563    3.7587 C   0  0  0  0  0  0  0  0  0  0  0  0
   -2.2455    4.9564    3.4444 O   0  0  0  0  0  0  0  0  0  0  0  0
   -5.4127    6.3496    2.9287 C   0  0  0  0  0  0  0  0  0  0  0  0
   -5.7618    4.9752    2.3750 C   0  0  0  0  0  0  0  0  0  0  0  0
    0.3479   -2.0058   -0.7713 H   0  0  0  0  0  0  0  0  0  0  0  0
    2.8268   -2.1295   -0.6822 H   0  0  0  0  0  0  0  0  0  0  0  0
    4.1462   -0.1294   -0.1131 H   0  0  0  0  0  0  0  0  0  0  0  0
   -0.7957    0.1284   -0.3168 H   0  0  0  0  0  0  0  0  0  0  0  0
    1.6050    3.6534   -0.6724 H   0  0  0  0  0  0  0  0  0  0  0  0
   -1.2865    4.3680    1.5006 H   0  0  0  0  0  0  0  0  0  0  0  0
   -1.4756    8.4828    0.2774 H   0  0  0  0  0  0  0  0  0  0  0  0
    0.4522    8.1151   -1.2140 H   0  0  0  0  0  0  0  0  0  0  0  0
    1.5166    5.8977   -1.3711 H   0  0  0  0  0  0  0  0  0  0  0  0
   -3.0293    7.5914    1.8404 H   0  0  0  0  0  0  0  0  0  0  0  0
   -4.2601    5.6902    4.6219 H   0  0  0  0  0  0  0  0  0  0  0  0
   -3.9464    7.3590    4.1583 H   0  0  0  0  0  0  0  0  0  0  0  0
   -6.2364    6.6848    3.5704 H   0  0  0  0  0  0  0  0  0  0  0  0
   -5.3413    7.0649    2.1027 H   0  0  0  0  0  0  0  0  0  0  0  0
   -5.7875    4.2209    3.1679 H   0  0  0  0  0  0  0  0  0  0  0  0
   -6.7493    5.0023    1.9026 H   0  0  0  0  0  0  0  0  0  0  0  0
   -5.0386    4.6565    1.6181 H   0  0  0  0  0  0  0  0  0  0  0  0
  1  2  2  0  0  0  0
  1 23  1  0  0  0  0
  2  3  1  0  0  0  0
  2 24  1  0  0  0  0
  3  4  2  0  0  0  0
  3 25  1  0  0  0  0
  4  5  1  0  0  0  0
  4  7  1  0  0  0  0
  5  6  2  0  0  0  0
  5  8  1  0  0  0  0
  6  1  1  0  0  0  0
  6 26  1  0  0  0  0
  8  9  1  0  0  0  0
  8 10  2  0  0  0  0
  9 11  1  0  0  0  0
  9 27  1  0  0  0  0
 11 12  2  0  0  0  0
 12 13  1  0  0  0  0
 12 28  1  0  0  0  0
 13 14  2  0  0  0  0
 13 17  1  0  0  0  0
 14 15  1  0  0  0  0
 14 29  1  0  0  0  0
 15 16  2  0  0  0  0
 15 30  1  0  0  0  0
 16 11  1  0  0  0  0
 16 31  1  0  0  0  0
 17 18  1  0  0  0  0
 17 32  1  0  0  0  0
 18 19  1  0  0  0  0
 18 20  2  0  0  0  0
 19 21  1  0  0  0  0
 19 33  1  0  0  0  0
 19 34  1  0  0  0  0
 21 22  1  0  0  0  0
 21 35  1  0  0  0  0
 21 36  1  0  0  0  0
 22 37  1  0  0  0  0
 22 38  1  0  0  0  0
 22 39  1  0  0  0  0
M  END
>  <Mol_ID>
1092

>  <Formula>
C17H17BrN2O2

>  <MolWeight>
361.23308

>  <Cat>
S2916

>  <Name>
ML161 (Parmodulin 2)

>  <Synonyms>
N/A

>  <Target>
PAR

>  <Form>
free base

>  <CAS>
423735-93-7

>  <URL>
http://selleckchem.com/products/ml-161.html

$$$$
