ML 210
 OpenBabel08302521243D

 52 55  0  0  0  0  0  0  0  0999 V2000
    0.8370   -0.0868    0.1204 C   0  0  0  0  0  0  0  0  0  0  0  0
    0.3093   -1.0916   -0.3533 O   0  0  0  0  0  0  0  0  0  0  0  0
   -0.6572    2.8869    1.4642 O   0  0  0  0  0  0  0  0  0  0  0  0
    0.2085    1.8160    1.5418 N   0  0  0  0  0  0  0  0  0  0  0  0
    0.0189    1.0906    0.4249 C   0  0  0  0  0  0  0  0  0  0  0  0
   -1.0676    1.6186   -0.3051 C   0  0  0  0  0  0  0  0  0  0  0  0
   -1.4083    2.7852    0.3364 C   0  0  0  0  0  0  0  0  0  0  0  0
   -1.6270    1.1507   -1.5172 N   0  3  0  0  0  0  0  0  0  0  0  0
   -0.8383    0.9360   -2.4478 O   0  0  0  0  0  0  0  0  0  0  0  0
   -2.8592    1.0546   -1.5607 O   0  5  0  0  0  0  0  0  0  0  0  0
   -2.3139    3.9171    0.0704 C   0  0  0  0  0  0  0  0  0  0  0  0
    2.2136   -0.0244    0.3982 N   0  0  0  0  0  0  0  0  0  0  0  0
    3.0245   -1.2156    0.1490 C   0  0  0  0  0  0  0  0  0  0  0  0
    4.3209   -1.2259    0.9887 C   0  0  0  0  0  0  0  0  0  0  0  0
    5.1470    0.0080    0.9254 N   0  0  0  0  0  0  0  0  0  0  0  0
    4.2640    1.1600    1.2132 C   0  0  0  0  0  0  0  0  0  0  0  0
    2.9700    1.2337    0.3855 C   0  0  0  0  0  0  0  0  0  0  0  0
    5.9196    0.1425   -0.3451 C   0  0  0  0  0  0  0  0  0  0  0  0
    6.6997    1.4685   -0.4337 C   0  0  0  0  0  0  0  0  0  0  0  0
    7.5569    1.8981    0.5969 C   0  0  0  0  0  0  0  0  0  0  0  0
    8.1983    3.1378    0.5340 C   0  0  0  0  0  0  0  0  0  0  0  0
    7.9921    3.9740   -0.5588 C   0  0  0  0  0  0  0  0  0  0  0  0
    7.1584    3.5637   -1.5968 C   0  0  0  0  0  0  0  0  0  0  0  0
    6.5229    2.3186   -1.5398 C   0  0  0  0  0  0  0  0  0  0  0  0
    6.8461   -1.0618   -0.5840 C   0  0  0  0  0  0  0  0  0  0  0  0
    6.7518   -1.8005   -1.7760 C   0  0  0  0  0  0  0  0  0  0  0  0
    7.5300   -2.9460   -1.9708 C   0  0  0  0  0  0  0  0  0  0  0  0
    8.4243   -3.3630   -0.9870 C   0  0  0  0  0  0  0  0  0  0  0  0
    8.5454   -2.6344    0.1921 C   0  0  0  0  0  0  0  0  0  0  0  0
    7.7605   -1.4972    0.3934 C   0  0  0  0  0  0  0  0  0  0  0  0
   -3.0586    4.0087    0.8654 H   0  0  0  0  0  0  0  0  0  0  0  0
   -1.7408    4.8503    0.0307 H   0  0  0  0  0  0  0  0  0  0  0  0
   -2.8340    3.8081   -0.8849 H   0  0  0  0  0  0  0  0  0  0  0  0
    2.4389   -2.1137    0.3785 H   0  0  0  0  0  0  0  0  0  0  0  0
    3.2557   -1.2404   -0.9226 H   0  0  0  0  0  0  0  0  0  0  0  0
    4.0357   -1.3597    2.0413 H   0  0  0  0  0  0  0  0  0  0  0  0
    4.9031   -2.1202    0.7459 H   0  0  0  0  0  0  0  0  0  0  0  0
    3.9867    1.0933    2.2736 H   0  0  0  0  0  0  0  0  0  0  0  0
    4.7897    2.1159    1.1280 H   0  0  0  0  0  0  0  0  0  0  0  0
    3.1875    1.4600   -0.6648 H   0  0  0  0  0  0  0  0  0  0  0  0
    2.3807    2.0694    0.7597 H   0  0  0  0  0  0  0  0  0  0  0  0
    5.1915    0.1542   -1.1677 H   0  0  0  0  0  0  0  0  0  0  0  0
    7.7061    1.2802    1.4783 H   0  0  0  0  0  0  0  0  0  0  0  0
    8.8479    3.4533    1.3467 H   0  0  0  0  0  0  0  0  0  0  0  0
    8.4789    4.9451   -0.5994 H   0  0  0  0  0  0  0  0  0  0  0  0
    6.9980    4.2185   -2.4497 H   0  0  0  0  0  0  0  0  0  0  0  0
    5.8729    2.0273   -2.3616 H   0  0  0  0  0  0  0  0  0  0  0  0
    6.0549   -1.5034   -2.5560 H   0  0  0  0  0  0  0  0  0  0  0  0
    7.4323   -3.5200   -2.8888 H   0  0  0  0  0  0  0  0  0  0  0  0
    9.0228   -4.2579   -1.1362 H   0  0  0  0  0  0  0  0  0  0  0  0
    9.2395   -2.9567    0.9641 H   0  0  0  0  0  0  0  0  0  0  0  0
    7.8456   -0.9674    1.3384 H   0  0  0  0  0  0  0  0  0  0  0  0
  1  2  2  0  0  0  0
  1  5  1  0  0  0  0
  1 12  1  0  0  0  0
  3  4  1  0  0  0  0
  3  7  1  0  0  0  0
  4  5  2  0  0  0  0
  5  6  1  0  0  0  0
  6  7  2  0  0  0  0
  6  8  1  0  0  0  0
  7 11  1  0  0  0  0
  8  9  2  0  0  0  0
  8 10  1  0  0  0  0
 11 31  1  0  0  0  0
 11 32  1  0  0  0  0
 11 33  1  0  0  0  0
 12 13  1  0  0  0  0
 12 17  1  0  0  0  0
 13 14  1  0  0  0  0
 13 34  1  0  0  0  0
 13 35  1  0  0  0  0
 14 15  1  0  0  0  0
 14 36  1  0  0  0  0
 14 37  1  0  0  0  0
 15 16  1  0  0  0  0
 15 18  1  0  0  0  0
 16 17  1  0  0  0  0
 16 38  1  0  0  0  0
 16 39  1  0  0  0  0
 17 40  1  0  0  0  0
 17 41  1  0  0  0  0
 18 19  1  0  0  0  0
 18 25  1  0  0  0  0
 18 42  1  0  0  0  0
 19 20  2  0  0  0  0
 19 24  1  0  0  0  0
 20 21  1  0  0  0  0
 20 43  1  0  0  0  0
 21 22  2  0  0  0  0
 21 44  1  0  0  0  0
 22 23  1  0  0  0  0
 22 45  1  0  0  0  0
 23 24  2  0  0  0  0
 23 46  1  0  0  0  0
 24 47  1  0  0  0  0
 25 26  2  0  0  0  0
 25 30  1  0  0  0  0
 26 27  1  0  0  0  0
 26 48  1  0  0  0  0
 27 28  2  0  0  0  0
 27 49  1  0  0  0  0
 28 29  1  0  0  0  0
 28 50  1  0  0  0  0
 29 30  2  0  0  0  0
 29 51  1  0  0  0  0
 30 52  1  0  0  0  0
M  CHG  2   8   1  10  -1
M  END
>  <Mol_ID>
4995

>  <Formula>
C22H20Cl2N4O4

>  <MolWeight>
475.3246

>  <Cat>
S0788

>  <Name>
ML 210

>  <Synonyms>
CID 49766530

>  <Target>
Ferroptosis,Peroxidases

>  <Form>
Free Base

>  <CAS>
1360705-96-9

>  <URL>
http://www.selleckchem.com/products/ml210.html

$$$$
