MLi-2
 OpenBabel08302521263D

 53 57  0  0  0  0  0  0  0  0999 V2000
   -1.4379    1.9174   -2.9085 C   0  0  0  0  0  0  0  0  0  0  0  0
   -2.2525    0.8582   -3.2991 C   0  0  0  0  0  0  0  0  0  0  0  0
   -2.4720   -0.2146   -2.4266 C   0  0  0  0  0  0  0  0  0  0  0  0
   -1.8235   -0.2474   -1.1693 C   0  0  0  0  0  0  0  0  0  0  0  0
   -1.0501    0.8457   -0.8054 C   0  0  0  0  0  0  0  0  0  0  0  0
   -0.8488    1.9467   -1.6364 C   0  0  0  0  0  0  0  0  0  0  0  0
   -1.6712   -1.1861   -0.0891 C   0  0  0  0  0  0  0  0  0  0  0  0
   -0.9029   -0.6618    0.8900 N   0  0  0  0  0  0  0  0  0  0  0  0
   -0.5566    0.5471    0.4333 N   0  0  0  0  0  0  0  0  0  0  0  0
   -2.7965    0.7300   -4.5562 O   0  0  0  0  0  0  0  0  0  0  0  0
   -3.0816    1.9029   -5.3530 C   0  0  0  0  0  0  0  0  0  0  0  0
   -2.1585   -2.5701   -0.0095 C   0  0  0  0  0  0  0  0  0  0  0  0
   -2.8733   -3.0323   -1.0525 N   0  0  0  0  0  0  0  0  0  0  0  0
   -3.2437   -4.3097   -0.9663 C   0  0  0  0  0  0  0  0  0  0  0  0
   -2.9656   -5.1485    0.0408 N   0  0  0  0  0  0  0  0  0  0  0  0
   -2.2401   -4.6756    1.0710 C   0  0  0  0  0  0  0  0  0  0  0  0
   -1.8344   -3.3592    1.0789 C   0  0  0  0  0  0  0  0  0  0  0  0
   -1.9431   -5.5266    2.1105 N   0  0  0  0  0  0  0  0  0  0  0  0
   -0.7502   -5.4128    2.9518 C   0  0  0  0  0  0  0  0  0  0  0  0
    0.1330   -6.6814    2.8814 C   0  0  1  0  0  0  0  0  0  0  0  0
   -0.6021   -7.9143    2.9404 O   0  0  0  0  0  0  0  0  0  0  0  0
   -1.7715   -7.9895    2.1050 C   0  0  1  0  0  0  0  0  0  0  0  0
   -2.6938   -6.7740    2.2780 C   0  0  0  0  0  0  0  0  0  0  0  0
   -1.4278   -8.2747    0.6469 C   0  0  0  0  0  0  0  0  0  0  0  0
    1.1337   -6.6738    1.7276 C   0  0  0  0  0  0  0  0  0  0  0  0
   -2.9345    1.6047   -6.8335 C   0  0  0  0  0  0  0  0  0  0  0  0
   -2.0069    2.5768   -6.1762 C   0  0  0  0  0  0  0  0  0  0  0  0
   -4.2742    2.6939   -4.9105 C   0  0  0  0  0  0  0  0  0  0  0  0
   -1.2149    2.7245   -3.5933 H   0  0  0  0  0  0  0  0  0  0  0  0
   -3.1070   -1.0459   -2.7320 H   0  0  0  0  0  0  0  0  0  0  0  0
   -0.2139    2.7758   -1.3414 H   0  0  0  0  0  0  0  0  0  0  0  0
    0.0514    1.1205    1.0055 H   0  0  0  0  0  0  0  0  0  0  0  0
   -3.8198   -4.7114   -1.7911 H   0  0  0  0  0  0  0  0  0  0  0  0
   -1.2934   -2.9376    1.9135 H   0  0  0  0  0  0  0  0  0  0  0  0
   -0.1326   -4.5373    2.7260 H   0  0  0  0  0  0  0  0  0  0  0  0
   -1.0990   -5.2924    3.9847 H   0  0  0  0  0  0  0  0  0  0  0  0
    0.7472   -6.6805    3.7914 H   0  0  0  0  0  0  0  0  0  0  0  0
   -2.3202   -8.8663    2.4701 H   0  0  0  0  0  0  0  0  0  0  0  0
   -3.0881   -6.7719    3.2994 H   0  0  0  0  0  0  0  0  0  0  0  0
   -3.5660   -6.8536    1.6169 H   0  0  0  0  0  0  0  0  0  0  0  0
   -0.6011   -8.9878    0.5723 H   0  0  0  0  0  0  0  0  0  0  0  0
   -2.2970   -8.6842    0.1222 H   0  0  0  0  0  0  0  0  0  0  0  0
   -1.1354   -7.3719    0.1064 H   0  0  0  0  0  0  0  0  0  0  0  0
    1.8584   -5.8620    1.8488 H   0  0  0  0  0  0  0  0  0  0  0  0
    1.6808   -7.6222    1.6914 H   0  0  0  0  0  0  0  0  0  0  0  0
    0.6584   -6.5349    0.7559 H   0  0  0  0  0  0  0  0  0  0  0  0
   -2.5244    0.6411   -7.1173 H   0  0  0  0  0  0  0  0  0  0  0  0
   -3.6827    1.9822   -7.5192 H   0  0  0  0  0  0  0  0  0  0  0  0
   -2.1368    3.6248   -6.4305 H   0  0  0  0  0  0  0  0  0  0  0  0
   -0.9719    2.2832   -6.0597 H   0  0  0  0  0  0  0  0  0  0  0  0
   -5.1155    2.0295   -4.6938 H   0  0  0  0  0  0  0  0  0  0  0  0
   -4.0433    3.2739   -4.0123 H   0  0  0  0  0  0  0  0  0  0  0  0
   -4.5970    3.4000   -5.6846 H   0  0  0  0  0  0  0  0  0  0  0  0
  1  2  2  0  0  0  0
  1 29  1  0  0  0  0
  2  3  1  0  0  0  0
  2 10  1  0  0  0  0
  3  4  2  0  0  0  0
  3 30  1  0  0  0  0
  4  5  1  0  0  0  0
  4  7  1  0  0  0  0
  5  6  2  0  0  0  0
  6  1  1  0  0  0  0
  6 31  1  0  0  0  0
  7  8  2  0  0  0  0
  7 12  1  0  0  0  0
  8  9  1  0  0  0  0
  9  5  1  0  0  0  0
  9 32  1  0  0  0  0
 10 11  1  0  0  0  0
 11 26  1  0  0  0  0
 11 28  1  0  0  0  0
 12 13  2  0  0  0  0
 13 14  1  0  0  0  0
 14 15  2  0  0  0  0
 14 33  1  0  0  0  0
 15 16  1  0  0  0  0
 16 17  2  0  0  0  0
 16 18  1  0  0  0  0
 17 12  1  0  0  0  0
 17 34  1  0  0  0  0
 18 19  1  0  0  0  0
 19 20  1  0  0  0  0
 19 35  1  0  0  0  0
 19 36  1  0  0  0  0
 20 21  1  0  0  0  0
 20 25  1  0  0  0  0
 20 37  1  1  0  0  0
 21 22  1  0  0  0  0
 22 23  1  0  0  0  0
 22 24  1  0  0  0  0
 22 38  1  1  0  0  0
 23 18  1  0  0  0  0
 23 39  1  0  0  0  0
 23 40  1  0  0  0  0
 24 41  1  0  0  0  0
 24 42  1  0  0  0  0
 24 43  1  0  0  0  0
 25 44  1  0  0  0  0
 25 45  1  0  0  0  0
 25 46  1  0  0  0  0
 26 27  1  0  0  0  0
 26 47  1  0  0  0  0
 26 48  1  0  0  0  0
 27 11  1  0  0  0  0
 27 49  1  0  0  0  0
 27 50  1  0  0  0  0
 28 51  1  0  0  0  0
 28 52  1  0  0  0  0
 28 53  1  0  0  0  0
M  END
>  <Mol_ID>
5252

>  <Formula>
C21H25N5O2

>  <MolWeight>
379.4555

>  <Cat>
S9694

>  <Name>
MLi-2

>  <Synonyms>
N/A

>  <Target>
LRRK2

>  <Form>
free base

>  <CAS>
1627091-47-7

>  <URL>
http://www.selleckchem.com/products/mli-2.html

$$$$
