MLR-1023.cdx
 OpenBabel08302520433D

 25 26  0  0  0  0  0  0  0  0999 V2000
   -1.7505    2.0574    2.3965 N   0  0  0  0  0  0  0  0  0  0  0  0
   -2.5874    1.9911    3.4872 C   0  0  0  0  0  0  0  0  0  0  0  0
   -3.7297    1.2405    3.3778 N   0  0  0  0  0  0  0  0  0  0  0  0
   -3.9541    0.6429    2.2564 C   0  0  0  0  0  0  0  0  0  0  0  0
   -3.0635    0.6498    1.0620 C   0  0  0  0  0  0  0  0  0  0  0  0
   -1.9827    1.4149    1.2130 C   0  0  0  0  0  0  0  0  0  0  0  0
   -2.2814    2.5992    4.5077 O   0  0  0  0  0  0  0  0  0  0  0  0
   -3.3414   -0.0219   -0.1115 O   0  0  0  0  0  0  0  0  0  0  0  0
   -3.9927   -1.2320   -0.0692 C   0  0  0  0  0  0  0  0  0  0  0  0
   -3.8463   -2.1467    0.9781 C   0  0  0  0  0  0  0  0  0  0  0  0
   -4.5398   -3.3597    0.9649 C   0  0  0  0  0  0  0  0  0  0  0  0
   -5.3551   -3.6645   -0.1313 C   0  0  0  0  0  0  0  0  0  0  0  0
   -5.4701   -2.7703   -1.1983 C   0  0  0  0  0  0  0  0  0  0  0  0
   -4.7842   -1.5568   -1.1711 C   0  0  0  0  0  0  0  0  0  0  0  0
   -4.4035   -4.3223    2.1065 C   0  0  0  0  0  0  0  0  0  0  0  0
   -0.9273    2.6358    2.5256 H   0  0  0  0  0  0  0  0  0  0  0  0
   -4.8850    0.0565    2.1642 H   0  0  0  0  0  0  0  0  0  0  0  0
   -1.2455    1.5426    0.4267 H   0  0  0  0  0  0  0  0  0  0  0  0
   -3.1986   -1.9235    1.8215 H   0  0  0  0  0  0  0  0  0  0  0  0
   -5.8982   -4.6075   -0.1638 H   0  0  0  0  0  0  0  0  0  0  0  0
   -6.0954   -3.0217   -2.0513 H   0  0  0  0  0  0  0  0  0  0  0  0
   -4.8693   -0.8682   -2.0066 H   0  0  0  0  0  0  0  0  0  0  0  0
   -5.3795   -4.5069    2.5655 H   0  0  0  0  0  0  0  0  0  0  0  0
   -3.9800   -5.2667    1.7519 H   0  0  0  0  0  0  0  0  0  0  0  0
   -3.7393   -3.9288    2.8839 H   0  0  0  0  0  0  0  0  0  0  0  0
  1  2  1  0  0  0  0
  1 16  1  0  0  0  0
  2  3  1  0  0  0  0
  2  7  2  0  0  0  0
  3  4  2  0  0  0  0
  4  5  1  0  0  0  0
  4 17  1  0  0  0  0
  5  6  2  0  0  0  0
  5  8  1  0  0  0  0
  6  1  1  0  0  0  0
  6 18  1  0  0  0  0
  8  9  1  0  0  0  0
  9 10  2  0  0  0  0
 10 11  1  0  0  0  0
 10 19  1  0  0  0  0
 11 12  2  0  0  0  0
 11 15  1  0  0  0  0
 12 13  1  0  0  0  0
 12 20  1  0  0  0  0
 13 14  2  0  0  0  0
 13 21  1  0  0  0  0
 14  9  1  0  0  0  0
 14 22  1  0  0  0  0
 15 23  1  0  0  0  0
 15 24  1  0  0  0  0
 15 25  1  0  0  0  0
M  END
>  <Mol_ID>
4052

>  <Formula>
C11H10N2O2

>  <MolWeight>
202.2093

>  <Cat>
S8321

>  <Name>
MLR-1023

>  <Synonyms>
Tolimidone, CP-26154

>  <Target>
Src

>  <Form>
free base

>  <CAS>
41964-07-2

>  <URL>
http://selleckchem.com/products/mlr-1023.html

$$$$
