MLS-573151
 OpenBabel08302521323D

 46 49  0  0  0  0  0  0  0  0999 V2000
    1.3551   -0.1507    0.1961 C   0  0  0  0  0  0  0  0  0  0  0  0
    0.5116   -0.2575    1.2978 C   0  0  0  0  0  0  0  0  0  0  0  0
   -0.8684   -0.1338    1.1191 C   0  0  0  0  0  0  0  0  0  0  0  0
   -1.4358    0.1272   -0.1421 C   0  0  0  0  0  0  0  0  0  0  0  0
   -0.5515    0.2432   -1.2289 C   0  0  0  0  0  0  0  0  0  0  0  0
    0.8327    0.0991   -1.0707 C   0  0  0  0  0  0  0  0  0  0  0  0
    3.0941   -0.3620    0.4247 S   0  0  0  0  0  0  0  0  0  0  0  0
    3.7499   -0.3927   -0.8622 O   0  0  0  0  0  0  0  0  0  0  0  0
    3.5302    0.4933    1.5038 O   0  0  0  0  0  0  0  0  0  0  0  0
    3.1816   -1.9368    1.0040 N   0  0  0  0  0  0  0  0  0  0  0  0
   -2.8158    0.2498   -0.3251 N   0  0  0  0  0  0  0  0  0  0  0  0
   -3.3242    0.9479   -1.3882 N   0  0  0  0  0  0  0  0  0  0  0  0
   -4.5752    1.1862   -1.1253 C   0  0  0  0  0  0  0  0  0  0  0  0
   -5.0598    0.6779    0.2045 C   0  0  0  0  0  0  0  0  0  0  0  0
   -3.8052   -0.0110    0.7219 C   0  0  3  0  0  0  0  0  0  0  0  0
   -4.0136   -1.4956    0.9820 C   0  0  0  0  0  0  0  0  0  0  0  0
   -4.3298   -1.9286    2.2796 C   0  0  0  0  0  0  0  0  0  0  0  0
   -4.4749   -3.2879    2.5649 C   0  0  0  0  0  0  0  0  0  0  0  0
   -4.3201   -4.2342    1.5548 C   0  0  0  0  0  0  0  0  0  0  0  0
   -4.0375   -3.8215    0.2550 C   0  0  0  0  0  0  0  0  0  0  0  0
   -3.8916   -2.4620   -0.0318 C   0  0  0  0  0  0  0  0  0  0  0  0
   -5.4906    1.9229   -2.0326 C   0  0  0  0  0  0  0  0  0  0  0  0
   -5.0202    2.3861   -3.2660 C   0  0  0  0  0  0  0  0  0  0  0  0
   -5.8857    3.0432   -4.1460 C   0  0  0  0  0  0  0  0  0  0  0  0
   -7.2208    3.2447   -3.7968 C   0  0  0  0  0  0  0  0  0  0  0  0
   -7.6901    2.8046   -2.5614 C   0  0  0  0  0  0  0  0  0  0  0  0
   -6.8280    2.1495   -1.6789 C   0  0  0  0  0  0  0  0  0  0  0  0
    0.9122   -0.4448    2.2909 H   0  0  0  0  0  0  0  0  0  0  0  0
   -1.4910   -0.2415    2.0015 H   0  0  0  0  0  0  0  0  0  0  0  0
   -0.9517    0.4255   -2.2247 H   0  0  0  0  0  0  0  0  0  0  0  0
    1.4819    0.1736   -1.9397 H   0  0  0  0  0  0  0  0  0  0  0  0
    3.5840   -2.5469    0.2930 H   0  0  0  0  0  0  0  0  0  0  0  0
    3.6803   -1.9479    1.8940 H   0  0  0  0  0  0  0  0  0  0  0  0
   -5.9211    0.0145    0.0926 H   0  0  0  0  0  0  0  0  0  0  0  0
   -5.3230    1.5301    0.8410 H   0  0  0  0  0  0  0  0  0  0  0  0
   -3.5096    0.4845    1.6549 H   0  0  0  0  0  0  0  0  0  0  0  0
   -4.4467   -1.2085    3.0863 H   0  0  0  0  0  0  0  0  0  0  0  0
   -4.6976   -3.6095    3.5788 H   0  0  0  0  0  0  0  0  0  0  0  0
   -4.4155   -5.2931    1.7807 H   0  0  0  0  0  0  0  0  0  0  0  0
   -3.9133   -4.5584   -0.5347 H   0  0  0  0  0  0  0  0  0  0  0  0
   -3.6517   -2.1615   -1.0516 H   0  0  0  0  0  0  0  0  0  0  0  0
   -3.9818    2.2334   -3.5527 H   0  0  0  0  0  0  0  0  0  0  0  0
   -5.5184    3.3925   -5.1080 H   0  0  0  0  0  0  0  0  0  0  0  0
   -7.8958    3.7446   -4.4877 H   0  0  0  0  0  0  0  0  0  0  0  0
   -8.7299    2.9648   -2.2862 H   0  0  0  0  0  0  0  0  0  0  0  0
   -7.2281    1.8198   -0.7250 H   0  0  0  0  0  0  0  0  0  0  0  0
  1  2  2  0  0  0  0
  1  6  1  0  0  0  0
  1  7  1  0  0  0  0
  2  3  1  0  0  0  0
  2 28  1  0  0  0  0
  3  4  2  0  0  0  0
  3 29  1  0  0  0  0
  4  5  1  0  0  0  0
  4 11  1  0  0  0  0
  5  6  2  0  0  0  0
  5 30  1  0  0  0  0
  6 31  1  0  0  0  0
  7  8  2  0  0  0  0
  7  9  2  0  0  0  0
  7 10  1  0  0  0  0
 10 32  1  0  0  0  0
 10 33  1  0  0  0  0
 11 12  1  0  0  0  0
 11 15  1  0  0  0  0
 12 13  2  0  0  0  0
 13 14  1  0  0  0  0
 13 22  1  0  0  0  0
 14 15  1  0  0  0  0
 14 34  1  0  0  0  0
 14 35  1  0  0  0  0
 15 16  1  0  0  0  0
 15 36  1  0  0  0  0
 16 17  2  0  0  0  0
 16 21  1  0  0  0  0
 17 18  1  0  0  0  0
 17 37  1  0  0  0  0
 18 19  2  0  0  0  0
 18 38  1  0  0  0  0
 19 20  1  0  0  0  0
 19 39  1  0  0  0  0
 20 21  2  0  0  0  0
 20 40  1  0  0  0  0
 21 41  1  0  0  0  0
 22 23  2  0  0  0  0
 22 27  1  0  0  0  0
 23 24  1  0  0  0  0
 23 42  1  0  0  0  0
 24 25  2  0  0  0  0
 24 43  1  0  0  0  0
 25 26  1  0  0  0  0
 25 44  1  0  0  0  0
 26 27  2  0  0  0  0
 26 45  1  0  0  0  0
 27 46  1  0  0  0  0
M  END
>  <Mol_ID>
6233

>  <Formula>
C21H19N3O2S

>  <MolWeight>
377.45946

>  <Cat>
S5996

>  <Name>
MLS-573151

>  <Synonyms>
MLS000573151

>  <Target>
Rho

>  <Form>
free base

>  <CAS>
10179-57-4

>  <URL>
http://www.selleckchem.com/products/mls-573151.html

$$$$
