MLS000532223
 OpenBabel08302521283D

 28 29  0  0  0  0  0  0  0  0999 V2000
    4.1534    0.3321    0.5800 O   0  0  0  0  0  0  0  0  0  0  0  0
    8.2334   -1.7981   -1.1815 O   0  5  0  0  0  0  0  0  0  0  0  0
    8.1072   -3.2038   -2.8608 O   0  0  0  0  0  0  0  0  0  0  0  0
    7.6001   -2.4246   -2.0415 N   0  3  0  0  0  0  0  0  0  0  0  0
    4.1287   -1.2127   -1.2211 C   0  0  0  0  0  0  0  0  0  0  0  0
    6.1444   -2.2361   -2.0922 C   0  0  0  0  0  0  0  0  0  0  0  0
    5.5227   -1.3660   -1.1867 C   0  0  0  0  0  0  0  0  0  0  0  0
    3.3766   -1.9153   -2.1756 C   0  0  0  0  0  0  0  0  0  0  0  0
    5.3895   -2.9422   -3.0389 C   0  0  0  0  0  0  0  0  0  0  0  0
    4.0057   -2.7750   -3.0795 C   0  0  0  0  0  0  0  0  0  0  0  0
    3.4921   -0.3149   -0.2196 C   0  0  0  0  0  0  0  0  0  0  0  0
   -0.5719   -0.0613   -0.0816 C   0  0  0  0  0  0  0  0  0  0  0  0
   -1.3558   -1.2086    0.0626 C   0  0  0  0  0  0  0  0  0  0  0  0
   -1.1795    1.1951   -0.1414 C   0  0  0  0  0  0  0  0  0  0  0  0
   -2.7446   -1.0962    0.1596 C   0  0  0  0  0  0  0  0  0  0  0  0
   -2.5674    1.3053   -0.0446 C   0  0  0  0  0  0  0  0  0  0  0  0
   -3.3485    0.1601    0.1086 C   0  0  0  0  0  0  0  0  0  0  0  0
    2.0516   -0.2293   -0.1862 C   0  0  0  0  0  0  0  0  0  0  0  0
    0.8518   -0.1608   -0.1471 C   0  0  0  0  0  0  0  0  0  0  0  0
    6.1078   -0.8151   -0.4505 H   0  0  0  0  0  0  0  0  0  0  0  0
    2.2952   -1.8117   -2.2340 H   0  0  0  0  0  0  0  0  0  0  0  0
    5.8610   -3.6237   -3.7447 H   0  0  0  0  0  0  0  0  0  0  0  0
    3.4128   -3.3194   -3.8122 H   0  0  0  0  0  0  0  0  0  0  0  0
   -0.8948   -2.1917    0.1120 H   0  0  0  0  0  0  0  0  0  0  0  0
   -0.5767    2.0932   -0.2519 H   0  0  0  0  0  0  0  0  0  0  0  0
   -3.3553   -1.9869    0.2834 H   0  0  0  0  0  0  0  0  0  0  0  0
   -3.0367    2.2849   -0.0802 H   0  0  0  0  0  0  0  0  0  0  0  0
   -4.4288    0.2484    0.1937 H   0  0  0  0  0  0  0  0  0  0  0  0
  1 11  2  0  0  0  0
  2  4  1  0  0  0  0
  3  4  2  0  0  0  0
  4  6  1  0  0  0  0
  5  7  1  0  0  0  0
  5  8  2  0  0  0  0
  5 11  1  0  0  0  0
  6  7  2  0  0  0  0
  6  9  1  0  0  0  0
  7 20  1  0  0  0  0
  8 10  1  0  0  0  0
  8 21  1  0  0  0  0
  9 10  2  0  0  0  0
  9 22  1  0  0  0  0
 10 23  1  0  0  0  0
 11 18  1  0  0  0  0
 12 13  2  0  0  0  0
 12 14  1  0  0  0  0
 12 19  1  0  0  0  0
 13 15  1  0  0  0  0
 13 24  1  0  0  0  0
 14 16  2  0  0  0  0
 14 25  1  0  0  0  0
 15 17  2  0  0  0  0
 15 26  1  0  0  0  0
 16 17  1  0  0  0  0
 16 27  1  0  0  0  0
 17 28  1  0  0  0  0
 18 19  3  0  0  0  0
M  CHG  2   2  -1   4   1
M  END
>  <Mol_ID>
5407

>  <Formula>
C15H9NO3

>  <MolWeight>
251.23686

>  <Cat>
S0890

>  <Name>
MLS000532223

>  <Synonyms>
N/A

>  <Target>
Rho

>  <Form>
Free Base

>  <CAS>
16616-39-0

>  <URL>
https://www.selleckchem.com/products/mls000532223.html

$$$$
