MN 64
 OpenBabel08302521233D

 36 38  0  0  0  0  0  0  0  0999 V2000
   -1.8322   -1.5268   -0.0255 C   0  0  0  0  0  0  0  0  0  0  0  0
   -1.4852   -1.0294    1.1716 C   0  0  0  0  0  0  0  0  0  0  0  0
   -0.6546    0.1816    1.2403 C   0  0  0  0  0  0  0  0  0  0  0  0
   -0.3005    0.8055   -0.0410 C   0  0  0  0  0  0  0  0  0  0  0  0
    0.4365    1.9918   -0.0805 C   0  0  0  0  0  0  0  0  0  0  0  0
    0.7495    2.5639   -1.3137 C   0  0  0  0  0  0  0  0  0  0  0  0
    0.3318    1.9496   -2.4974 C   0  0  0  0  0  0  0  0  0  0  0  0
   -0.4028    0.7641   -2.4507 C   0  0  0  0  0  0  0  0  0  0  0  0
   -0.7217    0.1950   -1.2184 C   0  0  0  0  0  0  0  0  0  0  0  0
   -1.4561   -0.9618   -1.2359 O   0  0  0  0  0  0  0  0  0  0  0  0
   -0.2933    0.6392    2.3176 O   0  0  0  0  0  0  0  0  0  0  0  0
   -2.6911   -2.7228   -0.1604 C   0  0  0  0  0  0  0  0  0  0  0  0
   -3.5634   -2.8440   -1.2535 C   0  0  0  0  0  0  0  0  0  0  0  0
   -4.3971   -3.9579   -1.3913 C   0  0  0  0  0  0  0  0  0  0  0  0
   -4.3791   -4.9835   -0.4397 C   0  0  0  0  0  0  0  0  0  0  0  0
   -3.4917   -4.8779    0.6389 C   0  0  0  0  0  0  0  0  0  0  0  0
   -2.6573   -3.7660    0.7745 C   0  0  0  0  0  0  0  0  0  0  0  0
   -5.3250   -6.1618   -0.5702 C   0  0  0  0  0  0  0  0  0  0  0  0
   -4.5670   -7.4842   -0.7071 C   0  0  0  0  0  0  0  0  0  0  0  0
   -6.3000   -6.2045    0.6099 C   0  0  0  0  0  0  0  0  0  0  0  0
   -1.7894   -1.4516    2.1204 H   0  0  0  0  0  0  0  0  0  0  0  0
    0.7605    2.4682    0.8421 H   0  0  0  0  0  0  0  0  0  0  0  0
    1.3189    3.4900   -1.3525 H   0  0  0  0  0  0  0  0  0  0  0  0
    0.5786    2.3974   -3.4570 H   0  0  0  0  0  0  0  0  0  0  0  0
   -0.7279    0.2878   -3.3722 H   0  0  0  0  0  0  0  0  0  0  0  0
   -3.6155   -2.0610   -2.0073 H   0  0  0  0  0  0  0  0  0  0  0  0
   -5.0686   -4.0090   -2.2462 H   0  0  0  0  0  0  0  0  0  0  0  0
   -3.4452   -5.6594    1.3942 H   0  0  0  0  0  0  0  0  0  0  0  0
   -1.9819   -3.7353    1.6261 H   0  0  0  0  0  0  0  0  0  0  0  0
   -5.9234   -6.0356   -1.4824 H   0  0  0  0  0  0  0  0  0  0  0  0
   -3.9550   -7.7015    0.1750 H   0  0  0  0  0  0  0  0  0  0  0  0
   -5.2654   -8.3173   -0.8398 H   0  0  0  0  0  0  0  0  0  0  0  0
   -3.9006   -7.4629   -1.5768 H   0  0  0  0  0  0  0  0  0  0  0  0
   -6.8559   -5.2629    0.6884 H   0  0  0  0  0  0  0  0  0  0  0  0
   -7.0251   -7.0145    0.4859 H   0  0  0  0  0  0  0  0  0  0  0  0
   -5.7827   -6.3630    1.5628 H   0  0  0  0  0  0  0  0  0  0  0  0
  1  2  2  0  0  0  0
  1 10  1  0  0  0  0
  1 12  1  0  0  0  0
  2  3  1  0  0  0  0
  2 21  1  0  0  0  0
  3  4  1  0  0  0  0
  3 11  2  0  0  0  0
  4  5  2  0  0  0  0
  4  9  1  0  0  0  0
  5  6  1  0  0  0  0
  5 22  1  0  0  0  0
  6  7  2  0  0  0  0
  6 23  1  0  0  0  0
  7  8  1  0  0  0  0
  7 24  1  0  0  0  0
  8  9  2  0  0  0  0
  8 25  1  0  0  0  0
  9 10  1  0  0  0  0
 12 13  2  0  0  0  0
 12 17  1  0  0  0  0
 13 14  1  0  0  0  0
 13 26  1  0  0  0  0
 14 15  2  0  0  0  0
 14 27  1  0  0  0  0
 15 16  1  0  0  0  0
 15 18  1  0  0  0  0
 16 17  2  0  0  0  0
 16 28  1  0  0  0  0
 17 29  1  0  0  0  0
 18 19  1  0  0  0  0
 18 20  1  0  0  0  0
 18 30  1  0  0  0  0
 19 31  1  0  0  0  0
 19 32  1  0  0  0  0
 19 33  1  0  0  0  0
 20 34  1  0  0  0  0
 20 35  1  0  0  0  0
 20 36  1  0  0  0  0
M  END
>  <Mol_ID>
4784

>  <Formula>
C18H16O2

>  <MolWeight>
264.31844

>  <Cat>
S6739

>  <Name>
MN 64

>  <Synonyms>
N/A

>  <Target>
PARP

>  <Form>
Free Base

>  <CAS>
92831-11-3

>  <URL>
http://www.selleck.cn/products/mn-64.html

$$$$
