MNITMT
 OpenBabel08302521323D

 24 25  0  0  0  0  0  0  0  0999 V2000
    0.0456   -5.6343    2.6904 N   0  0  0  0  0  0  0  0  0  0  0  0
    0.6622   -4.5060    2.2049 N   0  0  0  0  0  0  0  0  0  0  0  0
    0.1381   -4.2322    1.0310 C   0  0  0  0  0  0  0  0  0  0  0  0
   -0.8012   -5.1737    0.7234 N   0  0  0  0  0  0  0  0  0  0  0  0
   -0.8365   -6.0176    1.7968 C   0  0  0  0  0  0  0  0  0  0  0  0
    0.4688   -2.8248    0.0828 S   0  0  0  0  0  0  0  0  0  0  0  0
    4.3417   -2.7513    0.4892 C   0  0  0  0  0  0  0  0  0  0  0  0
    4.3585   -3.2902   -0.7077 N   0  0  0  0  0  0  0  0  0  0  0  0
    3.0264   -3.4482   -1.0468 C   0  0  0  0  0  0  0  0  0  0  0  0
    2.1980   -2.9867   -0.0372 C   0  0  0  0  0  0  0  0  0  0  0  0
    3.0627   -2.5531    0.9437 N   0  0  0  0  0  0  0  0  0  0  0  0
    2.6766   -4.0203   -2.3293 N   0  3  0  0  0  0  0  0  0  0  0  0
    1.4700   -4.1988   -2.5662 O   0  0  0  0  0  0  0  0  0  0  0  0
    3.5994   -4.3043   -3.1046 O   0  5  0  0  0  0  0  0  0  0  0  0
    2.7552   -1.9754    2.2315 C   0  0  0  0  0  0  0  0  0  0  0  0
   -1.6133   -5.3199   -0.4548 C   0  0  0  0  0  0  0  0  0  0  0  0
   -1.4997   -6.8675    1.8783 H   0  0  0  0  0  0  0  0  0  0  0  0
    5.2181   -2.4830    1.0674 H   0  0  0  0  0  0  0  0  0  0  0  0
    2.0419   -1.1596    2.0989 H   0  0  0  0  0  0  0  0  0  0  0  0
    2.3532   -2.7533    2.8814 H   0  0  0  0  0  0  0  0  0  0  0  0
    3.6722   -1.5798    2.6778 H   0  0  0  0  0  0  0  0  0  0  0  0
   -1.7092   -6.3860   -0.6837 H   0  0  0  0  0  0  0  0  0  0  0  0
   -2.5989   -4.8955   -0.2479 H   0  0  0  0  0  0  0  0  0  0  0  0
   -1.1506   -4.8169   -1.3053 H   0  0  0  0  0  0  0  0  0  0  0  0
  1  2  1  0  0  0  0
  1  5  2  0  0  0  0
  2  3  2  0  0  0  0
  3  4  1  0  0  0  0
  3  6  1  0  0  0  0
  4  5  1  0  0  0  0
  4 16  1  0  0  0  0
  5 17  1  0  0  0  0
  6 10  1  0  0  0  0
  7  8  2  0  0  0  0
  7 11  1  0  0  0  0
  7 18  1  0  0  0  0
  8  9  1  0  0  0  0
  9 10  2  0  0  0  0
  9 12  1  0  0  0  0
 10 11  1  0  0  0  0
 11 15  1  0  0  0  0
 12 13  2  0  0  0  0
 12 14  1  0  0  0  0
 15 19  1  0  0  0  0
 15 20  1  0  0  0  0
 15 21  1  0  0  0  0
 16 22  1  0  0  0  0
 16 23  1  0  0  0  0
 16 24  1  0  0  0  0
M  CHG  2  12   1  14  -1
M  END
>  <Mol_ID>
6336

>  <Formula>
C7H8N6O2S

>  <MolWeight>
240.24242

>  <Cat>
E0780

>  <Name>
MNITMT

>  <Target>
Immunology & Inflammation related

>  <Form>
free base

>  <CAS>
177653-76-8

>  <URL>
http://www.selleckchem.com/products/mntmt.html

$$$$
