Moguisteine.cdx
 OpenBabel08302521343D

 44 45  0  0  0  0  0  0  0  0999 V2000
    0.9061   -3.3389    2.4137 C   0  0  0  0  0  0  0  0  0  0  0  0
    0.3723   -3.1931    1.1189 C   0  0  0  0  0  0  0  0  0  0  0  0
   -1.0230   -3.3113    0.9652 C   0  0  0  0  0  0  0  0  0  0  0  0
   -1.8430   -3.4838    2.0930 C   0  0  0  0  0  0  0  0  0  0  0  0
   -1.2974   -3.5845    3.3701 C   0  0  0  0  0  0  0  0  0  0  0  0
    0.0796   -3.5253    3.5273 C   0  0  0  0  0  0  0  0  0  0  0  0
   -1.7393   -3.2178   -0.2011 O   0  0  0  0  0  0  0  0  0  0  0  0
   -1.1400   -3.8107   -1.3454 C   0  0  0  0  0  0  0  0  0  0  0  0
    1.1515   -2.9203    0.0148 O   0  0  0  0  0  0  0  0  0  0  0  0
    2.5263   -2.5571    0.2541 C   0  0  0  0  0  0  0  0  0  0  0  0
    3.2283   -1.9778   -1.0067 C   0  0  3  0  0  0  0  0  0  0  0  0
    4.6332   -1.6215   -0.7590 N   0  0  0  0  0  0  0  0  0  0  0  0
    4.8070   -0.2929   -0.1881 C   0  0  0  0  0  0  0  0  0  0  0  0
    3.7312    0.6401   -0.7231 C   0  0  0  0  0  0  0  0  0  0  0  0
    2.4577   -0.3910   -1.4898 S   0  0  0  0  0  0  0  0  0  0  0  0
    5.6445   -2.5320   -0.9991 C   0  0  0  0  0  0  0  0  0  0  0  0
    5.4015   -3.6466   -1.4707 O   0  0  0  0  0  0  0  0  0  0  0  0
    7.0568   -2.1666   -0.6043 C   0  0  0  0  0  0  0  0  0  0  0  0
    7.8228   -1.2825   -1.5412 C   0  0  0  0  0  0  0  0  0  0  0  0
    7.4196   -1.3968   -2.8313 O   0  0  0  0  0  0  0  0  0  0  0  0
    8.7580   -0.5867   -1.1669 O   0  0  0  0  0  0  0  0  0  0  0  0
    8.2381   -0.7470   -3.8205 C   0  0  0  0  0  0  0  0  0  0  0  0
    7.8649    0.7158   -3.9805 C   0  0  0  0  0  0  0  0  0  0  0  0
    1.9717   -3.3030    2.5976 H   0  0  0  0  0  0  0  0  0  0  0  0
   -2.9224   -3.5474    1.9666 H   0  0  0  0  0  0  0  0  0  0  0  0
   -1.9460   -3.7128    4.2327 H   0  0  0  0  0  0  0  0  0  0  0  0
    0.5156   -3.6136    4.5187 H   0  0  0  0  0  0  0  0  0  0  0  0
   -0.4885   -3.0904   -1.8460 H   0  0  0  0  0  0  0  0  0  0  0  0
   -0.6082   -4.7385   -1.1081 H   0  0  0  0  0  0  0  0  0  0  0  0
   -1.9450   -4.0646   -2.0436 H   0  0  0  0  0  0  0  0  0  0  0  0
    2.5844   -1.8121    1.0592 H   0  0  0  0  0  0  0  0  0  0  0  0
    3.0675   -3.4568    0.5689 H   0  0  0  0  0  0  0  0  0  0  0  0
    3.1452   -2.6860   -1.8377 H   0  0  0  0  0  0  0  0  0  0  0  0
    4.7273   -0.3923    0.9012 H   0  0  0  0  0  0  0  0  0  0  0  0
    5.8011    0.1090   -0.4016 H   0  0  0  0  0  0  0  0  0  0  0  0
    3.3004    1.2442    0.0801 H   0  0  0  0  0  0  0  0  0  0  0  0
    4.1461    1.3173   -1.4757 H   0  0  0  0  0  0  0  0  0  0  0  0
    7.0402   -1.7022    0.3875 H   0  0  0  0  0  0  0  0  0  0  0  0
    7.6283   -3.0974   -0.5043 H   0  0  0  0  0  0  0  0  0  0  0  0
    9.3045   -0.8632   -3.5906 H   0  0  0  0  0  0  0  0  0  0  0  0
    8.0573   -1.2710   -4.7643 H   0  0  0  0  0  0  0  0  0  0  0  0
    8.2231    1.3058   -3.1309 H   0  0  0  0  0  0  0  0  0  0  0  0
    8.3131    1.1290   -4.8903 H   0  0  0  0  0  0  0  0  0  0  0  0
    6.7793    0.8426   -4.0298 H   0  0  0  0  0  0  0  0  0  0  0  0
  1  2  2  0  0  0  0
  1 24  1  0  0  0  0
  2  3  1  0  0  0  0
  2  9  1  0  0  0  0
  3  4  2  0  0  0  0
  3  7  1  0  0  0  0
  4  5  1  0  0  0  0
  4 25  1  0  0  0  0
  5  6  2  0  0  0  0
  5 26  1  0  0  0  0
  6  1  1  0  0  0  0
  6 27  1  0  0  0  0
  7  8  1  0  0  0  0
  8 28  1  0  0  0  0
  8 29  1  0  0  0  0
  8 30  1  0  0  0  0
  9 10  1  0  0  0  0
 10 11  1  0  0  0  0
 10 31  1  0  0  0  0
 10 32  1  0  0  0  0
 11 12  1  0  0  0  0
 11 33  1  0  0  0  0
 12 13  1  0  0  0  0
 12 16  1  0  0  0  0
 13 14  1  0  0  0  0
 13 34  1  0  0  0  0
 13 35  1  0  0  0  0
 14 15  1  0  0  0  0
 14 36  1  0  0  0  0
 14 37  1  0  0  0  0
 15 11  1  0  0  0  0
 16 17  2  0  0  0  0
 16 18  1  0  0  0  0
 18 19  1  0  0  0  0
 18 38  1  0  0  0  0
 18 39  1  0  0  0  0
 19 20  1  0  0  0  0
 19 21  2  0  0  0  0
 20 22  1  0  0  0  0
 22 23  1  0  0  0  0
 22 40  1  0  0  0  0
 22 41  1  0  0  0  0
 23 42  1  0  0  0  0
 23 43  1  0  0  0  0
 23 44  1  0  0  0  0
M  END
>  <Mol_ID>
616

>  <Formula>
C16H21NO5S

>  <MolWeight>
339.40664

>  <Cat>
S3104

>  <Name>
Moguisteine

>  <Synonyms>
BBR-2173

>  <Target>
Others

>  <Form>
free base

>  <CAS>
119637-67-1

>  <URL>
http://selleckchem.com/products/moguisteine.html

$$$$
