Molidustat(BAY 85-3934).cdx
 OpenBabel08302521393D

 37 40  0  0  0  0  0  0  0  0999 V2000
   -1.2338    0.6314   -0.0056 N   0  0  0  0  0  0  0  0  0  0  0  0
   -0.0191    1.1841    0.0613 C   0  0  0  0  0  0  0  0  0  0  0  0
    1.1362    0.5228    0.0857 N   0  0  0  0  0  0  0  0  0  0  0  0
    1.0562   -0.8130    0.0169 C   0  0  0  0  0  0  0  0  0  0  0  0
   -0.1536   -1.4682   -0.0946 C   0  0  0  0  0  0  0  0  0  0  0  0
   -1.3054   -0.7091   -0.0723 C   0  0  0  0  0  0  0  0  0  0  0  0
   -2.5475   -1.2965   -0.0693 N   0  0  0  0  0  0  0  0  0  0  0  0
    2.2451   -1.5584    0.0740 N   0  0  0  0  0  0  0  0  0  0  0  0
    2.3250   -2.9095   -0.3062 N   0  0  0  0  0  0  0  0  0  0  0  0
    3.6457   -3.2549   -0.1106 C   0  0  0  0  0  0  0  0  0  0  0  0
    4.3888   -2.2943    0.4626 C   0  0  0  0  0  0  0  0  0  0  0  0
    3.4633   -1.1367    0.5962 C   0  0  0  0  0  0  0  0  0  0  0  0
    3.7754   -0.0684    1.0947 O   0  0  0  0  0  0  0  0  0  0  0  0
    5.7228   -2.3394    0.8215 N   0  0  0  0  0  0  0  0  0  0  0  0
    6.4486   -1.3494    1.4656 C   0  0  0  0  0  0  0  0  0  0  0  0
    7.7133   -1.8443    1.6185 C   0  0  0  0  0  0  0  0  0  0  0  0
    7.7726   -3.0924    1.0906 N   0  0  0  0  0  0  0  0  0  0  0  0
    6.5709   -3.3938    0.6158 N   0  0  0  0  0  0  0  0  0  0  0  0
   -2.8573   -2.5757   -0.7086 C   0  0  0  0  0  0  0  0  0  0  0  0
   -4.0092   -2.3935   -1.7118 C   0  0  0  0  0  0  0  0  0  0  0  0
   -5.1526   -1.7666   -1.1106 O   0  0  0  0  0  0  0  0  0  0  0  0
   -4.7985   -0.4667   -0.6043 C   0  0  0  0  0  0  0  0  0  0  0  0
   -3.7042   -0.5677    0.4634 C   0  0  0  0  0  0  0  0  0  0  0  0
    0.0326    2.2668    0.0979 H   0  0  0  0  0  0  0  0  0  0  0  0
   -0.1985   -2.5484   -0.0844 H   0  0  0  0  0  0  0  0  0  0  0  0
    2.0225   -3.0757   -1.2692 H   0  0  0  0  0  0  0  0  0  0  0  0
    3.9789   -4.2372   -0.4264 H   0  0  0  0  0  0  0  0  0  0  0  0
    6.0042   -0.4088    1.7602 H   0  0  0  0  0  0  0  0  0  0  0  0
    8.5698   -1.3727    2.0793 H   0  0  0  0  0  0  0  0  0  0  0  0
   -3.1558   -3.2840    0.0727 H   0  0  0  0  0  0  0  0  0  0  0  0
   -2.0045   -3.0056   -1.2434 H   0  0  0  0  0  0  0  0  0  0  0  0
   -3.6867   -1.7932   -2.5711 H   0  0  0  0  0  0  0  0  0  0  0  0
   -4.3256   -3.3711   -2.0891 H   0  0  0  0  0  0  0  0  0  0  0  0
   -5.7003   -0.0250   -0.1691 H   0  0  0  0  0  0  0  0  0  0  0  0
   -4.4799    0.1686   -1.4390 H   0  0  0  0  0  0  0  0  0  0  0  0
   -4.0871   -1.1420    1.3165 H   0  0  0  0  0  0  0  0  0  0  0  0
   -3.4625    0.4319    0.8423 H   0  0  0  0  0  0  0  0  0  0  0  0
  1  2  2  0  0  0  0
  2  3  1  0  0  0  0
  2 24  1  0  0  0  0
  3  4  2  0  0  0  0
  4  5  1  0  0  0  0
  4  8  1  0  0  0  0
  5  6  2  0  0  0  0
  5 25  1  0  0  0  0
  6  1  1  0  0  0  0
  6  7  1  0  0  0  0
  7 19  1  0  0  0  0
  8  9  1  0  0  0  0
  9 10  1  0  0  0  0
  9 26  1  0  0  0  0
 10 11  2  0  0  0  0
 10 27  1  0  0  0  0
 11 12  1  0  0  0  0
 11 14  1  0  0  0  0
 12  8  1  0  0  0  0
 12 13  2  0  0  0  0
 14 15  1  0  0  0  0
 15 16  2  0  0  0  0
 15 28  1  0  0  0  0
 16 17  1  0  0  0  0
 16 29  1  0  0  0  0
 17 18  2  0  0  0  0
 18 14  1  0  0  0  0
 19 20  1  0  0  0  0
 19 30  1  0  0  0  0
 19 31  1  0  0  0  0
 20 21  1  0  0  0  0
 20 32  1  0  0  0  0
 20 33  1  0  0  0  0
 21 22  1  0  0  0  0
 22 23  1  0  0  0  0
 22 34  1  0  0  0  0
 22 35  1  0  0  0  0
 23  7  1  0  0  0  0
 23 36  1  0  0  0  0
 23 37  1  0  0  0  0
M  END
>  <Mol_ID>
8173

>  <Formula>
C13H14N8O2

>  <MolWeight>
314.30266

>  <Cat>
S8138

>  <Name>
Molidustat (BAY 85-3934)

>  <Synonyms>
N/A

>  <Target>
HIF

>  <Form>
free base

>  <CAS>
1154028-82-6

>  <URL>
http://selleckchem.com/products/molidustat-(bay85-3934).html

$$$$
