MOMIPP
 OpenBabel08302521383D

 38 40  0  0  0  0  0  0  0  0999 V2000
    0.9426    0.0710   -0.1653 C   0  0  0  0  0  0  0  0  0  0  0  0
    0.4330   -1.0365    0.4177 C   0  0  0  0  0  0  0  0  0  0  0  0
    1.2309   -2.2564    0.6754 C   0  0  0  0  0  0  0  0  0  0  0  0
    2.4507   -2.2348    0.7043 O   0  0  0  0  0  0  0  0  0  0  0  0
    1.4813    2.1326   -2.5298 C   0  0  0  0  0  0  0  0  0  0  0  0
   -3.1304    1.7273    3.2169 O   0  0  0  0  0  0  0  0  0  0  0  0
   -4.2047    2.4654    3.7823 C   0  0  0  0  0  0  0  0  0  0  0  0
   -0.8711    1.8175    0.3683 C   0  0  0  0  0  0  0  0  0  0  0  0
    0.2064    1.2690   -0.4012 C   0  0  0  0  0  0  0  0  0  0  0  0
   -1.2770    2.9896   -0.2660 C   0  0  0  0  0  0  0  0  0  0  0  0
   -1.5338    1.4411    1.5566 C   0  0  0  0  0  0  0  0  0  0  0  0
    0.4648    2.1482   -1.4442 C   0  0  0  0  0  0  0  0  0  0  0  0
   -0.4569    3.1668   -1.3562 N   0  0  0  0  0  0  0  0  0  0  0  0
   -2.3327    3.7758    0.2089 C   0  0  0  0  0  0  0  0  0  0  0  0
   -2.5857    2.2134    2.0590 C   0  0  0  0  0  0  0  0  0  0  0  0
   -2.9829    3.3628    1.3810 C   0  0  0  0  0  0  0  0  0  0  0  0
    0.5180   -3.5269    0.9968 C   0  0  0  0  0  0  0  0  0  0  0  0
   -0.7468   -3.8206    0.4870 C   0  0  0  0  0  0  0  0  0  0  0  0
    1.1613   -4.4588    1.8123 C   0  0  0  0  0  0  0  0  0  0  0  0
   -1.3433   -5.0091    0.8740 C   0  0  0  0  0  0  0  0  0  0  0  0
    0.4853   -5.6239    2.1345 C   0  0  0  0  0  0  0  0  0  0  0  0
   -0.7593   -5.9080    1.6955 N   0  0  0  0  0  0  0  0  0  0  0  0
    1.9700    0.0635   -0.5177 H   0  0  0  0  0  0  0  0  0  0  0  0
   -0.6008   -1.0732    0.7258 H   0  0  0  0  0  0  0  0  0  0  0  0
    0.9951    2.0524   -3.5068 H   0  0  0  0  0  0  0  0  0  0  0  0
    2.0788    3.0501   -2.5119 H   0  0  0  0  0  0  0  0  0  0  0  0
    2.1708    1.2889   -2.4321 H   0  0  0  0  0  0  0  0  0  0  0  0
   -3.8911    3.4794    4.0510 H   0  0  0  0  0  0  0  0  0  0  0  0
   -5.0667    2.4816    3.1077 H   0  0  0  0  0  0  0  0  0  0  0  0
   -4.5103    1.9572    4.7020 H   0  0  0  0  0  0  0  0  0  0  0  0
   -1.2258    0.5557    2.1031 H   0  0  0  0  0  0  0  0  0  0  0  0
   -0.5181    3.9487   -1.9934 H   0  0  0  0  0  0  0  0  0  0  0  0
   -2.6410    4.6801   -0.3052 H   0  0  0  0  0  0  0  0  0  0  0  0
   -3.8010    3.9770    1.7424 H   0  0  0  0  0  0  0  0  0  0  0  0
   -1.2615   -3.1602   -0.2013 H   0  0  0  0  0  0  0  0  0  0  0  0
    2.1617   -4.2804    2.1970 H   0  0  0  0  0  0  0  0  0  0  0  0
   -2.3404   -5.2745    0.5315 H   0  0  0  0  0  0  0  0  0  0  0  0
    0.9371   -6.3772    2.7744 H   0  0  0  0  0  0  0  0  0  0  0  0
  1  2  2  0  0  0  0
  1  9  1  0  0  0  0
  1 23  1  0  0  0  0
  2  3  1  0  0  0  0
  2 24  1  0  0  0  0
  3  4  2  0  0  0  0
  3 17  1  0  0  0  0
  5 12  1  0  0  0  0
  5 25  1  0  0  0  0
  5 26  1  0  0  0  0
  5 27  1  0  0  0  0
  6  7  1  0  0  0  0
  6 15  1  0  0  0  0
  7 28  1  0  0  0  0
  7 29  1  0  0  0  0
  7 30  1  0  0  0  0
  8  9  1  0  0  0  0
  8 10  1  0  0  0  0
  8 11  2  0  0  0  0
  9 12  2  0  0  0  0
 10 13  1  0  0  0  0
 10 14  2  0  0  0  0
 11 15  1  0  0  0  0
 11 31  1  0  0  0  0
 12 13  1  0  0  0  0
 13 32  1  0  0  0  0
 14 16  1  0  0  0  0
 14 33  1  0  0  0  0
 15 16  2  0  0  0  0
 16 34  1  0  0  0  0
 17 18  2  0  0  0  0
 17 19  1  0  0  0  0
 18 20  1  0  0  0  0
 18 35  1  0  0  0  0
 19 21  2  0  0  0  0
 19 36  1  0  0  0  0
 20 22  2  0  0  0  0
 20 37  1  0  0  0  0
 21 22  1  0  0  0  0
 21 38  1  0  0  0  0
M  END
>  <Mol_ID>
7610

>  <Formula>
C18H16N2O2

>  <MolWeight>
292.33184

>  <Cat>
E2933

>  <Name>
MOMIPP

>  <Target>
PIKfyve

>  <Form>
free base

>  <CAS>
1363421-46-8

>  <URL>
https://www.selleckchem.com/products/momipp.html

$$$$
