Monastrol.cdx
 OpenBabel08302520433D

 36 37  0  0  0  0  0  0  0  0999 V2000
   -1.1194    1.2522   -0.1533 C   0  0  0  0  0  0  0  0  0  0  0  0
   -1.8506    0.0635   -0.1794 C   0  0  0  0  0  0  0  0  0  0  0  0
   -1.2056   -1.1891   -0.1132 C   0  0  0  0  0  0  0  0  0  0  0  0
    0.1956   -1.2178   -0.0066 C   0  0  0  0  0  0  0  0  0  0  0  0
    0.9137   -0.0203    0.0291 C   0  0  0  0  0  0  0  0  0  0  0  0
    0.2679    1.2087   -0.0460 C   0  0  0  0  0  0  0  0  0  0  0  0
   -2.0513   -2.4563   -0.0483 C   0  0  3  0  0  0  0  0  0  0  0  0
    2.2725   -0.0079    0.1443 O   0  0  0  0  0  0  0  0  0  0  0  0
   -1.7047   -3.1173    1.2072 N   0  0  0  0  0  0  0  0  0  0  0  0
   -1.9885   -4.4136    1.4552 C   0  0  0  0  0  0  0  0  0  0  0  0
   -2.2372   -5.1919    0.3735 N   0  0  0  0  0  0  0  0  0  0  0  0
   -2.1684   -4.7748   -0.9448 C   0  0  0  0  0  0  0  0  0  0  0  0
   -2.0480   -3.4496   -1.2062 C   0  0  0  0  0  0  0  0  0  0  0  0
   -1.9678   -5.0335    2.9932 S   0  0  0  0  0  0  0  0  0  0  0  0
   -2.2861   -5.9297   -1.9065 C   0  0  0  0  0  0  0  0  0  0  0  0
   -2.0950   -2.9618   -2.6204 C   0  0  0  0  0  0  0  0  0  0  0  0
   -1.8890   -3.6386   -3.6060 O   0  0  0  0  0  0  0  0  0  0  0  0
   -2.3525   -1.6299   -2.6622 O   0  0  0  0  0  0  0  0  0  0  0  0
   -1.8703   -0.9480   -3.8344 C   0  0  0  0  0  0  0  0  0  0  0  0
   -0.4026   -0.6060   -3.6309 C   0  0  0  0  0  0  0  0  0  0  0  0
   -1.6309    2.2095   -0.2106 H   0  0  0  0  0  0  0  0  0  0  0  0
   -2.9354    0.1205   -0.2540 H   0  0  0  0  0  0  0  0  0  0  0  0
    0.7083   -2.1713    0.0780 H   0  0  0  0  0  0  0  0  0  0  0  0
    0.8431    2.1295   -0.0167 H   0  0  0  0  0  0  0  0  0  0  0  0
   -3.0946   -2.1572    0.0794 H   0  0  0  0  0  0  0  0  0  0  0  0
    2.5889   -0.9239    0.2125 H   0  0  0  0  0  0  0  0  0  0  0  0
   -1.5387   -2.5359    2.0208 H   0  0  0  0  0  0  0  0  0  0  0  0
   -2.4087   -6.1733    0.5704 H   0  0  0  0  0  0  0  0  0  0  0  0
   -1.5303   -6.6860   -1.6626 H   0  0  0  0  0  0  0  0  0  0  0  0
   -3.2726   -6.3954   -1.8072 H   0  0  0  0  0  0  0  0  0  0  0  0
   -2.1439   -5.6949   -2.9574 H   0  0  0  0  0  0  0  0  0  0  0  0
   -2.0170   -1.5323   -4.7488 H   0  0  0  0  0  0  0  0  0  0  0  0
   -2.4494   -0.0244   -3.9391 H   0  0  0  0  0  0  0  0  0  0  0  0
    0.2023   -1.5108   -3.5121 H   0  0  0  0  0  0  0  0  0  0  0  0
   -0.0101   -0.0243   -4.4670 H   0  0  0  0  0  0  0  0  0  0  0  0
   -0.2714   -0.0203   -2.7200 H   0  0  0  0  0  0  0  0  0  0  0  0
  1  2  2  0  0  0  0
  1 21  1  0  0  0  0
  2  3  1  0  0  0  0
  2 22  1  0  0  0  0
  3  4  2  0  0  0  0
  3  7  1  0  0  0  0
  4  5  1  0  0  0  0
  4 23  1  0  0  0  0
  5  6  2  0  0  0  0
  5  8  1  0  0  0  0
  6  1  1  0  0  0  0
  6 24  1  0  0  0  0
  7  9  1  0  0  0  0
  7 25  1  0  0  0  0
  8 26  1  0  0  0  0
  9 10  1  0  0  0  0
  9 27  1  0  0  0  0
 10 11  1  0  0  0  0
 10 14  2  0  0  0  0
 11 12  1  0  0  0  0
 11 28  1  0  0  0  0
 12 13  2  0  0  0  0
 12 15  1  0  0  0  0
 13  7  1  0  0  0  0
 13 16  1  0  0  0  0
 15 29  1  0  0  0  0
 15 30  1  0  0  0  0
 15 31  1  0  0  0  0
 16 17  2  0  0  0  0
 16 18  1  0  0  0  0
 18 19  1  0  0  0  0
 19 20  1  0  0  0  0
 19 32  1  0  0  0  0
 19 33  1  0  0  0  0
 20 34  1  0  0  0  0
 20 35  1  0  0  0  0
 20 36  1  0  0  0  0
M  END
>  <Mol_ID>
4095

>  <Formula>
C14H16N2O3S

>  <MolWeight>
292.35344

>  <Cat>
S8439

>  <Name>
Monastrol

>  <Synonyms>
(¡À)-Monastrol

>  <Target>
Kinesin

>  <Form>
free base

>  <CAS>
329689-23-8

>  <URL>
http://selleckchem.com/products/monastrol.html

$$$$
