Monolaurin
 OpenBabel08302521373D

 49 48  0  0  0  0  0  0  0  0999 V2000
    2.9178    2.9311   -2.5511 C   0  0  0  0  0  0  0  0  0  0  0  0
    2.6426    4.4142   -2.4138 C   0  0  0  0  0  0  0  0  0  0  0  0
    2.2351    2.0767   -1.4783 C   0  0  0  0  0  0  0  0  0  0  0  0
    2.5994    4.9889   -3.6464 O   0  0  0  0  0  0  0  0  0  0  0  0
    2.4971    5.0105   -1.3562 O   0  0  0  0  0  0  0  0  0  0  0  0
    0.7056    2.1590   -1.4520 C   0  0  0  0  0  0  0  0  0  0  0  0
    2.1664    6.3669   -3.7141 C   0  0  0  0  0  0  0  0  0  0  0  0
    0.0496    1.7435   -2.7675 C   0  0  0  0  0  0  0  0  0  0  0  0
    0.6322    6.4271   -3.7903 C   0  0  3  0  0  0  0  0  0  0  0  0
   -1.4718    1.8644   -2.6949 C   0  0  0  0  0  0  0  0  0  0  0  0
    0.0806    7.8520   -3.9420 C   0  0  0  0  0  0  0  0  0  0  0  0
    0.1821    5.6495   -4.9137 O   0  0  0  0  0  0  0  0  0  0  0  0
   -2.1089    1.4975   -4.0343 C   0  0  0  0  0  0  0  0  0  0  0  0
    0.6884    8.5168   -5.0518 O   0  0  0  0  0  0  0  0  0  0  0  0
   -3.6268    1.6458   -3.9826 C   0  0  0  0  0  0  0  0  0  0  0  0
   -4.2584    1.2750   -5.3226 C   0  0  0  0  0  0  0  0  0  0  0  0
   -5.7778    1.4161   -5.2706 C   0  0  0  0  0  0  0  0  0  0  0  0
   -6.4089    1.0707   -6.6182 C   0  0  0  0  0  0  0  0  0  0  0  0
   -7.9219    1.2010   -6.5680 C   0  0  0  0  0  0  0  0  0  0  0  0
    4.0019    2.7865   -2.4980 H   0  0  0  0  0  0  0  0  0  0  0  0
    2.5996    2.5945   -3.5441 H   0  0  0  0  0  0  0  0  0  0  0  0
    2.5287    1.0308   -1.6308 H   0  0  0  0  0  0  0  0  0  0  0  0
    2.6129    2.3642   -0.4892 H   0  0  0  0  0  0  0  0  0  0  0  0
    0.3408    1.4970   -0.6505 H   0  0  0  0  0  0  0  0  0  0  0  0
    0.3903    3.1707   -1.1808 H   0  0  0  0  0  0  0  0  0  0  0  0
    2.5568    6.9465   -2.8693 H   0  0  0  0  0  0  0  0  0  0  0  0
    2.6161    6.7713   -4.6278 H   0  0  0  0  0  0  0  0  0  0  0  0
    0.4082    2.3792   -3.5834 H   0  0  0  0  0  0  0  0  0  0  0  0
    0.3280    0.7113   -3.0108 H   0  0  0  0  0  0  0  0  0  0  0  0
    0.1964    5.9621   -2.9001 H   0  0  0  0  0  0  0  0  0  0  0  0
   -1.8614    1.2098   -1.9055 H   0  0  0  0  0  0  0  0  0  0  0  0
   -1.7459    2.8930   -2.4285 H   0  0  0  0  0  0  0  0  0  0  0  0
   -0.9944    7.8172   -4.1372 H   0  0  0  0  0  0  0  0  0  0  0  0
    0.2666    8.4444   -3.0403 H   0  0  0  0  0  0  0  0  0  0  0  0
    0.5019    6.1171   -5.7080 H   0  0  0  0  0  0  0  0  0  0  0  0
   -1.7028    2.1416   -4.8221 H   0  0  0  0  0  0  0  0  0  0  0  0
   -1.8459    0.4644   -4.2947 H   0  0  0  0  0  0  0  0  0  0  0  0
    0.3241    9.4193   -5.0728 H   0  0  0  0  0  0  0  0  0  0  0  0
   -4.0323    1.0033   -3.1922 H   0  0  0  0  0  0  0  0  0  0  0  0
   -3.8912    2.6794   -3.7259 H   0  0  0  0  0  0  0  0  0  0  0  0
   -3.8544    1.9203   -6.1133 H   0  0  0  0  0  0  0  0  0  0  0  0
   -3.9929    0.2420   -5.5825 H   0  0  0  0  0  0  0  0  0  0  0  0
   -6.1826    0.7584   -4.4917 H   0  0  0  0  0  0  0  0  0  0  0  0
   -6.0425    2.4442   -4.9938 H   0  0  0  0  0  0  0  0  0  0  0  0
   -6.0144    1.7376   -7.3930 H   0  0  0  0  0  0  0  0  0  0  0  0
   -6.1431    0.0467   -6.9029 H   0  0  0  0  0  0  0  0  0  0  0  0
   -8.2197    2.2143   -6.2797 H   0  0  0  0  0  0  0  0  0  0  0  0
   -8.3527    0.9856   -7.5504 H   0  0  0  0  0  0  0  0  0  0  0  0
   -8.3505    0.4983   -5.8462 H   0  0  0  0  0  0  0  0  0  0  0  0
  1  2  1  0  0  0  0
  1  3  1  0  0  0  0
  1 20  1  0  0  0  0
  1 21  1  0  0  0  0
  2  4  1  0  0  0  0
  2  5  2  0  0  0  0
  3  6  1  0  0  0  0
  3 22  1  0  0  0  0
  3 23  1  0  0  0  0
  4  7  1  0  0  0  0
  6  8  1  0  0  0  0
  6 24  1  0  0  0  0
  6 25  1  0  0  0  0
  7  9  1  0  0  0  0
  7 26  1  0  0  0  0
  7 27  1  0  0  0  0
  8 10  1  0  0  0  0
  8 28  1  0  0  0  0
  8 29  1  0  0  0  0
  9 11  1  0  0  0  0
  9 12  1  0  0  0  0
  9 30  1  0  0  0  0
 10 13  1  0  0  0  0
 10 31  1  0  0  0  0
 10 32  1  0  0  0  0
 11 14  1  0  0  0  0
 11 33  1  0  0  0  0
 11 34  1  0  0  0  0
 12 35  1  0  0  0  0
 13 15  1  0  0  0  0
 13 36  1  0  0  0  0
 13 37  1  0  0  0  0
 14 38  1  0  0  0  0
 15 16  1  0  0  0  0
 15 39  1  0  0  0  0
 15 40  1  0  0  0  0
 16 17  1  0  0  0  0
 16 41  1  0  0  0  0
 16 42  1  0  0  0  0
 17 18  1  0  0  0  0
 17 43  1  0  0  0  0
 17 44  1  0  0  0  0
 18 19  1  0  0  0  0
 18 45  1  0  0  0  0
 18 46  1  0  0  0  0
 19 47  1  0  0  0  0
 19 48  1  0  0  0  0
 19 49  1  0  0  0  0
M  END
>  <Mol_ID>
7384

>  <Formula>
C15H30O4

>  <MolWeight>
274.3963

>  <Cat>
E4455

>  <Name>
Monolaurin

>  <Synonyms>
1-Monolaurin

>  <Target>
Bacterial

>  <Form>
Free base

>  <CAS>
142-18-7

>  <URL>
https://www.selleckchem.com/products/monolaurin.html

$$$$
