Monoethyl malonic acid
 OpenBabel08302521303D

 17 16  0  0  0  0  0  0  0  0999 V2000
   -0.4583   -3.4015    2.4381 C   0  0  0  0  0  0  0  0  0  0  0  0
   -0.0690   -1.9351    2.3858 C   0  0  0  0  0  0  0  0  0  0  0  0
    1.0082   -1.7344    1.4578 O   0  0  0  0  0  0  0  0  0  0  0  0
    2.2589   -1.9655    1.9340 C   0  0  0  0  0  0  0  0  0  0  0  0
    3.2903   -1.7245    0.8810 C   0  0  0  0  0  0  0  0  0  0  0  0
    4.5298   -2.5607    1.0104 C   0  0  0  0  0  0  0  0  0  0  0  0
    4.8840   -2.9355    2.2569 O   0  0  0  0  0  0  0  0  0  0  0  0
    2.5371   -2.2895    3.0823 O   0  0  0  0  0  0  0  0  0  0  0  0
    5.2288   -2.8378    0.0424 O   0  0  0  0  0  0  0  0  0  0  0  0
   -0.6475   -3.7887    1.4315 H   0  0  0  0  0  0  0  0  0  0  0  0
   -1.3559   -3.5427    3.0469 H   0  0  0  0  0  0  0  0  0  0  0  0
    0.3479   -4.0060    2.8659 H   0  0  0  0  0  0  0  0  0  0  0  0
   -0.9167   -1.3434    2.0219 H   0  0  0  0  0  0  0  0  0  0  0  0
    0.1893   -1.5522    3.3797 H   0  0  0  0  0  0  0  0  0  0  0  0
    2.8494   -1.9468   -0.0972 H   0  0  0  0  0  0  0  0  0  0  0  0
    3.5805   -0.6700    0.9154 H   0  0  0  0  0  0  0  0  0  0  0  0
    4.2343   -2.7039    2.9629 H   0  0  0  0  0  0  0  0  0  0  0  0
  1  2  1  0  0  0  0
  1 10  1  0  0  0  0
  1 11  1  0  0  0  0
  1 12  1  0  0  0  0
  2  3  1  0  0  0  0
  2 13  1  0  0  0  0
  2 14  1  0  0  0  0
  3  4  1  0  0  0  0
  4  5  1  0  0  0  0
  4  8  2  0  0  0  0
  5  6  1  0  0  0  0
  5 15  1  0  0  0  0
  5 16  1  0  0  0  0
  6  7  1  0  0  0  0
  6  9  2  0  0  0  0
  7 17  1  0  0  0  0
M  END
>  <Mol_ID>
5516

>  <Formula>
C5H8O4

>  <MolWeight>
132.11462

>  <Cat>
S3366

>  <Name>
Monoethyl malonic acid

>  <Synonyms>
Ethyl hydrogen malonate, Monoethyl malonate, 3-Ethoxy-3-oxopropanoic acid

>  <Target>
Others

>  <Form>
Free Base

>  <CAS>
1071-46-1

>  <URL>
https://www.selleckchem.com/products/monoethyl-malonic-acid.html

$$$$
