Monobutyl phthalate
 OpenBabel08302520383D

 30 30  0  0  0  0  0  0  0  0999 V2000
    1.4336   -0.5122    0.7361 C   0  0  0  0  0  0  0  0  0  0  0  0
    0.6361    0.2361   -0.1467 C   0  0  0  0  0  0  0  0  0  0  0  0
    2.9211   -0.5755    0.7145 C   0  0  0  0  0  0  0  0  0  0  0  0
    0.8097   -1.2094    1.7903 C   0  0  0  0  0  0  0  0  0  0  0  0
   -0.7460    0.3502    0.1032 C   0  0  0  0  0  0  0  0  0  0  0  0
    1.1185    0.9358   -1.3619 C   0  0  0  0  0  0  0  0  0  0  0  0
    3.4342    0.5187    0.1160 O   0  0  0  0  0  0  0  0  0  0  0  0
    3.5594   -1.4573    1.2649 O   0  0  0  0  0  0  0  0  0  0  0  0
   -0.5661   -1.1092    2.0085 C   0  0  0  0  0  0  0  0  0  0  0  0
   -1.3432   -0.3114    1.1772 C   0  0  0  0  0  0  0  0  0  0  0  0
    1.9568    0.2225   -2.1397 O   0  0  0  0  0  0  0  0  0  0  0  0
    0.6628    2.0156   -1.7049 O   0  0  0  0  0  0  0  0  0  0  0  0
    4.7957    0.8559    0.4320 C   0  0  0  0  0  0  0  0  0  0  0  0
    5.8521    0.0490   -0.3200 C   0  0  0  0  0  0  0  0  0  0  0  0
    5.7495    0.1532   -1.8404 C   0  0  0  0  0  0  0  0  0  0  0  0
    6.8831   -0.6083   -2.5176 C   0  0  0  0  0  0  0  0  0  0  0  0
    1.4026   -1.8170    2.4755 H   0  0  0  0  0  0  0  0  0  0  0  0
   -1.3669    0.9681   -0.5465 H   0  0  0  0  0  0  0  0  0  0  0  0
   -1.0261   -1.6350    2.8424 H   0  0  0  0  0  0  0  0  0  0  0  0
   -2.4083   -0.1973    1.3633 H   0  0  0  0  0  0  0  0  0  0  0  0
    2.3074   -0.6043   -1.7638 H   0  0  0  0  0  0  0  0  0  0  0  0
    4.9109    1.9189    0.1969 H   0  0  0  0  0  0  0  0  0  0  0  0
    4.9495    0.7600    1.5146 H   0  0  0  0  0  0  0  0  0  0  0  0
    6.8374    0.4155   -0.0047 H   0  0  0  0  0  0  0  0  0  0  0  0
    5.7971   -1.0061   -0.0309 H   0  0  0  0  0  0  0  0  0  0  0  0
    4.7917   -0.2489   -2.1881 H   0  0  0  0  0  0  0  0  0  0  0  0
    5.7936    1.2051   -2.1453 H   0  0  0  0  0  0  0  0  0  0  0  0
    6.7610   -1.6882   -2.3840 H   0  0  0  0  0  0  0  0  0  0  0  0
    6.8974   -0.3998   -3.5917 H   0  0  0  0  0  0  0  0  0  0  0  0
    7.8568   -0.3225   -2.1057 H   0  0  0  0  0  0  0  0  0  0  0  0
  1  2  2  0  0  0  0
  1  3  1  0  0  0  0
  1  4  1  0  0  0  0
  2  5  1  0  0  0  0
  2  6  1  0  0  0  0
  3  7  1  0  0  0  0
  3  8  2  0  0  0  0
  4  9  2  0  0  0  0
  4 17  1  0  0  0  0
  5 10  2  0  0  0  0
  5 18  1  0  0  0  0
  6 11  1  0  0  0  0
  6 12  2  0  0  0  0
  7 13  1  0  0  0  0
  9 10  1  0  0  0  0
  9 19  1  0  0  0  0
 10 20  1  0  0  0  0
 11 21  1  0  0  0  0
 13 14  1  0  0  0  0
 13 22  1  0  0  0  0
 13 23  1  0  0  0  0
 14 15  1  0  0  0  0
 14 24  1  0  0  0  0
 14 25  1  0  0  0  0
 15 16  1  0  0  0  0
 15 26  1  0  0  0  0
 15 27  1  0  0  0  0
 16 28  1  0  0  0  0
 16 29  1  0  0  0  0
 16 30  1  0  0  0  0
M  END
>  <Mol_ID>
3449

>  <Formula>
C12H14O4

>  <MolWeight>
222.23716

>  <Cat>
S5826

>  <Name>
Monobutyl phthalate

>  <Synonyms>
N/A

>  <Target>
Others

>  <Form>
Free Base

>  <CAS>
131-70-4

>  <URL>
http://www.selleckchem.com/products/monobutyl-phthalate.html

$$$$
