Monocaprylin
 OpenBabel08302521303D

 37 36  0  0  0  0  0  0  0  0999 V2000
   -0.8500    0.6612    3.5355 O   0  0  0  0  0  0  0  0  0  0  0  0
   -2.5105    0.6011    5.9909 O   0  0  0  0  0  0  0  0  0  0  0  0
   -1.8654    2.4724    2.5795 O   0  0  0  0  0  0  0  0  0  0  0  0
   -0.6760    2.0019    7.6609 O   0  0  0  0  0  0  0  0  0  0  0  0
   -1.2456    0.8115   -1.3577 C   0  0  0  0  0  0  0  0  0  0  0  0
   -1.7726    1.6357   -2.5408 C   0  0  0  0  0  0  0  0  0  0  0  0
   -1.5750    1.4698   -0.0142 C   0  0  0  0  0  0  0  0  0  0  0  0
   -1.4401    0.9744   -3.8845 C   0  0  0  0  0  0  0  0  0  0  0  0
   -1.0825    0.6484    1.1813 C   0  0  0  0  0  0  0  0  0  0  0  0
   -1.9736    1.7785   -5.0719 C   0  0  0  0  0  0  0  0  0  0  0  0
   -1.3428    1.3682    2.4878 C   0  0  0  0  0  0  0  0  0  0  0  0
   -1.6415    1.1099   -6.3990 C   0  0  0  0  0  0  0  0  0  0  0  0
   -1.8619    1.7940    5.5262 C   0  0  3  0  0  0  0  0  0  0  0  0
   -0.5944    1.4376    4.7365 C   0  0  0  0  0  0  0  0  0  0  0  0
   -1.5266    2.6754    6.7353 C   0  0  0  0  0  0  0  0  0  0  0  0
   -2.7889    0.1167    5.1890 H   0  0  0  0  0  0  0  0  0  0  0  0
   -1.2122    1.2684    8.0191 H   0  0  0  0  0  0  0  0  0  0  0  0
   -0.1587    0.6953   -1.4487 H   0  0  0  0  0  0  0  0  0  0  0  0
   -1.6830   -0.1937   -1.3884 H   0  0  0  0  0  0  0  0  0  0  0  0
   -2.8596    1.7521   -2.4498 H   0  0  0  0  0  0  0  0  0  0  0  0
   -1.3373    2.6421   -2.5114 H   0  0  0  0  0  0  0  0  0  0  0  0
   -2.6613    1.6149    0.0685 H   0  0  0  0  0  0  0  0  0  0  0  0
   -1.1239    2.4695    0.0175 H   0  0  0  0  0  0  0  0  0  0  0  0
   -0.3530    0.8652   -3.9770 H   0  0  0  0  0  0  0  0  0  0  0  0
   -1.8693   -0.0356   -3.9079 H   0  0  0  0  0  0  0  0  0  0  0  0
   -0.0015    0.4952    1.0996 H   0  0  0  0  0  0  0  0  0  0  0  0
   -1.5841   -0.3263    1.2088 H   0  0  0  0  0  0  0  0  0  0  0  0
   -3.0614    1.8880   -4.9910 H   0  0  0  0  0  0  0  0  0  0  0  0
   -1.5447    2.7875   -5.0636 H   0  0  0  0  0  0  0  0  0  0  0  0
   -2.0808    0.1088   -6.4568 H   0  0  0  0  0  0  0  0  0  0  0  0
   -2.0366    1.7000   -7.2325 H   0  0  0  0  0  0  0  0  0  0  0  0
   -0.5589    1.0180   -6.5345 H   0  0  0  0  0  0  0  0  0  0  0  0
   -2.5846    2.3227    4.9013 H   0  0  0  0  0  0  0  0  0  0  0  0
    0.0726    0.8159    5.3468 H   0  0  0  0  0  0  0  0  0  0  0  0
   -0.0377    2.3374    4.4578 H   0  0  0  0  0  0  0  0  0  0  0  0
   -1.0208    3.5944    6.4191 H   0  0  0  0  0  0  0  0  0  0  0  0
   -2.4382    2.9522    7.2762 H   0  0  0  0  0  0  0  0  0  0  0  0
  1 11  1  0  0  0  0
  1 14  1  0  0  0  0
  2 13  1  0  0  0  0
  2 16  1  0  0  0  0
  3 11  2  0  0  0  0
  4 15  1  0  0  0  0
  4 17  1  0  0  0  0
  5  6  1  0  0  0  0
  5  7  1  0  0  0  0
  5 18  1  0  0  0  0
  5 19  1  0  0  0  0
  6  8  1  0  0  0  0
  6 20  1  0  0  0  0
  6 21  1  0  0  0  0
  7  9  1  0  0  0  0
  7 22  1  0  0  0  0
  7 23  1  0  0  0  0
  8 10  1  0  0  0  0
  8 24  1  0  0  0  0
  8 25  1  0  0  0  0
  9 11  1  0  0  0  0
  9 26  1  0  0  0  0
  9 27  1  0  0  0  0
 10 12  1  0  0  0  0
 10 28  1  0  0  0  0
 10 29  1  0  0  0  0
 12 30  1  0  0  0  0
 12 31  1  0  0  0  0
 12 32  1  0  0  0  0
 13 14  1  0  0  0  0
 13 15  1  0  0  0  0
 13 33  1  0  0  0  0
 14 34  1  0  0  0  0
 14 35  1  0  0  0  0
 15 36  1  0  0  0  0
 15 37  1  0  0  0  0
M  END
>  <Mol_ID>
5597

>  <Formula>
C11H22O4

>  <MolWeight>
218.28998

>  <Cat>
S3499

>  <Name>
Monocaprylin

>  <Synonyms>
2,3-dihydroxypropyl octanoate, Monoctanoin, 1-Octanoyl-rac-glycerol

>  <Target>
Bacterial

>  <Form>
Free Base

>  <CAS>
26402-26-6

>  <URL>
http://www.selleckchem.com/products/monocaprylin.html

$$$$
