Monomethyl Fumarate
 OpenBabel08302521253D

 15 14  0  0  0  0  0  0  0  0999 V2000
   -0.1033    1.5326   -1.0999 C   0  0  0  0  0  0  0  0  0  0  0  0
    0.7135    1.2636    0.0415 O   0  0  0  0  0  0  0  0  0  0  0  0
    0.9317    2.3425    0.8294 C   0  0  0  0  0  0  0  0  0  0  0  0
    1.7816    1.9357    1.9615 C   0  0  0  0  0  0  0  0  0  0  0  0
    2.1305    2.8516    2.8768 C   0  0  0  0  0  0  0  0  0  0  0  0
    2.9793    2.4456    4.0075 C   0  0  0  0  0  0  0  0  0  0  0  0
    3.2465    3.4700    4.8394 O   0  0  0  0  0  0  0  0  0  0  0  0
    3.3982    1.3143    4.1808 O   0  0  0  0  0  0  0  0  0  0  0  0
    0.5079    3.4738    0.6548 O   0  0  0  0  0  0  0  0  0  0  0  0
   -0.2174    0.6022   -1.6636 H   0  0  0  0  0  0  0  0  0  0  0  0
    0.3747    2.2732   -1.7493 H   0  0  0  0  0  0  0  0  0  0  0  0
   -1.0968    1.8731   -0.7908 H   0  0  0  0  0  0  0  0  0  0  0  0
    2.0972    0.8996    2.0143 H   0  0  0  0  0  0  0  0  0  0  0  0
    1.8018    3.8803    2.8013 H   0  0  0  0  0  0  0  0  0  0  0  0
    2.8568    4.3299    4.5981 H   0  0  0  0  0  0  0  0  0  0  0  0
  1  2  1  0  0  0  0
  1 10  1  0  0  0  0
  1 11  1  0  0  0  0
  1 12  1  0  0  0  0
  2  3  1  0  0  0  0
  3  4  1  0  0  0  0
  3  9  2  0  0  0  0
  4  5  2  0  0  0  0
  4 13  1  0  0  0  0
  5  6  1  0  0  0  0
  5 14  1  0  0  0  0
  6  7  1  0  0  0  0
  6  8  2  0  0  0  0
  7 15  1  0  0  0  0
M  END
>  <Mol_ID>
5204

>  <Formula>
C5H6O4

>  <MolWeight>
130.09874

>  <Cat>
S6889

>  <Name>
Monomethyl Fumarate

>  <Synonyms>
MMF, Monomethylfumarate, Fumaric acid monomethyl ester, Methyl hydrogen fumarate

>  <Target>
Apoptosis related,Autophagy,GPR

>  <Form>
free base

>  <CAS>
2756-87-8

>  <URL>
http://www.selleckchem.com/products/monomethyl-fumarate.html

$$$$
