Monomethyl phthalate
 OpenBabel08302521363D

 21 21  0  0  0  0  0  0  0  0999 V2000
    1.1606   -0.0969    0.0966 C   0  0  0  0  0  0  0  0  0  0  0  0
    0.6285    0.7917    0.9691 O   0  0  0  0  0  0  0  0  0  0  0  0
    0.5810   -1.0053   -0.4747 O   0  0  0  0  0  0  0  0  0  0  0  0
   -0.7911    0.7053    1.1208 C   0  0  0  0  0  0  0  0  0  0  0  0
    2.5293    2.5322   -0.3645 C   0  0  0  0  0  0  0  0  0  0  0  0
    3.0124    3.6384    0.2336 O   0  0  0  0  0  0  0  0  0  0  0  0
    1.5803    2.5460   -1.1301 O   0  0  0  0  0  0  0  0  0  0  0  0
    2.6298    0.0605    0.0766 C   0  0  0  0  0  0  0  0  0  0  0  0
    3.2819    1.2960   -0.0453 C   0  0  0  0  0  0  0  0  0  0  0  0
    3.3870   -1.1172    0.1974 C   0  0  0  0  0  0  0  0  0  0  0  0
    4.6883    1.3414   -0.0051 C   0  0  0  0  0  0  0  0  0  0  0  0
    4.7797   -1.0619    0.2411 C   0  0  0  0  0  0  0  0  0  0  0  0
    5.4294    0.1701    0.1564 C   0  0  0  0  0  0  0  0  0  0  0  0
   -1.2752    1.3449    0.3766 H   0  0  0  0  0  0  0  0  0  0  0  0
   -1.1627   -0.3209    1.0372 H   0  0  0  0  0  0  0  0  0  0  0  0
   -1.0480    1.0746    2.1177 H   0  0  0  0  0  0  0  0  0  0  0  0
    3.6969    3.4909    0.9105 H   0  0  0  0  0  0  0  0  0  0  0  0
    2.8876   -2.0843    0.2532 H   0  0  0  0  0  0  0  0  0  0  0  0
    5.2249    2.2770   -0.1430 H   0  0  0  0  0  0  0  0  0  0  0  0
    5.3590   -1.9793    0.3265 H   0  0  0  0  0  0  0  0  0  0  0  0
    6.5170    0.2086    0.1822 H   0  0  0  0  0  0  0  0  0  0  0  0
  1  2  1  0  0  0  0
  1  3  2  0  0  0  0
  1  8  1  0  0  0  0
  2  4  1  0  0  0  0
  4 14  1  0  0  0  0
  4 15  1  0  0  0  0
  4 16  1  0  0  0  0
  5  6  1  0  0  0  0
  5  7  2  0  0  0  0
  5  9  1  0  0  0  0
  6 17  1  0  0  0  0
  8  9  2  0  0  0  0
  8 10  1  0  0  0  0
  9 11  1  0  0  0  0
 10 12  2  0  0  0  0
 10 18  1  0  0  0  0
 11 13  2  0  0  0  0
 11 19  1  0  0  0  0
 12 13  1  0  0  0  0
 12 20  1  0  0  0  0
 13 21  1  0  0  0  0
M  END
>  <Mol_ID>
7254

>  <Formula>
C9H8O4

>  <MolWeight>
180.15742

>  <Cat>
E4268

>  <Name>
Monomethyl phthalate

>  <Synonyms>
2-(Methoxycarbonyl)benzoic acid

>  <Target>
Others

>  <Form>
Free base

>  <CAS>
4376-18-5

>  <URL>
https://www.selleckchem.com/products/monomethyl-phthalate.html

$$$$
