Morantel tartrate
 OpenBabel08302520343D

 47 47  0  0  0  0  0  0  0  0999 V2000
    0.4610   -1.6626   -0.3963 C   0  0  0  0  0  0  0  0  0  0  0  0
    0.6506   -3.0519   -0.2500 C   0  0  0  0  0  0  0  0  0  0  0  0
    1.6373   -0.3076   -0.4170 C   0  0  0  0  0  0  0  0  0  0  0  0
   -1.6659   -0.9513   -1.0946 S   0  0  0  0  0  0  0  0  0  0  0  0
   -0.3930   -3.8178    0.0571 C   0  0  0  0  0  0  0  0  0  0  0  0
    0.8295    1.3746   -1.0291 C   0  0  0  0  0  0  0  0  0  0  0  0
    3.0318   -0.5572    0.0650 C   0  0  0  0  0  0  0  0  0  0  0  0
   -0.9338    1.2408   -1.2819 C   0  0  0  0  0  0  0  0  0  0  0  0
   -0.2605   -5.2932    0.0633 C   0  0  0  0  0  0  0  0  0  0  0  0
   -1.0224   -6.0436    0.9307 N   0  0  0  0  0  0  0  0  0  0  0  0
    0.5430   -5.7664   -0.8246 N   0  0  0  0  0  0  0  0  0  0  0  0
   -1.2250   -7.4518    0.6708 C   0  0  0  0  0  0  0  0  0  0  0  0
   -2.0345   -5.4129    1.7784 C   0  0  0  0  0  0  0  0  0  0  0  0
    0.7292   -7.1863   -1.0064 C   0  0  0  0  0  0  0  0  0  0  0  0
   -0.1191   -8.0929   -0.1419 C   0  0  0  0  0  0  0  0  0  0  0  0
    1.5197    2.5750    1.3482 C   0  0  2  0  0  0  0  0  0  0  0  0
    0.3860    1.5056    1.3314 C   0  0  2  0  0  0  0  0  0  0  0  0
    1.3346    3.8415    0.5024 C   0  0  0  0  0  0  0  0  0  0  0  0
    2.8617    2.1023    1.1198 O   0  0  0  0  0  0  0  0  0  0  0  0
   -0.2187    0.2036    0.4348 C   0  0  0  0  0  0  0  0  0  0  0  0
   -0.8049    2.1178    1.8963 O   0  0  0  0  0  0  0  0  0  0  0  0
    2.5107    4.2004   -0.0987 O   0  0  0  0  0  0  0  0  0  0  0  0
    0.3087    4.4737    0.3307 O   0  0  0  0  0  0  0  0  0  0  0  0
    0.1090   -0.2327   -1.4008 O   0  0  0  0  0  0  0  0  0  0  0  0
   -0.9463   -0.4980    1.2011 O   0  0  0  0  0  0  0  0  0  0  0  0
    1.6350   -3.4751   -0.4322 H   0  0  0  0  0  0  0  0  0  0  0  0
   -1.3659   -3.4007    0.2640 H   0  0  0  0  0  0  0  0  0  0  0  0
    1.4061    2.2336   -1.3423 H   0  0  0  0  0  0  0  0  0  0  0  0
    3.7764    0.0105   -0.4920 H   0  0  0  0  0  0  0  0  0  0  0  0
    3.0759   -0.2930    1.1284 H   0  0  0  0  0  0  0  0  0  0  0  0
    3.2819   -1.6197    0.0143 H   0  0  0  0  0  0  0  0  0  0  0  0
   -1.7069    1.8835   -1.6799 H   0  0  0  0  0  0  0  0  0  0  0  0
   -2.1870   -7.5878    0.1645 H   0  0  0  0  0  0  0  0  0  0  0  0
   -1.2931   -7.9818    1.6293 H   0  0  0  0  0  0  0  0  0  0  0  0
   -1.5666   -4.7061    2.4730 H   0  0  0  0  0  0  0  0  0  0  0  0
   -2.7703   -4.8739    1.1692 H   0  0  0  0  0  0  0  0  0  0  0  0
   -2.5843   -6.1469    2.3745 H   0  0  0  0  0  0  0  0  0  0  0  0
    1.7884   -7.4164   -0.8376 H   0  0  0  0  0  0  0  0  0  0  0  0
    0.5459   -7.4141   -2.0631 H   0  0  0  0  0  0  0  0  0  0  0  0
    0.5476   -8.6420    0.5337 H   0  0  0  0  0  0  0  0  0  0  0  0
   -0.5654   -8.8665   -0.7805 H   0  0  0  0  0  0  0  0  0  0  0  0
    1.5553    2.9698    2.3734 H   0  0  0  0  0  0  0  0  0  0  0  0
    0.7659    0.8831    2.1639 H   0  0  0  0  0  0  0  0  0  0  0  0
    2.8902    1.7583    0.2115 H   0  0  0  0  0  0  0  0  0  0  0  0
   -1.4369    1.3800    2.0349 H   0  0  0  0  0  0  0  0  0  0  0  0
    3.2512    3.6700    0.2759 H   0  0  0  0  0  0  0  0  0  0  0  0
    0.6157    0.0193   -2.2163 H   0  0  0  0  0  0  0  0  0  0  0  0
  1  2  1  0  0  0  0
  1  3  2  0  0  0  0
  1  4  1  0  0  0  0
  2  5  2  0  0  0  0
  2 26  1  0  0  0  0
  3  6  1  0  0  0  0
  3  7  1  0  0  0  0
  4  8  1  0  0  0  0
  5  9  1  0  0  0  0
  5 27  1  0  0  0  0
  6  8  2  0  0  0  0
  6 28  1  0  0  0  0
  7 29  1  0  0  0  0
  7 30  1  0  0  0  0
  7 31  1  0  0  0  0
  8 32  1  0  0  0  0
  9 10  1  0  0  0  0
  9 11  2  0  0  0  0
 10 12  1  0  0  0  0
 10 13  1  0  0  0  0
 11 14  1  0  0  0  0
 12 15  1  0  0  0  0
 12 33  1  0  0  0  0
 12 34  1  0  0  0  0
 13 35  1  0  0  0  0
 13 36  1  0  0  0  0
 13 37  1  0  0  0  0
 14 15  1  0  0  0  0
 14 38  1  0  0  0  0
 14 39  1  0  0  0  0
 15 40  1  0  0  0  0
 15 41  1  0  0  0  0
 16 18  1  0  0  0  0
 16 19  1  0  0  0  0
 16 42  1  1  0  0  0
 17 21  1  0  0  0  0
 17 43  1  1  0  0  0
 17 20  1  0  0  0  0
 17 16  1  0  0  0  0
 18 22  1  0  0  0  0
 18 23  2  0  0  0  0
 19 44  1  0  0  0  0
 20 24  1  0  0  0  0
 20 25  2  0  0  0  0
 21 45  1  0  0  0  0
 22 46  1  0  0  0  0
 24 47  1  0  0  0  0
M  END
>  <Mol_ID>
3390

>  <Formula>
C16H22N2O6S

>  <MolWeight>
370.42068

>  <Cat>
S5747

>  <Name>
Morantel tartrate

>  <Synonyms>
CP-12009-18 tartrate, UK 296418 tartrate

>  <Target>
AChR

>  <Form>
tartrate

>  <CAS>
26155-31-7

>  <URL>
http://www.selleckchem.com/products/morantel-tartrate.html

$$$$
