Moroxydine HCl.cdx
 OpenBabel08302521383D

 25 25  0  0  0  0  0  0  0  0999 V2000
    0.5929    1.1271   -0.2663 C   0  0  0  0  0  0  0  0  0  0  0  0
    1.2516   -0.0778    0.1483 O   0  0  0  0  0  0  0  0  0  0  0  0
    0.5407   -1.2163   -0.3653 C   0  0  0  0  0  0  0  0  0  0  0  0
   -0.9001   -1.2600    0.1527 C   0  0  0  0  0  0  0  0  0  0  0  0
   -1.6135    0.0086   -0.0675 N   0  0  0  0  0  0  0  0  0  0  0  0
   -0.8310    1.2018    0.3010 C   0  0  0  0  0  0  0  0  0  0  0  0
   -2.6154    0.0958   -0.9972 C   0  0  0  0  0  0  0  0  0  0  0  0
   -3.6161    0.9336   -0.6043 N   0  0  0  0  0  0  0  0  0  0  0  0
   -4.6746    1.5443   -1.1831 C   0  0  0  0  0  0  0  0  0  0  0  0
   -4.6706    1.6057   -2.5337 N   0  0  0  0  0  0  0  0  0  0  0  0
   -2.6098   -0.5781   -2.0972 N   0  0  0  0  0  0  0  0  0  0  0  0
   -5.6100    2.0672   -0.4689 N   0  0  0  0  0  0  0  0  0  0  0  0
    0.5939    1.1764   -1.3619 H   0  0  0  0  0  0  0  0  0  0  0  0
    1.1832    1.9711    0.1049 H   0  0  0  0  0  0  0  0  0  0  0  0
    1.0758   -2.1109   -0.0293 H   0  0  0  0  0  0  0  0  0  0  0  0
    0.5779   -1.1973   -1.4601 H   0  0  0  0  0  0  0  0  0  0  0  0
   -0.8824   -1.4309    1.2353 H   0  0  0  0  0  0  0  0  0  0  0  0
   -1.4339   -2.1071   -0.2933 H   0  0  0  0  0  0  0  0  0  0  0  0
   -0.7898    1.2515    1.3937 H   0  0  0  0  0  0  0  0  0  0  0  0
   -1.3093    2.1217   -0.0563 H   0  0  0  0  0  0  0  0  0  0  0  0
   -3.6791    0.9920    0.4041 H   0  0  0  0  0  0  0  0  0  0  0  0
   -5.2797    2.3077   -2.9345 H   0  0  0  0  0  0  0  0  0  0  0  0
   -3.7341    1.6691   -2.9242 H   0  0  0  0  0  0  0  0  0  0  0  0
   -3.5059   -0.3893   -2.5674 H   0  0  0  0  0  0  0  0  0  0  0  0
   -6.3300    2.4599   -1.0789 H   0  0  0  0  0  0  0  0  0  0  0  0
  1  2  1  0  0  0  0
  1 13  1  0  0  0  0
  1 14  1  0  0  0  0
  2  3  1  0  0  0  0
  3  4  1  0  0  0  0
  3 15  1  0  0  0  0
  3 16  1  0  0  0  0
  4  5  1  0  0  0  0
  4 17  1  0  0  0  0
  4 18  1  0  0  0  0
  5  6  1  0  0  0  0
  5  7  1  0  0  0  0
  6  1  1  0  0  0  0
  6 19  1  0  0  0  0
  6 20  1  0  0  0  0
  7  8  1  0  0  0  0
  7 11  2  0  0  0  0
  8  9  1  0  0  0  0
  8 21  1  0  0  0  0
  9 10  1  0  0  0  0
  9 12  2  0  0  0  0
 10 22  1  0  0  0  0
 10 23  1  0  0  0  0
 11 24  1  0  0  0  0
 12 25  1  0  0  0  0
M  END
>  <Mol_ID>
760

>  <Formula>
C6H14ClN5O

>  <MolWeight>
207.66126

>  <Cat>
S2486

>  <Name>
Moroxydine HCl

>  <Synonyms>
ABOB hydrochloride

>  <Target>
Antiviral

>  <Form>
Hydrochloride

>  <CAS>
3160-91-6

>  <URL>
http://selleckchem.com/products/Moroxydine-hydrochloride.html

$$$$
