Mosloflavone
 OpenBabel08302521463D

 36 38  0  0  0  0  0  0  0  0999 V2000
    1.4245    2.2393   -0.2496 O   0  0  0  0  0  0  0  0  0  0  0  0
   -1.2437    2.3377    0.1157 O   0  0  0  0  0  0  0  0  0  0  0  0
    3.2735   -2.3056    0.0348 O   0  0  0  0  0  0  0  0  0  0  0  0
    4.6459   -1.9519   -0.0425 C   0  0  0  0  0  0  0  0  0  0  0  0
    3.7744    0.5117   -0.0440 O   0  0  0  0  0  0  0  0  0  0  0  0
    4.1417    1.8777   -0.0864 C   0  0  0  0  0  0  0  0  0  0  0  0
   -0.1074   -1.0724    0.0126 C   0  0  0  0  0  0  0  0  0  0  0  0
    0.0304    0.3126   -0.0320 C   0  0  0  0  0  0  0  0  0  0  0  0
   -1.3163   -1.7263    0.0417 O   0  0  0  0  0  0  0  0  0  0  0  0
    1.0240   -1.8813    0.0292 C   0  0  0  0  0  0  0  0  0  0  0  0
    1.3222    0.8840   -0.0855 C   0  0  0  0  0  0  0  0  0  0  0  0
   -1.2150    1.1178    0.0188 C   0  0  0  0  0  0  0  0  0  0  0  0
   -2.4654   -0.9628    0.0148 C   0  0  0  0  0  0  0  0  0  0  0  0
    2.3125   -1.3250    0.0081 C   0  0  0  0  0  0  0  0  0  0  0  0
    2.4801    0.0767   -0.0405 C   0  0  0  0  0  0  0  0  0  0  0  0
   -2.4885    0.3734    0.0001 C   0  0  0  0  0  0  0  0  0  0  0  0
   -3.7165   -1.7294   -0.0053 C   0  0  0  0  0  0  0  0  0  0  0  0
   -4.2948   -2.0962   -1.2266 C   0  0  0  0  0  0  0  0  0  0  0  0
   -4.3686   -2.0661    1.1898 C   0  0  0  0  0  0  0  0  0  0  0  0
   -5.5104   -2.7856   -1.2537 C   0  0  0  0  0  0  0  0  0  0  0  0
   -5.5858   -2.7549    1.1605 C   0  0  0  0  0  0  0  0  0  0  0  0
   -6.1553   -3.1064   -0.0617 C   0  0  0  0  0  0  0  0  0  0  0  0
    1.8262    2.6065    0.5538 H   0  0  0  0  0  0  0  0  0  0  0  0
    4.8725   -1.4139   -0.9684 H   0  0  0  0  0  0  0  0  0  0  0  0
    4.9600   -1.3981    0.8478 H   0  0  0  0  0  0  0  0  0  0  0  0
    5.2249   -2.8806   -0.0637 H   0  0  0  0  0  0  0  0  0  0  0  0
    3.7503    2.3793   -0.9751 H   0  0  0  0  0  0  0  0  0  0  0  0
    3.8618    2.3881    0.8391 H   0  0  0  0  0  0  0  0  0  0  0  0
    5.2342    1.9158   -0.1495 H   0  0  0  0  0  0  0  0  0  0  0  0
    0.9103   -2.9617    0.0577 H   0  0  0  0  0  0  0  0  0  0  0  0
   -3.3977    0.9605   -0.0177 H   0  0  0  0  0  0  0  0  0  0  0  0
   -3.8064   -1.8435   -2.1645 H   0  0  0  0  0  0  0  0  0  0  0  0
   -3.9372   -1.7907    2.1475 H   0  0  0  0  0  0  0  0  0  0  0  0
   -5.9592   -3.0571   -2.2068 H   0  0  0  0  0  0  0  0  0  0  0  0
   -6.0918   -3.0076    2.0880 H   0  0  0  0  0  0  0  0  0  0  0  0
   -7.1094   -3.6383   -0.0858 H   0  0  0  0  0  0  0  0  0  0  0  0
  1 11  1  0  0  0  0
  1 23  1  0  0  0  0
  2 12  2  0  0  0  0
  3  4  1  0  0  0  0
  3 14  1  0  0  0  0
  4 24  1  0  0  0  0
  4 25  1  0  0  0  0
  4 26  1  0  0  0  0
  5  6  1  0  0  0  0
  5 15  1  0  0  0  0
  6 27  1  0  0  0  0
  6 28  1  0  0  0  0
  6 29  1  0  0  0  0
  7  8  2  0  0  0  0
  7  9  1  0  0  0  0
  7 10  1  0  0  0  0
  8 11  1  0  0  0  0
  8 12  1  0  0  0  0
  9 13  1  0  0  0  0
 10 14  2  0  0  0  0
 10 30  1  0  0  0  0
 11 15  2  0  0  0  0
 12 16  1  0  0  0  0
 13 16  2  0  0  0  0
 13 17  1  0  0  0  0
 14 15  1  0  0  0  0
 16 31  1  0  0  0  0
 17 18  2  0  0  0  0
 17 19  1  0  0  0  0
 18 20  1  0  0  0  0
 18 32  1  0  0  0  0
 19 21  2  0  0  0  0
 19 33  1  0  0  0  0
 20 22  2  0  0  0  0
 20 34  1  0  0  0  0
 21 22  1  0  0  0  0
 21 35  1  0  0  0  0
 22 36  1  0  0  0  0
M  END
>  <Mol_ID>
9627

>  <Formula>
C17H14O5

>  <MolWeight>
298.29006

>  <Cat>
E2062

>  <Name>
Mosloflavone

>  <Synonyms>
NA

>  <Target>
EV71

>  <Form>
Free Base

>  <CAS>
740-33-0

>  <URL>
https://www.selleckchem.com/products/mosloflavone.html

$$$$
