Moxisylyte hydrochloride
 OpenBabel08302520323D

 45 45  0  0  0  0  0  0  0  0999 V2000
    1.0579   -0.0755   -0.5792 C   0  0  0  0  0  0  0  0  0  0  0  0
    0.4984    1.2076   -0.4258 C   0  0  0  0  0  0  0  0  0  0  0  0
    0.1718   -1.1582   -0.6601 C   0  0  0  0  0  0  0  0  0  0  0  0
    2.5580   -0.3534   -0.6142 C   0  0  0  0  0  0  0  0  0  0  0  0
   -0.9083    1.3470   -0.4423 C   0  0  0  0  0  0  0  0  0  0  0  0
    1.3370    2.2904   -0.2026 O   0  0  0  0  0  0  0  0  0  0  0  0
   -1.2121   -1.0054   -0.5069 C   0  0  0  0  0  0  0  0  0  0  0  0
    2.9451   -1.7096    0.0170 C   0  0  0  0  0  0  0  0  0  0  0  0
    3.0897   -0.3202   -2.0509 C   0  0  0  0  0  0  0  0  0  0  0  0
   -1.7881    0.2519   -0.4186 C   0  0  0  0  0  0  0  0  0  0  0  0
    0.6614    3.4538    0.3175 C   0  0  0  0  0  0  0  0  0  0  0  0
   -1.8435   -2.2758   -0.3758 O   0  0  0  0  0  0  0  0  0  0  0  0
   -3.2445    0.5283   -0.2187 C   0  0  0  0  0  0  0  0  0  0  0  0
    1.6070    4.4867    0.9599 C   0  0  0  0  0  0  0  0  0  0  0  0
   -3.0850   -2.8129   -0.0296 C   0  0  0  0  0  0  0  0  0  0  0  0
    0.8825    5.5625    1.6789 N   0  0  0  0  0  0  0  0  0  0  0  0
   -2.8995   -4.2957    0.1430 C   0  0  0  0  0  0  0  0  0  0  0  0
   -4.1203   -2.2008    0.1814 O   0  0  0  0  0  0  0  0  0  0  0  0
    1.8077    6.4240    2.4107 C   0  0  0  0  0  0  0  0  0  0  0  0
    0.0355    6.3896    0.8113 C   0  0  0  0  0  0  0  0  0  0  0  0
    0.5500   -2.1745   -0.7729 H   0  0  0  0  0  0  0  0  0  0  0  0
    3.0647    0.4214   -0.0277 H   0  0  0  0  0  0  0  0  0  0  0  0
   -1.3609    2.3351   -0.4193 H   0  0  0  0  0  0  0  0  0  0  0  0
    2.8235   -2.5391   -0.6946 H   0  0  0  0  0  0  0  0  0  0  0  0
    3.9961   -1.7070    0.3218 H   0  0  0  0  0  0  0  0  0  0  0  0
    2.3428   -1.9439    0.9020 H   0  0  0  0  0  0  0  0  0  0  0  0
    2.8698    0.6325   -2.5420 H   0  0  0  0  0  0  0  0  0  0  0  0
    4.1768   -0.4652   -2.0620 H   0  0  0  0  0  0  0  0  0  0  0  0
    2.6475   -1.1180   -2.6620 H   0  0  0  0  0  0  0  0  0  0  0  0
    0.1317    3.9327   -0.5144 H   0  0  0  0  0  0  0  0  0  0  0  0
   -0.0473    3.1564    1.1036 H   0  0  0  0  0  0  0  0  0  0  0  0
   -3.8488    0.0174   -0.9700 H   0  0  0  0  0  0  0  0  0  0  0  0
   -3.5462    0.2371    0.7919 H   0  0  0  0  0  0  0  0  0  0  0  0
   -3.4636    1.5994   -0.3169 H   0  0  0  0  0  0  0  0  0  0  0  0
    2.2322    3.9449    1.6839 H   0  0  0  0  0  0  0  0  0  0  0  0
    2.2873    4.8985    0.2089 H   0  0  0  0  0  0  0  0  0  0  0  0
   -2.7307   -4.5175    1.2011 H   0  0  0  0  0  0  0  0  0  0  0  0
   -3.7777   -4.8272   -0.2241 H   0  0  0  0  0  0  0  0  0  0  0  0
   -2.0342   -4.6395   -0.4339 H   0  0  0  0  0  0  0  0  0  0  0  0
    2.4655    6.9855    1.7363 H   0  0  0  0  0  0  0  0  0  0  0  0
    1.2603    7.1441    3.0326 H   0  0  0  0  0  0  0  0  0  0  0  0
    2.4312    5.8389    3.0948 H   0  0  0  0  0  0  0  0  0  0  0  0
    0.6259    6.9684    0.0942 H   0  0  0  0  0  0  0  0  0  0  0  0
   -0.6974    5.7947    0.2619 H   0  0  0  0  0  0  0  0  0  0  0  0
   -0.5505    7.0922    1.4183 H   0  0  0  0  0  0  0  0  0  0  0  0
  1  2  2  0  0  0  0
  1  3  1  0  0  0  0
  1  4  1  0  0  0  0
  2  5  1  0  0  0  0
  2  6  1  0  0  0  0
  3  7  2  0  0  0  0
  3 21  1  0  0  0  0
  4  8  1  0  0  0  0
  4  9  1  0  0  0  0
  4 22  1  0  0  0  0
  5 10  2  0  0  0  0
  5 23  1  0  0  0  0
  6 11  1  0  0  0  0
  7 12  1  0  0  0  0
  7 10  1  0  0  0  0
  8 24  1  0  0  0  0
  8 25  1  0  0  0  0
  8 26  1  0  0  0  0
  9 27  1  0  0  0  0
  9 28  1  0  0  0  0
  9 29  1  0  0  0  0
 10 13  1  0  0  0  0
 11 14  1  0  0  0  0
 11 30  1  0  0  0  0
 11 31  1  0  0  0  0
 12 15  1  0  0  0  0
 13 32  1  0  0  0  0
 13 33  1  0  0  0  0
 13 34  1  0  0  0  0
 14 16  1  0  0  0  0
 14 35  1  0  0  0  0
 14 36  1  0  0  0  0
 15 17  1  0  0  0  0
 15 18  2  0  0  0  0
 16 19  1  0  0  0  0
 16 20  1  0  0  0  0
 17 37  1  0  0  0  0
 17 38  1  0  0  0  0
 17 39  1  0  0  0  0
 19 40  1  0  0  0  0
 19 41  1  0  0  0  0
 19 42  1  0  0  0  0
 20 43  1  0  0  0  0
 20 44  1  0  0  0  0
 20 45  1  0  0  0  0
M  END
>  <Mol_ID>
3355

>  <Formula>
C16H26ClNO3

>  <MolWeight>
315.83554

>  <Cat>
S5666

>  <Name>
Moxisylyte hydrochloride

>  <Synonyms>
thymoxamine hydrochloride

>  <Target>
Adrenergic Receptor

>  <Form>
hydrochloride

>  <CAS>
964-52-3

>  <URL>
http://www.selleckchem.com/products/moxisylyte-hydrochloride.html

$$$$
