Moxifloxacin hydrochloride.cdx
 OpenBabel08302520003D

 53 57  0  0  0  0  0  0  0  0999 V2000
    2.4625   -0.5522   -0.0467 C   0  0  0  0  0  0  0  0  0  0  0  0
    2.5515    0.8637    0.0417 C   0  0  0  0  0  0  0  0  0  0  0  0
    1.2868    1.5414    0.1294 C   0  0  0  0  0  0  0  0  0  0  0  0
    0.0318    0.8203    0.0789 C   0  0  0  0  0  0  0  0  0  0  0  0
    0.0684   -0.5867    0.0058 C   0  0  0  0  0  0  0  0  0  0  0  0
    1.2710   -1.2631   -0.0683 C   0  0  0  0  0  0  0  0  0  0  0  0
   -1.2746    1.4374    0.0949 N   0  0  0  0  0  0  0  0  0  0  0  0
   -2.4107    0.6439    0.1911 C   0  0  0  0  0  0  0  0  0  0  0  0
   -2.4595   -0.6931    0.1655 C   0  0  0  0  0  0  0  0  0  0  0  0
   -1.1671   -1.3926    0.0293 C   0  0  0  0  0  0  0  0  0  0  0  0
   -1.1472   -2.6186   -0.0551 O   0  0  0  0  0  0  0  0  0  0  0  0
   -1.4584    2.8012   -0.4528 C   0  0  0  0  0  0  0  0  0  0  0  0
   -2.6047    3.2802   -1.3143 C   0  0  0  0  0  0  0  0  0  0  0  0
   -1.2801    2.9965   -1.9440 C   0  0  0  0  0  0  0  0  0  0  0  0
   -3.7635   -1.3851    0.2272 C   0  0  0  0  0  0  0  0  0  0  0  0
   -3.6958   -2.7284    0.1499 O   0  0  0  0  0  0  0  0  0  0  0  0
   -4.8272   -0.7902    0.3232 O   0  0  0  0  0  0  0  0  0  0  0  0
    1.1770    2.8754    0.4690 O   0  0  0  0  0  0  0  0  0  0  0  0
    1.8334    3.8511   -0.3327 C   0  0  0  0  0  0  0  0  0  0  0  0
    3.5544   -1.3297   -0.0200 F   0  0  0  0  0  0  0  0  0  0  0  0
    3.7980    1.5081    0.0236 N   0  0  0  0  0  0  0  0  0  0  0  0
    5.0173    0.8481   -0.5175 C   0  0  0  0  0  0  0  0  0  0  0  0
    6.1055    1.1371    0.5436 C   0  0  2  0  0  0  0  0  0  0  0  0
    5.7434    2.5584    0.9545 C   0  0  2  0  0  0  0  0  0  0  0  0
    4.2113    2.4321    1.1040 C   0  0  0  0  0  0  0  0  0  0  0  0
    7.5098    0.9804    0.1607 N   0  0  0  0  0  0  0  0  0  0  0  0
    7.8928    1.8759   -0.9269 C   0  0  0  0  0  0  0  0  0  0  0  0
    7.6103    3.3398   -0.5929 C   0  0  0  0  0  0  0  0  0  0  0  0
    6.1703    3.5763   -0.1265 C   0  0  0  0  0  0  0  0  0  0  0  0
    1.3118   -2.3478   -0.1219 H   0  0  0  0  0  0  0  0  0  0  0  0
   -3.3330    1.2174    0.2646 H   0  0  0  0  0  0  0  0  0  0  0  0
   -1.1012    3.5600    0.2376 H   0  0  0  0  0  0  0  0  0  0  0  0
   -3.4297    2.6216   -1.5537 H   0  0  0  0  0  0  0  0  0  0  0  0
   -2.8981    4.3220   -1.2294 H   0  0  0  0  0  0  0  0  0  0  0  0
   -0.6687    3.8235   -2.2757 H   0  0  0  0  0  0  0  0  0  0  0  0
   -1.2141    2.1149   -2.5728 H   0  0  0  0  0  0  0  0  0  0  0  0
   -2.7787   -3.0841    0.0634 H   0  0  0  0  0  0  0  0  0  0  0  0
    2.2978    4.5700    0.3524 H   0  0  0  0  0  0  0  0  0  0  0  0
    2.5803    3.4596   -1.0256 H   0  0  0  0  0  0  0  0  0  0  0  0
    1.0996    4.4315   -0.8957 H   0  0  0  0  0  0  0  0  0  0  0  0
    4.9852   -0.2182   -0.7257 H   0  0  0  0  0  0  0  0  0  0  0  0
    5.2331    1.3203   -1.4792 H   0  0  0  0  0  0  0  0  0  0  0  0
    5.9267    0.4707    1.3998 H   0  0  0  0  0  0  0  0  0  0  0  0
    6.2052    2.8398    1.9082 H   0  0  0  0  0  0  0  0  0  0  0  0
    3.7844    3.4265    1.0320 H   0  0  0  0  0  0  0  0  0  0  0  0
    3.9545    2.0142    2.0836 H   0  0  0  0  0  0  0  0  0  0  0  0
    8.0888    1.1924    0.9749 H   0  0  0  0  0  0  0  0  0  0  0  0
    7.3874    1.5808   -1.8527 H   0  0  0  0  0  0  0  0  0  0  0  0
    8.9639    1.7467   -1.1193 H   0  0  0  0  0  0  0  0  0  0  0  0
    7.8132    3.9525   -1.4797 H   0  0  0  0  0  0  0  0  0  0  0  0
    8.3027    3.6736    0.1888 H   0  0  0  0  0  0  0  0  0  0  0  0
    5.5072    3.5259   -0.9993 H   0  0  0  0  0  0  0  0  0  0  0  0
    6.0730    4.5969    0.2611 H   0  0  0  0  0  0  0  0  0  0  0  0
  1  2  2  0  0  0  0
  1 20  1  0  0  0  0
  2  3  1  0  0  0  0
  2 21  1  0  0  0  0
  3  4  2  0  0  0  0
  3 18  1  0  0  0  0
  4  5  1  0  0  0  0
  4  7  1  0  0  0  0
  5  6  2  0  0  0  0
  6  1  1  0  0  0  0
  6 30  1  0  0  0  0
  7  8  1  0  0  0  0
  7 12  1  0  0  0  0
  8  9  2  0  0  0  0
  8 31  1  0  0  0  0
  9 10  1  0  0  0  0
  9 15  1  0  0  0  0
 10  5  1  0  0  0  0
 10 11  2  0  0  0  0
 12 13  1  0  0  0  0
 12 32  1  0  0  0  0
 13 14  1  0  0  0  0
 13 33  1  0  0  0  0
 13 34  1  0  0  0  0
 14 12  1  0  0  0  0
 14 35  1  0  0  0  0
 14 36  1  0  0  0  0
 15 16  1  0  0  0  0
 15 17  2  0  0  0  0
 16 37  1  0  0  0  0
 18 19  1  0  0  0  0
 19 38  1  0  0  0  0
 19 39  1  0  0  0  0
 19 40  1  0  0  0  0
 21 22  1  0  0  0  0
 22 41  1  0  0  0  0
 22 42  1  0  0  0  0
 23 22  1  0  0  0  0
 23 24  1  0  0  0  0
 23 26  1  0  0  0  0
 23 43  1  1  0  0  0
 24 25  1  0  0  0  0
 24 44  1  1  0  0  0
 25 21  1  0  0  0  0
 25 45  1  0  0  0  0
 25 46  1  0  0  0  0
 26 27  1  0  0  0  0
 26 47  1  0  0  0  0
 27 28  1  0  0  0  0
 27 48  1  0  0  0  0
 27 49  1  0  0  0  0
 28 29  1  0  0  0  0
 28 50  1  0  0  0  0
 28 51  1  0  0  0  0
 29 24  1  0  0  0  0
 29 52  1  0  0  0  0
 29 53  1  0  0  0  0
M  END
>  <Mol_ID>
273

>  <Formula>
C21H25ClFN3O4

>  <MolWeight>
437.8923032

>  <Cat>
S1465

>  <Name>
Moxifloxacin (BAY12-8039) HCl

>  <Synonyms>
Avelox, Avalox,BAY12-8039 HCl

>  <Target>
Topoisomerase

>  <Form>
Hydrochloride

>  <CAS>
186826-86-8

>  <URL>
https://www.selleckchem.com/products/Moxifloxacin-hcl.html

$$$$
