MP-470.cdx
 OpenBabel08302522033D

 53 58  0  0  0  0  0  0  0  0999 V2000
   -2.4774    1.7957   -1.6933 C   0  0  0  0  0  0  0  0  0  0  0  0
   -2.9047    0.5207   -2.0990 C   0  0  0  0  0  0  0  0  0  0  0  0
   -2.0923   -0.5952   -1.9154 C   0  0  0  0  0  0  0  0  0  0  0  0
   -0.8540   -0.3844   -1.3036 C   0  0  0  0  0  0  0  0  0  0  0  0
   -0.4008    0.8550   -0.8731 C   0  0  0  0  0  0  0  0  0  0  0  0
   -1.2348    1.9721   -1.0678 C   0  0  0  0  0  0  0  0  0  0  0  0
    0.0713   -1.3514   -1.0663 O   0  0  0  0  0  0  0  0  0  0  0  0
    1.1445   -0.7469   -0.4726 C   0  0  0  0  0  0  0  0  0  0  0  0
    0.8778    0.6052   -0.2994 C   0  0  0  0  0  0  0  0  0  0  0  0
    2.3607   -1.3276   -0.0710 C   0  0  0  0  0  0  0  0  0  0  0  0
    3.2169   -0.4566    0.5447 N   0  0  0  0  0  0  0  0  0  0  0  0
    2.8753    0.8439    0.6893 C   0  0  0  0  0  0  0  0  0  0  0  0
    1.7504    1.4566    0.2892 N   0  0  0  0  0  0  0  0  0  0  0  0
    2.7857   -2.6271   -0.3234 N   0  0  0  0  0  0  0  0  0  0  0  0
    3.7303   -3.2407    0.6326 C   0  0  0  0  0  0  0  0  0  0  0  0
    4.5767   -4.3475   -0.0648 C   0  0  0  0  0  0  0  0  0  0  0  0
    3.7593   -5.3033   -0.8329 N   0  0  0  0  0  0  0  0  0  0  0  0
    2.7343   -4.6814   -1.6821 C   0  0  0  0  0  0  0  0  0  0  0  0
    1.8960   -3.5996   -0.9744 C   0  0  0  0  0  0  0  0  0  0  0  0
    3.7087   -6.6247   -0.4639 C   0  0  0  0  0  0  0  0  0  0  0  0
    2.3237   -7.4192    0.0363 S   0  0  0  0  0  0  0  0  0  0  0  0
    4.8837   -7.3257   -0.4723 N   0  0  0  0  0  0  0  0  0  0  0  0
    5.8815   -7.2820   -1.5503 C   0  0  0  0  0  0  0  0  0  0  0  0
    5.7135   -8.5154   -2.4232 C   0  0  0  0  0  0  0  0  0  0  0  0
    6.1976   -9.7788   -1.9868 C   0  0  0  0  0  0  0  0  0  0  0  0
    5.7319  -10.9690   -2.5596 C   0  0  0  0  0  0  0  0  0  0  0  0
    4.7732  -10.8566   -3.5401 C   0  0  0  0  0  0  0  0  0  0  0  0
    4.3912   -9.6330   -4.0469 C   0  0  0  0  0  0  0  0  0  0  0  0
    4.8712   -8.4467   -3.5429 C   0  0  0  0  0  0  0  0  0  0  0  0
    3.9994  -11.8670   -4.0321 O   0  0  0  0  0  0  0  0  0  0  0  0
    2.9336  -11.0768   -4.6039 C   0  0  0  0  0  0  0  0  0  0  0  0
    3.3765   -9.7503   -4.9508 O   0  0  0  0  0  0  0  0  0  0  0  0
   -3.1259    2.6572   -1.8531 H   0  0  0  0  0  0  0  0  0  0  0  0
   -3.8703    0.4100   -2.5732 H   0  0  0  0  0  0  0  0  0  0  0  0
   -2.4011   -1.5901   -2.2217 H   0  0  0  0  0  0  0  0  0  0  0  0
   -0.9088    2.9642   -0.7514 H   0  0  0  0  0  0  0  0  0  0  0  0
    3.6080    1.4733    1.1842 H   0  0  0  0  0  0  0  0  0  0  0  0
    4.4226   -2.5110    1.0668 H   0  0  0  0  0  0  0  0  0  0  0  0
    3.1565   -3.6795    1.4603 H   0  0  0  0  0  0  0  0  0  0  0  0
    5.2699   -3.8819   -0.7711 H   0  0  0  0  0  0  0  0  0  0  0  0
    5.1605   -4.8801    0.6954 H   0  0  0  0  0  0  0  0  0  0  0  0
    3.2827   -4.2140   -2.5093 H   0  0  0  0  0  0  0  0  0  0  0  0
    2.0808   -5.4413   -2.1216 H   0  0  0  0  0  0  0  0  0  0  0  0
    1.2259   -4.0460   -0.2300 H   0  0  0  0  0  0  0  0  0  0  0  0
    1.2898   -3.1408   -1.7593 H   0  0  0  0  0  0  0  0  0  0  0  0
    4.7350   -8.2654   -0.1219 H   0  0  0  0  0  0  0  0  0  0  0  0
    5.7752   -6.3715   -2.1481 H   0  0  0  0  0  0  0  0  0  0  0  0
    6.8732   -7.2869   -1.0877 H   0  0  0  0  0  0  0  0  0  0  0  0
    6.8745   -9.8403   -1.1360 H   0  0  0  0  0  0  0  0  0  0  0  0
    6.0312  -11.9388   -2.1768 H   0  0  0  0  0  0  0  0  0  0  0  0
    4.4891   -7.5040   -3.9157 H   0  0  0  0  0  0  0  0  0  0  0  0
    2.1279  -10.9765   -3.8596 H   0  0  0  0  0  0  0  0  0  0  0  0
    2.5257  -11.5799   -5.4851 H   0  0  0  0  0  0  0  0  0  0  0  0
  1  2  2  0  0  0  0
  1 33  1  0  0  0  0
  2  3  1  0  0  0  0
  2 34  1  0  0  0  0
  3  4  2  0  0  0  0
  3 35  1  0  0  0  0
  4  5  1  0  0  0  0
  4  7  1  0  0  0  0
  5  6  2  0  0  0  0
  6  1  1  0  0  0  0
  6 36  1  0  0  0  0
  7  8  1  0  0  0  0
  8  9  2  0  0  0  0
  8 10  1  0  0  0  0
  9  5  1  0  0  0  0
 10 11  2  0  0  0  0
 10 14  1  0  0  0  0
 11 12  1  0  0  0  0
 12 13  2  0  0  0  0
 12 37  1  0  0  0  0
 13  9  1  0  0  0  0
 14 15  1  0  0  0  0
 15 16  1  0  0  0  0
 15 38  1  0  0  0  0
 15 39  1  0  0  0  0
 16 17  1  0  0  0  0
 16 40  1  0  0  0  0
 16 41  1  0  0  0  0
 17 18  1  0  0  0  0
 17 20  1  0  0  0  0
 18 19  1  0  0  0  0
 18 42  1  0  0  0  0
 18 43  1  0  0  0  0
 19 14  1  0  0  0  0
 19 44  1  0  0  0  0
 19 45  1  0  0  0  0
 20 21  2  0  0  0  0
 20 22  1  0  0  0  0
 22 23  1  0  0  0  0
 22 46  1  0  0  0  0
 23 24  1  0  0  0  0
 23 47  1  0  0  0  0
 23 48  1  0  0  0  0
 24 25  2  0  0  0  0
 25 26  1  0  0  0  0
 25 49  1  0  0  0  0
 26 27  2  0  0  0  0
 26 50  1  0  0  0  0
 27 28  1  0  0  0  0
 27 30  1  0  0  0  0
 28 29  2  0  0  0  0
 29 24  1  0  0  0  0
 29 51  1  0  0  0  0
 30 31  1  0  0  0  0
 31 32  1  0  0  0  0
 31 52  1  0  0  0  0
 31 53  1  0  0  0  0
 32 28  1  0  0  0  0
M  END
>  <Mol_ID>
136

>  <Formula>
C23H21N5O3S

>  <MolWeight>
447.50954

>  <Cat>
S1244

>  <Name>
Amuvatinib (MP-470)

>  <Synonyms>
HPK 56

>  <Target>
Apoptosis related,c-Kit,c-Met,c-RET,FLT3,PDGFR,RAD51

>  <Form>
free base

>  <CAS>
850879-09-3

>  <URL>
http://selleckchem.com/products/MP-470.html

$$$$
