MP07-66
 OpenBabel08302521333D

 56 56  0  0  0  0  0  0  0  0999 V2000
    1.1635    0.4625   -0.4577 C   0  0  0  0  0  0  0  0  0  0  0  0
    2.3024   -0.4073   -0.1558 N   0  0  0  0  0  0  0  0  0  0  0  0
    3.3059   -0.5005   -1.2333 C   0  0  0  0  0  0  0  0  0  0  0  0
    4.0359    0.7987   -1.6938 C   0  0  0  0  0  0  0  0  0  0  0  0
    4.7530    1.3377   -0.5662 O   0  0  0  0  0  0  0  0  0  0  0  0
    4.9457    0.4927   -2.7601 O   0  0  0  0  0  0  0  0  0  0  0  0
    5.4941    2.5092   -0.9097 C   0  0  0  0  0  0  0  0  0  0  0  0
    4.2948    0.2472   -4.0052 C   0  0  0  0  0  0  0  0  0  0  0  0
    6.2574    3.0061    0.3066 C   0  0  0  0  0  0  0  0  0  0  0  0
    5.3503    0.0214   -5.0700 C   0  0  0  0  0  0  0  0  0  0  0  0
   -1.4836   -0.6980   -5.3814 O   0  0  0  0  0  0  0  0  0  0  0  0
   -2.2914   -1.8656   -5.5411 C   0  0  0  0  0  0  0  0  0  0  0  0
   -3.1428   -1.7394   -6.8090 C   0  0  0  0  0  0  0  0  0  0  0  0
   -2.3732   -1.7142   -8.1356 C   0  0  0  0  0  0  0  0  0  0  0  0
   -1.5425   -2.9596   -8.4639 C   0  0  0  0  0  0  0  0  0  0  0  0
   -2.3530   -4.2561   -8.5118 C   0  0  0  0  0  0  0  0  0  0  0  0
   -1.4843   -5.4394   -8.9160 C   0  0  0  0  0  0  0  0  0  0  0  0
    0.4221    0.1251   -1.7330 C   0  0  0  0  0  0  0  0  0  0  0  0
   -0.1392   -1.1458   -1.9366 C   0  0  0  0  0  0  0  0  0  0  0  0
    0.2913    1.0758   -2.7515 C   0  0  0  0  0  0  0  0  0  0  0  0
   -0.7873   -1.4614   -3.1407 C   0  0  0  0  0  0  0  0  0  0  0  0
   -0.3543    0.7573   -3.9525 C   0  0  0  0  0  0  0  0  0  0  0  0
   -0.8949   -0.5121   -4.1568 C   0  0  0  0  0  0  0  0  0  0  0  0
    1.4936    1.5095   -0.4747 H   0  0  0  0  0  0  0  0  0  0  0  0
    0.4479    0.3870    0.3711 H   0  0  0  0  0  0  0  0  0  0  0  0
    2.7793   -0.0409    0.6698 H   0  0  0  0  0  0  0  0  0  0  0  0
    4.0759   -1.2013   -0.8849 H   0  0  0  0  0  0  0  0  0  0  0  0
    2.8487   -1.0066   -2.0877 H   0  0  0  0  0  0  0  0  0  0  0  0
    3.3175    1.5559   -2.0288 H   0  0  0  0  0  0  0  0  0  0  0  0
    6.2146    2.2781   -1.7011 H   0  0  0  0  0  0  0  0  0  0  0  0
    4.8122    3.2908   -1.2624 H   0  0  0  0  0  0  0  0  0  0  0  0
    3.6719   -0.6487   -3.9437 H   0  0  0  0  0  0  0  0  0  0  0  0
    3.6677    1.1031   -4.2754 H   0  0  0  0  0  0  0  0  0  0  0  0
    6.7367    2.1809    0.8435 H   0  0  0  0  0  0  0  0  0  0  0  0
    7.0240    3.7282    0.0116 H   0  0  0  0  0  0  0  0  0  0  0  0
    5.5820    3.5026    1.0115 H   0  0  0  0  0  0  0  0  0  0  0  0
    5.9801   -0.8366   -4.8118 H   0  0  0  0  0  0  0  0  0  0  0  0
    4.8840   -0.1668   -6.0413 H   0  0  0  0  0  0  0  0  0  0  0  0
    6.0101    0.8909   -5.1547 H   0  0  0  0  0  0  0  0  0  0  0  0
   -1.6589   -2.7585   -5.5869 H   0  0  0  0  0  0  0  0  0  0  0  0
   -2.9832   -1.9563   -4.6943 H   0  0  0  0  0  0  0  0  0  0  0  0
   -3.8786   -2.5509   -6.8283 H   0  0  0  0  0  0  0  0  0  0  0  0
   -3.7115   -0.8025   -6.7484 H   0  0  0  0  0  0  0  0  0  0  0  0
   -3.1012   -1.5639   -8.9443 H   0  0  0  0  0  0  0  0  0  0  0  0
   -1.7127   -0.8391   -8.1559 H   0  0  0  0  0  0  0  0  0  0  0  0
   -1.0709   -2.8016   -9.4427 H   0  0  0  0  0  0  0  0  0  0  0  0
   -0.7244   -3.0596   -7.7414 H   0  0  0  0  0  0  0  0  0  0  0  0
   -2.7903   -4.4656   -7.5307 H   0  0  0  0  0  0  0  0  0  0  0  0
   -3.1798   -4.1573   -9.2265 H   0  0  0  0  0  0  0  0  0  0  0  0
   -0.6269   -5.5446   -8.2433 H   0  0  0  0  0  0  0  0  0  0  0  0
   -2.0630   -6.3676   -8.8744 H   0  0  0  0  0  0  0  0  0  0  0  0
   -1.1073   -5.3210   -9.9370 H   0  0  0  0  0  0  0  0  0  0  0  0
   -0.0574   -1.9034   -1.1562 H   0  0  0  0  0  0  0  0  0  0  0  0
    0.6924    2.0782   -2.6218 H   0  0  0  0  0  0  0  0  0  0  0  0
   -1.1861   -2.4641   -3.2527 H   0  0  0  0  0  0  0  0  0  0  0  0
   -0.4407    1.5099   -4.7315 H   0  0  0  0  0  0  0  0  0  0  0  0
  1  2  1  0  0  0  0
  1 18  1  0  0  0  0
  1 24  1  0  0  0  0
  1 25  1  0  0  0  0
  2  3  1  0  0  0  0
  2 26  1  0  0  0  0
  3  4  1  0  0  0  0
  3 27  1  0  0  0  0
  3 28  1  0  0  0  0
  4  5  1  0  0  0  0
  4  6  1  0  0  0  0
  4 29  1  0  0  0  0
  5  7  1  0  0  0  0
  6  8  1  0  0  0  0
  7  9  1  0  0  0  0
  7 30  1  0  0  0  0
  7 31  1  0  0  0  0
  8 10  1  0  0  0  0
  8 32  1  0  0  0  0
  8 33  1  0  0  0  0
  9 34  1  0  0  0  0
  9 35  1  0  0  0  0
  9 36  1  0  0  0  0
 10 37  1  0  0  0  0
 10 38  1  0  0  0  0
 10 39  1  0  0  0  0
 11 12  1  0  0  0  0
 11 23  1  0  0  0  0
 12 13  1  0  0  0  0
 12 40  1  0  0  0  0
 12 41  1  0  0  0  0
 13 14  1  0  0  0  0
 13 42  1  0  0  0  0
 13 43  1  0  0  0  0
 14 15  1  0  0  0  0
 14 44  1  0  0  0  0
 14 45  1  0  0  0  0
 15 16  1  0  0  0  0
 15 46  1  0  0  0  0
 15 47  1  0  0  0  0
 16 17  1  0  0  0  0
 16 48  1  0  0  0  0
 16 49  1  0  0  0  0
 17 50  1  0  0  0  0
 17 51  1  0  0  0  0
 17 52  1  0  0  0  0
 18 19  2  0  0  0  0
 18 20  1  0  0  0  0
 19 21  1  0  0  0  0
 19 53  1  0  0  0  0
 20 22  2  0  0  0  0
 20 54  1  0  0  0  0
 21 23  2  0  0  0  0
 21 55  1  0  0  0  0
 22 23  1  0  0  0  0
 22 56  1  0  0  0  0
M  END
>  <Mol_ID>
6379

>  <Formula>
C19H33NO3

>  <MolWeight>
323.47022

>  <Cat>
E0956

>  <Name>
MP07-66

>  <Target>
phosphatase

>  <Form>
free base

>  <CAS>
1938056-90-6

>  <URL>
http://www.selleckchem.com/products/mp07-66.html

$$$$
