MPEP.cdx
 OpenBabel08302521353D

 26 27  0  0  0  0  0  0  0  0999 V2000
    0.1292   -1.2722    0.0513 C   0  0  0  0  0  0  0  0  0  0  0  0
   -1.0936   -0.6038    0.0554 C   0  0  0  0  0  0  0  0  0  0  0  0
   -1.0993    0.7866    0.0125 C   0  0  0  0  0  0  0  0  0  0  0  0
    0.1096    1.4681   -0.0542 C   0  0  0  0  0  0  0  0  0  0  0  0
    1.2800    0.7260   -0.0888 C   0  0  0  0  0  0  0  0  0  0  0  0
    1.3178   -0.6254   -0.0326 N   0  0  0  0  0  0  0  0  0  0  0  0
    2.5437    1.3750   -0.2431 C   0  0  0  0  0  0  0  0  0  0  0  0
    3.5757    1.9641   -0.4325 C   0  0  0  0  0  0  0  0  0  0  0  0
    4.7802    2.6807   -0.7268 C   0  0  0  0  0  0  0  0  0  0  0  0
    4.7896    4.0789   -0.7146 C   0  0  0  0  0  0  0  0  0  0  0  0
    5.9524    4.7764   -1.0560 C   0  0  0  0  0  0  0  0  0  0  0  0
    7.1071    4.0777   -1.4060 C   0  0  0  0  0  0  0  0  0  0  0  0
    7.1043    2.6825   -1.4068 C   0  0  0  0  0  0  0  0  0  0  0  0
    5.9420    1.9850   -1.0674 C   0  0  0  0  0  0  0  0  0  0  0  0
    0.1540   -2.7698    0.1393 C   0  0  0  0  0  0  0  0  0  0  0  0
   -2.0273   -1.1548    0.0989 H   0  0  0  0  0  0  0  0  0  0  0  0
   -2.0380    1.3328    0.0269 H   0  0  0  0  0  0  0  0  0  0  0  0
    0.1340    2.5522   -0.0926 H   0  0  0  0  0  0  0  0  0  0  0  0
    3.8934    4.6335   -0.4513 H   0  0  0  0  0  0  0  0  0  0  0  0
    5.9543    5.8630   -1.0558 H   0  0  0  0  0  0  0  0  0  0  0  0
    8.0093    4.6193   -1.6802 H   0  0  0  0  0  0  0  0  0  0  0  0
    8.0040    2.1369   -1.6790 H   0  0  0  0  0  0  0  0  0  0  0  0
    5.9460    0.8973   -1.0810 H   0  0  0  0  0  0  0  0  0  0  0  0
   -0.4260   -3.1046    1.0057 H   0  0  0  0  0  0  0  0  0  0  0  0
   -0.2733   -3.2105   -0.7668 H   0  0  0  0  0  0  0  0  0  0  0  0
    1.1774   -3.1397    0.2560 H   0  0  0  0  0  0  0  0  0  0  0  0
  1  2  2  0  0  0  0
  1  6  1  0  0  0  0
  1 15  1  0  0  0  0
  2  3  1  0  0  0  0
  2 16  1  0  0  0  0
  3  4  2  0  0  0  0
  3 17  1  0  0  0  0
  4  5  1  0  0  0  0
  4 18  1  0  0  0  0
  5  6  2  0  0  0  0
  5  7  1  0  0  0  0
  7  8  3  0  0  0  0
  8  9  1  0  0  0  0
  9 10  2  0  0  0  0
  9 14  1  0  0  0  0
 10 11  1  0  0  0  0
 10 19  1  0  0  0  0
 11 12  2  0  0  0  0
 11 20  1  0  0  0  0
 12 13  1  0  0  0  0
 12 21  1  0  0  0  0
 13 14  2  0  0  0  0
 13 22  1  0  0  0  0
 14 23  1  0  0  0  0
 15 24  1  0  0  0  0
 15 25  1  0  0  0  0
 15 26  1  0  0  0  0
M  END
>  <Mol_ID>
663

>  <Formula>
C14H11N

>  <MolWeight>
193.24384

>  <Cat>
S2809

>  <Name>
MPEP

>  <Synonyms>
N/A

>  <Target>
GluR

>  <Form>
free base

>  <CAS>
96206-92-7

>  <URL>
http://selleckchem.com/products/mpep.html

$$$$
