MPP+ iodide
 OpenBabel08302521313D

 26 26  0  0  0  0  0  0  0  0999 V2000
    0.3998   -0.1983    3.3754 I   0  5  0  0  0  0  0  0  0  0  0  0
   -0.8924    0.0472   -0.3230 N   0  3  0  0  0  0  0  0  0  0  0  0
    1.8979    0.0595   -0.0983 C   0  0  0  0  0  0  0  0  0  0  0  0
    3.3712    0.0377    0.1480 C   0  0  0  0  0  0  0  0  0  0  0  0
    1.1564    1.2560   -0.0271 C   0  0  0  0  0  0  0  0  0  0  0  0
    1.1964   -1.1360   -0.3328 C   0  0  0  0  0  0  0  0  0  0  0  0
   -0.2325    1.2312   -0.1488 C   0  0  0  0  0  0  0  0  0  0  0  0
   -0.1976   -1.1235   -0.4285 C   0  0  0  0  0  0  0  0  0  0  0  0
    3.9650    1.0286    0.9638 C   0  0  0  0  0  0  0  0  0  0  0  0
    4.1974   -0.9891   -0.3583 C   0  0  0  0  0  0  0  0  0  0  0  0
   -2.3540    0.0119   -0.3580 C   0  0  0  0  0  0  0  0  0  0  0  0
    5.3229    0.9765    1.2807 C   0  0  0  0  0  0  0  0  0  0  0  0
    5.5617   -1.0241   -0.0504 C   0  0  0  0  0  0  0  0  0  0  0  0
    6.1216   -0.0483    0.7748 C   0  0  0  0  0  0  0  0  0  0  0  0
    1.6371    2.2117    0.1265 H   0  0  0  0  0  0  0  0  0  0  0  0
    1.6987   -2.0918   -0.3807 H   0  0  0  0  0  0  0  0  0  0  0  0
   -0.7796    2.1621   -0.0736 H   0  0  0  0  0  0  0  0  0  0  0  0
   -0.7226   -2.0594   -0.5609 H   0  0  0  0  0  0  0  0  0  0  0  0
    3.3783    1.8239    1.4018 H   0  0  0  0  0  0  0  0  0  0  0  0
    3.8004   -1.7665   -0.9954 H   0  0  0  0  0  0  0  0  0  0  0  0
   -2.7033   -0.4339   -1.3127 H   0  0  0  0  0  0  0  0  0  0  0  0
   -2.7269   -0.6060    0.4900 H   0  0  0  0  0  0  0  0  0  0  0  0
   -2.7935    1.0266   -0.2547 H   0  0  0  0  0  0  0  0  0  0  0  0
    5.7525    1.7265    1.9321 H   0  0  0  0  0  0  0  0  0  0  0  0
    6.1847   -1.8171   -0.4441 H   0  0  0  0  0  0  0  0  0  0  0  0
    7.1724   -0.0888    1.0292 H   0  0  0  0  0  0  0  0  0  0  0  0
  2  7  2  0  0  0  0
  2  8  1  0  0  0  0
  2 11  1  0  0  0  0
  3  4  1  0  0  0  0
  3  5  2  0  0  0  0
  3  6  1  0  0  0  0
  4  9  2  0  0  0  0
  4 10  1  0  0  0  0
  5  7  1  0  0  0  0
  5 15  1  0  0  0  0
  6  8  2  0  0  0  0
  6 16  1  0  0  0  0
  7 17  1  0  0  0  0
  8 18  1  0  0  0  0
  9 12  1  0  0  0  0
  9 19  1  0  0  0  0
 10 13  2  0  0  0  0
 10 20  1  0  0  0  0
 11 21  1  0  0  0  0
 11 22  1  0  0  0  0
 11 23  1  0  0  0  0
 12 14  2  0  0  0  0
 12 24  1  0  0  0  0
 13 14  1  0  0  0  0
 13 25  1  0  0  0  0
 14 26  1  0  0  0  0
M  CHG  2   1  -1   2   1
M  END
>  <Mol_ID>
5891

>  <Formula>
C12H12IN

>  <MolWeight>
297.13485

>  <Cat>
S6301

>  <Name>
MPP+ iodide

>  <Synonyms>
N-Methyl-4-Phenylpyridinium Iodide

>  <Target>
Autophagy,Dopamine Receptor,Serotonin Transporter

>  <Form>
Iodide

>  <CAS>
36913-39-0

>  <URL>
http://www.selleckchem.com/products/mpp-iodide.html

$$$$
