MRE-269 (ACT-333679)
 OpenBabel08302520383D

 60 62  0  0  0  0  0  0  0  0999 V2000
   -1.0357   -5.0551   -2.7488 C   0  0  0  0  0  0  0  0  0  0  0  0
   -0.4525   -3.6671   -2.4442 C   0  0  0  0  0  0  0  0  0  0  0  0
   -0.8340   -5.6777   -3.7775 O   0  0  0  0  0  0  0  0  0  0  0  0
   -1.8217   -5.5108   -1.7471 O   0  0  0  0  0  0  0  0  0  0  0  0
   -0.2923   -3.3527   -1.0724 O   0  0  0  0  0  0  0  0  0  0  0  0
    0.6919   -4.1094   -0.3606 C   0  0  0  0  0  0  0  0  0  0  0  0
    2.1182   -4.0278   -0.9091 C   0  0  0  0  0  0  0  0  0  0  0  0
    2.7007   -2.6148   -1.0377 C   0  0  0  0  0  0  0  0  0  0  0  0
    2.8987   -1.8501    0.2805 C   0  0  0  0  0  0  0  0  0  0  0  0
    3.7963   -2.5955    1.1801 N   0  0  0  0  0  0  0  0  0  0  0  0
    5.2398   -2.2785    1.0956 C   0  0  0  0  0  0  0  0  0  0  0  0
    5.7956   -1.6412    2.3687 C   0  0  0  0  0  0  0  0  0  0  0  0
    6.0746   -3.4718    0.6302 C   0  0  0  0  0  0  0  0  0  0  0  0
    3.2122   -3.1589    2.3111 C   0  0  0  0  0  0  0  0  0  0  0  0
    3.7177   -4.3096    2.9129 C   0  0  0  0  0  0  0  0  0  0  0  0
    2.0792   -2.6277    2.8197 N   0  0  0  0  0  0  0  0  0  0  0  0
    3.1205   -4.9828    3.9262 N   0  0  0  0  0  0  0  0  0  0  0  0
    1.9702   -4.4504    4.4136 C   0  0  0  0  0  0  0  0  0  0  0  0
    1.4815   -3.2259    3.9038 C   0  0  0  0  0  0  0  0  0  0  0  0
    0.3228   -2.4679    4.4532 C   0  0  0  0  0  0  0  0  0  0  0  0
   -0.5851   -1.8063    3.6090 C   0  0  0  0  0  0  0  0  0  0  0  0
   -1.7800   -1.2680    4.1051 C   0  0  0  0  0  0  0  0  0  0  0  0
   -2.1024   -1.4015    5.4536 C   0  0  0  0  0  0  0  0  0  0  0  0
   -1.1816   -1.9672    6.3231 C   0  0  0  0  0  0  0  0  0  0  0  0
    0.0449   -2.4239    5.8339 C   0  0  0  0  0  0  0  0  0  0  0  0
    1.3904   -5.2247    5.5425 C   0  0  0  0  0  0  0  0  0  0  0  0
    2.2368   -5.7664    6.5250 C   0  0  0  0  0  0  0  0  0  0  0  0
    1.7326   -6.2285    7.7466 C   0  0  0  0  0  0  0  0  0  0  0  0
    0.3682   -6.1597    7.9993 C   0  0  0  0  0  0  0  0  0  0  0  0
   -0.4983   -5.7496    6.9960 C   0  0  0  0  0  0  0  0  0  0  0  0
    0.0035   -5.3500    5.7515 C   0  0  0  0  0  0  0  0  0  0  0  0
    0.4890   -3.5520   -2.9864 H   0  0  0  0  0  0  0  0  0  0  0  0
   -1.1633   -2.9449   -2.8566 H   0  0  0  0  0  0  0  0  0  0  0  0
   -1.8515   -4.8524   -1.0075 H   0  0  0  0  0  0  0  0  0  0  0  0
    0.6752   -3.7630    0.6714 H   0  0  0  0  0  0  0  0  0  0  0  0
    0.3775   -5.1621   -0.3310 H   0  0  0  0  0  0  0  0  0  0  0  0
    2.7741   -4.6450   -0.2839 H   0  0  0  0  0  0  0  0  0  0  0  0
    2.1464   -4.4893   -1.9033 H   0  0  0  0  0  0  0  0  0  0  0  0
    3.6720   -2.6989   -1.5445 H   0  0  0  0  0  0  0  0  0  0  0  0
    2.0643   -2.0141   -1.6987 H   0  0  0  0  0  0  0  0  0  0  0  0
    3.3357   -0.8721    0.0469 H   0  0  0  0  0  0  0  0  0  0  0  0
    1.9201   -1.6226    0.7160 H   0  0  0  0  0  0  0  0  0  0  0  0
    5.3734   -1.5231    0.3087 H   0  0  0  0  0  0  0  0  0  0  0  0
    5.8317   -2.3455    3.2055 H   0  0  0  0  0  0  0  0  0  0  0  0
    6.8167   -1.2831    2.1995 H   0  0  0  0  0  0  0  0  0  0  0  0
    5.1888   -0.7815    2.6724 H   0  0  0  0  0  0  0  0  0  0  0  0
    5.6914   -3.8695   -0.3158 H   0  0  0  0  0  0  0  0  0  0  0  0
    7.1161   -3.1704    0.4716 H   0  0  0  0  0  0  0  0  0  0  0  0
    6.1000   -4.2911    1.3483 H   0  0  0  0  0  0  0  0  0  0  0  0
    4.6212   -4.7871    2.5702 H   0  0  0  0  0  0  0  0  0  0  0  0
   -0.3773   -1.7269    2.5430 H   0  0  0  0  0  0  0  0  0  0  0  0
   -2.4716   -0.7693    3.4321 H   0  0  0  0  0  0  0  0  0  0  0  0
   -3.0612   -1.0538    5.8283 H   0  0  0  0  0  0  0  0  0  0  0  0
   -1.4164   -2.0843    7.3783 H   0  0  0  0  0  0  0  0  0  0  0  0
    0.7509   -2.8350    6.5537 H   0  0  0  0  0  0  0  0  0  0  0  0
    3.3160   -5.7787    6.3654 H   0  0  0  0  0  0  0  0  0  0  0  0
    2.4166   -6.5981    8.5039 H   0  0  0  0  0  0  0  0  0  0  0  0
   -0.0157   -6.4285    8.9809 H   0  0  0  0  0  0  0  0  0  0  0  0
   -1.5675   -5.6853    7.1893 H   0  0  0  0  0  0  0  0  0  0  0  0
   -0.7040   -5.0200    4.9947 H   0  0  0  0  0  0  0  0  0  0  0  0
  1  2  1  0  0  0  0
  1  3  2  0  0  0  0
  1  4  1  0  0  0  0
  2  5  1  0  0  0  0
  2 32  1  0  0  0  0
  2 33  1  0  0  0  0
  4 34  1  0  0  0  0
  5  6  1  0  0  0  0
  6  7  1  0  0  0  0
  6 35  1  0  0  0  0
  6 36  1  0  0  0  0
  7  8  1  0  0  0  0
  7 37  1  0  0  0  0
  7 38  1  0  0  0  0
  8  9  1  0  0  0  0
  8 39  1  0  0  0  0
  8 40  1  0  0  0  0
  9 10  1  0  0  0  0
  9 41  1  0  0  0  0
  9 42  1  0  0  0  0
 10 11  1  0  0  0  0
 10 14  1  0  0  0  0
 11 12  1  0  0  0  0
 11 13  1  0  0  0  0
 11 43  1  0  0  0  0
 12 44  1  0  0  0  0
 12 45  1  0  0  0  0
 12 46  1  0  0  0  0
 13 47  1  0  0  0  0
 13 48  1  0  0  0  0
 13 49  1  0  0  0  0
 14 15  2  0  0  0  0
 14 16  1  0  0  0  0
 15 17  1  0  0  0  0
 15 50  1  0  0  0  0
 16 19  2  0  0  0  0
 17 18  2  0  0  0  0
 18 19  1  0  0  0  0
 18 26  1  0  0  0  0
 19 20  1  0  0  0  0
 20 21  2  0  0  0  0
 20 25  1  0  0  0  0
 21 22  1  0  0  0  0
 21 51  1  0  0  0  0
 22 23  2  0  0  0  0
 22 52  1  0  0  0  0
 23 24  1  0  0  0  0
 23 53  1  0  0  0  0
 24 25  2  0  0  0  0
 24 54  1  0  0  0  0
 25 55  1  0  0  0  0
 26 27  2  0  0  0  0
 26 31  1  0  0  0  0
 27 28  1  0  0  0  0
 27 56  1  0  0  0  0
 28 29  2  0  0  0  0
 28 57  1  0  0  0  0
 29 30  1  0  0  0  0
 29 58  1  0  0  0  0
 30 31  2  0  0  0  0
 30 59  1  0  0  0  0
 31 60  1  0  0  0  0
M  END
>  <Mol_ID>
3444

>  <Formula>
C25H29N3O3

>  <MolWeight>
419.51606

>  <Cat>
S5819

>  <Name>
MRE-269 (ACT-333679)

>  <Synonyms>
N/A

>  <Target>
Prostaglandin Receptor

>  <Form>
Free Base

>  <CAS>
475085-57-5

>  <URL>
http://www.selleckchem.com/products/mre-269-act-333679.html

$$$$
