MRT-2359
 OpenBabel08302521373D

 52 55  0  0  0  0  0  0  0  0999 V2000
   -2.2370    1.3472   -0.3077 O   0  0  0  0  0  0  0  0  0  0  0  0
   -3.7276   -1.5131   -2.4636 O   0  0  0  0  0  0  0  0  0  0  0  0
   -5.8848    1.8089   -0.2918 O   0  0  0  0  0  0  0  0  0  0  0  0
    3.0592    2.4478   -0.0095 C   0  0  0  0  0  0  0  0  0  0  0  0
    2.9168    3.3799   -1.0993 O   0  0  0  0  0  0  0  0  0  0  0  0
    3.6573    3.0636   -2.1922 C   0  0  0  0  0  0  0  0  0  0  0  0
    3.6043    4.0727   -3.1212 N   0  0  0  0  0  0  0  0  0  0  0  0
    4.3164    2.0331   -2.2746 O   0  0  0  0  0  0  0  0  0  0  0  0
    3.9282    6.3938   -4.6012 F   0  0  0  0  0  0  0  0  0  0  0  0
    5.5821    1.7169   -6.9512 O   0  0  0  0  0  0  0  0  0  0  0  0
    4.9441    0.4663   -6.7017 C   0  0  0  0  0  0  0  0  0  0  0  0
    3.8383    0.5419   -5.9338 F   0  0  0  0  0  0  0  0  0  0  0  0
    4.5734   -0.0624   -7.8907 F   0  0  0  0  0  0  0  0  0  0  0  0
    5.8240   -0.3789   -6.1238 F   0  0  0  0  0  0  0  0  0  0  0  0
   -1.9337   -0.9622   -0.0720 N   0  0  0  0  0  0  0  0  0  0  0  0
   -1.5484    0.3579   -0.1866 C   0  0  0  0  0  0  0  0  0  0  0  0
   -0.7936   -1.8697   -0.0399 C   0  0  0  0  0  0  0  0  0  0  0  0
   -0.0882    0.3807   -0.1610 C   0  0  0  0  0  0  0  0  0  0  0  0
    0.3680   -0.9301   -0.0616 C   0  0  0  0  0  0  0  0  0  0  0  0
    0.7418    1.4851   -0.1918 C   0  0  0  0  0  0  0  0  0  0  0  0
    1.7270   -1.1726    0.0048 C   0  0  0  0  0  0  0  0  0  0  0  0
    2.1182    1.2650   -0.0990 C   0  0  0  0  0  0  0  0  0  0  0  0
    2.5993   -0.0674   -0.0084 C   0  0  0  0  0  0  0  0  0  0  0  0
   -3.3145   -1.4418   -0.0782 C   0  0  3  0  0  0  0  0  0  0  0  0
   -4.0062   -1.0151   -1.3729 C   0  0  0  0  0  0  0  0  0  0  0  0
   -4.1437   -1.0743    1.1500 C   0  0  0  0  0  0  0  0  0  0  0  0
   -4.8836    0.0390   -1.2806 N   0  0  0  0  0  0  0  0  0  0  0  0
   -4.6192    0.3686    1.1522 C   0  0  0  0  0  0  0  0  0  0  0  0
   -5.1834    0.8049   -0.1814 C   0  0  0  0  0  0  0  0  0  0  0  0
    4.1967    4.0420   -4.4088 C   0  0  0  0  0  0  0  0  0  0  0  0
    4.6326    2.8494   -5.0003 C   0  0  0  0  0  0  0  0  0  0  0  0
    4.3369    5.2304   -5.1318 C   0  0  0  0  0  0  0  0  0  0  0  0
    5.1675    2.8309   -6.2880 C   0  0  0  0  0  0  0  0  0  0  0  0
    4.9353    5.2403   -6.3921 C   0  0  0  0  0  0  0  0  0  0  0  0
    5.3565    4.0380   -6.9644 C   0  0  0  0  0  0  0  0  0  0  0  0
    2.8200    2.9950    0.9091 H   0  0  0  0  0  0  0  0  0  0  0  0
    4.1033    2.1285    0.0989 H   0  0  0  0  0  0  0  0  0  0  0  0
    3.1756    4.9388   -2.8212 H   0  0  0  0  0  0  0  0  0  0  0  0
   -0.8301   -2.4587    0.8823 H   0  0  0  0  0  0  0  0  0  0  0  0
   -0.8181   -2.5123   -0.9251 H   0  0  0  0  0  0  0  0  0  0  0  0
    0.3239    2.4836   -0.2624 H   0  0  0  0  0  0  0  0  0  0  0  0
    2.1193   -2.1820    0.0777 H   0  0  0  0  0  0  0  0  0  0  0  0
    3.6716   -0.2508    0.0579 H   0  0  0  0  0  0  0  0  0  0  0  0
   -3.2663   -2.5393   -0.1094 H   0  0  0  0  0  0  0  0  0  0  0  0
   -5.0350   -1.7168    1.1639 H   0  0  0  0  0  0  0  0  0  0  0  0
   -3.5889   -1.2862    2.0714 H   0  0  0  0  0  0  0  0  0  0  0  0
   -5.2435    0.3861   -2.1579 H   0  0  0  0  0  0  0  0  0  0  0  0
   -5.4126    0.4779    1.9010 H   0  0  0  0  0  0  0  0  0  0  0  0
   -3.8166    1.0496    1.4462 H   0  0  0  0  0  0  0  0  0  0  0  0
    4.5372    1.9188   -4.4554 H   0  0  0  0  0  0  0  0  0  0  0  0
    5.0726    6.1777   -6.9222 H   0  0  0  0  0  0  0  0  0  0  0  0
    5.8240    4.0412   -7.9472 H   0  0  0  0  0  0  0  0  0  0  0  0
  1 16  2  0  0  0  0
  2 25  2  0  0  0  0
  3 29  2  0  0  0  0
  4  5  1  0  0  0  0
  4 22  1  0  0  0  0
  4 36  1  0  0  0  0
  4 37  1  0  0  0  0
  5  6  1  0  0  0  0
  6  7  1  0  0  0  0
  6  8  2  0  0  0  0
  7 30  1  0  0  0  0
  7 38  1  0  0  0  0
  9 32  1  0  0  0  0
 10 11  1  0  0  0  0
 10 33  1  0  0  0  0
 11 12  1  0  0  0  0
 11 13  1  0  0  0  0
 11 14  1  0  0  0  0
 15 16  1  0  0  0  0
 15 17  1  0  0  0  0
 15 24  1  0  0  0  0
 16 18  1  0  0  0  0
 17 19  1  0  0  0  0
 17 39  1  0  0  0  0
 17 40  1  0  0  0  0
 18 19  2  0  0  0  0
 18 20  1  0  0  0  0
 19 21  1  0  0  0  0
 20 22  2  0  0  0  0
 20 41  1  0  0  0  0
 21 23  2  0  0  0  0
 21 42  1  0  0  0  0
 22 23  1  0  0  0  0
 23 43  1  0  0  0  0
 24 25  1  0  0  0  0
 24 26  1  0  0  0  0
 24 44  1  0  0  0  0
 25 27  1  0  0  0  0
 26 28  1  0  0  0  0
 26 45  1  0  0  0  0
 26 46  1  0  0  0  0
 27 29  1  0  0  0  0
 27 47  1  0  0  0  0
 28 29  1  0  0  0  0
 28 48  1  0  0  0  0
 28 49  1  0  0  0  0
 30 31  2  0  0  0  0
 30 32  1  0  0  0  0
 31 33  1  0  0  0  0
 31 50  1  0  0  0  0
 32 34  2  0  0  0  0
 33 35  2  0  0  0  0
 34 35  1  0  0  0  0
 34 51  1  0  0  0  0
 35 52  1  0  0  0  0
M  END
>  <Mol_ID>
7542

>  <Formula>
C22H17F4N3O6

>  <MolWeight>
495.3804928

>  <Cat>
E1427

>  <Name>
MRT-2359

>  <Target>
E3 Ligase

>  <Form>
free base

>  <CAS>
2803881-11-8

>  <URL>
https://www.selleckchem.com/products/mrt-2359.html

$$$$
