MRT 10
 OpenBabel08302521333D

 56 58  0  0  0  0  0  0  0  0999 V2000
    1.7657    0.0219   -1.4061 C   0  0  0  0  0  0  0  0  0  0  0  0
    0.4123   -0.0805   -2.0547 C   0  0  0  0  0  0  0  0  0  0  0  0
    0.3581   -0.3970   -3.4223 C   0  0  0  0  0  0  0  0  0  0  0  0
   -0.8619   -0.4623   -4.1215 C   0  0  0  0  0  0  0  0  0  0  0  0
   -2.0672   -0.1640   -3.4490 C   0  0  0  0  0  0  0  0  0  0  0  0
   -2.0130    0.1109   -2.0647 C   0  0  0  0  0  0  0  0  0  0  0  0
   -0.7877    0.1233   -1.3792 C   0  0  0  0  0  0  0  0  0  0  0  0
    2.7520   -0.2367   -2.0853 O   0  0  0  0  0  0  0  0  0  0  0  0
    1.8024    0.3969   -0.0599 N   0  0  0  0  0  0  0  0  0  0  0  0
   -3.0664    0.3473   -1.2130 O   0  0  0  0  0  0  0  0  0  0  0  0
   -4.2404    0.9406   -1.7509 C   0  0  0  0  0  0  0  0  0  0  0  0
   -3.3204   -0.1482   -4.0010 O   0  0  0  0  0  0  0  0  0  0  0  0
   -3.5135   -0.2101   -5.4055 C   0  0  0  0  0  0  0  0  0  0  0  0
   -0.9360   -0.8391   -5.4379 O   0  0  0  0  0  0  0  0  0  0  0  0
    0.2664   -1.0839   -6.1565 C   0  0  0  0  0  0  0  0  0  0  0  0
    2.8800    0.7323    0.7528 C   0  0  0  0  0  0  0  0  0  0  0  0
    4.4929    0.8203    0.3451 S   0  0  0  0  0  0  0  0  0  0  0  0
    2.5091    1.1459    2.0160 N   0  0  0  0  0  0  0  0  0  0  0  0
    1.5729    0.5574    2.8902 C   0  0  0  0  0  0  0  0  0  0  0  0
    1.1724    1.2959    4.0118 C   0  0  0  0  0  0  0  0  0  0  0  0
    0.3568    0.7330    5.0009 C   0  0  0  0  0  0  0  0  0  0  0  0
   -0.0022   -0.6067    4.8896 C   0  0  0  0  0  0  0  0  0  0  0  0
    0.3777   -1.3489    3.7621 C   0  0  0  0  0  0  0  0  0  0  0  0
    1.1512   -0.7655    2.7572 C   0  0  0  0  0  0  0  0  0  0  0  0
   -0.0515    1.4591    6.1514 N   0  0  0  0  0  0  0  0  0  0  0  0
   -0.0411    2.8419    6.2617 C   0  0  0  0  0  0  0  0  0  0  0  0
   -0.2237    3.4261    7.6251 C   0  0  0  0  0  0  0  0  0  0  0  0
    0.0944    2.7273    8.7966 C   0  0  0  0  0  0  0  0  0  0  0  0
    0.0584    3.3850   10.0331 C   0  0  0  0  0  0  0  0  0  0  0  0
   -0.2956    4.7288   10.1067 C   0  0  0  0  0  0  0  0  0  0  0  0
   -0.6382    5.4267    8.9488 C   0  0  0  0  0  0  0  0  0  0  0  0
   -0.6033    4.7755    7.7167 C   0  0  0  0  0  0  0  0  0  0  0  0
    0.0978    3.6195    5.3197 O   0  0  0  0  0  0  0  0  0  0  0  0
    1.2979   -0.6019   -3.9296 H   0  0  0  0  0  0  0  0  0  0  0  0
   -0.8317    0.3082   -0.3117 H   0  0  0  0  0  0  0  0  0  0  0  0
    0.9339    0.6573    0.3749 H   0  0  0  0  0  0  0  0  0  0  0  0
   -4.0163    1.7138   -2.4931 H   0  0  0  0  0  0  0  0  0  0  0  0
   -4.9078    0.1717   -2.1514 H   0  0  0  0  0  0  0  0  0  0  0  0
   -4.7667    1.4298   -0.9252 H   0  0  0  0  0  0  0  0  0  0  0  0
   -2.7957    0.3858   -5.9761 H   0  0  0  0  0  0  0  0  0  0  0  0
   -3.5329   -1.2546   -5.7299 H   0  0  0  0  0  0  0  0  0  0  0  0
   -4.4977    0.2204   -5.6193 H   0  0  0  0  0  0  0  0  0  0  0  0
    0.9239   -0.2087   -6.1489 H   0  0  0  0  0  0  0  0  0  0  0  0
    0.7763   -1.9731   -5.7730 H   0  0  0  0  0  0  0  0  0  0  0  0
   -0.0068   -1.2796   -7.1983 H   0  0  0  0  0  0  0  0  0  0  0  0
    3.1931    1.7438    2.4746 H   0  0  0  0  0  0  0  0  0  0  0  0
    1.5176    2.3228    4.0952 H   0  0  0  0  0  0  0  0  0  0  0  0
   -0.5909   -1.0965    5.6623 H   0  0  0  0  0  0  0  0  0  0  0  0
    0.0922   -2.3946    3.6847 H   0  0  0  0  0  0  0  0  0  0  0  0
    1.4815   -1.3883    1.9276 H   0  0  0  0  0  0  0  0  0  0  0  0
   -0.4871    0.9334    6.8945 H   0  0  0  0  0  0  0  0  0  0  0  0
    0.4282    1.6946    8.7698 H   0  0  0  0  0  0  0  0  0  0  0  0
    0.3380    2.8531   10.9391 H   0  0  0  0  0  0  0  0  0  0  0  0
   -0.2878    5.2473   11.0649 H   0  0  0  0  0  0  0  0  0  0  0  0
   -0.9027    6.4784    9.0006 H   0  0  0  0  0  0  0  0  0  0  0  0
   -0.8413    5.3373    6.8139 H   0  0  0  0  0  0  0  0  0  0  0  0
  1  2  1  0  0  0  0
  1  8  2  0  0  0  0
  1  9  1  0  0  0  0
  2  3  2  0  0  0  0
  2  7  1  0  0  0  0
  3  4  1  0  0  0  0
  3 34  1  0  0  0  0
  4  5  2  0  0  0  0
  4 14  1  0  0  0  0
  5  6  1  0  0  0  0
  5 12  1  0  0  0  0
  6  7  2  0  0  0  0
  6 10  1  0  0  0  0
  7 35  1  0  0  0  0
  9 16  1  0  0  0  0
  9 36  1  0  0  0  0
 10 11  1  0  0  0  0
 11 37  1  0  0  0  0
 11 38  1  0  0  0  0
 11 39  1  0  0  0  0
 12 13  1  0  0  0  0
 13 40  1  0  0  0  0
 13 41  1  0  0  0  0
 13 42  1  0  0  0  0
 14 15  1  0  0  0  0
 15 43  1  0  0  0  0
 15 44  1  0  0  0  0
 15 45  1  0  0  0  0
 16 17  2  0  0  0  0
 16 18  1  0  0  0  0
 18 19  1  0  0  0  0
 18 46  1  0  0  0  0
 19 20  2  0  0  0  0
 19 24  1  0  0  0  0
 20 21  1  0  0  0  0
 20 47  1  0  0  0  0
 21 22  2  0  0  0  0
 21 25  1  0  0  0  0
 22 23  1  0  0  0  0
 22 48  1  0  0  0  0
 23 24  2  0  0  0  0
 23 49  1  0  0  0  0
 24 50  1  0  0  0  0
 25 26  1  0  0  0  0
 25 51  1  0  0  0  0
 26 27  1  0  0  0  0
 26 33  2  0  0  0  0
 27 28  2  0  0  0  0
 27 32  1  0  0  0  0
 28 29  1  0  0  0  0
 28 52  1  0  0  0  0
 29 30  2  0  0  0  0
 29 53  1  0  0  0  0
 30 31  1  0  0  0  0
 30 54  1  0  0  0  0
 31 32  2  0  0  0  0
 31 55  1  0  0  0  0
 32 56  1  0  0  0  0
M  END
>  <Mol_ID>
6338

>  <Formula>
C24H23N3O5S

>  <MolWeight>
465.52152

>  <Cat>
E0782

>  <Name>
MRT 10

>  <Target>
Hedgehog/Smoothened

>  <Form>
free base

>  <CAS>
330829-30-6

>  <URL>
http://www.selleckchem.com/products/mrt-10.html

$$$$
