MRX-2843
 OpenBabel08302521353D

 76 81  0  0  0  0  0  0  0  0999 V2000
   -1.9430   -0.8914   -0.0958 C   0  0  0  0  0  0  0  0  0  0  0  0
   -2.1175    0.4396   -0.0348 N   0  0  0  0  0  0  0  0  0  0  0  0
   -1.0386    1.2399    0.0357 C   0  0  0  0  0  0  0  0  0  0  0  0
    0.2346    0.6916    0.0660 C   0  0  0  0  0  0  0  0  0  0  0  0
    0.2974   -0.6949    0.0182 C   0  0  0  0  0  0  0  0  0  0  0  0
   -0.7652   -1.5399   -0.0549 N   0  0  0  0  0  0  0  0  0  0  0  0
    1.5700    1.1917    0.0895 C   0  0  0  0  0  0  0  0  0  0  0  0
    2.4041    0.0933    0.0652 C   0  0  0  0  0  0  0  0  0  0  0  0
    1.6374   -1.0423    0.0026 N   0  0  0  0  0  0  0  0  0  0  0  0
   -3.1499   -1.5397   -0.2935 N   0  0  0  0  0  0  0  0  0  0  0  0
    2.0539    2.5628    0.0593 C   0  0  0  0  0  0  0  0  0  0  0  0
   -3.3942   -2.8433    0.2874 C   0  0  0  0  0  0  0  0  0  0  0  0
   -4.8641   -3.2163   -0.0041 C   0  0  0  0  0  0  0  0  0  0  0  0
   -5.2371   -4.6063    0.4201 C   0  0  0  0  0  0  0  0  0  0  0  0
   -6.6532   -5.0739    0.1727 C   0  0  0  0  0  0  0  0  0  0  0  0
   -6.1711   -4.8667    1.5742 C   0  0  0  0  0  0  0  0  0  0  0  0
    1.3170    3.5981    0.6519 C   0  0  0  0  0  0  0  0  0  0  0  0
    1.7464    4.9212    0.5538 C   0  0  0  0  0  0  0  0  0  0  0  0
    2.9411    5.2316   -0.1057 C   0  0  0  0  0  0  0  0  0  0  0  0
    3.6928    4.1993   -0.6764 C   0  0  0  0  0  0  0  0  0  0  0  0
    3.2494    2.8800   -0.5980 C   0  0  0  0  0  0  0  0  0  0  0  0
    3.4315    6.6573   -0.1850 C   0  0  0  0  0  0  0  0  0  0  0  0
    3.6210    7.2799    1.1322 N   0  0  0  0  0  0  0  0  0  0  0  0
    4.6006    6.5588    1.9688 C   0  0  0  0  0  0  0  0  0  0  0  0
    4.8254    7.2661    3.3262 C   0  0  0  0  0  0  0  0  0  0  0  0
    5.2251    8.6843    3.2284 N   0  0  0  0  0  0  0  0  0  0  0  0
    4.2939    9.3844    2.3216 C   0  0  0  0  0  0  0  0  0  0  0  0
    4.0460    8.6820    0.9673 C   0  0  0  0  0  0  0  0  0  0  0  0
    6.6121    8.8198    2.7913 C   0  0  0  0  0  0  0  0  0  0  0  0
    2.1453   -2.3968   -0.1559 C   0  0  1  0  0  0  0  0  0  0  0  0
    2.3547   -2.7500   -1.6349 C   0  0  0  0  0  0  0  0  0  0  0  0
    2.6197   -4.2455   -1.7658 C   0  0  0  0  0  0  0  0  0  0  0  0
    3.8149   -4.6982   -0.9230 C   0  0  1  0  0  0  0  0  0  0  0  0
    3.7691   -4.1867    0.5205 C   0  0  0  0  0  0  0  0  0  0  0  0
    3.4537   -2.6937    0.6017 C   0  0  0  0  0  0  0  0  0  0  0  0
    3.8640   -6.1220   -0.9098 O   0  0  0  0  0  0  0  0  0  0  0  0
   -1.2399    2.3045    0.0373 H   0  0  0  0  0  0  0  0  0  0  0  0
    3.4866    0.0327    0.0599 H   0  0  0  0  0  0  0  0  0  0  0  0
   -3.8496   -0.8366   -0.0831 H   0  0  0  0  0  0  0  0  0  0  0  0
   -2.7254   -3.5902   -0.1554 H   0  0  0  0  0  0  0  0  0  0  0  0
   -3.2251   -2.8311    1.3706 H   0  0  0  0  0  0  0  0  0  0  0  0
   -5.5266   -2.4822    0.4714 H   0  0  0  0  0  0  0  0  0  0  0  0
   -5.0407   -3.1319   -1.0843 H   0  0  0  0  0  0  0  0  0  0  0  0
   -4.4536   -5.3310    0.2176 H   0  0  0  0  0  0  0  0  0  0  0  0
   -7.3789   -4.3695   -0.2223 H   0  0  0  0  0  0  0  0  0  0  0  0
   -6.8000   -6.0922   -0.1764 H   0  0  0  0  0  0  0  0  0  0  0  0
   -6.0073   -5.7512    2.1831 H   0  0  0  0  0  0  0  0  0  0  0  0
   -6.5916   -4.0295    2.1262 H   0  0  0  0  0  0  0  0  0  0  0  0
    0.4066    3.3953    1.2078 H   0  0  0  0  0  0  0  0  0  0  0  0
    1.1584    5.7132    1.0155 H   0  0  0  0  0  0  0  0  0  0  0  0
    4.6297    4.4128   -1.1852 H   0  0  0  0  0  0  0  0  0  0  0  0
    3.8457    2.1071   -1.0742 H   0  0  0  0  0  0  0  0  0  0  0  0
    2.6793    7.2198   -0.7529 H   0  0  0  0  0  0  0  0  0  0  0  0
    4.3598    6.7016   -0.7696 H   0  0  0  0  0  0  0  0  0  0  0  0
    4.2417    5.5467    2.1927 H   0  0  0  0  0  0  0  0  0  0  0  0
    5.5567    6.4516    1.4411 H   0  0  0  0  0  0  0  0  0  0  0  0
    3.8919    7.2166    3.9022 H   0  0  0  0  0  0  0  0  0  0  0  0
    5.5622    6.7048    3.9155 H   0  0  0  0  0  0  0  0  0  0  0  0
    3.3306    9.4840    2.8394 H   0  0  0  0  0  0  0  0  0  0  0  0
    4.6395   10.4097    2.1428 H   0  0  0  0  0  0  0  0  0  0  0  0
    4.9578    8.7366    0.3567 H   0  0  0  0  0  0  0  0  0  0  0  0
    3.2676    9.2381    0.4318 H   0  0  0  0  0  0  0  0  0  0  0  0
    6.7991    8.4030    1.7966 H   0  0  0  0  0  0  0  0  0  0  0  0
    6.9040    9.8758    2.7772 H   0  0  0  0  0  0  0  0  0  0  0  0
    7.2837    8.3216    3.4994 H   0  0  0  0  0  0  0  0  0  0  0  0
    1.3681   -3.0494    0.2627 H   0  0  0  0  0  0  0  0  0  0  0  0
    3.2076   -2.1861   -2.0444 H   0  0  0  0  0  0  0  0  0  0  0  0
    1.4829   -2.4715   -2.2371 H   0  0  0  0  0  0  0  0  0  0  0  0
    2.7880   -4.5102   -2.8165 H   0  0  0  0  0  0  0  0  0  0  0  0
    1.7208   -4.7973   -1.4628 H   0  0  0  0  0  0  0  0  0  0  0  0
    4.7387   -4.3469   -1.3975 H   0  0  0  0  0  0  0  0  0  0  0  0
    3.0160   -4.7462    1.0896 H   0  0  0  0  0  0  0  0  0  0  0  0
    4.7264   -4.3986    1.0129 H   0  0  0  0  0  0  0  0  0  0  0  0
    4.2933   -2.1335    0.1643 H   0  0  0  0  0  0  0  0  0  0  0  0
    3.3818   -2.3838    1.6498 H   0  0  0  0  0  0  0  0  0  0  0  0
    3.0418   -6.4531   -0.5048 H   0  0  0  0  0  0  0  0  0  0  0  0
  1  2  2  0  0  0  0
  1 10  1  0  0  0  0
  2  3  1  0  0  0  0
  3  4  2  0  0  0  0
  3 37  1  0  0  0  0
  4  5  1  0  0  0  0
  4  7  1  0  0  0  0
  5  6  2  0  0  0  0
  6  1  1  0  0  0  0
  7  8  2  0  0  0  0
  7 11  1  0  0  0  0
  8  9  1  0  0  0  0
  8 38  1  0  0  0  0
  9  5  1  0  0  0  0
 10 12  1  0  0  0  0
 10 39  1  0  0  0  0
 11 17  2  0  0  0  0
 12 13  1  0  0  0  0
 12 40  1  0  0  0  0
 12 41  1  0  0  0  0
 13 14  1  0  0  0  0
 13 42  1  0  0  0  0
 13 43  1  0  0  0  0
 14 15  1  0  0  0  0
 14 44  1  0  0  0  0
 15 16  1  0  0  0  0
 15 45  1  0  0  0  0
 15 46  1  0  0  0  0
 16 14  1  0  0  0  0
 16 47  1  0  0  0  0
 16 48  1  0  0  0  0
 17 18  1  0  0  0  0
 17 49  1  0  0  0  0
 18 19  2  0  0  0  0
 18 50  1  0  0  0  0
 19 20  1  0  0  0  0
 19 22  1  0  0  0  0
 20 21  2  0  0  0  0
 20 51  1  0  0  0  0
 21 11  1  0  0  0  0
 21 52  1  0  0  0  0
 22 23  1  0  0  0  0
 22 53  1  0  0  0  0
 22 54  1  0  0  0  0
 23 24  1  0  0  0  0
 24 25  1  0  0  0  0
 24 55  1  0  0  0  0
 24 56  1  0  0  0  0
 25 26  1  0  0  0  0
 25 57  1  0  0  0  0
 25 58  1  0  0  0  0
 26 27  1  0  0  0  0
 26 29  1  0  0  0  0
 27 28  1  0  0  0  0
 27 59  1  0  0  0  0
 27 60  1  0  0  0  0
 28 23  1  0  0  0  0
 28 61  1  0  0  0  0
 28 62  1  0  0  0  0
 29 63  1  0  0  0  0
 29 64  1  0  0  0  0
 29 65  1  0  0  0  0
 30  9  1  0  0  0  0
 30 31  1  0  0  0  0
 30 66  1  1  0  0  0
 31 32  1  0  0  0  0
 31 67  1  0  0  0  0
 31 68  1  0  0  0  0
 32 33  1  0  0  0  0
 32 69  1  0  0  0  0
 32 70  1  0  0  0  0
 33 34  1  0  0  0  0
 33 36  1  0  0  0  0
 33 71  1  6  0  0  0
 34 35  1  0  0  0  0
 34 72  1  0  0  0  0
 34 73  1  0  0  0  0
 35 30  1  0  0  0  0
 35 74  1  0  0  0  0
 35 75  1  0  0  0  0
 36 76  1  0  0  0  0
M  END
>  <Mol_ID>
6707

>  <Formula>
C29H40N6O

>  <MolWeight>
488.6675

>  <Cat>
S6839

>  <Name>
MRX-2843

>  <Synonyms>
UNC2371

>  <Target>
FLT3,Mertk

>  <Form>
Free base

>  <CAS>
1429882-07-4

>  <URL>
http://www.selleckchem.com/products/mrx-2843.html

$$$$
