MS023.cdx
 OpenBabel08302520413D

 46 47  0  0  0  0  0  0  0  0999 V2000
    0.9752    0.6625   -0.1937 C   0  0  0  0  0  0  0  0  0  0  0  0
   -0.3377    1.0961   -0.1885 C   0  0  0  0  0  0  0  0  0  0  0  0
   -1.1616    0.0046   -0.1726 N   0  0  0  0  0  0  0  0  0  0  0  0
   -0.4059   -1.1339   -0.1588 C   0  0  0  0  0  0  0  0  0  0  0  0
    0.9340   -0.7764   -0.1455 C   0  0  0  0  0  0  0  0  0  0  0  0
    2.0905   -1.7316   -0.0252 C   0  0  0  0  0  0  0  0  0  0  0  0
    2.8864   -1.4284    1.1716 N   0  0  0  0  0  0  0  0  0  0  0  0
    2.1512   -1.5726    2.4377 C   0  0  0  0  0  0  0  0  0  0  0  0
    4.1595   -2.1333    1.1656 C   0  0  0  0  0  0  0  0  0  0  0  0
    1.5473   -2.9641    2.7169 C   0  0  0  0  0  0  0  0  0  0  0  0
    0.8353   -3.0067    3.9915 N   0  0  0  0  0  0  0  0  0  0  0  0
    2.1232    1.5655   -0.1211 C   0  0  0  0  0  0  0  0  0  0  0  0
    2.0520    2.7649    0.5991 C   0  0  0  0  0  0  0  0  0  0  0  0
    3.1820    3.5690    0.7742 C   0  0  0  0  0  0  0  0  0  0  0  0
    4.4080    3.1885    0.2420 C   0  0  0  0  0  0  0  0  0  0  0  0
    4.4810    2.0180   -0.5183 C   0  0  0  0  0  0  0  0  0  0  0  0
    3.3501    1.2283   -0.7091 C   0  0  0  0  0  0  0  0  0  0  0  0
    5.5908    3.8516    0.3854 O   0  0  0  0  0  0  0  0  0  0  0  0
    5.7241    4.7481    1.4950 C   0  0  0  0  0  0  0  0  0  0  0  0
    5.8649    3.9683    2.8016 C   0  0  0  0  0  0  0  0  0  0  0  0
    6.9645    5.6006    1.2362 C   0  0  0  0  0  0  0  0  0  0  0  0
   -0.7633    2.0922   -0.1785 H   0  0  0  0  0  0  0  0  0  0  0  0
   -2.1710    0.0324   -0.1326 H   0  0  0  0  0  0  0  0  0  0  0  0
   -0.8763   -2.1081   -0.1112 H   0  0  0  0  0  0  0  0  0  0  0  0
    1.7373   -2.7697   -0.0224 H   0  0  0  0  0  0  0  0  0  0  0  0
    2.7030   -1.6433   -0.9304 H   0  0  0  0  0  0  0  0  0  0  0  0
    2.8162   -1.2934    3.2648 H   0  0  0  0  0  0  0  0  0  0  0  0
    1.3483   -0.8257    2.4772 H   0  0  0  0  0  0  0  0  0  0  0  0
    4.0463   -3.2074    0.9933 H   0  0  0  0  0  0  0  0  0  0  0  0
    4.8070   -1.7235    0.3812 H   0  0  0  0  0  0  0  0  0  0  0  0
    4.6988   -1.9901    2.1088 H   0  0  0  0  0  0  0  0  0  0  0  0
    0.8319   -3.2355    1.9352 H   0  0  0  0  0  0  0  0  0  0  0  0
    2.3324   -3.7269    2.7254 H   0  0  0  0  0  0  0  0  0  0  0  0
    0.3976   -3.9216    4.1035 H   0  0  0  0  0  0  0  0  0  0  0  0
    1.5001   -2.9107    4.7589 H   0  0  0  0  0  0  0  0  0  0  0  0
    1.1221    3.0643    1.0789 H   0  0  0  0  0  0  0  0  0  0  0  0
    3.0619    4.4855    1.3417 H   0  0  0  0  0  0  0  0  0  0  0  0
    5.4300    1.7006   -0.9375 H   0  0  0  0  0  0  0  0  0  0  0  0
    3.4472    0.3242   -1.3005 H   0  0  0  0  0  0  0  0  0  0  0  0
    4.8791    5.4430    1.5495 H   0  0  0  0  0  0  0  0  0  0  0  0
    6.6732    3.2312    2.7388 H   0  0  0  0  0  0  0  0  0  0  0  0
    6.0676    4.6394    3.6443 H   0  0  0  0  0  0  0  0  0  0  0  0
    4.9526    3.4113    3.0313 H   0  0  0  0  0  0  0  0  0  0  0  0
    6.8142    6.2151    0.3414 H   0  0  0  0  0  0  0  0  0  0  0  0
    7.1734    6.2685    2.0787 H   0  0  0  0  0  0  0  0  0  0  0  0
    7.8474    4.9798    1.0468 H   0  0  0  0  0  0  0  0  0  0  0  0
  1  2  2  0  0  0  0
  1 12  1  0  0  0  0
  2  3  1  0  0  0  0
  2 22  1  0  0  0  0
  3  4  1  0  0  0  0
  3 23  1  0  0  0  0
  4  5  2  0  0  0  0
  4 24  1  0  0  0  0
  5  1  1  0  0  0  0
  5  6  1  0  0  0  0
  6  7  1  0  0  0  0
  6 25  1  0  0  0  0
  6 26  1  0  0  0  0
  7  8  1  0  0  0  0
  7  9  1  0  0  0  0
  8 10  1  0  0  0  0
  8 27  1  0  0  0  0
  8 28  1  0  0  0  0
  9 29  1  0  0  0  0
  9 30  1  0  0  0  0
  9 31  1  0  0  0  0
 10 11  1  0  0  0  0
 10 32  1  0  0  0  0
 10 33  1  0  0  0  0
 11 34  1  0  0  0  0
 11 35  1  0  0  0  0
 12 13  2  0  0  0  0
 13 14  1  0  0  0  0
 13 36  1  0  0  0  0
 14 15  2  0  0  0  0
 14 37  1  0  0  0  0
 15 16  1  0  0  0  0
 15 18  1  0  0  0  0
 16 17  2  0  0  0  0
 16 38  1  0  0  0  0
 17 12  1  0  0  0  0
 17 39  1  0  0  0  0
 18 19  1  0  0  0  0
 19 20  1  0  0  0  0
 19 21  1  0  0  0  0
 19 40  1  0  0  0  0
 20 41  1  0  0  0  0
 20 42  1  0  0  0  0
 20 43  1  0  0  0  0
 21 44  1  0  0  0  0
 21 45  1  0  0  0  0
 21 46  1  0  0  0  0
M  END
>  <Mol_ID>
3918

>  <Formula>
C17H25N3O

>  <MolWeight>
287.3999

>  <Cat>
S8112

>  <Name>
MS023

>  <Synonyms>
N/A

>  <Target>
Histone Methyltransferase,PRMT

>  <Form>
free base

>  <CAS>
1831110-54-3

>  <URL>
http://selleckchem.com/products/ms023.html

$$$$
