MS023 hydrochloride
 OpenBabel08302521373D

 46 47  0  0  0  0  0  0  0  0999 V2000
    1.0985    0.0407   -0.0169 C   0  0  0  0  0  0  0  0  0  0  0  0
    0.0104   -0.8397   -0.4611 N   0  0  0  0  0  0  0  0  0  0  0  0
    0.6389    1.0798    0.9712 C   0  0  0  0  0  0  0  0  0  0  0  0
   -1.0689   -0.1540   -1.1941 C   0  0  0  0  0  0  0  0  0  0  0  0
    0.5480   -1.9752   -1.2054 C   0  0  0  0  0  0  0  0  0  0  0  0
   -0.0200    0.9068    2.2460 C   0  0  0  0  0  0  0  0  0  0  0  0
    0.8210    2.4449    0.8081 C   0  0  0  0  0  0  0  0  0  0  0  0
   -0.6735    0.6302   -2.4650 C   0  0  0  0  0  0  0  0  0  0  0  0
   -0.1977    2.1732    2.7749 C   0  0  0  0  0  0  0  0  0  0  0  0
   -0.4406   -0.3022    2.9451 C   0  0  0  0  0  0  0  0  0  0  0  0
    0.3081    3.0918    1.8960 N   0  0  0  0  0  0  0  0  0  0  0  0
   -1.8420    1.2150   -3.1274 N   0  0  0  0  0  0  0  0  0  0  0  0
    0.3334   -1.4614    2.8697 C   0  0  0  0  0  0  0  0  0  0  0  0
   -1.6216   -0.3436    3.6986 C   0  0  0  0  0  0  0  0  0  0  0  0
   -0.0713   -2.6443    3.4909 C   0  0  0  0  0  0  0  0  0  0  0  0
   -2.0194   -1.5268    4.3388 C   0  0  0  0  0  0  0  0  0  0  0  0
   -1.2441   -2.6822    4.2384 C   0  0  0  0  0  0  0  0  0  0  0  0
   -1.7293   -3.7813    4.8935 O   0  0  0  0  0  0  0  0  0  0  0  0
   -0.8071   -4.8381    5.1956 C   0  0  0  0  0  0  0  0  0  0  0  0
    0.1020   -4.4277    6.3527 C   0  0  0  0  0  0  0  0  0  0  0  0
   -1.6287   -6.0655    5.5795 C   0  0  0  0  0  0  0  0  0  0  0  0
    1.5908    0.5216   -0.8708 H   0  0  0  0  0  0  0  0  0  0  0  0
    1.8840   -0.5481    0.4730 H   0  0  0  0  0  0  0  0  0  0  0  0
   -1.8265   -0.9025   -1.4624 H   0  0  0  0  0  0  0  0  0  0  0  0
   -1.5905    0.5266   -0.5064 H   0  0  0  0  0  0  0  0  0  0  0  0
    1.1545   -1.6657   -2.0635 H   0  0  0  0  0  0  0  0  0  0  0  0
    1.1748   -2.5924   -0.5516 H   0  0  0  0  0  0  0  0  0  0  0  0
   -0.2539   -2.6285   -1.5668 H   0  0  0  0  0  0  0  0  0  0  0  0
    1.2795    3.0039    0.0023 H   0  0  0  0  0  0  0  0  0  0  0  0
    0.0107    1.4454   -2.2105 H   0  0  0  0  0  0  0  0  0  0  0  0
   -0.1615   -0.0247   -3.1775 H   0  0  0  0  0  0  0  0  0  0  0  0
   -0.6322    2.5007    3.7082 H   0  0  0  0  0  0  0  0  0  0  0  0
    0.3131    4.0938    2.0362 H   0  0  0  0  0  0  0  0  0  0  0  0
   -1.5385    1.7613   -3.9311 H   0  0  0  0  0  0  0  0  0  0  0  0
   -2.4364    0.4700   -3.4888 H   0  0  0  0  0  0  0  0  0  0  0  0
    1.2680   -1.4699    2.3212 H   0  0  0  0  0  0  0  0  0  0  0  0
   -2.2523    0.5362    3.7867 H   0  0  0  0  0  0  0  0  0  0  0  0
    0.5608   -3.5138    3.3550 H   0  0  0  0  0  0  0  0  0  0  0  0
   -2.9392   -1.5404    4.9182 H   0  0  0  0  0  0  0  0  0  0  0  0
   -0.2200   -5.1261    4.3176 H   0  0  0  0  0  0  0  0  0  0  0  0
   -0.4884   -4.0837    7.2086 H   0  0  0  0  0  0  0  0  0  0  0  0
    0.7412   -5.2557    6.6702 H   0  0  0  0  0  0  0  0  0  0  0  0
    0.7516   -3.5928    6.0673 H   0  0  0  0  0  0  0  0  0  0  0  0
   -2.2418   -6.3895    4.7313 H   0  0  0  0  0  0  0  0  0  0  0  0
   -0.9813   -6.8983    5.8722 H   0  0  0  0  0  0  0  0  0  0  0  0
   -2.3161   -5.8432    6.4025 H   0  0  0  0  0  0  0  0  0  0  0  0
  1  2  1  0  0  0  0
  1  3  1  0  0  0  0
  1 22  1  0  0  0  0
  1 23  1  0  0  0  0
  2  4  1  0  0  0  0
  2  5  1  0  0  0  0
  3  6  1  0  0  0  0
  3  7  2  0  0  0  0
  4  8  1  0  0  0  0
  4 24  1  0  0  0  0
  4 25  1  0  0  0  0
  5 26  1  0  0  0  0
  5 27  1  0  0  0  0
  5 28  1  0  0  0  0
  6  9  2  0  0  0  0
  6 10  1  0  0  0  0
  7 11  1  0  0  0  0
  7 29  1  0  0  0  0
  8 12  1  0  0  0  0
  8 30  1  0  0  0  0
  8 31  1  0  0  0  0
  9 11  1  0  0  0  0
  9 32  1  0  0  0  0
 10 13  2  0  0  0  0
 10 14  1  0  0  0  0
 11 33  1  0  0  0  0
 12 34  1  0  0  0  0
 12 35  1  0  0  0  0
 13 15  1  0  0  0  0
 13 36  1  0  0  0  0
 14 16  2  0  0  0  0
 14 37  1  0  0  0  0
 15 17  2  0  0  0  0
 15 38  1  0  0  0  0
 16 17  1  0  0  0  0
 16 39  1  0  0  0  0
 17 18  1  0  0  0  0
 18 19  1  0  0  0  0
 19 20  1  0  0  0  0
 19 21  1  0  0  0  0
 19 40  1  0  0  0  0
 20 41  1  0  0  0  0
 20 42  1  0  0  0  0
 20 43  1  0  0  0  0
 21 44  1  0  0  0  0
 21 45  1  0  0  0  0
 21 46  1  0  0  0  0
M  END
>  <Mol_ID>
7584

>  <Formula>
C17H26ClN3O

>  <MolWeight>
323.86084

>  <Cat>
E2887

>  <Name>
MS023 hydrochloride

>  <Synonyms>
Compound 3

>  <Target>
PRMT

>  <Form>
hydrochloride

>  <CAS>
2108631-19-0

>  <URL>
https://www.selleckchem.com/products/ms023-hydrochloride.html

$$$$
