MS049.cdx
 OpenBabel08302520413D

 42 43  0  0  0  0  0  0  0  0999 V2000
   -3.1228    4.9252   -2.4953 C   0  0  0  0  0  0  0  0  0  0  0  0
   -2.1040    4.1122   -1.9946 C   0  0  0  0  0  0  0  0  0  0  0  0
   -2.3786    3.1386   -1.0253 C   0  0  0  0  0  0  0  0  0  0  0  0
   -3.6766    2.9598   -0.5455 C   0  0  0  0  0  0  0  0  0  0  0  0
   -4.6952    3.7878   -1.0571 C   0  0  0  0  0  0  0  0  0  0  0  0
   -4.4237    4.7617   -2.0267 C   0  0  0  0  0  0  0  0  0  0  0  0
   -4.0451    1.9593    0.5349 C   0  0  0  0  0  0  0  0  0  0  0  0
   -2.9942    1.0439    0.8650 O   0  0  0  0  0  0  0  0  0  0  0  0
   -3.2404    0.3068    2.0770 C   0  0  0  0  0  0  0  0  0  0  0  0
   -1.9612   -0.4109    2.4971 C   0  0  0  0  0  0  0  0  0  0  0  0
   -1.5841   -1.5020    1.4973 C   0  0  0  0  0  0  0  0  0  0  0  0
   -2.6475   -2.4906    1.1978 N   0  0  0  0  0  0  0  0  0  0  0  0
   -3.9402   -1.8410    0.9235 C   0  0  0  0  0  0  0  0  0  0  0  0
   -4.3295   -0.7558    1.9357 C   0  0  0  0  0  0  0  0  0  0  0  0
   -2.1708   -3.2820    0.0228 C   0  0  0  0  0  0  0  0  0  0  0  0
   -3.0857   -4.3781   -0.5773 C   0  0  0  0  0  0  0  0  0  0  0  0
   -2.6027   -4.8814   -1.8794 N   0  0  0  0  0  0  0  0  0  0  0  0
   -1.3545   -5.6289   -1.7991 C   0  0  0  0  0  0  0  0  0  0  0  0
   -2.9037    5.6785   -3.2424 H   0  0  0  0  0  0  0  0  0  0  0  0
   -1.0876    4.2394   -2.3599 H   0  0  0  0  0  0  0  0  0  0  0  0
   -1.5663    2.5216   -0.6486 H   0  0  0  0  0  0  0  0  0  0  0  0
   -5.7149    3.6790   -0.6980 H   0  0  0  0  0  0  0  0  0  0  0  0
   -5.2212    5.3912   -2.4083 H   0  0  0  0  0  0  0  0  0  0  0  0
   -4.3267    2.5268    1.4304 H   0  0  0  0  0  0  0  0  0  0  0  0
   -4.9070    1.3812    0.1848 H   0  0  0  0  0  0  0  0  0  0  0  0
   -3.5077    1.0203    2.8673 H   0  0  0  0  0  0  0  0  0  0  0  0
   -1.1337    0.3061    2.5590 H   0  0  0  0  0  0  0  0  0  0  0  0
   -2.0908   -0.8490    3.4947 H   0  0  0  0  0  0  0  0  0  0  0  0
   -1.2463   -1.0099    0.5773 H   0  0  0  0  0  0  0  0  0  0  0  0
   -0.7203   -2.0431    1.9058 H   0  0  0  0  0  0  0  0  0  0  0  0
   -4.7273   -2.6062    0.9621 H   0  0  0  0  0  0  0  0  0  0  0  0
   -3.9563   -1.4066   -0.0824 H   0  0  0  0  0  0  0  0  0  0  0  0
   -4.5094   -1.2164    2.9165 H   0  0  0  0  0  0  0  0  0  0  0  0
   -5.2774   -0.3028    1.6271 H   0  0  0  0  0  0  0  0  0  0  0  0
   -1.9179   -2.5879   -0.7906 H   0  0  0  0  0  0  0  0  0  0  0  0
   -1.2370   -3.7711    0.3289 H   0  0  0  0  0  0  0  0  0  0  0  0
   -3.2209   -5.2056    0.1282 H   0  0  0  0  0  0  0  0  0  0  0  0
   -4.0772   -3.9566   -0.7710 H   0  0  0  0  0  0  0  0  0  0  0  0
   -3.3181   -5.4832   -2.2870 H   0  0  0  0  0  0  0  0  0  0  0  0
   -1.4628   -6.5313   -1.1898 H   0  0  0  0  0  0  0  0  0  0  0  0
   -1.0600   -5.9424   -2.8072 H   0  0  0  0  0  0  0  0  0  0  0  0
   -0.5310   -5.0240   -1.4089 H   0  0  0  0  0  0  0  0  0  0  0  0
  1  2  2  0  0  0  0
  1 19  1  0  0  0  0
  2  3  1  0  0  0  0
  2 20  1  0  0  0  0
  3  4  2  0  0  0  0
  3 21  1  0  0  0  0
  4  5  1  0  0  0  0
  4  7  1  0  0  0  0
  5  6  2  0  0  0  0
  5 22  1  0  0  0  0
  6  1  1  0  0  0  0
  6 23  1  0  0  0  0
  7  8  1  0  0  0  0
  7 24  1  0  0  0  0
  7 25  1  0  0  0  0
  8  9  1  0  0  0  0
  9 10  1  0  0  0  0
  9 26  1  0  0  0  0
 10 11  1  0  0  0  0
 10 27  1  0  0  0  0
 10 28  1  0  0  0  0
 11 12  1  0  0  0  0
 11 29  1  0  0  0  0
 11 30  1  0  0  0  0
 12 13  1  0  0  0  0
 12 15  1  0  0  0  0
 13 14  1  0  0  0  0
 13 31  1  0  0  0  0
 13 32  1  0  0  0  0
 14  9  1  0  0  0  0
 14 33  1  0  0  0  0
 14 34  1  0  0  0  0
 15 16  1  0  0  0  0
 15 35  1  0  0  0  0
 15 36  1  0  0  0  0
 16 17  1  0  0  0  0
 16 37  1  0  0  0  0
 16 38  1  0  0  0  0
 17 18  1  0  0  0  0
 17 39  1  0  0  0  0
 18 40  1  0  0  0  0
 18 41  1  0  0  0  0
 18 42  1  0  0  0  0
M  END
>  <Mol_ID>
3971

>  <Formula>
C15H26Cl2N2O

>  <MolWeight>
321.28574

>  <Cat>
S8147

>  <Name>
MS049

>  <Synonyms>
N/A

>  <Target>
Histone Methyltransferase,PRMT

>  <Form>
dihydrochloride

>  <CAS>
2095432-59-8

>  <URL>
http://selleckchem.com/products/ms049.html

$$$$
