MS7972
 OpenBabel08302521333D

 30 32  0  0  0  0  0  0  0  0999 V2000
    0.0208   -1.7787   -0.0521 N   0  0  0  0  0  0  0  0  0  0  0  0
   -1.1115   -0.9410   -0.0375 C   0  0  0  0  0  0  0  0  0  0  0  0
   -2.5384   -1.2682   -0.0666 C   0  0  0  0  0  0  0  0  0  0  0  0
   -3.4457   -0.1160    0.3637 C   0  0  0  0  0  0  0  0  0  0  0  0
   -3.0305    1.1623   -0.3618 C   0  0  0  0  0  0  0  0  0  0  0  0
   -1.6092    1.5610    0.0409 C   0  0  0  0  0  0  0  0  0  0  0  0
   -0.6877    0.3795    0.0031 C   0  0  0  0  0  0  0  0  0  0  0  0
    0.7156    0.3967    0.0075 C   0  0  0  0  0  0  0  0  0  0  0  0
    1.6488    1.4595    0.0475 C   0  0  0  0  0  0  0  0  0  0  0  0
    3.0133    1.1985    0.0431 C   0  0  0  0  0  0  0  0  0  0  0  0
    3.4612   -0.1088   -0.0017 C   0  0  0  0  0  0  0  0  0  0  0  0
    2.5546   -1.1791   -0.0388 C   0  0  0  0  0  0  0  0  0  0  0  0
    1.1625   -0.9342   -0.0362 C   0  0  0  0  0  0  0  0  0  0  0  0
   -3.0473   -2.3221   -0.4330 O   0  0  0  0  0  0  0  0  0  0  0  0
   -0.0138   -3.2033   -0.0365 C   0  0  0  0  0  0  0  0  0  0  0  0
   -1.0766   -3.8067    0.0332 O   0  0  0  0  0  0  0  0  0  0  0  0
    1.2805   -3.9441   -0.0400 C   0  0  0  0  0  0  0  0  0  0  0  0
   -4.4826   -0.3661    0.1170 H   0  0  0  0  0  0  0  0  0  0  0  0
   -3.3775    0.0031    1.4517 H   0  0  0  0  0  0  0  0  0  0  0  0
   -3.0659    0.9898   -1.4460 H   0  0  0  0  0  0  0  0  0  0  0  0
   -3.7261    1.9779   -0.1388 H   0  0  0  0  0  0  0  0  0  0  0  0
   -1.2493    2.3507   -0.6281 H   0  0  0  0  0  0  0  0  0  0  0  0
   -1.6166    1.9686    1.0593 H   0  0  0  0  0  0  0  0  0  0  0  0
    1.2985    2.4895    0.0845 H   0  0  0  0  0  0  0  0  0  0  0  0
    3.7238    2.0204    0.0754 H   0  0  0  0  0  0  0  0  0  0  0  0
    4.5295   -0.3122   -0.0050 H   0  0  0  0  0  0  0  0  0  0  0  0
    2.9858   -2.1710   -0.0680 H   0  0  0  0  0  0  0  0  0  0  0  0
    1.8703   -3.7096   -0.9269 H   0  0  0  0  0  0  0  0  0  0  0  0
    1.8195   -3.7679    0.8946 H   0  0  0  0  0  0  0  0  0  0  0  0
    1.0686   -5.0189   -0.0881 H   0  0  0  0  0  0  0  0  0  0  0  0
  1  2  1  0  0  0  0
  1 13  1  0  0  0  0
  1 15  1  0  0  0  0
  2  3  1  0  0  0  0
  2  7  2  0  0  0  0
  3  4  1  0  0  0  0
  3 14  2  0  0  0  0
  4  5  1  0  0  0  0
  4 18  1  0  0  0  0
  4 19  1  0  0  0  0
  5  6  1  0  0  0  0
  5 20  1  0  0  0  0
  5 21  1  0  0  0  0
  6  7  1  0  0  0  0
  6 22  1  0  0  0  0
  6 23  1  0  0  0  0
  7  8  1  0  0  0  0
  8  9  1  0  0  0  0
  8 13  2  0  0  0  0
  9 10  2  0  0  0  0
  9 24  1  0  0  0  0
 10 11  1  0  0  0  0
 10 25  1  0  0  0  0
 11 12  2  0  0  0  0
 11 26  1  0  0  0  0
 12 13  1  0  0  0  0
 12 27  1  0  0  0  0
 15 16  2  0  0  0  0
 15 17  1  0  0  0  0
 17 28  1  0  0  0  0
 17 29  1  0  0  0  0
 17 30  1  0  0  0  0
M  END
>  <Mol_ID>
6370

>  <Formula>
C14H13NO2

>  <MolWeight>
227.25852

>  <Cat>
E0935

>  <Name>
MS7972

>  <Target>
p53

>  <Form>
free base

>  <CAS>
352553-42-5

>  <URL>
http://www.selleckchem.com/products/ms7972.html

$$$$
