MSA-2
 OpenBabel08302521303D

 34 35  0  0  0  0  0  0  0  0999 V2000
   -2.7039   -0.4024    0.1179 C   0  0  0  0  0  0  0  0  0  0  0  0
   -2.4198    0.9524   -0.0506 C   0  0  0  0  0  0  0  0  0  0  0  0
   -1.0735    1.3751   -0.0984 C   0  0  0  0  0  0  0  0  0  0  0  0
   -0.0215    0.4366   -0.0213 C   0  0  0  0  0  0  0  0  0  0  0  0
   -0.2836   -0.9264    0.0550 C   0  0  0  0  0  0  0  0  0  0  0  0
   -1.6366   -1.3254    0.1445 C   0  0  0  0  0  0  0  0  0  0  0  0
    1.6725    0.7391   -0.0101 S   0  0  0  0  0  0  0  0  0  0  0  0
    2.0711   -0.9276    0.0426 C   0  0  0  0  0  0  0  0  0  0  0  0
    0.9279   -1.7020    0.0311 C   0  0  0  0  0  0  0  0  0  0  0  0
   -3.8894   -1.0383    0.3402 O   0  0  0  0  0  0  0  0  0  0  0  0
   -3.3008    1.9634   -0.3274 O   0  0  0  0  0  0  0  0  0  0  0  0
    3.4768   -1.3180    0.1108 C   0  0  0  0  0  0  0  0  0  0  0  0
    3.8659   -2.7272   -0.3072 C   0  0  0  0  0  0  0  0  0  0  0  0
    4.3012   -2.7773   -1.7630 C   0  0  0  0  0  0  0  0  0  0  0  0
    5.4754   -1.8916   -2.1014 C   0  0  0  0  0  0  0  0  0  0  0  0
    6.6220   -2.2256   -1.4601 O   0  0  0  0  0  0  0  0  0  0  0  0
    5.4246   -0.9991   -2.9297 O   0  0  0  0  0  0  0  0  0  0  0  0
    4.3785   -0.5658    0.4870 O   0  0  0  0  0  0  0  0  0  0  0  0
   -5.0700   -0.6116   -0.3078 C   0  0  0  0  0  0  0  0  0  0  0  0
   -4.3364    2.2217    0.6081 C   0  0  0  0  0  0  0  0  0  0  0  0
   -0.8418    2.4336   -0.1962 H   0  0  0  0  0  0  0  0  0  0  0  0
   -1.8671   -2.3863    0.2266 H   0  0  0  0  0  0  0  0  0  0  0  0
    0.9253   -2.7845    0.0582 H   0  0  0  0  0  0  0  0  0  0  0  0
    4.6761   -3.0577    0.3522 H   0  0  0  0  0  0  0  0  0  0  0  0
    3.0436   -3.4288   -0.1383 H   0  0  0  0  0  0  0  0  0  0  0  0
    4.5588   -3.8030   -2.0531 H   0  0  0  0  0  0  0  0  0  0  0  0
    3.4654   -2.4705   -2.4039 H   0  0  0  0  0  0  0  0  0  0  0  0
    6.5453   -2.9578   -0.8205 H   0  0  0  0  0  0  0  0  0  0  0  0
   -5.6915   -0.0693    0.4085 H   0  0  0  0  0  0  0  0  0  0  0  0
   -4.8906   -0.0351   -1.2179 H   0  0  0  0  0  0  0  0  0  0  0  0
   -5.6394   -1.5065   -0.5789 H   0  0  0  0  0  0  0  0  0  0  0  0
   -5.2926    1.9719    0.1409 H   0  0  0  0  0  0  0  0  0  0  0  0
   -4.2171    1.7033    1.5628 H   0  0  0  0  0  0  0  0  0  0  0  0
   -4.3738    3.3004    0.7923 H   0  0  0  0  0  0  0  0  0  0  0  0
  1  2  2  0  0  0  0
  1 10  1  0  0  0  0
  2  3  1  0  0  0  0
  2 11  1  0  0  0  0
  3  4  2  0  0  0  0
  3 21  1  0  0  0  0
  4  5  1  0  0  0  0
  4  7  1  0  0  0  0
  5  6  2  0  0  0  0
  6  1  1  0  0  0  0
  6 22  1  0  0  0  0
  7  8  1  0  0  0  0
  8  9  2  0  0  0  0
  8 12  1  0  0  0  0
  9  5  1  0  0  0  0
  9 23  1  0  0  0  0
 10 19  1  0  0  0  0
 11 20  1  0  0  0  0
 12 13  1  0  0  0  0
 12 18  2  0  0  0  0
 13 14  1  0  0  0  0
 13 24  1  0  0  0  0
 13 25  1  0  0  0  0
 14 15  1  0  0  0  0
 14 26  1  0  0  0  0
 14 27  1  0  0  0  0
 15 16  1  0  0  0  0
 15 17  2  0  0  0  0
 16 28  1  0  0  0  0
 19 29  1  0  0  0  0
 19 30  1  0  0  0  0
 19 31  1  0  0  0  0
 20 32  1  0  0  0  0
 20 33  1  0  0  0  0
 20 34  1  0  0  0  0
M  END
>  <Mol_ID>
5558

>  <Formula>
C14H14O5S

>  <MolWeight>
294.32296

>  <Cat>
S9681

>  <Name>
MSA-2

>  <Synonyms>
N/A

>  <Target>
STING

>  <Form>
Free Base

>  <CAS>
129425-81-6

>  <URL>
https://www.selleckchem.com/products/msa-2.html

$$$$
