MSAB
 OpenBabel08302521303D

 36 37  0  0  0  0  0  0  0  0999 V2000
   -0.8403    3.8655   -0.4958 C   0  0  0  0  0  0  0  0  0  0  0  0
   -0.8207    2.6187   -1.3032 C   0  0  0  0  0  0  0  0  0  0  0  0
   -0.2751    2.5672   -2.5918 C   0  0  0  0  0  0  0  0  0  0  0  0
   -0.3505    1.3870   -3.3298 C   0  0  0  0  0  0  0  0  0  0  0  0
   -0.9645    0.2528   -2.7962 C   0  0  0  0  0  0  0  0  0  0  0  0
   -1.4885    0.2922   -1.5041 C   0  0  0  0  0  0  0  0  0  0  0  0
   -1.4121    1.4695   -0.7577 C   0  0  0  0  0  0  0  0  0  0  0  0
   -1.3256    3.9286    0.6231 O   0  0  0  0  0  0  0  0  0  0  0  0
   -0.2985    4.8973   -1.1844 O   0  0  0  0  0  0  0  0  0  0  0  0
    0.2130    1.3697   -4.6362 N   0  0  0  0  0  0  0  0  0  0  0  0
   -0.8292    1.5243   -5.9609 S   0  0  0  0  0  0  0  0  0  0  0  0
    0.0125    1.4000   -7.1337 O   0  0  0  0  0  0  0  0  0  0  0  0
   -1.9524    0.6306   -5.7717 O   0  0  0  0  0  0  0  0  0  0  0  0
   -1.4188    3.2007   -5.9015 C   0  0  0  0  0  0  0  0  0  0  0  0
   -0.7021    4.2172   -6.5398 C   0  0  0  0  0  0  0  0  0  0  0  0
   -1.2828    5.4809   -6.6950 C   0  0  0  0  0  0  0  0  0  0  0  0
   -2.5801    5.7301   -6.2246 C   0  0  0  0  0  0  0  0  0  0  0  0
   -3.2678    4.7162   -5.5447 C   0  0  0  0  0  0  0  0  0  0  0  0
   -2.6937    3.4534   -5.3866 C   0  0  0  0  0  0  0  0  0  0  0  0
   -3.2627    7.0425   -6.4841 C   0  0  0  0  0  0  0  0  0  0  0  0
   -0.3856    6.1664   -0.5338 C   0  0  0  0  0  0  0  0  0  0  0  0
    0.2125    3.4362   -3.0256 H   0  0  0  0  0  0  0  0  0  0  0  0
   -1.0528   -0.6610   -3.3785 H   0  0  0  0  0  0  0  0  0  0  0  0
   -1.9653   -0.5886   -1.0793 H   0  0  0  0  0  0  0  0  0  0  0  0
   -1.8286    1.4935    0.2486 H   0  0  0  0  0  0  0  0  0  0  0  0
    0.8462    0.5901   -4.8227 H   0  0  0  0  0  0  0  0  0  0  0  0
    0.2822    4.0245   -6.9609 H   0  0  0  0  0  0  0  0  0  0  0  0
   -0.7320    6.2568   -7.2248 H   0  0  0  0  0  0  0  0  0  0  0  0
   -4.2759    4.8929   -5.1751 H   0  0  0  0  0  0  0  0  0  0  0  0
   -3.2663    2.6626   -4.9071 H   0  0  0  0  0  0  0  0  0  0  0  0
   -4.1805    6.8765   -7.0606 H   0  0  0  0  0  0  0  0  0  0  0  0
   -3.5146    7.5389   -5.5428 H   0  0  0  0  0  0  0  0  0  0  0  0
   -2.6276    7.7181   -7.0676 H   0  0  0  0  0  0  0  0  0  0  0  0
   -1.3483    6.6234   -0.7811 H   0  0  0  0  0  0  0  0  0  0  0  0
   -0.2688    6.0927    0.5525 H   0  0  0  0  0  0  0  0  0  0  0  0
    0.4137    6.8045   -0.9195 H   0  0  0  0  0  0  0  0  0  0  0  0
  1  2  1  0  0  0  0
  1  8  2  0  0  0  0
  1  9  1  0  0  0  0
  2  3  2  0  0  0  0
  2  7  1  0  0  0  0
  3  4  1  0  0  0  0
  3 22  1  0  0  0  0
  4  5  2  0  0  0  0
  4 10  1  0  0  0  0
  5  6  1  0  0  0  0
  5 23  1  0  0  0  0
  6  7  2  0  0  0  0
  6 24  1  0  0  0  0
  7 25  1  0  0  0  0
  9 21  1  0  0  0  0
 10 11  1  0  0  0  0
 10 26  1  0  0  0  0
 11 12  2  0  0  0  0
 11 13  2  0  0  0  0
 11 14  1  0  0  0  0
 14 15  2  0  0  0  0
 14 19  1  0  0  0  0
 15 16  1  0  0  0  0
 15 27  1  0  0  0  0
 16 17  2  0  0  0  0
 16 28  1  0  0  0  0
 17 18  1  0  0  0  0
 17 20  1  0  0  0  0
 18 19  2  0  0  0  0
 18 29  1  0  0  0  0
 19 30  1  0  0  0  0
 20 31  1  0  0  0  0
 20 32  1  0  0  0  0
 20 33  1  0  0  0  0
 21 34  1  0  0  0  0
 21 35  1  0  0  0  0
 21 36  1  0  0  0  0
M  END
>  <Mol_ID>
5525

>  <Formula>
C15H15NO4S

>  <MolWeight>
305.3489

>  <Cat>
S6901

>  <Name>
MSAB

>  <Synonyms>
N/A

>  <Target>
Wnt/beta-catenin

>  <Form>
Free Base

>  <CAS>
173436-66-3

>  <URL>
https://www.selleckchem.com/products/msab.html

$$$$
