MSC2530818.cdx
 OpenBabel08302520423D

 41 44  0  0  0  0  0  0  0  0999 V2000
   -1.7884   -0.9230   -0.9762 C   0  0  0  0  0  0  0  0  0  0  0  0
   -1.5448   -0.5929   -2.3005 C   0  0  0  0  0  0  0  0  0  0  0  0
   -1.7704    0.5844   -2.9066 N   0  0  0  0  0  0  0  0  0  0  0  0
   -2.2921    1.5119   -2.0557 C   0  0  0  0  0  0  0  0  0  0  0  0
   -2.5244    1.3483   -0.6930 C   0  0  0  0  0  0  0  0  0  0  0  0
   -2.3034    0.0767   -0.1353 C   0  0  0  0  0  0  0  0  0  0  0  0
   -1.4065   -2.2890   -0.8793 C   0  0  0  0  0  0  0  0  0  0  0  0
   -0.9492   -2.7704   -2.0460 N   0  0  0  0  0  0  0  0  0  0  0  0
   -1.0476   -1.7189   -2.8841 N   0  0  0  0  0  0  0  0  0  0  0  0
   -1.4614   -3.1601    0.3184 C   0  0  0  0  0  0  0  0  0  0  0  0
   -3.0310    2.4410    0.1797 C   0  0  0  0  0  0  0  0  0  0  0  0
   -3.7162    2.1107    1.1558 O   0  0  0  0  0  0  0  0  0  0  0  0
   -2.6948    3.7663   -0.0678 N   0  0  0  0  0  0  0  0  0  0  0  0
   -1.7156    4.2945   -1.0029 C   0  0  0  0  0  0  0  0  0  0  0  0
   -1.1021    5.4754   -0.2841 C   0  0  0  0  0  0  0  0  0  0  0  0
   -2.2344    6.0251    0.5730 C   0  0  0  0  0  0  0  0  0  0  0  0
   -3.1838    4.8317    0.8109 C   0  0  1  0  0  0  0  0  0  0  0  0
   -4.6292    5.1986    0.5115 C   0  0  0  0  0  0  0  0  0  0  0  0
   -5.0349    5.6037   -0.7723 C   0  0  0  0  0  0  0  0  0  0  0  0
   -6.3657    5.9291   -1.0356 C   0  0  0  0  0  0  0  0  0  0  0  0
   -7.3122    5.8573   -0.0197 C   0  0  0  0  0  0  0  0  0  0  0  0
   -6.9277    5.4646    1.2614 C   0  0  0  0  0  0  0  0  0  0  0  0
   -5.5956    5.1364    1.5259 C   0  0  0  0  0  0  0  0  0  0  0  0
   -2.5357    2.4409   -2.5572 H   0  0  0  0  0  0  0  0  0  0  0  0
   -2.5268   -0.1243    0.9085 H   0  0  0  0  0  0  0  0  0  0  0  0
   -0.7685   -1.8276   -3.8507 H   0  0  0  0  0  0  0  0  0  0  0  0
   -0.7918   -2.7771    1.0946 H   0  0  0  0  0  0  0  0  0  0  0  0
   -2.4784   -3.1920    0.7222 H   0  0  0  0  0  0  0  0  0  0  0  0
   -1.1583   -4.1865    0.0850 H   0  0  0  0  0  0  0  0  0  0  0  0
   -2.2579    4.6266   -1.8957 H   0  0  0  0  0  0  0  0  0  0  0  0
   -0.9542    3.5668   -1.2855 H   0  0  0  0  0  0  0  0  0  0  0  0
   -0.2825    5.1295    0.3558 H   0  0  0  0  0  0  0  0  0  0  0  0
   -0.6995    6.2171   -0.9802 H   0  0  0  0  0  0  0  0  0  0  0  0
   -1.8450    6.4180    1.5191 H   0  0  0  0  0  0  0  0  0  0  0  0
   -2.7198    6.8631    0.0604 H   0  0  0  0  0  0  0  0  0  0  0  0
   -3.0870    4.4894    1.8489 H   0  0  0  0  0  0  0  0  0  0  0  0
   -4.3155    5.6682   -1.5829 H   0  0  0  0  0  0  0  0  0  0  0  0
   -6.6610    6.2324   -2.0367 H   0  0  0  0  0  0  0  0  0  0  0  0
   -8.3503    6.1014   -0.2256 H   0  0  0  0  0  0  0  0  0  0  0  0
   -7.6681    5.4034    2.0546 H   0  0  0  0  0  0  0  0  0  0  0  0
   -5.3201    4.8162    2.5288 H   0  0  0  0  0  0  0  0  0  0  0  0
  1  2  1  0  0  0  0
  1  7  1  0  0  0  0
  2  3  2  0  0  0  0
  3  4  1  0  0  0  0
  4  5  2  0  0  0  0
  4 24  1  0  0  0  0
  5  6  1  0  0  0  0
  5 11  1  0  0  0  0
  6  1  2  0  0  0  0
  6 25  1  0  0  0  0
  7  8  2  0  0  0  0
  7 10  1  0  0  0  0
  8  9  1  0  0  0  0
  9  2  1  0  0  0  0
  9 26  1  0  0  0  0
 10 27  1  0  0  0  0
 10 28  1  0  0  0  0
 10 29  1  0  0  0  0
 11 12  2  0  0  0  0
 11 13  1  0  0  0  0
 13 14  1  0  0  0  0
 14 15  1  0  0  0  0
 14 30  1  0  0  0  0
 14 31  1  0  0  0  0
 15 16  1  0  0  0  0
 15 32  1  0  0  0  0
 15 33  1  0  0  0  0
 16 17  1  0  0  0  0
 16 34  1  0  0  0  0
 16 35  1  0  0  0  0
 17 13  1  0  0  0  0
 17 36  1  1  0  0  0
 17 18  1  0  0  0  0
 18 19  2  0  0  0  0
 19 20  1  0  0  0  0
 19 37  1  0  0  0  0
 20 21  2  0  0  0  0
 20 38  1  0  0  0  0
 21 22  1  0  0  0  0
 21 39  1  0  0  0  0
 22 23  2  0  0  0  0
 22 40  1  0  0  0  0
 23 18  1  0  0  0  0
 23 41  1  0  0  0  0
M  END
>  <Mol_ID>
4004

>  <Formula>
C18H17ClN4O

>  <MolWeight>
340.80678

>  <Cat>
S8387

>  <Name>
MSC2530818

>  <Synonyms>
N/A

>  <Target>
CDK

>  <Form>
free base

>  <CAS>
1883423-59-3

>  <URL>
http://selleckchem.com/products/msc2530818.html

$$$$
