MSDC-0602K Potassium
 OpenBabel08302521323D

 42 44  0  0  0  0  0  0  0  0999 V2000
    0.4262    1.5007    0.0662 S   0  0  0  0  0  0  0  0  0  0  0  0
    6.6108    3.0421   -1.3750 O   0  0  0  0  0  0  0  0  0  0  0  0
    0.0515   -2.2852   -0.1699 O   0  0  0  0  0  0  0  0  0  0  0  0
   -2.1411    1.6717   -0.1665 O   0  0  0  0  0  0  0  0  0  0  0  0
    8.7015    1.0601   -5.5329 O   0  0  0  0  0  0  0  0  0  0  0  0
    9.6995    4.1126   -0.4051 O   0  0  0  0  0  0  0  0  0  0  0  0
   -1.2620   -0.4293   -0.1815 N   0  5  0  0  0  0  0  0  0  0  0  0
    1.1112   -0.1552   -0.0143 C   0  0  3  0  0  0  0  0  0  0  0  0
    2.0461   -0.3710   -1.2126 C   0  0  0  0  0  0  0  0  0  0  0  0
    3.2751    0.5157   -1.2301 C   0  0  0  0  0  0  0  0  0  0  0  0
   -0.0916   -1.0630   -0.1270 C   0  0  0  0  0  0  0  0  0  0  0  0
    4.2042    0.4758   -0.1840 C   0  0  0  0  0  0  0  0  0  0  0  0
    3.4880    1.4113   -2.2850 C   0  0  0  0  0  0  0  0  0  0  0  0
    5.5358    2.1988   -1.2485 C   0  0  0  0  0  0  0  0  0  0  0  0
   -1.1979    0.8955   -0.1148 C   0  0  0  0  0  0  0  0  0  0  0  0
    5.3182    1.3218   -0.1850 C   0  0  0  0  0  0  0  0  0  0  0  0
    4.6063    2.2510   -2.2888 C   0  0  0  0  0  0  0  0  0  0  0  0
    7.7476    2.7121   -0.5884 C   0  0  0  0  0  0  0  0  0  0  0  0
    9.5540    2.9676   -2.4601 C   0  0  0  0  0  0  0  0  0  0  0  0
    9.0329    3.3522   -1.1093 C   0  0  0  0  0  0  0  0  0  0  0  0
    8.8222    2.1618   -3.3390 C   0  0  0  0  0  0  0  0  0  0  0  0
   10.8289    3.4143   -2.8402 C   0  0  0  0  0  0  0  0  0  0  0  0
    9.3395    1.8219   -4.5913 C   0  0  0  0  0  0  0  0  0  0  0  0
   11.3564    3.0643   -4.0839 C   0  0  0  0  0  0  0  0  0  0  0  0
   10.6092    2.2738   -4.9562 C   0  0  0  0  0  0  0  0  0  0  0  0
    7.3987    0.5893   -5.1986 C   0  0  0  0  0  0  0  0  0  0  0  0
    1.6141   -0.3758    0.9338 H   0  0  0  0  0  0  0  0  0  0  0  0
    2.3958   -1.4134   -1.2188 H   0  0  0  0  0  0  0  0  0  0  0  0
    1.4870   -0.2585   -2.1519 H   0  0  0  0  0  0  0  0  0  0  0  0
    4.0538   -0.2040    0.6521 H   0  0  0  0  0  0  0  0  0  0  0  0
    2.7702    1.4735   -3.1006 H   0  0  0  0  0  0  0  0  0  0  0  0
    5.9844    1.2800    0.6700 H   0  0  0  0  0  0  0  0  0  0  0  0
    4.7448    2.9497   -3.1090 H   0  0  0  0  0  0  0  0  0  0  0  0
    7.5889    3.0737    0.4345 H   0  0  0  0  0  0  0  0  0  0  0  0
    7.9298    1.6302   -0.5577 H   0  0  0  0  0  0  0  0  0  0  0  0
    7.8429    1.8024   -3.0519 H   0  0  0  0  0  0  0  0  0  0  0  0
   11.4202    4.0320   -2.1662 H   0  0  0  0  0  0  0  0  0  0  0  0
   12.3471    3.4067   -4.3729 H   0  0  0  0  0  0  0  0  0  0  0  0
   11.0173    2.0061   -5.9279 H   0  0  0  0  0  0  0  0  0  0  0  0
    7.4436   -0.1210   -4.3662 H   0  0  0  0  0  0  0  0  0  0  0  0
    6.7179    1.4182   -4.9759 H   0  0  0  0  0  0  0  0  0  0  0  0
    6.9988    0.0614   -6.0695 H   0  0  0  0  0  0  0  0  0  0  0  0
  1  8  1  0  0  0  0
  1 15  1  0  0  0  0
  2 14  1  0  0  0  0
  2 18  1  0  0  0  0
  3 11  2  0  0  0  0
  4 15  2  0  0  0  0
  5 23  1  0  0  0  0
  5 26  1  0  0  0  0
  6 20  2  0  0  0  0
  7 11  1  0  0  0  0
  7 15  1  0  0  0  0
  8  9  1  0  0  0  0
  8 11  1  0  0  0  0
  8 27  1  0  0  0  0
  9 10  1  0  0  0  0
  9 28  1  0  0  0  0
  9 29  1  0  0  0  0
 10 12  2  0  0  0  0
 10 13  1  0  0  0  0
 12 16  1  0  0  0  0
 12 30  1  0  0  0  0
 13 17  2  0  0  0  0
 13 31  1  0  0  0  0
 14 16  2  0  0  0  0
 14 17  1  0  0  0  0
 16 32  1  0  0  0  0
 17 33  1  0  0  0  0
 18 20  1  0  0  0  0
 18 34  1  0  0  0  0
 18 35  1  0  0  0  0
 19 20  1  0  0  0  0
 19 21  2  0  0  0  0
 19 22  1  0  0  0  0
 21 23  1  0  0  0  0
 21 36  1  0  0  0  0
 22 24  2  0  0  0  0
 22 37  1  0  0  0  0
 23 25  2  0  0  0  0
 24 25  1  0  0  0  0
 24 38  1  0  0  0  0
 25 39  1  0  0  0  0
 26 40  1  0  0  0  0
 26 41  1  0  0  0  0
 26 42  1  0  0  0  0
M  CHG  1   7  -1
M  END
>  <Mol_ID>
6110

>  <Formula>
C19H16KNO5S

>  <MolWeight>
409.49734

>  <Cat>
S9951

>  <Name>
MSDC-0602K Potassium

>  <Synonyms>
N/A

>  <Target>
Mitochondrial pyruvate carrier

>  <Form>
potassium salt

>  <CAS>
1314533-27-1

>  <URL>
http://www.selleckchem.com/products/msdc-0602k-potassium.html

$$$$
