MUCINEX (guaifenesin).cdx
 OpenBabel08302521043D

 28 28  0  0  0  0  0  0  0  0999 V2000
    1.6014    0.0142    0.2802 C   0  0  0  0  0  0  0  0  0  0  0  0
    0.8717   -1.1431    0.5588 C   0  0  0  0  0  0  0  0  0  0  0  0
   -0.5322   -1.1504    0.4994 C   0  0  0  0  0  0  0  0  0  0  0  0
   -1.1983    0.0370    0.1486 C   0  0  0  0  0  0  0  0  0  0  0  0
   -0.4532    1.1952   -0.1173 C   0  0  0  0  0  0  0  0  0  0  0  0
    0.9358    1.1859   -0.0485 C   0  0  0  0  0  0  0  0  0  0  0  0
   -2.5294    0.1956   -0.1217 O   0  0  0  0  0  0  0  0  0  0  0  0
   -3.5032   -0.4191    0.7167 C   0  0  0  0  0  0  0  0  0  0  0  0
   -4.5874   -1.0668   -0.1587 C   0  0  3  0  0  0  0  0  0  0  0  0
   -4.0455   -2.1210   -1.1316 C   0  0  0  0  0  0  0  0  0  0  0  0
   -3.5595   -3.2486   -0.4007 O   0  0  0  0  0  0  0  0  0  0  0  0
   -5.5741   -1.6782    0.6839 O   0  0  0  0  0  0  0  0  0  0  0  0
   -1.2746   -2.2837    0.7119 O   0  0  0  0  0  0  0  0  0  0  0  0
   -0.5876   -3.4455    1.1809 C   0  0  0  0  0  0  0  0  0  0  0  0
    2.6880   -0.0093    0.3045 H   0  0  0  0  0  0  0  0  0  0  0  0
    1.4407   -2.0382    0.7906 H   0  0  0  0  0  0  0  0  0  0  0  0
   -0.9685    2.1109   -0.3999 H   0  0  0  0  0  0  0  0  0  0  0  0
    1.4994    2.0919   -0.2706 H   0  0  0  0  0  0  0  0  0  0  0  0
   -3.1078   -1.1139    1.4628 H   0  0  0  0  0  0  0  0  0  0  0  0
   -3.9762    0.3785    1.3042 H   0  0  0  0  0  0  0  0  0  0  0  0
   -5.0827   -0.2857   -0.7464 H   0  0  0  0  0  0  0  0  0  0  0  0
   -4.8578   -2.4923   -1.7658 H   0  0  0  0  0  0  0  0  0  0  0  0
   -3.2523   -1.7360   -1.7779 H   0  0  0  0  0  0  0  0  0  0  0  0
   -2.6936   -2.9651   -0.0435 H   0  0  0  0  0  0  0  0  0  0  0  0
   -5.2771   -2.6035    0.8025 H   0  0  0  0  0  0  0  0  0  0  0  0
    0.0739   -3.8388    0.4032 H   0  0  0  0  0  0  0  0  0  0  0  0
   -0.0466   -3.2464    2.1112 H   0  0  0  0  0  0  0  0  0  0  0  0
   -1.3385   -4.2133    1.3942 H   0  0  0  0  0  0  0  0  0  0  0  0
  1  2  2  0  0  0  0
  1 15  1  0  0  0  0
  2  3  1  0  0  0  0
  2 16  1  0  0  0  0
  3  4  2  0  0  0  0
  3 13  1  0  0  0  0
  4  5  1  0  0  0  0
  4  7  1  0  0  0  0
  5  6  2  0  0  0  0
  5 17  1  0  0  0  0
  6  1  1  0  0  0  0
  6 18  1  0  0  0  0
  7  8  1  0  0  0  0
  8  9  1  0  0  0  0
  8 19  1  0  0  0  0
  8 20  1  0  0  0  0
  9 10  1  0  0  0  0
  9 12  1  0  0  0  0
  9 21  1  0  0  0  0
 10 11  1  0  0  0  0
 10 22  1  0  0  0  0
 10 23  1  0  0  0  0
 11 24  1  0  0  0  0
 12 25  1  0  0  0  0
 13 14  1  0  0  0  0
 14 26  1  0  0  0  0
 14 27  1  0  0  0  0
 14 28  1  0  0  0  0
M  END
>  <Mol_ID>
423

>  <Formula>
C10H14O4

>  <MolWeight>
198.21576

>  <Cat>
S1740

>  <Name>
Guaifenesin

>  <Synonyms>
N/A

>  <Target>
Others

>  <Form>
free base

>  <CAS>
93-14-1

>  <URL>
http://selleckchem.com/products/Guaifenesin(Guaiphenesin).html

$$$$
