Mulberroside C
 OpenBabel08302521533D

 59 63  0  0  1  0  0  0  0  0999 V2000
   10.9736   12.1424   -3.4663 O   0  0  0  0  0  0  0  0  0  0  0  0
   10.7484   12.8953    0.2591 C   0  0  0  0  0  0  0  0  0  0  0  0
    9.0607   12.0164   -1.3586 C   0  0  0  0  0  0  0  0  0  0  0  0
   14.7132    1.8070   -0.9694 O   0  0  0  0  0  0  0  0  0  0  0  0
   18.2859    3.6753   -3.4496 O   0  0  0  0  0  0  0  0  0  0  0  0
   12.2487    0.2875   -0.6585 O   0  0  0  0  0  0  0  0  0  0  0  0
   11.7425   -0.6738    1.9952 O   0  0  0  0  0  0  0  0  0  0  0  0
   12.7274    1.0313    4.1589 O   0  0  0  0  0  0  0  0  0  0  0  0
   14.3855    8.8612   -1.9455 C   0  0  0  0  0  0  0  0  0  0  0  0
   13.4017    8.1784   -1.2450 C   0  0  0  0  0  0  0  0  0  0  0  0
   15.3859    7.9107   -2.2426 C   0  0  0  0  0  0  0  0  0  0  0  0
   14.2085   10.2264   -2.2109 C   0  0  0  0  0  0  0  0  0  0  0  0
   12.2255    8.7709   -0.7951 C   0  0  0  0  0  0  0  0  0  0  0  0
   13.7617    6.8711   -1.0849 O   0  0  0  0  0  0  0  0  0  0  0  0
   14.9773    6.7083   -1.7058 C   0  0  0  0  0  0  0  0  0  0  0  0
   13.0362   10.8590   -1.7645 C   0  0  0  0  0  0  0  0  0  0  0  0
   12.0565   10.1362   -1.0790 C   0  0  0  0  0  0  0  0  0  0  0  0
   12.8601   12.3271   -2.0189 C   0  0  0  0  0  0  0  0  0  0  0  0
   10.8762   10.6770   -0.6519 O   0  0  0  0  0  0  0  0  0  0  0  0
   11.3803   12.6359   -2.1814 C   0  0  2  0  0  0  0  0  0  0  0  0
   10.5577   12.0399   -1.0059 C   0  0  0  0  0  0  0  0  0  0  0  0
   15.5322    5.3582   -1.7540 C   0  0  0  0  0  0  0  0  0  0  0  0
   14.9000    4.2638   -1.1384 C   0  0  0  0  0  0  0  0  0  0  0  0
   16.6893    5.1243   -2.5105 C   0  0  0  0  0  0  0  0  0  0  0  0
   15.3436    2.9606   -1.3753 C   0  0  0  0  0  0  0  0  0  0  0  0
   17.1584    3.8340   -2.6963 C   0  0  0  0  0  0  0  0  0  0  0  0
   16.4799    2.7471   -2.1621 C   0  0  0  0  0  0  0  0  0  0  0  0
   13.9339    1.8780    0.2273 C   0  0  1  0  0  0  0  0  0  0  0  0
   13.1744    0.5353    0.4115 C   0  0  1  0  0  0  0  0  0  0  0  0
   14.8088    2.0939    1.3307 O   0  0  0  0  0  0  0  0  0  0  0  0
   12.4338    0.5580    1.7618 C   0  0  2  0  0  0  0  0  0  0  0  0
   14.1498    2.1741    2.5834 C   0  0  0  0  0  0  0  0  0  0  0  0
   13.4018    0.8827    2.9085 C   0  0  1  0  0  0  0  0  0  0  0  0
   10.0814   12.4765   -3.6543 H   0  0  0  0  0  0  0  0  0  0  0  0
   10.4748   13.9415    0.0794 H   0  0  0  0  0  0  0  0  0  0  0  0
   10.1326   12.5193    1.0843 H   0  0  0  0  0  0  0  0  0  0  0  0
   11.7834   12.8647    0.6142 H   0  0  0  0  0  0  0  0  0  0  0  0
    8.8569   11.2773   -2.1407 H   0  0  0  0  0  0  0  0  0  0  0  0
    8.4589   11.7112   -0.4944 H   0  0  0  0  0  0  0  0  0  0  0  0
    8.7092   12.9963   -1.6958 H   0  0  0  0  0  0  0  0  0  0  0  0
   18.5318    2.7349   -3.4418 H   0  0  0  0  0  0  0  0  0  0  0  0
   11.3445    0.4729   -0.3478 H   0  0  0  0  0  0  0  0  0  0  0  0
   12.3410   -1.4128    1.7817 H   0  0  0  0  0  0  0  0  0  0  0  0
   11.8255    1.3561    3.9935 H   0  0  0  0  0  0  0  0  0  0  0  0
   16.2869    8.0831   -2.8123 H   0  0  0  0  0  0  0  0  0  0  0  0
   14.9628   10.7750   -2.7670 H   0  0  0  0  0  0  0  0  0  0  0  0
   11.4705    8.2009   -0.2666 H   0  0  0  0  0  0  0  0  0  0  0  0
   13.4001   12.6164   -2.9285 H   0  0  0  0  0  0  0  0  0  0  0  0
   13.2934   12.8799   -1.1780 H   0  0  0  0  0  0  0  0  0  0  0  0
   11.2482   13.7245   -2.2239 H   0  0  0  0  0  0  0  0  0  0  0  0
   14.0320    4.4617   -0.5163 H   0  0  0  0  0  0  0  0  0  0  0  0
   17.2240    5.9395   -2.9929 H   0  0  0  0  0  0  0  0  0  0  0  0
   16.8120    1.7318   -2.3460 H   0  0  0  0  0  0  0  0  0  0  0  0
   13.1835    2.6749    0.1481 H   0  0  0  0  0  0  0  0  0  0  0  0
   13.8864   -0.2983    0.3946 H   0  0  0  0  0  0  0  0  0  0  0  0
   11.6394    1.3140    1.7323 H   0  0  0  0  0  0  0  0  0  0  0  0
   14.9059    2.3652    3.3512 H   0  0  0  0  0  0  0  0  0  0  0  0
   13.4755    3.0382    2.5918 H   0  0  0  0  0  0  0  0  0  0  0  0
   14.1115    0.0550    3.0232 H   0  0  0  0  0  0  0  0  0  0  0  0
  1 34  1  0  0  0  0
  2 21  1  0  0  0  0
  2 35  1  0  0  0  0
  2 36  1  0  0  0  0
  2 37  1  0  0  0  0
  3 21  1  0  0  0  0
  3 38  1  0  0  0  0
  3 39  1  0  0  0  0
  3 40  1  0  0  0  0
  4 25  1  0  0  0  0
  5 26  1  0  0  0  0
  5 41  1  0  0  0  0
  6 42  1  0  0  0  0
  7 43  1  0  0  0  0
  8 44  1  0  0  0  0
  9 10  2  0  0  0  0
  9 11  1  0  0  0  0
  9 12  1  0  0  0  0
 10 13  1  0  0  0  0
 10 14  1  0  0  0  0
 11 15  2  0  0  0  0
 11 45  1  0  0  0  0
 12 16  2  0  0  0  0
 12 46  1  0  0  0  0
 13 17  2  0  0  0  0
 13 47  1  0  0  0  0
 14 15  1  0  0  0  0
 15 22  1  0  0  0  0
 16 17  1  0  0  0  0
 16 18  1  0  0  0  0
 17 19  1  0  0  0  0
 18 20  1  0  0  0  0
 18 48  1  0  0  0  0
 18 49  1  0  0  0  0
 19 21  1  0  0  0  0
 20 21  1  0  0  0  0
 20 50  1  1  0  0  0
 20  1  1  0  0  0  0
 22 23  2  0  0  0  0
 22 24  1  0  0  0  0
 23 25  1  0  0  0  0
 23 51  1  0  0  0  0
 24 26  2  0  0  0  0
 24 52  1  0  0  0  0
 25 27  2  0  0  0  0
 26 27  1  0  0  0  0
 27 53  1  0  0  0  0
 28 29  1  0  0  0  0
 28 30  1  0  0  0  0
 28 54  1  6  0  0  0
 28  4  1  0  0  0  0
 29  6  1  0  0  0  0
 29 31  1  0  0  0  0
 29 55  1  1  0  0  0
 30 32  1  0  0  0  0
 31  7  1  0  0  0  0
 31 33  1  0  0  0  0
 31 56  1  6  0  0  0
 32 33  1  0  0  0  0
 32 57  1  0  0  0  0
 32 58  1  0  0  0  0
 33  8  1  0  0  0  0
 33 59  1  1  0  0  0
M  END
>  <Mol_ID>
9971

>  <Formula>
C24H26O9

>  <MolWeight>
458.45784

>  <Cat>
E5268

>  <Name>
Mulberroside C

>  <Synonyms>
NA

>  <Target>
HCV replicon

>  <Form>
Free Base

>  <CAS>
102841-43-0

>  <URL>
https://www.selleckchem.com/products/mulberroside-c.html

$$$$
