Musk ketone
 OpenBabel08302521373D

 39 39  0  0  0  0  0  0  0  0999 V2000
    2.6362    1.1396    0.0716 C   0  0  0  0  0  0  0  0  0  0  0  0
    3.9615    0.3372   -0.0567 C   0  0  0  0  0  0  0  0  0  0  0  0
    2.7202    2.1363   -1.1114 C   0  0  0  0  0  0  0  0  0  0  0  0
    2.8284    1.9048    1.4056 C   0  0  0  0  0  0  0  0  0  0  0  0
    2.3251   -1.9419    0.0051 N   0  3  0  0  0  0  0  0  0  0  0  0
    2.7815   -2.2333   -1.1086 O   0  5  0  0  0  0  0  0  0  0  0  0
    2.7096   -2.3848    1.0948 O   0  0  0  0  0  0  0  0  0  0  0  0
   -0.1193    2.4342   -0.0266 N   0  3  0  0  0  0  0  0  0  0  0  0
   -0.0953    3.0949    1.0165 O   0  5  0  0  0  0  0  0  0  0  0  0
   -0.3349    2.8829   -1.1637 O   0  0  0  0  0  0  0  0  0  0  0  0
   -0.1036   -3.3295   -0.1486 C   0  0  0  0  0  0  0  0  0  0  0  0
   -2.5604    1.1139    0.1916 C   0  0  0  0  0  0  0  0  0  0  0  0
   -2.6407   -1.7728   -0.1803 C   0  0  0  0  0  0  0  0  0  0  0  0
   -3.0251   -3.0235    0.5698 C   0  0  0  0  0  0  0  0  0  0  0  0
   -3.4179   -1.2864   -1.0013 O   0  0  0  0  0  0  0  0  0  0  0  0
    1.2745    0.3396    0.0666 C   0  0  0  0  0  0  0  0  0  0  0  0
    1.1505   -1.0843    0.0271 C   0  0  0  0  0  0  0  0  0  0  0  0
   -0.0074    0.9879    0.0906 C   0  0  0  0  0  0  0  0  0  0  0  0
   -0.0953   -1.8156   -0.0246 C   0  0  0  0  0  0  0  0  0  0  0  0
   -1.2726    0.3096    0.1272 C   0  0  0  0  0  0  0  0  0  0  0  0
   -1.3076   -1.1000    0.0324 C   0  0  0  0  0  0  0  0  0  0  0  0
    4.0383   -0.1805   -1.0162 H   0  0  0  0  0  0  0  0  0  0  0  0
    4.8340    1.0046   -0.0158 H   0  0  0  0  0  0  0  0  0  0  0  0
    4.1094   -0.3612    0.7710 H   0  0  0  0  0  0  0  0  0  0  0  0
    2.0721    3.0046   -0.9990 H   0  0  0  0  0  0  0  0  0  0  0  0
    3.7278    2.5635   -1.2041 H   0  0  0  0  0  0  0  0  0  0  0  0
    2.4861    1.6435   -2.0621 H   0  0  0  0  0  0  0  0  0  0  0  0
    2.0511    2.6324    1.6205 H   0  0  0  0  0  0  0  0  0  0  0  0
    2.8743    1.2137    2.2553 H   0  0  0  0  0  0  0  0  0  0  0  0
    3.7667    2.4759    1.3955 H   0  0  0  0  0  0  0  0  0  0  0  0
   -0.3166   -3.7828    0.8243 H   0  0  0  0  0  0  0  0  0  0  0  0
   -0.8421   -3.6524   -0.8892 H   0  0  0  0  0  0  0  0  0  0  0  0
    0.8367   -3.7603   -0.4944 H   0  0  0  0  0  0  0  0  0  0  0  0
   -2.4586    1.9908    0.8400 H   0  0  0  0  0  0  0  0  0  0  0  0
   -2.8506    1.4408   -0.8100 H   0  0  0  0  0  0  0  0  0  0  0  0
   -3.3848    0.5470    0.6406 H   0  0  0  0  0  0  0  0  0  0  0  0
   -4.0053   -2.8786    1.0343 H   0  0  0  0  0  0  0  0  0  0  0  0
   -3.0907   -3.8550   -0.1406 H   0  0  0  0  0  0  0  0  0  0  0  0
   -2.3246   -3.2732    1.3661 H   0  0  0  0  0  0  0  0  0  0  0  0
  1  2  1  0  0  0  0
  1  3  1  0  0  0  0
  1  4  1  0  0  0  0
  1 16  1  0  0  0  0
  2 22  1  0  0  0  0
  2 23  1  0  0  0  0
  2 24  1  0  0  0  0
  3 25  1  0  0  0  0
  3 26  1  0  0  0  0
  3 27  1  0  0  0  0
  4 28  1  0  0  0  0
  4 29  1  0  0  0  0
  4 30  1  0  0  0  0
  5  6  1  0  0  0  0
  5  7  2  0  0  0  0
  5 17  1  0  0  0  0
  8  9  1  0  0  0  0
  8 10  2  0  0  0  0
  8 18  1  0  0  0  0
 11 19  1  0  0  0  0
 11 31  1  0  0  0  0
 11 32  1  0  0  0  0
 11 33  1  0  0  0  0
 12 20  1  0  0  0  0
 12 34  1  0  0  0  0
 12 35  1  0  0  0  0
 12 36  1  0  0  0  0
 13 14  1  0  0  0  0
 13 15  2  0  0  0  0
 13 21  1  0  0  0  0
 14 37  1  0  0  0  0
 14 38  1  0  0  0  0
 14 39  1  0  0  0  0
 16 17  2  0  0  0  0
 16 18  1  0  0  0  0
 17 19  1  0  0  0  0
 18 20  2  0  0  0  0
 19 21  2  0  0  0  0
 20 21  1  0  0  0  0
M  CHG  4   5   1   6  -1   8   1   9  -1
M  END
>  <Mol_ID>
7454

>  <Formula>
C14H18N2O5

>  <MolWeight>
294.30312

>  <Cat>
E4558

>  <Name>
Musk ketone

>  <Synonyms>
Musk ketone

>  <Target>
Others

>  <Form>
Free base

>  <CAS>
81-14-1

>  <URL>
https://www.selleckchem.com/products/musk-ketone.html

$$$$
