Mutated EGFR-IN-1
 OpenBabel08302521343D

 64 67  0  0  0  0  0  0  0  0999 V2000
    6.9203   -4.2663   -1.1212 C   0  0  0  0  0  0  0  0  0  0  0  0
   -0.0511   -6.1760   -1.9464 N   0  0  0  0  0  0  0  0  0  0  0  0
   -1.4173   -6.7926    0.7477 O   0  0  0  0  0  0  0  0  0  0  0  0
   -0.7184   -5.5820    0.9666 C   0  0  0  0  0  0  0  0  0  0  0  0
   -3.5764   -8.7730   -3.9986 N   0  0  0  0  0  0  0  0  0  0  0  0
   -4.8537   -9.2675   -1.4083 N   0  0  0  0  0  0  0  0  0  0  0  0
   -5.6764   -9.1587   -0.1884 C   0  0  0  0  0  0  0  0  0  0  0  0
   -4.9281  -10.5528   -2.1118 C   0  0  0  0  0  0  0  0  0  0  0  0
   -6.4023   -7.7934   -0.1275 C   0  0  0  0  0  0  0  0  0  0  0  0
   -7.4115   -7.6937    0.9484 N   0  0  0  0  0  0  0  0  0  0  0  0
   -6.7997   -7.7454    2.2780 C   0  0  0  0  0  0  0  0  0  0  0  0
   -8.1766   -6.4512    0.8117 C   0  0  0  0  0  0  0  0  0  0  0  0
    4.3968   -5.4317   -3.4439 C   0  0  0  0  0  0  0  0  0  0  0  0
    5.4736   -5.1294   -4.3433 C   0  0  0  0  0  0  0  0  0  0  0  0
    4.8349   -5.1275   -2.1715 C   0  0  0  0  0  0  0  0  0  0  0  0
    6.5485   -4.6633   -3.5614 C   0  0  0  0  0  0  0  0  0  0  0  0
    5.6656   -5.1756   -5.7459 C   0  0  0  0  0  0  0  0  0  0  0  0
    6.1217   -4.6742   -2.2555 N   0  0  0  0  0  0  0  0  0  0  0  0
    7.7796   -4.2845   -4.1253 C   0  0  0  0  0  0  0  0  0  0  0  0
    6.8933   -4.8108   -6.3136 C   0  0  0  0  0  0  0  0  0  0  0  0
    7.9346   -4.3678   -5.5108 C   0  0  0  0  0  0  0  0  0  0  0  0
    3.0643   -5.9885   -3.6972 C   0  0  0  0  0  0  0  0  0  0  0  0
    2.1106   -5.7606   -2.7561 N   0  0  0  0  0  0  0  0  0  0  0  0
    2.8324   -6.7385   -4.8315 C   0  0  0  0  0  0  0  0  0  0  0  0
    0.8877   -6.2617   -2.9909 C   0  0  0  0  0  0  0  0  0  0  0  0
    1.5465   -7.1434   -5.0165 C   0  0  0  0  0  0  0  0  0  0  0  0
    0.5765   -6.8970   -4.1320 N   0  0  0  0  0  0  0  0  0  0  0  0
   -1.2470   -6.9018   -1.7514 C   0  0  0  0  0  0  0  0  0  0  0  0
   -1.8506   -7.1355   -0.5077 C   0  0  0  0  0  0  0  0  0  0  0  0
   -1.9171   -7.4550   -2.8595 C   0  0  0  0  0  0  0  0  0  0  0  0
   -3.0240   -7.9350   -0.4290 C   0  0  0  0  0  0  0  0  0  0  0  0
   -3.0948   -8.2218   -2.7871 C   0  0  0  0  0  0  0  0  0  0  0  0
   -3.6747   -8.5116   -1.5394 C   0  0  0  0  0  0  0  0  0  0  0  0
    7.7823   -4.9343   -1.0508 H   0  0  0  0  0  0  0  0  0  0  0  0
    7.2413   -3.2332   -1.2763 H   0  0  0  0  0  0  0  0  0  0  0  0
    6.3234   -4.3342   -0.2081 H   0  0  0  0  0  0  0  0  0  0  0  0
    0.4504   -5.8784   -1.1299 H   0  0  0  0  0  0  0  0  0  0  0  0
    0.3510   -5.7295    0.8008 H   0  0  0  0  0  0  0  0  0  0  0  0
   -1.1167   -4.7473    0.3831 H   0  0  0  0  0  0  0  0  0  0  0  0
   -0.8292   -5.3301    2.0279 H   0  0  0  0  0  0  0  0  0  0  0  0
   -3.1908   -8.3235   -4.8221 H   0  0  0  0  0  0  0  0  0  0  0  0
   -4.5906   -8.7525   -3.9910 H   0  0  0  0  0  0  0  0  0  0  0  0
   -6.4529   -9.9347   -0.1946 H   0  0  0  0  0  0  0  0  0  0  0  0
   -5.0789   -9.3591    0.7068 H   0  0  0  0  0  0  0  0  0  0  0  0
   -5.2477  -10.4249   -3.1495 H   0  0  0  0  0  0  0  0  0  0  0  0
   -3.9802  -11.0989   -2.0781 H   0  0  0  0  0  0  0  0  0  0  0  0
   -5.6898  -11.2076   -1.6715 H   0  0  0  0  0  0  0  0  0  0  0  0
   -5.6810   -6.9707   -0.0527 H   0  0  0  0  0  0  0  0  0  0  0  0
   -6.9140   -7.6715   -1.0923 H   0  0  0  0  0  0  0  0  0  0  0  0
   -6.0717   -6.9392    2.4275 H   0  0  0  0  0  0  0  0  0  0  0  0
   -7.5682   -7.6621    3.0548 H   0  0  0  0  0  0  0  0  0  0  0  0
   -6.2950   -8.7006    2.4509 H   0  0  0  0  0  0  0  0  0  0  0  0
   -7.6264   -5.5793    1.1844 H   0  0  0  0  0  0  0  0  0  0  0  0
   -8.4507   -6.2546   -0.2311 H   0  0  0  0  0  0  0  0  0  0  0  0
   -9.1149   -6.5343    1.3708 H   0  0  0  0  0  0  0  0  0  0  0  0
    4.3277   -5.2085   -1.2190 H   0  0  0  0  0  0  0  0  0  0  0  0
    4.8699   -5.4936   -6.4097 H   0  0  0  0  0  0  0  0  0  0  0  0
    8.5963   -3.9267   -3.5074 H   0  0  0  0  0  0  0  0  0  0  0  0
    7.0265   -4.8694   -7.3914 H   0  0  0  0  0  0  0  0  0  0  0  0
    8.8807   -4.0813   -5.9634 H   0  0  0  0  0  0  0  0  0  0  0  0
    3.6009   -7.0159   -5.5319 H   0  0  0  0  0  0  0  0  0  0  0  0
    1.2464   -7.7083   -5.8920 H   0  0  0  0  0  0  0  0  0  0  0  0
   -1.5390   -7.2773   -3.8588 H   0  0  0  0  0  0  0  0  0  0  0  0
   -3.4032   -8.1190    0.5720 H   0  0  0  0  0  0  0  0  0  0  0  0
  1 18  1  0  0  0  0
  1 34  1  0  0  0  0
  1 35  1  0  0  0  0
  1 36  1  0  0  0  0
  2 25  1  0  0  0  0
  2 28  1  0  0  0  0
  2 37  1  0  0  0  0
  3  4  1  0  0  0  0
  3 29  1  0  0  0  0
  4 38  1  0  0  0  0
  4 39  1  0  0  0  0
  4 40  1  0  0  0  0
  5 32  1  0  0  0  0
  5 41  1  0  0  0  0
  5 42  1  0  0  0  0
  6  7  1  0  0  0  0
  6  8  1  0  0  0  0
  6 33  1  0  0  0  0
  7  9  1  0  0  0  0
  7 43  1  0  0  0  0
  7 44  1  0  0  0  0
  8 45  1  0  0  0  0
  8 46  1  0  0  0  0
  8 47  1  0  0  0  0
  9 10  1  0  0  0  0
  9 48  1  0  0  0  0
  9 49  1  0  0  0  0
 10 11  1  0  0  0  0
 10 12  1  0  0  0  0
 11 50  1  0  0  0  0
 11 51  1  0  0  0  0
 11 52  1  0  0  0  0
 12 53  1  0  0  0  0
 12 54  1  0  0  0  0
 12 55  1  0  0  0  0
 13 14  1  0  0  0  0
 13 15  2  0  0  0  0
 13 22  1  0  0  0  0
 14 16  2  0  0  0  0
 14 17  1  0  0  0  0
 15 18  1  0  0  0  0
 15 56  1  0  0  0  0
 16 18  1  0  0  0  0
 16 19  1  0  0  0  0
 17 20  2  0  0  0  0
 17 57  1  0  0  0  0
 19 21  2  0  0  0  0
 19 58  1  0  0  0  0
 20 21  1  0  0  0  0
 20 59  1  0  0  0  0
 21 60  1  0  0  0  0
 22 23  2  0  0  0  0
 22 24  1  0  0  0  0
 23 25  1  0  0  0  0
 24 26  2  0  0  0  0
 24 61  1  0  0  0  0
 25 27  2  0  0  0  0
 26 27  1  0  0  0  0
 26 62  1  0  0  0  0
 28 29  2  0  0  0  0
 28 30  1  0  0  0  0
 29 31  1  0  0  0  0
 30 32  2  0  0  0  0
 30 63  1  0  0  0  0
 31 33  2  0  0  0  0
 31 64  1  0  0  0  0
 32 33  1  0  0  0  0
M  END
>  <Mol_ID>
6436

>  <Formula>
C25H31N7O

>  <MolWeight>
445.55994

>  <Cat>
E2251

>  <Name>
Mutated EGFR-IN-1

>  <Synonyms>
Osimertinib analog

>  <Target>
Others

>  <Form>
free base

>  <CAS>
1421372-66-8

>  <URL>
http://www.selleckchem.com/products/mutated-egfr-in-1.html

$$$$
