MV1035
 OpenBabel08302521383D

 32 34  0  0  0  0  0  0  0  0999 V2000
    1.1092   -0.0390   -0.1777 C   0  0  0  0  0  0  0  0  0  0  0  0
    0.6842   -0.2458   -1.6381 C   0  0  0  0  0  0  0  0  0  0  0  0
   -0.8141   -0.4107   -1.8369 C   0  0  0  0  0  0  0  0  0  0  0  0
    3.5837   -2.2872   -1.0427 S   0  0  0  0  0  0  0  0  0  0  0  0
   -0.7364   -0.1680    2.5527 C   0  0  0  0  0  0  0  0  0  0  0  0
    1.2847   -2.4992    0.5631 N   0  0  0  0  0  0  0  0  0  0  0  0
    0.5797   -3.2801    1.4671 C   0  0  0  0  0  0  0  0  0  0  0  0
    0.7997   -1.2014    0.7221 C   0  0  0  0  0  0  0  0  0  0  0  0
    2.2984   -3.0129   -0.2671 C   0  0  0  0  0  0  0  0  0  0  0  0
    0.7541   -4.7145    1.4614 C   0  0  0  0  0  0  0  0  0  0  0  0
   -0.1601   -2.5478    2.2700 N   0  0  0  0  0  0  0  0  0  0  0  0
   -0.0198   -1.2544    1.8391 C   0  0  0  0  0  0  0  0  0  0  0  0
    2.2148   -4.4004   -0.4526 O   0  0  0  0  0  0  0  0  0  0  0  0
    1.5233   -5.2515    0.4345 C   0  0  0  0  0  0  0  0  0  0  0  0
    0.2148   -5.5742    2.4152 C   0  0  0  0  0  0  0  0  0  0  0  0
    1.7249   -6.6200    0.2920 C   0  0  0  0  0  0  0  0  0  0  0  0
    0.4488   -6.9516    2.3177 C   0  0  0  0  0  0  0  0  0  0  0  0
    1.1867   -7.4745    1.2496 C   0  0  0  0  0  0  0  0  0  0  0  0
    0.6062    0.8607    0.1953 H   0  0  0  0  0  0  0  0  0  0  0  0
    2.1789    0.1887   -0.1248 H   0  0  0  0  0  0  0  0  0  0  0  0
    1.0229    0.6192   -2.2207 H   0  0  0  0  0  0  0  0  0  0  0  0
    1.1716   -1.1186   -2.0777 H   0  0  0  0  0  0  0  0  0  0  0  0
   -1.3574    0.4718   -1.4900 H   0  0  0  0  0  0  0  0  0  0  0  0
   -1.0316   -0.5473   -2.9016 H   0  0  0  0  0  0  0  0  0  0  0  0
   -1.1961   -1.2885   -1.3074 H   0  0  0  0  0  0  0  0  0  0  0  0
   -1.7994   -0.4094    2.6534 H   0  0  0  0  0  0  0  0  0  0  0  0
   -0.3166   -0.0431    3.5565 H   0  0  0  0  0  0  0  0  0  0  0  0
   -0.6568    0.7910    2.0347 H   0  0  0  0  0  0  0  0  0  0  0  0
   -0.3662   -5.1786    3.2461 H   0  0  0  0  0  0  0  0  0  0  0  0
    2.3149   -7.0085   -0.5324 H   0  0  0  0  0  0  0  0  0  0  0  0
    0.0583   -7.6220    3.0793 H   0  0  0  0  0  0  0  0  0  0  0  0
    1.3591   -8.5452    1.1770 H   0  0  0  0  0  0  0  0  0  0  0  0
  1  2  1  0  0  0  0
  1  8  1  0  0  0  0
  1 19  1  0  0  0  0
  1 20  1  0  0  0  0
  2  3  1  0  0  0  0
  2 21  1  0  0  0  0
  2 22  1  0  0  0  0
  3 23  1  0  0  0  0
  3 24  1  0  0  0  0
  3 25  1  0  0  0  0
  4  9  2  0  0  0  0
  5 12  1  0  0  0  0
  5 26  1  0  0  0  0
  5 27  1  0  0  0  0
  5 28  1  0  0  0  0
  6  7  1  0  0  0  0
  6  8  1  0  0  0  0
  6  9  1  0  0  0  0
  7 10  1  0  0  0  0
  7 11  2  0  0  0  0
  8 12  2  0  0  0  0
  9 13  1  0  0  0  0
 10 14  2  0  0  0  0
 10 15  1  0  0  0  0
 11 12  1  0  0  0  0
 13 14  1  0  0  0  0
 14 16  1  0  0  0  0
 15 17  2  0  0  0  0
 15 29  1  0  0  0  0
 16 18  2  0  0  0  0
 16 30  1  0  0  0  0
 17 18  1  0  0  0  0
 17 31  1  0  0  0  0
 18 32  1  0  0  0  0
M  END
>  <Mol_ID>
7694

>  <Formula>
C14H14N2OS

>  <MolWeight>
258.33876

>  <Cat>
E1636

>  <Name>
MV1035

>  <Target>
Others

>  <Form>
free base

>  <CAS>
1199944-04-1

>  <URL>
https://www.selleckchem.com/products/mv1035.html

$$$$
