MYDRIACYL (tropicamide).cdx
 OpenBabel08302522013D

 41 42  0  0  0  0  0  0  0  0999 V2000
   -2.5620    0.6945   -3.2984 C   0  0  0  0  0  0  0  0  0  0  0  0
   -3.4140    1.1397   -4.3057 C   0  0  0  0  0  0  0  0  0  0  0  0
   -3.7108    2.4955   -4.4100 C   0  0  0  0  0  0  0  0  0  0  0  0
   -3.1470    3.4047   -3.5132 C   0  0  0  0  0  0  0  0  0  0  0  0
   -2.2810    2.9757   -2.4910 C   0  0  0  0  0  0  0  0  0  0  0  0
   -2.0045    1.6028   -2.3924 C   0  0  0  0  0  0  0  0  0  0  0  0
   -1.7325    4.0116   -1.5132 C   0  0  3  0  0  0  0  0  0  0  0  0
   -2.8357    4.4548   -0.5332 C   0  0  0  0  0  0  0  0  0  0  0  0
   -0.4827    3.5447   -0.7405 C   0  0  0  0  0  0  0  0  0  0  0  0
   -2.3580    5.4120    0.4121 O   0  0  0  0  0  0  0  0  0  0  0  0
   -0.6074    2.8663    0.2866 O   0  0  0  0  0  0  0  0  0  0  0  0
    0.7804    3.9252   -1.2053 N   0  0  0  0  0  0  0  0  0  0  0  0
    1.9686    3.5389   -0.4357 C   0  0  0  0  0  0  0  0  0  0  0  0
    1.0160    4.8435   -2.3206 C   0  0  0  0  0  0  0  0  0  0  0  0
    2.5689    2.2289   -0.9206 C   0  0  0  0  0  0  0  0  0  0  0  0
    1.1070    6.2948   -1.8992 C   0  0  0  0  0  0  0  0  0  0  0  0
    1.7831    7.2072   -2.7148 C   0  0  0  0  0  0  0  0  0  0  0  0
    1.8252    8.5410   -2.3339 C   0  0  0  0  0  0  0  0  0  0  0  0
    1.2393    9.0337   -1.2256 N   0  0  0  0  0  0  0  0  0  0  0  0
    0.5823    8.1468   -0.4535 C   0  0  0  0  0  0  0  0  0  0  0  0
    0.4988    6.7946   -0.7400 C   0  0  0  0  0  0  0  0  0  0  0  0
   -2.3368   -0.3657   -3.2107 H   0  0  0  0  0  0  0  0  0  0  0  0
   -3.8520    0.4305   -5.0031 H   0  0  0  0  0  0  0  0  0  0  0  0
   -4.3866    2.8455   -5.1862 H   0  0  0  0  0  0  0  0  0  0  0  0
   -3.4027    4.4586   -3.6103 H   0  0  0  0  0  0  0  0  0  0  0  0
   -1.3635    1.2092   -1.6053 H   0  0  0  0  0  0  0  0  0  0  0  0
   -1.4779    4.9106   -2.0791 H   0  0  0  0  0  0  0  0  0  0  0  0
   -3.6404    4.9510   -1.0893 H   0  0  0  0  0  0  0  0  0  0  0  0
   -3.2849    3.6181    0.0107 H   0  0  0  0  0  0  0  0  0  0  0  0
   -1.9075    4.8990    1.1107 H   0  0  0  0  0  0  0  0  0  0  0  0
    2.7187    4.3355   -0.5125 H   0  0  0  0  0  0  0  0  0  0  0  0
    1.7086    3.4517    0.6239 H   0  0  0  0  0  0  0  0  0  0  0  0
    1.9531    4.5388   -2.8037 H   0  0  0  0  0  0  0  0  0  0  0  0
    0.2377    4.7324   -3.0824 H   0  0  0  0  0  0  0  0  0  0  0  0
    2.9369    2.3197   -1.9479 H   0  0  0  0  0  0  0  0  0  0  0  0
    3.4138    1.9434   -0.2849 H   0  0  0  0  0  0  0  0  0  0  0  0
    1.8320    1.4206   -0.8971 H   0  0  0  0  0  0  0  0  0  0  0  0
    2.2703    6.8932   -3.6313 H   0  0  0  0  0  0  0  0  0  0  0  0
    2.3484    9.2777   -2.9412 H   0  0  0  0  0  0  0  0  0  0  0  0
    0.1038    8.5570    0.4318 H   0  0  0  0  0  0  0  0  0  0  0  0
   -0.0393    6.1569   -0.0504 H   0  0  0  0  0  0  0  0  0  0  0  0
  1  2  2  0  0  0  0
  1 22  1  0  0  0  0
  2  3  1  0  0  0  0
  2 23  1  0  0  0  0
  3  4  2  0  0  0  0
  3 24  1  0  0  0  0
  4  5  1  0  0  0  0
  4 25  1  0  0  0  0
  5  6  2  0  0  0  0
  5  7  1  0  0  0  0
  6  1  1  0  0  0  0
  6 26  1  0  0  0  0
  7  8  1  0  0  0  0
  7  9  1  0  0  0  0
  7 27  1  0  0  0  0
  8 10  1  0  0  0  0
  8 28  1  0  0  0  0
  8 29  1  0  0  0  0
  9 11  2  0  0  0  0
  9 12  1  0  0  0  0
 10 30  1  0  0  0  0
 12 13  1  0  0  0  0
 12 14  1  0  0  0  0
 13 15  1  0  0  0  0
 13 31  1  0  0  0  0
 13 32  1  0  0  0  0
 14 16  1  0  0  0  0
 14 33  1  0  0  0  0
 14 34  1  0  0  0  0
 15 35  1  0  0  0  0
 15 36  1  0  0  0  0
 15 37  1  0  0  0  0
 16 17  2  0  0  0  0
 17 18  1  0  0  0  0
 17 38  1  0  0  0  0
 18 19  2  0  0  0  0
 18 39  1  0  0  0  0
 19 20  1  0  0  0  0
 20 21  2  0  0  0  0
 20 40  1  0  0  0  0
 21 16  1  0  0  0  0
 21 41  1  0  0  0  0
M  END
>  <Mol_ID>
1119

>  <Formula>
C17H20N2O2

>  <MolWeight>
284.3529

>  <Cat>
S1913

>  <Name>
Tropicamide

>  <Synonyms>
Ro 1-7683

>  <Target>
AChR

>  <Form>
free base

>  <CAS>
1508-75-4

>  <URL>
http://selleckchem.com/products/tropicamide.html

$$$$
