MYF-01-37
 OpenBabel08302521303D

 38 39  0  0  0  0  0  0  0  0999 V2000
    1.3795   -0.0766   -0.3261 C   0  0  0  0  0  0  0  0  0  0  0  0
    0.5413   -1.1590   -0.6305 C   0  0  0  0  0  0  0  0  0  0  0  0
   -0.8258   -0.9878   -0.8769 C   0  0  0  0  0  0  0  0  0  0  0  0
   -1.3901    0.2827   -0.8303 C   0  0  0  0  0  0  0  0  0  0  0  0
   -0.5851    1.3871   -0.5438 C   0  0  0  0  0  0  0  0  0  0  0  0
    0.7898    1.1916   -0.3183 C   0  0  0  0  0  0  0  0  0  0  0  0
    2.7379   -0.3165   -0.1656 N   0  0  0  0  0  0  0  0  0  0  0  0
   -1.1420    2.7851   -0.4612 C   0  0  0  0  0  0  0  0  0  0  0  0
   -2.4913    2.8485   -0.6317 F   0  0  0  0  0  0  0  0  0  0  0  0
   -0.8914    3.3660    0.7463 F   0  0  0  0  0  0  0  0  0  0  0  0
   -0.6049    3.6185   -1.3944 F   0  0  0  0  0  0  0  0  0  0  0  0
    3.7887    0.6670    0.1558 C   0  0  3  0  0  0  0  0  0  0  0  0
    3.5111    1.4730    1.4464 C   0  0  0  0  0  0  0  0  0  0  0  0
    3.7896    2.8659    1.1137 N   0  0  0  0  0  0  0  0  0  0  0  0
    4.3806    2.9829   -0.2051 C   0  0  0  0  0  0  0  0  0  0  0  0
    3.9640    1.7252   -0.9520 C   0  0  0  0  0  0  0  0  0  0  0  0
    3.6686    3.9678    1.9297 C   0  0  0  0  0  0  0  0  0  0  0  0
    5.1142   -0.1059    0.3103 C   0  0  0  0  0  0  0  0  0  0  0  0
    4.0081    5.0930    1.5717 O   0  0  0  0  0  0  0  0  0  0  0  0
    3.1001    3.7347    3.2864 C   0  0  0  0  0  0  0  0  0  0  0  0
    2.8911    4.7529    4.1291 C   0  0  0  0  0  0  0  0  0  0  0  0
    0.9551   -2.1634   -0.6925 H   0  0  0  0  0  0  0  0  0  0  0  0
   -1.4447   -1.8514   -1.1116 H   0  0  0  0  0  0  0  0  0  0  0  0
   -2.4537    0.4080   -1.0229 H   0  0  0  0  0  0  0  0  0  0  0  0
    1.3801    2.0812   -0.1180 H   0  0  0  0  0  0  0  0  0  0  0  0
    2.9109   -1.2398    0.2289 H   0  0  0  0  0  0  0  0  0  0  0  0
    2.4825    1.3911    1.8076 H   0  0  0  0  0  0  0  0  0  0  0  0
    4.1691    1.1777    2.2715 H   0  0  0  0  0  0  0  0  0  0  0  0
    4.0512    3.8971   -0.7091 H   0  0  0  0  0  0  0  0  0  0  0  0
    5.4682    3.0255   -0.0812 H   0  0  0  0  0  0  0  0  0  0  0  0
    4.7063    1.4413   -1.7068 H   0  0  0  0  0  0  0  0  0  0  0  0
    3.0414    1.9188   -1.5069 H   0  0  0  0  0  0  0  0  0  0  0  0
    5.0679   -0.8054    1.1526 H   0  0  0  0  0  0  0  0  0  0  0  0
    5.3351   -0.6919   -0.5895 H   0  0  0  0  0  0  0  0  0  0  0  0
    5.9578    0.5715    0.4844 H   0  0  0  0  0  0  0  0  0  0  0  0
    2.8518    2.7303    3.5967 H   0  0  0  0  0  0  0  0  0  0  0  0
    2.4762    4.5825    5.1164 H   0  0  0  0  0  0  0  0  0  0  0  0
    3.1229    5.7792    3.8521 H   0  0  0  0  0  0  0  0  0  0  0  0
  1  2  2  0  0  0  0
  1  7  1  0  0  0  0
  2  3  1  0  0  0  0
  2 22  1  0  0  0  0
  3  4  2  0  0  0  0
  3 23  1  0  0  0  0
  4  5  1  0  0  0  0
  4 24  1  0  0  0  0
  5  6  2  0  0  0  0
  5  8  1  0  0  0  0
  6  1  1  0  0  0  0
  6 25  1  0  0  0  0
  7 12  1  0  0  0  0
  7 26  1  0  0  0  0
  8  9  1  0  0  0  0
  8 10  1  0  0  0  0
  8 11  1  0  0  0  0
 12 13  1  0  0  0  0
 12 18  1  0  0  0  0
 13 14  1  0  0  0  0
 13 27  1  0  0  0  0
 13 28  1  0  0  0  0
 14 15  1  0  0  0  0
 14 17  1  0  0  0  0
 15 16  1  0  0  0  0
 15 29  1  0  0  0  0
 15 30  1  0  0  0  0
 16 12  1  0  0  0  0
 16 31  1  0  0  0  0
 16 32  1  0  0  0  0
 17 19  2  0  0  0  0
 17 20  1  0  0  0  0
 18 33  1  0  0  0  0
 18 34  1  0  0  0  0
 18 35  1  0  0  0  0
 20 21  2  0  0  0  0
 20 36  1  0  0  0  0
 21 37  1  0  0  0  0
 21 38  1  0  0  0  0
M  END
>  <Mol_ID>
5547

>  <Formula>
C15H17F3N2O

>  <MolWeight>
298.3034896

>  <Cat>
S8950

>  <Name>
MYF-01-37

>  <Synonyms>
N/A

>  <Target>
TEAD

>  <Form>
Free Base

>  <CAS>
2416417-65-5

>  <URL>
https://www.selleckchem.com/products/myf-01-37.html

$$$$
