MYLS22
 OpenBabel08302521313D

 53 57  0  0  0  0  0  0  0  0999 V2000
    6.1772    5.3529    1.6563 N   0  0  0  0  0  0  0  0  0  0  0  0
    6.6288    4.0798    1.9018 N   0  0  0  0  0  0  0  0  0  0  0  0
    5.8709    3.1867    1.2140 C   0  0  0  0  0  0  0  0  0  0  0  0
    4.8307    3.8399    0.6952 C   0  0  0  0  0  0  0  0  0  0  0  0
    5.0404    5.1966    0.9382 C   0  0  0  0  0  0  0  0  0  0  0  0
    3.8825    3.0041    0.0957 C   0  0  0  0  0  0  0  0  0  0  0  0
    4.3138    1.6669    0.2177 C   0  0  0  0  0  0  0  0  0  0  0  0
    5.9275    1.5759    0.8227 S   0  0  0  0  0  0  0  0  0  0  0  0
    3.5900    0.4405   -0.1035 C   0  0  0  0  0  0  0  0  0  0  0  0
    2.4540    0.4877   -0.5444 O   0  0  0  0  0  0  0  0  0  0  0  0
    4.2653   -0.7471    0.1852 N   0  0  0  0  0  0  0  0  0  0  0  0
    7.7134    3.7967    2.7783 C   0  0  0  0  0  0  0  0  0  0  0  0
    7.8840    2.5002    3.2938 C   0  0  0  0  0  0  0  0  0  0  0  0
    8.9862    2.1863    4.0786 C   0  0  0  0  0  0  0  0  0  0  0  0
    9.9137    3.1789    4.3829 C   0  0  0  0  0  0  0  0  0  0  0  0
    9.7171    4.4809    3.9241 C   0  0  0  0  0  0  0  0  0  0  0  0
    8.6113    4.8033    3.1308 C   0  0  0  0  0  0  0  0  0  0  0  0
    4.2772    6.3918    0.5034 C   0  0  0  0  0  0  0  0  0  0  0  0
    3.3193   -3.9398   -1.2363 N   0  0  0  0  0  0  0  0  0  0  0  0
    4.0790   -4.3647   -0.1299 N   0  0  0  0  0  0  0  0  0  0  0  0
    4.6213   -3.2224    0.4851 C   0  0  0  0  0  0  0  0  0  0  0  0
    3.9635   -2.0317   -0.1815 C   0  0  0  0  0  0  0  0  0  0  0  0
    3.1500   -2.5572   -1.1179 C   0  0  0  0  0  0  0  0  0  0  0  0
    4.5593   -5.6817    0.0373 C   0  0  0  0  0  0  0  0  0  0  0  0
    4.5613   -6.2602    1.3135 C   0  0  0  0  0  0  0  0  0  0  0  0
    4.9157   -7.6045    1.4859 C   0  0  0  0  0  0  0  0  0  0  0  0
    5.3123   -8.3712    0.3913 C   0  0  0  0  0  0  0  0  0  0  0  0
    5.3531   -7.7951   -0.8766 C   0  0  0  0  0  0  0  0  0  0  0  0
    4.9709   -6.4609   -1.0535 C   0  0  0  0  0  0  0  0  0  0  0  0
    5.4577   -3.1134    1.3680 O   0  0  0  0  0  0  0  0  0  0  0  0
    2.1926   -1.8176   -1.9926 C   0  0  0  0  0  0  0  0  0  0  0  0
    2.3805   -4.8252   -1.9072 C   0  0  0  0  0  0  0  0  0  0  0  0
    2.9260    3.2906   -0.3266 H   0  0  0  0  0  0  0  0  0  0  0  0
    5.1097   -0.6626    0.7465 H   0  0  0  0  0  0  0  0  0  0  0  0
    7.1619    1.7066    3.1351 H   0  0  0  0  0  0  0  0  0  0  0  0
    9.1192    1.1715    4.4468 H   0  0  0  0  0  0  0  0  0  0  0  0
   10.7854    2.9292    4.9805 H   0  0  0  0  0  0  0  0  0  0  0  0
   10.4424    5.2508    4.1710 H   0  0  0  0  0  0  0  0  0  0  0  0
    8.4837    5.8206    2.7706 H   0  0  0  0  0  0  0  0  0  0  0  0
    4.2982    6.4810   -0.5878 H   0  0  0  0  0  0  0  0  0  0  0  0
    3.2347    6.3479    0.8319 H   0  0  0  0  0  0  0  0  0  0  0  0
    4.7154    7.3124    0.9122 H   0  0  0  0  0  0  0  0  0  0  0  0
    4.2297   -5.6885    2.1768 H   0  0  0  0  0  0  0  0  0  0  0  0
    4.8706   -8.0574    2.4741 H   0  0  0  0  0  0  0  0  0  0  0  0
    5.5908   -9.4135    0.5266 H   0  0  0  0  0  0  0  0  0  0  0  0
    5.6778   -8.3857   -1.7300 H   0  0  0  0  0  0  0  0  0  0  0  0
    5.0140   -6.0273   -2.0485 H   0  0  0  0  0  0  0  0  0  0  0  0
    1.3564   -1.4424   -1.3923 H   0  0  0  0  0  0  0  0  0  0  0  0
    2.6900   -0.9913   -2.5081 H   0  0  0  0  0  0  0  0  0  0  0  0
    1.7514   -2.4498   -2.7671 H   0  0  0  0  0  0  0  0  0  0  0  0
    1.3466   -4.5938   -1.6348 H   0  0  0  0  0  0  0  0  0  0  0  0
    2.4916   -4.6889   -2.9900 H   0  0  0  0  0  0  0  0  0  0  0  0
    2.5405   -5.8858   -1.7053 H   0  0  0  0  0  0  0  0  0  0  0  0
  1  2  1  0  0  0  0
  1  5  2  0  0  0  0
  2  3  1  0  0  0  0
  2 12  1  0  0  0  0
  3  4  2  0  0  0  0
  4  5  1  0  0  0  0
  5 18  1  0  0  0  0
  6  7  2  0  0  0  0
  6  4  1  0  0  0  0
  6 33  1  0  0  0  0
  7  8  1  0  0  0  0
  7  9  1  0  0  0  0
  8  3  1  0  0  0  0
  9 10  2  0  0  0  0
  9 11  1  0  0  0  0
 11 22  1  0  0  0  0
 11 34  1  0  0  0  0
 12 13  2  0  0  0  0
 12 17  1  0  0  0  0
 13 14  1  0  0  0  0
 13 35  1  0  0  0  0
 14 15  2  0  0  0  0
 14 36  1  0  0  0  0
 15 16  1  0  0  0  0
 15 37  1  0  0  0  0
 16 17  2  0  0  0  0
 16 38  1  0  0  0  0
 17 39  1  0  0  0  0
 18 40  1  0  0  0  0
 18 41  1  0  0  0  0
 18 42  1  0  0  0  0
 19 20  1  0  0  0  0
 19 23  1  0  0  0  0
 19 32  1  0  0  0  0
 20 21  1  0  0  0  0
 20 24  1  0  0  0  0
 21 22  1  0  0  0  0
 21 30  2  0  0  0  0
 22 23  2  0  0  0  0
 23 31  1  0  0  0  0
 24 25  2  0  0  0  0
 24 29  1  0  0  0  0
 25 26  1  0  0  0  0
 25 43  1  0  0  0  0
 26 27  2  0  0  0  0
 26 44  1  0  0  0  0
 27 28  1  0  0  0  0
 27 45  1  0  0  0  0
 28 29  2  0  0  0  0
 28 46  1  0  0  0  0
 29 47  1  0  0  0  0
 31 48  1  0  0  0  0
 31 49  1  0  0  0  0
 31 50  1  0  0  0  0
 32 51  1  0  0  0  0
 32 52  1  0  0  0  0
 32 53  1  0  0  0  0
M  END
>  <Mol_ID>
5940

>  <Formula>
C24H21N5O2S

>  <MolWeight>
443.52084

>  <Cat>
S9885

>  <Name>
MYLS22

>  <Synonyms>
N/A

>  <Target>
Others

>  <Form>
Free Base

>  <CAS>
306959-01-3

>  <URL>
http://www.selleckchem.com/products/myls22.html

$$$$
