Myoseverin
 OpenBabel08302521323D

 60 63  0  0  0  0  0  0  0  0999 V2000
    1.6439   -1.0664   -0.0499 N   0  0  0  0  0  0  0  0  0  0  0  0
    2.3368    0.0537   -0.0164 C   0  0  0  0  0  0  0  0  0  0  0  0
    1.5181    1.1550    0.0050 N   0  0  0  0  0  0  0  0  0  0  0  0
    0.2161    0.7089    0.0173 C   0  0  0  0  0  0  0  0  0  0  0  0
   -0.9087    1.4363    0.0603 N   0  0  0  0  0  0  0  0  0  0  0  0
   -2.0182    0.6806    0.0326 C   0  0  0  0  0  0  0  0  0  0  0  0
   -2.0492   -0.6605    0.0029 N   0  0  0  0  0  0  0  0  0  0  0  0
   -0.8983   -1.3873   -0.0289 C   0  0  0  0  0  0  0  0  0  0  0  0
    0.3157   -0.6764   -0.0357 C   0  0  0  0  0  0  0  0  0  0  0  0
   -3.2361    1.3328    0.0594 N   0  0  0  0  0  0  0  0  0  0  0  0
   -0.9868   -2.7672   -0.0740 N   0  0  0  0  0  0  0  0  0  0  0  0
    1.9843    2.5357    0.0028 C   0  0  0  0  0  0  0  0  0  0  0  0
    1.4854    3.3014   -1.2204 C   0  0  0  0  0  0  0  0  0  0  0  0
    1.6564    3.2422    1.3151 C   0  0  0  0  0  0  0  0  0  0  0  0
   -2.0840   -3.4746    0.5517 C   0  0  0  0  0  0  0  0  0  0  0  0
   -1.5788   -4.4382    1.6103 C   0  0  0  0  0  0  0  0  0  0  0  0
   -0.8825   -3.9517    2.7276 C   0  0  0  0  0  0  0  0  0  0  0  0
   -0.4314   -4.8167    3.7259 C   0  0  0  0  0  0  0  0  0  0  0  0
   -0.6682   -6.1887    3.6325 C   0  0  0  0  0  0  0  0  0  0  0  0
   -1.3782   -6.6779    2.5360 C   0  0  0  0  0  0  0  0  0  0  0  0
   -1.8345   -5.8177    1.5347 C   0  0  0  0  0  0  0  0  0  0  0  0
   -0.2623   -7.1319    4.5369 O   0  0  0  0  0  0  0  0  0  0  0  0
    0.4679   -6.6550    5.6614 C   0  0  0  0  0  0  0  0  0  0  0  0
   -4.4117    0.7639   -0.5383 C   0  0  0  0  0  0  0  0  0  0  0  0
   -4.9968    1.6779   -1.6082 C   0  0  0  0  0  0  0  0  0  0  0  0
   -4.2506    1.9676   -2.7589 C   0  0  0  0  0  0  0  0  0  0  0  0
   -4.7706    2.7635   -3.7895 C   0  0  0  0  0  0  0  0  0  0  0  0
   -6.0601    3.2818   -3.6931 C   0  0  0  0  0  0  0  0  0  0  0  0
   -6.8121    3.0077   -2.5486 C   0  0  0  0  0  0  0  0  0  0  0  0
   -6.2933    2.2127   -1.5160 C   0  0  0  0  0  0  0  0  0  0  0  0
   -6.6915    4.0546   -4.6291 O   0  0  0  0  0  0  0  0  0  0  0  0
   -5.9653    4.3527   -5.8156 C   0  0  0  0  0  0  0  0  0  0  0  0
    3.4154    0.1328   -0.0086 H   0  0  0  0  0  0  0  0  0  0  0  0
   -3.2346    2.2716    0.4381 H   0  0  0  0  0  0  0  0  0  0  0  0
   -0.2670   -3.2637   -0.5819 H   0  0  0  0  0  0  0  0  0  0  0  0
    3.0792    2.4903   -0.0744 H   0  0  0  0  0  0  0  0  0  0  0  0
    0.3954    3.3965   -1.2278 H   0  0  0  0  0  0  0  0  0  0  0  0
    1.9107    4.3102   -1.2504 H   0  0  0  0  0  0  0  0  0  0  0  0
    1.7782    2.7856   -2.1422 H   0  0  0  0  0  0  0  0  0  0  0  0
    2.0693    2.6856    2.1645 H   0  0  0  0  0  0  0  0  0  0  0  0
    2.0865    4.2496    1.3342 H   0  0  0  0  0  0  0  0  0  0  0  0
    0.5762    3.3312    1.4719 H   0  0  0  0  0  0  0  0  0  0  0  0
   -2.7954   -2.7943    1.0348 H   0  0  0  0  0  0  0  0  0  0  0  0
   -2.6498   -4.0328   -0.2026 H   0  0  0  0  0  0  0  0  0  0  0  0
   -0.6913   -2.8853    2.8187 H   0  0  0  0  0  0  0  0  0  0  0  0
    0.1009   -4.3817    4.5651 H   0  0  0  0  0  0  0  0  0  0  0  0
   -1.5839   -7.7474    2.4657 H   0  0  0  0  0  0  0  0  0  0  0  0
   -2.3964   -6.2304    0.6999 H   0  0  0  0  0  0  0  0  0  0  0  0
    1.3859   -6.1424    5.3531 H   0  0  0  0  0  0  0  0  0  0  0  0
   -0.1569   -6.0052    6.2835 H   0  0  0  0  0  0  0  0  0  0  0  0
    0.7592   -7.5181    6.2669 H   0  0  0  0  0  0  0  0  0  0  0  0
   -4.2223   -0.2088   -1.0146 H   0  0  0  0  0  0  0  0  0  0  0  0
   -5.1702    0.5790    0.2366 H   0  0  0  0  0  0  0  0  0  0  0  0
   -3.2432    1.5643   -2.8590 H   0  0  0  0  0  0  0  0  0  0  0  0
   -4.1403    2.9531   -4.6503 H   0  0  0  0  0  0  0  0  0  0  0  0
   -7.8179    3.4170   -2.4650 H   0  0  0  0  0  0  0  0  0  0  0  0
   -6.9216    2.0166   -0.6495 H   0  0  0  0  0  0  0  0  0  0  0  0
   -5.0805    4.9574   -5.5913 H   0  0  0  0  0  0  0  0  0  0  0  0
   -5.6944    3.4410   -6.3588 H   0  0  0  0  0  0  0  0  0  0  0  0
   -6.6162    4.9440   -6.4674 H   0  0  0  0  0  0  0  0  0  0  0  0
  1  2  2  0  0  0  0
  1  9  1  0  0  0  0
  2  3  1  0  0  0  0
  2 33  1  0  0  0  0
  3  4  1  0  0  0  0
  3 12  1  0  0  0  0
  4  5  1  0  0  0  0
  4  9  2  0  0  0  0
  5  6  2  0  0  0  0
  6  7  1  0  0  0  0
  6 10  1  0  0  0  0
  7  8  2  0  0  0  0
  8  9  1  0  0  0  0
  8 11  1  0  0  0  0
 10 24  1  0  0  0  0
 10 34  1  0  0  0  0
 11 15  1  0  0  0  0
 11 35  1  0  0  0  0
 12 13  1  0  0  0  0
 12 14  1  0  0  0  0
 12 36  1  0  0  0  0
 13 37  1  0  0  0  0
 13 38  1  0  0  0  0
 13 39  1  0  0  0  0
 14 40  1  0  0  0  0
 14 41  1  0  0  0  0
 14 42  1  0  0  0  0
 15 16  1  0  0  0  0
 15 43  1  0  0  0  0
 15 44  1  0  0  0  0
 16 17  2  0  0  0  0
 16 21  1  0  0  0  0
 17 18  1  0  0  0  0
 17 45  1  0  0  0  0
 18 19  2  0  0  0  0
 18 46  1  0  0  0  0
 19 20  1  0  0  0  0
 19 22  1  0  0  0  0
 20 21  2  0  0  0  0
 20 47  1  0  0  0  0
 21 48  1  0  0  0  0
 22 23  1  0  0  0  0
 23 49  1  0  0  0  0
 23 50  1  0  0  0  0
 23 51  1  0  0  0  0
 24 25  1  0  0  0  0
 24 52  1  0  0  0  0
 24 53  1  0  0  0  0
 25 26  2  0  0  0  0
 25 30  1  0  0  0  0
 26 27  1  0  0  0  0
 26 54  1  0  0  0  0
 27 28  2  0  0  0  0
 27 55  1  0  0  0  0
 28 29  1  0  0  0  0
 28 31  1  0  0  0  0
 29 30  2  0  0  0  0
 29 56  1  0  0  0  0
 30 57  1  0  0  0  0
 31 32  1  0  0  0  0
 32 58  1  0  0  0  0
 32 59  1  0  0  0  0
 32 60  1  0  0  0  0
M  END
>  <Mol_ID>
6166

>  <Formula>
C24H28N6O2

>  <MolWeight>
432.51812

>  <Cat>
S0510

>  <Name>
Myoseverin

>  <Target>
Microtubule Associated

>  <Form>
free base

>  <CAS>
267402-71-1

>  <URL>
http://www.selleckchem.com/products/myoseverin.html

$$$$
