Myrislignan
 OpenBabel08302521243D

 53 54  0  0  0  0  0  0  0  0999 V2000
   -3.7358    3.8533    2.7677 C   0  0  0  0  0  0  0  0  0  0  0  0
   -4.7512    3.0652    2.2330 C   0  0  0  0  0  0  0  0  0  0  0  0
   -4.4277    1.7905    1.7436 C   0  0  0  0  0  0  0  0  0  0  0  0
   -3.0971    1.3205    1.7538 C   0  0  0  0  0  0  0  0  0  0  0  0
   -2.1073    2.1332    2.3212 C   0  0  0  0  0  0  0  0  0  0  0  0
   -2.4217    3.3982    2.8137 C   0  0  0  0  0  0  0  0  0  0  0  0
   -3.9612    5.0721    3.3409 O   0  0  0  0  0  0  0  0  0  0  0  0
   -6.0798    3.3934    2.1990 O   0  0  0  0  0  0  0  0  0  0  0  0
   -2.6640    0.0215    1.0885 C   0  0  2  0  0  0  0  0  0  0  0  0
   -1.9311    0.3037   -0.2588 C   0  0  2  0  0  0  0  0  0  0  0  0
   -2.8413    0.9864   -1.2983 C   0  0  0  0  0  0  0  0  0  0  0  0
   -1.5174   -0.9268   -0.8551 O   0  0  0  0  0  0  0  0  0  0  0  0
   -3.7706   -0.8788    0.9393 O   0  0  0  0  0  0  0  0  0  0  0  0
   -0.2736   -1.4760   -0.7905 C   0  0  0  0  0  0  0  0  0  0  0  0
    0.8461   -1.0246   -0.0537 C   0  0  0  0  0  0  0  0  0  0  0  0
    2.0542   -1.7461   -0.1225 C   0  0  0  0  0  0  0  0  0  0  0  0
    2.2074   -2.8677   -0.9384 C   0  0  0  0  0  0  0  0  0  0  0  0
    1.1143   -3.3013   -1.6730 C   0  0  0  0  0  0  0  0  0  0  0  0
   -0.1186   -2.6311   -1.6023 C   0  0  0  0  0  0  0  0  0  0  0  0
   -1.0465   -3.1694   -2.4585 O   0  0  0  0  0  0  0  0  0  0  0  0
   -2.4088   -3.1488   -2.0555 C   0  0  0  0  0  0  0  0  0  0  0  0
    3.5312   -3.5926   -1.0009 C   0  0  0  0  0  0  0  0  0  0  0  0
    3.6626   -4.6358    0.0696 C   0  0  0  0  0  0  0  0  0  0  0  0
    0.7474    0.0988    0.7342 O   0  0  0  0  0  0  0  0  0  0  0  0
    1.9786    0.7410    1.0765 C   0  0  0  0  0  0  0  0  0  0  0  0
    3.9031   -5.9349   -0.1720 C   0  0  0  0  0  0  0  0  0  0  0  0
   -6.3899    4.6837    1.6752 C   0  0  0  0  0  0  0  0  0  0  0  0
   -5.2292    1.1793    1.3384 H   0  0  0  0  0  0  0  0  0  0  0  0
   -1.0751    1.7855    2.3733 H   0  0  0  0  0  0  0  0  0  0  0  0
   -1.6458    4.0181    3.2499 H   0  0  0  0  0  0  0  0  0  0  0  0
   -4.8374    5.0090    3.7653 H   0  0  0  0  0  0  0  0  0  0  0  0
   -1.9745   -0.5024    1.7622 H   0  0  0  0  0  0  0  0  0  0  0  0
   -1.0904    0.9851   -0.1133 H   0  0  0  0  0  0  0  0  0  0  0  0
   -2.9239    0.4080   -2.2238 H   0  0  0  0  0  0  0  0  0  0  0  0
   -3.8546    1.1747   -0.9342 H   0  0  0  0  0  0  0  0  0  0  0  0
   -2.4266    1.9669   -1.5593 H   0  0  0  0  0  0  0  0  0  0  0  0
   -4.3680   -0.5177    0.2673 H   0  0  0  0  0  0  0  0  0  0  0  0
    2.9197   -1.4477    0.4660 H   0  0  0  0  0  0  0  0  0  0  0  0
    1.1969   -4.1756   -2.3168 H   0  0  0  0  0  0  0  0  0  0  0  0
   -2.5330   -3.4172   -1.0015 H   0  0  0  0  0  0  0  0  0  0  0  0
   -2.8743   -2.1871   -2.2883 H   0  0  0  0  0  0  0  0  0  0  0  0
   -2.9361   -3.8987   -2.6545 H   0  0  0  0  0  0  0  0  0  0  0  0
    3.6608   -4.0270   -2.0017 H   0  0  0  0  0  0  0  0  0  0  0  0
    4.3444   -2.8675   -0.8866 H   0  0  0  0  0  0  0  0  0  0  0  0
    3.5632   -4.3041    1.0990 H   0  0  0  0  0  0  0  0  0  0  0  0
    2.5228    0.1639    1.8339 H   0  0  0  0  0  0  0  0  0  0  0  0
    2.6081    0.9127    0.1921 H   0  0  0  0  0  0  0  0  0  0  0  0
    1.7539    1.7175    1.5134 H   0  0  0  0  0  0  0  0  0  0  0  0
    3.9944   -6.6421    0.6480 H   0  0  0  0  0  0  0  0  0  0  0  0
    4.0149   -6.3186   -1.1790 H   0  0  0  0  0  0  0  0  0  0  0  0
   -6.3349    5.4443    2.4585 H   0  0  0  0  0  0  0  0  0  0  0  0
   -5.7648    4.9558    0.8190 H   0  0  0  0  0  0  0  0  0  0  0  0
   -7.4328    4.6607    1.3389 H   0  0  0  0  0  0  0  0  0  0  0  0
  1  2  2  0  0  0  0
  1  7  1  0  0  0  0
  2  3  1  0  0  0  0
  2  8  1  0  0  0  0
  3  4  2  0  0  0  0
  3 28  1  0  0  0  0
  4  5  1  0  0  0  0
  5  6  2  0  0  0  0
  5 29  1  0  0  0  0
  6  1  1  0  0  0  0
  6 30  1  0  0  0  0
  7 31  1  0  0  0  0
  8 27  1  0  0  0  0
  9 13  1  0  0  0  0
  9 32  1  1  0  0  0
  9 10  1  0  0  0  0
  9  4  1  0  0  0  0
 10 33  1  1  0  0  0
 10 12  1  0  0  0  0
 10 11  1  0  0  0  0
 11 34  1  0  0  0  0
 11 35  1  0  0  0  0
 11 36  1  0  0  0  0
 12 14  1  0  0  0  0
 13 37  1  0  0  0  0
 14 15  2  0  0  0  0
 15 16  1  0  0  0  0
 15 24  1  0  0  0  0
 16 17  2  0  0  0  0
 16 38  1  0  0  0  0
 17 18  1  0  0  0  0
 17 22  1  0  0  0  0
 18 19  2  0  0  0  0
 18 39  1  0  0  0  0
 19 14  1  0  0  0  0
 19 20  1  0  0  0  0
 20 21  1  0  0  0  0
 21 40  1  0  0  0  0
 21 41  1  0  0  0  0
 21 42  1  0  0  0  0
 22 23  1  0  0  0  0
 22 43  1  0  0  0  0
 22 44  1  0  0  0  0
 23 26  2  0  0  0  0
 23 45  1  0  0  0  0
 24 25  1  0  0  0  0
 25 46  1  0  0  0  0
 25 47  1  0  0  0  0
 25 48  1  0  0  0  0
 26 49  1  0  0  0  0
 26 50  1  0  0  0  0
 27 51  1  0  0  0  0
 27 52  1  0  0  0  0
 27 53  1  0  0  0  0
M  END
>  <Mol_ID>
5138

>  <Formula>
C21H26O6

>  <MolWeight>
374.42754

>  <Cat>
S3261

>  <Name>
Myrislignan

>  <Synonyms>
N/A

>  <Target>
Anti-infection,COX,Interleukins,NF-¦ÊB,NOS,TNF-alpha

>  <Form>
free base

>  <CAS>
171485-39-5

>  <URL>
http://www.selleckchem.com/products/myrislignan.html

$$$$
