(?)-Myrtenal
 OpenBabel08302521363D

 25 26  0  0  1  0  0  0  0  0999 V2000
   -2.4305   -0.2780    0.0429 C   0  0  0  0  0  0  0  0  0  0  0  0
   -1.0053    1.7574    0.0726 C   0  0  0  0  0  0  0  0  0  0  0  0
    1.8908    0.3877    2.5625 C   0  0  0  0  0  0  0  0  0  0  0  0
    1.3142    0.0661    3.5953 O   0  0  0  0  0  0  0  0  0  0  0  0
   -0.0080   -0.5377    1.0403 C   0  0  2  0  0  0  0  0  0  0  0  0
   -0.9736    0.2228    0.0238 C   0  0  0  0  0  0  0  0  0  0  0  0
    1.3191    0.1378    1.2216 C   0  0  0  0  0  0  0  0  0  0  0  0
    0.1064   -1.6445   -0.0702 C   0  0  0  0  0  0  0  0  0  0  0  0
   -0.0338   -0.4482   -1.0704 C   0  0  2  0  0  0  0  0  0  0  0  0
    1.9682    0.4956    0.0951 C   0  0  0  0  0  0  0  0  0  0  0  0
    1.3370    0.2381   -1.2643 C   0  0  0  0  0  0  0  0  0  0  0  0
   -2.5255   -1.3450   -0.1734 H   0  0  0  0  0  0  0  0  0  0  0  0
   -2.8809   -0.0980    1.0252 H   0  0  0  0  0  0  0  0  0  0  0  0
   -3.0327    0.2482   -0.7062 H   0  0  0  0  0  0  0  0  0  0  0  0
   -1.4118    2.1033    1.0285 H   0  0  0  0  0  0  0  0  0  0  0  0
   -0.0252    2.2248   -0.0468 H   0  0  0  0  0  0  0  0  0  0  0  0
   -1.6356    2.1570   -0.7300 H   0  0  0  0  0  0  0  0  0  0  0  0
    2.8716    0.8874    2.5799 H   0  0  0  0  0  0  0  0  0  0  0  0
   -0.4712   -0.8699    1.9733 H   0  0  0  0  0  0  0  0  0  0  0  0
   -0.7031   -2.3815   -0.0825 H   0  0  0  0  0  0  0  0  0  0  0  0
    1.0451   -2.2085   -0.1111 H   0  0  0  0  0  0  0  0  0  0  0  0
   -0.5189   -0.6947   -2.0204 H   0  0  0  0  0  0  0  0  0  0  0  0
    2.9333    0.9910    0.1169 H   0  0  0  0  0  0  0  0  0  0  0  0
    1.9971   -0.4014   -1.8596 H   0  0  0  0  0  0  0  0  0  0  0  0
    1.2113    1.1837   -1.8025 H   0  0  0  0  0  0  0  0  0  0  0  0
  1  6  1  0  0  0  0
  1 12  1  0  0  0  0
  1 13  1  0  0  0  0
  1 14  1  0  0  0  0
  2  6  1  0  0  0  0
  2 15  1  0  0  0  0
  2 16  1  0  0  0  0
  2 17  1  0  0  0  0
  3  4  2  0  0  0  0
  3  7  1  0  0  0  0
  3 18  1  0  0  0  0
  5  6  1  0  0  0  0
  5  7  1  0  0  0  0
  5  8  1  0  0  0  0
  5 19  1  1  0  0  0
  6  9  1  0  0  0  0
  7 10  2  0  0  0  0
  8 20  1  0  0  0  0
  8 21  1  0  0  0  0
  9  8  1  0  0  0  0
  9 11  1  0  0  0  0
  9 22  1  6  0  0  0
 10 11  1  0  0  0  0
 10 23  1  0  0  0  0
 11 24  1  0  0  0  0
 11 25  1  0  0  0  0
M  END
>  <Mol_ID>
7051

>  <Formula>
C10H14O

>  <MolWeight>
150.21756

>  <Cat>
E4062

>  <Name>
(?)-Myrtenal

>  <Synonyms>
(1R)-(?)-Myrtenal

>  <Target>
Others

>  <Form>
free base

>  <CAS>
18486-69-6

>  <URL>
https://www.selleckchem.com/products/myrtenal.html

$$$$
