MYSOLINE (primidone).cdx
 OpenBabel08302521243D

 30 31  0  0  0  0  0  0  0  0999 V2000
    0.7137    1.2857   -0.3820 C   0  0  0  0  0  0  0  0  0  0  0  0
    1.4139    0.1126    0.0072 N   0  0  0  0  0  0  0  0  0  0  0  0
    0.8111   -1.1163   -0.0427 C   0  0  0  0  0  0  0  0  0  0  0  0
   -0.6780   -1.1736    0.3453 C   0  0  0  0  0  0  0  0  0  0  0  0
   -1.3801    0.1026   -0.1478 C   0  0  0  0  0  0  0  0  0  0  0  0
   -0.6670    1.2670   -0.0414 N   0  0  0  0  0  0  0  0  0  0  0  0
    1.5070   -2.1045   -0.2742 O   0  0  0  0  0  0  0  0  0  0  0  0
   -1.3348   -2.4319   -0.2831 C   0  0  0  0  0  0  0  0  0  0  0  0
   -1.3590   -2.4450   -1.8138 C   0  0  0  0  0  0  0  0  0  0  0  0
   -0.8259   -1.2715    1.8972 C   0  0  0  0  0  0  0  0  0  0  0  0
   -1.9601   -0.7461    2.5489 C   0  0  0  0  0  0  0  0  0  0  0  0
   -2.0840   -0.7785    3.9400 C   0  0  0  0  0  0  0  0  0  0  0  0
   -1.0874   -1.3600    4.7145 C   0  0  0  0  0  0  0  0  0  0  0  0
    0.0252   -1.9224    4.0951 C   0  0  0  0  0  0  0  0  0  0  0  0
    0.1518   -1.8880    2.7011 C   0  0  0  0  0  0  0  0  0  0  0  0
   -2.5638    0.1656   -0.4852 O   0  0  0  0  0  0  0  0  0  0  0  0
    1.1822    2.1507    0.0930 H   0  0  0  0  0  0  0  0  0  0  0  0
    0.7932    1.3835   -1.4687 H   0  0  0  0  0  0  0  0  0  0  0  0
    2.3965    0.0645   -0.2342 H   0  0  0  0  0  0  0  0  0  0  0  0
   -1.2133    2.0755   -0.3161 H   0  0  0  0  0  0  0  0  0  0  0  0
   -0.8055   -3.3342    0.0524 H   0  0  0  0  0  0  0  0  0  0  0  0
   -2.3687   -2.5398    0.0689 H   0  0  0  0  0  0  0  0  0  0  0  0
   -0.3744   -2.2393   -2.2454 H   0  0  0  0  0  0  0  0  0  0  0  0
   -1.6806   -3.4280   -2.1739 H   0  0  0  0  0  0  0  0  0  0  0  0
   -2.0647   -1.7088   -2.2103 H   0  0  0  0  0  0  0  0  0  0  0  0
   -2.7721   -0.2885    1.9860 H   0  0  0  0  0  0  0  0  0  0  0  0
   -2.9606   -0.3450    4.4145 H   0  0  0  0  0  0  0  0  0  0  0  0
   -1.1810   -1.3825    5.7960 H   0  0  0  0  0  0  0  0  0  0  0  0
    0.8006   -2.3881    4.6975 H   0  0  0  0  0  0  0  0  0  0  0  0
    1.0363   -2.3470    2.2630 H   0  0  0  0  0  0  0  0  0  0  0  0
  1  2  1  0  0  0  0
  1 17  1  0  0  0  0
  1 18  1  0  0  0  0
  2  3  1  0  0  0  0
  2 19  1  0  0  0  0
  3  4  1  0  0  0  0
  3  7  2  0  0  0  0
  4  5  1  0  0  0  0
  4  8  1  0  0  0  0
  4 10  1  0  0  0  0
  5  6  1  0  0  0  0
  5 16  2  0  0  0  0
  6  1  1  0  0  0  0
  6 20  1  0  0  0  0
  8  9  1  0  0  0  0
  8 21  1  0  0  0  0
  8 22  1  0  0  0  0
  9 23  1  0  0  0  0
  9 24  1  0  0  0  0
  9 25  1  0  0  0  0
 10 11  2  0  0  0  0
 11 12  1  0  0  0  0
 11 26  1  0  0  0  0
 12 13  2  0  0  0  0
 12 27  1  0  0  0  0
 13 14  1  0  0  0  0
 13 28  1  0  0  0  0
 14 15  2  0  0  0  0
 14 29  1  0  0  0  0
 15 10  1  0  0  0  0
 15 30  1  0  0  0  0
M  END
>  <Mol_ID>
467

>  <Formula>
C12H14N2O2

>  <MolWeight>
218.25176

>  <Cat>
S1965

>  <Name>
Primidone

>  <Synonyms>
NCI-C56360

>  <Target>
Sodium Channel

>  <Form>
free base

>  <CAS>
125-33-7

>  <URL>
http://selleckchem.com/products/Primidone(Mysoline).html

$$$$
