N,N'-Dimethylthiourea
 OpenBabel08302521363D

 14 13  0  0  0  0  0  0  0  0999 V2000
    1.0315    0.0068    0.0398 C   0  0  0  0  0  0  0  0  0  0  0  0
    0.2275    0.9407   -0.5363 N   0  0  0  0  0  0  0  0  0  0  0  0
    0.4180   -1.0256    0.6764 N   0  0  0  0  0  0  0  0  0  0  0  0
    2.7012    0.0084    0.0387 S   0  0  0  0  0  0  0  0  0  0  0  0
    0.6271    2.1279   -1.2684 C   0  0  0  0  0  0  0  0  0  0  0  0
   -0.9833   -1.3373    0.8686 C   0  0  0  0  0  0  0  0  0  0  0  0
   -0.7666    0.8127   -0.4573 H   0  0  0  0  0  0  0  0  0  0  0  0
    1.0776   -1.6814    1.0808 H   0  0  0  0  0  0  0  0  0  0  0  0
    0.1988    2.0609   -2.2719 H   0  0  0  0  0  0  0  0  0  0  0  0
    0.1987    2.9944   -0.7580 H   0  0  0  0  0  0  0  0  0  0  0  0
    1.7087    2.2455   -1.3408 H   0  0  0  0  0  0  0  0  0  0  0  0
   -1.1705   -2.3209    0.4302 H   0  0  0  0  0  0  0  0  0  0  0  0
   -1.1705   -1.3871    1.9444 H   0  0  0  0  0  0  0  0  0  0  0  0
   -1.6556   -0.6082    0.4190 H   0  0  0  0  0  0  0  0  0  0  0  0
  1  2  1  0  0  0  0
  1  3  1  0  0  0  0
  1  4  2  0  0  0  0
  2  5  1  0  0  0  0
  2  7  1  0  0  0  0
  3  6  1  0  0  0  0
  3  8  1  0  0  0  0
  5  9  1  0  0  0  0
  5 10  1  0  0  0  0
  5 11  1  0  0  0  0
  6 12  1  0  0  0  0
  6 13  1  0  0  0  0
  6 14  1  0  0  0  0
M  END
>  <Mol_ID>
7226

>  <Formula>
C3H8N2S

>  <MolWeight>
104.17402

>  <Cat>
E4233

>  <Name>
N,N'-Dimethylthiourea

>  <Synonyms>
DMTU

>  <Target>
ROS

>  <Form>
Free base

>  <CAS>
534-13-4

>  <URL>
https://www.selleckchem.com/products/n-n-dimethylthiourea.html

$$$$
