N,N'-Methylenebisacrylamide
 OpenBabel08302521383D

 21 20  0  0  0  0  0  0  0  0999 V2000
    0.7535    0.0395    0.2331 N   0  0  0  0  0  0  0  0  0  0  0  0
    0.1623   -1.2239   -0.0763 C   0  0  0  0  0  0  0  0  0  0  0  0
    1.5864    0.6302   -0.6833 C   0  0  0  0  0  0  0  0  0  0  0  0
   -0.6956   -1.6148    0.9986 N   0  0  0  0  0  0  0  0  0  0  0  0
    2.2344    1.8637   -0.1690 C   0  0  0  0  0  0  0  0  0  0  0  0
    1.7888    0.1954   -1.8088 O   0  0  0  0  0  0  0  0  0  0  0  0
   -0.9598   -2.9450    1.2089 C   0  0  0  0  0  0  0  0  0  0  0  0
    3.1070    2.5353   -0.9313 C   0  0  0  0  0  0  0  0  0  0  0  0
   -1.9228   -3.1785    2.3156 C   0  0  0  0  0  0  0  0  0  0  0  0
   -0.4579   -3.8585    0.5686 O   0  0  0  0  0  0  0  0  0  0  0  0
   -2.2548   -4.4289    2.6628 C   0  0  0  0  0  0  0  0  0  0  0  0
    0.8192    0.3000    1.2048 H   0  0  0  0  0  0  0  0  0  0  0  0
   -0.4337   -1.1352   -0.9907 H   0  0  0  0  0  0  0  0  0  0  0  0
    0.9545   -1.9645   -0.2404 H   0  0  0  0  0  0  0  0  0  0  0  0
   -1.3031   -0.9170    1.3917 H   0  0  0  0  0  0  0  0  0  0  0  0
    1.9724    2.2204    0.8184 H   0  0  0  0  0  0  0  0  0  0  0  0
    3.5719    3.4489   -0.5780 H   0  0  0  0  0  0  0  0  0  0  0  0
    3.3719    2.1903   -1.9279 H   0  0  0  0  0  0  0  0  0  0  0  0
   -2.3261   -2.3293    2.8494 H   0  0  0  0  0  0  0  0  0  0  0  0
   -2.9360   -4.6197    3.4851 H   0  0  0  0  0  0  0  0  0  0  0  0
   -1.8462   -5.2907    2.1398 H   0  0  0  0  0  0  0  0  0  0  0  0
  1  2  1  0  0  0  0
  1  3  1  0  0  0  0
  1 12  1  0  0  0  0
  2  4  1  0  0  0  0
  2 13  1  0  0  0  0
  2 14  1  0  0  0  0
  3  5  1  0  0  0  0
  3  6  2  0  0  0  0
  4  7  1  0  0  0  0
  4 15  1  0  0  0  0
  5  8  2  0  0  0  0
  5 16  1  0  0  0  0
  7  9  1  0  0  0  0
  7 10  2  0  0  0  0
  8 17  1  0  0  0  0
  8 18  1  0  0  0  0
  9 11  2  0  0  0  0
  9 19  1  0  0  0  0
 11 20  1  0  0  0  0
 11 21  1  0  0  0  0
M  END
>  <Mol_ID>
7641

>  <Formula>
C7H10N2O2

>  <MolWeight>
154.1665

>  <Cat>
E4003

>  <Name>
N,N'-Methylenebisacrylamide

>  <Synonyms>
Methylenebisacrylamide

>  <Target>
Others

>  <Form>
free base

>  <CAS>
110-26-9

>  <URL>
https://www.selleckchem.com/products/n-n-methylenebisacrylamide.html

$$$$
