N-(2-Acetamido)-2-Iminodiacetic acid
 OpenBabel08302520393D

 23 22  0  0  0  0  0  0  0  0999 V2000
    1.0000    0.0768    0.1079 N   0  0  0  0  0  0  0  0  0  0  0  0
    0.4699    1.4232    0.4715 C   0  0  0  0  0  0  0  0  0  0  0  0
    0.4845   -0.3689   -1.2267 C   0  0  0  0  0  0  0  0  0  0  0  0
    2.4992    0.1095    0.0818 C   0  0  0  0  0  0  0  0  0  0  0  0
   -1.0556    1.3515    0.5238 C   0  0  0  0  0  0  0  0  0  0  0  0
    0.7670    0.5884   -2.3814 C   0  0  0  0  0  0  0  0  0  0  0  0
    3.0538    0.1994    1.5062 C   0  0  0  0  0  0  0  0  0  0  0  0
   -1.5705    0.5644    1.5125 N   0  0  0  0  0  0  0  0  0  0  0  0
   -1.7647    1.8493   -0.3464 O   0  0  0  0  0  0  0  0  0  0  0  0
   -0.2091    1.4943   -2.6172 O   0  0  0  0  0  0  0  0  0  0  0  0
    1.8166    0.5803   -3.0111 O   0  0  0  0  0  0  0  0  0  0  0  0
    2.1917   -0.3107    2.4243 O   0  0  0  0  0  0  0  0  0  0  0  0
    4.1539    0.6365    1.8012 O   0  0  0  0  0  0  0  0  0  0  0  0
    0.8171    1.7400    1.4603 H   0  0  0  0  0  0  0  0  0  0  0  0
    0.7712    2.2019   -0.2384 H   0  0  0  0  0  0  0  0  0  0  0  0
    0.9203   -1.3396   -1.4856 H   0  0  0  0  0  0  0  0  0  0  0  0
   -0.5946   -0.5645   -1.1808 H   0  0  0  0  0  0  0  0  0  0  0  0
    2.8796   -0.8388   -0.3215 H   0  0  0  0  0  0  0  0  0  0  0  0
    2.8798    0.9424   -0.5092 H   0  0  0  0  0  0  0  0  0  0  0  0
   -2.5710    0.3984    1.4855 H   0  0  0  0  0  0  0  0  0  0  0  0
   -1.0036   -0.1758    1.9023 H   0  0  0  0  0  0  0  0  0  0  0  0
   -0.9817    1.4907   -2.0033 H   0  0  0  0  0  0  0  0  0  0  0  0
    1.3934   -0.6022    1.9335 H   0  0  0  0  0  0  0  0  0  0  0  0
  1  2  1  0  0  0  0
  1  3  1  0  0  0  0
  1  4  1  0  0  0  0
  2  5  1  0  0  0  0
  2 14  1  0  0  0  0
  2 15  1  0  0  0  0
  3  6  1  0  0  0  0
  3 16  1  0  0  0  0
  3 17  1  0  0  0  0
  4  7  1  0  0  0  0
  4 18  1  0  0  0  0
  4 19  1  0  0  0  0
  5  8  1  0  0  0  0
  5  9  2  0  0  0  0
  6 10  1  0  0  0  0
  6 11  2  0  0  0  0
  7 12  1  0  0  0  0
  7 13  2  0  0  0  0
  8 20  1  0  0  0  0
  8 21  1  0  0  0  0
 10 22  1  0  0  0  0
 12 23  1  0  0  0  0
M  END
>  <Mol_ID>
3653

>  <Formula>
C6H10N2O5

>  <MolWeight>
190.154

>  <Cat>
S6310

>  <Name>
N-(2-Acetamido)-2-Iminodiacetic acid

>  <Synonyms>
ADA buffer

>  <Target>
Others

>  <Form>
free base

>  <CAS>
26239-55-4

>  <URL>
http://www.selleck.cn/products/n-2-acetamido-2-iminodiacetic-acid.html

$$$$
