N-(5-Aminopentyl)acetamide
 OpenBabel08302520383D

 26 25  0  0  0  0  0  0  0  0999 V2000
    1.3627    1.4330    1.3520 N   0  0  0  0  0  0  0  0  0  0  0  0
    0.2841    0.8391    0.5803 C   0  0  0  0  0  0  0  0  0  0  0  0
   -0.4955    1.8869   -0.2152 C   0  0  0  0  0  0  0  0  0  0  0  0
   -1.7246    1.2760   -0.8993 C   0  0  0  0  0  0  0  0  0  0  0  0
   -2.5008    2.3233   -1.7087 C   0  0  0  0  0  0  0  0  0  0  0  0
   -3.7271    1.7525   -2.4270 C   0  0  0  0  0  0  0  0  0  0  0  0
   -3.3587    0.7324   -3.4017 N   0  0  0  0  0  0  0  0  0  0  0  0
    2.6750    1.6211    1.0386 C   0  0  0  0  0  0  0  0  0  0  0  0
    3.4096    2.1723    1.8547 O   0  0  0  0  0  0  0  0  0  0  0  0
    3.1867    1.1767   -0.3027 C   0  0  0  0  0  0  0  0  0  0  0  0
    1.1338    1.7910    2.2705 H   0  0  0  0  0  0  0  0  0  0  0  0
    0.6784    0.0616   -0.0792 H   0  0  0  0  0  0  0  0  0  0  0  0
   -0.3792    0.3594    1.3082 H   0  0  0  0  0  0  0  0  0  0  0  0
   -0.8161    2.6942    0.4553 H   0  0  0  0  0  0  0  0  0  0  0  0
    0.1614    2.3420   -0.9657 H   0  0  0  0  0  0  0  0  0  0  0  0
   -1.4009    0.4585   -1.5533 H   0  0  0  0  0  0  0  0  0  0  0  0
   -2.3896    0.8404   -0.1429 H   0  0  0  0  0  0  0  0  0  0  0  0
   -2.8374    3.1216   -1.0354 H   0  0  0  0  0  0  0  0  0  0  0  0
   -1.8330    2.7917   -2.4425 H   0  0  0  0  0  0  0  0  0  0  0  0
   -4.4240    1.3224   -1.6997 H   0  0  0  0  0  0  0  0  0  0  0  0
   -4.2533    2.5637   -2.9431 H   0  0  0  0  0  0  0  0  0  0  0  0
   -4.1912    0.4309   -3.9075 H   0  0  0  0  0  0  0  0  0  0  0  0
   -2.7337    1.1347   -4.0993 H   0  0  0  0  0  0  0  0  0  0  0  0
    2.8716    0.1584   -0.5376 H   0  0  0  0  0  0  0  0  0  0  0  0
    2.8537    1.8705   -1.0798 H   0  0  0  0  0  0  0  0  0  0  0  0
    4.2847    1.1834   -0.2815 H   0  0  0  0  0  0  0  0  0  0  0  0
  1  2  1  0  0  0  0
  1  8  1  0  0  0  0
  1 11  1  0  0  0  0
  2  3  1  0  0  0  0
  2 12  1  0  0  0  0
  2 13  1  0  0  0  0
  3  4  1  0  0  0  0
  3 14  1  0  0  0  0
  3 15  1  0  0  0  0
  4  5  1  0  0  0  0
  4 16  1  0  0  0  0
  4 17  1  0  0  0  0
  5  6  1  0  0  0  0
  5 18  1  0  0  0  0
  5 19  1  0  0  0  0
  6  7  1  0  0  0  0
  6 20  1  0  0  0  0
  6 21  1  0  0  0  0
  7 22  1  0  0  0  0
  7 23  1  0  0  0  0
  8  9  2  0  0  0  0
  8 10  1  0  0  0  0
 10 24  1  0  0  0  0
 10 25  1  0  0  0  0
 10 26  1  0  0  0  0
M  END
>  <Mol_ID>
3479

>  <Formula>
C7H16N2O

>  <MolWeight>
144.21474

>  <Cat>
S6187

>  <Name>
N-(5-Aminopentyl)acetamide

>  <Synonyms>
Monoacetylcadaverine, N-Acetylcadaverine

>  <Target>
Others

>  <Form>
free base

>  <CAS>
32343-73-0

>  <URL>
http://www.selleck.cn/products/n-aminopentyl-acetamide.html

$$$$
