N-Acetyl-L-tyrosine
 OpenBabel08302520393D

 29 29  0  0  0  0  0  0  0  0999 V2000
   -3.9570   -3.6713   -0.9784 C   0  0  0  0  0  0  0  0  0  0  0  0
   -3.7278   -2.1797   -1.1212 C   0  0  0  0  0  0  0  0  0  0  0  0
   -5.0443   -4.2103   -0.2844 C   0  0  0  0  0  0  0  0  0  0  0  0
   -3.0871   -4.5668   -1.6286 C   0  0  0  0  0  0  0  0  0  0  0  0
   -3.9431   -1.2370    0.0770 C   0  0  2  0  0  0  0  0  0  0  0  0
   -5.2172   -5.5921   -0.1631 C   0  0  0  0  0  0  0  0  0  0  0  0
   -3.2674   -5.9509   -1.5269 C   0  0  0  0  0  0  0  0  0  0  0  0
   -3.3445   -1.6972    1.3243 N   0  0  0  0  0  0  0  0  0  0  0  0
   -5.4043   -0.8851    0.4092 C   0  0  0  0  0  0  0  0  0  0  0  0
   -4.3194   -6.4524   -0.7766 C   0  0  0  0  0  0  0  0  0  0  0  0
   -2.4079   -0.9204    1.9624 C   0  0  0  0  0  0  0  0  0  0  0  0
   -5.8152    0.3230   -0.0245 O   0  0  0  0  0  0  0  0  0  0  0  0
   -6.1355   -1.5860    1.1021 O   0  0  0  0  0  0  0  0  0  0  0  0
   -4.4512   -7.8041   -0.6669 O   0  0  0  0  0  0  0  0  0  0  0  0
   -2.3504   -1.1133    3.4517 C   0  0  0  0  0  0  0  0  0  0  0  0
   -1.7082   -0.1000    1.3777 O   0  0  0  0  0  0  0  0  0  0  0  0
   -2.6728   -2.0515   -1.4075 H   0  0  0  0  0  0  0  0  0  0  0  0
   -4.3179   -1.8283   -1.9773 H   0  0  0  0  0  0  0  0  0  0  0  0
   -5.7976   -3.5826    0.1730 H   0  0  0  0  0  0  0  0  0  0  0  0
   -2.2543   -4.1978   -2.2252 H   0  0  0  0  0  0  0  0  0  0  0  0
   -3.4667   -0.2868   -0.1933 H   0  0  0  0  0  0  0  0  0  0  0  0
   -6.0604   -5.9647    0.4090 H   0  0  0  0  0  0  0  0  0  0  0  0
   -2.5873   -6.6326   -2.0294 H   0  0  0  0  0  0  0  0  0  0  0  0
   -3.9133   -2.3335    1.8765 H   0  0  0  0  0  0  0  0  0  0  0  0
   -5.1091    0.8913   -0.3875 H   0  0  0  0  0  0  0  0  0  0  0  0
   -5.1941   -7.9896   -0.0688 H   0  0  0  0  0  0  0  0  0  0  0  0
   -1.4333   -1.6363    3.7299 H   0  0  0  0  0  0  0  0  0  0  0  0
   -2.3757   -0.1245    3.9216 H   0  0  0  0  0  0  0  0  0  0  0  0
   -3.2169   -1.6735    3.8147 H   0  0  0  0  0  0  0  0  0  0  0  0
  1  2  1  0  0  0  0
  1  3  2  0  0  0  0
  1  4  1  0  0  0  0
  2 17  1  0  0  0  0
  2 18  1  0  0  0  0
  3  6  1  0  0  0  0
  3 19  1  0  0  0  0
  4  7  2  0  0  0  0
  4 20  1  0  0  0  0
  5  9  1  0  0  0  0
  5 21  1  6  0  0  0
  5  8  1  0  0  0  0
  5  2  1  0  0  0  0
  6 10  2  0  0  0  0
  6 22  1  0  0  0  0
  7 10  1  0  0  0  0
  7 23  1  0  0  0  0
  8 11  1  0  0  0  0
  8 24  1  0  0  0  0
  9 12  1  0  0  0  0
  9 13  2  0  0  0  0
 10 14  1  0  0  0  0
 11 15  1  0  0  0  0
 11 16  2  0  0  0  0
 12 25  1  0  0  0  0
 14 26  1  0  0  0  0
 15 27  1  0  0  0  0
 15 28  1  0  0  0  0
 15 29  1  0  0  0  0
M  END
>  <Mol_ID>
3656

>  <Formula>
C11H13NO4

>  <MolWeight>
223.22522

>  <Cat>
S6316

>  <Name>
N-Acetyl-L-tyrosine

>  <Synonyms>
N/A

>  <Target>
Others

>  <Form>
free base

>  <CAS>
537-55-3

>  <URL>
http://www.selleck.cn/products/n-acetyl-l-tyrosine.html

$$$$
