N-Acetyl-L-alanine
 OpenBabel08302521293D

 18 17  0  0  0  0  0  0  0  0999 V2000
    0.8198    0.9916    0.4021 O   0  0  0  0  0  0  0  0  0  0  0  0
    1.0480   -0.5331    2.0137 O   0  0  0  0  0  0  0  0  0  0  0  0
   -3.1676    2.2824   -0.8388 O   0  0  0  0  0  0  0  0  0  0  0  0
   -1.7447    0.9125    0.2067 N   0  0  0  0  0  0  0  0  0  0  0  0
   -1.2289    0.0154    1.2424 C   0  0  1  0  0  0  0  0  0  0  0  0
   -1.6147   -1.4368    0.9970 C   0  0  0  0  0  0  0  0  0  0  0  0
    0.3049    0.1069    1.2870 C   0  0  0  0  0  0  0  0  0  0  0  0
   -2.9935    1.4110    0.0124 C   0  0  0  0  0  0  0  0  0  0  0  0
   -4.1304    0.8824    0.8380 C   0  0  0  0  0  0  0  0  0  0  0  0
    1.7909    0.9339    0.5383 H   0  0  0  0  0  0  0  0  0  0  0  0
   -1.0380    1.3762   -0.3593 H   0  0  0  0  0  0  0  0  0  0  0  0
   -1.6125    0.3643    2.2077 H   0  0  0  0  0  0  0  0  0  0  0  0
   -1.1558   -2.0982    1.7400 H   0  0  0  0  0  0  0  0  0  0  0  0
   -2.6957   -1.5891    1.0533 H   0  0  0  0  0  0  0  0  0  0  0  0
   -1.2841   -1.7710    0.0068 H   0  0  0  0  0  0  0  0  0  0  0  0
   -4.2736   -0.1829    0.6527 H   0  0  0  0  0  0  0  0  0  0  0  0
   -3.9535    1.0707    1.8991 H   0  0  0  0  0  0  0  0  0  0  0  0
   -5.0526    1.3948    0.5442 H   0  0  0  0  0  0  0  0  0  0  0  0
  1  7  1  0  0  0  0
  1 10  1  0  0  0  0
  2  7  2  0  0  0  0
  3  8  2  0  0  0  0
  4  8  1  0  0  0  0
  4 11  1  0  0  0  0
  5  4  1  0  0  0  0
  5  6  1  0  0  0  0
  5  7  1  0  0  0  0
  5 12  1  1  0  0  0
  6 13  1  0  0  0  0
  6 14  1  0  0  0  0
  6 15  1  0  0  0  0
  8  9  1  0  0  0  0
  9 16  1  0  0  0  0
  9 17  1  0  0  0  0
  9 18  1  0  0  0  0
M  END
>  <Mol_ID>
5448

>  <Formula>
C5H9NO3

>  <MolWeight>
131.12986

>  <Cat>
S3094

>  <Name>
N-Acetyl-L-alanine

>  <Synonyms>
NAAL, Ac-Ala-OH

>  <Target>
Others

>  <Form>
Free Base

>  <CAS>
97-69-8

>  <URL>
https://www.selleckchem.com/products/n-acetyl-l-alanine.html

$$$$
