N-Acetylglycine
 OpenBabel08302521293D

 15 14  0  0  0  0  0  0  0  0999 V2000
   -0.4132    2.3776    2.1978 O   0  0  0  0  0  0  0  0  0  0  0  0
   -2.8561   -0.2297   -1.0446 O   0  0  0  0  0  0  0  0  0  0  0  0
    0.1257    0.4710    3.2235 O   0  0  0  0  0  0  0  0  0  0  0  0
   -1.7911    1.3170    0.2618 N   0  0  0  0  0  0  0  0  0  0  0  0
   -1.2664    0.3520    1.2128 C   0  0  0  0  0  0  0  0  0  0  0  0
   -2.5580    0.9349   -0.8070 C   0  0  0  0  0  0  0  0  0  0  0  0
   -0.4529    1.0277    2.3048 C   0  0  0  0  0  0  0  0  0  0  0  0
   -3.0101    2.0873   -1.6597 C   0  0  0  0  0  0  0  0  0  0  0  0
    0.1308    2.6514    2.9677 H   0  0  0  0  0  0  0  0  0  0  0  0
   -1.5780    2.2952    0.4293 H   0  0  0  0  0  0  0  0  0  0  0  0
   -0.6287   -0.3524    0.6708 H   0  0  0  0  0  0  0  0  0  0  0  0
   -2.1105   -0.1742    1.6679 H   0  0  0  0  0  0  0  0  0  0  0  0
   -3.6717    2.7370   -1.0800 H   0  0  0  0  0  0  0  0  0  0  0  0
   -2.1436    2.6568   -2.0074 H   0  0  0  0  0  0  0  0  0  0  0  0
   -3.5547    1.7105   -2.5298 H   0  0  0  0  0  0  0  0  0  0  0  0
  1  7  1  0  0  0  0
  1  9  1  0  0  0  0
  2  6  2  0  0  0  0
  3  7  2  0  0  0  0
  4  5  1  0  0  0  0
  4  6  1  0  0  0  0
  4 10  1  0  0  0  0
  5  7  1  0  0  0  0
  5 11  1  0  0  0  0
  5 12  1  0  0  0  0
  6  8  1  0  0  0  0
  8 13  1  0  0  0  0
  8 14  1  0  0  0  0
  8 15  1  0  0  0  0
M  END
>  <Mol_ID>
5450

>  <Formula>
C4H7NO3

>  <MolWeight>
117.10328

>  <Cat>
S3098

>  <Name>
N-Acetylglycine

>  <Synonyms>
NAGly, Aceturic acid, Acetamidoacetic acid

>  <Target>
Others

>  <Form>
Free Base

>  <CAS>
543-24-8

>  <URL>
https://www.selleckchem.com/products/n-acetylglycine.html

$$$$
