N-Acetyl-L-aspartic acid
 OpenBabel08302521363D

 21 20  0  0  1  0  0  0  0  0999 V2000
    0.8200    0.0478    0.1240 C   0  0  2  0  0  0  0  0  0  0  0  0
    0.5128    0.9836   -1.0453 C   0  0  0  0  0  0  0  0  0  0  0  0
    0.1893   -1.2827    0.0235 N   0  0  0  0  0  0  0  0  0  0  0  0
    0.4956    0.7925    1.4248 C   0  0  0  0  0  0  0  0  0  0  0  0
    0.9749    0.3708   -2.3345 C   0  0  0  0  0  0  0  0  0  0  0  0
   -1.1336   -1.5034   -0.2325 C   0  0  0  0  0  0  0  0  0  0  0  0
   -0.7792    0.6714    1.8570 O   0  0  0  0  0  0  0  0  0  0  0  0
    1.2862    1.5503    1.9708 O   0  0  0  0  0  0  0  0  0  0  0  0
   -0.0176    0.1424   -3.2212 O   0  0  0  0  0  0  0  0  0  0  0  0
    2.1363    0.0699   -2.5620 O   0  0  0  0  0  0  0  0  0  0  0  0
   -1.5308   -2.9290   -0.4779 C   0  0  0  0  0  0  0  0  0  0  0  0
   -1.9355   -0.5729   -0.2385 O   0  0  0  0  0  0  0  0  0  0  0  0
    1.8963   -0.1661    0.1554 H   0  0  0  0  0  0  0  0  0  0  0  0
   -0.5506    1.2390   -1.0961 H   0  0  0  0  0  0  0  0  0  0  0  0
    1.0343    1.9421   -0.9319 H   0  0  0  0  0  0  0  0  0  0  0  0
    0.8042   -2.0827    0.1390 H   0  0  0  0  0  0  0  0  0  0  0  0
   -1.3687    0.2069    1.2194 H   0  0  0  0  0  0  0  0  0  0  0  0
   -0.9114    0.4040   -2.9171 H   0  0  0  0  0  0  0  0  0  0  0  0
   -2.4252   -3.1556    0.1086 H   0  0  0  0  0  0  0  0  0  0  0  0
   -1.7451   -3.0572   -1.5421 H   0  0  0  0  0  0  0  0  0  0  0  0
   -0.7396   -3.6242   -0.1858 H   0  0  0  0  0  0  0  0  0  0  0  0
  1  2  1  0  0  0  0
  1  3  1  0  0  0  0
  1  4  1  0  0  0  0
  1 13  1  6  0  0  0
  2  5  1  0  0  0  0
  2 14  1  0  0  0  0
  2 15  1  0  0  0  0
  3  6  1  0  0  0  0
  3 16  1  0  0  0  0
  4  7  1  0  0  0  0
  4  8  2  0  0  0  0
  5  9  1  0  0  0  0
  5 10  2  0  0  0  0
  6 11  1  0  0  0  0
  6 12  2  0  0  0  0
  7 17  1  0  0  0  0
  9 18  1  0  0  0  0
 11 19  1  0  0  0  0
 11 20  1  0  0  0  0
 11 21  1  0  0  0  0
M  END
>  <Mol_ID>
7039

>  <Formula>
C6H9NO5

>  <MolWeight>
175.13936

>  <Cat>
E4044

>  <Name>
N-Acetyl-L-aspartic acid

>  <Synonyms>
N-Acetyl-L-aspartic acid

>  <Target>
Others

>  <Form>
free base

>  <CAS>
997-55-7

>  <URL>
https://www.selleckchem.com/products/n-acetyl-l-aspartic-acid.html

$$$$
