N-Acetyl-D-mannosamine
 OpenBabel08302521303D

 30 30  0  0  0  0  0  0  0  0999 V2000
    1.5416   -0.0836   -0.2454 C   0  0  1  0  0  0  0  0  0  0  0  0
    0.5269   -1.1821    0.1202 C   0  0  2  0  0  0  0  0  0  0  0  0
   -0.8651   -0.7047   -0.3350 C   0  0  2  0  0  0  0  0  0  0  0  0
   -1.2027    0.6909    0.2189 C   0  0  1  0  0  0  0  0  0  0  0  0
   -0.0357    1.6662    0.0111 C   0  0  2  0  0  0  0  0  0  0  0  0
    1.2142    1.1117    0.4619 O   0  0  0  0  0  0  0  0  0  0  0  0
   -0.2556    2.9695    0.7866 C   0  0  0  0  0  0  0  0  0  0  0  0
    2.8600   -0.4608    0.1081 O   0  0  0  0  0  0  0  0  0  0  0  0
    0.5820   -1.4509    1.5707 N   0  0  0  0  0  0  0  0  0  0  0  0
   -1.9316   -1.5981    0.0132 O   0  0  0  0  0  0  0  0  0  0  0  0
    0.1279   -2.6354    2.1014 C   0  0  0  0  0  0  0  0  0  0  0  0
    0.1995   -2.7359    3.6030 C   0  0  0  0  0  0  0  0  0  0  0  0
   -0.3252   -3.5349    1.4005 O   0  0  0  0  0  0  0  0  0  0  0  0
    0.8408    3.8556    0.5512 O   0  0  0  0  0  0  0  0  0  0  0  0
   -2.3654    1.2025   -0.4412 O   0  0  0  0  0  0  0  0  0  0  0  0
    1.5380    0.1115   -1.3244 H   0  0  0  0  0  0  0  0  0  0  0  0
    0.7803   -2.1220   -0.3821 H   0  0  0  0  0  0  0  0  0  0  0  0
   -0.8739   -0.6554   -1.4309 H   0  0  0  0  0  0  0  0  0  0  0  0
   -1.4459    0.6000    1.2860 H   0  0  0  0  0  0  0  0  0  0  0  0
    0.0689    1.9199   -1.0522 H   0  0  0  0  0  0  0  0  0  0  0  0
   -1.1770    3.4742    0.4822 H   0  0  0  0  0  0  0  0  0  0  0  0
   -0.2927    2.7823    1.8649 H   0  0  0  0  0  0  0  0  0  0  0  0
    2.7906   -0.9149    0.9682 H   0  0  0  0  0  0  0  0  0  0  0  0
    0.7147   -0.6631    2.1930 H   0  0  0  0  0  0  0  0  0  0  0  0
   -1.5430   -2.4395    0.3376 H   0  0  0  0  0  0  0  0  0  0  0  0
   -0.8137   -2.8152    4.0056 H   0  0  0  0  0  0  0  0  0  0  0  0
    0.7773   -3.6200    3.8801 H   0  0  0  0  0  0  0  0  0  0  0  0
    0.6827   -1.8594    4.0422 H   0  0  0  0  0  0  0  0  0  0  0  0
    1.6476    3.3130    0.6480 H   0  0  0  0  0  0  0  0  0  0  0  0
   -2.9024    0.4288   -0.7055 H   0  0  0  0  0  0  0  0  0  0  0  0
  1  2  1  0  0  0  0
  1  8  1  0  0  0  0
  1 16  1  6  0  0  0
  2  3  1  0  0  0  0
  2 17  1  6  0  0  0
  2  9  1  0  0  0  0
  3  4  1  0  0  0  0
  3 10  1  0  0  0  0
  3 18  1  6  0  0  0
  4  5  1  0  0  0  0
  4 15  1  0  0  0  0
  4 19  1  1  0  0  0
  5  6  1  0  0  0  0
  5  7  1  0  0  0  0
  5 20  1  6  0  0  0
  6  1  1  0  0  0  0
  7 14  1  0  0  0  0
  7 21  1  0  0  0  0
  7 22  1  0  0  0  0
  8 23  1  0  0  0  0
  9 11  1  0  0  0  0
  9 24  1  0  0  0  0
 10 25  1  0  0  0  0
 11 12  1  0  0  0  0
 11 13  2  0  0  0  0
 12 26  1  0  0  0  0
 12 27  1  0  0  0  0
 12 28  1  0  0  0  0
 14 29  1  0  0  0  0
 15 30  1  0  0  0  0
M  END
>  <Mol_ID>
5518

>  <Formula>
C8H15NO6

>  <MolWeight>
221.2078

>  <Cat>
S3371

>  <Name>
N-Acetyl-D-mannosamine

>  <Synonyms>
ManNAc, N-acetyl-beta-mannosamine

>  <Target>
Others

>  <Form>
Free Base

>  <CAS>
7772-94-3

>  <URL>
https://www.selleckchem.com/products/n-acetyl-d-mannosamine.html

$$$$
