N-Acetyl-L-methionine
 OpenBabel08302520383D

 25 24  0  0  0  0  0  0  0  0999 V2000
    0.8383   -0.1818   -0.1220 C   0  0  2  0  0  0  0  0  0  0  0  0
    0.1599   -0.1111   -1.4315 N   0  0  0  0  0  0  0  0  0  0  0  0
    0.5162   -1.4708    0.6748 C   0  0  0  0  0  0  0  0  0  0  0  0
    0.4988    1.0581    0.7315 C   0  0  0  0  0  0  0  0  0  0  0  0
    0.5349   -0.8702   -2.5066 C   0  0  0  0  0  0  0  0  0  0  0  0
    0.5484   -2.6123   -0.0508 O   0  0  0  0  0  0  0  0  0  0  0  0
    0.3544   -1.5036    1.8882 O   0  0  0  0  0  0  0  0  0  0  0  0
    1.0972    2.3331    0.1398 C   0  0  0  0  0  0  0  0  0  0  0  0
   -0.1721   -0.5688   -3.7994 C   0  0  0  0  0  0  0  0  0  0  0  0
    1.3616   -1.7713   -2.3898 O   0  0  0  0  0  0  0  0  0  0  0  0
    0.8403    3.8093    1.1807 S   0  0  0  0  0  0  0  0  0  0  0  0
   -0.9680    3.9000    1.1867 C   0  0  0  0  0  0  0  0  0  0  0  0
    1.9195   -0.2099   -0.3104 H   0  0  0  0  0  0  0  0  0  0  0  0
   -0.5559    0.5931   -1.5620 H   0  0  0  0  0  0  0  0  0  0  0  0
   -0.5915    1.1465    0.8192 H   0  0  0  0  0  0  0  0  0  0  0  0
    0.8906    0.9244    1.7480 H   0  0  0  0  0  0  0  0  0  0  0  0
    0.8929   -2.4784   -0.9666 H   0  0  0  0  0  0  0  0  0  0  0  0
    2.1801    2.2119    0.0297 H   0  0  0  0  0  0  0  0  0  0  0  0
    0.6924    2.5404   -0.8555 H   0  0  0  0  0  0  0  0  0  0  0  0
    0.5238   -0.0710   -4.4785 H   0  0  0  0  0  0  0  0  0  0  0  0
   -0.5182   -1.5049   -4.2476 H   0  0  0  0  0  0  0  0  0  0  0  0
   -1.0418    0.0741   -3.6418 H   0  0  0  0  0  0  0  0  0  0  0  0
   -1.3817    3.6193    0.2148 H   0  0  0  0  0  0  0  0  0  0  0  0
   -1.3750    3.2495    1.9650 H   0  0  0  0  0  0  0  0  0  0  0  0
   -1.2714    4.9278    1.4055 H   0  0  0  0  0  0  0  0  0  0  0  0
  1  2  1  0  0  0  0
  1  3  1  0  0  0  0
  1  4  1  0  0  0  0
  1 13  1  6  0  0  0
  2  5  1  0  0  0  0
  2 14  1  0  0  0  0
  3  6  1  0  0  0  0
  3  7  2  0  0  0  0
  4  8  1  0  0  0  0
  4 15  1  0  0  0  0
  4 16  1  0  0  0  0
  5  9  1  0  0  0  0
  5 10  2  0  0  0  0
  6 17  1  0  0  0  0
  8 11  1  0  0  0  0
  8 18  1  0  0  0  0
  8 19  1  0  0  0  0
  9 20  1  0  0  0  0
  9 21  1  0  0  0  0
  9 22  1  0  0  0  0
 11 12  1  0  0  0  0
 12 23  1  0  0  0  0
 12 24  1  0  0  0  0
 12 25  1  0  0  0  0
M  END
>  <Mol_ID>
3487

>  <Formula>
C7H13NO3S

>  <MolWeight>
191.24802

>  <Cat>
S6205

>  <Name>
N-Acetyl-L-methionine

>  <Synonyms>
Ac-Met-OH

>  <Target>
Others

>  <Form>
free base

>  <CAS>
65-82-7

>  <URL>
http://www.selleck.cn/products/n-acetyl-l-methionine.html

$$$$
