N-Acetyl-L-phenylalanine
 OpenBabel08302521263D

 28 28  0  0  0  0  0  0  0  0999 V2000
    0.9471   -0.1702   -0.0057 C   0  0  2  0  0  0  0  0  0  0  0  0
    0.5715    1.3044    0.2471 C   0  0  0  0  0  0  0  0  0  0  0  0
    0.4025   -0.7474   -1.2524 N   0  0  0  0  0  0  0  0  0  0  0  0
    0.6149   -0.9504    1.2778 C   0  0  0  0  0  0  0  0  0  0  0  0
    0.9431    2.3198   -0.8095 C   0  0  0  0  0  0  0  0  0  0  0  0
   -0.9187   -0.7607   -1.6117 C   0  0  0  0  0  0  0  0  0  0  0  0
   -0.6353   -1.4626    1.3363 O   0  0  0  0  0  0  0  0  0  0  0  0
    1.3766   -1.0064    2.2342 O   0  0  0  0  0  0  0  0  0  0  0  0
    0.1207    3.4495   -0.9529 C   0  0  0  0  0  0  0  0  0  0  0  0
    2.0995    2.2326   -1.5934 C   0  0  0  0  0  0  0  0  0  0  0  0
   -1.7997   -0.4457   -0.8170 O   0  0  0  0  0  0  0  0  0  0  0  0
    0.4156    4.4419   -1.8875 C   0  0  0  0  0  0  0  0  0  0  0  0
    2.3923    3.2249   -2.5366 C   0  0  0  0  0  0  0  0  0  0  0  0
    1.5487    4.3243   -2.6878 C   0  0  0  0  0  0  0  0  0  0  0  0
   -1.1966   -1.3047   -2.9871 C   0  0  0  0  0  0  0  0  0  0  0  0
    2.0341   -0.2628   -0.1215 H   0  0  0  0  0  0  0  0  0  0  0  0
   -0.5121    1.3590    0.4092 H   0  0  0  0  0  0  0  0  0  0  0  0
    1.0255    1.6373    1.1923 H   0  0  0  0  0  0  0  0  0  0  0  0
    1.0783   -1.0726   -1.9324 H   0  0  0  0  0  0  0  0  0  0  0  0
   -1.2075   -1.1659    0.5920 H   0  0  0  0  0  0  0  0  0  0  0  0
   -0.7635    3.5665   -0.3287 H   0  0  0  0  0  0  0  0  0  0  0  0
    2.7982    1.4081   -1.4839 H   0  0  0  0  0  0  0  0  0  0  0  0
   -0.2360    5.3061   -1.9854 H   0  0  0  0  0  0  0  0  0  0  0  0
    3.2881    3.1475   -3.1491 H   0  0  0  0  0  0  0  0  0  0  0  0
    1.7792    5.0954   -3.4167 H   0  0  0  0  0  0  0  0  0  0  0  0
   -0.6869   -0.7060   -3.7468 H   0  0  0  0  0  0  0  0  0  0  0  0
   -0.8587   -2.3435   -3.0477 H   0  0  0  0  0  0  0  0  0  0  0  0
   -2.2729   -1.2754   -3.1837 H   0  0  0  0  0  0  0  0  0  0  0  0
  1  2  1  0  0  0  0
  1  3  1  0  0  0  0
  1  4  1  0  0  0  0
  1 16  1  6  0  0  0
  2  5  1  0  0  0  0
  2 17  1  0  0  0  0
  2 18  1  0  0  0  0
  3  6  1  0  0  0  0
  3 19  1  0  0  0  0
  4  7  1  0  0  0  0
  4  8  2  0  0  0  0
  5  9  2  0  0  0  0
  5 10  1  0  0  0  0
  6 11  2  0  0  0  0
  6 15  1  0  0  0  0
  7 20  1  0  0  0  0
  9 12  1  0  0  0  0
  9 21  1  0  0  0  0
 10 13  2  0  0  0  0
 10 22  1  0  0  0  0
 12 14  2  0  0  0  0
 12 23  1  0  0  0  0
 13 14  1  0  0  0  0
 13 24  1  0  0  0  0
 14 25  1  0  0  0  0
 15 26  1  0  0  0  0
 15 27  1  0  0  0  0
 15 28  1  0  0  0  0
M  END
>  <Mol_ID>
5262

>  <Formula>
C11H13NO3

>  <MolWeight>
207.22582

>  <Cat>
S6362

>  <Name>
N-Acetyl-L-phenylalanine

>  <Synonyms>
N/A

>  <Target>
Others

>  <Form>
Free Base

>  <CAS>
2018-61-3

>  <URL>
https://www.selleckchem.com/products/n-acetyl-l-phenylalanine.html

$$$$
