N-Acetylglucosamine
 OpenBabel08302520393D

 30 29  0  0  0  0  0  0  0  0999 V2000
    1.1844    0.1440    0.1664 C   0  0  1  0  0  0  0  0  0  0  0  0
    0.6652    0.3281   -1.2715 C   0  0  2  0  0  0  0  0  0  0  0  0
    2.6342   -0.0264    0.1501 N   0  0  0  0  0  0  0  0  0  0  0  0
    0.7889    1.3459    1.0132 C   0  0  0  0  0  0  0  0  0  0  0  0
    0.9610   -0.8686   -2.1986 C   0  0  1  0  0  0  0  0  0  0  0  0
    1.2964    1.4931   -1.8430 O   0  0  0  0  0  0  0  0  0  0  0  0
    3.2940   -0.8124    1.0660 C   0  0  0  0  0  0  0  0  0  0  0  0
    1.2911    1.6389    2.0956 O   0  0  0  0  0  0  0  0  0  0  0  0
    0.3160   -2.2053   -1.7697 C   0  0  1  0  0  0  0  0  0  0  0  0
    0.5338   -0.4884   -3.5308 O   0  0  0  0  0  0  0  0  0  0  0  0
    4.7793   -0.8837    0.8377 C   0  0  0  0  0  0  0  0  0  0  0  0
    2.7207   -1.4509    1.9392 O   0  0  0  0  0  0  0  0  0  0  0  0
   -1.2174   -2.1604   -1.6932 C   0  0  0  0  0  0  0  0  0  0  0  0
    0.6799   -3.2149   -2.7252 O   0  0  0  0  0  0  0  0  0  0  0  0
   -1.7464   -1.6101   -2.9037 O   0  0  0  0  0  0  0  0  0  0  0  0
    0.7074   -0.7324    0.6228 H   0  0  0  0  0  0  0  0  0  0  0  0
   -0.4084    0.5477   -1.2709 H   0  0  0  0  0  0  0  0  0  0  0  0
    3.1584    0.6550   -0.3887 H   0  0  0  0  0  0  0  0  0  0  0  0
   -0.0675    1.9333    0.6393 H   0  0  0  0  0  0  0  0  0  0  0  0
    2.0444   -1.0087   -2.3001 H   0  0  0  0  0  0  0  0  0  0  0  0
    1.1890    1.3898   -2.8173 H   0  0  0  0  0  0  0  0  0  0  0  0
    0.7183   -2.5327   -0.8062 H   0  0  0  0  0  0  0  0  0  0  0  0
   -0.4091   -0.7566   -3.6132 H   0  0  0  0  0  0  0  0  0  0  0  0
    5.3019   -0.4367    1.6851 H   0  0  0  0  0  0  0  0  0  0  0  0
    5.0610   -1.9363    0.7382 H   0  0  0  0  0  0  0  0  0  0  0  0
    5.0786   -0.3644   -0.0794 H   0  0  0  0  0  0  0  0  0  0  0  0
   -1.6245   -3.1694   -1.5745 H   0  0  0  0  0  0  0  0  0  0  0  0
   -1.5512   -1.5337   -0.8620 H   0  0  0  0  0  0  0  0  0  0  0  0
    0.3579   -2.9038   -3.5926 H   0  0  0  0  0  0  0  0  0  0  0  0
   -2.7179   -1.6873   -2.8434 H   0  0  0  0  0  0  0  0  0  0  0  0
  1  4  1  0  0  0  0
  1 16  1  1  0  0  0
  1  3  1  0  0  0  0
  1  2  1  0  0  0  0
  2 17  1  1  0  0  0
  2  6  1  0  0  0  0
  2  5  1  0  0  0  0
  3  7  1  0  0  0  0
  3 18  1  0  0  0  0
  4  8  2  0  0  0  0
  4 19  1  0  0  0  0
  5  9  1  0  0  0  0
  5 10  1  0  0  0  0
  5 20  1  6  0  0  0
  6 21  1  0  0  0  0
  7 11  1  0  0  0  0
  7 12  2  0  0  0  0
  9 13  1  0  0  0  0
  9 14  1  0  0  0  0
  9 22  1  1  0  0  0
 10 23  1  0  0  0  0
 11 24  1  0  0  0  0
 11 25  1  0  0  0  0
 11 26  1  0  0  0  0
 13 15  1  0  0  0  0
 13 27  1  0  0  0  0
 13 28  1  0  0  0  0
 14 29  1  0  0  0  0
 15 30  1  0  0  0  0
M  END
>  <Mol_ID>
3614

>  <Formula>
C8H15NO6

>  <MolWeight>
221.2078

>  <Cat>
S6257

>  <Name>
N-Acetylglucosamine

>  <Synonyms>
GlcNAc

>  <Target>
Others

>  <Form>
free base

>  <CAS>
7512-17-6

>  <URL>
http://www.selleck.cn/products/n-acetylglucosamine.html

$$$$
