N-Acetyl-L-leucine
 OpenBabel08302521293D

 27 26  0  0  0  0  0  0  0  0999 V2000
    0.7809    0.7575   -0.2124 O   0  0  0  0  0  0  0  0  0  0  0  0
    0.9473    0.4014    1.9791 O   0  0  0  0  0  0  0  0  0  0  0  0
   -3.1296    1.9554   -1.8120 O   0  0  0  0  0  0  0  0  0  0  0  0
   -1.7742    1.0356   -0.2965 N   0  0  0  0  0  0  0  0  0  0  0  0
   -1.2066   -1.8441    2.2622 C   0  0  0  0  0  0  0  0  0  0  0  0
   -1.7176   -1.0431    1.0475 C   0  0  0  0  0  0  0  0  0  0  0  0
   -1.3077    0.4356    0.9669 C   0  0  1  0  0  0  0  0  0  0  0  0
   -1.6188   -1.2260    3.5990 C   0  0  0  0  0  0  0  0  0  0  0  0
   -1.7275   -3.2814    2.1692 C   0  0  0  0  0  0  0  0  0  0  0  0
    0.2286    0.5571    1.0061 C   0  0  0  0  0  0  0  0  0  0  0  0
   -3.0127    1.4006   -0.7194 C   0  0  0  0  0  0  0  0  0  0  0  0
   -4.2036    1.1224    0.1525 C   0  0  0  0  0  0  0  0  0  0  0  0
    1.7490    0.7077   -0.0509 H   0  0  0  0  0  0  0  0  0  0  0  0
   -1.0397    1.2677   -0.9642 H   0  0  0  0  0  0  0  0  0  0  0  0
   -0.1116   -1.8979    2.2272 H   0  0  0  0  0  0  0  0  0  0  0  0
   -2.8084   -1.1160    1.0367 H   0  0  0  0  0  0  0  0  0  0  0  0
   -1.3771   -1.5502    0.1329 H   0  0  0  0  0  0  0  0  0  0  0  0
   -1.7310    1.0286    1.7829 H   0  0  0  0  0  0  0  0  0  0  0  0
   -2.7061   -1.1251    3.6703 H   0  0  0  0  0  0  0  0  0  0  0  0
   -1.2816   -1.8529    4.4324 H   0  0  0  0  0  0  0  0  0  0  0  0
   -1.1730   -0.2367    3.7367 H   0  0  0  0  0  0  0  0  0  0  0  0
   -1.4094   -3.7498    1.2321 H   0  0  0  0  0  0  0  0  0  0  0  0
   -1.3450   -3.8886    2.9945 H   0  0  0  0  0  0  0  0  0  0  0  0
   -2.8215   -3.3108    2.2086 H   0  0  0  0  0  0  0  0  0  0  0  0
   -4.3618    0.0497    0.2492 H   0  0  0  0  0  0  0  0  0  0  0  0
   -4.0879    1.5918    1.1305 H   0  0  0  0  0  0  0  0  0  0  0  0
   -5.0976    1.5412   -0.3289 H   0  0  0  0  0  0  0  0  0  0  0  0
  1 10  1  0  0  0  0
  1 13  1  0  0  0  0
  2 10  2  0  0  0  0
  3 11  2  0  0  0  0
  4 11  1  0  0  0  0
  4 14  1  0  0  0  0
  5  6  1  0  0  0  0
  5  8  1  0  0  0  0
  5  9  1  0  0  0  0
  5 15  1  0  0  0  0
  6 16  1  0  0  0  0
  6 17  1  0  0  0  0
  7  4  1  0  0  0  0
  7  6  1  0  0  0  0
  7 10  1  0  0  0  0
  7 18  1  1  0  0  0
  8 19  1  0  0  0  0
  8 20  1  0  0  0  0
  8 21  1  0  0  0  0
  9 22  1  0  0  0  0
  9 23  1  0  0  0  0
  9 24  1  0  0  0  0
 11 12  1  0  0  0  0
 12 25  1  0  0  0  0
 12 26  1  0  0  0  0
 12 27  1  0  0  0  0
M  END
>  <Mol_ID>
5455

>  <Formula>
C8H15NO3

>  <MolWeight>
173.2096

>  <Cat>
S3109

>  <Name>
N-Acetyl-L-leucine

>  <Synonyms>
N/A

>  <Target>
Others

>  <Form>
Free Base

>  <CAS>
1188-21-2

>  <URL>
https://www.selleckchem.com/products/n-acetyl-l-leucine.html

$$$$
