N¦Á-Acetyl-L-lysine
 OpenBabel08302521393D

 29 28  0  0  0  0  0  0  0  0999 V2000
   -2.0753   -1.7331    3.2879 N   0  0  0  0  0  0  0  0  0  0  0  0
   -1.2690   -2.7322    2.5984 C   0  0  0  0  0  0  0  0  0  0  0  0
   -1.9438   -3.2624    1.3290 C   0  0  0  0  0  0  0  0  0  0  0  0
   -2.2390   -2.2156    0.2482 C   0  0  0  0  0  0  0  0  0  0  0  0
   -0.9719   -1.5192   -0.2727 C   0  0  0  0  0  0  0  0  0  0  0  0
   -1.2594   -0.4956   -1.3826 C   0  0  2  0  0  0  0  0  0  0  0  0
   -2.0494   -1.1417   -2.4305 N   0  0  0  0  0  0  0  0  0  0  0  0
   -3.2407   -0.6164   -2.8640 C   0  0  0  0  0  0  0  0  0  0  0  0
   -4.0953   -1.6057   -3.6080 C   0  0  0  0  0  0  0  0  0  0  0  0
   -3.6164    0.5236   -2.6187 O   0  0  0  0  0  0  0  0  0  0  0  0
    0.0215    0.1263   -1.9630 C   0  0  0  0  0  0  0  0  0  0  0  0
    0.1276    0.7504   -3.0073 O   0  0  0  0  0  0  0  0  0  0  0  0
    1.1139   -0.0488   -1.1884 O   0  0  0  0  0  0  0  0  0  0  0  0
   -2.2477   -0.9344    2.6798 H   0  0  0  0  0  0  0  0  0  0  0  0
   -2.9923   -2.1223    3.5047 H   0  0  0  0  0  0  0  0  0  0  0  0
   -0.2868   -2.3095    2.3677 H   0  0  0  0  0  0  0  0  0  0  0  0
   -1.0930   -3.5672    3.2822 H   0  0  0  0  0  0  0  0  0  0  0  0
   -1.3011   -4.0430    0.8984 H   0  0  0  0  0  0  0  0  0  0  0  0
   -2.8843   -3.7569    1.5987 H   0  0  0  0  0  0  0  0  0  0  0  0
   -2.7370   -2.7435   -0.5754 H   0  0  0  0  0  0  0  0  0  0  0  0
   -2.9505   -1.4723    0.6178 H   0  0  0  0  0  0  0  0  0  0  0  0
   -0.4731   -0.9999    0.5551 H   0  0  0  0  0  0  0  0  0  0  0  0
   -0.2718   -2.2799   -0.6405 H   0  0  0  0  0  0  0  0  0  0  0  0
   -1.8331    0.3344   -0.9501 H   0  0  0  0  0  0  0  0  0  0  0  0
   -1.7149   -2.0135   -2.8210 H   0  0  0  0  0  0  0  0  0  0  0  0
   -5.1430   -1.4268   -3.3479 H   0  0  0  0  0  0  0  0  0  0  0  0
   -3.9542   -1.4963   -4.6843 H   0  0  0  0  0  0  0  0  0  0  0  0
   -3.8551   -2.6301   -3.3051 H   0  0  0  0  0  0  0  0  0  0  0  0
    1.8254    0.4183   -1.6762 H   0  0  0  0  0  0  0  0  0  0  0  0
  1  2  1  0  0  0  0
  1 14  1  0  0  0  0
  1 15  1  0  0  0  0
  2  3  1  0  0  0  0
  2 16  1  0  0  0  0
  2 17  1  0  0  0  0
  3  4  1  0  0  0  0
  3 18  1  0  0  0  0
  3 19  1  0  0  0  0
  4  5  1  0  0  0  0
  4 20  1  0  0  0  0
  4 21  1  0  0  0  0
  5 22  1  0  0  0  0
  5 23  1  0  0  0  0
  6 11  1  0  0  0  0
  6 24  1  1  0  0  0
  6  7  1  0  0  0  0
  6  5  1  0  0  0  0
  7  8  1  0  0  0  0
  7 25  1  0  0  0  0
  8  9  1  0  0  0  0
  8 10  2  0  0  0  0
  9 26  1  0  0  0  0
  9 27  1  0  0  0  0
  9 28  1  0  0  0  0
 11 12  2  0  0  0  0
 11 13  1  0  0  0  0
 13 29  1  0  0  0  0
M  END
>  <Mol_ID>
7970

>  <Formula>
C8H16N2O3

>  <MolWeight>
188.22424

>  <Cat>
S3345

>  <Name>
N¦Á-Acetyl-L-lysine

>  <Synonyms>
Ac-Lys-OH, N(alpha)-Acetyllysine

>  <Target>
Others

>  <Form>
Free Base

>  <CAS>
1946-82-3

>  <URL>
https://www.selleckchem.com/products/na-acetyl-l-lysine.html

$$$$
