N-Acetylglutamic acid
 OpenBabel08302520393D

 24 23  0  0  0  0  0  0  0  0999 V2000
    0.9081   -0.0557   -0.0531 C   0  0  2  0  0  0  0  0  0  0  0  0
    0.4392   -1.2442   -0.9021 C   0  0  0  0  0  0  0  0  0  0  0  0
    0.3023   -0.1023    1.2775 N   0  0  0  0  0  0  0  0  0  0  0  0
    0.5030    1.2838   -0.6789 C   0  0  0  0  0  0  0  0  0  0  0  0
    1.0565   -1.2793   -2.2960 C   0  0  0  0  0  0  0  0  0  0  0  0
    0.6724   -1.0259    2.2205 C   0  0  0  0  0  0  0  0  0  0  0  0
    1.4536    1.8475   -1.4568 O   0  0  0  0  0  0  0  0  0  0  0  0
   -0.5923    1.8039   -0.5027 O   0  0  0  0  0  0  0  0  0  0  0  0
    0.6010   -2.4847   -3.0797 C   0  0  0  0  0  0  0  0  0  0  0  0
   -0.0837   -0.9384    3.5186 C   0  0  0  0  0  0  0  0  0  0  0  0
    1.5569   -1.8543    2.0248 O   0  0  0  0  0  0  0  0  0  0  0  0
    1.0269   -3.6614   -2.5720 O   0  0  0  0  0  0  0  0  0  0  0  0
   -0.0681   -2.4126   -4.0976 O   0  0  0  0  0  0  0  0  0  0  0  0
    1.9953   -0.0810    0.0884 H   0  0  0  0  0  0  0  0  0  0  0  0
    0.6850   -2.1764   -0.3803 H   0  0  0  0  0  0  0  0  0  0  0  0
   -0.6553   -1.2368   -0.9875 H   0  0  0  0  0  0  0  0  0  0  0  0
   -0.4992    0.5034    1.4415 H   0  0  0  0  0  0  0  0  0  0  0  0
    0.7558   -0.3918   -2.8667 H   0  0  0  0  0  0  0  0  0  0  0  0
    2.1513   -1.2789   -2.2574 H   0  0  0  0  0  0  0  0  0  0  0  0
    2.3077    1.3758   -1.4878 H   0  0  0  0  0  0  0  0  0  0  0  0
   -0.5259   -1.9127    3.7436 H   0  0  0  0  0  0  0  0  0  0  0  0
    0.6092   -0.6535    4.3147 H   0  0  0  0  0  0  0  0  0  0  0  0
   -0.8868   -0.1975    3.4722 H   0  0  0  0  0  0  0  0  0  0  0  0
    1.5583   -3.5968   -1.7566 H   0  0  0  0  0  0  0  0  0  0  0  0
  1  2  1  0  0  0  0
  1  3  1  0  0  0  0
  1  4  1  0  0  0  0
  1 14  1  1  0  0  0
  2  5  1  0  0  0  0
  2 15  1  0  0  0  0
  2 16  1  0  0  0  0
  3  6  1  0  0  0  0
  3 17  1  0  0  0  0
  4  7  1  0  0  0  0
  4  8  2  0  0  0  0
  5  9  1  0  0  0  0
  5 18  1  0  0  0  0
  5 19  1  0  0  0  0
  6 10  1  0  0  0  0
  6 11  2  0  0  0  0
  7 20  1  0  0  0  0
  9 12  1  0  0  0  0
  9 13  2  0  0  0  0
 10 21  1  0  0  0  0
 10 22  1  0  0  0  0
 10 23  1  0  0  0  0
 12 24  1  0  0  0  0
M  END
>  <Mol_ID>
3605

>  <Formula>
C7H11NO5

>  <MolWeight>
189.16594

>  <Cat>
S6245

>  <Name>
N-Acetylglutamic acid

>  <Synonyms>
N-Acetylglutamate

>  <Target>
Others

>  <Form>
free base

>  <CAS>
1188-37-0

>  <URL>
http://www.selleck.cn/products/n-acetylglutamic-acid.html

$$$$
