N-Acetylornithine
 OpenBabel08302521383D

 26 25  0  0  0  0  0  0  0  0999 V2000
    0.9791   -0.1481   -0.0557 C   0  0  2  0  0  0  0  0  0  0  0  0
    0.4713   -0.1710   -1.4415 N   0  0  0  0  0  0  0  0  0  0  0  0
    0.6767   -1.4499    0.7050 C   0  0  0  0  0  0  0  0  0  0  0  0
    0.4883    1.0884    0.7152 C   0  0  0  0  0  0  0  0  0  0  0  0
    1.2908   -0.4149   -2.5177 C   0  0  0  0  0  0  0  0  0  0  0  0
    0.2105   -2.4420   -0.0924 O   0  0  0  0  0  0  0  0  0  0  0  0
    0.8517   -1.6079    1.9042 O   0  0  0  0  0  0  0  0  0  0  0  0
   -1.0379    1.2474    0.7856 C   0  0  0  0  0  0  0  0  0  0  0  0
    0.6318   -0.2192   -3.8590 C   0  0  0  0  0  0  0  0  0  0  0  0
    2.4549   -0.7753   -2.4047 O   0  0  0  0  0  0  0  0  0  0  0  0
   -1.4839    2.4579    1.6120 C   0  0  0  0  0  0  0  0  0  0  0  0
   -1.0114    3.7140    1.0382 N   0  0  0  0  0  0  0  0  0  0  0  0
    2.0742   -0.0975   -0.1052 H   0  0  0  0  0  0  0  0  0  0  0  0
   -0.4721    0.1565   -1.6116 H   0  0  0  0  0  0  0  0  0  0  0  0
    0.8852    1.0572    1.7383 H   0  0  0  0  0  0  0  0  0  0  0  0
    0.9223    1.9746    0.2361 H   0  0  0  0  0  0  0  0  0  0  0  0
    0.2430   -2.1515   -1.0258 H   0  0  0  0  0  0  0  0  0  0  0  0
   -1.4563    1.3445   -0.2229 H   0  0  0  0  0  0  0  0  0  0  0  0
   -1.4821    0.3466    1.2262 H   0  0  0  0  0  0  0  0  0  0  0  0
    0.9294    0.7500   -4.2665 H   0  0  0  0  0  0  0  0  0  0  0  0
    0.9500   -1.0178   -4.5337 H   0  0  0  0  0  0  0  0  0  0  0  0
   -0.4584   -0.2565   -3.7776 H   0  0  0  0  0  0  0  0  0  0  0  0
   -2.5799    2.4813    1.6368 H   0  0  0  0  0  0  0  0  0  0  0  0
   -1.1352    2.3691    2.6452 H   0  0  0  0  0  0  0  0  0  0  0  0
   -1.4095    4.4914    1.5652 H   0  0  0  0  0  0  0  0  0  0  0  0
   -0.0026    3.7933    1.1659 H   0  0  0  0  0  0  0  0  0  0  0  0
  1  2  1  0  0  0  0
  1  3  1  0  0  0  0
  1  4  1  0  0  0  0
  1 13  1  6  0  0  0
  2  5  1  0  0  0  0
  2 14  1  0  0  0  0
  3  6  1  0  0  0  0
  3  7  2  0  0  0  0
  4  8  1  0  0  0  0
  4 15  1  0  0  0  0
  4 16  1  0  0  0  0
  5  9  1  0  0  0  0
  5 10  2  0  0  0  0
  6 17  1  0  0  0  0
  8 11  1  0  0  0  0
  8 18  1  0  0  0  0
  8 19  1  0  0  0  0
  9 20  1  0  0  0  0
  9 21  1  0  0  0  0
  9 22  1  0  0  0  0
 11 12  1  0  0  0  0
 11 23  1  0  0  0  0
 11 24  1  0  0  0  0
 12 25  1  0  0  0  0
 12 26  1  0  0  0  0
M  END
>  <Mol_ID>
7902

>  <Formula>
C7H14N2O3

>  <MolWeight>
174.19766

>  <Cat>
S6116

>  <Name>
N-Acetylornithine

>  <Synonyms>
N/A

>  <Target>
Others

>  <Form>
free base

>  <CAS>
6205-08-9

>  <URL>
http://www.selleck.cn/products/n-acetylornithine.html

$$$$
