N-BENZYLFORMAMIDE
 OpenBabel08302521363D

 22 22  0  0  0  0  0  0  0  0999 V2000
    0.9872    0.0639    0.1322 C   0  0  0  0  0  0  0  0  0  0  0  0
    0.3523   -0.1788    1.4032 N   0  0  0  0  0  0  0  0  0  0  0  0
    0.6097   -1.3492    2.0783 C   0  0  0  0  0  0  0  0  0  0  0  0
   -0.1376   -1.5058    3.3729 C   0  0  0  0  0  0  0  0  0  0  0  0
    1.4042   -2.1957    1.6829 O   0  0  0  0  0  0  0  0  0  0  0  0
    0.6490    1.4128   -0.4439 C   0  0  0  0  0  0  0  0  0  0  0  0
    1.3749    2.5523   -0.0684 C   0  0  0  0  0  0  0  0  0  0  0  0
   -0.3693    1.5433   -1.4001 C   0  0  0  0  0  0  0  0  0  0  0  0
    1.1283    3.7827   -0.6804 C   0  0  0  0  0  0  0  0  0  0  0  0
   -0.6140    2.7748   -2.0107 C   0  0  0  0  0  0  0  0  0  0  0  0
    0.1438    3.8908   -1.6607 C   0  0  0  0  0  0  0  0  0  0  0  0
    0.6882   -0.7320   -0.5582 H   0  0  0  0  0  0  0  0  0  0  0  0
    2.0728   -0.0277    0.2596 H   0  0  0  0  0  0  0  0  0  0  0  0
   -0.3949    0.4336    1.7018 H   0  0  0  0  0  0  0  0  0  0  0  0
   -0.5441   -2.5209    3.4313 H   0  0  0  0  0  0  0  0  0  0  0  0
    0.5531   -1.3416    4.2049 H   0  0  0  0  0  0  0  0  0  0  0  0
   -0.9680   -0.7993    3.4522 H   0  0  0  0  0  0  0  0  0  0  0  0
    2.1585    2.4790    0.6833 H   0  0  0  0  0  0  0  0  0  0  0  0
   -0.9578    0.6782   -1.6971 H   0  0  0  0  0  0  0  0  0  0  0  0
    1.7176    4.6543   -0.4057 H   0  0  0  0  0  0  0  0  0  0  0  0
   -1.3839    2.8595   -2.7735 H   0  0  0  0  0  0  0  0  0  0  0  0
   -0.0294    4.8429   -2.1560 H   0  0  0  0  0  0  0  0  0  0  0  0
  1  2  1  0  0  0  0
  1  6  1  0  0  0  0
  1 12  1  0  0  0  0
  1 13  1  0  0  0  0
  2  3  1  0  0  0  0
  2 14  1  0  0  0  0
  3  4  1  0  0  0  0
  3  5  2  0  0  0  0
  4 15  1  0  0  0  0
  4 16  1  0  0  0  0
  4 17  1  0  0  0  0
  6  7  2  0  0  0  0
  6  8  1  0  0  0  0
  7  9  1  0  0  0  0
  7 18  1  0  0  0  0
  8 10  2  0  0  0  0
  8 19  1  0  0  0  0
  9 11  2  0  0  0  0
  9 20  1  0  0  0  0
 10 11  1  0  0  0  0
 10 21  1  0  0  0  0
 11 22  1  0  0  0  0
M  END
>  <Mol_ID>
7308

>  <Formula>
C9H11NO

>  <MolWeight>
149.18974

>  <Cat>
E4338

>  <Name>
N-BENZYLFORMAMIDE

>  <Synonyms>
N-BENZYLFORMAMIDE

>  <Target>
Others

>  <Form>
free base

>  <CAS>
588-46-5

>  <URL>
https://www.selleckchem.com/products/n-benzylformamide.html

$$$$
