N-Benzylmethylamine
 OpenBabel08302521363D

 20 20  0  0  0  0  0  0  0  0999 V2000
    1.0173    0.0239   -0.0521 C   0  0  0  0  0  0  0  0  0  0  0  0
    1.2054    0.4481   -1.4451 N   0  0  0  0  0  0  0  0  0  0  0  0
   -0.0185    0.3327   -2.2295 C   0  0  0  0  0  0  0  0  0  0  0  0
    0.6024   -1.4193    0.1021 C   0  0  0  0  0  0  0  0  0  0  0  0
    1.4225   -2.4538   -0.3688 C   0  0  0  0  0  0  0  0  0  0  0  0
   -0.6186   -1.7470    0.7119 C   0  0  0  0  0  0  0  0  0  0  0  0
    1.0271   -3.7869   -0.2438 C   0  0  0  0  0  0  0  0  0  0  0  0
   -1.0124   -3.0807    0.8372 C   0  0  0  0  0  0  0  0  0  0  0  0
   -0.1911   -4.0991    0.3583 C   0  0  0  0  0  0  0  0  0  0  0  0
    0.2980    0.6893    0.4425 H   0  0  0  0  0  0  0  0  0  0  0  0
    1.9666    0.1582    0.4813 H   0  0  0  0  0  0  0  0  0  0  0  0
    1.4999    1.4235   -1.4404 H   0  0  0  0  0  0  0  0  0  0  0  0
   -0.8598    0.8464   -1.7524 H   0  0  0  0  0  0  0  0  0  0  0  0
    0.1391    0.7906   -3.2118 H   0  0  0  0  0  0  0  0  0  0  0  0
   -0.2873   -0.7136   -2.4070 H   0  0  0  0  0  0  0  0  0  0  0  0
    2.3673   -2.2163   -0.8538 H   0  0  0  0  0  0  0  0  0  0  0  0
   -1.2738   -0.9647    1.0850 H   0  0  0  0  0  0  0  0  0  0  0  0
    1.6660   -4.5787   -0.6230 H   0  0  0  0  0  0  0  0  0  0  0  0
   -1.9634   -3.3235    1.3039 H   0  0  0  0  0  0  0  0  0  0  0  0
   -0.5012   -5.1360    0.4493 H   0  0  0  0  0  0  0  0  0  0  0  0
  1  2  1  0  0  0  0
  1  4  1  0  0  0  0
  1 10  1  0  0  0  0
  1 11  1  0  0  0  0
  2  3  1  0  0  0  0
  2 12  1  0  0  0  0
  3 13  1  0  0  0  0
  3 14  1  0  0  0  0
  3 15  1  0  0  0  0
  4  5  2  0  0  0  0
  4  6  1  0  0  0  0
  5  7  1  0  0  0  0
  5 16  1  0  0  0  0
  6  8  2  0  0  0  0
  6 17  1  0  0  0  0
  7  9  2  0  0  0  0
  7 18  1  0  0  0  0
  8  9  1  0  0  0  0
  8 19  1  0  0  0  0
  9 20  1  0  0  0  0
M  END
>  <Mol_ID>
7304

>  <Formula>
C8H11N

>  <MolWeight>
121.17964

>  <Cat>
E4332

>  <Name>
N-Benzylmethylamine

>  <Synonyms>
N-Benzylmethylamine

>  <Target>
Others

>  <Form>
free base

>  <CAS>
103-67-3

>  <URL>
https://www.selleckchem.com/products/n-benzylmethylamine.html

$$$$
