N-butyl-N-(4-hydroxybutyl) nitrosamine
 OpenBabel08302521313D

 30 29  0  0  0  0  0  0  0  0999 V2000
    1.2383   -2.6014    0.8095 O   0  0  0  0  0  0  0  0  0  0  0  0
    3.6720    2.3351    5.5937 O   0  0  0  0  0  0  0  0  0  0  0  0
    2.6759    1.5049    3.9521 N   0  0  0  0  0  0  0  0  0  0  0  0
    3.5126    2.4218    4.3703 N   0  0  0  0  0  0  0  0  0  0  0  0
    3.0560    0.9655    2.6312 C   0  0  0  0  0  0  0  0  0  0  0  0
    2.5632   -0.4733    2.4086 C   0  0  0  0  0  0  0  0  0  0  0  0
    1.2293    1.8498    4.0172 C   0  0  0  0  0  0  0  0  0  0  0  0
    0.8453    3.1411    4.7763 C   0  0  0  0  0  0  0  0  0  0  0  0
    3.0521   -1.0166    1.0570 C   0  0  0  0  0  0  0  0  0  0  0  0
   -0.6679    3.3630    4.8441 C   0  0  0  0  0  0  0  0  0  0  0  0
    2.6516   -2.4696    0.8211 C   0  0  0  0  0  0  0  0  0  0  0  0
   -0.9958    4.6592    5.5762 C   0  0  0  0  0  0  0  0  0  0  0  0
    0.9647   -2.8881    1.6984 H   0  0  0  0  0  0  0  0  0  0  0  0
    4.1512    0.9380    2.5493 H   0  0  0  0  0  0  0  0  0  0  0  0
    2.7081    1.6221    1.8229 H   0  0  0  0  0  0  0  0  0  0  0  0
    1.4695   -0.5085    2.4471 H   0  0  0  0  0  0  0  0  0  0  0  0
    2.9414   -1.1174    3.2114 H   0  0  0  0  0  0  0  0  0  0  0  0
    0.8055    1.9283    3.0068 H   0  0  0  0  0  0  0  0  0  0  0  0
    0.7201    1.0044    4.4970 H   0  0  0  0  0  0  0  0  0  0  0  0
    1.2297    3.1026    5.8019 H   0  0  0  0  0  0  0  0  0  0  0  0
    1.3034    4.0058    4.2790 H   0  0  0  0  0  0  0  0  0  0  0  0
    4.1430   -0.9385    0.9970 H   0  0  0  0  0  0  0  0  0  0  0  0
    2.6330   -0.3954    0.2560 H   0  0  0  0  0  0  0  0  0  0  0  0
   -1.0938    3.4020    3.8350 H   0  0  0  0  0  0  0  0  0  0  0  0
   -1.1417    2.5256    5.3684 H   0  0  0  0  0  0  0  0  0  0  0  0
    3.0715   -3.1319    1.5856 H   0  0  0  0  0  0  0  0  0  0  0  0
    3.0239   -2.8024   -0.1520 H   0  0  0  0  0  0  0  0  0  0  0  0
   -0.6433    5.5277    5.0099 H   0  0  0  0  0  0  0  0  0  0  0  0
   -2.0770    4.7602    5.7122 H   0  0  0  0  0  0  0  0  0  0  0  0
   -0.5263    4.6848    6.5652 H   0  0  0  0  0  0  0  0  0  0  0  0
  1 11  1  0  0  0  0
  1 13  1  0  0  0  0
  2  4  2  0  0  0  0
  3  4  1  0  0  0  0
  3  5  1  0  0  0  0
  3  7  1  0  0  0  0
  5  6  1  0  0  0  0
  5 14  1  0  0  0  0
  5 15  1  0  0  0  0
  6  9  1  0  0  0  0
  6 16  1  0  0  0  0
  6 17  1  0  0  0  0
  7  8  1  0  0  0  0
  7 18  1  0  0  0  0
  7 19  1  0  0  0  0
  8 10  1  0  0  0  0
  8 20  1  0  0  0  0
  8 21  1  0  0  0  0
  9 11  1  0  0  0  0
  9 22  1  0  0  0  0
  9 23  1  0  0  0  0
 10 12  1  0  0  0  0
 10 24  1  0  0  0  0
 10 25  1  0  0  0  0
 11 26  1  0  0  0  0
 11 27  1  0  0  0  0
 12 28  1  0  0  0  0
 12 29  1  0  0  0  0
 12 30  1  0  0  0  0
M  END
>  <Mol_ID>
5964

>  <Formula>
C8H18N2O2

>  <MolWeight>
174.24072

>  <Cat>
E0199

>  <Name>
N-butyl-N-(4-hydroxybutyl) nitrosamine

>  <Synonyms>
BBN, OH-BBN

>  <Target>
Others

>  <Form>
Free Base

>  <CAS>
3817-11-6

>  <URL>
http://www.selleckchem.com/products/n-butyl-n-4-hydroxybutyl-nitrosamine.html

$$$$
