n-Butylidenephthalide
 OpenBabel08302520403D

 26 27  0  0  0  0  0  0  0  0999 V2000
    0.2648   -0.7198    0.0221 C   0  0  0  0  0  0  0  0  0  0  0  0
    0.2300    0.6573    0.0069 C   0  0  0  0  0  0  0  0  0  0  0  0
   -1.1151   -1.1418    0.0277 C   0  0  0  0  0  0  0  0  0  0  0  0
    1.4787   -1.3855    0.0246 C   0  0  0  0  0  0  0  0  0  0  0  0
   -1.1590    1.0967   -0.0075 C   0  0  0  0  0  0  0  0  0  0  0  0
    1.3730    1.4400    0.0019 C   0  0  0  0  0  0  0  0  0  0  0  0
   -1.9562   -0.0204   -0.0018 O   0  0  0  0  0  0  0  0  0  0  0  0
   -1.5885   -2.3944    0.0701 C   0  0  0  0  0  0  0  0  0  0  0  0
    2.6543   -0.6221    0.0154 C   0  0  0  0  0  0  0  0  0  0  0  0
   -1.5363    2.2529   -0.0250 O   0  0  0  0  0  0  0  0  0  0  0  0
    2.6024    0.7825    0.0063 C   0  0  0  0  0  0  0  0  0  0  0  0
   -3.0549   -2.7360    0.0736 C   0  0  0  0  0  0  0  0  0  0  0  0
   -3.4992   -3.4929    1.3276 C   0  0  0  0  0  0  0  0  0  0  0  0
   -3.2867   -2.7083    2.6148 C   0  0  0  0  0  0  0  0  0  0  0  0
    1.5306   -2.4693    0.0304 H   0  0  0  0  0  0  0  0  0  0  0  0
    1.3072    2.5233   -0.0075 H   0  0  0  0  0  0  0  0  0  0  0  0
   -0.9019   -3.2367    0.1033 H   0  0  0  0  0  0  0  0  0  0  0  0
    3.6217   -1.1212    0.0141 H   0  0  0  0  0  0  0  0  0  0  0  0
    3.5251    1.3588    0.0004 H   0  0  0  0  0  0  0  0  0  0  0  0
   -3.6738   -1.8377   -0.0372 H   0  0  0  0  0  0  0  0  0  0  0  0
   -3.2605   -3.3583   -0.8056 H   0  0  0  0  0  0  0  0  0  0  0  0
   -4.5667   -3.7263    1.2319 H   0  0  0  0  0  0  0  0  0  0  0  0
   -2.9709   -4.4512    1.3950 H   0  0  0  0  0  0  0  0  0  0  0  0
   -3.7965   -1.7405    2.5744 H   0  0  0  0  0  0  0  0  0  0  0  0
   -3.6869   -3.2678    3.4663 H   0  0  0  0  0  0  0  0  0  0  0  0
   -2.2236   -2.5313    2.8050 H   0  0  0  0  0  0  0  0  0  0  0  0
  1  2  2  0  0  0  0
  1  3  1  0  0  0  0
  1  4  1  0  0  0  0
  2  5  1  0  0  0  0
  2  6  1  0  0  0  0
  3  7  1  0  0  0  0
  3  8  2  0  0  0  0
  4  9  2  0  0  0  0
  4 15  1  0  0  0  0
  5 10  2  0  0  0  0
  5  7  1  0  0  0  0
  6 11  2  0  0  0  0
  6 16  1  0  0  0  0
  8 12  1  0  0  0  0
  8 17  1  0  0  0  0
  9 11  1  0  0  0  0
  9 18  1  0  0  0  0
 11 19  1  0  0  0  0
 12 13  1  0  0  0  0
 12 20  1  0  0  0  0
 12 21  1  0  0  0  0
 13 14  1  0  0  0  0
 13 22  1  0  0  0  0
 13 23  1  0  0  0  0
 14 24  1  0  0  0  0
 14 25  1  0  0  0  0
 14 26  1  0  0  0  0
M  END
>  <Mol_ID>
3797

>  <Formula>
C12H12O2

>  <MolWeight>
188.22248

>  <Cat>
S6493

>  <Name>
n-Butylidenephthalide

>  <Synonyms>
(Z)-Butylidenephthalide, 3-Butylidenephthalide, Butylidenephthalide

>  <Target>
Others

>  <Form>
free base

>  <CAS>
551-08-6

>  <URL>
http://www.selleck.cn/products/n-butylidenephthalide.html

$$$$
