N-FeruloyloctopaMine
 OpenBabel08302521493D

 43 44  0  0  0  0  0  0  0  0999 V2000
    0.8726    0.0126    0.0996 C   0  0  0  0  0  0  0  0  0  0  0  0
    0.3068    0.2471    1.2954 C   0  0  0  0  0  0  0  0  0  0  0  0
    1.1446    0.6120    2.4675 C   0  0  0  0  0  0  0  0  0  0  0  0
    0.4130    0.7803    3.6174 N   0  0  0  0  0  0  0  0  0  0  0  0
    2.3557    0.7697    2.3996 O   0  0  0  0  0  0  0  0  0  0  0  0
    1.0414    1.1639    4.8801 C   0  0  0  0  0  0  0  0  0  0  0  0
    1.2326    2.6884    5.0010 C   0  0  3  0  0  0  0  0  0  0  0  0
   -0.0462    3.3300    4.8886 O   0  0  0  0  0  0  0  0  0  0  0  0
    0.4198   -2.2283   -4.3047 O   0  0  0  0  0  0  0  0  0  0  0  0
    1.6973   -2.8350   -4.1526 C   0  0  0  0  0  0  0  0  0  0  0  0
   -1.9642   -1.0948   -4.6372 O   0  0  0  0  0  0  0  0  0  0  0  0
    3.6661    4.2061    9.9060 O   0  0  0  0  0  0  0  0  0  0  0  0
    0.1109   -0.2965   -1.1234 C   0  0  0  0  0  0  0  0  0  0  0  0
    0.6789   -1.1394   -2.0978 C   0  0  0  0  0  0  0  0  0  0  0  0
   -1.1432    0.2845   -1.3732 C   0  0  0  0  0  0  0  0  0  0  0  0
   -0.0092   -1.4208   -3.2829 C   0  0  0  0  0  0  0  0  0  0  0  0
   -1.8354    0.0089   -2.5514 C   0  0  0  0  0  0  0  0  0  0  0  0
   -1.2647   -0.8409   -3.4885 C   0  0  0  0  0  0  0  0  0  0  0  0
    1.8783    3.0799    6.3149 C   0  0  0  0  0  0  0  0  0  0  0  0
    3.2758    3.1976    6.4005 C   0  0  0  0  0  0  0  0  0  0  0  0
    1.1144    3.3227    7.4682 C   0  0  0  0  0  0  0  0  0  0  0  0
    3.8909    3.5728    7.5991 C   0  0  0  0  0  0  0  0  0  0  0  0
    1.7278    3.6951    8.6665 C   0  0  0  0  0  0  0  0  0  0  0  0
    3.1091    3.8234    8.7216 C   0  0  0  0  0  0  0  0  0  0  0  0
    1.9559    0.0473   -0.0077 H   0  0  0  0  0  0  0  0  0  0  0  0
   -0.7635    0.1924    1.4400 H   0  0  0  0  0  0  0  0  0  0  0  0
   -0.5873    0.6327    3.6191 H   0  0  0  0  0  0  0  0  0  0  0  0
    0.3772    0.7963    5.6705 H   0  0  0  0  0  0  0  0  0  0  0  0
    2.0026    0.6452    4.9692 H   0  0  0  0  0  0  0  0  0  0  0  0
    1.8430    3.0693    4.1732 H   0  0  0  0  0  0  0  0  0  0  0  0
   -0.3143    3.2140    3.9620 H   0  0  0  0  0  0  0  0  0  0  0  0
    2.4884   -2.0794   -4.1123 H   0  0  0  0  0  0  0  0  0  0  0  0
    1.7240   -3.4871   -3.2738 H   0  0  0  0  0  0  0  0  0  0  0  0
    1.8759   -3.4590   -5.0341 H   0  0  0  0  0  0  0  0  0  0  0  0
   -1.3919   -1.6962   -5.1523 H   0  0  0  0  0  0  0  0  0  0  0  0
    4.6237    4.3047    9.7790 H   0  0  0  0  0  0  0  0  0  0  0  0
    1.6590   -1.5676   -1.9091 H   0  0  0  0  0  0  0  0  0  0  0  0
   -1.5929    0.9744   -0.6648 H   0  0  0  0  0  0  0  0  0  0  0  0
   -2.8066    0.4554   -2.7425 H   0  0  0  0  0  0  0  0  0  0  0  0
    3.8958    3.0074    5.5261 H   0  0  0  0  0  0  0  0  0  0  0  0
    0.0298    3.2421    7.4330 H   0  0  0  0  0  0  0  0  0  0  0  0
    4.9716    3.6674    7.6341 H   0  0  0  0  0  0  0  0  0  0  0  0
    1.1272    3.8954    9.5491 H   0  0  0  0  0  0  0  0  0  0  0  0
  1  2  2  0  0  0  0
  1 13  1  0  0  0  0
  1 25  1  0  0  0  0
  2  3  1  0  0  0  0
  2 26  1  0  0  0  0
  3  4  1  0  0  0  0
  3  5  2  0  0  0  0
  4  6  1  0  0  0  0
  4 27  1  0  0  0  0
  6  7  1  0  0  0  0
  6 28  1  0  0  0  0
  6 29  1  0  0  0  0
  7  8  1  0  0  0  0
  7 19  1  0  0  0  0
  7 30  1  0  0  0  0
  8 31  1  0  0  0  0
  9 10  1  0  0  0  0
  9 16  1  0  0  0  0
 10 32  1  0  0  0  0
 10 33  1  0  0  0  0
 10 34  1  0  0  0  0
 11 18  1  0  0  0  0
 11 35  1  0  0  0  0
 12 24  1  0  0  0  0
 12 36  1  0  0  0  0
 13 14  2  0  0  0  0
 13 15  1  0  0  0  0
 14 16  1  0  0  0  0
 14 37  1  0  0  0  0
 15 17  2  0  0  0  0
 15 38  1  0  0  0  0
 16 18  2  0  0  0  0
 17 18  1  0  0  0  0
 17 39  1  0  0  0  0
 19 20  2  0  0  0  0
 19 21  1  0  0  0  0
 20 22  1  0  0  0  0
 20 40  1  0  0  0  0
 21 23  2  0  0  0  0
 21 41  1  0  0  0  0
 22 24  2  0  0  0  0
 22 42  1  0  0  0  0
 23 24  1  0  0  0  0
 23 43  1  0  0  0  0
M  END
>  <Mol_ID>
9854

>  <Formula>
C18H19NO5

>  <MolWeight>
329.34716

>  <Cat>
E2554

>  <Name>
N-FeruloyloctopaMine

>  <Synonyms>
N-trans-feruloyloctopamine

>  <Target>
Akt, p38 MAPK

>  <Form>
free base

>  <CAS>
66648-44-0

>  <URL>
https://www.selleckchem.com/products/n-feruloyloctopamine.html

$$$$
