N-Formylglycine
 OpenBabel08302521293D

 12 11  0  0  0  0  0  0  0  0999 V2000
    0.9410   -0.2318   -1.1917 O   0  0  0  0  0  0  0  0  0  0  0  0
    1.0674    1.8697   -0.4541 O   0  0  0  0  0  0  0  0  0  0  0  0
   -3.8860    0.2135   -1.2004 O   0  0  0  0  0  0  0  0  0  0  0  0
   -1.6658   -0.3713   -1.2928 N   0  0  0  0  0  0  0  0  0  0  0  0
   -1.1505    0.9187   -0.8682 C   0  0  0  0  0  0  0  0  0  0  0  0
    0.3684    0.9323   -0.8035 C   0  0  0  0  0  0  0  0  0  0  0  0
   -3.0055   -0.6045   -1.4179 C   0  0  0  0  0  0  0  0  0  0  0  0
    1.9023   -0.0535   -1.1028 H   0  0  0  0  0  0  0  0  0  0  0  0
   -0.9933   -1.1063   -1.4865 H   0  0  0  0  0  0  0  0  0  0  0  0
   -1.5540    1.1371    0.1247 H   0  0  0  0  0  0  0  0  0  0  0  0
   -1.4854    1.6737   -1.5857 H   0  0  0  0  0  0  0  0  0  0  0  0
   -3.2182   -1.6361   -1.7441 H   0  0  0  0  0  0  0  0  0  0  0  0
  1  6  1  0  0  0  0
  1  8  1  0  0  0  0
  2  6  2  0  0  0  0
  3  7  2  0  0  0  0
  4  5  1  0  0  0  0
  4  7  1  0  0  0  0
  4  9  1  0  0  0  0
  5  6  1  0  0  0  0
  5 10  1  0  0  0  0
  5 11  1  0  0  0  0
  7 12  1  0  0  0  0
M  END
>  <Mol_ID>
5458

>  <Formula>
C3H5NO3

>  <MolWeight>
103.0767

>  <Cat>
S3125

>  <Name>
N-Formylglycine

>  <Synonyms>
2-formamidoacetic acid, For-Gly-OH, FGly

>  <Target>
Others

>  <Form>
Free Base

>  <CAS>
2491-15-8

>  <URL>
https://www.selleckchem.com/products/n-formylglycine.html

$$$$
