N-hydroxymethyl succinimide
 OpenBabel08302521373D

 16 16  0  0  0  0  0  0  0  0999 V2000
    1.0383    0.1078   -0.0396 C   0  0  0  0  0  0  0  0  0  0  0  0
   -0.0948    0.4110    0.7565 O   0  0  0  0  0  0  0  0  0  0  0  0
    0.4893    2.0305   -2.1316 O   0  0  0  0  0  0  0  0  0  0  0  0
    0.7630   -2.4625   -1.3553 O   0  0  0  0  0  0  0  0  0  0  0  0
    0.5908   -0.1550   -1.3741 N   0  0  0  0  0  0  0  0  0  0  0  0
    0.3390    0.8274   -2.2837 C   0  0  0  0  0  0  0  0  0  0  0  0
    0.4930   -1.4042   -1.9054 C   0  0  0  0  0  0  0  0  0  0  0  0
   -0.1390    0.1967   -3.5569 C   0  0  0  0  0  0  0  0  0  0  0  0
    0.0645   -1.2907   -3.3388 C   0  0  0  0  0  0  0  0  0  0  0  0
    1.5428   -0.7657    0.3825 H   0  0  0  0  0  0  0  0  0  0  0  0
    1.7144    0.9683   -0.0393 H   0  0  0  0  0  0  0  0  0  0  0  0
    0.2475    0.7358    1.6062 H   0  0  0  0  0  0  0  0  0  0  0  0
   -1.1944    0.4386   -3.7153 H   0  0  0  0  0  0  0  0  0  0  0  0
    0.4517    0.5595   -4.4034 H   0  0  0  0  0  0  0  0  0  0  0  0
   -0.8561   -1.8553   -3.5101 H   0  0  0  0  0  0  0  0  0  0  0  0
    0.8589   -1.6779   -3.9845 H   0  0  0  0  0  0  0  0  0  0  0  0
  1  2  1  0  0  0  0
  1  5  1  0  0  0  0
  1 10  1  0  0  0  0
  1 11  1  0  0  0  0
  2 12  1  0  0  0  0
  3  6  2  0  0  0  0
  4  7  2  0  0  0  0
  5  6  1  0  0  0  0
  5  7  1  0  0  0  0
  6  8  1  0  0  0  0
  7  9  1  0  0  0  0
  8  9  1  0  0  0  0
  8 13  1  0  0  0  0
  8 14  1  0  0  0  0
  9 15  1  0  0  0  0
  9 16  1  0  0  0  0
M  END
>  <Mol_ID>
7475

>  <Formula>
C5H7NO3

>  <MolWeight>
129.11398

>  <Cat>
E0187

>  <Name>
N-hydroxymethyl succinimide

>  <Target>
Others

>  <Form>
free base

>  <CAS>
5146-68-9

>  <URL>
https://www.selleckchem.com/products/n-hydroxymethyl-succinimide.html

$$$$
