N-Isovaleroylglycine
 OpenBabel08302520383D

 24 23  0  0  0  0  0  0  0  0999 V2000
    0.9144   -0.0746   -0.0523 C   0  0  0  0  0  0  0  0  0  0  0  0
    1.7062    0.4639   -1.0351 N   0  0  0  0  0  0  0  0  0  0  0  0
    0.2984    0.9426    0.9010 C   0  0  0  0  0  0  0  0  0  0  0  0
    0.7721   -1.2881    0.0572 O   0  0  0  0  0  0  0  0  0  0  0  0
    2.3842   -0.3449   -2.0453 C   0  0  0  0  0  0  0  0  0  0  0  0
    0.6250    0.6460    2.3750 C   0  0  0  0  0  0  0  0  0  0  0  0
    3.7440   -0.8814   -1.5896 C   0  0  0  0  0  0  0  0  0  0  0  0
    2.1307    0.6949    2.6454 C   0  0  0  0  0  0  0  0  0  0  0  0
   -0.0865    1.6483    3.2897 C   0  0  0  0  0  0  0  0  0  0  0  0
    3.6649   -1.6816   -0.5058 O   0  0  0  0  0  0  0  0  0  0  0  0
    4.7994   -0.6610   -2.1765 O   0  0  0  0  0  0  0  0  0  0  0  0
    1.7549    1.4705   -1.1371 H   0  0  0  0  0  0  0  0  0  0  0  0
    0.6327    1.9545    0.6420 H   0  0  0  0  0  0  0  0  0  0  0  0
   -0.7878    0.9210    0.7469 H   0  0  0  0  0  0  0  0  0  0  0  0
    1.7529   -1.1956   -2.3283 H   0  0  0  0  0  0  0  0  0  0  0  0
    2.5287    0.2897   -2.9236 H   0  0  0  0  0  0  0  0  0  0  0  0
    0.2664   -0.3595    2.6287 H   0  0  0  0  0  0  0  0  0  0  0  0
    2.5565    1.6591    2.3478 H   0  0  0  0  0  0  0  0  0  0  0  0
    2.3389    0.5493    3.7111 H   0  0  0  0  0  0  0  0  0  0  0  0
    2.6563   -0.0945    2.0992 H   0  0  0  0  0  0  0  0  0  0  0  0
   -1.1727    1.5891    3.1679 H   0  0  0  0  0  0  0  0  0  0  0  0
    0.1410    1.4469    4.3429 H   0  0  0  0  0  0  0  0  0  0  0  0
    0.2245    2.6761    3.0720 H   0  0  0  0  0  0  0  0  0  0  0  0
    2.7349   -1.8071   -0.1973 H   0  0  0  0  0  0  0  0  0  0  0  0
  1  2  1  0  0  0  0
  1  3  1  0  0  0  0
  1  4  2  0  0  0  0
  2  5  1  0  0  0  0
  2 12  1  0  0  0  0
  3  6  1  0  0  0  0
  3 13  1  0  0  0  0
  3 14  1  0  0  0  0
  5  7  1  0  0  0  0
  5 15  1  0  0  0  0
  5 16  1  0  0  0  0
  6  8  1  0  0  0  0
  6  9  1  0  0  0  0
  6 17  1  0  0  0  0
  7 10  1  0  0  0  0
  7 11  2  0  0  0  0
  8 18  1  0  0  0  0
  8 19  1  0  0  0  0
  8 20  1  0  0  0  0
  9 21  1  0  0  0  0
  9 22  1  0  0  0  0
  9 23  1  0  0  0  0
 10 24  1  0  0  0  0
M  END
>  <Mol_ID>
3474

>  <Formula>
C7H13NO3

>  <MolWeight>
159.18302

>  <Cat>
S6181

>  <Name>
N-Isovaleroylglycine

>  <Synonyms>
N/A

>  <Target>
Others

>  <Form>
free base

>  <CAS>
16284-60-9

>  <URL>
http://www.selleck.cn/products/n-Isovaleroylglycine.html

$$$$
