N-Methylhydantoin
 OpenBabel08302520383D

 14 14  0  0  0  0  0  0  0  0999 V2000
   -0.7362   -0.9733    0.0626 C   0  0  0  0  0  0  0  0  0  0  0  0
    0.6447   -1.0018    0.0815 N   0  0  0  0  0  0  0  0  0  0  0  0
   -1.1275    0.3256    0.0175 N   0  0  0  0  0  0  0  0  0  0  0  0
   -1.4887   -1.9316    0.0887 O   0  0  0  0  0  0  0  0  0  0  0  0
    1.2141    0.3269    0.0783 C   0  0  0  0  0  0  0  0  0  0  0  0
    1.4505   -2.1887    0.2246 C   0  0  0  0  0  0  0  0  0  0  0  0
   -0.0545    1.1611    0.0100 C   0  0  0  0  0  0  0  0  0  0  0  0
   -0.1071    2.3799   -0.0346 O   0  0  0  0  0  0  0  0  0  0  0  0
   -2.0878    0.6206   -0.0005 H   0  0  0  0  0  0  0  0  0  0  0  0
    1.7502    0.5082    1.0119 H   0  0  0  0  0  0  0  0  0  0  0  0
    1.8340    0.4683   -0.8089 H   0  0  0  0  0  0  0  0  0  0  0  0
    2.2110   -2.2009   -0.5605 H   0  0  0  0  0  0  0  0  0  0  0  0
    1.9335   -2.1649    1.2052 H   0  0  0  0  0  0  0  0  0  0  0  0
    0.8309   -3.0861    0.1503 H   0  0  0  0  0  0  0  0  0  0  0  0
  1  2  1  0  0  0  0
  1  3  1  0  0  0  0
  1  4  2  0  0  0  0
  2  5  1  0  0  0  0
  2  6  1  0  0  0  0
  3  7  1  0  0  0  0
  3  9  1  0  0  0  0
  5  7  1  0  0  0  0
  5 10  1  0  0  0  0
  5 11  1  0  0  0  0
  6 12  1  0  0  0  0
  6 13  1  0  0  0  0
  6 14  1  0  0  0  0
  7  8  2  0  0  0  0
M  END
>  <Mol_ID>
3477

>  <Formula>
C4H6N2O2

>  <MolWeight>
114.10264

>  <Cat>
S6184

>  <Name>
N-Methylhydantoin

>  <Synonyms>
1-Methylhydantoin, Dioxy-creatinine

>  <Target>
Others

>  <Form>
free base

>  <CAS>
616-04-6

>  <URL>
http://www.selleck.cn/products/n-methylhydantoin.html

$$$$
