N-Methylnicotinamide
 OpenBabel08302521293D

 18 18  0  0  0  0  0  0  0  0999 V2000
    0.6991    1.1855    0.0012 C   0  0  0  0  0  0  0  0  0  0  0  0
   -0.6832    1.1149    0.0062 C   0  0  0  0  0  0  0  0  0  0  0  0
   -1.3709   -0.0471    0.0100 N   0  0  0  0  0  0  0  0  0  0  0  0
   -0.6391   -1.1920    0.0062 C   0  0  0  0  0  0  0  0  0  0  0  0
    0.7487   -1.2355   -0.0021 C   0  0  0  0  0  0  0  0  0  0  0  0
    1.4209   -0.0071   -0.0034 C   0  0  0  0  0  0  0  0  0  0  0  0
    1.5468   -2.4938   -0.0126 C   0  0  0  0  0  0  0  0  0  0  0  0
    0.8718   -3.6985   -0.0182 N   0  0  0  0  0  0  0  0  0  0  0  0
    2.7727   -2.4235   -0.0176 O   0  0  0  0  0  0  0  0  0  0  0  0
    1.5676   -4.9648   -0.0335 C   0  0  0  0  0  0  0  0  0  0  0  0
    1.2055    2.1443   -0.0003 H   0  0  0  0  0  0  0  0  0  0  0  0
   -1.2913    2.0152    0.0074 H   0  0  0  0  0  0  0  0  0  0  0  0
   -1.2547   -2.0831    0.0106 H   0  0  0  0  0  0  0  0  0  0  0  0
    2.5087    0.0244   -0.0084 H   0  0  0  0  0  0  0  0  0  0  0  0
   -0.1345   -3.7429   -0.0131 H   0  0  0  0  0  0  0  0  0  0  0  0
    1.2737   -5.5237    0.8585 H   0  0  0  0  0  0  0  0  0  0  0  0
    1.2486   -5.5156   -0.9217 H   0  0  0  0  0  0  0  0  0  0  0  0
    2.6527   -4.8403   -0.0485 H   0  0  0  0  0  0  0  0  0  0  0  0
  1  2  2  0  0  0  0
  1 11  1  0  0  0  0
  2  3  1  0  0  0  0
  2 12  1  0  0  0  0
  3  4  2  0  0  0  0
  4  5  1  0  0  0  0
  4 13  1  0  0  0  0
  5  6  2  0  0  0  0
  5  7  1  0  0  0  0
  6  1  1  0  0  0  0
  6 14  1  0  0  0  0
  7  8  1  0  0  0  0
  7  9  2  0  0  0  0
  8 10  1  0  0  0  0
  8 15  1  0  0  0  0
 10 16  1  0  0  0  0
 10 17  1  0  0  0  0
 10 18  1  0  0  0  0
M  END
>  <Mol_ID>
5486

>  <Formula>
C7H8N2O

>  <MolWeight>
136.15122

>  <Cat>
S3321

>  <Name>
N-Methylnicotinamide

>  <Synonyms>
MNA, Nicotinyl Methylamide, N-Methyl-3-pyridinecarboxamide

>  <Target>
Others

>  <Form>
Free Base

>  <CAS>
114-33-0

>  <URL>
https://www.selleckchem.com/products/n-methylnicotinamide.html

$$$$
