N-Methyl-D-aspartic acid£¨NMDA£©.cdx
 OpenBabel08302519553D

 19 18  0  0  0  0  0  0  0  0999 V2000
    0.7872   -0.0876    0.0587 C   0  0  2  0  0  0  0  0  0  0  0  0
    0.3921   -0.0946   -1.4221 C   0  0  0  0  0  0  0  0  0  0  0  0
    0.3897   -1.4046    0.7431 C   0  0  0  0  0  0  0  0  0  0  0  0
    0.2666    1.1066    0.7970 N   0  0  0  0  0  0  0  0  0  0  0  0
    0.9308    1.0812   -2.1994 C   0  0  0  0  0  0  0  0  0  0  0  0
    0.8754   -1.5133    2.0046 O   0  0  0  0  0  0  0  0  0  0  0  0
   -0.3077   -2.2709    0.2411 O   0  0  0  0  0  0  0  0  0  0  0  0
    0.9590    2.2490   -1.5212 O   0  0  0  0  0  0  0  0  0  0  0  0
    1.2605    1.0083   -3.3752 O   0  0  0  0  0  0  0  0  0  0  0  0
   -1.1978    1.1202    0.9179 C   0  0  0  0  0  0  0  0  0  0  0  0
    1.8838   -0.0375    0.1013 H   0  0  0  0  0  0  0  0  0  0  0  0
    0.8080   -0.9974   -1.8889 H   0  0  0  0  0  0  0  0  0  0  0  0
   -0.6920   -0.1378   -1.5646 H   0  0  0  0  0  0  0  0  0  0  0  0
    0.6476    1.1293    1.7458 H   0  0  0  0  0  0  0  0  0  0  0  0
    1.4525   -0.7771    2.2771 H   0  0  0  0  0  0  0  0  0  0  0  0
    0.6391    2.1581   -0.5899 H   0  0  0  0  0  0  0  0  0  0  0  0
   -1.5690    0.2760    1.5064 H   0  0  0  0  0  0  0  0  0  0  0  0
   -1.4960    2.0397    1.4309 H   0  0  0  0  0  0  0  0  0  0  0  0
   -1.6890    1.1305   -0.0589 H   0  0  0  0  0  0  0  0  0  0  0  0
  1  2  1  0  0  0  0
  1  3  1  0  0  0  0
  1  4  1  0  0  0  0
  1 11  1  1  0  0  0
  2  5  1  0  0  0  0
  2 12  1  0  0  0  0
  2 13  1  0  0  0  0
  3  6  1  0  0  0  0
  3  7  2  0  0  0  0
  4 10  1  0  0  0  0
  4 14  1  0  0  0  0
  5  8  1  0  0  0  0
  5  9  2  0  0  0  0
  6 15  1  0  0  0  0
  8 16  1  0  0  0  0
 10 17  1  0  0  0  0
 10 18  1  0  0  0  0
 10 19  1  0  0  0  0
M  END
>  <Mol_ID>
2136

>  <Formula>
C5H9NO4

>  <MolWeight>
147.12926

>  <Cat>
S7072

>  <Name>
NMDA (N-Methyl-D-aspartic acid)

>  <Synonyms>
N/A

>  <Target>
NMDAR

>  <Form>
free base

>  <CAS>
6384-92-5

>  <URL>
http://selleckchem.com/products/nmda-n-methyl-d-aspartic-acid.html

$$$$
