N-Methylsarcosine
 OpenBabel08302521383D

 16 15  0  0  0  0  0  0  0  0999 V2000
   -0.4693   -1.9012   -0.1985 C   0  0  0  0  0  0  0  0  0  0  0  0
    0.3198   -1.1713    0.8868 C   0  0  0  0  0  0  0  0  0  0  0  0
   -1.6491   -1.2912   -0.4688 O   0  0  0  0  0  0  0  0  0  0  0  0
   -0.0699   -2.8877   -0.7992 O   0  0  0  0  0  0  0  0  0  0  0  0
   -0.6002   -0.4268    1.7987 N   0  0  0  0  0  0  0  0  0  0  0  0
   -1.3432   -1.3672    2.6593 C   0  0  0  0  0  0  0  0  0  0  0  0
    0.2109    0.4470    2.6623 C   0  0  0  0  0  0  0  0  0  0  0  0
    0.9392   -1.8876    1.4357 H   0  0  0  0  0  0  0  0  0  0  0  0
    0.9675   -0.4623    0.3565 H   0  0  0  0  0  0  0  0  0  0  0  0
   -1.7423   -0.5508    0.1770 H   0  0  0  0  0  0  0  0  0  0  0  0
   -0.6763   -2.0154    3.2388 H   0  0  0  0  0  0  0  0  0  0  0  0
   -1.9830   -0.8163    3.3583 H   0  0  0  0  0  0  0  0  0  0  0  0
   -2.0119   -2.0014    2.0682 H   0  0  0  0  0  0  0  0  0  0  0  0
    0.9464   -0.1195    3.2468 H   0  0  0  0  0  0  0  0  0  0  0  0
    0.7462    1.1915    2.0631 H   0  0  0  0  0  0  0  0  0  0  0  0
   -0.4268    1.0023    3.3592 H   0  0  0  0  0  0  0  0  0  0  0  0
  1  2  1  0  0  0  0
  1  3  1  0  0  0  0
  1  4  2  0  0  0  0
  2  5  1  0  0  0  0
  2  8  1  0  0  0  0
  2  9  1  0  0  0  0
  3 10  1  0  0  0  0
  5  6  1  0  0  0  0
  5  7  1  0  0  0  0
  6 11  1  0  0  0  0
  6 12  1  0  0  0  0
  6 13  1  0  0  0  0
  7 14  1  0  0  0  0
  7 15  1  0  0  0  0
  7 16  1  0  0  0  0
M  END
>  <Mol_ID>
7893

>  <Formula>
C4H9NO2

>  <MolWeight>
103.11976

>  <Cat>
S6056

>  <Name>
N-Methylsarcosine

>  <Synonyms>
N,N-Dimethylglycine, (Dimethylamino)acetic acid

>  <Target>
Others

>  <Form>
free base

>  <CAS>
1118-68-9

>  <URL>
http://www.selleck.cn/products/n-methylsarcosine.html

$$$$
