N-Methylnuciferine
 OpenBabel08302521592D

 47 50  0  0  1  0  0  0  0  0999 V2000
    4.8497    6.9155    0.0000 O   0  0  0  0  0  0  0  0  0  0  0  0
    6.0622    7.6155    0.0000 C   0  0  0  0  0  0  0  0  0  0  0  0
    1.0462    1.5586    0.0000 C   0  0  0  0  0  0  0  0  0  0  0  0
    1.9460    0.0000    0.0000 C   0  0  0  0  0  0  0  0  0  0  0  0
    7.2746    5.5155    0.0000 O   0  0  0  0  0  0  0  0  0  0  0  0
    8.4871    4.8155    0.0000 C   0  0  0  0  0  0  0  0  0  0  0  0
    3.6374    3.4155    0.0000 C   0  0  0  0  0  0  0  0  0  0  0  0
    3.6374    4.8155    0.0000 C   0  0  0  0  0  0  0  0  0  0  0  0
    2.4249    2.7155    0.0000 C   0  0  1  0  0  0  0  0  0  0  0  0
    4.8497    2.7155    0.0000 C   0  0  0  0  0  0  0  0  0  0  0  0
    2.4249    5.5155    0.0000 C   0  0  0  0  0  0  0  0  0  0  0  0
    4.8497    5.5155    0.0000 C   0  0  0  0  0  0  0  0  0  0  0  0
    1.2124    3.4155    0.0000 C   0  0  0  0  0  0  0  0  0  0  0  0
    2.4249    1.3155    0.0000 N   0  3  0  0  0  0  0  0  0  0  0  0
    6.0622    3.4155    0.0000 C   0  0  0  0  0  0  0  0  0  0  0  0
    4.8497    1.3155    0.0000 C   0  0  0  0  0  0  0  0  0  0  0  0
    1.2124    4.8155    0.0000 C   0  0  0  0  0  0  0  0  0  0  0  0
    2.4249    6.9155    0.0000 C   0  0  0  0  0  0  0  0  0  0  0  0
    6.0622    4.8155    0.0000 C   0  0  0  0  0  0  0  0  0  0  0  0
    3.6374    0.6155    0.0000 C   0  0  0  0  0  0  0  0  0  0  0  0
    0.0000    5.5155    0.0000 C   0  0  0  0  0  0  0  0  0  0  0  0
    1.2124    7.6155    0.0000 C   0  0  0  0  0  0  0  0  0  0  0  0
    0.0000    6.9155    0.0000 C   0  0  0  0  0  0  0  0  0  0  0  0
    6.9888    7.0805    0.0000 H   0  0  0  0  0  0  0  0  0  0  0  0
    6.0622    8.6855    0.0000 H   0  0  0  0  0  0  0  0  0  0  0  0
    6.9889    8.1505    0.0000 H   0  0  0  0  0  0  0  0  0  0  0  0
    0.6802    2.5641    0.0000 H   0  0  0  0  0  0  0  0  0  0  0  0
    0.3584    0.7389    0.0000 H   0  0  0  0  0  0  0  0  0  0  0  0
   -0.0075    1.7444    0.0000 H   0  0  0  0  0  0  0  0  0  0  0  0
    0.8922   -0.1857    0.0000 H   0  0  0  0  0  0  0  0  0  0  0  0
    2.6337   -0.8197    0.0000 H   0  0  0  0  0  0  0  0  0  0  0  0
    1.5800   -1.0054    0.0000 H   0  0  0  0  0  0  0  0  0  0  0  0
    8.4871    3.7455    0.0000 H   0  0  0  0  0  0  0  0  0  0  0  0
    9.4137    5.3505    0.0000 H   0  0  0  0  0  0  0  0  0  0  0  0
    9.4138    4.2805    0.0000 H   0  0  0  0  0  0  0  0  0  0  0  0
    2.4249    3.7855    0.0000 H   0  0  0  0  0  0  0  0  0  0  0  0
    0.2858    2.8805    0.0000 H   0  0  0  0  0  0  0  0  0  0  0  0
    0.2857    3.9505    0.0000 H   0  0  0  0  0  0  0  0  0  0  0  0
    6.9559    2.8995    0.0000 H   0  0  0  0  0  0  0  0  0  0  0  0
    5.7764    0.7805    0.0000 H   0  0  0  0  0  0  0  0  0  0  0  0
    4.8497    0.2455    0.0000 H   0  0  0  0  0  0  0  0  0  0  0  0
    3.3186    7.4315    0.0000 H   0  0  0  0  0  0  0  0  0  0  0  0
    3.6374   -0.4545    0.0000 H   0  0  0  0  0  0  0  0  0  0  0  0
    4.5641    0.0805    0.0000 H   0  0  0  0  0  0  0  0  0  0  0  0
   -0.8937    4.9995    0.0000 H   0  0  0  0  0  0  0  0  0  0  0  0
    1.2124    8.6475    0.0000 H   0  0  0  0  0  0  0  0  0  0  0  0
   -0.8937    7.4315    0.0000 H   0  0  0  0  0  0  0  0  0  0  0  0
  1  2  1  0  0  0  0
  1 12  1  0  0  0  0
  2 24  1  0  0  0  0
  2 25  1  0  0  0  0
  2 26  1  0  0  0  0
  3 14  1  0  0  0  0
  3 27  1  0  0  0  0
  3 28  1  0  0  0  0
  3 29  1  0  0  0  0
  4 14  1  0  0  0  0
  4 30  1  0  0  0  0
  4 31  1  0  0  0  0
  4 32  1  0  0  0  0
  5  6  1  0  0  0  0
  5 19  1  0  0  0  0
  6 33  1  0  0  0  0
  6 34  1  0  0  0  0
  6 35  1  0  0  0  0
  7  8  1  0  0  0  0
  7  9  1  0  0  0  0
  7 10  2  0  0  0  0
  8 11  1  0  0  0  0
  8 12  2  0  0  0  0
  9 13  1  0  0  0  0
  9 14  1  0  0  0  0
  9 36  1  1  0  0  0
 10 15  1  0  0  0  0
 10 16  1  0  0  0  0
 11 17  2  0  0  0  0
 11 18  1  0  0  0  0
 12 19  1  0  0  0  0
 13 17  1  0  0  0  0
 13 37  1  0  0  0  0
 13 38  1  0  0  0  0
 14 20  1  0  0  0  0
 15 19  2  0  0  0  0
 15 39  1  0  0  0  0
 16 20  1  0  0  0  0
 16 40  1  0  0  0  0
 16 41  1  0  0  0  0
 17 21  1  0  0  0  0
 18 22  2  0  0  0  0
 18 42  1  0  0  0  0
 20 43  1  0  0  0  0
 20 44  1  0  0  0  0
 21 23  2  0  0  0  0
 21 45  1  0  0  0  0
 22 23  1  0  0  0  0
 22 46  1  0  0  0  0
 23 47  1  0  0  0  0
M  CHG  1  14   1
M  END
>  <Mol_ID>
10131

>  <Formula>
C20H24NO2+

>  <MolWeight>
310.41006

>  <Cat>
S5889

>  <Name>
N-Methylnuciferine

>  <Synonyms>
NA

>  <Target>
anti-inflammation

>  <Form>
Free Base

>  <CAS>
754919-24-9

>  <URL>
https://www.selleckchem.com/products/n-methylnuciferine.html

$$$$
