N-Nitroso-N-methylurea
 OpenBabel08302521313D

 12 11  0  0  0  0  0  0  0  0999 V2000
    1.0614   -0.0437   -0.0874 O   0  0  0  0  0  0  0  0  0  0  0  0
    5.0648   -0.2978   -0.1488 O   0  0  0  0  0  0  0  0  0  0  0  0
    3.0324   -1.2066   -0.3683 N   0  0  0  0  0  0  0  0  0  0  0  0
    2.9552    1.0849    0.1851 N   0  0  0  0  0  0  0  0  0  0  0  0
    4.4291   -1.3256   -0.3970 N   0  0  0  0  0  0  0  0  0  0  0  0
    2.3021   -2.4247   -0.6625 C   0  0  0  0  0  0  0  0  0  0  0  0
    2.2936   -0.0645   -0.0925 C   0  0  0  0  0  0  0  0  0  0  0  0
    2.4214    1.9178    0.3863 H   0  0  0  0  0  0  0  0  0  0  0  0
    3.9652    1.1209    0.1938 H   0  0  0  0  0  0  0  0  0  0  0  0
    1.6649   -2.6754    0.1916 H   0  0  0  0  0  0  0  0  0  0  0  0
    1.6649   -2.2580   -1.5368 H   0  0  0  0  0  0  0  0  0  0  0  0
    2.9791   -3.2612   -0.8645 H   0  0  0  0  0  0  0  0  0  0  0  0
  1  7  2  0  0  0  0
  2  5  2  0  0  0  0
  3  5  1  0  0  0  0
  3  6  1  0  0  0  0
  3  7  1  0  0  0  0
  4  7  1  0  0  0  0
  4  8  1  0  0  0  0
  4  9  1  0  0  0  0
  6 10  1  0  0  0  0
  6 11  1  0  0  0  0
  6 12  1  0  0  0  0
M  END
>  <Mol_ID>
5954

>  <Formula>
C2H5N3O2

>  <MolWeight>
103.08

>  <Cat>
E0158

>  <Name>
N-Nitroso-N-methylurea

>  <Synonyms>
NMU, MNU, NMH, 1-Methyl-1-nitrosourea, N-Methyl-Nnitrosourea, Methylnitrosourea

>  <Target>
Others

>  <Form>
Free Base

>  <CAS>
684-93-5

>  <URL>
http://www.selleckchem.com/products/n-nitroso-n-methylurea.html

$$$$
