N-Nornuciferine
 OpenBabel08302521462D

 40 43  0  0  1  0  0  0  0  0999 V2000
    4.8497    6.3000    0.0000 O   0  0  0  0  0  0  0  0  0  0  0  0
    6.0622    7.0000    0.0000 C   0  0  0  0  0  0  0  0  0  0  0  0
    7.2746    4.9000    0.0000 O   0  0  0  0  0  0  0  0  0  0  0  0
    8.4871    4.2000    0.0000 C   0  0  0  0  0  0  0  0  0  0  0  0
    3.6374    2.8000    0.0000 C   0  0  0  0  0  0  0  0  0  0  0  0
    3.6374    4.2000    0.0000 C   0  0  0  0  0  0  0  0  0  0  0  0
    2.4249    2.1000    0.0000 C   0  0  1  0  0  0  0  0  0  0  0  0
    4.8497    2.1000    0.0000 C   0  0  0  0  0  0  0  0  0  0  0  0
    2.4249    4.9000    0.0000 C   0  0  0  0  0  0  0  0  0  0  0  0
    4.8497    4.9000    0.0000 C   0  0  0  0  0  0  0  0  0  0  0  0
    1.2124    2.8000    0.0000 C   0  0  0  0  0  0  0  0  0  0  0  0
    2.4249    0.7000    0.0000 N   0  0  0  0  0  0  0  0  0  0  0  0
    6.0622    2.8000    0.0000 C   0  0  0  0  0  0  0  0  0  0  0  0
    4.8497    0.7000    0.0000 C   0  0  0  0  0  0  0  0  0  0  0  0
    1.2124    4.2000    0.0000 C   0  0  0  0  0  0  0  0  0  0  0  0
    2.4249    6.3000    0.0000 C   0  0  0  0  0  0  0  0  0  0  0  0
    6.0622    4.2000    0.0000 C   0  0  0  0  0  0  0  0  0  0  0  0
    3.6374    0.0000    0.0000 C   0  0  0  0  0  0  0  0  0  0  0  0
    0.0000    4.9000    0.0000 C   0  0  0  0  0  0  0  0  0  0  0  0
    1.2124    7.0000    0.0000 C   0  0  0  0  0  0  0  0  0  0  0  0
    0.0000    6.3000    0.0000 C   0  0  0  0  0  0  0  0  0  0  0  0
    6.9888    6.4650    0.0000 H   0  0  0  0  0  0  0  0  0  0  0  0
    6.0622    8.0700    0.0000 H   0  0  0  0  0  0  0  0  0  0  0  0
    6.9889    7.5350    0.0000 H   0  0  0  0  0  0  0  0  0  0  0  0
    8.4871    3.1300    0.0000 H   0  0  0  0  0  0  0  0  0  0  0  0
    9.4137    4.7350    0.0000 H   0  0  0  0  0  0  0  0  0  0  0  0
    9.4138    3.6650    0.0000 H   0  0  0  0  0  0  0  0  0  0  0  0
    2.4249    3.1700    0.0000 H   0  0  0  0  0  0  0  0  0  0  0  0
    0.2858    2.2650    0.0000 H   0  0  0  0  0  0  0  0  0  0  0  0
    0.2857    3.3350    0.0000 H   0  0  0  0  0  0  0  0  0  0  0  0
    1.5416    0.1900    0.0000 H   0  0  0  0  0  0  0  0  0  0  0  0
    6.9559    2.2840    0.0000 H   0  0  0  0  0  0  0  0  0  0  0  0
    5.7764    0.1650    0.0000 H   0  0  0  0  0  0  0  0  0  0  0  0
    4.8497   -0.3700    0.0000 H   0  0  0  0  0  0  0  0  0  0  0  0
    3.3186    6.8160    0.0000 H   0  0  0  0  0  0  0  0  0  0  0  0
    3.6374   -1.0700    0.0000 H   0  0  0  0  0  0  0  0  0  0  0  0
    4.5641   -0.5350    0.0000 H   0  0  0  0  0  0  0  0  0  0  0  0
   -0.8937    4.3840    0.0000 H   0  0  0  0  0  0  0  0  0  0  0  0
    1.2124    8.0320    0.0000 H   0  0  0  0  0  0  0  0  0  0  0  0
   -0.8937    6.8160    0.0000 H   0  0  0  0  0  0  0  0  0  0  0  0
  1  2  1  0  0  0  0
  1 10  1  0  0  0  0
  2 22  1  0  0  0  0
  2 23  1  0  0  0  0
  2 24  1  0  0  0  0
  3  4  1  0  0  0  0
  3 17  1  0  0  0  0
  4 25  1  0  0  0  0
  4 26  1  0  0  0  0
  4 27  1  0  0  0  0
  5  6  1  0  0  0  0
  5  7  1  0  0  0  0
  5  8  2  0  0  0  0
  6  9  1  0  0  0  0
  6 10  2  0  0  0  0
  7 11  1  0  0  0  0
  7 12  1  0  0  0  0
  7 28  1  1  0  0  0
  8 13  1  0  0  0  0
  8 14  1  0  0  0  0
  9 15  2  0  0  0  0
  9 16  1  0  0  0  0
 10 17  1  0  0  0  0
 11 15  1  0  0  0  0
 11 29  1  0  0  0  0
 11 30  1  0  0  0  0
 12 18  1  0  0  0  0
 12 31  1  0  0  0  0
 13 17  2  0  0  0  0
 13 32  1  0  0  0  0
 14 18  1  0  0  0  0
 14 33  1  0  0  0  0
 14 34  1  0  0  0  0
 15 19  1  0  0  0  0
 16 20  2  0  0  0  0
 16 35  1  0  0  0  0
 18 36  1  0  0  0  0
 18 37  1  0  0  0  0
 19 21  2  0  0  0  0
 19 38  1  0  0  0  0
 20 21  1  0  0  0  0
 20 39  1  0  0  0  0
 21 40  1  0  0  0  0
M  END
>  <Mol_ID>
9656

>  <Formula>
C18H19NO2

>  <MolWeight>
281.34896

>  <Cat>
E0573

>  <Name>
N-Nornuciferine

>  <Synonyms>
NA

>  <Target>
CYP2D6

>  <Form>
Free Base

>  <CAS>
4846-19-9

>  <URL>
https://www.selleckchem.com/products/n-nornuciferine.html

$$$$
