N-phenethylbenzamide
 OpenBabel08302521363D

 32 33  0  0  0  0  0  0  0  0999 V2000
    0.8124   -0.5637    1.3027 C   0  0  0  0  0  0  0  0  0  0  0  0
    0.2962   -1.2388    0.2132 N   0  0  0  0  0  0  0  0  0  0  0  0
    0.1031   -0.0342    2.1562 O   0  0  0  0  0  0  0  0  0  0  0  0
   -1.1341   -1.3051   -0.0304 C   0  0  0  0  0  0  0  0  0  0  0  0
   -1.4753   -2.0229   -1.3378 C   0  0  0  0  0  0  0  0  0  0  0  0
    2.2970   -0.4691    1.3842 C   0  0  0  0  0  0  0  0  0  0  0  0
    2.8582    0.6001    2.0949 C   0  0  0  0  0  0  0  0  0  0  0  0
    3.1438   -1.4215    0.7989 C   0  0  0  0  0  0  0  0  0  0  0  0
    4.2457    0.7304    2.2000 C   0  0  0  0  0  0  0  0  0  0  0  0
    4.5327   -1.2901    0.9100 C   0  0  0  0  0  0  0  0  0  0  0  0
    5.0813   -0.2131    1.6054 C   0  0  0  0  0  0  0  0  0  0  0  0
   -0.9699   -1.3377   -2.5893 C   0  0  0  0  0  0  0  0  0  0  0  0
   -0.1203   -2.0221   -3.4713 C   0  0  0  0  0  0  0  0  0  0  0  0
   -1.3844   -0.0408   -2.9251 C   0  0  0  0  0  0  0  0  0  0  0  0
    0.2693   -1.4405   -4.6794 C   0  0  0  0  0  0  0  0  0  0  0  0
   -0.9794    0.5461   -4.1264 C   0  0  0  0  0  0  0  0  0  0  0  0
   -0.1688   -0.1610   -5.0116 C   0  0  0  0  0  0  0  0  0  0  0  0
    0.9133   -1.4729   -0.5528 H   0  0  0  0  0  0  0  0  0  0  0  0
   -1.5789   -1.8504    0.8122 H   0  0  0  0  0  0  0  0  0  0  0  0
   -1.5435   -0.2881   -0.0075 H   0  0  0  0  0  0  0  0  0  0  0  0
   -1.0746   -3.0440   -1.2938 H   0  0  0  0  0  0  0  0  0  0  0  0
   -2.5638   -2.1264   -1.4264 H   0  0  0  0  0  0  0  0  0  0  0  0
    2.2131    1.3391    2.5682 H   0  0  0  0  0  0  0  0  0  0  0  0
    2.7449   -2.2858    0.2786 H   0  0  0  0  0  0  0  0  0  0  0  0
    4.6723    1.5662    2.7495 H   0  0  0  0  0  0  0  0  0  0  0  0
    5.1866   -2.0346    0.4613 H   0  0  0  0  0  0  0  0  0  0  0  0
    6.1606   -0.1122    1.6941 H   0  0  0  0  0  0  0  0  0  0  0  0
    0.2328   -3.0225   -3.2325 H   0  0  0  0  0  0  0  0  0  0  0  0
   -2.0359    0.5228   -2.2602 H   0  0  0  0  0  0  0  0  0  0  0  0
    0.9057   -1.9914   -5.3671 H   0  0  0  0  0  0  0  0  0  0  0  0
   -1.3077    1.5516   -4.3776 H   0  0  0  0  0  0  0  0  0  0  0  0
    0.1197    0.2844   -5.9604 H   0  0  0  0  0  0  0  0  0  0  0  0
  1  2  1  0  0  0  0
  1  3  2  0  0  0  0
  1  6  1  0  0  0  0
  2  4  1  0  0  0  0
  2 18  1  0  0  0  0
  4  5  1  0  0  0  0
  4 19  1  0  0  0  0
  4 20  1  0  0  0  0
  5 12  1  0  0  0  0
  5 21  1  0  0  0  0
  5 22  1  0  0  0  0
  6  7  2  0  0  0  0
  6  8  1  0  0  0  0
  7  9  1  0  0  0  0
  7 23  1  0  0  0  0
  8 10  2  0  0  0  0
  8 24  1  0  0  0  0
  9 11  2  0  0  0  0
  9 25  1  0  0  0  0
 10 11  1  0  0  0  0
 10 26  1  0  0  0  0
 11 27  1  0  0  0  0
 12 13  2  0  0  0  0
 12 14  1  0  0  0  0
 13 15  1  0  0  0  0
 13 28  1  0  0  0  0
 14 16  2  0  0  0  0
 14 29  1  0  0  0  0
 15 17  2  0  0  0  0
 15 30  1  0  0  0  0
 16 17  1  0  0  0  0
 16 31  1  0  0  0  0
 17 32  1  0  0  0  0
M  END
>  <Mol_ID>
7282

>  <Formula>
C15H15NO

>  <MolWeight>
225.2857

>  <Cat>
E4308

>  <Name>
N-phenethylbenzamide

>  <Synonyms>
N-phenethylbenzamide

>  <Target>
Others

>  <Form>
free base

>  <CAS>
3278-14-6

>  <URL>
https://www.selleckchem.com/products/n-phenethylbenzamide.html

$$$$
