N-Succinimidyl-S-acetylthioacetate (SATA)
 OpenBabel08302521323D

 24 24  0  0  0  0  0  0  0  0999 V2000
    1.1891    3.1506    2.0054 C   0  0  0  0  0  0  0  0  0  0  0  0
    0.9722    2.5446    0.8123 N   0  0  0  0  0  0  0  0  0  0  0  0
    2.0840    2.0864    0.1933 C   0  0  0  0  0  0  0  0  0  0  0  0
    3.2634    2.6973    0.9016 C   0  0  0  0  0  0  0  0  0  0  0  0
    2.6729    3.3017    2.1703 C   0  0  0  0  0  0  0  0  0  0  0  0
    0.3605    3.4592    2.8493 O   0  0  0  0  0  0  0  0  0  0  0  0
    2.1629    1.2995   -0.7370 O   0  0  0  0  0  0  0  0  0  0  0  0
   -0.2940    2.0473    0.5108 O   0  0  0  0  0  0  0  0  0  0  0  0
   -1.1136    2.9964   -0.0277 C   0  0  0  0  0  0  0  0  0  0  0  0
   -2.5601    2.5532   -0.1173 C   0  0  0  0  0  0  0  0  0  0  0  0
   -2.8686    0.7948    0.2399 S   0  0  0  0  0  0  0  0  0  0  0  0
   -1.9353    0.0856   -1.0732 C   0  0  0  0  0  0  0  0  0  0  0  0
   -0.7437    4.1273   -0.3341 O   0  0  0  0  0  0  0  0  0  0  0  0
   -1.7427    0.6922   -2.1173 O   0  0  0  0  0  0  0  0  0  0  0  0
   -1.4008   -1.2861   -0.7811 C   0  0  0  0  0  0  0  0  0  0  0  0
    3.7246    3.4611    0.2684 H   0  0  0  0  0  0  0  0  0  0  0  0
    4.0013    1.9247    1.1416 H   0  0  0  0  0  0  0  0  0  0  0  0
    2.9474    4.3524    2.2903 H   0  0  0  0  0  0  0  0  0  0  0  0
    2.9854    2.7342    3.0526 H   0  0  0  0  0  0  0  0  0  0  0  0
   -3.1208    3.1302    0.6252 H   0  0  0  0  0  0  0  0  0  0  0  0
   -2.9443    2.7948   -1.1122 H   0  0  0  0  0  0  0  0  0  0  0  0
   -0.7432   -1.2538    0.0927 H   0  0  0  0  0  0  0  0  0  0  0  0
   -2.2232   -1.9853   -0.6079 H   0  0  0  0  0  0  0  0  0  0  0  0
   -0.8179   -1.6387   -1.6369 H   0  0  0  0  0  0  0  0  0  0  0  0
  1  2  1  0  0  0  0
  1  6  2  0  0  0  0
  2  3  1  0  0  0  0
  2  8  1  0  0  0  0
  3  4  1  0  0  0  0
  3  7  2  0  0  0  0
  4  5  1  0  0  0  0
  4 16  1  0  0  0  0
  4 17  1  0  0  0  0
  5  1  1  0  0  0  0
  5 18  1  0  0  0  0
  5 19  1  0  0  0  0
  8  9  1  0  0  0  0
  9 10  1  0  0  0  0
  9 13  2  0  0  0  0
 10 11  1  0  0  0  0
 10 20  1  0  0  0  0
 10 21  1  0  0  0  0
 11 12  1  0  0  0  0
 12 14  2  0  0  0  0
 12 15  1  0  0  0  0
 15 22  1  0  0  0  0
 15 23  1  0  0  0  0
 15 24  1  0  0  0  0
M  END
>  <Mol_ID>
6141

>  <Formula>
C8H9NO5S

>  <MolWeight>
231.22576

>  <Cat>
S0057

>  <Name>
N-Succinimidyl-S-acetylthioacetate (SATA)

>  <Synonyms>
N/A

>  <Target>
Others

>  <Form>
free base

>  <CAS>
76931-93-6

>  <URL>
http://www.selleckchem.com/products/n-succinimidyl-s-acetylthioacetate-sata.html

$$$$
