N-trans-p-coumaroyloctopamine
 OpenBabel08302521553D

 39 40  0  0  0  0  0  0  0  0999 V2000
    1.7557   -1.1721    0.1336 C   0  0  3  0  0  0  0  0  0  0  0  0
    0.5651   -1.0606    1.1090 C   0  0  0  0  0  0  0  0  0  0  0  0
    2.6260   -2.2211    0.5839 O   0  0  0  0  0  0  0  0  0  0  0  0
    0.9707   -0.7920    2.4795 N   0  0  0  0  0  0  0  0  0  0  0  0
    0.0328   -0.6320    3.4667 C   0  0  0  0  0  0  0  0  0  0  0  0
    0.6090   -0.3258    4.7954 C   0  0  0  0  0  0  0  0  0  0  0  0
   -1.1751   -0.7336    3.2732 O   0  0  0  0  0  0  0  0  0  0  0  0
   -0.2015   -0.1552    5.8548 C   0  0  0  0  0  0  0  0  0  0  0  0
    4.5933    3.7063   -0.6033 O   0  0  0  0  0  0  0  0  0  0  0  0
    1.5195    1.0521   11.0794 O   0  0  0  0  0  0  0  0  0  0  0  0
    2.5286    0.1269   -0.0335 C   0  0  0  0  0  0  0  0  0  0  0  0
    3.8910    0.2225    0.2993 C   0  0  0  0  0  0  0  0  0  0  0  0
    1.8937    1.2672   -0.5569 C   0  0  0  0  0  0  0  0  0  0  0  0
    4.5980    1.4148    0.1177 C   0  0  0  0  0  0  0  0  0  0  0  0
    2.5976    2.4621   -0.7323 C   0  0  0  0  0  0  0  0  0  0  0  0
    3.9435    2.5255   -0.3995 C   0  0  0  0  0  0  0  0  0  0  0  0
    0.2707    0.1764    7.2067 C   0  0  0  0  0  0  0  0  0  0  0  0
    1.4310    0.9365    7.4188 C   0  0  0  0  0  0  0  0  0  0  0  0
   -0.4749   -0.2350    8.3199 C   0  0  0  0  0  0  0  0  0  0  0  0
    1.8662    1.2366    8.7119 C   0  0  0  0  0  0  0  0  0  0  0  0
   -0.0415    0.0636    9.6152 C   0  0  0  0  0  0  0  0  0  0  0  0
    1.1277    0.7902    9.8004 C   0  0  0  0  0  0  0  0  0  0  0  0
    1.3870   -1.4721   -0.8555 H   0  0  0  0  0  0  0  0  0  0  0  0
   -0.1442   -0.2875    0.7921 H   0  0  0  0  0  0  0  0  0  0  0  0
    0.0221   -2.0130    1.1355 H   0  0  0  0  0  0  0  0  0  0  0  0
    2.0652   -2.9817    0.8142 H   0  0  0  0  0  0  0  0  0  0  0  0
    1.9603   -0.8010    2.6945 H   0  0  0  0  0  0  0  0  0  0  0  0
    1.6850   -0.2333    4.8722 H   0  0  0  0  0  0  0  0  0  0  0  0
   -1.2779   -0.2741    5.7403 H   0  0  0  0  0  0  0  0  0  0  0  0
    5.5272    3.5914   -0.3635 H   0  0  0  0  0  0  0  0  0  0  0  0
    2.3324    1.5828   11.0528 H   0  0  0  0  0  0  0  0  0  0  0  0
    4.4189   -0.6423    0.6969 H   0  0  0  0  0  0  0  0  0  0  0  0
    0.8434    1.2415   -0.8393 H   0  0  0  0  0  0  0  0  0  0  0  0
    5.6504    1.4498    0.3801 H   0  0  0  0  0  0  0  0  0  0  0  0
    2.0976    3.3394   -1.1334 H   0  0  0  0  0  0  0  0  0  0  0  0
    2.0080    1.3129    6.5783 H   0  0  0  0  0  0  0  0  0  0  0  0
   -1.3959   -0.8015    8.1938 H   0  0  0  0  0  0  0  0  0  0  0  0
    2.7749    1.8150    8.8416 H   0  0  0  0  0  0  0  0  0  0  0  0
   -0.6134   -0.2713   10.4759 H   0  0  0  0  0  0  0  0  0  0  0  0
  1  2  1  0  0  0  0
  1  3  1  0  0  0  0
  1 11  1  0  0  0  0
  1 23  1  0  0  0  0
  2  4  1  0  0  0  0
  2 24  1  0  0  0  0
  2 25  1  0  0  0  0
  3 26  1  0  0  0  0
  4  5  1  0  0  0  0
  4 27  1  0  0  0  0
  5  6  1  0  0  0  0
  5  7  2  0  0  0  0
  6  8  2  0  0  0  0
  6 28  1  0  0  0  0
  8 17  1  0  0  0  0
  8 29  1  0  0  0  0
  9 16  1  0  0  0  0
  9 30  1  0  0  0  0
 10 22  1  0  0  0  0
 10 31  1  0  0  0  0
 11 12  2  0  0  0  0
 11 13  1  0  0  0  0
 12 14  1  0  0  0  0
 12 32  1  0  0  0  0
 13 15  2  0  0  0  0
 13 33  1  0  0  0  0
 14 16  2  0  0  0  0
 14 34  1  0  0  0  0
 15 16  1  0  0  0  0
 15 35  1  0  0  0  0
 17 18  2  0  0  0  0
 17 19  1  0  0  0  0
 18 20  1  0  0  0  0
 18 36  1  0  0  0  0
 19 21  2  0  0  0  0
 19 37  1  0  0  0  0
 20 22  2  0  0  0  0
 20 38  1  0  0  0  0
 21 22  1  0  0  0  0
 21 39  1  0  0  0  0
M  END
>  <Mol_ID>
10023

>  <Formula>
C17H17NO4

>  <MolWeight>
299.32118

>  <Cat>
E5528

>  <Name>
N-trans-p-coumaroyloctopamine

>  <Synonyms>
NA

>  <Target>
SOD

>  <Form>
Free Base

>  <CAS>
66648-45-1

>  <URL>
https://www.selleckchem.com/products/n-trans-p-coumaroyloctopamine.html

$$$$
