N-trans-Feruloyltyramine
 OpenBabel08302521493D

 42 43  0  0  0  0  0  0  0  0999 V2000
    0.8849   -0.0209    0.1375 C   0  0  0  0  0  0  0  0  0  0  0  0
    0.3320    0.7305    1.1036 C   0  0  0  0  0  0  0  0  0  0  0  0
    1.1766    1.5062    2.0462 C   0  0  0  0  0  0  0  0  0  0  0  0
    0.4354    2.2335    2.9483 N   0  0  0  0  0  0  0  0  0  0  0  0
    2.3994    1.4949    2.0054 O   0  0  0  0  0  0  0  0  0  0  0  0
    1.0797    3.0688    3.9484 C   0  0  0  0  0  0  0  0  0  0  0  0
    0.0605    3.7950    4.8272 C   0  0  0  0  0  0  0  0  0  0  0  0
    0.1996   -3.9337   -2.8471 O   0  0  0  0  0  0  0  0  0  0  0  0
    1.4651   -4.4709   -2.4827 C   0  0  0  0  0  0  0  0  0  0  0  0
   -2.1807   -2.9734   -3.5480 O   0  0  0  0  0  0  0  0  0  0  0  0
    2.4779    7.0262    8.8064 O   0  0  0  0  0  0  0  0  0  0  0  0
    0.0899   -0.7862   -0.8416 C   0  0  0  0  0  0  0  0  0  0  0  0
    0.5979   -1.9896   -1.3672 C   0  0  0  0  0  0  0  0  0  0  0  0
   -1.1555   -0.3175   -1.2912 C   0  0  0  0  0  0  0  0  0  0  0  0
   -0.1556   -2.7372   -2.2781 C   0  0  0  0  0  0  0  0  0  0  0  0
   -1.9110   -1.0563   -2.1981 C   0  0  0  0  0  0  0  0  0  0  0  0
   -1.4100   -2.2579   -2.6724 C   0  0  0  0  0  0  0  0  0  0  0  0
    0.7055    4.6638    5.8780 C   0  0  0  0  0  0  0  0  0  0  0  0
    0.9889    6.0117    5.6123 C   0  0  0  0  0  0  0  0  0  0  0  0
    1.0394    4.1340    7.1325 C   0  0  0  0  0  0  0  0  0  0  0  0
    1.5840    6.8188    6.5859 C   0  0  0  0  0  0  0  0  0  0  0  0
    1.6310    4.9413    8.1060 C   0  0  0  0  0  0  0  0  0  0  0  0
    1.8984    6.2754    7.8267 C   0  0  0  0  0  0  0  0  0  0  0  0
    1.9670   -0.0977    0.0536 H   0  0  0  0  0  0  0  0  0  0  0  0
   -0.7406    0.8015    1.2265 H   0  0  0  0  0  0  0  0  0  0  0  0
   -0.5731    2.1687    2.9425 H   0  0  0  0  0  0  0  0  0  0  0  0
    1.7312    2.4250    4.5507 H   0  0  0  0  0  0  0  0  0  0  0  0
    1.7241    3.7847    3.4241 H   0  0  0  0  0  0  0  0  0  0  0  0
   -0.6006    4.4096    4.2020 H   0  0  0  0  0  0  0  0  0  0  0  0
   -0.5998    3.0656    5.3145 H   0  0  0  0  0  0  0  0  0  0  0  0
    2.2779   -3.8197   -2.8191 H   0  0  0  0  0  0  0  0  0  0  0  0
    1.5228   -4.6567   -1.4052 H   0  0  0  0  0  0  0  0  0  0  0  0
    1.5764   -5.4333   -2.9923 H   0  0  0  0  0  0  0  0  0  0  0  0
   -1.6570   -3.7736   -3.7468 H   0  0  0  0  0  0  0  0  0  0  0  0
    2.6271    7.9220    8.4628 H   0  0  0  0  0  0  0  0  0  0  0  0
    1.5761   -2.3299   -1.0413 H   0  0  0  0  0  0  0  0  0  0  0  0
   -1.5540    0.6329   -0.9459 H   0  0  0  0  0  0  0  0  0  0  0  0
   -2.8799   -0.6979   -2.5306 H   0  0  0  0  0  0  0  0  0  0  0  0
    0.7440    6.4442    4.6445 H   0  0  0  0  0  0  0  0  0  0  0  0
    0.8383    3.0904    7.3641 H   0  0  0  0  0  0  0  0  0  0  0  0
    1.7909    7.8598    6.3588 H   0  0  0  0  0  0  0  0  0  0  0  0
    1.8832    4.5302    9.0795 H   0  0  0  0  0  0  0  0  0  0  0  0
  1  2  2  0  0  0  0
  1 12  1  0  0  0  0
  1 24  1  0  0  0  0
  2  3  1  0  0  0  0
  2 25  1  0  0  0  0
  3  4  1  0  0  0  0
  3  5  2  0  0  0  0
  4  6  1  0  0  0  0
  4 26  1  0  0  0  0
  6  7  1  0  0  0  0
  6 27  1  0  0  0  0
  6 28  1  0  0  0  0
  7 18  1  0  0  0  0
  7 29  1  0  0  0  0
  7 30  1  0  0  0  0
  8  9  1  0  0  0  0
  8 15  1  0  0  0  0
  9 31  1  0  0  0  0
  9 32  1  0  0  0  0
  9 33  1  0  0  0  0
 10 17  1  0  0  0  0
 10 34  1  0  0  0  0
 11 23  1  0  0  0  0
 11 35  1  0  0  0  0
 12 13  2  0  0  0  0
 12 14  1  0  0  0  0
 13 15  1  0  0  0  0
 13 36  1  0  0  0  0
 14 16  2  0  0  0  0
 14 37  1  0  0  0  0
 15 17  2  0  0  0  0
 16 17  1  0  0  0  0
 16 38  1  0  0  0  0
 18 19  2  0  0  0  0
 18 20  1  0  0  0  0
 19 21  1  0  0  0  0
 19 39  1  0  0  0  0
 20 22  2  0  0  0  0
 20 40  1  0  0  0  0
 21 23  2  0  0  0  0
 21 41  1  0  0  0  0
 22 23  1  0  0  0  0
 22 42  1  0  0  0  0
M  END
>  <Mol_ID>
9849

>  <Formula>
C18H19NO4

>  <MolWeight>
313.34776

>  <Cat>
E2537

>  <Name>
N-trans-Feruloyltyramine

>  <Synonyms>
Moupinamide

>  <Target>
Apoptosis, antioxidant, anti-inflammation

>  <Form>
Free Base

>  <CAS>
66648-43-9

>  <URL>
https://www.selleckchem.com/products/n-trans-feruloyltyramine.html

$$$$
