N4-Acetylcytidine
 OpenBabel08302521363D

 35 36  0  0  1  0  0  0  0  0999 V2000
   -1.8869    0.9373   -0.0990 O   0  0  0  0  0  0  0  0  0  0  0  0
    1.5074    2.2582   -2.1332 O   0  0  0  0  0  0  0  0  0  0  0  0
    1.9773   -0.8987   -1.7901 C   0  0  0  0  0  0  0  0  0  0  0  0
    3.3908   -0.8800   -1.5964 O   0  0  0  0  0  0  0  0  0  0  0  0
   -0.8382   -1.3133    0.6920 O   0  0  0  0  0  0  0  0  0  0  0  0
    2.8454    6.2036   -0.3632 N   0  0  0  0  0  0  0  0  0  0  0  0
    3.0705    7.2272    0.5521 C   0  0  0  0  0  0  0  0  0  0  0  0
    3.8766    8.3766    0.0091 C   0  0  0  0  0  0  0  0  0  0  0  0
    2.6771    7.2496    1.7147 O   0  0  0  0  0  0  0  0  0  0  0  0
    0.5244    1.2693    0.2960 C   0  0  2  0  0  0  0  0  0  0  0  0
    1.6661    0.3904    0.2484 O   0  0  0  0  0  0  0  0  0  0  0  0
   -0.5705    0.6860   -0.6076 C   0  0  1  0  0  0  0  0  0  0  0  0
    1.2794   -0.8279   -0.4317 C   0  0  1  0  0  0  0  0  0  0  0  0
   -0.2417   -0.8011   -0.5226 C   0  0  1  0  0  0  0  0  0  0  0  0
    0.9790    2.6360    0.0661 N   0  0  0  0  0  0  0  0  0  0  0  0
    1.5359    3.0059   -1.1615 C   0  0  0  0  0  0  0  0  0  0  0  0
    0.9764    3.5032    1.1367 C   0  0  0  0  0  0  0  0  0  0  0  0
    2.1535    4.2404   -1.2544 N   0  0  0  0  0  0  0  0  0  0  0  0
    1.5458    4.7026    1.0664 C   0  0  0  0  0  0  0  0  0  0  0  0
    2.1717    5.0100   -0.2209 C   0  0  0  0  0  0  0  0  0  0  0  0
   -2.1090    0.1637    0.4626 H   0  0  0  0  0  0  0  0  0  0  0  0
    1.7197   -1.8267   -2.3082 H   0  0  0  0  0  0  0  0  0  0  0  0
    1.7195   -0.0654   -2.4438 H   0  0  0  0  0  0  0  0  0  0  0  0
    3.5808   -0.0433   -1.1286 H   0  0  0  0  0  0  0  0  0  0  0  0
   -0.1917   -1.2279    1.4186 H   0  0  0  0  0  0  0  0  0  0  0  0
    3.2455    6.3019   -1.2873 H   0  0  0  0  0  0  0  0  0  0  0  0
    3.2946    9.2955    0.1256 H   0  0  0  0  0  0  0  0  0  0  0  0
    4.8029    8.4581    0.5856 H   0  0  0  0  0  0  0  0  0  0  0  0
    4.1264    8.2505   -1.0461 H   0  0  0  0  0  0  0  0  0  0  0  0
    0.1540    1.2126    1.3286 H   0  0  0  0  0  0  0  0  0  0  0  0
   -0.5218    1.0454   -1.6376 H   0  0  0  0  0  0  0  0  0  0  0  0
    1.6355   -1.6521    0.1964 H   0  0  0  0  0  0  0  0  0  0  0  0
   -0.6554   -1.3852   -1.3489 H   0  0  0  0  0  0  0  0  0  0  0  0
    0.5053    3.1772    2.0587 H   0  0  0  0  0  0  0  0  0  0  0  0
    1.5534    5.3676    1.9133 H   0  0  0  0  0  0  0  0  0  0  0  0
  1 21  1  0  0  0  0
  2 16  2  0  0  0  0
  3  4  1  0  0  0  0
  3 22  1  0  0  0  0
  3 23  1  0  0  0  0
  4 24  1  0  0  0  0
  5 25  1  0  0  0  0
  6  7  1  0  0  0  0
  6 20  1  0  0  0  0
  6 26  1  0  0  0  0
  7  8  1  0  0  0  0
  7  9  2  0  0  0  0
  8 27  1  0  0  0  0
  8 28  1  0  0  0  0
  8 29  1  0  0  0  0
 10 11  1  0  0  0  0
 10 12  1  0  0  0  0
 10 30  1  1  0  0  0
 10 15  1  0  0  0  0
 11 13  1  0  0  0  0
 12  1  1  0  0  0  0
 12 14  1  0  0  0  0
 12 31  1  6  0  0  0
 13 14  1  0  0  0  0
 13 32  1  1  0  0  0
 13  3  1  0  0  0  0
 14  5  1  0  0  0  0
 14 33  1  6  0  0  0
 15 16  1  0  0  0  0
 15 17  1  0  0  0  0
 16 18  1  0  0  0  0
 17 19  2  0  0  0  0
 17 34  1  0  0  0  0
 18 20  2  0  0  0  0
 19 20  1  0  0  0  0
 19 35  1  0  0  0  0
M  END
>  <Mol_ID>
7222

>  <Formula>
C11H15N3O6

>  <MolWeight>
285.2533

>  <Cat>
E4229

>  <Name>
N4-Acetylcytidine

>  <Synonyms>
N4-Acetylcytidine

>  <Target>
Endogenous Metabolite

>  <Form>
free base

>  <CAS>
3768-18-1

>  <URL>
https://www.selleckchem.com/products/n4-acetylcytidine.html

$$$$
