N6-Cyclopentyladenosine
 OpenBabel08302521383D

 45 48  0  0  1  0  0  0  0  0999 V2000
   -1.5194    1.1851    1.6354 O   0  0  0  0  0  0  0  0  0  0  0  0
    2.7708    6.3009   -1.9954 N   0  0  0  0  0  0  0  0  0  0  0  0
   -0.4243   -0.3137   -2.5072 C   0  0  0  0  0  0  0  0  0  0  0  0
    0.6968   -0.4278   -3.3781 O   0  0  0  0  0  0  0  0  0  0  0  0
   -0.9009   -1.3019    1.1118 O   0  0  0  0  0  0  0  0  0  0  0  0
    0.9768    2.4859   -0.0623 N   0  0  0  0  0  0  0  0  0  0  0  0
    1.3004    2.9935   -1.2952 C   0  0  0  0  0  0  0  0  0  0  0  0
    1.2071    3.4798    0.8595 C   0  0  0  0  0  0  0  0  0  0  0  0
    1.7757    4.2727   -1.0444 C   0  0  0  0  0  0  0  0  0  0  0  0
    1.2069    2.3938   -2.4934 N   0  0  0  0  0  0  0  0  0  0  0  0
    1.7128    4.5626    0.3057 N   0  0  0  0  0  0  0  0  0  0  0  0
    2.2459    5.0186   -2.1510 C   0  0  0  0  0  0  0  0  0  0  0  0
    1.6559    3.1976   -3.4758 C   0  0  0  0  0  0  0  0  0  0  0  0
    2.1695    4.4407   -3.3768 N   0  0  0  0  0  0  0  0  0  0  0  0
    0.5387    1.1462    0.2868 C   0  0  2  0  0  0  0  0  0  0  0  0
    1.0728    0.1745   -0.6407 O   0  0  0  0  0  0  0  0  0  0  0  0
   -0.9785    0.9593    0.3316 C   0  0  1  0  0  0  0  0  0  0  0  0
   -0.0048   -0.6902   -1.0834 C   0  0  1  0  0  0  0  0  0  0  0  0
   -1.1214   -0.5032   -0.0685 C   0  0  1  0  0  0  0  0  0  0  0  0
    3.7943    6.7520   -2.9289 C   0  0  0  0  0  0  0  0  0  0  0  0
    5.0862    5.9374   -2.8380 C   0  0  0  0  0  0  0  0  0  0  0  0
    4.2323    8.1695   -2.5447 C   0  0  0  0  0  0  0  0  0  0  0  0
    6.2369    6.9059   -3.0974 C   0  0  0  0  0  0  0  0  0  0  0  0
    5.6575    8.3119   -3.0518 C   0  0  0  0  0  0  0  0  0  0  0  0
   -1.6011    0.3017    2.0520 H   0  0  0  0  0  0  0  0  0  0  0  0
    2.9487    6.4870   -1.0099 H   0  0  0  0  0  0  0  0  0  0  0  0
   -1.2088   -0.9852   -2.8698 H   0  0  0  0  0  0  0  0  0  0  0  0
   -0.7990    0.7118   -2.5742 H   0  0  0  0  0  0  0  0  0  0  0  0
    1.3611    0.1971   -3.0178 H   0  0  0  0  0  0  0  0  0  0  0  0
    0.0402   -1.5608    1.1443 H   0  0  0  0  0  0  0  0  0  0  0  0
    1.0008    3.3515    1.9159 H   0  0  0  0  0  0  0  0  0  0  0  0
    1.5961    2.7926   -4.4835 H   0  0  0  0  0  0  0  0  0  0  0  0
    0.9852    0.9226    1.2643 H   0  0  0  0  0  0  0  0  0  0  0  0
   -1.4898    1.6181   -0.3786 H   0  0  0  0  0  0  0  0  0  0  0  0
    0.3954   -1.7101   -1.0777 H   0  0  0  0  0  0  0  0  0  0  0  0
   -2.1196   -0.7523   -0.4422 H   0  0  0  0  0  0  0  0  0  0  0  0
    3.4192    6.7608   -3.9598 H   0  0  0  0  0  0  0  0  0  0  0  0
    5.2090    5.4767   -1.8511 H   0  0  0  0  0  0  0  0  0  0  0  0
    5.0921    5.1240   -3.5731 H   0  0  0  0  0  0  0  0  0  0  0  0
    3.5741    8.9283   -2.9818 H   0  0  0  0  0  0  0  0  0  0  0  0
    4.2142    8.3145   -1.4578 H   0  0  0  0  0  0  0  0  0  0  0  0
    7.0211    6.7774   -2.3427 H   0  0  0  0  0  0  0  0  0  0  0  0
    6.7005    6.7187   -4.0730 H   0  0  0  0  0  0  0  0  0  0  0  0
    6.2469    8.9685   -2.4015 H   0  0  0  0  0  0  0  0  0  0  0  0
    5.6669    8.7554   -4.0535 H   0  0  0  0  0  0  0  0  0  0  0  0
  1 25  1  0  0  0  0
  2 12  1  0  0  0  0
  2 20  1  0  0  0  0
  2 26  1  0  0  0  0
  3  4  1  0  0  0  0
  3 27  1  0  0  0  0
  3 28  1  0  0  0  0
  4 29  1  0  0  0  0
  5 30  1  0  0  0  0
  6  7  1  0  0  0  0
  6  8  1  0  0  0  0
  7  9  2  0  0  0  0
  7 10  1  0  0  0  0
  8 11  2  0  0  0  0
  8 31  1  0  0  0  0
  9 11  1  0  0  0  0
  9 12  1  0  0  0  0
 10 13  2  0  0  0  0
 12 14  2  0  0  0  0
 13 14  1  0  0  0  0
 13 32  1  0  0  0  0
 15 16  1  0  0  0  0
 15 17  1  0  0  0  0
 15 33  1  1  0  0  0
 15  6  1  0  0  0  0
 16 18  1  0  0  0  0
 17  1  1  0  0  0  0
 17 19  1  0  0  0  0
 17 34  1  6  0  0  0
 18 19  1  0  0  0  0
 18 35  1  1  0  0  0
 18  3  1  0  0  0  0
 19  5  1  0  0  0  0
 19 36  1  6  0  0  0
 20 21  1  0  0  0  0
 20 22  1  0  0  0  0
 20 37  1  0  0  0  0
 21 23  1  0  0  0  0
 21 38  1  0  0  0  0
 21 39  1  0  0  0  0
 22 24  1  0  0  0  0
 22 40  1  0  0  0  0
 22 41  1  0  0  0  0
 23 24  1  0  0  0  0
 23 42  1  0  0  0  0
 23 43  1  0  0  0  0
 24 44  1  0  0  0  0
 24 45  1  0  0  0  0
M  END
>  <Mol_ID>
7664

>  <Formula>
C15H21N5O4

>  <MolWeight>
335.35834

>  <Cat>
E4450

>  <Name>
N6-Cyclopentyladenosine

>  <Target>
Adenosine Receptor

>  <Form>
free base

>  <CAS>
41552-82-3

>  <URL>
https://www.selleckchem.com/products/n6-cyclopentyladenosine.html

$$$$
