N6-methyladenosine.cdx
 OpenBabel08302522033D

 35 37  0  0  0  0  0  0  0  0999 V2000
    1.0269   -0.2233   -1.5202 O   0  0  0  0  0  0  0  0  0  0  0  0
    0.5226   -1.2000   -0.6186 C   0  0  0  0  0  0  0  0  0  0  0  0
   -1.0119   -1.2496   -0.6331 C   0  0  2  0  0  0  0  0  0  0  0  0
   -1.6114   -1.4676   -2.0150 C   0  0  1  0  0  0  0  0  0  0  0  0
   -2.9002   -2.1133   -1.9104 O   0  0  0  0  0  0  0  0  0  0  0  0
   -1.8294   -0.0566   -2.5415 C   0  0  1  0  0  0  0  0  0  0  0  0
   -2.8578   -0.0400   -3.5329 O   0  0  0  0  0  0  0  0  0  0  0  0
   -2.1989    0.6973   -1.2642 C   0  0  1  0  0  0  0  0  0  0  0  0
   -1.5726   -0.0042   -0.1517 O   0  0  0  0  0  0  0  0  0  0  0  0
   -1.7818    2.0857   -1.2529 N   0  0  0  0  0  0  0  0  0  0  0  0
   -0.5749    2.5530   -0.8148 C   0  0  0  0  0  0  0  0  0  0  0  0
   -0.4948    3.8653   -0.8878 N   0  0  0  0  0  0  0  0  0  0  0  0
   -1.7116    4.2693   -1.3967 C   0  0  0  0  0  0  0  0  0  0  0  0
   -2.2470    5.5449   -1.6829 C   0  0  0  0  0  0  0  0  0  0  0  0
   -1.6576    6.7650   -1.4367 N   0  0  0  0  0  0  0  0  0  0  0  0
   -3.4928    5.5906   -2.2285 N   0  0  0  0  0  0  0  0  0  0  0  0
   -4.1678    4.4325   -2.4192 C   0  0  0  0  0  0  0  0  0  0  0  0
   -3.7718    3.1757   -2.1424 N   0  0  0  0  0  0  0  0  0  0  0  0
   -2.5213    3.1714   -1.6431 C   0  0  0  0  0  0  0  0  0  0  0  0
   -0.3292    6.9507   -0.9115 C   0  0  0  0  0  0  0  0  0  0  0  0
    1.9897   -0.1708   -1.3789 H   0  0  0  0  0  0  0  0  0  0  0  0
    0.9330   -2.1706   -0.9134 H   0  0  0  0  0  0  0  0  0  0  0  0
    0.8822   -0.9504    0.3848 H   0  0  0  0  0  0  0  0  0  0  0  0
   -1.3324   -2.0289    0.0668 H   0  0  0  0  0  0  0  0  0  0  0  0
   -1.0006   -2.0858   -2.6773 H   0  0  0  0  0  0  0  0  0  0  0  0
   -3.2994   -1.8819   -1.0506 H   0  0  0  0  0  0  0  0  0  0  0  0
   -0.9172    0.3438   -2.9953 H   0  0  0  0  0  0  0  0  0  0  0  0
   -3.4271   -0.8154   -3.3519 H   0  0  0  0  0  0  0  0  0  0  0  0
   -3.2804    0.6816   -1.0840 H   0  0  0  0  0  0  0  0  0  0  0  0
    0.2084    1.9040   -0.4409 H   0  0  0  0  0  0  0  0  0  0  0  0
   -2.1148    7.5392   -1.9061 H   0  0  0  0  0  0  0  0  0  0  0  0
   -5.1624    4.5407   -2.8442 H   0  0  0  0  0  0  0  0  0  0  0  0
    0.3540    7.2757   -1.7025 H   0  0  0  0  0  0  0  0  0  0  0  0
   -0.3587    7.7368   -0.1479 H   0  0  0  0  0  0  0  0  0  0  0  0
    0.0958    6.0710   -0.4263 H   0  0  0  0  0  0  0  0  0  0  0  0
  1  2  1  0  0  0  0
  1 21  1  0  0  0  0
  2 22  1  0  0  0  0
  2 23  1  0  0  0  0
  3  2  1  0  0  0  0
  3  4  1  0  0  0  0
  3  9  1  0  0  0  0
  3 24  1  1  0  0  0
  4  5  1  0  0  0  0
  4  6  1  0  0  0  0
  4 25  1  6  0  0  0
  5 26  1  0  0  0  0
  6  7  1  0  0  0  0
  6  8  1  0  0  0  0
  6 27  1  6  0  0  0
  7 28  1  0  0  0  0
  8  9  1  0  0  0  0
  8 29  1  1  0  0  0
  8 10  1  0  0  0  0
 10 11  1  0  0  0  0
 10 19  1  0  0  0  0
 11 12  2  0  0  0  0
 11 30  1  0  0  0  0
 12 13  1  0  0  0  0
 13 14  2  0  0  0  0
 13 19  1  0  0  0  0
 14 15  1  0  0  0  0
 14 16  1  0  0  0  0
 15 20  1  0  0  0  0
 15 31  1  0  0  0  0
 16 17  2  0  0  0  0
 17 18  1  0  0  0  0
 17 32  1  0  0  0  0
 18 19  2  0  0  0  0
 20 33  1  0  0  0  0
 20 34  1  0  0  0  0
 20 35  1  0  0  0  0
M  END
>  <Mol_ID>
1176

>  <Formula>
C11H15N5O4

>  <MolWeight>
281.2679

>  <Cat>
S3190

>  <Name>
N6-methyladenosine (m6A)

>  <Synonyms>
NSC-29409, 6-Methyladenosine, N-Methyladenosine

>  <Target>
DNA/RNA Synthesis

>  <Form>
free base

>  <CAS>
1867-73-8

>  <URL>
http://selleckchem.com/products/n6-methyladenosine.html

$$$$
