N6F11
 OpenBabel08302521353D

 27 29  0  0  0  0  0  0  0  0999 V2000
    0.9237   -0.2629   -0.0633 O   0  0  0  0  0  0  0  0  0  0  0  0
    5.0661   -2.4285   -0.0518 C   0  0  0  0  0  0  0  0  0  0  0  0
    4.2338    1.1636   -0.0690 C   0  0  0  0  0  0  0  0  0  0  0  0
    2.8707    1.0745   -0.0727 C   0  0  0  0  0  0  0  0  0  0  0  0
    4.7029    2.5002   -0.0696 C   0  0  0  0  0  0  0  0  0  0  0  0
    4.9635    0.0329   -0.0632 N   0  0  0  0  0  0  0  0  0  0  0  0
    2.1315    2.5933   -0.0878 S   0  0  0  0  0  0  0  0  0  0  0  0
    2.1458   -0.1744   -0.0666 C   0  0  0  0  0  0  0  0  0  0  0  0
    3.6539    3.4124   -0.0557 C   0  0  0  0  0  0  0  0  0  0  0  0
    4.2545   -1.1536   -0.0588 C   0  0  0  0  0  0  0  0  0  0  0  0
    2.9617   -1.2911   -0.0618 N   0  0  0  0  0  0  0  0  0  0  0  0
    3.6948    4.8858   -0.0391 C   0  0  0  0  0  0  0  0  0  0  0  0
    4.7388    5.5779   -0.6719 C   0  0  0  0  0  0  0  0  0  0  0  0
    2.7031    5.6378    0.6133 C   0  0  0  0  0  0  0  0  0  0  0  0
    4.7840    6.9760   -0.6567 C   0  0  0  0  0  0  0  0  0  0  0  0
    2.7457    7.0334    0.6257 C   0  0  0  0  0  0  0  0  0  0  0  0
    3.7871    7.7019   -0.0086 C   0  0  0  0  0  0  0  0  0  0  0  0
    5.7011   -2.4598   -0.9413 H   0  0  0  0  0  0  0  0  0  0  0  0
    5.6944   -2.4528    0.8425 H   0  0  0  0  0  0  0  0  0  0  0  0
    4.4092   -3.3033   -0.0509 H   0  0  0  0  0  0  0  0  0  0  0  0
    5.7452    2.7943   -0.0597 H   0  0  0  0  0  0  0  0  0  0  0  0
    5.9779    0.0155   -0.0608 H   0  0  0  0  0  0  0  0  0  0  0  0
    5.5231    5.0401   -1.1987 H   0  0  0  0  0  0  0  0  0  0  0  0
    1.8801    5.1479    1.1291 H   0  0  0  0  0  0  0  0  0  0  0  0
    5.5959    7.4989   -1.1555 H   0  0  0  0  0  0  0  0  0  0  0  0
    1.9627    7.5914    1.1327 H   0  0  0  0  0  0  0  0  0  0  0  0
    3.8200    8.7880    0.0021 H   0  0  0  0  0  0  0  0  0  0  0  0
  1  8  2  0  0  0  0
  2 10  1  0  0  0  0
  2 18  1  0  0  0  0
  2 19  1  0  0  0  0
  2 20  1  0  0  0  0
  3  4  2  0  0  0  0
  3  5  1  0  0  0  0
  3  6  1  0  0  0  0
  4  7  1  0  0  0  0
  4  8  1  0  0  0  0
  5  9  2  0  0  0  0
  5 21  1  0  0  0  0
  6 10  1  0  0  0  0
  6 22  1  0  0  0  0
  7  9  1  0  0  0  0
  8 11  1  0  0  0  0
  9 12  1  0  0  0  0
 10 11  2  0  0  0  0
 12 13  2  0  0  0  0
 12 14  1  0  0  0  0
 13 15  1  0  0  0  0
 13 23  1  0  0  0  0
 14 16  2  0  0  0  0
 14 24  1  0  0  0  0
 15 17  2  0  0  0  0
 15 25  1  0  0  0  0
 16 17  1  0  0  0  0
 16 26  1  0  0  0  0
 17 27  1  0  0  0  0
M  END
>  <Mol_ID>
6987

>  <Formula>
C13H8Cl2N2OS

>  <MolWeight>
311.18642

>  <Cat>
E1812

>  <Name>
N6F11

>  <Target>
Ferroptosis

>  <Form>
free base

>  <CAS>
851398-76-0

>  <URL>
https://www.selleckchem.com/products/n6f11.html

$$$$
