Nabumetone.cdx
 OpenBabel08302522033D

 33 34  0  0  0  0  0  0  0  0999 V2000
    2.4887   -0.7133   -0.0388 C   0  0  0  0  0  0  0  0  0  0  0  0
    2.4679    0.6814   -0.0882 C   0  0  0  0  0  0  0  0  0  0  0  0
    1.2552    1.3633   -0.1544 C   0  0  0  0  0  0  0  0  0  0  0  0
    0.0371    0.6729   -0.1381 C   0  0  0  0  0  0  0  0  0  0  0  0
    0.0441   -0.7352   -0.0600 C   0  0  0  0  0  0  0  0  0  0  0  0
    1.2807   -1.4155   -0.0289 C   0  0  0  0  0  0  0  0  0  0  0  0
   -1.1814    1.3676   -0.1719 C   0  0  0  0  0  0  0  0  0  0  0  0
   -2.4073    0.6990   -0.0575 C   0  0  0  0  0  0  0  0  0  0  0  0
   -2.3929   -0.6996   -0.0027 C   0  0  0  0  0  0  0  0  0  0  0  0
   -1.1839   -1.4084   -0.0090 C   0  0  0  0  0  0  0  0  0  0  0  0
   -3.6855    1.5160   -0.0222 C   0  0  0  0  0  0  0  0  0  0  0  0
   -4.7961    0.9005    0.8306 C   0  0  0  0  0  0  0  0  0  0  0  0
   -6.0348    1.7690    0.9241 C   0  0  0  0  0  0  0  0  0  0  0  0
   -7.1852    1.2057    1.7233 C   0  0  0  0  0  0  0  0  0  0  0  0
   -6.1375    2.8496    0.3457 O   0  0  0  0  0  0  0  0  0  0  0  0
    3.6165   -1.4897    0.0049 O   0  0  0  0  0  0  0  0  0  0  0  0
    4.8614   -0.7958    0.0018 C   0  0  0  0  0  0  0  0  0  0  0  0
    3.3794    1.2683   -0.0750 H   0  0  0  0  0  0  0  0  0  0  0  0
    1.2696    2.4524   -0.1956 H   0  0  0  0  0  0  0  0  0  0  0  0
    1.3013   -2.5004    0.0202 H   0  0  0  0  0  0  0  0  0  0  0  0
   -1.1725    2.4512   -0.2674 H   0  0  0  0  0  0  0  0  0  0  0  0
   -3.3152   -1.2703    0.0529 H   0  0  0  0  0  0  0  0  0  0  0  0
   -1.2136   -2.4943    0.0489 H   0  0  0  0  0  0  0  0  0  0  0  0
   -3.4534    2.5102    0.3824 H   0  0  0  0  0  0  0  0  0  0  0  0
   -4.0322    1.6711   -1.0512 H   0  0  0  0  0  0  0  0  0  0  0  0
   -5.1149   -0.0578    0.4100 H   0  0  0  0  0  0  0  0  0  0  0  0
   -4.4294    0.7337    1.8502 H   0  0  0  0  0  0  0  0  0  0  0  0
   -7.6831    2.0125    2.2672 H   0  0  0  0  0  0  0  0  0  0  0  0
   -7.8915    0.7151    1.0492 H   0  0  0  0  0  0  0  0  0  0  0  0
   -6.8202    0.4780    2.4537 H   0  0  0  0  0  0  0  0  0  0  0  0
    4.9643   -0.1582   -0.8829 H   0  0  0  0  0  0  0  0  0  0  0  0
    4.9821   -0.2145    0.9223 H   0  0  0  0  0  0  0  0  0  0  0  0
    5.6634   -1.5384   -0.0338 H   0  0  0  0  0  0  0  0  0  0  0  0
  1  2  2  0  0  0  0
  1 16  1  0  0  0  0
  2  3  1  0  0  0  0
  2 18  1  0  0  0  0
  3  4  2  0  0  0  0
  3 19  1  0  0  0  0
  4  5  1  0  0  0  0
  4  7  1  0  0  0  0
  5  6  2  0  0  0  0
  6  1  1  0  0  0  0
  6 20  1  0  0  0  0
  7  8  2  0  0  0  0
  7 21  1  0  0  0  0
  8  9  1  0  0  0  0
  8 11  1  0  0  0  0
  9 10  2  0  0  0  0
  9 22  1  0  0  0  0
 10  5  1  0  0  0  0
 10 23  1  0  0  0  0
 11 12  1  0  0  0  0
 11 24  1  0  0  0  0
 11 25  1  0  0  0  0
 12 13  1  0  0  0  0
 12 26  1  0  0  0  0
 12 27  1  0  0  0  0
 13 14  1  0  0  0  0
 13 15  2  0  0  0  0
 14 28  1  0  0  0  0
 14 29  1  0  0  0  0
 14 30  1  0  0  0  0
 16 17  1  0  0  0  0
 17 31  1  0  0  0  0
 17 32  1  0  0  0  0
 17 33  1  0  0  0  0
M  END
>  <Mol_ID>
1211

>  <Formula>
C15H16O2

>  <MolWeight>
228.28634

>  <Cat>
S4051

>  <Name>
Nabumetone

>  <Synonyms>
BRL-14777

>  <Target>
COX

>  <Form>
free base

>  <CAS>
42924-53-8

>  <URL>
http://selleckchem.com/products/nabumetone.html

$$$$
