Naftopidil.cdx
 OpenBabel08302519573D

 57 60  0  0  0  0  0  0  0  0999 V2000
    1.5300    5.4685   -0.9198 C   0  0  0  0  0  0  0  0  0  0  0  0
    1.6772    6.8735   -1.0198 C   0  0  0  0  0  0  0  0  0  0  0  0
    1.0880    7.5497   -2.1145 C   0  0  0  0  0  0  0  0  0  0  0  0
    0.3783    6.8186   -3.0780 C   0  0  0  0  0  0  0  0  0  0  0  0
    0.2891    5.4302   -2.9953 C   0  0  0  0  0  0  0  0  0  0  0  0
    0.8606    4.7554   -1.9187 C   0  0  0  0  0  0  0  0  0  0  0  0
    2.4218    7.6310   -0.0893 C   0  0  0  0  0  0  0  0  0  0  0  0
    2.6077    9.0042   -0.2527 C   0  0  0  0  0  0  0  0  0  0  0  0
    2.0145    9.6590   -1.3251 C   0  0  0  0  0  0  0  0  0  0  0  0
    1.2433    8.9402   -2.2388 C   0  0  0  0  0  0  0  0  0  0  0  0
    2.0487    4.8857    0.2091 O   0  0  0  0  0  0  0  0  0  0  0  0
    2.3909    3.4995    0.1278 C   0  0  0  0  0  0  0  0  0  0  0  0
    3.2358    3.1742    1.3670 C   0  0  3  0  0  0  0  0  0  0  0  0
    3.7340    1.7142    1.3761 C   0  0  0  0  0  0  0  0  0  0  0  0
    4.4536    1.2446    0.1658 N   0  0  0  0  0  0  0  0  0  0  0  0
    4.3498    4.0713    1.5100 O   0  0  0  0  0  0  0  0  0  0  0  0
    4.9015   -0.1616    0.3562 C   0  0  0  0  0  0  0  0  0  0  0  0
    6.0090   -0.3661    1.4264 C   0  0  0  0  0  0  0  0  0  0  0  0
    7.1269    0.5699    1.2292 N   0  0  0  0  0  0  0  0  0  0  0  0
    6.7760    1.9706    0.9563 C   0  0  0  0  0  0  0  0  0  0  0  0
    5.6787    2.0306   -0.1298 C   0  0  0  0  0  0  0  0  0  0  0  0
    8.4523    0.1679    1.1705 C   0  0  0  0  0  0  0  0  0  0  0  0
    8.7796   -1.0438    0.5299 C   0  0  0  0  0  0  0  0  0  0  0  0
   10.0990   -1.4739    0.3849 C   0  0  0  0  0  0  0  0  0  0  0  0
   11.1308   -0.7082    0.8952 C   0  0  0  0  0  0  0  0  0  0  0  0
   10.8554    0.4884    1.5465 C   0  0  0  0  0  0  0  0  0  0  0  0
    9.5323    0.9419    1.6721 C   0  0  0  0  0  0  0  0  0  0  0  0
    9.2218    2.1010    2.3543 O   0  0  0  0  0  0  0  0  0  0  0  0
   10.2305    3.1057    2.3839 C   0  0  0  0  0  0  0  0  0  0  0  0
   -0.0917    7.3262   -3.9175 H   0  0  0  0  0  0  0  0  0  0  0  0
   -0.2297    4.8736   -3.7716 H   0  0  0  0  0  0  0  0  0  0  0  0
    0.7597    3.6760   -1.8798 H   0  0  0  0  0  0  0  0  0  0  0  0
    2.8908    7.1412    0.7623 H   0  0  0  0  0  0  0  0  0  0  0  0
    3.2215    9.5553    0.4546 H   0  0  0  0  0  0  0  0  0  0  0  0
    2.1594   10.7276   -1.4580 H   0  0  0  0  0  0  0  0  0  0  0  0
    0.7838    9.4723   -3.0687 H   0  0  0  0  0  0  0  0  0  0  0  0
    1.4836    2.8846    0.1307 H   0  0  0  0  0  0  0  0  0  0  0  0
    2.9697    3.3245   -0.7843 H   0  0  0  0  0  0  0  0  0  0  0  0
    2.6215    3.3365    2.2614 H   0  0  0  0  0  0  0  0  0  0  0  0
    4.3467    1.5854    2.2745 H   0  0  0  0  0  0  0  0  0  0  0  0
    2.8515    1.0731    1.4997 H   0  0  0  0  0  0  0  0  0  0  0  0
    4.3615    4.6375    0.7175 H   0  0  0  0  0  0  0  0  0  0  0  0
    4.0367   -0.7965    0.5887 H   0  0  0  0  0  0  0  0  0  0  0  0
    5.2787   -0.5271   -0.6078 H   0  0  0  0  0  0  0  0  0  0  0  0
    5.5888   -0.2039    2.4259 H   0  0  0  0  0  0  0  0  0  0  0  0
    6.3200   -1.4157    1.4114 H   0  0  0  0  0  0  0  0  0  0  0  0
    6.4517    2.4562    1.8812 H   0  0  0  0  0  0  0  0  0  0  0  0
    7.6277    2.5419    0.5652 H   0  0  0  0  0  0  0  0  0  0  0  0
    6.1062    1.6359   -1.0640 H   0  0  0  0  0  0  0  0  0  0  0  0
    5.4369    3.0683   -0.3747 H   0  0  0  0  0  0  0  0  0  0  0  0
    7.9995   -1.6537    0.0851 H   0  0  0  0  0  0  0  0  0  0  0  0
   10.3054   -2.4101   -0.1280 H   0  0  0  0  0  0  0  0  0  0  0  0
   12.1632   -1.0452    0.7924 H   0  0  0  0  0  0  0  0  0  0  0  0
   11.6872    1.0506    1.9565 H   0  0  0  0  0  0  0  0  0  0  0  0
   10.9884    2.8651    3.1358 H   0  0  0  0  0  0  0  0  0  0  0  0
   10.6829    3.2553    1.3959 H   0  0  0  0  0  0  0  0  0  0  0  0
    9.7576    4.0478    2.6762 H   0  0  0  0  0  0  0  0  0  0  0  0
  1  2  2  0  0  0  0
  1 11  1  0  0  0  0
  2  3  1  0  0  0  0
  2  7  1  0  0  0  0
  3  4  2  0  0  0  0
  4  5  1  0  0  0  0
  4 30  1  0  0  0  0
  5  6  2  0  0  0  0
  5 31  1  0  0  0  0
  6  1  1  0  0  0  0
  6 32  1  0  0  0  0
  7  8  2  0  0  0  0
  7 33  1  0  0  0  0
  8  9  1  0  0  0  0
  8 34  1  0  0  0  0
  9 10  2  0  0  0  0
  9 35  1  0  0  0  0
 10  3  1  0  0  0  0
 10 36  1  0  0  0  0
 11 12  1  0  0  0  0
 12 13  1  0  0  0  0
 12 37  1  0  0  0  0
 12 38  1  0  0  0  0
 13 14  1  0  0  0  0
 13 16  1  0  0  0  0
 13 39  1  0  0  0  0
 14 15  1  0  0  0  0
 14 40  1  0  0  0  0
 14 41  1  0  0  0  0
 15 17  1  0  0  0  0
 16 42  1  0  0  0  0
 17 18  1  0  0  0  0
 17 43  1  0  0  0  0
 17 44  1  0  0  0  0
 18 19  1  0  0  0  0
 18 45  1  0  0  0  0
 18 46  1  0  0  0  0
 19 20  1  0  0  0  0
 19 22  1  0  0  0  0
 20 21  1  0  0  0  0
 20 47  1  0  0  0  0
 20 48  1  0  0  0  0
 21 15  1  0  0  0  0
 21 49  1  0  0  0  0
 21 50  1  0  0  0  0
 22 23  2  0  0  0  0
 23 24  1  0  0  0  0
 23 51  1  0  0  0  0
 24 25  2  0  0  0  0
 24 52  1  0  0  0  0
 25 26  1  0  0  0  0
 25 53  1  0  0  0  0
 26 27  2  0  0  0  0
 26 54  1  0  0  0  0
 27 22  1  0  0  0  0
 27 28  1  0  0  0  0
 28 29  1  0  0  0  0
 29 55  1  0  0  0  0
 29 56  1  0  0  0  0
 29 57  1  0  0  0  0
M  END
>  <Mol_ID>
233

>  <Formula>
C24H30Cl2N2O3

>  <MolWeight>
465.4126

>  <Cat>
S1387

>  <Name>
Naftopidil DiHCl

>  <Synonyms>
Flivas, KT-611, Avishot,BM-15275

>  <Target>
Adrenergic Receptor

>  <Form>
Dihydrochloride

>  <CAS>
57149-08-3

>  <URL>
http://selleckchem.com/products/Naftopidil-Dihydrochloride.html

$$$$
