Nalidixic acid.cdx
 OpenBabel08302521373D

 29 30  0  0  0  0  0  0  0  0999 V2000
    2.3824   -0.5530   -0.0059 C   0  0  0  0  0  0  0  0  0  0  0  0
    2.4551    0.7874    0.0026 C   0  0  0  0  0  0  0  0  0  0  0  0
    1.1745    1.5156    0.0718 C   0  0  0  0  0  0  0  0  0  0  0  0
   -0.0814    0.7450    0.0268 C   0  0  0  0  0  0  0  0  0  0  0  0
   -0.0417   -0.6542    0.0125 C   0  0  0  0  0  0  0  0  0  0  0  0
    1.2159   -1.3039    0.0298 N   0  0  0  0  0  0  0  0  0  0  0  0
   -1.3041    1.4168   -0.0145 C   0  0  0  0  0  0  0  0  0  0  0  0
   -2.4736    0.6751   -0.0657 C   0  0  0  0  0  0  0  0  0  0  0  0
   -2.3801   -0.7113   -0.0618 C   0  0  0  0  0  0  0  0  0  0  0  0
   -1.1918   -1.3711   -0.0242 N   0  0  0  0  0  0  0  0  0  0  0  0
   -3.6209   -1.5531   -0.0258 C   0  0  0  0  0  0  0  0  0  0  0  0
    1.2034   -2.7728   -0.0408 C   0  0  0  0  0  0  0  0  0  0  0  0
    1.1204   -3.4118    1.3393 C   0  0  0  0  0  0  0  0  0  0  0  0
    1.1677    2.7466    0.1496 O   0  0  0  0  0  0  0  0  0  0  0  0
    3.7669    1.4593   -0.0779 C   0  0  0  0  0  0  0  0  0  0  0  0
    3.7056    2.8106   -0.0763 O   0  0  0  0  0  0  0  0  0  0  0  0
    4.8249    0.8584   -0.1569 O   0  0  0  0  0  0  0  0  0  0  0  0
    3.2886   -1.1569   -0.0608 H   0  0  0  0  0  0  0  0  0  0  0  0
   -1.3442    2.5030   -0.0027 H   0  0  0  0  0  0  0  0  0  0  0  0
   -3.4368    1.1752   -0.0968 H   0  0  0  0  0  0  0  0  0  0  0  0
   -3.5744   -2.3332   -0.7908 H   0  0  0  0  0  0  0  0  0  0  0  0
   -3.7112   -2.0214    0.9590 H   0  0  0  0  0  0  0  0  0  0  0  0
   -4.5200   -0.9543   -0.2049 H   0  0  0  0  0  0  0  0  0  0  0  0
    0.3931   -3.1441   -0.6800 H   0  0  0  0  0  0  0  0  0  0  0  0
    2.1280   -3.1198   -0.5202 H   0  0  0  0  0  0  0  0  0  0  0  0
    0.1620   -3.2036    1.8248 H   0  0  0  0  0  0  0  0  0  0  0  0
    1.2215   -4.4988    1.2518 H   0  0  0  0  0  0  0  0  0  0  0  0
    1.9185   -3.0521    1.9959 H   0  0  0  0  0  0  0  0  0  0  0  0
    2.7908    3.1744    0.0099 H   0  0  0  0  0  0  0  0  0  0  0  0
  1  2  2  0  0  0  0
  1 18  1  0  0  0  0
  2  3  1  0  0  0  0
  2 15  1  0  0  0  0
  3  4  1  0  0  0  0
  3 14  2  0  0  0  0
  4  5  2  0  0  0  0
  4  7  1  0  0  0  0
  5  6  1  0  0  0  0
  6  1  1  0  0  0  0
  6 12  1  0  0  0  0
  7  8  2  0  0  0  0
  7 19  1  0  0  0  0
  8  9  1  0  0  0  0
  8 20  1  0  0  0  0
  9 10  2  0  0  0  0
  9 11  1  0  0  0  0
 10  5  1  0  0  0  0
 11 21  1  0  0  0  0
 11 22  1  0  0  0  0
 11 23  1  0  0  0  0
 12 13  1  0  0  0  0
 12 24  1  0  0  0  0
 12 25  1  0  0  0  0
 13 26  1  0  0  0  0
 13 27  1  0  0  0  0
 13 28  1  0  0  0  0
 15 16  1  0  0  0  0
 15 17  2  0  0  0  0
 16 29  1  0  0  0  0
M  END
>  <Mol_ID>
707

>  <Formula>
C12H12N2O3

>  <MolWeight>
232.23528

>  <Cat>
S2328

>  <Name>
Nalidixic acid

>  <Synonyms>
NSC-82174

>  <Target>
Selection Antibiotics for Transfected Cell,Topoisomerase

>  <Form>
free base

>  <CAS>
389-08-2

>  <URL>
http://selleckchem.com/products/Nalidixic-acid(NegGram).html

$$$$
