Naloxone HCL.cdx
 OpenBabel08302522102D

 45 49  0  0  0  0  0  0  0  0999 V2000
    2.8000    4.1341    0.0000 C   0  0  0  0  0  0  0  0  0  0  0  0
    4.2000    4.1341    0.0000 C   0  0  2  0  0  0  0  0  0  0  0  0
    4.9000    5.3465    0.0000 C   0  0  2  0  0  0  0  0  0  0  0  0
    4.2000    6.5590    0.0000 C   0  0  1  0  0  0  0  0  0  0  0  0
    2.8000    6.5590    0.0000 C   0  0  0  0  0  0  0  0  0  0  0  0
    2.1000    5.3465    0.0000 C   0  0  0  0  0  0  0  0  0  0  0  0
    4.9000    2.9217    0.0000 C   0  0  2  0  0  0  0  0  0  0  0  0
    6.3000    2.9217    0.0000 C   0  0  0  0  0  0  0  0  0  0  0  0
    7.0000    4.1341    0.0000 C   0  0  0  0  0  0  0  0  0  0  0  0
    6.3000    5.3465    0.0000 C   0  0  0  0  0  0  0  0  0  0  0  0
    0.7000    5.3465    0.0000 C   0  0  0  0  0  0  0  0  0  0  0  0
    0.0000    4.1341    0.0000 C   0  0  0  0  0  0  0  0  0  0  0  0
    0.7000    2.9217    0.0000 C   0  0  0  0  0  0  0  0  0  0  0  0
    2.1000    2.9217    0.0000 C   0  0  0  0  0  0  0  0  0  0  0  0
    3.3124    2.2217    0.0000 O   0  0  0  0  0  0  0  0  0  0  0  0
    0.0024    1.7134    0.0000 O   0  0  0  0  0  0  0  0  0  0  0  0
    6.9976    1.7134    0.0000 O   0  0  0  0  0  0  0  0  0  0  0  0
    3.2101    5.1241    0.0000 C   0  0  0  0  0  0  0  0  0  0  0  0
    5.6000    6.5590    0.0000 O   0  0  0  0  0  0  0  0  0  0  0  0
    4.5623    7.9113    0.0000 N   0  0  0  0  0  0  0  0  0  0  0  0
    3.5758    8.8978    0.0000 C   0  0  0  0  0  0  0  0  0  0  0  0
    5.9099    8.2724    0.0000 C   0  0  0  0  0  0  0  0  0  0  0  0
    6.2710    9.6200    0.0000 C   0  0  0  0  0  0  0  0  0  0  0  0
    5.2845   10.6065    0.0000 C   0  0  0  0  0  0  0  0  0  0  0  0
    3.6650    5.6324    0.0000 H   0  0  0  0  0  0  0  0  0  0  0  0
    2.2650    7.4856    0.0000 H   0  0  0  0  0  0  0  0  0  0  0  0
    1.7300    6.5590    0.0000 H   0  0  0  0  0  0  0  0  0  0  0  0
    3.8830    3.2542    0.0000 H   0  0  0  0  0  0  0  0  0  0  0  0
    8.0700    4.1341    0.0000 H   0  0  0  0  0  0  0  0  0  0  0  0
    7.5350    5.0608    0.0000 H   0  0  0  0  0  0  0  0  0  0  0  0
    6.8350    6.2732    0.0000 H   0  0  0  0  0  0  0  0  0  0  0  0
    5.7650    6.2731    0.0000 H   0  0  0  0  0  0  0  0  0  0  0  0
    0.1840    6.2402    0.0000 H   0  0  0  0  0  0  0  0  0  0  0  0
   -1.0320    4.1341    0.0000 H   0  0  0  0  0  0  0  0  0  0  0  0
   -0.9346    1.7134    0.0000 H   0  0  0  0  0  0  0  0  0  0  0  0
    2.2029    4.7629    0.0000 H   0  0  0  0  0  0  0  0  0  0  0  0
    2.3658    5.7814    0.0000 H   0  0  0  0  0  0  0  0  0  0  0  0
    6.5700    6.5590    0.0000 H   0  0  0  0  0  0  0  0  0  0  0  0
    3.2145    9.9050    0.0000 H   0  0  0  0  0  0  0  0  0  0  0  0
    2.5140    8.7656    0.0000 H   0  0  0  0  0  0  0  0  0  0  0  0
    6.6665    7.5158    0.0000 H   0  0  0  0  0  0  0  0  0  0  0  0
    6.9434    8.5493    0.0000 H   0  0  0  0  0  0  0  0  0  0  0  0
    7.2678    9.8871    0.0000 H   0  0  0  0  0  0  0  0  0  0  0  0
    5.5516   11.6033    0.0000 H   0  0  0  0  0  0  0  0  0  0  0  0
    4.2877   10.3394    0.0000 H   0  0  0  0  0  0  0  0  0  0  0  0
  2  1  1  6  0  0  0
  2  3  1  0  0  0  0
  2  7  1  0  0  0  0
  2 18  1  0  0  0  0
  3  4  1  0  0  0  0
  3 19  1  1  0  0  0
  4  5  1  0  0  0  0
  4 20  1  0  0  0  0
  4 25  1  6  0  0  0
  5  6  1  0  0  0  0
  5 26  1  0  0  0  0
  5 27  1  0  0  0  0
  6  1  2  0  0  0  0
  6 11  1  0  0  0  0
  7  8  1  0  0  0  0
  7 15  1  0  0  0  0
  7 28  1  1  0  0  0
  8  9  1  0  0  0  0
  8 17  2  0  0  0  0
  9 10  1  0  0  0  0
  9 29  1  0  0  0  0
  9 30  1  0  0  0  0
 10  3  1  0  0  0  0
 10 31  1  0  0  0  0
 10 32  1  0  0  0  0
 11 12  2  0  0  0  0
 11 33  1  0  0  0  0
 12 13  1  0  0  0  0
 12 34  1  0  0  0  0
 13 14  2  0  0  0  0
 13 16  1  0  0  0  0
 14  1  1  0  0  0  0
 14 15  1  0  0  0  0
 16 35  1  0  0  0  0
 18 36  1  0  0  0  0
 18 37  1  0  0  0  0
 19 38  1  0  0  0  0
 20 21  1  0  0  0  0
 20 22  1  0  0  0  0
 21 18  1  0  0  0  0
 21 39  1  0  0  0  0
 21 40  1  0  0  0  0
 22 23  1  0  0  0  0
 22 41  1  0  0  0  0
 22 42  1  0  0  0  0
 23 24  2  0  0  0  0
 23 43  1  0  0  0  0
 24 44  1  0  0  0  0
 24 45  1  0  0  0  0
M  END
>  <Mol_ID>
1042

>  <Formula>
C19H22ClNO4

>  <MolWeight>
363.83528

>  <Cat>
S3066

>  <Name>
Naloxone HCl

>  <Synonyms>
N/A

>  <Target>
Opioid Receptor

>  <Form>
HCl

>  <CAS>
357-08-4

>  <URL>
http://selleckchem.com/products/naloxone-hcl.html

$$$$
