¦Â-Naphthoflavone
 OpenBabel08302521373D

 33 36  0  0  0  0  0  0  0  0999 V2000
    1.0535   -0.2404    0.0074 O   0  0  0  0  0  0  0  0  0  0  0  0
    3.0038    1.1730   -0.0374 C   0  0  0  0  0  0  0  0  0  0  0  0
    2.3359    2.4396   -0.0360 C   0  0  0  0  0  0  0  0  0  0  0  0
    4.4061    1.1017   -0.0481 C   0  0  0  0  0  0  0  0  0  0  0  0
    2.2721   -0.1223   -0.0273 C   0  0  0  0  0  0  0  0  0  0  0  0
    3.1350    3.6134   -0.0379 C   0  0  0  0  0  0  0  0  0  0  0  0
    0.9287    2.6330   -0.0359 C   0  0  0  0  0  0  0  0  0  0  0  0
    5.1197   -0.0798   -0.0648 O   0  0  0  0  0  0  0  0  0  0  0  0
    5.1665    2.2682   -0.0464 C   0  0  0  0  0  0  0  0  0  0  0  0
    3.0763   -1.3471   -0.0603 C   0  0  0  0  0  0  0  0  0  0  0  0
    4.5344    3.5107   -0.0414 C   0  0  0  0  0  0  0  0  0  0  0  0
    2.5322    4.8852   -0.0384 C   0  0  0  0  0  0  0  0  0  0  0  0
    0.3436    3.9015   -0.0368 C   0  0  0  0  0  0  0  0  0  0  0  0
    4.4078   -1.2591   -0.0768 C   0  0  0  0  0  0  0  0  0  0  0  0
    1.1462    5.0296   -0.0379 C   0  0  0  0  0  0  0  0  0  0  0  0
    5.1837   -2.5029   -0.1245 C   0  0  0  0  0  0  0  0  0  0  0  0
    5.5058   -3.0815   -1.3592 C   0  0  0  0  0  0  0  0  0  0  0  0
    5.4590   -3.2085    1.0544 C   0  0  0  0  0  0  0  0  0  0  0  0
    6.0611   -4.3623   -1.4143 C   0  0  0  0  0  0  0  0  0  0  0  0
    6.0203   -4.4866    0.9966 C   0  0  0  0  0  0  0  0  0  0  0  0
    6.3082   -5.0679   -0.2375 C   0  0  0  0  0  0  0  0  0  0  0  0
    0.2438    1.7895   -0.0377 H   0  0  0  0  0  0  0  0  0  0  0  0
    6.2526    2.2151   -0.0512 H   0  0  0  0  0  0  0  0  0  0  0  0
    2.5374   -2.2844   -0.0715 H   0  0  0  0  0  0  0  0  0  0  0  0
    5.1504    4.4092   -0.0416 H   0  0  0  0  0  0  0  0  0  0  0  0
    3.1428    5.7861   -0.0406 H   0  0  0  0  0  0  0  0  0  0  0  0
   -0.7397    3.9944   -0.0374 H   0  0  0  0  0  0  0  0  0  0  0  0
    0.6956    6.0182   -0.0391 H   0  0  0  0  0  0  0  0  0  0  0  0
    5.2905   -2.5552   -2.2864 H   0  0  0  0  0  0  0  0  0  0  0  0
    5.2048   -2.7832    2.0227 H   0  0  0  0  0  0  0  0  0  0  0  0
    6.2782   -4.8194   -2.3766 H   0  0  0  0  0  0  0  0  0  0  0  0
    6.2096   -5.0391    1.9137 H   0  0  0  0  0  0  0  0  0  0  0  0
    6.7159   -6.0749   -0.2826 H   0  0  0  0  0  0  0  0  0  0  0  0
  1  5  2  0  0  0  0
  2  3  2  0  0  0  0
  2  4  1  0  0  0  0
  2  5  1  0  0  0  0
  3  6  1  0  0  0  0
  3  7  1  0  0  0  0
  4  8  1  0  0  0  0
  4  9  2  0  0  0  0
  5 10  1  0  0  0  0
  6 11  2  0  0  0  0
  6 12  1  0  0  0  0
  7 13  2  0  0  0  0
  7 22  1  0  0  0  0
  8 14  1  0  0  0  0
  9 11  1  0  0  0  0
  9 23  1  0  0  0  0
 10 14  2  0  0  0  0
 10 24  1  0  0  0  0
 11 25  1  0  0  0  0
 12 15  2  0  0  0  0
 12 26  1  0  0  0  0
 13 15  1  0  0  0  0
 13 27  1  0  0  0  0
 14 16  1  0  0  0  0
 15 28  1  0  0  0  0
 16 17  2  0  0  0  0
 16 18  1  0  0  0  0
 17 19  1  0  0  0  0
 17 29  1  0  0  0  0
 18 20  2  0  0  0  0
 18 30  1  0  0  0  0
 19 21  2  0  0  0  0
 19 31  1  0  0  0  0
 20 21  1  0  0  0  0
 20 32  1  0  0  0  0
 21 33  1  0  0  0  0
M  END
>  <Mol_ID>
7461

>  <Formula>
C19H12O2

>  <MolWeight>
272.29738

>  <Cat>
E4565

>  <Name>
¦Â-Naphthoflavone

>  <Synonyms>
Dulcitol; Melampyrit; NSC 1944

>  <Target>
Sirtuin

>  <Form>
Free Base

>  <CAS>
6051-87-2

>  <URL>
https://www.selleckchem.com/products/dulcite.html

$$$$
