Naphazoline hydrochloride.cdx
 OpenBabel08302521393D

 30 32  0  0  0  0  0  0  0  0999 V2000
   -0.0272   -0.7399    0.0533 C   0  0  0  0  0  0  0  0  0  0  0  0
    1.2114   -1.3828   -0.0865 C   0  0  0  0  0  0  0  0  0  0  0  0
    2.3967   -0.6527   -0.1083 C   0  0  0  0  0  0  0  0  0  0  0  0
    2.3537    0.7342   -0.0261 C   0  0  0  0  0  0  0  0  0  0  0  0
    1.1269    1.4129    0.1019 C   0  0  0  0  0  0  0  0  0  0  0  0
   -0.0828    0.6707    0.1921 C   0  0  0  0  0  0  0  0  0  0  0  0
   -1.3534    1.2576    0.3911 C   0  0  0  0  0  0  0  0  0  0  0  0
   -2.5234    0.4927    0.3865 C   0  0  0  0  0  0  0  0  0  0  0  0
   -2.4548   -0.8798    0.1890 C   0  0  0  0  0  0  0  0  0  0  0  0
   -1.2133   -1.4934    0.0380 C   0  0  0  0  0  0  0  0  0  0  0  0
    1.1542    2.9268    0.0649 C   0  0  0  0  0  0  0  0  0  0  0  0
    1.3157    3.6160    1.3978 C   0  0  0  0  0  0  0  0  0  0  0  0
    0.8024    4.8068    1.5938 N   0  0  0  0  0  0  0  0  0  0  0  0
    1.2495    5.1746    2.9666 C   0  0  0  0  0  0  0  0  0  0  0  0
    1.7706    3.8860    3.6084 C   0  0  0  0  0  0  0  0  0  0  0  0
    2.0371    3.0842    2.4382 N   0  0  0  0  0  0  0  0  0  0  0  0
    1.2625   -2.4653   -0.1838 H   0  0  0  0  0  0  0  0  0  0  0  0
    3.3488   -1.1644   -0.2169 H   0  0  0  0  0  0  0  0  0  0  0  0
    3.2855    1.2948   -0.0864 H   0  0  0  0  0  0  0  0  0  0  0  0
   -1.4530    2.3283    0.5543 H   0  0  0  0  0  0  0  0  0  0  0  0
   -3.4868    0.9763    0.5260 H   0  0  0  0  0  0  0  0  0  0  0  0
   -3.3643   -1.4738    0.1563 H   0  0  0  0  0  0  0  0  0  0  0  0
   -1.1787   -2.5715   -0.1070 H   0  0  0  0  0  0  0  0  0  0  0  0
    1.9924    3.2564   -0.5651 H   0  0  0  0  0  0  0  0  0  0  0  0
    0.2620    3.3166   -0.4398 H   0  0  0  0  0  0  0  0  0  0  0  0
    0.4237    5.6052    3.5407 H   0  0  0  0  0  0  0  0  0  0  0  0
    2.0453    5.9244    2.8855 H   0  0  0  0  0  0  0  0  0  0  0  0
    2.6652    4.0541    4.2139 H   0  0  0  0  0  0  0  0  0  0  0  0
    0.9957    3.4162    4.2225 H   0  0  0  0  0  0  0  0  0  0  0  0
    2.0117    2.0737    2.5425 H   0  0  0  0  0  0  0  0  0  0  0  0
  1  2  2  0  0  0  0
  2  3  1  0  0  0  0
  2 17  1  0  0  0  0
  3  4  2  0  0  0  0
  3 18  1  0  0  0  0
  4  5  1  0  0  0  0
  4 19  1  0  0  0  0
  5  6  2  0  0  0  0
  5 11  1  0  0  0  0
  6  1  1  0  0  0  0
  6  7  1  0  0  0  0
  7  8  2  0  0  0  0
  7 20  1  0  0  0  0
  8  9  1  0  0  0  0
  8 21  1  0  0  0  0
  9 10  2  0  0  0  0
  9 22  1  0  0  0  0
 10  1  1  0  0  0  0
 10 23  1  0  0  0  0
 11 12  1  0  0  0  0
 11 24  1  0  0  0  0
 11 25  1  0  0  0  0
 12 13  2  0  0  0  0
 13 14  1  0  0  0  0
 14 15  1  0  0  0  0
 14 26  1  0  0  0  0
 14 27  1  0  0  0  0
 15 16  1  0  0  0  0
 15 28  1  0  0  0  0
 15 29  1  0  0  0  0
 16 12  1  0  0  0  0
 16 30  1  0  0  0  0
M  END
>  <Mol_ID>
781

>  <Formula>
C14H15ClN2

>  <MolWeight>
246.7353

>  <Cat>
S2519

>  <Name>
Naphazoline HCl

>  <Synonyms>
N/A

>  <Target>
Adrenergic Receptor

>  <Form>
Hydrochloride

>  <CAS>
550-99-2

>  <URL>
http://selleckchem.com/products/Naphazoline-hydrochloride-Naphcon.html

$$$$
