Naproxen sodium.cdx
 OpenBabel08302520383D

 30 31  0  0  0  0  0  0  0  0999 V2000
    2.4368   -0.7354   -0.0218 C   0  0  0  0  0  0  0  0  0  0  0  0
    2.4738    0.6571   -0.0254 C   0  0  0  0  0  0  0  0  0  0  0  0
    1.2724    1.3723   -0.0108 C   0  0  0  0  0  0  0  0  0  0  0  0
    0.0319    0.7128   -0.0022 C   0  0  0  0  0  0  0  0  0  0  0  0
   -0.0026   -0.6968   -0.0018 C   0  0  0  0  0  0  0  0  0  0  0  0
    1.2093   -1.4065   -0.0081 C   0  0  0  0  0  0  0  0  0  0  0  0
   -1.1770    1.4261    0.0097 C   0  0  0  0  0  0  0  0  0  0  0  0
   -2.4014    0.7545    0.0148 C   0  0  0  0  0  0  0  0  0  0  0  0
   -2.4521   -0.6444    0.0135 C   0  0  0  0  0  0  0  0  0  0  0  0
   -1.2431   -1.3590    0.0066 C   0  0  0  0  0  0  0  0  0  0  0  0
    3.6031    1.4313   -0.0432 O   0  0  0  0  0  0  0  0  0  0  0  0
    4.8468    0.7437   -0.0592 C   0  0  0  0  0  0  0  0  0  0  0  0
   -3.7805   -1.3851   -0.0126 C   0  0  1  0  0  0  0  0  0  0  0  0
   -4.6463   -1.0330    1.2188 C   0  0  0  0  0  0  0  0  0  0  0  0
   -5.4249   -0.0438    1.0948 O   0  5  0  0  0  0  0  0  0  0  0  0
   -4.4991   -1.8067    2.2140 O   0  0  0  0  0  0  0  0  0  0  0  0
   -4.5033   -1.1433   -1.3385 C   0  0  0  0  0  0  0  0  0  0  0  0
    3.3402   -1.3349   -0.0260 H   0  0  0  0  0  0  0  0  0  0  0  0
    1.3078    2.4589   -0.0047 H   0  0  0  0  0  0  0  0  0  0  0  0
    1.2003   -2.4935   -0.0003 H   0  0  0  0  0  0  0  0  0  0  0  0
   -1.1804    2.5119    0.0208 H   0  0  0  0  0  0  0  0  0  0  0  0
   -3.3284    1.3273    0.0380 H   0  0  0  0  0  0  0  0  0  0  0  0
   -1.2778   -2.4460    0.0186 H   0  0  0  0  0  0  0  0  0  0  0  0
    4.9845    0.1577    0.8555 H   0  0  0  0  0  0  0  0  0  0  0  0
    4.9408    0.1150   -0.9508 H   0  0  0  0  0  0  0  0  0  0  0  0
    5.6432    1.4931   -0.0973 H   0  0  0  0  0  0  0  0  0  0  0  0
   -3.5867   -2.4652    0.0501 H   0  0  0  0  0  0  0  0  0  0  0  0
   -3.8790   -1.4497   -2.1865 H   0  0  0  0  0  0  0  0  0  0  0  0
   -5.4349   -1.7178   -1.3842 H   0  0  0  0  0  0  0  0  0  0  0  0
   -4.7611   -0.0887   -1.4876 H   0  0  0  0  0  0  0  0  0  0  0  0
  1  2  2  0  0  0  0
  1 18  1  0  0  0  0
  2  3  1  0  0  0  0
  2 11  1  0  0  0  0
  3  4  2  0  0  0  0
  3 19  1  0  0  0  0
  4  5  1  0  0  0  0
  4  7  1  0  0  0  0
  5  6  2  0  0  0  0
  6  1  1  0  0  0  0
  6 20  1  0  0  0  0
  7  8  2  0  0  0  0
  7 21  1  0  0  0  0
  8  9  1  0  0  0  0
  8 22  1  0  0  0  0
  9 10  2  0  0  0  0
  9 13  1  0  0  0  0
 10  5  1  0  0  0  0
 10 23  1  0  0  0  0
 11 12  1  0  0  0  0
 12 24  1  0  0  0  0
 12 25  1  0  0  0  0
 12 26  1  0  0  0  0
 13 14  1  0  0  0  0
 13 17  1  0  0  0  0
 13 27  1  1  0  0  0
 14 15  1  0  0  0  0
 14 16  2  0  0  0  0
 17 28  1  0  0  0  0
 17 29  1  0  0  0  0
 17 30  1  0  0  0  0
M  CHG  1  15  -1
M  END
>  <Mol_ID>
356

>  <Formula>
C14H13NaO3

>  <MolWeight>
252.24099

>  <Cat>
S1626

>  <Name>
Naproxen Sodium

>  <Synonyms>
RS-3650

>  <Target>
COX

>  <Form>
Sodium Salt

>  <CAS>
26159-34-2

>  <URL>
http://selleckchem.com/products/Naproxen-Sodium(Aleve).html

$$$$
