NAQUIVAL (trichlormethiazide).cdx
 OpenBabel08302522013D

 28 29  0  0  0  0  0  0  0  0999 V2000
    2.4743   -0.6586   -0.0470 C   0  0  0  0  0  0  0  0  0  0  0  0
    2.5119    0.7361    0.0060 C   0  0  0  0  0  0  0  0  0  0  0  0
    1.3308    1.4707    0.0527 C   0  0  0  0  0  0  0  0  0  0  0  0
    0.1104    0.7944    0.0305 C   0  0  0  0  0  0  0  0  0  0  0  0
    0.0274   -0.6004   -0.0024 C   0  0  0  0  0  0  0  0  0  0  0  0
    1.2342   -1.3152   -0.0717 C   0  0  0  0  0  0  0  0  0  0  0  0
   -1.3581    1.7503    0.0204 S   0  0  0  0  0  0  0  0  0  0  0  0
   -2.5696    0.6349   -0.2589 N   0  0  0  0  0  0  0  0  0  0  0  0
   -2.3896   -0.6467    0.3957 C   0  0  3  0  0  0  0  0  0  0  0  0
   -1.1823   -1.2848   -0.0849 N   0  0  0  0  0  0  0  0  0  0  0  0
    4.0450    1.6115    0.0331 S   0  0  0  0  0  0  0  0  0  0  0  0
    3.8454    2.8926    0.6782 O   0  0  0  0  0  0  0  0  0  0  0  0
    5.1010    0.7076    0.4201 O   0  0  0  0  0  0  0  0  0  0  0  0
    4.2721    1.9413   -1.5941 N   0  0  0  0  0  0  0  0  0  0  0  0
   -1.3199    2.6386   -1.1190 O   0  0  0  0  0  0  0  0  0  0  0  0
   -1.5606    2.2632    1.3583 O   0  0  0  0  0  0  0  0  0  0  0  0
   -2.4356   -0.5791    1.9196 C   0  0  0  0  0  0  0  0  0  0  0  0
    3.3935   -1.2395   -0.0825 H   0  0  0  0  0  0  0  0  0  0  0  0
    1.3495    2.5588    0.0932 H   0  0  0  0  0  0  0  0  0  0  0  0
    1.2226   -2.4011   -0.1422 H   0  0  0  0  0  0  0  0  0  0  0  0
   -3.4657    1.0579   -0.0251 H   0  0  0  0  0  0  0  0  0  0  0  0
   -3.2356   -1.2693    0.0795 H   0  0  0  0  0  0  0  0  0  0  0  0
   -1.1244   -2.2716    0.1458 H   0  0  0  0  0  0  0  0  0  0  0  0
    4.0405    2.9125   -1.8033 H   0  0  0  0  0  0  0  0  0  0  0  0
    5.2170    1.6745   -1.8714 H   0  0  0  0  0  0  0  0  0  0  0  0
   -3.2972    0.0026    2.2636 H   0  0  0  0  0  0  0  0  0  0  0  0
   -2.5123   -1.5868    2.3426 H   0  0  0  0  0  0  0  0  0  0  0  0
   -1.5353   -0.1316    2.3524 H   0  0  0  0  0  0  0  0  0  0  0  0
  1  2  2  0  0  0  0
  1 18  1  0  0  0  0
  2  3  1  0  0  0  0
  2 11  1  0  0  0  0
  3  4  2  0  0  0  0
  3 19  1  0  0  0  0
  4  5  1  0  0  0  0
  4  7  1  0  0  0  0
  5  6  2  0  0  0  0
  6  1  1  0  0  0  0
  6 20  1  0  0  0  0
  7  8  1  0  0  0  0
  7 15  2  0  0  0  0
  7 16  2  0  0  0  0
  8  9  1  0  0  0  0
  8 21  1  0  0  0  0
  9 10  1  0  0  0  0
  9 17  1  0  0  0  0
  9 22  1  0  0  0  0
 10  5  1  0  0  0  0
 10 23  1  0  0  0  0
 11 12  2  0  0  0  0
 11 13  2  0  0  0  0
 11 14  1  0  0  0  0
 14 24  1  0  0  0  0
 14 25  1  0  0  0  0
 17 26  1  0  0  0  0
 17 27  1  0  0  0  0
 17 28  1  0  0  0  0
M  END
>  <Mol_ID>
1108

>  <Formula>
C8H8Cl3N3O4S2

>  <MolWeight>
380.65582

>  <Cat>
S1667

>  <Name>
Trichlormethiazide

>  <Synonyms>
N/A

>  <Target>
Others

>  <Form>
free base

>  <CAS>
133-67-5

>  <URL>
http://selleckchem.com/products/Trichlormethiazide(Achletin).html

$$$$
