Naringenin.cdx
 OpenBabel08302521323D

 32 34  0  0  0  0  0  0  0  0999 V2000
   -2.3286   -0.2430   -0.0067 C   0  0  0  0  0  0  0  0  0  0  0  0
   -1.8826    1.0737   -0.0635 C   0  0  0  0  0  0  0  0  0  0  0  0
   -0.5157    1.3315   -0.0828 C   0  0  0  0  0  0  0  0  0  0  0  0
    0.4008    0.2720   -0.0455 C   0  0  0  0  0  0  0  0  0  0  0  0
   -0.0548   -1.0462    0.0066 C   0  0  0  0  0  0  0  0  0  0  0  0
   -1.4269   -1.3058    0.0294 C   0  0  0  0  0  0  0  0  0  0  0  0
    1.8513    0.5176    0.0144 C   0  0  0  0  0  0  0  0  0  0  0  0
    2.7161   -0.6637    0.3382 C   0  0  0  0  0  0  0  0  0  0  0  0
    2.1246   -1.9012   -0.3283 C   0  0  2  0  0  0  0  0  0  0  0  0
    0.7694   -2.1377    0.0907 O   0  0  0  0  0  0  0  0  0  0  0  0
   -3.6755   -0.4531    0.0217 O   0  0  0  0  0  0  0  0  0  0  0  0
   -0.1363    2.6465   -0.1117 O   0  0  0  0  0  0  0  0  0  0  0  0
    2.2896    1.6569   -0.1054 O   0  0  0  0  0  0  0  0  0  0  0  0
    2.9258   -3.1492    0.0152 C   0  0  0  0  0  0  0  0  0  0  0  0
    3.0654   -3.5736    1.3496 C   0  0  0  0  0  0  0  0  0  0  0  0
    3.8018   -4.7165    1.6706 C   0  0  0  0  0  0  0  0  0  0  0  0
    4.3985   -5.4516    0.6543 C   0  0  0  0  0  0  0  0  0  0  0  0
    4.2701   -5.0601   -0.6721 C   0  0  0  0  0  0  0  0  0  0  0  0
    3.5364   -3.9125   -0.9931 C   0  0  0  0  0  0  0  0  0  0  0  0
    5.1223   -6.5764    0.9210 O   0  0  0  0  0  0  0  0  0  0  0  0
   -2.5952    1.8939   -0.0780 H   0  0  0  0  0  0  0  0  0  0  0  0
   -1.7746   -2.3334    0.0779 H   0  0  0  0  0  0  0  0  0  0  0  0
    2.7426   -0.7468    1.4307 H   0  0  0  0  0  0  0  0  0  0  0  0
    3.7312   -0.4776   -0.0262 H   0  0  0  0  0  0  0  0  0  0  0  0
    2.1155   -1.7696   -1.4205 H   0  0  0  0  0  0  0  0  0  0  0  0
   -3.8503   -1.4072    0.0742 H   0  0  0  0  0  0  0  0  0  0  0  0
    0.8467    2.6849   -0.1212 H   0  0  0  0  0  0  0  0  0  0  0  0
    2.5914   -3.0148    2.1546 H   0  0  0  0  0  0  0  0  0  0  0  0
    3.8927   -5.0155    2.7108 H   0  0  0  0  0  0  0  0  0  0  0  0
    4.7378   -5.6501   -1.4556 H   0  0  0  0  0  0  0  0  0  0  0  0
    3.4468   -3.6296   -2.0396 H   0  0  0  0  0  0  0  0  0  0  0  0
    5.1181   -6.7295    1.8801 H   0  0  0  0  0  0  0  0  0  0  0  0
  1  2  2  0  0  0  0
  1 11  1  0  0  0  0
  2  3  1  0  0  0  0
  2 21  1  0  0  0  0
  3  4  2  0  0  0  0
  3 12  1  0  0  0  0
  4  5  1  0  0  0  0
  4  7  1  0  0  0  0
  5  6  2  0  0  0  0
  6  1  1  0  0  0  0
  6 22  1  0  0  0  0
  7  8  1  0  0  0  0
  7 13  2  0  0  0  0
  8  9  1  0  0  0  0
  8 23  1  0  0  0  0
  8 24  1  0  0  0  0
  9 10  1  0  0  0  0
  9 14  1  0  0  0  0
  9 25  1  6  0  0  0
 10  5  1  0  0  0  0
 11 26  1  0  0  0  0
 12 27  1  0  0  0  0
 14 15  2  0  0  0  0
 15 16  1  0  0  0  0
 15 28  1  0  0  0  0
 16 17  2  0  0  0  0
 16 29  1  0  0  0  0
 17 18  1  0  0  0  0
 17 20  1  0  0  0  0
 18 19  2  0  0  0  0
 18 30  1  0  0  0  0
 19 14  1  0  0  0  0
 19 31  1  0  0  0  0
 20 32  1  0  0  0  0
M  END
>  <Mol_ID>
595

>  <Formula>
C15H12O5

>  <MolWeight>
272.25278

>  <Cat>
S2394

>  <Name>
Naringenin

>  <Synonyms>
NSC 34875, S-Dihydrogenistein, NSC 11855, Salipurol

>  <Target>
P450 (e.g. CYP17)

>  <Form>
free base

>  <CAS>
480-41-1

>  <URL>
http://selleckchem.com/products/naringenin.html

$$$$
