nateglinide.cdx
 OpenBabel08302521383D

 50 51  0  0  0  0  0  0  0  0999 V2000
    9.3521    1.4782    0.3403 C   0  0  0  0  0  0  0  0  0  0  0  0
   10.2752    2.6072    0.8327 C   0  0  2  0  0  0  0  0  0  0  0  0
    9.7694    3.9625    0.3124 C   0  0  0  0  0  0  0  0  0  0  0  0
    8.3124    4.2142    0.6934 C   0  0  0  0  0  0  0  0  0  0  0  0
    7.3853    3.0936    0.2122 C   0  0  1  0  0  0  0  0  0  0  0  0
    7.8901    1.7274    0.7001 C   0  0  0  0  0  0  0  0  0  0  0  0
   11.7674    2.3202    0.4993 C   0  0  0  0  0  0  0  0  0  0  0  0
   12.0585    2.1501   -0.9950 C   0  0  0  0  0  0  0  0  0  0  0  0
   12.6987    3.3908    1.0794 C   0  0  0  0  0  0  0  0  0  0  0  0
    5.9546    3.3307    0.6922 C   0  0  0  0  0  0  0  0  0  0  0  0
    5.3935    4.5101    0.2720 N   0  0  0  0  0  0  0  0  0  0  0  0
    5.3340    2.5266    1.3844 O   0  0  0  0  0  0  0  0  0  0  0  0
    4.0424    4.9027    0.6729 C   0  0  2  0  0  0  0  0  0  0  0  0
    2.9574    4.3144   -0.2419 C   0  0  0  0  0  0  0  0  0  0  0  0
    3.0095    4.8021   -1.6734 C   0  0  0  0  0  0  0  0  0  0  0  0
    3.9706    6.4234    0.7765 C   0  0  0  0  0  0  0  0  0  0  0  0
    4.8273    7.2190    0.4171 O   0  0  0  0  0  0  0  0  0  0  0  0
    2.8420    6.8629    1.3720 O   0  0  0  0  0  0  0  0  0  0  0  0
    3.7736    4.1235   -2.6314 C   0  0  0  0  0  0  0  0  0  0  0  0
    3.8497    4.6000   -3.9420 C   0  0  0  0  0  0  0  0  0  0  0  0
    3.1591    5.7549   -4.3060 C   0  0  0  0  0  0  0  0  0  0  0  0
    2.3838    6.4266   -3.3648 C   0  0  0  0  0  0  0  0  0  0  0  0
    2.3063    5.9533   -2.0555 C   0  0  0  0  0  0  0  0  0  0  0  0
    9.4211    1.3719   -0.7479 H   0  0  0  0  0  0  0  0  0  0  0  0
    9.6695    0.5238    0.7769 H   0  0  0  0  0  0  0  0  0  0  0  0
   10.1969    2.6322    1.9302 H   0  0  0  0  0  0  0  0  0  0  0  0
   10.3677    4.7810    0.7257 H   0  0  0  0  0  0  0  0  0  0  0  0
    9.8655    4.0117   -0.7780 H   0  0  0  0  0  0  0  0  0  0  0  0
    8.2314    4.3209    1.7831 H   0  0  0  0  0  0  0  0  0  0  0  0
    8.0065    5.1775    0.2690 H   0  0  0  0  0  0  0  0  0  0  0  0
    7.3634    3.0869   -0.8857 H   0  0  0  0  0  0  0  0  0  0  0  0
    7.2736    0.9302    0.2654 H   0  0  0  0  0  0  0  0  0  0  0  0
    7.7724    1.6490    1.7888 H   0  0  0  0  0  0  0  0  0  0  0  0
   12.0324    1.3718    0.9870 H   0  0  0  0  0  0  0  0  0  0  0  0
   11.8037    3.0483   -1.5644 H   0  0  0  0  0  0  0  0  0  0  0  0
   13.1228    1.9459   -1.1566 H   0  0  0  0  0  0  0  0  0  0  0  0
   11.5088    1.3044   -1.4182 H   0  0  0  0  0  0  0  0  0  0  0  0
   12.5655    3.4770    2.1626 H   0  0  0  0  0  0  0  0  0  0  0  0
   13.7471    3.1353    0.8914 H   0  0  0  0  0  0  0  0  0  0  0  0
   12.5215    4.3732    0.6310 H   0  0  0  0  0  0  0  0  0  0  0  0
    5.8958    5.1409   -0.3448 H   0  0  0  0  0  0  0  0  0  0  0  0
    3.8885    4.5201    1.6900 H   0  0  0  0  0  0  0  0  0  0  0  0
    3.0328    3.2188   -0.2432 H   0  0  0  0  0  0  0  0  0  0  0  0
    1.9647    4.5390    0.1689 H   0  0  0  0  0  0  0  0  0  0  0  0
    2.9619    7.8350    1.4253 H   0  0  0  0  0  0  0  0  0  0  0  0
    4.3116    3.2162   -2.3648 H   0  0  0  0  0  0  0  0  0  0  0  0
    4.4465    4.0696   -4.6789 H   0  0  0  0  0  0  0  0  0  0  0  0
    3.2240    6.1285   -5.3249 H   0  0  0  0  0  0  0  0  0  0  0  0
    1.8372    7.3234   -3.6513 H   0  0  0  0  0  0  0  0  0  0  0  0
    1.6921    6.4893   -1.3358 H   0  0  0  0  0  0  0  0  0  0  0  0
  1  2  1  0  0  0  0
  1 24  1  0  0  0  0
  1 25  1  0  0  0  0
  2  3  1  0  0  0  0
  2 26  1  1  0  0  0
  2  7  1  0  0  0  0
  3  4  1  0  0  0  0
  3 27  1  0  0  0  0
  3 28  1  0  0  0  0
  4  5  1  0  0  0  0
  4 29  1  0  0  0  0
  4 30  1  0  0  0  0
  5  6  1  0  0  0  0
  5 10  1  0  0  0  0
  5 31  1  6  0  0  0
  6  1  1  0  0  0  0
  6 32  1  0  0  0  0
  6 33  1  0  0  0  0
  7  8  1  0  0  0  0
  7  9  1  0  0  0  0
  7 34  1  0  0  0  0
  8 35  1  0  0  0  0
  8 36  1  0  0  0  0
  8 37  1  0  0  0  0
  9 38  1  0  0  0  0
  9 39  1  0  0  0  0
  9 40  1  0  0  0  0
 10 11  1  0  0  0  0
 10 12  2  0  0  0  0
 11 41  1  0  0  0  0
 13 16  1  0  0  0  0
 13 42  1  1  0  0  0
 13 14  1  0  0  0  0
 13 11  1  0  0  0  0
 14 15  1  0  0  0  0
 14 43  1  0  0  0  0
 14 44  1  0  0  0  0
 15 19  2  0  0  0  0
 16 17  2  0  0  0  0
 16 18  1  0  0  0  0
 18 45  1  0  0  0  0
 19 20  1  0  0  0  0
 19 46  1  0  0  0  0
 20 21  2  0  0  0  0
 20 47  1  0  0  0  0
 21 22  1  0  0  0  0
 21 48  1  0  0  0  0
 22 23  2  0  0  0  0
 22 49  1  0  0  0  0
 23 15  1  0  0  0  0
 23 50  1  0  0  0  0
M  END
>  <Mol_ID>
762

>  <Formula>
C19H27NO3

>  <MolWeight>
317.42258

>  <Cat>
S2489

>  <Name>
Nateglinide

>  <Synonyms>
Starlix,A-4166,SDZ DJN 608

>  <Target>
Potassium Channel

>  <Form>
free base

>  <CAS>
105816-04-4

>  <URL>
http://selleckchem.com/products/Nateglinide(Starlix).html

$$$$
