Navarixin (SCH-527123)
 OpenBabel08302521233D

 52 54  0  0  0  0  0  0  0  0999 V2000
   -1.5529    5.4753    9.1840 C   0  0  0  0  0  0  0  0  0  0  0  0
   -1.4972    5.1964    7.7183 C   0  0  0  0  0  0  0  0  0  0  0  0
   -2.4798    5.7026    6.8519 C   0  0  0  0  0  0  0  0  0  0  0  0
   -2.4959    5.3761    5.4719 C   0  0  0  0  0  0  0  0  0  0  0  0
   -1.4583    4.5921    4.9686 C   0  0  0  0  0  0  0  0  0  0  0  0
   -0.4282    4.1587    5.8015 C   0  0  0  0  0  0  0  0  0  0  0  0
   -0.4289    4.4840    7.1609 C   0  0  0  0  0  0  0  0  0  0  0  0
   -2.0641    6.5510    9.5115 O   0  0  0  0  0  0  0  0  0  0  0  0
   -1.0621    4.5689   10.1328 N   0  0  0  0  0  0  0  0  0  0  0  0
   -3.5482    5.8777    4.6600 N   0  0  0  0  0  0  0  0  0  0  0  0
   -3.8335    5.6066    3.3992 C   0  0  0  0  0  0  0  0  0  0  0  0
   -3.2935    5.6854    2.1317 C   0  0  0  0  0  0  0  0  0  0  0  0
   -4.5648    5.1940    1.5229 C   0  0  0  0  0  0  0  0  0  0  0  0
   -5.1531    5.1882    2.8767 C   0  0  0  0  0  0  0  0  0  0  0  0
   -6.2503    4.9115    3.2989 O   0  0  0  0  0  0  0  0  0  0  0  0
   -5.0222    4.9054    0.4439 O   0  0  0  0  0  0  0  0  0  0  0  0
   -2.1674    6.0709    1.5425 N   0  0  0  0  0  0  0  0  0  0  0  0
   -2.1815    6.9946    0.3734 C   0  0  2  0  0  0  0  0  0  0  0  0
   -2.2518    6.2244   -0.9641 C   0  0  0  0  0  0  0  0  0  0  0  0
   -1.0346    5.3459   -1.2321 C   0  0  0  0  0  0  0  0  0  0  0  0
    0.0143    7.8672    1.1613 O   0  0  0  0  0  0  0  0  0  0  0  0
   -1.0347    7.9846    0.2875 C   0  0  0  0  0  0  0  0  0  0  0  0
   -0.7712    8.9923   -0.6237 C   0  0  0  0  0  0  0  0  0  0  0  0
    0.5222    9.4743   -0.3364 C   0  0  0  0  0  0  0  0  0  0  0  0
    0.9556    8.7815    0.7719 C   0  0  0  0  0  0  0  0  0  0  0  0
    2.2068    8.8534    1.5542 C   0  0  0  0  0  0  0  0  0  0  0  0
   -0.7221    3.1663    9.9215 C   0  0  0  0  0  0  0  0  0  0  0  0
   -0.9651    5.0350   11.5074 C   0  0  0  0  0  0  0  0  0  0  0  0
   -3.4928    6.5299    7.2995 O   0  0  0  0  0  0  0  0  0  0  0  0
   -1.4405    4.3011    3.9216 H   0  0  0  0  0  0  0  0  0  0  0  0
    0.3753    3.5506    5.3959 H   0  0  0  0  0  0  0  0  0  0  0  0
    0.4099    4.1712    7.7723 H   0  0  0  0  0  0  0  0  0  0  0  0
   -4.3170    6.0998    5.3058 H   0  0  0  0  0  0  0  0  0  0  0  0
   -1.3552    6.2966    2.1239 H   0  0  0  0  0  0  0  0  0  0  0  0
   -3.0894    7.6111    0.4513 H   0  0  0  0  0  0  0  0  0  0  0  0
   -3.1513    5.6061   -1.0180 H   0  0  0  0  0  0  0  0  0  0  0  0
   -2.3430    6.9459   -1.7883 H   0  0  0  0  0  0  0  0  0  0  0  0
   -1.1066    4.4112   -0.6705 H   0  0  0  0  0  0  0  0  0  0  0  0
   -0.9776    5.1029   -2.2981 H   0  0  0  0  0  0  0  0  0  0  0  0
   -0.0966    5.8369   -0.9587 H   0  0  0  0  0  0  0  0  0  0  0  0
   -1.4123    9.2926   -1.4409 H   0  0  0  0  0  0  0  0  0  0  0  0
    1.0788   10.2297   -0.8742 H   0  0  0  0  0  0  0  0  0  0  0  0
    2.0049    9.2057    2.5695 H   0  0  0  0  0  0  0  0  0  0  0  0
    2.6965    7.8772    1.6068 H   0  0  0  0  0  0  0  0  0  0  0  0
    2.9090    9.5559    1.0900 H   0  0  0  0  0  0  0  0  0  0  0  0
    0.3516    3.0453   10.0997 H   0  0  0  0  0  0  0  0  0  0  0  0
   -1.2735    2.5535   10.6417 H   0  0  0  0  0  0  0  0  0  0  0  0
   -0.9795    2.8050    8.9273 H   0  0  0  0  0  0  0  0  0  0  0  0
   -0.2497    5.8617   11.5477 H   0  0  0  0  0  0  0  0  0  0  0  0
   -1.9422    5.3860   11.8517 H   0  0  0  0  0  0  0  0  0  0  0  0
   -0.6178    4.2324   12.1665 H   0  0  0  0  0  0  0  0  0  0  0  0
   -3.2171    6.8713    8.1818 H   0  0  0  0  0  0  0  0  0  0  0  0
  1  2  1  0  0  0  0
  1  8  2  0  0  0  0
  1  9  1  0  0  0  0
  2  3  2  0  0  0  0
  2  7  1  0  0  0  0
  3  4  1  0  0  0  0
  3 29  1  0  0  0  0
  4  5  2  0  0  0  0
  4 10  1  0  0  0  0
  5  6  1  0  0  0  0
  5 30  1  0  0  0  0
  6  7  2  0  0  0  0
  6 31  1  0  0  0  0
  7 32  1  0  0  0  0
  9 27  1  0  0  0  0
  9 28  1  0  0  0  0
 10 11  1  0  0  0  0
 10 33  1  0  0  0  0
 11 12  2  0  0  0  0
 11 14  1  0  0  0  0
 12 13  1  0  0  0  0
 12 17  1  0  0  0  0
 13 14  1  0  0  0  0
 13 16  2  0  0  0  0
 14 15  2  0  0  0  0
 17 34  1  0  0  0  0
 18 22  1  0  0  0  0
 18 35  1  1  0  0  0
 18 17  1  0  0  0  0
 18 19  1  0  0  0  0
 19 20  1  0  0  0  0
 19 36  1  0  0  0  0
 19 37  1  0  0  0  0
 20 38  1  0  0  0  0
 20 39  1  0  0  0  0
 20 40  1  0  0  0  0
 21 22  1  0  0  0  0
 21 25  1  0  0  0  0
 22 23  2  0  0  0  0
 23 24  1  0  0  0  0
 23 41  1  0  0  0  0
 24 25  2  0  0  0  0
 24 42  1  0  0  0  0
 25 26  1  0  0  0  0
 26 43  1  0  0  0  0
 26 44  1  0  0  0  0
 26 45  1  0  0  0  0
 27 46  1  0  0  0  0
 27 47  1  0  0  0  0
 27 48  1  0  0  0  0
 28 49  1  0  0  0  0
 28 50  1  0  0  0  0
 28 51  1  0  0  0  0
 29 52  1  0  0  0  0
M  END
>  <Mol_ID>
4801

>  <Formula>
C21H23N3O5

>  <MolWeight>
397.42442

>  <Cat>
S8506

>  <Name>
Navarixin (SCH-527123)

>  <Synonyms>
MK-7123, PS-291822

>  <Target>
CXCR

>  <Form>
Free Base

>  <CAS>
473727-83-2

>  <URL>
http://www.selleck.cn/products/sch-527123.html

$$$$
