NBD-556
 OpenBabel08302521333D

 47 48  0  0  0  0  0  0  0  0999 V2000
   -1.2655    0.6728    0.3448 C   0  0  0  0  0  0  0  0  0  0  0  0
    0.2631    0.4302    0.3383 C   0  0  0  0  0  0  0  0  0  0  0  0
   -1.9209   -0.0229    1.1207 O   0  0  0  0  0  0  0  0  0  0  0  0
   -1.9302    1.5951   -0.4400 N   0  0  0  0  0  0  0  0  0  0  0  0
    0.9138    0.4915   -0.6911 O   0  0  0  0  0  0  0  0  0  0  0  0
    0.7824    0.0822    1.5943 N   0  0  0  0  0  0  0  0  0  0  0  0
    5.0393   -0.0930    0.9825 N   0  0  0  0  0  0  0  0  0  0  0  0
    4.4006   -1.3815    1.2383 C   0  0  0  0  0  0  0  0  0  0  0  0
    2.8515   -1.3301    1.2836 C   0  0  0  0  0  0  0  0  0  0  0  0
    2.2290   -0.0811    1.9168 C   0  0  0  0  0  0  0  0  0  0  0  0
    2.9564    1.2254    1.6079 C   0  0  0  0  0  0  0  0  0  0  0  0
    4.4865    1.1698    1.4685 C   0  0  0  0  0  0  0  0  0  0  0  0
    4.8843    2.2041    0.3815 C   0  0  0  0  0  0  0  0  0  0  0  0
    5.1582    1.6684    2.7661 C   0  0  0  0  0  0  0  0  0  0  0  0
    4.7894   -2.3017    0.0462 C   0  0  0  0  0  0  0  0  0  0  0  0
    5.0340   -2.0644    2.4699 C   0  0  0  0  0  0  0  0  0  0  0  0
   -1.6022    2.6692   -1.2938 C   0  0  0  0  0  0  0  0  0  0  0  0
   -0.3204    3.1322   -1.5896 C   0  0  0  0  0  0  0  0  0  0  0  0
   -0.1377    4.2499   -2.4199 C   0  0  0  0  0  0  0  0  0  0  0  0
   -1.2263    4.9353   -2.9588 C   0  0  0  0  0  0  0  0  0  0  0  0
   -2.5092    4.4881   -2.6811 C   0  0  0  0  0  0  0  0  0  0  0  0
   -2.6921    3.3663   -1.8618 C   0  0  0  0  0  0  0  0  0  0  0  0
   -2.9272    1.4706   -0.3037 H   0  0  0  0  0  0  0  0  0  0  0  0
    0.0962   -0.0797    2.3246 H   0  0  0  0  0  0  0  0  0  0  0  0
    6.0498   -0.1367    1.1080 H   0  0  0  0  0  0  0  0  0  0  0  0
    2.4816   -2.2119    1.8300 H   0  0  0  0  0  0  0  0  0  0  0  0
    2.4551   -1.4431    0.2683 H   0  0  0  0  0  0  0  0  0  0  0  0
    2.2566   -0.2289    3.0050 H   0  0  0  0  0  0  0  0  0  0  0  0
    2.6827    1.9384    2.4008 H   0  0  0  0  0  0  0  0  0  0  0  0
    2.5381    1.6687    0.6994 H   0  0  0  0  0  0  0  0  0  0  0  0
    5.9726    2.2644    0.2597 H   0  0  0  0  0  0  0  0  0  0  0  0
    4.4523    1.9502   -0.5932 H   0  0  0  0  0  0  0  0  0  0  0  0
    4.5292    3.2083    0.6467 H   0  0  0  0  0  0  0  0  0  0  0  0
    4.8924    1.0668    3.6374 H   0  0  0  0  0  0  0  0  0  0  0  0
    6.2508    1.6897    2.6714 H   0  0  0  0  0  0  0  0  0  0  0  0
    4.8515    2.7052    2.9726 H   0  0  0  0  0  0  0  0  0  0  0  0
    5.8775   -2.3918   -0.0640 H   0  0  0  0  0  0  0  0  0  0  0  0
    4.3969   -3.3169    0.1929 H   0  0  0  0  0  0  0  0  0  0  0  0
    4.3900   -1.9300   -0.9040 H   0  0  0  0  0  0  0  0  0  0  0  0
    4.6725   -3.0968    2.5755 H   0  0  0  0  0  0  0  0  0  0  0  0
    6.1253   -2.1444    2.3528 H   0  0  0  0  0  0  0  0  0  0  0  0
    4.8362   -1.5372    3.4047 H   0  0  0  0  0  0  0  0  0  0  0  0
    0.5665    2.6613   -1.1955 H   0  0  0  0  0  0  0  0  0  0  0  0
    0.8712    4.5925   -2.6442 H   0  0  0  0  0  0  0  0  0  0  0  0
   -1.0721    5.8085   -3.5919 H   0  0  0  0  0  0  0  0  0  0  0  0
   -3.3703    5.0109   -3.0959 H   0  0  0  0  0  0  0  0  0  0  0  0
   -3.7156    3.0513   -1.6677 H   0  0  0  0  0  0  0  0  0  0  0  0
  1  2  1  0  0  0  0
  1  3  2  0  0  0  0
  1  4  1  0  0  0  0
  2  5  2  0  0  0  0
  2  6  1  0  0  0  0
  4 17  1  0  0  0  0
  4 23  1  0  0  0  0
  6 10  1  0  0  0  0
  6 24  1  0  0  0  0
  7  8  1  0  0  0  0
  7 12  1  0  0  0  0
  7 25  1  0  0  0  0
  8  9  1  0  0  0  0
  8 15  1  0  0  0  0
  8 16  1  0  0  0  0
  9 10  1  0  0  0  0
  9 26  1  0  0  0  0
  9 27  1  0  0  0  0
 10 11  1  0  0  0  0
 10 28  1  0  0  0  0
 11 12  1  0  0  0  0
 11 29  1  0  0  0  0
 11 30  1  0  0  0  0
 12 13  1  0  0  0  0
 12 14  1  0  0  0  0
 13 31  1  0  0  0  0
 13 32  1  0  0  0  0
 13 33  1  0  0  0  0
 14 34  1  0  0  0  0
 14 35  1  0  0  0  0
 14 36  1  0  0  0  0
 15 37  1  0  0  0  0
 15 38  1  0  0  0  0
 15 39  1  0  0  0  0
 16 40  1  0  0  0  0
 16 41  1  0  0  0  0
 16 42  1  0  0  0  0
 17 18  2  0  0  0  0
 17 22  1  0  0  0  0
 18 19  1  0  0  0  0
 18 43  1  0  0  0  0
 19 20  2  0  0  0  0
 19 44  1  0  0  0  0
 20 21  1  0  0  0  0
 20 45  1  0  0  0  0
 21 22  2  0  0  0  0
 21 46  1  0  0  0  0
 22 47  1  0  0  0  0
M  END
>  <Mol_ID>
6374

>  <Formula>
C17H24ClN3O2

>  <MolWeight>
337.84436

>  <Cat>
E0943

>  <Name>
NBD-556

>  <Target>
HIV Protease

>  <Form>
free base

>  <CAS>
333353-44-9

>  <URL>
http://www.selleckchem.com/products/nbd-556.html

$$$$
