NBQX (FG9202)
 OpenBabel08302521303D

 31 33  0  0  0  0  0  0  0  0999 V2000
    2.9022    0.7940   -0.1075 N   0  0  0  0  0  0  0  0  0  0  0  0
    3.6092   -0.3850   -0.1250 C   0  0  0  0  0  0  0  0  0  0  0  0
    2.7697   -1.6772   -0.1195 C   0  0  0  0  0  0  0  0  0  0  0  0
    1.3991   -1.5324   -0.1046 N   0  0  0  0  0  0  0  0  0  0  0  0
    0.7198   -0.2955   -0.0742 C   0  0  0  0  0  0  0  0  0  0  0  0
   -0.7133   -0.2247   -0.0270 C   0  0  0  0  0  0  0  0  0  0  0  0
   -1.3936    1.0432    0.0289 C   0  0  0  0  0  0  0  0  0  0  0  0
   -0.5045    2.1829    0.0973 C   0  0  0  0  0  0  0  0  0  0  0  0
    0.9004    2.0986    0.0105 C   0  0  0  0  0  0  0  0  0  0  0  0
    1.5038    0.8605   -0.0747 C   0  0  0  0  0  0  0  0  0  0  0  0
   -2.8540    0.9846    0.0102 C   0  0  0  0  0  0  0  0  0  0  0  0
   -3.5506   -0.2371    0.0244 C   0  0  0  0  0  0  0  0  0  0  0  0
   -2.8661   -1.4308    0.0137 C   0  0  0  0  0  0  0  0  0  0  0  0
   -1.4796   -1.4170   -0.0278 C   0  0  0  0  0  0  0  0  0  0  0  0
   -3.9391    2.3849   -0.3304 S   0  0  0  0  0  0  0  0  0  0  0  0
   -3.1583    3.3903   -1.0028 O   0  0  0  0  0  0  0  0  0  0  0  0
   -5.1585    1.8769   -0.9182 O   0  0  0  0  0  0  0  0  0  0  0  0
   -4.3624    2.9329    1.1839 N   0  0  0  0  0  0  0  0  0  0  0  0
    4.8297   -0.4062   -0.1342 O   0  0  0  0  0  0  0  0  0  0  0  0
    3.2902   -2.7843   -0.1225 O   0  0  0  0  0  0  0  0  0  0  0  0
   -0.9612    3.4925    0.5413 N   0  3  0  0  0  0  0  0  0  0  0  0
   -1.6271    3.5133    1.5887 O   0  0  0  0  0  0  0  0  0  0  0  0
   -0.5467    4.4850   -0.0750 O   0  5  0  0  0  0  0  0  0  0  0  0
    3.4685    1.6322   -0.0997 H   0  0  0  0  0  0  0  0  0  0  0  0
    0.9098   -2.4142   -0.0975 H   0  0  0  0  0  0  0  0  0  0  0  0
    1.5113    2.9989    0.0743 H   0  0  0  0  0  0  0  0  0  0  0  0
   -4.6392   -0.2689   -0.0104 H   0  0  0  0  0  0  0  0  0  0  0  0
   -3.4072   -2.3744   -0.0066 H   0  0  0  0  0  0  0  0  0  0  0  0
   -1.0128   -2.3976   -0.0687 H   0  0  0  0  0  0  0  0  0  0  0  0
   -3.6386    2.9445    1.9028 H   0  0  0  0  0  0  0  0  0  0  0  0
   -5.3150    2.7017    1.4620 H   0  0  0  0  0  0  0  0  0  0  0  0
  1  2  1  0  0  0  0
  1 10  1  0  0  0  0
  1 24  1  0  0  0  0
  2  3  1  0  0  0  0
  2 19  2  0  0  0  0
  3  4  1  0  0  0  0
  3 20  2  0  0  0  0
  4  5  1  0  0  0  0
  4 25  1  0  0  0  0
  5  6  1  0  0  0  0
  5 10  2  0  0  0  0
  6  7  2  0  0  0  0
  6 14  1  0  0  0  0
  7  8  1  0  0  0  0
  7 11  1  0  0  0  0
  8  9  2  0  0  0  0
  8 21  1  0  0  0  0
  9 10  1  0  0  0  0
  9 26  1  0  0  0  0
 11 12  2  0  0  0  0
 11 15  1  0  0  0  0
 12 13  1  0  0  0  0
 12 27  1  0  0  0  0
 13 14  2  0  0  0  0
 13 28  1  0  0  0  0
 14 29  1  0  0  0  0
 15 16  2  0  0  0  0
 15 17  2  0  0  0  0
 15 18  1  0  0  0  0
 18 30  1  0  0  0  0
 18 31  1  0  0  0  0
 21 22  2  0  0  0  0
 21 23  1  0  0  0  0
M  CHG  2  21   1  23  -1
M  END
>  <Mol_ID>
5560

>  <Formula>
C12H8N4O6S

>  <MolWeight>
336.28012

>  <Cat>
S9686

>  <Name>
NBQX (FG9202)

>  <Synonyms>
NNC 079202

>  <Target>
GluR

>  <Form>
Free Base

>  <CAS>
118876-58-7

>  <URL>
https://www.selleckchem.com/products/nbqx.html

$$$$
