NCGC00244536
 OpenBabel08302521353D

 51 54  0  0  0  0  0  0  0  0999 V2000
   -0.0225    0.4879   -2.0710 O   0  0  0  0  0  0  0  0  0  0  0  0
   -6.8016   -4.3037   -2.1333 O   0  0  0  0  0  0  0  0  0  0  0  0
   -5.3065   -2.9682   -3.2678 N   0  0  0  0  0  0  0  0  0  0  0  0
    1.2483    1.1982    0.2860 N   0  0  0  0  0  0  0  0  0  0  0  0
   -7.0162   -1.9156   -4.7531 C   0  0  0  0  0  0  0  0  0  0  0  0
   -6.4214   -0.5095   -4.6364 C   0  0  0  0  0  0  0  0  0  0  0  0
   -5.9759   -3.0183   -4.5542 C   0  0  0  0  0  0  0  0  0  0  0  0
   -7.4512    0.5768   -4.8394 C   0  0  0  0  0  0  0  0  0  0  0  0
   -1.8911   -1.6320    0.2923 C   0  0  0  0  0  0  0  0  0  0  0  0
   -2.9485   -2.6704    0.2303 C   0  0  0  0  0  0  0  0  0  0  0  0
   -4.8358   -3.6662   -0.9854 C   0  0  0  0  0  0  0  0  0  0  0  0
   -3.9702   -2.5921   -0.7377 C   0  0  0  0  0  0  0  0  0  0  0  0
   -0.1896   -0.3210    1.4931 C   0  0  0  0  0  0  0  0  0  0  0  0
   -1.2460   -1.2618    1.4828 C   0  0  0  0  0  0  0  0  0  0  0  0
   -5.7593   -3.6603   -2.1601 C   0  0  0  0  0  0  0  0  0  0  0  0
   -1.4464   -1.0162   -0.8887 C   0  0  0  0  0  0  0  0  0  0  0  0
    0.2391    0.2971    0.3001 C   0  0  0  0  0  0  0  0  0  0  0  0
   -2.9155   -3.8184    1.0397 C   0  0  0  0  0  0  0  0  0  0  0  0
   -0.4136   -0.0739   -0.8769 C   0  0  0  0  0  0  0  0  0  0  0  0
   -4.7779   -4.7953   -0.1658 C   0  0  0  0  0  0  0  0  0  0  0  0
   -8.2491    0.9990   -3.7673 C   0  0  0  0  0  0  0  0  0  0  0  0
   -7.6235    1.1824   -6.0916 C   0  0  0  0  0  0  0  0  0  0  0  0
   -3.8325   -4.8615    0.8578 C   0  0  0  0  0  0  0  0  0  0  0  0
    0.4733    0.0224    2.6811 C   0  0  0  0  0  0  0  0  0  0  0  0
   -9.1802    2.0252   -3.9360 C   0  0  0  0  0  0  0  0  0  0  0  0
   -8.5565    2.2093   -6.2587 C   0  0  0  0  0  0  0  0  0  0  0  0
   -9.3292    2.6344   -5.1798 C   0  0  0  0  0  0  0  0  0  0  0  0
    1.5115    0.9460    2.6600 C   0  0  0  0  0  0  0  0  0  0  0  0
    1.8591    1.5035    1.4466 C   0  0  0  0  0  0  0  0  0  0  0  0
   -0.5213    0.0954   -2.8026 H   0  0  0  0  0  0  0  0  0  0  0  0
   -4.3640   -2.6061   -3.2612 H   0  0  0  0  0  0  0  0  0  0  0  0
   -7.4583   -2.0383   -5.7507 H   0  0  0  0  0  0  0  0  0  0  0  0
   -7.8304   -2.0419   -4.0300 H   0  0  0  0  0  0  0  0  0  0  0  0
   -5.9619   -0.3701   -3.6498 H   0  0  0  0  0  0  0  0  0  0  0  0
   -5.6094   -0.3823   -5.3641 H   0  0  0  0  0  0  0  0  0  0  0  0
   -5.1945   -2.9402   -5.3181 H   0  0  0  0  0  0  0  0  0  0  0  0
   -6.4520   -3.9986   -4.6679 H   0  0  0  0  0  0  0  0  0  0  0  0
   -4.0809   -1.6833   -1.3239 H   0  0  0  0  0  0  0  0  0  0  0  0
   -1.5564   -1.7100    2.4256 H   0  0  0  0  0  0  0  0  0  0  0  0
   -1.8891   -1.2901   -1.8415 H   0  0  0  0  0  0  0  0  0  0  0  0
   -2.1470   -3.9399    1.8015 H   0  0  0  0  0  0  0  0  0  0  0  0
   -5.4464   -5.6359   -0.3420 H   0  0  0  0  0  0  0  0  0  0  0  0
   -8.1446    0.5330   -2.7898 H   0  0  0  0  0  0  0  0  0  0  0  0
   -7.0279    0.8653   -6.9444 H   0  0  0  0  0  0  0  0  0  0  0  0
   -3.7778   -5.7470    1.4880 H   0  0  0  0  0  0  0  0  0  0  0  0
    0.1907   -0.4313    3.6273 H   0  0  0  0  0  0  0  0  0  0  0  0
   -9.7862    2.3511   -3.0950 H   0  0  0  0  0  0  0  0  0  0  0  0
   -8.6766    2.6810   -7.2304 H   0  0  0  0  0  0  0  0  0  0  0  0
  -10.0476    3.4398   -5.3084 H   0  0  0  0  0  0  0  0  0  0  0  0
    2.0419    1.2212    3.5651 H   0  0  0  0  0  0  0  0  0  0  0  0
    2.6607    2.2321    1.3659 H   0  0  0  0  0  0  0  0  0  0  0  0
  1 19  1  0  0  0  0
  1 30  1  0  0  0  0
  2 15  2  0  0  0  0
  3  7  1  0  0  0  0
  3 15  1  0  0  0  0
  3 31  1  0  0  0  0
  4 17  2  0  0  0  0
  4 29  1  0  0  0  0
  5  6  1  0  0  0  0
  5  7  1  0  0  0  0
  5 32  1  0  0  0  0
  5 33  1  0  0  0  0
  6  8  1  0  0  0  0
  6 34  1  0  0  0  0
  6 35  1  0  0  0  0
  7 36  1  0  0  0  0
  7 37  1  0  0  0  0
  8 21  2  0  0  0  0
  8 22  1  0  0  0  0
  9 10  1  0  0  0  0
  9 14  2  0  0  0  0
  9 16  1  0  0  0  0
 10 12  2  0  0  0  0
 10 18  1  0  0  0  0
 11 12  1  0  0  0  0
 11 15  1  0  0  0  0
 11 20  2  0  0  0  0
 12 38  1  0  0  0  0
 13 14  1  0  0  0  0
 13 17  1  0  0  0  0
 13 24  2  0  0  0  0
 14 39  1  0  0  0  0
 16 19  2  0  0  0  0
 16 40  1  0  0  0  0
 17 19  1  0  0  0  0
 18 23  2  0  0  0  0
 18 41  1  0  0  0  0
 20 23  1  0  0  0  0
 20 42  1  0  0  0  0
 21 25  1  0  0  0  0
 21 43  1  0  0  0  0
 22 26  2  0  0  0  0
 22 44  1  0  0  0  0
 23 45  1  0  0  0  0
 24 28  1  0  0  0  0
 24 46  1  0  0  0  0
 25 27  2  0  0  0  0
 25 47  1  0  0  0  0
 26 27  1  0  0  0  0
 26 48  1  0  0  0  0
 27 49  1  0  0  0  0
 28 29  2  0  0  0  0
 28 50  1  0  0  0  0
 29 51  1  0  0  0  0
M  END
>  <Mol_ID>
6794

>  <Formula>
C25H22N2O2

>  <MolWeight>
382.45438

>  <Cat>
E0132

>  <Name>
NCGC00244536

>  <Synonyms>
N/A

>  <Target>
Histone Demethylase

>  <Form>
Free base

>  <CAS>
2003260-55-5

>  <URL>
http://www.selleckchem.com/products/ncgc00244536.html

$$$$
