NCT-503.cdx
 OpenBabel08302520433D

 51 53  0  0  0  0  0  0  0  0999 V2000
    2.1394   -4.2841   -3.8865 C   0  0  0  0  0  0  0  0  0  0  0  0
    1.7696   -5.0089   -2.7570 C   0  0  0  0  0  0  0  0  0  0  0  0
    0.7121   -4.6702   -1.9945 N   0  0  0  0  0  0  0  0  0  0  0  0
   -0.0008   -3.5774   -2.3125 C   0  0  0  0  0  0  0  0  0  0  0  0
    0.3140   -2.7890   -3.4170 C   0  0  0  0  0  0  0  0  0  0  0  0
    1.3971   -3.1523   -4.2285 C   0  0  0  0  0  0  0  0  0  0  0  0
    1.7888   -2.3468   -5.4320 C   0  0  0  0  0  0  0  0  0  0  0  0
    2.5594   -6.1968   -2.3116 C   0  0  0  0  0  0  0  0  0  0  0  0
   -1.0279   -3.1486   -1.4589 N   0  0  0  0  0  0  0  0  0  0  0  0
   -1.5010   -3.7860   -0.3419 C   0  0  0  0  0  0  0  0  0  0  0  0
   -1.3872   -5.1632   -0.2916 N   0  0  0  0  0  0  0  0  0  0  0  0
   -2.2970   -2.8619    0.8128 S   0  0  0  0  0  0  0  0  0  0  0  0
   -0.5681   -5.7516    0.7720 C   0  0  0  0  0  0  0  0  0  0  0  0
   -0.3404   -7.2629    0.5750 C   0  0  0  0  0  0  0  0  0  0  0  0
   -1.5679   -8.0649    0.3662 N   0  0  0  0  0  0  0  0  0  0  0  0
   -2.3355   -7.4550   -0.7404 C   0  0  0  0  0  0  0  0  0  0  0  0
   -2.5785   -5.9344   -0.6407 C   0  0  0  0  0  0  0  0  0  0  0  0
   -2.3741   -8.2317    1.5877 C   0  0  0  0  0  0  0  0  0  0  0  0
   -1.6514   -9.0350    2.6582 C   0  0  0  0  0  0  0  0  0  0  0  0
   -1.4124   -8.4823    3.9234 C   0  0  0  0  0  0  0  0  0  0  0  0
   -0.6258   -9.1615    4.8591 C   0  0  0  0  0  0  0  0  0  0  0  0
   -0.0682  -10.4111    4.5523 C   0  0  0  0  0  0  0  0  0  0  0  0
   -0.3786  -11.0027    3.3190 C   0  0  0  0  0  0  0  0  0  0  0  0
   -1.1640  -10.3223    2.3834 C   0  0  0  0  0  0  0  0  0  0  0  0
    0.8912  -11.0908    5.4986 C   0  0  0  0  0  0  0  0  0  0  0  0
    1.1346  -10.3779    6.6349 F   0  0  0  0  0  0  0  0  0  0  0  0
    0.4558  -12.3129    5.9112 F   0  0  0  0  0  0  0  0  0  0  0  0
    2.1130  -11.3029    4.9310 F   0  0  0  0  0  0  0  0  0  0  0  0
    2.9992   -4.5874   -4.4730 H   0  0  0  0  0  0  0  0  0  0  0  0
   -0.2679   -1.9032   -3.6484 H   0  0  0  0  0  0  0  0  0  0  0  0
    2.7941   -1.9369   -5.3003 H   0  0  0  0  0  0  0  0  0  0  0  0
    1.7723   -2.9792   -6.3267 H   0  0  0  0  0  0  0  0  0  0  0  0
    1.1011   -1.5117   -5.6004 H   0  0  0  0  0  0  0  0  0  0  0  0
    2.5592   -6.9702   -3.0834 H   0  0  0  0  0  0  0  0  0  0  0  0
    3.5871   -5.9022   -2.0814 H   0  0  0  0  0  0  0  0  0  0  0  0
    2.1273   -6.6239   -1.4011 H   0  0  0  0  0  0  0  0  0  0  0  0
   -1.3220   -2.1865   -1.5583 H   0  0  0  0  0  0  0  0  0  0  0  0
    0.3985   -5.2332    0.7859 H   0  0  0  0  0  0  0  0  0  0  0  0
   -1.0503   -5.5596    1.7364 H   0  0  0  0  0  0  0  0  0  0  0  0
    0.2861   -7.4103   -0.3128 H   0  0  0  0  0  0  0  0  0  0  0  0
    0.2541   -7.6555    1.4074 H   0  0  0  0  0  0  0  0  0  0  0  0
   -1.7791   -7.6521   -1.6664 H   0  0  0  0  0  0  0  0  0  0  0  0
   -3.2967   -7.9687   -0.8653 H   0  0  0  0  0  0  0  0  0  0  0  0
   -3.3520   -5.7281    0.1071 H   0  0  0  0  0  0  0  0  0  0  0  0
   -2.9501   -5.5595   -1.6029 H   0  0  0  0  0  0  0  0  0  0  0  0
   -2.6939   -7.2638    1.9920 H   0  0  0  0  0  0  0  0  0  0  0  0
   -3.2924   -8.7853    1.3506 H   0  0  0  0  0  0  0  0  0  0  0  0
   -1.8057   -7.5003    4.1775 H   0  0  0  0  0  0  0  0  0  0  0  0
   -0.4224   -8.6916    5.8204 H   0  0  0  0  0  0  0  0  0  0  0  0
    0.0233  -11.9828    3.0655 H   0  0  0  0  0  0  0  0  0  0  0  0
   -1.3560  -10.7782    1.4133 H   0  0  0  0  0  0  0  0  0  0  0  0
  1  2  2  0  0  0  0
  1 29  1  0  0  0  0
  2  3  1  0  0  0  0
  2  8  1  0  0  0  0
  3  4  2  0  0  0  0
  4  5  1  0  0  0  0
  4  9  1  0  0  0  0
  5  6  2  0  0  0  0
  5 30  1  0  0  0  0
  6  1  1  0  0  0  0
  6  7  1  0  0  0  0
  7 31  1  0  0  0  0
  7 32  1  0  0  0  0
  7 33  1  0  0  0  0
  8 34  1  0  0  0  0
  8 35  1  0  0  0  0
  8 36  1  0  0  0  0
  9 10  1  0  0  0  0
  9 37  1  0  0  0  0
 10 11  1  0  0  0  0
 10 12  2  0  0  0  0
 11 13  1  0  0  0  0
 13 14  1  0  0  0  0
 13 38  1  0  0  0  0
 13 39  1  0  0  0  0
 14 15  1  0  0  0  0
 14 40  1  0  0  0  0
 14 41  1  0  0  0  0
 15 16  1  0  0  0  0
 15 18  1  0  0  0  0
 16 17  1  0  0  0  0
 16 42  1  0  0  0  0
 16 43  1  0  0  0  0
 17 11  1  0  0  0  0
 17 44  1  0  0  0  0
 17 45  1  0  0  0  0
 18 19  1  0  0  0  0
 18 46  1  0  0  0  0
 18 47  1  0  0  0  0
 19 20  2  0  0  0  0
 20 21  1  0  0  0  0
 20 48  1  0  0  0  0
 21 22  2  0  0  0  0
 21 49  1  0  0  0  0
 22 23  1  0  0  0  0
 22 25  1  0  0  0  0
 23 24  2  0  0  0  0
 23 50  1  0  0  0  0
 24 19  1  0  0  0  0
 24 51  1  0  0  0  0
 25 26  1  0  0  0  0
 25 27  1  0  0  0  0
 25 28  1  0  0  0  0
M  END
>  <Mol_ID>
4156

>  <Formula>
C20H23F3N4S

>  <MolWeight>
408.4836296

>  <Cat>
S8619

>  <Name>
NCT-503

>  <Synonyms>
N/A

>  <Target>
Dehydrogenase

>  <Form>
free base

>  <CAS>
1916571-90-8

>  <URL>
http://selleckchem.com/products/nct-503.html

$$$$
