NDI-091143
 OpenBabel08302521233D

 44 46  0  0  0  0  0  0  0  0999 V2000
    0.0983   -1.1835    0.4782 C   0  0  0  0  0  0  0  0  0  0  0  0
    1.2713   -1.7869    0.9605 C   0  0  0  0  0  0  0  0  0  0  0  0
    2.4353   -1.0437    1.1929 C   0  0  0  0  0  0  0  0  0  0  0  0
    2.4477    0.3278    0.9516 C   0  0  0  0  0  0  0  0  0  0  0  0
    1.2913    0.9567    0.4817 C   0  0  0  0  0  0  0  0  0  0  0  0
    0.1188    0.1977    0.2278 C   0  0  0  0  0  0  0  0  0  0  0  0
   -1.0932   -2.0786    0.2715 C   0  0  0  0  0  0  0  0  0  0  0  0
   -2.1901   -1.4171   -0.1798 O   0  0  0  0  0  0  0  0  0  0  0  0
   -1.0509   -3.2780    0.5079 O   0  0  0  0  0  0  0  0  0  0  0  0
   -3.3504   -2.2505   -0.3702 C   0  0  0  0  0  0  0  0  0  0  0  0
    3.5886    1.0250    1.2122 O   0  0  0  0  0  0  0  0  0  0  0  0
    1.2849    2.7025    0.0968 S   0  0  0  0  0  0  0  0  0  0  0  0
    0.1762    2.9061   -0.8204 O   0  0  0  0  0  0  0  0  0  0  0  0
    0.7824    3.4331    1.5537 N   0  0  0  0  0  0  0  0  0  0  0  0
    2.6044    3.1574   -0.2578 O   0  0  0  0  0  0  0  0  0  0  0  0
    1.7955    3.8104    2.4920 C   0  0  0  0  0  0  0  0  0  0  0  0
    2.4135    5.0600    2.4239 C   0  0  0  0  0  0  0  0  0  0  0  0
    3.4097    5.4097    3.3231 C   0  0  0  0  0  0  0  0  0  0  0  0
    3.7771    4.5024    4.3136 C   0  0  0  0  0  0  0  0  0  0  0  0
    3.1658    3.2377    4.4370 C   0  0  0  0  0  0  0  0  0  0  0  0
    2.1724    2.9105    3.4887 C   0  0  0  0  0  0  0  0  0  0  0  0
    2.0077    5.9607    1.5167 F   0  0  0  0  0  0  0  0  0  0  0  0
    4.7333    4.8878    5.1737 F   0  0  0  0  0  0  0  0  0  0  0  0
    3.5445    2.2692    5.4927 C   0  0  0  0  0  0  0  0  0  0  0  0
    2.5989    1.3937    6.0621 C   0  0  0  0  0  0  0  0  0  0  0  0
    2.9708    0.4287    7.0034 C   0  0  0  0  0  0  0  0  0  0  0  0
    4.2960    0.3297    7.4125 C   0  0  0  0  0  0  0  0  0  0  0  0
    5.2443    1.2040    6.8942 C   0  0  0  0  0  0  0  0  0  0  0  0
    4.8709    2.1596    5.9456 C   0  0  0  0  0  0  0  0  0  0  0  0
    1.2912   -2.8580    1.1614 H   0  0  0  0  0  0  0  0  0  0  0  0
    3.3180   -1.5565    1.5687 H   0  0  0  0  0  0  0  0  0  0  0  0
   -0.7676    0.6909   -0.1669 H   0  0  0  0  0  0  0  0  0  0  0  0
   -3.1714   -3.0092   -1.1410 H   0  0  0  0  0  0  0  0  0  0  0  0
   -3.6541   -2.7303    0.5677 H   0  0  0  0  0  0  0  0  0  0  0  0
   -4.1783   -1.6178   -0.7064 H   0  0  0  0  0  0  0  0  0  0  0  0
    4.3275    0.4186    1.3925 H   0  0  0  0  0  0  0  0  0  0  0  0
    0.1255    4.1772    1.3117 H   0  0  0  0  0  0  0  0  0  0  0  0
    3.8913    6.3795    3.2685 H   0  0  0  0  0  0  0  0  0  0  0  0
    1.6776    1.9431    3.5260 H   0  0  0  0  0  0  0  0  0  0  0  0
    1.5490    1.4490    5.7810 H   0  0  0  0  0  0  0  0  0  0  0  0
    2.2230   -0.2459    7.4126 H   0  0  0  0  0  0  0  0  0  0  0  0
    4.5902   -0.4256    8.1359 H   0  0  0  0  0  0  0  0  0  0  0  0
    6.2804    1.1430    7.2164 H   0  0  0  0  0  0  0  0  0  0  0  0
    5.6467    2.8141    5.5534 H   0  0  0  0  0  0  0  0  0  0  0  0
  1  2  2  0  0  0  0
  1  7  1  0  0  0  0
  2  3  1  0  0  0  0
  2 30  1  0  0  0  0
  3  4  2  0  0  0  0
  3 31  1  0  0  0  0
  4  5  1  0  0  0  0
  4 11  1  0  0  0  0
  5  6  2  0  0  0  0
  5 12  1  0  0  0  0
  6  1  1  0  0  0  0
  6 32  1  0  0  0  0
  7  8  1  0  0  0  0
  7  9  2  0  0  0  0
  8 10  1  0  0  0  0
 10 33  1  0  0  0  0
 10 34  1  0  0  0  0
 10 35  1  0  0  0  0
 11 36  1  0  0  0  0
 12 13  2  0  0  0  0
 12 14  1  0  0  0  0
 12 15  2  0  0  0  0
 14 16  1  0  0  0  0
 14 37  1  0  0  0  0
 16 17  2  0  0  0  0
 17 18  1  0  0  0  0
 17 22  1  0  0  0  0
 18 19  2  0  0  0  0
 18 38  1  0  0  0  0
 19 20  1  0  0  0  0
 19 23  1  0  0  0  0
 20 21  2  0  0  0  0
 20 24  1  0  0  0  0
 21 16  1  0  0  0  0
 21 39  1  0  0  0  0
 24 25  2  0  0  0  0
 25 26  1  0  0  0  0
 25 40  1  0  0  0  0
 26 27  2  0  0  0  0
 26 41  1  0  0  0  0
 27 28  1  0  0  0  0
 27 42  1  0  0  0  0
 28 29  2  0  0  0  0
 28 43  1  0  0  0  0
 29 24  1  0  0  0  0
 29 44  1  0  0  0  0
M  END
>  <Mol_ID>
4817

>  <Formula>
C20H14ClF2NO5S

>  <MolWeight>
453.8436664

>  <Cat>
S8878

>  <Name>
NDI-091143

>  <Synonyms>
N/A

>  <Target>
ATP-citrate lyase

>  <Form>
Free Base

>  <CAS>
2375840-87-0

>  <URL>
http://www.selleck.cn/products/ndi-091143.html

$$$$
