NDMC101
 OpenBabel08302521323D

 27 28  0  0  0  0  0  0  0  0999 V2000
    0.9895   -0.0330    0.1638 C   0  0  0  0  0  0  0  0  0  0  0  0
    0.2792    1.1453   -0.0195 N   0  0  0  0  0  0  0  0  0  0  0  0
    0.4585   -1.1323    0.2859 O   0  0  0  0  0  0  0  0  0  0  0  0
    2.6379   -2.4165    0.2638 O   0  0  0  0  0  0  0  0  0  0  0  0
   -1.1085    2.2729   -2.1349 F   0  0  0  0  0  0  0  0  0  0  0  0
    2.4870    0.0174    0.1212 C   0  0  0  0  0  0  0  0  0  0  0  0
    3.2161   -1.1821    0.2003 C   0  0  0  0  0  0  0  0  0  0  0  0
    3.2025    1.2294    0.0508 C   0  0  0  0  0  0  0  0  0  0  0  0
    4.6140   -1.1805    0.2136 C   0  0  0  0  0  0  0  0  0  0  0  0
    4.6055    1.2262    0.0557 C   0  0  0  0  0  0  0  0  0  0  0  0
    5.3075    0.0272    0.1429 C   0  0  0  0  0  0  0  0  0  0  0  0
   -1.1340    1.1561   -0.0461 C   0  0  0  0  0  0  0  0  0  0  0  0
   -1.8083    1.7728   -1.0998 C   0  0  0  0  0  0  0  0  0  0  0  0
   -1.8791    0.5865    0.9925 C   0  0  0  0  0  0  0  0  0  0  0  0
   -3.1989    1.8174   -1.1398 C   0  0  0  0  0  0  0  0  0  0  0  0
   -3.2748    0.6624    0.9780 C   0  0  0  0  0  0  0  0  0  0  0  0
   -3.9393    1.2739   -0.0892 C   0  0  0  0  0  0  0  0  0  0  0  0
    0.7269    1.9030   -0.5271 H   0  0  0  0  0  0  0  0  0  0  0  0
    1.6595   -2.2948    0.2671 H   0  0  0  0  0  0  0  0  0  0  0  0
    2.7027    2.1901    0.0142 H   0  0  0  0  0  0  0  0  0  0  0  0
    5.1559   -2.1185    0.2847 H   0  0  0  0  0  0  0  0  0  0  0  0
    5.1495    2.1672    0.0052 H   0  0  0  0  0  0  0  0  0  0  0  0
    6.3954    0.0273    0.1522 H   0  0  0  0  0  0  0  0  0  0  0  0
   -1.3794    0.1131    1.8319 H   0  0  0  0  0  0  0  0  0  0  0  0
   -3.7000    2.2682   -1.9907 H   0  0  0  0  0  0  0  0  0  0  0  0
   -3.8461    0.2437    1.8036 H   0  0  0  0  0  0  0  0  0  0  0  0
   -5.0207    1.3208   -0.1009 H   0  0  0  0  0  0  0  0  0  0  0  0
  1  2  1  0  0  0  0
  1  3  2  0  0  0  0
  1  6  1  0  0  0  0
  2 12  1  0  0  0  0
  2 18  1  0  0  0  0
  4  7  1  0  0  0  0
  4 19  1  0  0  0  0
  5 13  1  0  0  0  0
  6  7  2  0  0  0  0
  6  8  1  0  0  0  0
  7  9  1  0  0  0  0
  8 10  2  0  0  0  0
  8 20  1  0  0  0  0
  9 11  2  0  0  0  0
  9 21  1  0  0  0  0
 10 11  1  0  0  0  0
 10 22  1  0  0  0  0
 11 23  1  0  0  0  0
 12 13  2  0  0  0  0
 12 14  1  0  0  0  0
 13 15  1  0  0  0  0
 14 16  2  0  0  0  0
 14 24  1  0  0  0  0
 15 17  2  0  0  0  0
 15 25  1  0  0  0  0
 16 17  1  0  0  0  0
 16 26  1  0  0  0  0
 17 27  1  0  0  0  0
M  END
>  <Mol_ID>
6185

>  <Formula>
C13H9ClFNO2

>  <MolWeight>
265.6674632

>  <Cat>
S0844

>  <Name>
NDMC101

>  <Target>
ERK,JNK,NF-¦ÊB,p38 MAPK

>  <Form>
free base

>  <CAS>
1308631-40-4

>  <URL>
http://www.selleckchem.com/products/ndmc101.html

$$$$
