NE 52-QQ57
 OpenBabel08302521253D

 59 63  0  0  0  0  0  0  0  0999 V2000
   -0.2922   -0.4153   -1.3028 O   0  0  0  0  0  0  0  0  0  0  0  0
   -0.3304   -1.0588   -0.0919 C   0  0  0  0  0  0  0  0  0  0  0  0
    0.1794   -0.3221    0.8808 N   0  0  0  0  0  0  0  0  0  0  0  0
    0.5634    0.8742    0.3055 N   0  0  0  0  0  0  0  0  0  0  0  0
    0.2619    0.7787   -0.9707 C   0  0  0  0  0  0  0  0  0  0  0  0
    0.8065    3.0814   -4.5942 N   0  0  0  0  0  0  0  0  0  0  0  0
    1.9211    2.8955   -3.6606 C   0  0  0  0  0  0  0  0  0  0  0  0
    1.7369    1.6448   -2.8050 C   0  0  0  0  0  0  0  0  0  0  0  0
    0.4207    1.7929   -2.0407 C   0  0  0  0  0  0  0  0  0  0  0  0
   -0.7110    1.8378   -3.0722 C   0  0  0  0  0  0  0  0  0  0  0  0
   -0.5061    3.0777   -3.9399 C   0  0  0  0  0  0  0  0  0  0  0  0
   -0.8683   -2.4083   -0.0970 C   0  0  0  0  0  0  0  0  0  0  0  0
   -1.3400   -2.9980   -1.2817 C   0  0  0  0  0  0  0  0  0  0  0  0
   -1.7204   -4.3443   -1.3214 C   0  0  0  0  0  0  0  0  0  0  0  0
   -1.6509   -5.1474   -0.1713 C   0  0  0  0  0  0  0  0  0  0  0  0
   -1.3279   -4.5176    1.0397 C   0  0  0  0  0  0  0  0  0  0  0  0
   -0.9107   -3.1781    1.0767 C   0  0  0  0  0  0  0  0  0  0  0  0
   -1.9726   -6.6294   -0.2289 C   0  0  0  0  0  0  0  0  0  0  0  0
   -0.2151   -7.7905   -1.7589 C   0  0  0  0  0  0  0  0  0  0  0  0
   -0.6134   -7.4873   -3.0278 N   0  0  0  0  0  0  0  0  0  0  0  0
    0.0671   -8.0235   -4.0020 C   0  0  0  0  0  0  0  0  0  0  0  0
    1.2366   -8.9382   -3.8307 C   0  0  0  0  0  0  0  0  0  0  0  0
    1.5939   -9.2240   -2.5703 C   0  0  0  0  0  0  0  0  0  0  0  0
    0.8713   -8.6442   -1.5155 N   0  0  0  0  0  0  0  0  0  0  0  0
    1.0832   -8.8228   -0.1984 N   0  0  0  0  0  0  0  0  0  0  0  0
    0.1367   -8.1059    0.4113 C   0  0  0  0  0  0  0  0  0  0  0  0
   -0.7254   -7.4232   -0.5090 C   0  0  0  0  0  0  0  0  0  0  0  0
    2.7343  -10.1404   -2.2430 C   0  0  0  0  0  0  0  0  0  0  0  0
   -0.3479   -7.7204   -5.4180 C   0  0  0  0  0  0  0  0  0  0  0  0
    0.1324   -8.1270    1.9028 C   0  0  0  0  0  0  0  0  0  0  0  0
    1.0327   -7.0414    2.4719 C   0  0  0  0  0  0  0  0  0  0  0  0
    0.9314    3.9681   -5.0850 H   0  0  0  0  0  0  0  0  0  0  0  0
    2.0116    3.7743   -3.0095 H   0  0  0  0  0  0  0  0  0  0  0  0
    2.8553    2.8193   -4.2261 H   0  0  0  0  0  0  0  0  0  0  0  0
    2.5844    1.5253   -2.1212 H   0  0  0  0  0  0  0  0  0  0  0  0
    1.7196    0.7492   -3.4438 H   0  0  0  0  0  0  0  0  0  0  0  0
    0.4287    2.7623   -1.5236 H   0  0  0  0  0  0  0  0  0  0  0  0
   -0.7051    0.9306   -3.7076 H   0  0  0  0  0  0  0  0  0  0  0  0
   -1.6940    1.8676   -2.5903 H   0  0  0  0  0  0  0  0  0  0  0  0
   -1.2865    3.1303   -4.7072 H   0  0  0  0  0  0  0  0  0  0  0  0
   -0.6109    3.9764   -3.3184 H   0  0  0  0  0  0  0  0  0  0  0  0
   -1.3973   -2.4100   -2.1958 H   0  0  0  0  0  0  0  0  0  0  0  0
   -2.0555   -4.7657   -2.2678 H   0  0  0  0  0  0  0  0  0  0  0  0
   -1.3810   -5.0706    1.9745 H   0  0  0  0  0  0  0  0  0  0  0  0
   -0.6032   -2.7419    2.0255 H   0  0  0  0  0  0  0  0  0  0  0  0
   -2.4276   -6.9440    0.7170 H   0  0  0  0  0  0  0  0  0  0  0  0
   -2.7249   -6.8164   -1.0051 H   0  0  0  0  0  0  0  0  0  0  0  0
    1.7383   -9.3387   -4.7017 H   0  0  0  0  0  0  0  0  0  0  0  0
    3.4965   -9.6209   -1.6535 H   0  0  0  0  0  0  0  0  0  0  0  0
    2.3882  -11.0126   -1.6775 H   0  0  0  0  0  0  0  0  0  0  0  0
    3.2238  -10.5138   -3.1493 H   0  0  0  0  0  0  0  0  0  0  0  0
   -1.3756   -8.0665   -5.5711 H   0  0  0  0  0  0  0  0  0  0  0  0
   -0.2984   -6.6431   -5.5877 H   0  0  0  0  0  0  0  0  0  0  0  0
    0.3019   -8.2247   -6.1397 H   0  0  0  0  0  0  0  0  0  0  0  0
   -0.8904   -8.0234    2.2810 H   0  0  0  0  0  0  0  0  0  0  0  0
    0.4911   -9.1017    2.2623 H   0  0  0  0  0  0  0  0  0  0  0  0
    0.9994   -6.1283    1.8702 H   0  0  0  0  0  0  0  0  0  0  0  0
    0.7390   -6.7964    3.4960 H   0  0  0  0  0  0  0  0  0  0  0  0
    2.0758   -7.3781    2.4920 H   0  0  0  0  0  0  0  0  0  0  0  0
  1  2  1  0  0  0  0
  1  5  1  0  0  0  0
  2  3  2  0  0  0  0
  2 12  1  0  0  0  0
  3  4  1  0  0  0  0
  4  5  2  0  0  0  0
  5  9  1  0  0  0  0
  6  7  1  0  0  0  0
  6 11  1  0  0  0  0
  6 32  1  0  0  0  0
  7  8  1  0  0  0  0
  7 33  1  0  0  0  0
  7 34  1  0  0  0  0
  8  9  1  0  0  0  0
  8 35  1  0  0  0  0
  8 36  1  0  0  0  0
  9 10  1  0  0  0  0
  9 37  1  0  0  0  0
 10 11  1  0  0  0  0
 10 38  1  0  0  0  0
 10 39  1  0  0  0  0
 11 40  1  0  0  0  0
 11 41  1  0  0  0  0
 12 13  2  0  0  0  0
 12 17  1  0  0  0  0
 13 14  1  0  0  0  0
 13 42  1  0  0  0  0
 14 15  2  0  0  0  0
 14 43  1  0  0  0  0
 15 16  1  0  0  0  0
 15 18  1  0  0  0  0
 16 17  2  0  0  0  0
 16 44  1  0  0  0  0
 17 45  1  0  0  0  0
 18 27  1  0  0  0  0
 18 46  1  0  0  0  0
 18 47  1  0  0  0  0
 19 20  1  0  0  0  0
 19 24  1  0  0  0  0
 19 27  2  0  0  0  0
 20 21  2  0  0  0  0
 21 22  1  0  0  0  0
 21 29  1  0  0  0  0
 22 23  2  0  0  0  0
 22 48  1  0  0  0  0
 23 24  1  0  0  0  0
 23 28  1  0  0  0  0
 24 25  1  0  0  0  0
 25 26  2  0  0  0  0
 26 27  1  0  0  0  0
 26 30  1  0  0  0  0
 28 49  1  0  0  0  0
 28 50  1  0  0  0  0
 28 51  1  0  0  0  0
 29 52  1  0  0  0  0
 29 53  1  0  0  0  0
 29 54  1  0  0  0  0
 30 31  1  0  0  0  0
 30 55  1  0  0  0  0
 30 56  1  0  0  0  0
 31 57  1  0  0  0  0
 31 58  1  0  0  0  0
 31 59  1  0  0  0  0
M  END
>  <Mol_ID>
5192

>  <Formula>
C24H28N6O

>  <MolWeight>
416.51872

>  <Cat>
S6850

>  <Name>
NE 52-QQ57

>  <Synonyms>
N/A

>  <Target>
cAMP,COX,GPR,Interleukins,NOS,PGES,TNF-alpha

>  <Form>
free base

>  <CAS>
1401728-56-0

>  <URL>
http://www.selleckchem.com/products/ne-52-qq57.html

$$$$
