Necrostatin 2 racemate (Nec-1s)
 OpenBabel08302521043D

 31 33  0  0  0  0  0  0  0  0999 V2000
   -3.7758    1.4406   -1.7967 C   0  0  0  0  0  0  0  0  0  0  0  0
   -2.9339    2.5281   -1.5824 C   0  0  0  0  0  0  0  0  0  0  0  0
   -1.7345    2.3785   -0.8820 C   0  0  0  0  0  0  0  0  0  0  0  0
   -1.4094    1.0995   -0.4125 C   0  0  0  0  0  0  0  0  0  0  0  0
   -2.2275   -0.0136   -0.6149 C   0  0  0  0  0  0  0  0  0  0  0  0
   -3.4344    0.1664   -1.3214 C   0  0  0  0  0  0  0  0  0  0  0  0
   -0.3103    0.6704    0.2942 N   0  0  0  0  0  0  0  0  0  0  0  0
   -0.4041   -0.6711    0.5477 C   0  0  0  0  0  0  0  0  0  0  0  0
   -1.5804   -1.1400   -0.0051 C   0  0  0  0  0  0  0  0  0  0  0  0
   -2.0830   -2.5549    0.0468 C   0  0  0  0  0  0  0  0  0  0  0  0
   -3.0494   -2.7717    1.2019 C   0  0  3  0  0  0  0  0  0  0  0  0
   -2.4653   -2.6809    2.5179 N   0  0  0  0  0  0  0  0  0  0  0  0
   -2.9419   -3.6720    3.3474 C   0  0  0  0  0  0  0  0  0  0  0  0
   -3.6248   -4.5726    2.5874 N   0  0  0  0  0  0  0  0  0  0  0  0
   -3.6354   -4.1807    1.2749 C   0  0  0  0  0  0  0  0  0  0  0  0
   -4.1130   -4.8014    0.3350 O   0  0  0  0  0  0  0  0  0  0  0  0
   -2.7675   -3.6903    4.5536 O   0  0  0  0  0  0  0  0  0  0  0  0
   -4.2877   -5.7474    3.0944 C   0  0  0  0  0  0  0  0  0  0  0  0
   -4.7041    1.5768   -2.3457 H   0  0  0  0  0  0  0  0  0  0  0  0
   -3.2130    3.5090   -1.9625 H   0  0  0  0  0  0  0  0  0  0  0  0
   -1.0772    3.2268   -0.7161 H   0  0  0  0  0  0  0  0  0  0  0  0
   -4.1007   -0.6727   -1.5039 H   0  0  0  0  0  0  0  0  0  0  0  0
    0.4523    1.2678    0.5817 H   0  0  0  0  0  0  0  0  0  0  0  0
    0.3757   -1.1803    1.0990 H   0  0  0  0  0  0  0  0  0  0  0  0
   -2.5804   -2.7918   -0.9025 H   0  0  0  0  0  0  0  0  0  0  0  0
   -1.2312   -3.2432    0.1216 H   0  0  0  0  0  0  0  0  0  0  0  0
   -3.8877   -2.0664    1.1667 H   0  0  0  0  0  0  0  0  0  0  0  0
   -2.0729   -1.8351    2.9114 H   0  0  0  0  0  0  0  0  0  0  0  0
   -5.3443   -5.6995    2.8125 H   0  0  0  0  0  0  0  0  0  0  0  0
   -3.8481   -6.6357    2.6335 H   0  0  0  0  0  0  0  0  0  0  0  0
   -4.2026   -5.8080    4.1826 H   0  0  0  0  0  0  0  0  0  0  0  0
  1  2  2  0  0  0  0
  1 19  1  0  0  0  0
  2  3  1  0  0  0  0
  2 20  1  0  0  0  0
  3  4  2  0  0  0  0
  3 21  1  0  0  0  0
  4  5  1  0  0  0  0
  4  7  1  0  0  0  0
  5  6  2  0  0  0  0
  6  1  1  0  0  0  0
  6 22  1  0  0  0  0
  7  8  1  0  0  0  0
  7 23  1  0  0  0  0
  8  9  2  0  0  0  0
  8 24  1  0  0  0  0
  9  5  1  0  0  0  0
  9 10  1  0  0  0  0
 10 11  1  0  0  0  0
 10 25  1  0  0  0  0
 10 26  1  0  0  0  0
 11 12  1  0  0  0  0
 11 27  1  0  0  0  0
 12 13  1  0  0  0  0
 12 28  1  0  0  0  0
 13 14  1  0  0  0  0
 13 17  2  0  0  0  0
 14 15  1  0  0  0  0
 14 18  1  0  0  0  0
 15 11  1  0  0  0  0
 15 16  2  0  0  0  0
 18 29  1  0  0  0  0
 18 30  1  0  0  0  0
 18 31  1  0  0  0  0
M  END
>  <Mol_ID>
4298

>  <Formula>
C13H12ClN3O2

>  <MolWeight>
277.70628

>  <Cat>
S8641

>  <Name>
Necrostatin 2 racemate (Nec-1s)

>  <Synonyms>
7-Cl-O-Nec1, Necrostatin-1 stable, Necrostatin 1S

>  <Target>
RIP kinase

>  <Form>
racemate

>  <CAS>
852391-15-2

>  <URL>
http://www.selleckchem.com/products/nec-1s-7-cl-o-nec1.html

$$$$
