Necrostatin-1.cdx
 OpenBabel08302520413D

 31 33  0  0  0  0  0  0  0  0999 V2000
   -3.8061    1.3900   -1.8158 C   0  0  0  0  0  0  0  0  0  0  0  0
   -2.9875    2.4934   -1.5893 C   0  0  0  0  0  0  0  0  0  0  0  0
   -1.7890    2.3657   -0.8822 C   0  0  0  0  0  0  0  0  0  0  0  0
   -1.4422    1.0903   -0.4163 C   0  0  0  0  0  0  0  0  0  0  0  0
   -2.2376   -0.0364   -0.6307 C   0  0  0  0  0  0  0  0  0  0  0  0
   -3.4448    0.1213   -1.3444 C   0  0  0  0  0  0  0  0  0  0  0  0
   -0.3405    0.6791    0.2958 N   0  0  0  0  0  0  0  0  0  0  0  0
   -0.4113   -0.6654    0.5434 C   0  0  0  0  0  0  0  0  0  0  0  0
   -1.5760   -1.1528   -0.0196 C   0  0  0  0  0  0  0  0  0  0  0  0
   -2.0594   -2.5752    0.0265 C   0  0  0  0  0  0  0  0  0  0  0  0
   -3.0233   -2.8062    1.1824 C   0  0  3  0  0  0  0  0  0  0  0  0
   -2.4265   -2.7128    2.4950 N   0  0  0  0  0  0  0  0  0  0  0  0
   -2.8260   -3.7466    3.3146 C   0  0  0  0  0  0  0  0  0  0  0  0
   -3.5316   -4.6455    2.5647 N   0  0  0  0  0  0  0  0  0  0  0  0
   -3.5880   -4.2242    1.2527 C   0  0  0  0  0  0  0  0  0  0  0  0
   -4.0752   -4.8393    0.3142 O   0  0  0  0  0  0  0  0  0  0  0  0
   -2.4516   -3.7752    4.9274 S   0  0  0  0  0  0  0  0  0  0  0  0
   -4.1701   -5.8710    3.0024 C   0  0  0  0  0  0  0  0  0  0  0  0
   -4.7334    1.5108   -2.3698 H   0  0  0  0  0  0  0  0  0  0  0  0
   -3.2836    3.4693   -1.9684 H   0  0  0  0  0  0  0  0  0  0  0  0
   -1.1531    3.2272   -0.7078 H   0  0  0  0  0  0  0  0  0  0  0  0
   -4.0911   -0.7282   -1.5332 H   0  0  0  0  0  0  0  0  0  0  0  0
    0.4101    1.2889    0.5912 H   0  0  0  0  0  0  0  0  0  0  0  0
    0.3724   -1.1625    1.0997 H   0  0  0  0  0  0  0  0  0  0  0  0
   -2.5534   -2.8163   -0.9232 H   0  0  0  0  0  0  0  0  0  0  0  0
   -1.1985   -3.2518    0.1003 H   0  0  0  0  0  0  0  0  0  0  0  0
   -3.8685   -2.1105    1.1555 H   0  0  0  0  0  0  0  0  0  0  0  0
   -1.9990   -1.8702    2.8629 H   0  0  0  0  0  0  0  0  0  0  0  0
   -5.2119   -5.8596    2.6654 H   0  0  0  0  0  0  0  0  0  0  0  0
   -3.6670   -6.7211    2.5340 H   0  0  0  0  0  0  0  0  0  0  0  0
   -4.1463   -5.9803    4.0885 H   0  0  0  0  0  0  0  0  0  0  0  0
  1  2  2  0  0  0  0
  1 19  1  0  0  0  0
  2  3  1  0  0  0  0
  2 20  1  0  0  0  0
  3  4  2  0  0  0  0
  3 21  1  0  0  0  0
  4  5  1  0  0  0  0
  4  7  1  0  0  0  0
  5  6  2  0  0  0  0
  6  1  1  0  0  0  0
  6 22  1  0  0  0  0
  7  8  1  0  0  0  0
  7 23  1  0  0  0  0
  8  9  2  0  0  0  0
  8 24  1  0  0  0  0
  9  5  1  0  0  0  0
  9 10  1  0  0  0  0
 10 11  1  0  0  0  0
 10 25  1  0  0  0  0
 10 26  1  0  0  0  0
 11 12  1  0  0  0  0
 11 27  1  0  0  0  0
 12 13  1  0  0  0  0
 12 28  1  0  0  0  0
 13 14  1  0  0  0  0
 13 17  2  0  0  0  0
 14 15  1  0  0  0  0
 14 18  1  0  0  0  0
 15 11  1  0  0  0  0
 15 16  2  0  0  0  0
 18 29  1  0  0  0  0
 18 30  1  0  0  0  0
 18 31  1  0  0  0  0
M  END
>  <Mol_ID>
3876

>  <Formula>
C13H13N3OS

>  <MolWeight>
259.32682

>  <Cat>
S8037

>  <Name>
Necrostatin-1

>  <Synonyms>
Nec-1

>  <Target>
Apoptosis related,Autophagy,IDO/TDO,RIP kinase,TNF-alpha

>  <Form>
free base

>  <CAS>
4311-88-0

>  <URL>
http://selleckchem.com/products/necrostatin-1.html

$$$$
