NEDD8 inhibitor M22
 OpenBabel08302521353D

 48 50  0  0  0  0  0  0  0  0999 V2000
    1.4213    0.1006    0.1785 N   0  0  0  0  0  0  0  0  0  0  0  0
   -2.9082    0.0347    0.1094 N   0  0  0  0  0  0  0  0  0  0  0  0
   -1.4947    0.0949   -0.3268 C   0  0  0  0  0  0  0  0  0  0  0  0
   -0.7498    1.2936    0.2673 C   0  0  0  0  0  0  0  0  0  0  0  0
   -0.7322   -1.1821    0.0676 C   0  0  0  0  0  0  0  0  0  0  0  0
    0.6990    1.3192   -0.2093 C   0  0  0  0  0  0  0  0  0  0  0  0
    0.7485   -1.0990   -0.3464 C   0  0  0  0  0  0  0  0  0  0  0  0
    2.8283    0.1506   -0.2782 C   0  0  0  0  0  0  0  0  0  0  0  0
   -3.6931    1.1785   -0.3940 C   0  0  0  0  0  0  0  0  0  0  0  0
    3.6165    1.3065    0.3115 C   0  0  0  0  0  0  0  0  0  0  0  0
   -5.1872    1.0999   -0.0268 C   0  0  0  0  0  0  0  0  0  0  0  0
   -6.0527    2.2734   -0.4634 C   0  0  0  0  0  0  0  0  0  0  0  0
    3.7745    1.4258    1.6995 C   0  0  0  0  0  0  0  0  0  0  0  0
    4.1645    2.2980   -0.5178 C   0  0  0  0  0  0  0  0  0  0  0  0
    4.4383    2.5245    2.2490 C   0  0  0  0  0  0  0  0  0  0  0  0
    4.8294    3.3959    0.0338 C   0  0  0  0  0  0  0  0  0  0  0  0
   -5.5735    3.3709   -1.1936 C   0  0  0  0  0  0  0  0  0  0  0  0
   -7.4151    2.2627   -0.1169 C   0  0  0  0  0  0  0  0  0  0  0  0
    4.9597    3.5134    1.4168 C   0  0  0  0  0  0  0  0  0  0  0  0
   -6.4288    4.4150   -1.5670 C   0  0  0  0  0  0  0  0  0  0  0  0
   -8.2692    3.3039   -0.4881 C   0  0  0  0  0  0  0  0  0  0  0  0
   -7.7757    4.3807   -1.2159 C   0  0  0  0  0  0  0  0  0  0  0  0
   -3.3269   -0.8333   -0.2263 H   0  0  0  0  0  0  0  0  0  0  0  0
   -1.4765    0.1638   -1.4230 H   0  0  0  0  0  0  0  0  0  0  0  0
   -1.2103    2.2394   -0.0332 H   0  0  0  0  0  0  0  0  0  0  0  0
   -0.7807    1.2540    1.3648 H   0  0  0  0  0  0  0  0  0  0  0  0
   -0.7957   -1.3449    1.1516 H   0  0  0  0  0  0  0  0  0  0  0  0
   -1.1865   -2.0583   -0.4124 H   0  0  0  0  0  0  0  0  0  0  0  0
    0.7251    1.4561   -1.2985 H   0  0  0  0  0  0  0  0  0  0  0  0
    1.1622    2.2039    0.2407 H   0  0  0  0  0  0  0  0  0  0  0  0
    1.2574   -1.9951    0.0308 H   0  0  0  0  0  0  0  0  0  0  0  0
    0.8151   -1.1288   -1.4420 H   0  0  0  0  0  0  0  0  0  0  0  0
    3.3469   -0.7719    0.0135 H   0  0  0  0  0  0  0  0  0  0  0  0
    2.8698    0.1959   -1.3752 H   0  0  0  0  0  0  0  0  0  0  0  0
   -3.2994    2.1058    0.0330 H   0  0  0  0  0  0  0  0  0  0  0  0
   -3.5944    1.2325   -1.4851 H   0  0  0  0  0  0  0  0  0  0  0  0
   -5.6123    0.1895   -0.4687 H   0  0  0  0  0  0  0  0  0  0  0  0
   -5.2746    1.0106    1.0642 H   0  0  0  0  0  0  0  0  0  0  0  0
    3.3507    0.6699    2.3586 H   0  0  0  0  0  0  0  0  0  0  0  0
    4.0602    2.2340   -1.5971 H   0  0  0  0  0  0  0  0  0  0  0  0
    4.5345    2.6149    3.3277 H   0  0  0  0  0  0  0  0  0  0  0  0
    5.2367    4.1684   -0.6151 H   0  0  0  0  0  0  0  0  0  0  0  0
   -4.5302    3.4450   -1.4862 H   0  0  0  0  0  0  0  0  0  0  0  0
   -7.8214    1.4301    0.4563 H   0  0  0  0  0  0  0  0  0  0  0  0
    5.4613    4.3766    1.8464 H   0  0  0  0  0  0  0  0  0  0  0  0
   -6.0374    5.2576   -2.1323 H   0  0  0  0  0  0  0  0  0  0  0  0
   -9.3196    3.2730   -0.2093 H   0  0  0  0  0  0  0  0  0  0  0  0
   -8.4365    5.1929   -1.5108 H   0  0  0  0  0  0  0  0  0  0  0  0
  1  6  1  0  0  0  0
  1  7  1  0  0  0  0
  1  8  1  0  0  0  0
  2  3  1  0  0  0  0
  2  9  1  0  0  0  0
  2 23  1  0  0  0  0
  3  4  1  0  0  0  0
  3  5  1  0  0  0  0
  3 24  1  0  0  0  0
  4  6  1  0  0  0  0
  4 25  1  0  0  0  0
  4 26  1  0  0  0  0
  5  7  1  0  0  0  0
  5 27  1  0  0  0  0
  5 28  1  0  0  0  0
  6 29  1  0  0  0  0
  6 30  1  0  0  0  0
  7 31  1  0  0  0  0
  7 32  1  0  0  0  0
  8 10  1  0  0  0  0
  8 33  1  0  0  0  0
  8 34  1  0  0  0  0
  9 11  1  0  0  0  0
  9 35  1  0  0  0  0
  9 36  1  0  0  0  0
 10 13  2  0  0  0  0
 10 14  1  0  0  0  0
 11 12  1  0  0  0  0
 11 37  1  0  0  0  0
 11 38  1  0  0  0  0
 12 17  2  0  0  0  0
 12 18  1  0  0  0  0
 13 15  1  0  0  0  0
 13 39  1  0  0  0  0
 14 16  2  0  0  0  0
 14 40  1  0  0  0  0
 15 19  2  0  0  0  0
 15 41  1  0  0  0  0
 16 19  1  0  0  0  0
 16 42  1  0  0  0  0
 17 20  1  0  0  0  0
 17 43  1  0  0  0  0
 18 21  2  0  0  0  0
 18 44  1  0  0  0  0
 19 45  1  0  0  0  0
 20 22  2  0  0  0  0
 20 46  1  0  0  0  0
 21 22  1  0  0  0  0
 21 47  1  0  0  0  0
 22 48  1  0  0  0  0
M  END
>  <Mol_ID>
6669

>  <Formula>
C20H24Cl2N2

>  <MolWeight>
363.32396

>  <Cat>
S3400

>  <Name>
NEDD8 inhibitor M22

>  <Synonyms>
NAE-IN-M22

>  <Target>
E1 Activating

>  <Form>
Free base

>  <CAS>
864420-54-2

>  <URL>
http://www.selleckchem.com/products/nedd8-inhibitor-m22.html

$$$$
