Nefiracetam.cdx
 OpenBabel08302521243D

 36 37  0  0  0  0  0  0  0  0999 V2000
    0.7130   -0.0105    0.0341 C   0  0  0  0  0  0  0  0  0  0  0  0
   -0.3606    0.1970    0.9842 N   0  0  0  0  0  0  0  0  0  0  0  0
    0.2436    0.1831   -1.3958 C   0  0  0  0  0  0  0  0  0  0  0  0
   -0.2859   -0.9378   -2.0013 N   0  0  0  0  0  0  0  0  0  0  0  0
   -0.7492   -0.8840   -3.3409 C   0  0  0  0  0  0  0  0  0  0  0  0
    0.2408    1.3183   -1.8943 O   0  0  0  0  0  0  0  0  0  0  0  0
    0.1223   -0.4829   -4.3835 C   0  0  0  0  0  0  0  0  0  0  0  0
   -0.3513   -0.4852   -5.7051 C   0  0  0  0  0  0  0  0  0  0  0  0
   -1.6542   -0.8765   -5.9935 C   0  0  0  0  0  0  0  0  0  0  0  0
   -2.5121   -1.2526   -4.9640 C   0  0  0  0  0  0  0  0  0  0  0  0
   -2.0786   -1.2551   -3.6291 C   0  0  0  0  0  0  0  0  0  0  0  0
   -3.0861   -1.5814   -2.5585 C   0  0  0  0  0  0  0  0  0  0  0  0
    1.5647   -0.1143   -4.1510 C   0  0  0  0  0  0  0  0  0  0  0  0
   -1.2272   -0.7932    1.3888 C   0  0  0  0  0  0  0  0  0  0  0  0
   -2.2516   -0.1736    2.3057 C   0  0  0  0  0  0  0  0  0  0  0  0
   -1.7022    1.2288    2.5539 C   0  0  0  0  0  0  0  0  0  0  0  0
   -0.8365    1.5122    1.3396 C   0  0  0  0  0  0  0  0  0  0  0  0
   -1.2040   -1.9618    1.0216 O   0  0  0  0  0  0  0  0  0  0  0  0
    1.1219   -1.0166    0.1648 H   0  0  0  0  0  0  0  0  0  0  0  0
    1.5122    0.7089    0.2408 H   0  0  0  0  0  0  0  0  0  0  0  0
   -0.7721   -1.5654   -1.3638 H   0  0  0  0  0  0  0  0  0  0  0  0
    0.3053   -0.1959   -6.5224 H   0  0  0  0  0  0  0  0  0  0  0  0
   -2.0004   -0.8905   -7.0236 H   0  0  0  0  0  0  0  0  0  0  0  0
   -3.5320   -1.5376   -5.2119 H   0  0  0  0  0  0  0  0  0  0  0  0
   -2.8557   -2.5376   -2.0819 H   0  0  0  0  0  0  0  0  0  0  0  0
   -3.1148   -0.7873   -1.8044 H   0  0  0  0  0  0  0  0  0  0  0  0
   -4.0974   -1.6537   -2.9758 H   0  0  0  0  0  0  0  0  0  0  0  0
    1.6655    0.7584   -3.5080 H   0  0  0  0  0  0  0  0  0  0  0  0
    2.1044   -0.9557   -3.7061 H   0  0  0  0  0  0  0  0  0  0  0  0
    2.0701    0.1586   -5.0830 H   0  0  0  0  0  0  0  0  0  0  0  0
   -3.2174   -0.1425    1.7914 H   0  0  0  0  0  0  0  0  0  0  0  0
   -2.3309   -0.7425    3.2352 H   0  0  0  0  0  0  0  0  0  0  0  0
   -2.4918    1.9731    2.6964 H   0  0  0  0  0  0  0  0  0  0  0  0
   -1.0820    1.2237    3.4592 H   0  0  0  0  0  0  0  0  0  0  0  0
   -1.4238    1.9220    0.5135 H   0  0  0  0  0  0  0  0  0  0  0  0
   -0.0004    2.1751    1.5741 H   0  0  0  0  0  0  0  0  0  0  0  0
  1  2  1  0  0  0  0
  1  3  1  0  0  0  0
  1 19  1  0  0  0  0
  1 20  1  0  0  0  0
  2 14  1  0  0  0  0
  3  4  1  0  0  0  0
  3  6  2  0  0  0  0
  4  5  1  0  0  0  0
  4 21  1  0  0  0  0
  5  7  2  0  0  0  0
  7  8  1  0  0  0  0
  7 13  1  0  0  0  0
  8  9  2  0  0  0  0
  8 22  1  0  0  0  0
  9 10  1  0  0  0  0
  9 23  1  0  0  0  0
 10 11  2  0  0  0  0
 10 24  1  0  0  0  0
 11  5  1  0  0  0  0
 11 12  1  0  0  0  0
 12 25  1  0  0  0  0
 12 26  1  0  0  0  0
 12 27  1  0  0  0  0
 13 28  1  0  0  0  0
 13 29  1  0  0  0  0
 13 30  1  0  0  0  0
 14 15  1  0  0  0  0
 14 18  2  0  0  0  0
 15 16  1  0  0  0  0
 15 31  1  0  0  0  0
 15 32  1  0  0  0  0
 16 17  1  0  0  0  0
 16 33  1  0  0  0  0
 16 34  1  0  0  0  0
 17  2  1  0  0  0  0
 17 35  1  0  0  0  0
 17 36  1  0  0  0  0
M  END
>  <Mol_ID>
468

>  <Formula>
C14H18N2O2

>  <MolWeight>
246.30492

>  <Cat>
S1969

>  <Name>
Nefiracetam

>  <Synonyms>
DZL 221

>  <Target>
GABA Receptor

>  <Form>
free base

>  <CAS>
77191-36-7

>  <URL>
http://selleckchem.com/products/Nefiracetam(Translon).html

$$$$
