Nefopam HCl.cdx
 OpenBabel08302521363D

 38 40  0  0  0  0  0  0  0  0999 V2000
    0.7498   -0.7392   -0.4716 C   0  0  0  0  0  0  0  0  0  0  0  0
    0.3696    0.6001   -0.7447 C   0  0  0  0  0  0  0  0  0  0  0  0
   -1.0251    0.9429   -1.2304 C   0  0  0  0  0  0  0  0  0  0  0  0
   -1.9458    1.4683   -0.2342 N   0  0  0  0  0  0  0  0  0  0  0  0
   -2.2569    0.6661    0.9544 C   0  0  0  0  0  0  0  0  0  0  0  0
   -1.5032   -0.6469    1.2546 C   0  0  0  0  0  0  0  0  0  0  0  0
   -1.5539   -1.5447    0.1477 O   0  0  0  0  0  0  0  0  0  0  0  0
   -0.3006   -1.8599   -0.4890 C   0  0  3  0  0  0  0  0  0  0  0  0
    2.0951   -0.9969   -0.1441 C   0  0  0  0  0  0  0  0  0  0  0  0
    3.0050    0.0438    0.0419 C   0  0  0  0  0  0  0  0  0  0  0  0
    2.5982    1.3612   -0.1241 C   0  0  0  0  0  0  0  0  0  0  0  0
    1.2990    1.6359   -0.5429 C   0  0  0  0  0  0  0  0  0  0  0  0
    0.1402   -3.2349    0.0142 C   0  0  0  0  0  0  0  0  0  0  0  0
    0.2770   -4.3022   -0.8934 C   0  0  0  0  0  0  0  0  0  0  0  0
    0.7048   -5.5606   -0.4631 C   0  0  0  0  0  0  0  0  0  0  0  0
    1.0035   -5.7716    0.8808 C   0  0  0  0  0  0  0  0  0  0  0  0
    0.8645   -4.7299    1.7965 C   0  0  0  0  0  0  0  0  0  0  0  0
    0.4311   -3.4706    1.3674 C   0  0  0  0  0  0  0  0  0  0  0  0
   -1.8340    2.8923    0.0229 C   0  0  0  0  0  0  0  0  0  0  0  0
   -0.9223    1.6584   -2.0591 H   0  0  0  0  0  0  0  0  0  0  0  0
   -1.4881    0.0837   -1.7283 H   0  0  0  0  0  0  0  0  0  0  0  0
   -3.3206    0.4123    0.8696 H   0  0  0  0  0  0  0  0  0  0  0  0
   -2.1697    1.2867    1.8565 H   0  0  0  0  0  0  0  0  0  0  0  0
   -0.4916   -0.4473    1.6229 H   0  0  0  0  0  0  0  0  0  0  0  0
   -2.0184   -1.1448    2.0845 H   0  0  0  0  0  0  0  0  0  0  0  0
   -0.5568   -1.9941   -1.5483 H   0  0  0  0  0  0  0  0  0  0  0  0
    2.4519   -2.0143    0.0025 H   0  0  0  0  0  0  0  0  0  0  0  0
    4.0276   -0.1784    0.3354 H   0  0  0  0  0  0  0  0  0  0  0  0
    3.2946    2.1744    0.0600 H   0  0  0  0  0  0  0  0  0  0  0  0
    1.0057    2.6708   -0.7015 H   0  0  0  0  0  0  0  0  0  0  0  0
    0.0450   -4.1630   -1.9484 H   0  0  0  0  0  0  0  0  0  0  0  0
    0.8024   -6.3751   -1.1763 H   0  0  0  0  0  0  0  0  0  0  0  0
    1.3398   -6.7491    1.2159 H   0  0  0  0  0  0  0  0  0  0  0  0
    1.0936   -4.8957    2.8458 H   0  0  0  0  0  0  0  0  0  0  0  0
    0.3338   -2.6724    2.0993 H   0  0  0  0  0  0  0  0  0  0  0  0
   -0.9757    3.1325    0.6573 H   0  0  0  0  0  0  0  0  0  0  0  0
   -1.7429    3.4583   -0.9114 H   0  0  0  0  0  0  0  0  0  0  0  0
   -2.7392    3.2650    0.5152 H   0  0  0  0  0  0  0  0  0  0  0  0
  1  2  2  0  0  0  0
  1  9  1  0  0  0  0
  2  3  1  0  0  0  0
  3  4  1  0  0  0  0
  3 20  1  0  0  0  0
  3 21  1  0  0  0  0
  4  5  1  0  0  0  0
  4 19  1  0  0  0  0
  5  6  1  0  0  0  0
  5 22  1  0  0  0  0
  5 23  1  0  0  0  0
  6  7  1  0  0  0  0
  6 24  1  0  0  0  0
  6 25  1  0  0  0  0
  7  8  1  0  0  0  0
  8  1  1  0  0  0  0
  8 13  1  0  0  0  0
  8 26  1  0  0  0  0
  9 10  2  0  0  0  0
  9 27  1  0  0  0  0
 10 11  1  0  0  0  0
 10 28  1  0  0  0  0
 11 12  2  0  0  0  0
 11 29  1  0  0  0  0
 12  2  1  0  0  0  0
 12 30  1  0  0  0  0
 13 14  2  0  0  0  0
 14 15  1  0  0  0  0
 14 31  1  0  0  0  0
 15 16  2  0  0  0  0
 15 32  1  0  0  0  0
 16 17  1  0  0  0  0
 16 33  1  0  0  0  0
 17 18  2  0  0  0  0
 17 34  1  0  0  0  0
 18 13  1  0  0  0  0
 18 35  1  0  0  0  0
 19 36  1  0  0  0  0
 19 37  1  0  0  0  0
 19 38  1  0  0  0  0
M  END
>  <Mol_ID>
7106

>  <Formula>
C17H20ClNO

>  <MolWeight>
289.7998

>  <Cat>
S4180

>  <Name>
Nefopam HCl

>  <Synonyms>
Fenazoxine hydrochloride

>  <Target>
Sodium Channel

>  <Form>
Hydrochloride

>  <CAS>
23327-57-3

>  <URL>
http://selleckchem.com/products/nefopam-hcl.html

$$$$
