NEO2734
 OpenBabel08302521263D

 55 58  0  0  0  0  0  0  0  0999 V2000
   -2.2113    0.9130   -0.0641 C   0  0  0  0  0  0  0  0  0  0  0  0
   -2.2823   -0.4533   -0.3467 C   0  0  0  0  0  0  0  0  0  0  0  0
   -1.1152   -1.1925   -0.5779 C   0  0  0  0  0  0  0  0  0  0  0  0
    0.1237   -0.5706   -0.3708 C   0  0  0  0  0  0  0  0  0  0  0  0
    0.2044    0.7954   -0.1212 C   0  0  0  0  0  0  0  0  0  0  0  0
   -0.9690    1.5559    0.0067 C   0  0  0  0  0  0  0  0  0  0  0  0
    1.4267   -1.0163   -0.2689 N   0  0  0  0  0  0  0  0  0  0  0  0
    2.2407    0.1020   -0.1163 C   0  0  0  0  0  0  0  0  0  0  0  0
    1.5074    1.1938   -0.0142 N   0  0  0  0  0  0  0  0  0  0  0  0
   -3.5460   -1.2044   -0.2433 C   0  0  0  0  0  0  0  0  0  0  0  0
    3.7519    0.0840   -0.0600 C   0  0  0  0  0  0  0  0  0  0  0  0
    1.8989   -2.3836   -0.1236 C   0  0  0  0  0  0  0  0  0  0  0  0
    0.8873   -3.5257   -0.2871 C   0  0  0  0  0  0  0  0  0  0  0  0
    1.4542   -4.7930    0.0171 O   0  0  0  0  0  0  0  0  0  0  0  0
    2.1682   -5.3680   -1.0548 C   0  0  0  0  0  0  0  0  0  0  0  0
    4.2922    1.2278    0.8161 C   0  0  0  0  0  0  0  0  0  0  0  0
    5.8091    1.3169    0.7373 C   0  0  0  0  0  0  0  0  0  0  0  0
    6.2413    1.4495   -0.6154 O   0  0  0  0  0  0  0  0  0  0  0  0
    5.8578    0.3370   -1.4183 C   0  0  0  0  0  0  0  0  0  0  0  0
    4.3424    0.1980   -1.4713 C   0  0  0  0  0  0  0  0  0  0  0  0
   -4.4109   -1.2231   -1.2710 C   0  0  0  0  0  0  0  0  0  0  0  0
   -5.5645   -1.9891   -1.2220 N   0  0  0  0  0  0  0  0  0  0  0  0
   -5.8946   -2.7973   -0.1320 C   0  0  0  0  0  0  0  0  0  0  0  0
   -4.9340   -2.7755    1.0173 C   0  0  0  0  0  0  0  0  0  0  0  0
   -3.8411   -2.0014    0.9314 C   0  0  0  0  0  0  0  0  0  0  0  0
   -6.9050   -3.4972   -0.0864 O   0  0  0  0  0  0  0  0  0  0  0  0
   -6.4861   -1.9830   -2.3434 C   0  0  0  0  0  0  0  0  0  0  0  0
   -5.2306   -3.6103    2.2226 C   0  0  0  0  0  0  0  0  0  0  0  0
    2.5093   -4.4449   -1.9795 F   0  0  0  0  0  0  0  0  0  0  0  0
    3.2952   -5.9210   -0.5688 F   0  0  0  0  0  0  0  0  0  0  0  0
    1.4204   -6.3177   -1.6433 F   0  0  0  0  0  0  0  0  0  0  0  0
   -3.1177    1.4827    0.1254 H   0  0  0  0  0  0  0  0  0  0  0  0
   -1.2150   -2.2381   -0.8425 H   0  0  0  0  0  0  0  0  0  0  0  0
   -0.9005    2.6164    0.2267 H   0  0  0  0  0  0  0  0  0  0  0  0
    4.0905   -0.8592    0.3888 H   0  0  0  0  0  0  0  0  0  0  0  0
    2.7287   -2.5097   -0.8243 H   0  0  0  0  0  0  0  0  0  0  0  0
    2.3259   -2.4547    0.8856 H   0  0  0  0  0  0  0  0  0  0  0  0
    0.0810   -3.3948    0.4426 H   0  0  0  0  0  0  0  0  0  0  0  0
    0.4389   -3.5390   -1.2880 H   0  0  0  0  0  0  0  0  0  0  0  0
    3.8771    2.1837    0.4689 H   0  0  0  0  0  0  0  0  0  0  0  0
    3.9765    1.1001    1.8583 H   0  0  0  0  0  0  0  0  0  0  0  0
    6.1585    2.1997    1.2838 H   0  0  0  0  0  0  0  0  0  0  0  0
    6.2866    0.4393    1.1881 H   0  0  0  0  0  0  0  0  0  0  0  0
    6.3303   -0.5719   -1.0279 H   0  0  0  0  0  0  0  0  0  0  0  0
    6.2503    0.5050   -2.4262 H   0  0  0  0  0  0  0  0  0  0  0  0
    4.0681   -0.6727   -2.0791 H   0  0  0  0  0  0  0  0  0  0  0  0
    3.9238    1.0830   -1.9688 H   0  0  0  0  0  0  0  0  0  0  0  0
   -4.2299   -0.6608   -2.1829 H   0  0  0  0  0  0  0  0  0  0  0  0
   -3.1292   -1.9636    1.7522 H   0  0  0  0  0  0  0  0  0  0  0  0
   -6.6168   -3.0076   -2.7061 H   0  0  0  0  0  0  0  0  0  0  0  0
   -7.4553   -1.6091   -1.9991 H   0  0  0  0  0  0  0  0  0  0  0  0
   -6.1262   -1.3553   -3.1639 H   0  0  0  0  0  0  0  0  0  0  0  0
   -4.4983   -4.4189    2.3156 H   0  0  0  0  0  0  0  0  0  0  0  0
   -5.1906   -2.9990    3.1309 H   0  0  0  0  0  0  0  0  0  0  0  0
   -6.2234   -4.0671    2.1861 H   0  0  0  0  0  0  0  0  0  0  0  0
  1  2  2  0  0  0  0
  1 32  1  0  0  0  0
  2  3  1  0  0  0  0
  2 10  1  0  0  0  0
  3  4  2  0  0  0  0
  3 33  1  0  0  0  0
  4  5  1  0  0  0  0
  4  7  1  0  0  0  0
  5  6  2  0  0  0  0
  6  1  1  0  0  0  0
  6 34  1  0  0  0  0
  7  8  1  0  0  0  0
  7 12  1  0  0  0  0
  8  9  2  0  0  0  0
  8 11  1  0  0  0  0
  9  5  1  0  0  0  0
 10 21  2  0  0  0  0
 11 16  1  0  0  0  0
 11 35  1  0  0  0  0
 12 13  1  0  0  0  0
 12 36  1  0  0  0  0
 12 37  1  0  0  0  0
 13 14  1  0  0  0  0
 13 38  1  0  0  0  0
 13 39  1  0  0  0  0
 14 15  1  0  0  0  0
 15 29  1  0  0  0  0
 15 30  1  0  0  0  0
 15 31  1  0  0  0  0
 16 17  1  0  0  0  0
 16 40  1  0  0  0  0
 16 41  1  0  0  0  0
 17 18  1  0  0  0  0
 17 42  1  0  0  0  0
 17 43  1  0  0  0  0
 18 19  1  0  0  0  0
 19 20  1  0  0  0  0
 19 44  1  0  0  0  0
 19 45  1  0  0  0  0
 20 11  1  0  0  0  0
 20 46  1  0  0  0  0
 20 47  1  0  0  0  0
 21 22  1  0  0  0  0
 21 48  1  0  0  0  0
 22 23  1  0  0  0  0
 22 27  1  0  0  0  0
 23 24  1  0  0  0  0
 23 26  2  0  0  0  0
 24 25  2  0  0  0  0
 24 28  1  0  0  0  0
 25 10  1  0  0  0  0
 25 49  1  0  0  0  0
 27 50  1  0  0  0  0
 27 51  1  0  0  0  0
 27 52  1  0  0  0  0
 28 53  1  0  0  0  0
 28 54  1  0  0  0  0
 28 55  1  0  0  0  0
M  END
>  <Mol_ID>
5247

>  <Formula>
C22H24F3N3O3

>  <MolWeight>
435.4394696

>  <Cat>
S9648

>  <Name>
NEO2734

>  <Synonyms>
EP31670

>  <Target>
Epigenetic Reader Domain,Histone Acetyltransferase

>  <Form>
free base

>  <CAS>
2081072-29-7

>  <URL>
http://www.selleckchem.com/products/neo2734.html

$$$$
