Neoandrographolide
 OpenBabel08302521263D

 74 77  0  0  0  0  0  0  0  0999 V2000
    6.3309    0.7882   -1.2133 C   0  0  1  0  0  0  0  0  0  0  0  0
    5.5908    2.0305   -0.6614 C   0  0  1  0  0  0  0  0  0  0  0  0
    4.9154    2.7038   -1.7252 O   0  0  0  0  0  0  0  0  0  0  0  0
    5.8226    3.2413   -2.6965 C   0  0  1  0  0  0  0  0  0  0  0  0
    6.6086    2.1160   -3.3718 C   0  0  2  0  0  0  0  0  0  0  0  0
    7.3177    1.2581   -2.3066 C   0  0  2  0  0  0  0  0  0  0  0  0
    7.9838    0.1624   -2.9467 O   0  0  0  0  0  0  0  0  0  0  0  0
    7.5319    2.6719   -4.3107 O   0  0  0  0  0  0  0  0  0  0  0  0
    4.9859    4.0314   -3.7067 C   0  0  0  0  0  0  0  0  0  0  0  0
    4.3002    5.0873   -3.0278 O   0  0  0  0  0  0  0  0  0  0  0  0
    4.6504    1.6797    0.3697 O   0  0  0  0  0  0  0  0  0  0  0  0
    3.9497    2.8446    0.8170 C   0  0  0  0  0  0  0  0  0  0  0  0
    3.1469    2.6674    2.1386 C   0  0  1  0  0  0  0  0  0  0  0  0
    3.9185    2.0981    3.3982 C   0  0  2  0  0  0  0  0  0  0  0  0
    5.2265    2.9014    3.7888 C   0  0  2  0  0  0  0  0  0  0  0  0
    5.7714    2.3943    5.2067 C   0  0  1  0  0  0  0  0  0  0  0  0
    5.9777    0.8680    5.0942 C   0  0  0  0  0  0  0  0  0  0  0  0
    4.7330    0.0896    4.7454 C   0  0  0  0  0  0  0  0  0  0  0  0
    4.1151    0.5691    3.4269 C   0  0  0  0  0  0  0  0  0  0  0  0
    7.1563    0.2231    5.1870 C   0  0  0  0  0  0  0  0  0  0  0  0
    7.0557    3.1057    5.7776 C   0  0  0  0  0  0  0  0  0  0  0  0
    7.0135    4.6162    6.0267 C   0  0  0  0  0  0  0  0  0  0  0  0
    8.3412    5.2002    6.3930 C   0  0  0  0  0  0  0  0  0  0  0  0
    8.6573    5.9769    7.4228 C   0  0  0  0  0  0  0  0  0  0  0  0
   10.0485    6.4401    7.3134 C   0  0  0  0  0  0  0  0  0  0  0  0
   10.5039    5.8957    6.0746 O   0  0  0  0  0  0  0  0  0  0  0  0
    9.4914    5.1956    5.4865 C   0  0  0  0  0  0  0  0  0  0  0  0
    9.5486    4.6622    4.3998 O   0  0  0  0  0  0  0  0  0  0  0  0
    4.8603    4.4116    3.8522 C   0  0  0  0  0  0  0  0  0  0  0  0
    3.7885    5.0073    2.9455 C   0  0  0  0  0  0  0  0  0  0  0  0
    2.6547    4.0773    2.5607 C   0  0  0  0  0  0  0  0  0  0  0  0
    6.3916    2.6740    2.7908 C   0  0  0  0  0  0  0  0  0  0  0  0
    1.8819    1.8398    1.7913 C   0  0  0  0  0  0  0  0  0  0  0  0
    7.0400    0.0568   -0.2044 O   0  0  0  0  0  0  0  0  0  0  0  0
    5.6107    0.0852   -1.6463 H   0  0  0  0  0  0  0  0  0  0  0  0
    6.3352    2.7037   -0.2183 H   0  0  0  0  0  0  0  0  0  0  0  0
    6.5002    3.9450   -2.1934 H   0  0  0  0  0  0  0  0  0  0  0  0
    5.9279    1.4696   -3.9394 H   0  0  0  0  0  0  0  0  0  0  0  0
    8.1246    1.8392   -1.8424 H   0  0  0  0  0  0  0  0  0  0  0  0
    7.3207   -0.5180   -3.1594 H   0  0  0  0  0  0  0  0  0  0  0  0
    8.4269    2.6456   -3.9265 H   0  0  0  0  0  0  0  0  0  0  0  0
    5.6046    4.4764   -4.4904 H   0  0  0  0  0  0  0  0  0  0  0  0
    4.2248    3.3948   -4.1698 H   0  0  0  0  0  0  0  0  0  0  0  0
    3.8113    4.6560   -2.3019 H   0  0  0  0  0  0  0  0  0  0  0  0
    4.6485    3.6791    0.8943 H   0  0  0  0  0  0  0  0  0  0  0  0
    3.2501    3.1428    0.0254 H   0  0  0  0  0  0  0  0  0  0  0  0
    3.2253    2.2735    4.2426 H   0  0  0  0  0  0  0  0  0  0  0  0
    4.9801    2.5554    5.9533 H   0  0  0  0  0  0  0  0  0  0  0  0
    4.9444   -0.9839    4.6601 H   0  0  0  0  0  0  0  0  0  0  0  0
    4.0109    0.1912    5.5658 H   0  0  0  0  0  0  0  0  0  0  0  0
    4.7255    0.2386    2.5816 H   0  0  0  0  0  0  0  0  0  0  0  0
    3.1513    0.0558    3.3303 H   0  0  0  0  0  0  0  0  0  0  0  0
    8.0971    0.7294    5.3699 H   0  0  0  0  0  0  0  0  0  0  0  0
    7.2277   -0.8498    5.0325 H   0  0  0  0  0  0  0  0  0  0  0  0
    7.2987    2.6347    6.7407 H   0  0  0  0  0  0  0  0  0  0  0  0
    7.9085    2.8848    5.1297 H   0  0  0  0  0  0  0  0  0  0  0  0
    6.7419    5.1718    5.1410 H   0  0  0  0  0  0  0  0  0  0  0  0
    6.2615    4.8463    6.7896 H   0  0  0  0  0  0  0  0  0  0  0  0
    7.9904    6.2596    8.2193 H   0  0  0  0  0  0  0  0  0  0  0  0
   10.6694    6.0744    8.1232 H   0  0  0  0  0  0  0  0  0  0  0  0
   10.1086    7.5395    7.2619 H   0  0  0  0  0  0  0  0  0  0  0  0
    5.7521    4.9935    3.6080 H   0  0  0  0  0  0  0  0  0  0  0  0
    4.5560    4.6509    4.8786 H   0  0  0  0  0  0  0  0  0  0  0  0
    4.2668    5.4036    2.0421 H   0  0  0  0  0  0  0  0  0  0  0  0
    3.3675    5.8919    3.4416 H   0  0  0  0  0  0  0  0  0  0  0  0
    2.0902    4.5487    1.7445 H   0  0  0  0  0  0  0  0  0  0  0  0
    1.9552    3.9951    3.4027 H   0  0  0  0  0  0  0  0  0  0  0  0
    7.3345    3.0797    3.1634 H   0  0  0  0  0  0  0  0  0  0  0  0
    6.5614    1.6125    2.5834 H   0  0  0  0  0  0  0  0  0  0  0  0
    6.2545    3.1853    1.8497 H   0  0  0  0  0  0  0  0  0  0  0  0
    1.0560    2.4929    1.4805 H   0  0  0  0  0  0  0  0  0  0  0  0
    2.0636    1.1526    0.9573 H   0  0  0  0  0  0  0  0  0  0  0  0
    1.5091    1.2575    2.6373 H   0  0  0  0  0  0  0  0  0  0  0  0
    7.4928    0.6818    0.3870 H   0  0  0  0  0  0  0  0  0  0  0  0
  1  2  1  0  0  0  0
  1  6  1  0  0  0  0
  1 34  1  0  0  0  0
  1 35  1  6  0  0  0
  2 11  1  0  0  0  0
  2 36  1  1  0  0  0
  3  2  1  0  0  0  0
  4  3  1  0  0  0  0
  4  9  1  0  0  0  0
  4 37  1  1  0  0  0
  5  4  1  0  0  0  0
  5  8  1  0  0  0  0
  5 38  1  6  0  0  0
  6  5  1  0  0  0  0
  6  7  1  0  0  0  0
  6 39  1  1  0  0  0
  7 40  1  0  0  0  0
  8 41  1  0  0  0  0
  9 10  1  0  0  0  0
  9 42  1  0  0  0  0
  9 43  1  0  0  0  0
 10 44  1  0  0  0  0
 12 11  1  0  0  0  0
 12 45  1  0  0  0  0
 12 46  1  0  0  0  0
 13 14  1  0  0  0  0
 13 33  1  6  0  0  0
 13 12  1  0  0  0  0
 14 19  1  0  0  0  0
 14 47  1  1  0  0  0
 15 14  1  0  0  0  0
 15 16  1  0  0  0  0
 15 29  1  0  0  0  0
 15 32  1  6  0  0  0
 16 48  1  1  0  0  0
 16 21  1  0  0  0  0
 17 16  1  0  0  0  0
 17 20  2  0  0  0  0
 18 17  1  0  0  0  0
 18 49  1  0  0  0  0
 18 50  1  0  0  0  0
 19 18  1  0  0  0  0
 19 51  1  0  0  0  0
 19 52  1  0  0  0  0
 20 53  1  0  0  0  0
 20 54  1  0  0  0  0
 21 22  1  0  0  0  0
 21 55  1  0  0  0  0
 21 56  1  0  0  0  0
 22 23  1  0  0  0  0
 22 57  1  0  0  0  0
 22 58  1  0  0  0  0
 23 27  1  0  0  0  0
 24 23  2  0  0  0  0
 24 59  1  0  0  0  0
 25 24  1  0  0  0  0
 25 60  1  0  0  0  0
 25 61  1  0  0  0  0
 26 25  1  0  0  0  0
 27 26  1  0  0  0  0
 27 28  2  0  0  0  0
 29 62  1  0  0  0  0
 29 63  1  0  0  0  0
 30 29  1  0  0  0  0
 30 31  1  0  0  0  0
 30 64  1  0  0  0  0
 30 65  1  0  0  0  0
 31 13  1  0  0  0  0
 31 66  1  0  0  0  0
 31 67  1  0  0  0  0
 32 68  1  0  0  0  0
 32 69  1  0  0  0  0
 32 70  1  0  0  0  0
 33 71  1  0  0  0  0
 33 72  1  0  0  0  0
 33 73  1  0  0  0  0
 34 74  1  0  0  0  0
M  END
>  <Mol_ID>
5291

>  <Formula>
C26H40O8

>  <MolWeight>
480.591

>  <Cat>
S9157

>  <Name>
Neoandrographolide

>  <Synonyms>
N/A

>  <Target>
Immunology & Inflammation related

>  <Form>
Free Base

>  <CAS>
27215-14-1

>  <URL>
https://www.selleckchem.com/products/neoandrographolide.html

$$$$
