Neocnidilide
 OpenBabel08302521563D

 32 33  0  0  1  0  0  0  0  0999 V2000
    1.0314   -0.0532   -0.1363 C   0  0  0  0  0  0  0  0  0  0  0  0
    0.5005    0.8441    0.9911 C   0  0  0  0  0  0  0  0  0  0  0  0
   -1.0309    0.8545    1.0303 C   0  0  0  0  0  0  0  0  0  0  0  0
   -1.5626    1.7368    2.1510 C   0  0  0  0  0  0  0  0  0  0  0  0
    4.9523    2.1017   -1.5144 O   0  0  0  0  0  0  0  0  0  0  0  0
    3.1141   -0.9351   -1.3221 C   0  0  2  0  0  0  0  0  0  0  0  0
    4.4178   -0.2493   -1.5158 C   0  0  0  0  0  0  0  0  0  0  0  0
    2.5657   -0.0597   -0.2030 C   0  0  1  0  0  0  0  0  0  0  0  0
    3.2223   -2.4419   -1.0604 C   0  0  0  0  0  0  0  0  0  0  0  0
    4.2144    1.1815   -1.2220 C   0  0  0  0  0  0  0  0  0  0  0  0
    5.5957   -0.8437   -1.7342 C   0  0  0  0  0  0  0  0  0  0  0  0
    3.0401    1.2671   -0.5272 O   0  0  0  0  0  0  0  0  0  0  0  0
    4.6433   -2.9055   -0.7132 C   0  0  0  0  0  0  0  0  0  0  0  0
    5.6838   -2.3401   -1.6916 C   0  0  0  0  0  0  0  0  0  0  0  0
    0.6264    0.3099   -1.0882 H   0  0  0  0  0  0  0  0  0  0  0  0
    0.6652   -1.0762    0.0115 H   0  0  0  0  0  0  0  0  0  0  0  0
    0.8897    0.4924    1.9512 H   0  0  0  0  0  0  0  0  0  0  0  0
    0.8635    1.8712    0.8512 H   0  0  0  0  0  0  0  0  0  0  0  0
   -1.4259    1.2176    0.0743 H   0  0  0  0  0  0  0  0  0  0  0  0
   -1.4066   -0.1653    1.1697 H   0  0  0  0  0  0  0  0  0  0  0  0
   -1.2362    2.7741    2.0254 H   0  0  0  0  0  0  0  0  0  0  0  0
   -2.6579    1.7260    2.1549 H   0  0  0  0  0  0  0  0  0  0  0  0
   -1.2185    1.3832    3.1282 H   0  0  0  0  0  0  0  0  0  0  0  0
    2.5109   -0.7819   -2.2281 H   0  0  0  0  0  0  0  0  0  0  0  0
    2.9801   -0.3372    0.7759 H   0  0  0  0  0  0  0  0  0  0  0  0
    2.9276   -2.9653   -1.9805 H   0  0  0  0  0  0  0  0  0  0  0  0
    2.5166   -2.7658   -0.2882 H   0  0  0  0  0  0  0  0  0  0  0  0
    6.5089   -0.2629   -1.8332 H   0  0  0  0  0  0  0  0  0  0  0  0
    4.6897   -4.0003   -0.7134 H   0  0  0  0  0  0  0  0  0  0  0  0
    4.8876   -2.5787    0.3068 H   0  0  0  0  0  0  0  0  0  0  0  0
    6.6850   -2.6381   -1.3578 H   0  0  0  0  0  0  0  0  0  0  0  0
    5.5394   -2.7497   -2.6986 H   0  0  0  0  0  0  0  0  0  0  0  0
  1  2  1  0  0  0  0
  1 15  1  0  0  0  0
  1 16  1  0  0  0  0
  2  3  1  0  0  0  0
  2 17  1  0  0  0  0
  2 18  1  0  0  0  0
  3  4  1  0  0  0  0
  3 19  1  0  0  0  0
  3 20  1  0  0  0  0
  4 21  1  0  0  0  0
  4 22  1  0  0  0  0
  4 23  1  0  0  0  0
  5 10  2  0  0  0  0
  6  7  1  0  0  0  0
  6  8  1  0  0  0  0
  6  9  1  0  0  0  0
  6 24  1  6  0  0  0
  7 10  1  0  0  0  0
  7 11  2  0  0  0  0
  8  1  1  0  0  0  0
  8 12  1  0  0  0  0
  8 25  1  1  0  0  0
  9 13  1  0  0  0  0
  9 26  1  0  0  0  0
  9 27  1  0  0  0  0
 10 12  1  0  0  0  0
 11 14  1  0  0  0  0
 11 28  1  0  0  0  0
 13 14  1  0  0  0  0
 13 29  1  0  0  0  0
 13 30  1  0  0  0  0
 14 31  1  0  0  0  0
 14 32  1  0  0  0  0
M  END
>  <Mol_ID>
10060

>  <Formula>
C12H18O2

>  <MolWeight>
194.27012

>  <Cat>
E5632

>  <Name>
Neocnidilide

>  <Synonyms>
N/A

>  <Target>
Fungal, Parasite

>  <Form>
free base

>  <CAS>
4567-33-3

>  <URL>
https://www.selleckchem.com/products/neocnidilide.html

$$$$
