NEOPROFEN (ibuprofen lysine).cdx
 OpenBabel08302520433D

 57 56  0  0  0  0  0  0  0  0999 V2000
    1.8721   -0.4944    0.8065 C   0  0  0  0  0  0  0  0  0  0  0  0
    0.6757   -1.7444    0.3786 C   0  0  0  0  0  0  0  0  0  0  0  0
   -0.9765   -1.3095   -0.1081 C   0  0  0  0  0  0  0  0  0  0  0  0
   -1.5370    0.3918   -0.0807 C   0  0  0  0  0  0  0  0  0  0  0  0
   -0.3645    1.6885    0.3658 C   0  0  0  0  0  0  0  0  0  0  0  0
    1.3514    1.2399    0.8721 C   0  0  0  0  0  0  0  0  0  0  0  0
    3.3456   -0.8816    0.7422 C   0  0  0  0  0  0  0  0  0  0  0  0
    3.7045   -2.2740    0.1106 C   0  0  0  0  0  0  0  0  0  0  0  0
    3.1874   -2.5183   -1.3204 C   0  0  0  0  0  0  0  0  0  0  0  0
    5.2284   -2.4624    0.0401 C   0  0  0  0  0  0  0  0  0  0  0  0
   -3.0096    0.5286   -0.3809 C   0  0  3  0  0  0  0  0  0  0  0  0
   -3.7047    1.8010    0.0431 C   0  0  0  0  0  0  0  0  0  0  0  0
   -5.0265    1.6087    0.3000 O   0  0  0  0  0  0  0  0  0  0  0  0
   -3.1920    2.9080    0.0929 O   0  0  0  0  0  0  0  0  0  0  0  0
   -3.2967    0.2268   -1.8486 C   0  0  0  0  0  0  0  0  0  0  0  0
   -1.2217    1.0499    2.4258 C   0  0  0  0  0  0  0  0  0  0  0  0
   -0.1627   -0.0619    1.4463 C   0  0  2  0  0  0  0  0  0  0  0  0
    0.4818    0.1372   -0.6500 C   0  0  0  0  0  0  0  0  0  0  0  0
    1.2997    1.4983   -1.5207 C   0  0  0  0  0  0  0  0  0  0  0  0
    1.8271    1.3142   -2.9517 C   0  0  0  0  0  0  0  0  0  0  0  0
    0.8115    1.2074   -4.0773 C   0  0  0  0  0  0  0  0  0  0  0  0
    0.1851   -0.1020   -4.1163 N   0  0  0  0  0  0  0  0  0  0  0  0
   -0.8329   -1.3893    2.2794 N   0  0  0  0  0  0  0  0  0  0  0  0
   -0.6081    2.1248    2.9848 O   0  0  0  0  0  0  0  0  0  0  0  0
   -2.3849    0.7673    2.7044 O   0  0  0  0  0  0  0  0  0  0  0  0
    0.9412   -2.7983    0.4030 H   0  0  0  0  0  0  0  0  0  0  0  0
   -1.6732   -2.1092   -0.3494 H   0  0  0  0  0  0  0  0  0  0  0  0
   -0.6621    2.7412    0.3407 H   0  0  0  0  0  0  0  0  0  0  0  0
    2.0793    2.0170    1.0921 H   0  0  0  0  0  0  0  0  0  0  0  0
    3.8477   -0.1075    0.1503 H   0  0  0  0  0  0  0  0  0  0  0  0
    3.7517   -0.8338    1.7590 H   0  0  0  0  0  0  0  0  0  0  0  0
    3.3048   -3.0648    0.7592 H   0  0  0  0  0  0  0  0  0  0  0  0
    3.4739   -1.7061   -1.9934 H   0  0  0  0  0  0  0  0  0  0  0  0
    3.5935   -3.4544   -1.7233 H   0  0  0  0  0  0  0  0  0  0  0  0
    2.1076   -2.6406   -1.3848 H   0  0  0  0  0  0  0  0  0  0  0  0
    5.6904   -2.4123    1.0285 H   0  0  0  0  0  0  0  0  0  0  0  0
    5.4758   -3.4418   -0.3908 H   0  0  0  0  0  0  0  0  0  0  0  0
    5.6869   -1.7021   -0.6023 H   0  0  0  0  0  0  0  0  0  0  0  0
   -3.4665   -0.2679    0.2234 H   0  0  0  0  0  0  0  0  0  0  0  0
   -5.3126    0.6752    0.2630 H   0  0  0  0  0  0  0  0  0  0  0  0
   -3.0215   -0.8041   -2.1004 H   0  0  0  0  0  0  0  0  0  0  0  0
   -4.3612    0.3431   -2.0776 H   0  0  0  0  0  0  0  0  0  0  0  0
   -2.7337    0.8920   -2.5112 H   0  0  0  0  0  0  0  0  0  0  0  0
    0.6371   -0.0296    2.2385 H   0  0  0  0  0  0  0  0  0  0  0  0
    1.1859   -0.6117   -1.1086 H   0  0  0  0  0  0  0  0  0  0  0  0
   -0.2626    0.0165   -1.4831 H   0  0  0  0  0  0  0  0  0  0  0  0
    0.6443    2.3762   -1.5547 H   0  0  0  0  0  0  0  0  0  0  0  0
    2.2335    1.7635   -1.0085 H   0  0  0  0  0  0  0  0  0  0  0  0
    2.4025    2.2308   -3.1649 H   0  0  0  0  0  0  0  0  0  0  0  0
    2.5608    0.5027   -2.9921 H   0  0  0  0  0  0  0  0  0  0  0  0
    0.0530    1.9941   -4.0013 H   0  0  0  0  0  0  0  0  0  0  0  0
    1.3425    1.3698   -5.0243 H   0  0  0  0  0  0  0  0  0  0  0  0
   -0.1544   -0.2764   -5.0609 H   0  0  0  0  0  0  0  0  0  0  0  0
    0.8856   -0.8179   -3.9283 H   0  0  0  0  0  0  0  0  0  0  0  0
   -0.8136   -1.1075    3.2664 H   0  0  0  0  0  0  0  0  0  0  0  0
   -1.8379   -1.3000    2.0790 H   0  0  0  0  0  0  0  0  0  0  0  0
    0.2977    2.2891    2.6744 H   0  0  0  0  0  0  0  0  0  0  0  0
  1  2  2  0  0  0  0
  1  7  1  0  0  0  0
  2  3  1  0  0  0  0
  2 26  1  0  0  0  0
  3  4  2  0  0  0  0
  3 27  1  0  0  0  0
  4  5  1  0  0  0  0
  4 11  1  0  0  0  0
  5  6  2  0  0  0  0
  5 28  1  0  0  0  0
  6  1  1  0  0  0  0
  6 29  1  0  0  0  0
  7  8  1  0  0  0  0
  7 30  1  0  0  0  0
  7 31  1  0  0  0  0
  8  9  1  0  0  0  0
  8 10  1  0  0  0  0
  8 32  1  0  0  0  0
  9 33  1  0  0  0  0
  9 34  1  0  0  0  0
  9 35  1  0  0  0  0
 10 36  1  0  0  0  0
 10 37  1  0  0  0  0
 10 38  1  0  0  0  0
 11 12  1  0  0  0  0
 11 15  1  0  0  0  0
 11 39  1  0  0  0  0
 12 13  1  0  0  0  0
 12 14  2  0  0  0  0
 13 40  1  0  0  0  0
 15 41  1  0  0  0  0
 15 42  1  0  0  0  0
 15 43  1  0  0  0  0
 16 24  1  0  0  0  0
 16 25  2  0  0  0  0
 17 23  1  0  0  0  0
 17 44  1  1  0  0  0
 17 18  1  0  0  0  0
 17 16  1  0  0  0  0
 18 19  1  0  0  0  0
 18 45  1  0  0  0  0
 18 46  1  0  0  0  0
 19 20  1  0  0  0  0
 19 47  1  0  0  0  0
 19 48  1  0  0  0  0
 20 21  1  0  0  0  0
 20 49  1  0  0  0  0
 20 50  1  0  0  0  0
 21 22  1  0  0  0  0
 21 51  1  0  0  0  0
 21 52  1  0  0  0  0
 22 53  1  0  0  0  0
 22 54  1  0  0  0  0
 23 55  1  0  0  0  0
 23 56  1  0  0  0  0
 24 57  1  0  0  0  0
M  END
>  <Mol_ID>
4024

>  <Formula>
C19H32N2O4

>  <MolWeight>
352.46838

>  <Cat>
S1518

>  <Name>
Ibuprofen Lysine

>  <Synonyms>
N/A

>  <Target>
COX

>  <Form>
Lysine

>  <CAS>
57469-77-9

>  <URL>
http://selleckchem.com/products/Ibuprofen-Lysine(Motrin).html

$$$$
