Neoruscogenin
 OpenBabel08302521343D

 71 76  0  0  0  0  0  0  0  0999 V2000
   -3.2013   -7.2580   -0.4423 O   0  0  0  0  0  0  0  0  0  0  0  0
   -4.5832   -8.9335    0.4020 O   0  0  0  0  0  0  0  0  0  0  0  0
   -3.7647   -2.1456    3.3249 O   0  0  0  0  0  0  0  0  0  0  0  0
   -5.8405   -2.8010   -0.8723 O   0  0  0  0  0  0  0  0  0  0  0  0
   -1.5325   -5.2407    1.9521 C   0  0  1  0  0  0  0  0  0  0  0  0
   -1.2066   -4.5528    0.5350 C   0  0  2  0  0  0  0  0  0  0  0  0
   -1.7641   -6.7343    1.4452 C   0  0  3  0  0  0  0  0  0  0  0  0
   -0.5465   -3.1575    0.4103 C   0  0  3  0  0  0  0  0  0  0  0  0
   -2.0449   -6.5474   -0.0894 C   0  0  3  0  0  0  0  0  0  0  0  0
   -0.8677   -2.2866    1.6049 C   0  0  3  0  0  0  0  0  0  0  0  0
   -2.2651   -5.0765   -0.3781 C   0  0  0  0  0  0  0  0  0  0  0  0
   -0.3298   -4.7049    2.7528 C   0  0  0  0  0  0  0  0  0  0  0  0
   -3.0441   -7.6015    1.7837 C   0  0  3  0  0  0  0  0  0  0  0  0
   -0.4283   -3.1084    2.8788 C   0  0  0  0  0  0  0  0  0  0  0  0
   -2.3034   -1.5344    1.3990 C   0  0  3  0  0  0  0  0  0  0  0  0
   -3.2719   -8.3623    0.4679 C   0  0  3  0  0  0  0  0  0  0  0  0
   -2.6895   -5.0410    2.9583 C   0  0  0  0  0  0  0  0  0  0  0  0
   -0.5505   -2.3743   -0.9201 C   0  0  0  0  0  0  0  0  0  0  0  0
   -2.4968   -1.2077   -0.1049 C   0  0  0  0  0  0  0  0  0  0  0  0
   -3.5224   -2.3236    1.9276 C   0  0  3  0  0  0  0  0  0  0  0  0
   -1.4364   -1.1549   -0.9338 C   0  0  0  0  0  0  0  0  0  0  0  0
   -3.0398   -8.4847    3.0253 C   0  0  0  0  0  0  0  0  0  0  0  0
   -2.2527   -9.4444    0.0979 C   0  0  0  0  0  0  0  0  0  0  0  0
   -2.1888   -0.1909    2.1756 C   0  0  0  0  0  0  0  0  0  0  0  0
   -3.6781   -1.7905   -0.8621 C   0  0  0  0  0  0  0  0  0  0  0  0
   -4.9108   -2.3031    1.2860 C   0  0  0  0  0  0  0  0  0  0  0  0
   -5.0100   -1.8647   -0.1577 C   0  0  3  0  0  0  0  0  0  0  0  0
   -2.4649   -9.9396   -1.3523 C   0  0  0  0  0  0  0  0  0  0  0  0
   -4.8894   -9.5778   -0.8258 C   0  0  0  0  0  0  0  0  0  0  0  0
   -3.8061   -9.4740   -1.8818 C   0  0  0  0  0  0  0  0  0  0  0  0
   -3.8699   -8.5263   -2.8442 C   0  0  0  0  0  0  0  0  0  0  0  0
   -2.9238   -2.1399    3.8060 H   0  0  0  0  0  0  0  0  0  0  0  0
   -5.4295   -3.6840   -0.8210 H   0  0  0  0  0  0  0  0  0  0  0  0
   -0.3149   -5.1242    0.1965 H   0  0  0  0  0  0  0  0  0  0  0  0
   -0.8510   -7.3166    1.6082 H   0  0  0  0  0  0  0  0  0  0  0  0
    0.5324   -3.3740    0.5094 H   0  0  0  0  0  0  0  0  0  0  0  0
   -1.1980   -6.9323   -0.6768 H   0  0  0  0  0  0  0  0  0  0  0  0
   -0.1327   -1.4632    1.5710 H   0  0  0  0  0  0  0  0  0  0  0  0
   -3.2777   -4.7596   -0.1113 H   0  0  0  0  0  0  0  0  0  0  0  0
   -2.1005   -4.8681   -1.4419 H   0  0  0  0  0  0  0  0  0  0  0  0
   -0.2728   -5.1420    3.7572 H   0  0  0  0  0  0  0  0  0  0  0  0
    0.6150   -4.9750    2.2612 H   0  0  0  0  0  0  0  0  0  0  0  0
   -3.9202   -6.9489    1.8936 H   0  0  0  0  0  0  0  0  0  0  0  0
   -1.0058   -2.8098    3.7533 H   0  0  0  0  0  0  0  0  0  0  0  0
    0.6010   -2.7935    3.1108 H   0  0  0  0  0  0  0  0  0  0  0  0
   -2.5985   -4.1578    3.5836 H   0  0  0  0  0  0  0  0  0  0  0  0
   -3.6888   -5.0580    2.5198 H   0  0  0  0  0  0  0  0  0  0  0  0
   -2.6527   -5.8320    3.7170 H   0  0  0  0  0  0  0  0  0  0  0  0
   -0.8404   -3.0177   -1.7588 H   0  0  0  0  0  0  0  0  0  0  0  0
    0.4650   -2.0264   -1.1463 H   0  0  0  0  0  0  0  0  0  0  0  0
   -3.2267   -3.3334    1.7396 H   0  0  0  0  0  0  0  0  0  0  0  0
   -1.5727   -0.7810   -1.9516 H   0  0  0  0  0  0  0  0  0  0  0  0
   -3.1184   -7.8961    3.9454 H   0  0  0  0  0  0  0  0  0  0  0  0
   -3.9076   -9.1581    3.0156 H   0  0  0  0  0  0  0  0  0  0  0  0
   -2.1393   -9.0968    3.0951 H   0  0  0  0  0  0  0  0  0  0  0  0
   -1.2213   -9.0881    0.1923 H   0  0  0  0  0  0  0  0  0  0  0  0
   -2.3539  -10.2926    0.7857 H   0  0  0  0  0  0  0  0  0  0  0  0
   -1.4009    0.4463    1.7601 H   0  0  0  0  0  0  0  0  0  0  0  0
   -3.1252    0.3693    2.1512 H   0  0  0  0  0  0  0  0  0  0  0  0
   -1.9216   -0.3654    3.2246 H   0  0  0  0  0  0  0  0  0  0  0  0
   -3.8222   -1.2917   -1.8298 H   0  0  0  0  0  0  0  0  0  0  0  0
   -3.3972   -2.8141   -1.1454 H   0  0  0  0  0  0  0  0  0  0  0  0
   -5.3110   -3.3256    1.3848 H   0  0  0  0  0  0  0  0  0  0  0  0
   -5.6122   -1.7068    1.8820 H   0  0  0  0  0  0  0  0  0  0  0  0
   -5.4993   -0.8957   -0.2068 H   0  0  0  0  0  0  0  0  0  0  0  0
   -1.6409   -9.5677   -1.9756 H   0  0  0  0  0  0  0  0  0  0  0  0
   -2.4082  -11.0331   -1.3765 H   0  0  0  0  0  0  0  0  0  0  0  0
   -5.8343   -9.1778   -1.2058 H   0  0  0  0  0  0  0  0  0  0  0  0
   -5.0582  -10.6398   -0.6214 H   0  0  0  0  0  0  0  0  0  0  0  0
   -4.5072   -7.6591   -2.6456 H   0  0  0  0  0  0  0  0  0  0  0  0
   -4.0949   -8.8604   -3.8567 H   0  0  0  0  0  0  0  0  0  0  0  0
  2 16  1  0  0  0  0
  2 29  1  0  0  0  0
  3 32  1  0  0  0  0
  4 33  1  0  0  0  0
  5  6  1  0  0  0  0
  5  7  1  0  0  0  0
  5 12  1  0  0  0  0
  5 17  1  1  0  0  0
  6  8  1  0  0  0  0
  6 11  1  0  0  0  0
  6 34  1  6  0  0  0
  7  9  1  0  0  0  0
  7 13  1  0  0  0  0
  7 35  1  0  0  0  0
  8 10  1  0  0  0  0
  8 18  1  0  0  0  0
  8 36  1  0  0  0  0
  9  1  1  0  0  0  0
  9 11  1  0  0  0  0
  9 37  1  0  0  0  0
 10 14  1  0  0  0  0
 10 15  1  0  0  0  0
 10 38  1  0  0  0  0
 11 39  1  0  0  0  0
 11 40  1  0  0  0  0
 12 14  1  0  0  0  0
 12 41  1  0  0  0  0
 12 42  1  0  0  0  0
 13 16  1  0  0  0  0
 13 22  1  0  0  0  0
 13 43  1  0  0  0  0
 14 44  1  0  0  0  0
 14 45  1  0  0  0  0
 15 19  1  0  0  0  0
 15 20  1  0  0  0  0
 15 24  1  0  0  0  0
 16  1  1  0  0  0  0
 16 23  1  0  0  0  0
 17 46  1  0  0  0  0
 17 47  1  0  0  0  0
 17 48  1  0  0  0  0
 18 21  1  0  0  0  0
 18 49  1  0  0  0  0
 18 50  1  0  0  0  0
 19 21  2  0  0  0  0
 19 25  1  0  0  0  0
 20  3  1  0  0  0  0
 20 26  1  0  0  0  0
 20 51  1  0  0  0  0
 21 52  1  0  0  0  0
 22 53  1  0  0  0  0
 22 54  1  0  0  0  0
 22 55  1  0  0  0  0
 23 28  1  0  0  0  0
 23 56  1  0  0  0  0
 23 57  1  0  0  0  0
 24 58  1  0  0  0  0
 24 59  1  0  0  0  0
 24 60  1  0  0  0  0
 25 27  1  0  0  0  0
 25 61  1  0  0  0  0
 25 62  1  0  0  0  0
 26 27  1  0  0  0  0
 26 63  1  0  0  0  0
 26 64  1  0  0  0  0
 27  4  1  0  0  0  0
 27 65  1  0  0  0  0
 28 30  1  0  0  0  0
 28 66  1  0  0  0  0
 28 67  1  0  0  0  0
 29 30  1  0  0  0  0
 29 68  1  0  0  0  0
 29 69  1  0  0  0  0
 30 31  2  0  0  0  0
 31 70  1  0  0  0  0
 31 71  1  0  0  0  0
M  END
>  <Mol_ID>
6551

>  <Formula>
C27H40O4

>  <MolWeight>
428.6041

>  <Cat>
S2654

>  <Name>
Neoruscogenin

>  <Synonyms>
N/A

>  <Target>
ROR

>  <Form>
free base

>  <CAS>
17676-33-4

>  <URL>
http://www.selleckchem.com/products/neoruscogenin.html

$$$$
